0:0:0
     RDKit          3D

 95104  0  0  1  0  0  0  0  0999 V2000
  -29.7440  -22.4190   20.6420 C   0  0  0  0  0  3  0  0  0  0  0  0
  -28.9200  -21.0970   20.6030 C   0  0  0  0  0  3  0  0  0  0  0  0
  -29.1210  -18.8030   17.8550 C   0  0  0  0  0  2  0  0  0  0  0  0
  -28.3620  -18.0510   18.9600 C   0  0  0  0  0  2  0  0  0  0  0  0
  -29.8150  -20.0150   18.5160 C   0  0  0  0  0  2  0  0  0  0  0  0
  -30.8690  -19.3270   20.8510 C   0  0  0  0  0  2  0  0  0  0  0  0
  -29.0360  -18.4710   20.2480 C   0  0  0  0  0  3  0  0  0  0  0  0
  -30.4300  -17.8850   20.5610 C   0  0  0  0  0  3  0  0  0  0  0  0
  -29.6690  -19.8600   20.0410 C   0  0  1  0  0  0  0  0  0  0  0  0
  -30.6230  -16.7940   21.6280 C   0  0  0  0  0  2  0  0  0  0  0  0
  -30.7110  -14.5470   20.4980 C   0  0  0  0  0  0  0  0  0  0  0  0
  -30.4040  -12.4070   19.2980 C   0  0  0  0  0  2  0  0  0  0  0  0
  -29.4560  -12.6030   18.0990 C   0  0  0  0  0  2  0  0  0  0  0  0
  -27.9840  -12.4560   18.5330 C   0  0  0  0  0  2  0  0  0  0  0  0
  -27.6480  -13.2960   19.7940 C   0  0  0  0  0  3  0  0  0  0  0  0
  -28.7020  -13.0690   20.9000 C   0  0  0  0  0  2  0  0  0  0  0  0
  -30.0270  -13.3810   20.3340 N   0  0  0  0  0  0  0  0  0  0  0  0
  -31.8010  -14.7670   19.9630 O   0  0  0  0  0  0  0  0  0  0  0  0
  -30.0920  -15.4820   21.2400 N   0  0  0  0  0  0  0  0  0  0  0  0
  -29.1920  -15.2260   21.6190 H   0  0  0  0  0  0  0  0  0  0  0  0
  -25.2500  -13.9050   20.5070 C   0  0  0  0  0  0  0  0  0  0  0  0
  -24.1820  -13.1330   20.8740 C   0  0  0  0  0  0  0  0  0  0  0  0
  -24.6400  -11.7800   20.8380 C   0  0  0  0  0  0  0  0  0  0  0  0
  -26.2940  -13.0230   20.2720 N   0  0  0  0  0  0  0  0  0  0  0  0
  -25.9300  -11.7400   20.5260 N   0  0  0  0  0  0  0  0  0  0  0  0
  -23.9130  -10.5190   21.0240 C   0  0  0  0  0  0  0  0  0  0  0  0
  -24.3290   -9.5600   21.9730 C   0  0  0  0  0  3  0  0  0  0  0  0
  -23.6030   -8.3620   22.1470 C   0  0  0  0  0  3  0  0  0  0  0  0
  -22.4450   -8.1150   21.3710 C   0  0  0  0  0  0  0  0  0  0  0  0
  -22.0480   -9.0630   20.4120 C   0  0  0  0  0  3  0  0  0  0  0  0
  -22.7750  -10.2520   20.2370 C   0  0  0  0  0  3  0  0  0  0  0  0
  -21.6920   -6.9700   21.4530 O   0  0  0  0  0  0  0  0  0  0  0  0
  -21.6090   -6.2440   22.6150 C   0  0  0  0  0  0  0  0  0  0  0  0
  -21.1100   -6.8050   23.8100 C   0  0  0  0  0  3  0  0  0  0  0  0
  -20.9770   -6.0040   24.9620 C   0  0  0  0  0  3  0  0  0  0  0  0
  -21.3340   -4.6430   24.9190 C   0  0  0  0  0  0  0  0  0  0  0  0
  -21.8270   -4.0810   23.7280 C   0  0  0  0  0  3  0  0  0  0  0  0
  -21.9610   -4.8790   22.5780 C   0  0  0  0  0  0  0  0  0  0  0  0
  -22.4160   -4.3280   21.4270 F   0  0  0  0  0  0  0  0  0  0  0  0
  -21.2000   -3.8710   26.0230 F   0  0  0  0  0  0  0  0  0  0  0  0
  -22.7860  -13.6120   21.1540 C   0  0  0  0  0  0  0  0  0  0  0  0
  -22.0570  -12.9080   22.0130 N   0  0  0  0  0  0  0  0  0  0  0  0
  -22.3500  -14.6440   20.6450 O   0  0  0  0  0  0  0  0  0  0  0  0
  -22.4220  -12.0730   22.4460 H   0  0  0  0  0  0  0  0  0  0  0  0
  -21.1210  -13.2100   22.2420 H   0  0  0  0  0  0  0  0  0  0  0  0
  -25.4180  -15.2760   20.3350 N   0  0  0  0  0  0  0  0  0  0  0  0
  -24.6570  -15.9340   20.4520 H   0  0  0  0  0  0  0  0  0  0  0  0
  -26.2780  -15.7140   20.0260 H   0  0  0  0  0  0  0  0  0  0  0  0
  -28.9170  -23.7420   20.7900 C   0  0  0  0  0  3  0  0  0  0  0  0
  -28.0490  -23.7030   22.0600 C   0  0  0  0  0  0  0  0  0  0  0  0
  -28.6010  -23.7970   23.1760 O   0  0  0  0  0  1  0  0  0  0  0  0
  -26.8140  -23.5780   21.9310 O   0  0  0  0  0  0  0  0  0  0  0  0
  -29.8260  -25.0120   20.7880 C   0  0  0  0  0  2  0  0  0  0  0  0
  -29.1190  -26.3880   20.9430 C   0  0  0  0  0  2  0  0  0  0  0  0
  -28.5200  -26.7830   19.7110 O   0  0  0  0  0  0  0  0  0  0  0  0
  -24.5240  -31.7140   23.0430 C   0  0  0  0  0  0  0  0  0  0  0  0
  -27.3560  -27.5100   19.8040 C   0  0  0  0  0  0  0  0  0  0  0  0
  -23.3820  -30.3290   21.3410 C   0  0  0  0  0  3  0  0  0  0  0  0
  -24.9040  -28.9100   19.8640 C   0  0  0  0  0  0  0  0  0  0  0  0
  -25.8900  -30.7980   21.1700 C   0  0  0  0  0  2  0  0  0  0  0  0
  -26.0350  -29.4540   20.4870 C   0  0  0  0  0  0  0  0  0  0  0  0
  -27.2660  -28.7570   20.4670 C   0  0  0  0  0  3  0  0  0  0  0  0
  -26.2150  -26.9850   19.1690 C   0  0  0  0  0  3  0  0  0  0  0  0
  -24.9860  -27.6710   19.2050 C   0  0  0  0  0  3  0  0  0  0  0  0
  -23.6240  -29.7140   19.9370 C   0  0  0  0  0  2  0  0  0  0  0  0
  -24.6160  -30.9610   21.9100 N   0  0  0  0  0  0  0  0  0  0  0  0
  -23.4320  -31.9200   23.5890 O   0  0  0  0  0  0  0  0  0  0  0  0
  -22.7700  -29.2450   22.2570 C   0  0  0  0  0  0  0  0  0  0  0  0
  -21.4490  -29.0330   22.1360 N   0  0  0  0  0  0  0  0  0  0  0  0
  -23.4800  -28.6000   23.0330 O   0  0  0  0  0  0  0  0  0  0  0  0
  -20.9360  -29.6080   21.4840 H   0  0  0  0  0  0  0  0  0  0  0  0
  -18.1080  -27.7530   22.6420 C   0  0  0  0  0  0  0  0  0  0  0  0
  -20.6670  -28.0370   22.8690 C   0  0  0  0  0  3  0  0  0  0  0  0
  -20.7780  -26.6450   22.2050 C   0  0  0  0  0  2  0  0  0  0  0  0
  -19.6580  -26.3640   21.2000 C   0  0  0  0  0  2  0  0  0  0  0  0
  -18.2890  -26.4490   21.8840 C   0  0  0  0  0  2  0  0  0  0  0  0
  -19.2250  -28.5070   23.0900 C   0  0  0  0  0  0  0  0  0  0  0  0
  -19.0020  -29.7290   23.7600 C   0  0  0  0  0  3  0  0  0  0  0  0
  -17.6940  -30.1980   23.9850 C   0  0  0  0  0  3  0  0  0  0  0  0
  -16.5920  -29.4410   23.5530 C   0  0  0  0  0  3  0  0  0  0  0  0
  -16.8000  -28.2190   22.8870 C   0  0  0  0  0  3  0  0  0  0  0  0
  -25.7840  -32.3710   23.6910 C   0  0  0  0  0  3  0  0  0  0  0  0
  -25.4210  -33.7430   24.0680 N   0  0  0  0  0  0  0  0  0  0  0  0
  -25.7140  -34.8320   23.3450 C   0  0  0  0  0  0  0  0  0  0  0  0
  -26.3900  -34.7890   22.3120 O   0  0  0  0  0  0  0  0  0  0  0  0
  -24.8220  -33.8490   24.8740 H   0  0  0  0  0  0  0  0  0  0  0  0
  -23.9260  -36.5720   23.0330 C   0  0  0  0  0  1  0  0  0  0  0  0
  -25.1710  -36.1840   23.8460 C   0  0  0  0  0  3  0  0  0  0  0  0
  -27.2600  -37.1150   24.7420 C   0  0  0  0  0  1  0  0  0  0  0  0
  -26.1670  -37.2770   23.7860 N   0  0  0  0  0  0  0  0  0  0  0  0
  -25.7250  -38.1750   23.9590 H   0  0  0  0  0  0  0  0  0  0  0  0
  -26.3280  -31.5730   24.9390 C   0  0  1  0  0  0  0  0  0  0  0  0
  -25.2430  -31.2550   25.9940 C   0  0  0  0  0  1  0  0  0  0  0  0
  -26.9630  -30.2350   24.4960 C   0  0  0  0  0  1  0  0  0  0  0  0
  -27.4460  -32.3850   25.6330 C   0  0  0  0  0  1  0  0  0  0  0  0
  2  1  2  0
  3  5  1  0
  3  4  1  0
  5  9  1  0
  7  4  1  0
  7  8  1  0
  8  6  1  0
  8 10  1  0
  9  7  1  0
  9  2  1  1
  9  6  1  0
 11 19  1  0
 12 17  1  0
 13 14  1  0
 13 12  1  0
 15 14  1  0
 15 24  1  0
 15 16  1  0
 17 11  1  0
 17 16  1  0
 18 11  2  0
 19 20  1  0
 19 10  1  0
 21 22  2  0
 22 41  1  0
 23 22  1  0
 23 26  1  0
 24 21  1  0
 24 25  1  0
 25 23  2  0
 26 27  1  0
 27 28  2  0
 29 32  1  0
 29 28  1  0
 30 29  2  0
 31 30  1  0
 31 26  2  0
 32 33  1  0
 33 34  1  0
 34 35  2  0
 36 35  1  0
 36 40  1  0
 37 36  2  0
 38 33  2  0
 38 37  1  0
 39 38  1  0
 41 42  1  0
 42 45  1  0
 42 44  1  0
 43 41  2  0
 46 47  1  0
 46 21  1  0
 48 46  1  0
 49  1  1  0
 49 50  1  0
 50 51  1  0
 52 50  2  0
 53 49  1  0
 53 54  1  0
 55 57  1  0
 55 54  1  0
 56 67  2  0
 57 62  1  0
 58 66  1  0
 58 68  1  0
 59 65  1  0
 59 61  1  0
 60 66  1  0
 61 60  1  0
 62 61  2  0
 63 64  1  0
 63 57  2  0
 64 59  2  0
 65 58  1  0
 66 56  1  0
 68 70  2  0
 69 68  1  0
 71 69  1  0
 72 81  2  0
 72 77  1  0
 73 69  1  0
 73 77  1  0
 74 73  1  0
 75 76  1  0
 75 74  1  0
 76 72  1  0
 77 78  2  0
 78 79  1  0
 80 79  2  0
 81 80  1  0
 82 56  1  0
 82 83  1  0
 82 92  1  0
 83 86  1  0
 84 88  1  0
 84 83  1  0
 85 84  2  0
 88 87  1  0
 90 88  1  0
 90 91  1  0
 90 89  1  0
 92 95  1  1
 92 93  1  0
 94 92  1  0
M  ISO  4  11 100  19 100  54 101  55 101
M  END
>  <TORSDO>  (1) 
F 23

>  <SCORE>  (1) 
-12.594

>  <name>  (1) 
0

>  <ligand_id>  (1) 
0

>  <original_smiles>  (1) 
[H]c1c([H])c([H])c2c(c1[H])C([H])([H])C([H])([H])C([H])([H])C2([H])N([H])C(=O)C1([H])N(C(=O)C([H])(N([H])C(=O)C([H])(N([H])C([H])([H])[H])C([H])([H])[H])C(C([H])([H])[H])(C([H])([H])[H])C([H])([H])[H])C([H])([H])c2c([H])c(OC([H])([H])C([H])([H])C([H])(C(=O)[O-])C([H])([H])C([H])([H])C34C([H])([H])C([H])([H])C([H])([H])C3([H])C([H])(C([H])([H])N([H])C(=O)N3C([H])([H])C([H])([H])C([H])([H])C([H])(n5nc(-c6c([H])c([H])c(Oc7c([H])c([H])c(F)c([H])c7F)c([H])c6[H])c(C(=O)N([H])[H])c5N([H])[H])C3([H])[H])C4([H])[H])c([H])c([H])c2C1([H])[H]

>  <smiles>  (1) 
[H]c1c([H])c([H])c2c(c1[H])C([H])([H])C([H])([H])C([H])([H])C2([H])N([H])C(=O)C1([H])N(C(=O)C([H])(N([H])C(=O)C([H])(N([H])C([H])([H])[H])C([H])([H])[H])C(C([H])([H])[H])(C([H])([H])[H])C([H])([H])[H])C([H])([H])c2c([H])c(OC([H])([H])C([H])([H])C([H])(C(=O)[O-])C([H])([H])C([H])([H])C34C([H])([H])C([H])([H])C([H])([H])C3([H])C([H])(C([H])([H])N([H])C(=O)N3C([H])([H])C([H])([H])C([H])([H])C([H])(n5nc(-c6c([H])c([H])c(Oc7c([H])c([H])c(F)c([H])c7F)c([H])c6[H])c(C(=O)N([H])[H])c5N([H])[H])C3([H])[H])C4([H])[H])c([H])c([H])c2C1([H])[H]

$$$$
1:0:0
     RDKit          3D

 91 98  0  0  1  0  0  0  0  0999 V2000
  -28.9820  -20.6530   21.1560 C   0  0  0  0  0  2  0  0  0  0  0  0
  -29.8480  -19.7360   20.2730 C   0  0  0  0  0  2  0  0  0  0  0  0
  -29.7870  -18.2530   20.7000 C   0  0  0  0  0  2  0  0  0  0  0  0
  -30.7360  -17.3590   19.8750 C   0  0  0  0  0  2  0  0  0  0  0  0
  -31.0910  -15.9780   20.4860 C   0  0  0  0  0  3  0  0  0  0  0  0
  -30.4030  -14.0490   19.0590 C   0  0  0  0  0  0  0  0  0  0  0  0
  -29.8280  -11.8800   18.0290 C   0  0  0  0  0  2  0  0  0  0  0  0
  -28.6670  -12.0090   17.0270 C   0  0  0  0  0  2  0  0  0  0  0  0
  -27.3140  -11.8800   17.7490 C   0  0  0  0  0  2  0  0  0  0  0  0
  -27.2160  -12.8000   18.9940 C   0  0  0  0  0  3  0  0  0  0  0  0
  -28.4650  -12.6550   19.8890 C   0  0  0  0  0  2  0  0  0  0  0  0
  -29.6590  -12.9120   19.0650 N   0  0  0  0  0  0  0  0  0  0  0  0
  -31.2830  -14.2720   18.2220 O   0  0  0  0  0  0  0  0  0  0  0  0
  -30.1730  -14.9050   20.0680 N   0  0  0  0  0  0  0  0  0  0  0  0
  -29.4120  -14.6680   20.6860 H   0  0  0  0  0  0  0  0  0  0  0  0
  -25.0490  -13.4570   20.2200 C   0  0  0  0  0  0  0  0  0  0  0  0
  -24.0530  -12.7060   20.7820 C   0  0  0  0  0  0  0  0  0  0  0  0
  -24.4400  -11.3410   20.6080 C   0  0  0  0  0  0  0  0  0  0  0  0
  -25.9840  -12.5520   19.7410 N   0  0  0  0  0  0  0  0  0  0  0  0
  -25.6320  -11.2720   20.0290 N   0  0  0  0  0  0  0  0  0  0  0  0
  -23.7190  -10.0970   20.9070 C   0  0  0  0  0  0  0  0  0  0  0  0
  -24.2550   -9.1270   21.7830 C   0  0  0  0  0  3  0  0  0  0  0  0
  -23.5340   -7.9470   22.0690 C   0  0  0  0  0  3  0  0  0  0  0  0
  -22.2660   -7.7290   21.4820 C   0  0  0  0  0  0  0  0  0  0  0  0
  -21.7480   -8.6880   20.5930 C   0  0  0  0  0  3  0  0  0  0  0  0
  -22.4670   -9.8590   20.3050 C   0  0  0  0  0  3  0  0  0  0  0  0
  -21.5070   -6.6010   21.6820 O   0  0  0  0  0  0  0  0  0  0  0  0
  -21.5570   -5.8990   22.8580 C   0  0  0  0  0  0  0  0  0  0  0  0
  -21.2440   -6.5010   24.0980 C   0  0  0  0  0  3  0  0  0  0  0  0
  -21.2390   -5.7260   25.2750 C   0  0  0  0  0  3  0  0  0  0  0  0
  -21.5380   -4.3510   25.2150 C   0  0  0  0  0  0  0  0  0  0  0  0
  -21.8440   -3.7500   23.9820 C   0  0  0  0  0  3  0  0  0  0  0  0
  -21.8500   -4.5220   22.8070 C   0  0  0  0  0  0  0  0  0  0  0  0
  -22.1250   -3.9330   21.6180 F   0  0  0  0  0  0  0  0  0  0  0  0
  -21.5250   -3.6050   26.3440 F   0  0  0  0  0  0  0  0  0  0  0  0
  -22.7670  -13.2170   21.3660 C   0  0  0  0  0  0  0  0  0  0  0  0
  -22.2420  -12.5380   22.3800 N   0  0  0  0  0  0  0  0  0  0  0  0
  -22.2450  -14.2540   20.9570 O   0  0  0  0  0  0  0  0  0  0  0  0
  -22.6810  -11.7000   22.7300 H   0  0  0  0  0  0  0  0  0  0  0  0
  -21.3890  -12.8620   22.8140 H   0  0  0  0  0  0  0  0  0  0  0  0
  -25.2300  -14.8270   20.0570 N   0  0  0  0  0  0  0  0  0  0  0  0
  -24.5350  -15.5050   20.3500 H   0  0  0  0  0  0  0  0  0  0  0  0
  -26.0190  -15.2480   19.5830 H   0  0  0  0  0  0  0  0  0  0  0  0
  -31.2500  -16.0360   22.0280 C   0  0  0  0  0  2  0  0  0  0  0  0
  -31.7760  -14.7620   22.7000 C   0  0  0  0  0  3  0  0  0  0  0  0
  -32.2090  -13.8070   22.0470 O   0  0  0  0  0  0  0  0  0  0  0  0
  -28.9480  -22.1250   20.6940 C   0  0  0  0  0  2  0  0  0  0  0  0
  -27.9590  -22.9660   21.5250 C   0  0  0  0  0  2  0  0  0  0  0  0
  -27.5220  -24.3010   20.8830 C   0  0  0  0  0  2  0  0  0  0  0  0
  -28.4960  -25.4870   21.0670 C   0  0  0  0  0  2  0  0  0  0  0  0
  -28.3480  -26.5210   20.0820 O   0  0  0  0  0  0  0  0  0  0  0  0
  -24.7770  -31.8160   23.2550 C   0  0  0  0  0  0  0  0  0  0  0  0
  -27.1990  -27.2730   20.1540 C   0  0  0  0  0  0  0  0  0  0  0  0
  -23.4790  -30.4260   21.6730 C   0  0  0  0  0  3  0  0  0  0  0  0
  -24.8440  -28.8320   20.2240 C   0  0  0  0  0  0  0  0  0  0  0  0
  -26.0040  -30.7160   21.3870 C   0  0  0  0  0  2  0  0  0  0  0  0
  -26.0330  -29.3330   20.7700 C   0  0  0  0  0  0  0  0  0  0  0  0
  -27.2140  -28.5590   20.7370 C   0  0  0  0  0  3  0  0  0  0  0  0
  -26.0020  -26.7960   19.5800 C   0  0  0  0  0  3  0  0  0  0  0  0
  -24.8210  -27.5600   19.6290 C   0  0  0  0  0  3  0  0  0  0  0  0
  -23.6230  -29.7210   20.2980 C   0  0  0  0  0  2  0  0  0  0  0  0
  -24.7740  -31.0010   22.1630 N   0  0  0  0  0  0  0  0  0  0  0  0
  -23.7220  -32.1240   23.8270 O   0  0  0  0  0  0  0  0  0  0  0  0
  -22.8360  -29.4340   22.6690 C   0  0  0  0  0  0  0  0  0  0  0  0
  -21.5200  -29.2070   22.5210 N   0  0  0  0  0  0  0  0  0  0  0  0
  -23.5170  -28.8690   23.5290 O   0  0  0  0  0  0  0  0  0  0  0  0
  -21.0320  -29.7140   21.7960 H   0  0  0  0  0  0  0  0  0  0  0  0
  -18.1870  -27.8790   22.9430 C   0  0  0  0  0  0  0  0  0  0  0  0
  -20.7110  -28.2860   23.3170 C   0  0  0  0  0  3  0  0  0  0  0  0
  -20.9100  -26.8240   22.8520 C   0  0  0  0  0  2  0  0  0  0  0  0
  -19.8800  -26.3750   21.8130 C   0  0  0  0  0  2  0  0  0  0  0  0
  -18.4610  -26.4960   22.3770 C   0  0  0  0  0  2  0  0  0  0  0  0
  -19.2440  -28.7260   23.3680 C   0  0  0  0  0  0  0  0  0  0  0  0
  -18.9370  -30.0160   23.8520 C   0  0  0  0  0  3  0  0  0  0  0  0
  -17.6030  -30.4620   23.9150 C   0  0  0  0  0  3  0  0  0  0  0  0
  -16.5590  -29.6140   23.5080 C   0  0  0  0  0  3  0  0  0  0  0  0
  -16.8510  -28.3250   23.0260 C   0  0  0  0  0  3  0  0  0  0  0  0
  -26.1000  -32.4190   23.8210 C   0  0  0  0  0  3  0  0  0  0  0  0
  -26.6880  -31.6000   25.0360 C   0  0  1  0  0  0  0  0  0  0  0  0
  -25.6470  -31.2860   26.1350 C   0  0  0  0  0  1  0  0  0  0  0  0
  -27.2830  -30.2570   24.5510 C   0  0  0  0  0  1  0  0  0  0  0  0
  -27.8490  -32.3880   25.6860 C   0  0  0  0  0  1  0  0  0  0  0  0
  -25.8200  -33.8060   24.2160 N   0  0  0  0  0  0  0  0  0  0  0  0
  -26.1140  -34.8810   23.4720 C   0  0  0  0  0  0  0  0  0  0  0  0
  -26.7210  -34.8080   22.4000 O   0  0  0  0  0  0  0  0  0  0  0  0
  -25.2770  -33.9360   25.0560 H   0  0  0  0  0  0  0  0  0  0  0  0
  -24.3720  -36.6850   23.2820 C   0  0  0  0  0  1  0  0  0  0  0  0
  -25.6600  -36.2550   24.0010 C   0  0  0  0  0  3  0  0  0  0  0  0
  -27.8460  -37.1090   24.7230 C   0  0  0  0  0  1  0  0  0  0  0  0
  -26.6870  -37.3090   23.8560 N   0  0  0  0  0  0  0  0  0  0  0  0
  -26.2950  -38.2260   24.0560 H   0  0  0  0  0  0  0  0  0  0  0  0
  2  3  1  0
  2  1  1  0
  4  3  1  0
  5  4  1  0
  5 44  1  0
  6 12  1  0
  6 14  1  0
  7 12  1  0
  8  9  1  0
  8  7  1  0
 10  9  1  0
 10 19  1  0
 10 11  1  0
 12 11  1  0
 13  6  2  0
 14  5  1  0
 14 15  1  0
 16 17  2  0
 17 36  1  0
 18 17  1  0
 18 21  1  0
 19 20  1  0
 19 16  1  0
 20 18  2  0
 21 22  1  0
 22 23  2  0
 24 27  1  0
 24 23  1  0
 25 24  2  0
 26 25  1  0
 26 21  2  0
 27 28  1  0
 28 29  1  0
 29 30  2  0
 31 30  1  0
 31 35  1  0
 32 31  2  0
 33 28  2  0
 33 32  1  0
 34 33  1  0
 36 37  1  0
 37 39  1  0
 37 40  1  0
 38 36  2  0
 41 16  1  0
 41 42  1  0
 43 41  1  0
 44 45  1  0
 46 45  2  0
 47  1  1  0
 47 48  1  0
 49 50  1  0
 49 48  1  0
 51 53  1  0
 51 50  1  0
 52 63  2  0
 53 58  1  0
 54 62  1  0
 54 64  1  0
 55 61  1  0
 55 57  1  0
 56 62  1  0
 57 56  1  0
 58 57  2  0
 59 60  1  0
 59 53  2  0
 60 55  2  0
 61 54  1  0
 62 52  1  0
 64 66  2  0
 65 64  1  0
 67 65  1  0
 68 77  2  0
 68 73  1  0
 69 65  1  0
 69 73  1  0
 70 69  1  0
 71 72  1  0
 71 70  1  0
 72 68  1  0
 73 74  2  0
 74 75  1  0
 76 75  2  0
 77 76  1  0
 78 52  1  0
 78 83  1  0
 78 79  1  0
 79 82  1  1
 79 80  1  0
 81 79  1  0
 83 86  1  0
 84 88  1  0
 84 83  1  0
 85 84  2  0
 88 87  1  0
 90 88  1  0
 90 91  1  0
 90 89  1  0
M  ISO  4   6 100  14 100  50 101  51 101
M  END
>  <TORSDO>  (2) 
F 26

>  <SCORE>  (2) 
-7.731

>  <name>  (2) 
1

>  <ligand_id>  (2) 
1

>  <original_smiles>  (2) 
[H]C(=O)C([H])([H])C([H])(N([H])C(=O)N1C([H])([H])C([H])([H])C([H])([H])C([H])(n2nc(-c3c([H])c([H])c(Oc4c([H])c([H])c(F)c([H])c4F)c([H])c3[H])c(C(=O)N([H])[H])c2N([H])[H])C1([H])[H])C([H])([H])C([H])([H])C([H])([H])C([H])([H])C([H])([H])C([H])([H])C([H])([H])C([H])([H])Oc1c([H])c([H])c2c(c1[H])C([H])([H])N(C(=O)C([H])(N([H])C(=O)C([H])(N([H])C([H])([H])[H])C([H])([H])[H])C(C([H])([H])[H])(C([H])([H])[H])C([H])([H])[H])C([H])(C(=O)N([H])C1([H])c3c([H])c([H])c([H])c([H])c3C([H])([H])C([H])([H])C1([H])[H])C2([H])[H]

>  <smiles>  (2) 
[H]C(=O)C([H])([H])C([H])(N([H])C(=O)N1C([H])([H])C([H])([H])C([H])([H])C([H])(n2nc(-c3c([H])c([H])c(Oc4c([H])c([H])c(F)c([H])c4F)c([H])c3[H])c(C(=O)N([H])[H])c2N([H])[H])C1([H])[H])C([H])([H])C([H])([H])C([H])([H])C([H])([H])C([H])([H])C([H])([H])C([H])([H])C([H])([H])Oc1c([H])c([H])c2c(c1[H])C([H])([H])N(C(=O)C([H])(N([H])C(=O)C([H])(N([H])C([H])([H])[H])C([H])([H])[H])C(C([H])([H])[H])(C([H])([H])[H])C([H])([H])[H])C([H])(C(=O)N([H])C1([H])c3c([H])c([H])c([H])c([H])c3C([H])([H])C([H])([H])C1([H])[H])C2([H])[H]

$$$$
2:0:0
     RDKit          3D

 94103  0  0  1  0  0  0  0  0999 V2000
  -31.8470  -22.2100   20.8450 C   0  0  0  0  0  2  0  0  0  0  0  0
  -30.8160  -23.1430   20.1800 C   0  0  0  0  0  2  0  0  0  0  0  0
  -30.4160  -20.3330   21.8170 C   0  0  0  0  0  2  0  0  0  0  0  0
  -30.1310  -22.7440   22.4240 C   0  0  0  0  0  2  0  0  0  0  0  0
  -28.6650  -21.8210   20.6430 C   0  0  0  0  0  2  0  0  0  0  0  0
  -31.1510  -21.6570   22.0960 C   0  0  0  0  0  3  0  0  0  0  0  0
  -29.4280  -20.4350   20.6320 C   0  0  0  0  0  3  0  0  0  0  0  0
  -29.5350  -23.0710   21.0440 C   0  0  2  0  0  0  0  0  0  0  0  0
  -28.4600  -19.2080   20.6080 C   0  0  0  0  0  2  0  0  0  0  0  0
  -28.9140  -17.7480   20.2170 C   0  0  0  0  0  3  0  0  0  0  0  0
  -30.2860  -18.1860   18.0320 C   0  0  0  0  0  1  0  0  0  0  0  0
  -29.0790  -17.5100   18.6990 C   0  0  0  0  0  2  0  0  0  0  0  0
  -30.0020  -17.0040   21.0640 C   0  0  0  0  0  2  0  0  0  0  0  0
  -30.5990  -14.5550   20.5220 C   0  0  0  0  0  0  0  0  0  0  0  0
  -30.3800  -12.3860   19.3500 C   0  0  0  0  0  2  0  0  0  0  0  0
  -29.4400  -12.5780   18.1400 C   0  0  0  0  0  2  0  0  0  0  0  0
  -27.9650  -12.4180   18.5550 C   0  0  0  0  0  2  0  0  0  0  0  0
  -27.6080  -13.2490   19.8160 C   0  0  0  0  0  3  0  0  0  0  0  0
  -28.6490  -13.0140   20.9330 C   0  0  0  0  0  2  0  0  0  0  0  0
  -29.9760  -13.3510   20.3880 N   0  0  0  0  0  0  0  0  0  0  0  0
  -31.7270  -14.7780   20.0750 O   0  0  0  0  0  0  0  0  0  0  0  0
  -29.8150  -15.5340   21.0320 N   0  0  0  0  0  0  0  0  0  0  0  0
  -28.9200  -15.2080   21.3620 H   0  0  0  0  0  0  0  0  0  0  0  0
  -25.1970  -13.8600   20.4740 C   0  0  0  0  0  0  0  0  0  0  0  0
  -24.1240  -13.0930   20.8390 C   0  0  0  0  0  0  0  0  0  0  0  0
  -24.5890  -11.7420   20.8330 C   0  0  0  0  0  0  0  0  0  0  0  0
  -26.2480  -12.9780   20.2740 N   0  0  0  0  0  0  0  0  0  0  0  0
  -25.8840  -11.6990   20.5470 N   0  0  0  0  0  0  0  0  0  0  0  0
  -23.8630  -10.4810   21.0270 C   0  0  0  0  0  0  0  0  0  0  0  0
  -24.2920   -9.5210   21.9710 C   0  0  0  0  0  3  0  0  0  0  0  0
  -23.5700   -8.3220   22.1520 C   0  0  0  0  0  3  0  0  0  0  0  0
  -22.4030   -8.0740   21.3900 C   0  0  0  0  0  0  0  0  0  0  0  0
  -21.9930   -9.0230   20.4360 C   0  0  0  0  0  3  0  0  0  0  0  0
  -22.7170  -10.2130   20.2530 C   0  0  0  0  0  3  0  0  0  0  0  0
  -21.6530   -6.9270   21.4810 O   0  0  0  0  0  0  0  0  0  0  0  0
  -21.6050   -6.1880   22.6350 C   0  0  0  0  0  0  0  0  0  0  0  0
  -21.1810   -6.7450   23.8620 C   0  0  0  0  0  3  0  0  0  0  0  0
  -21.0820   -5.9300   25.0070 C   0  0  0  0  0  3  0  0  0  0  0  0
  -21.3960   -4.5610   24.9280 C   0  0  0  0  0  0  0  0  0  0  0  0
  -21.8130   -4.0030   23.7060 C   0  0  0  0  0  3  0  0  0  0  0  0
  -21.9140   -4.8150   22.5630 C   0  0  0  0  0  0  0  0  0  0  0  0
  -22.2960   -4.2680   21.3830 F   0  0  0  0  0  0  0  0  0  0  0  0
  -21.2920   -3.7770   26.0260 F   0  0  0  0  0  0  0  0  0  0  0  0
  -22.7220  -13.5710   21.0830 C   0  0  0  0  0  0  0  0  0  0  0  0
  -21.9810  -12.8830   21.9450 N   0  0  0  0  0  0  0  0  0  0  0  0
  -22.2910  -14.5910   20.5470 O   0  0  0  0  0  0  0  0  0  0  0  0
  -22.3430  -12.0610   22.4030 H   0  0  0  0  0  0  0  0  0  0  0  0
  -21.0400  -13.1870   22.1500 H   0  0  0  0  0  0  0  0  0  0  0  0
  -25.3640  -15.2280   20.2790 N   0  0  0  0  0  0  0  0  0  0  0  0
  -24.5940  -15.8830   20.3500 H   0  0  0  0  0  0  0  0  0  0  0  0
  -26.2170  -15.6540   19.9410 H   0  0  0  0  0  0  0  0  0  0  0  0
  -28.7650  -24.4480   21.1320 C   0  0  0  0  0  2  0  0  0  0  0  0
  -28.5360  -25.3090   19.8520 C   0  0  0  0  0  2  0  0  0  0  0  0
  -28.4390  -26.7260   20.1620 O   0  0  0  0  0  0  0  0  0  0  0  0
  -24.6090  -31.9020   23.2550 C   0  0  0  0  0  0  0  0  0  0  0  0
  -27.2390  -27.4270   20.1580 C   0  0  0  0  0  0  0  0  0  0  0  0
  -23.3970  -30.5040   21.6160 C   0  0  0  0  0  3  0  0  0  0  0  0
  -24.8440  -28.9630   20.1860 C   0  0  0  0  0  0  0  0  0  0  0  0
  -25.9290  -30.8470   21.4190 C   0  0  0  0  0  2  0  0  0  0  0  0
  -26.0070  -29.4770   20.7690 C   0  0  0  0  0  0  0  0  0  0  0  0
  -27.2040  -28.7180   20.7480 C   0  0  0  0  0  3  0  0  0  0  0  0
  -26.0500  -26.9340   19.5740 C   0  0  0  0  0  3  0  0  0  0  0  0
  -24.8620  -27.6910   19.5890 C   0  0  0  0  0  3  0  0  0  0  0  0
  -23.6050  -29.8290   20.2350 C   0  0  0  0  0  2  0  0  0  0  0  0
  -24.6630  -31.1010   22.1540 N   0  0  0  0  0  0  0  0  0  0  0  0
  -23.5300  -32.1750   23.7990 O   0  0  0  0  0  0  0  0  0  0  0  0
  -22.7480  -29.4800   22.5760 C   0  0  0  0  0  0  0  0  0  0  0  0
  -21.4240  -29.2930   22.4490 N   0  0  0  0  0  0  0  0  0  0  0  0
  -23.4340  -28.8590   23.3920 O   0  0  0  0  0  0  0  0  0  0  0  0
  -20.9340  -29.8440   21.7590 H   0  0  0  0  0  0  0  0  0  0  0  0
  -18.0570  -28.0750   22.9420 C   0  0  0  0  0  0  0  0  0  0  0  0
  -20.6120  -28.3540   23.2210 C   0  0  0  0  0  3  0  0  0  0  0  0
  -20.7280  -26.9210   22.6540 C   0  0  0  0  0  2  0  0  0  0  0  0
  -19.6320  -26.5850   21.6380 C   0  0  0  0  0  2  0  0  0  0  0  0
  -18.2460  -26.7240   22.2740 C   0  0  0  0  0  2  0  0  0  0  0  0
  -19.1690  -28.8470   23.3720 C   0  0  0  0  0  0  0  0  0  0  0  0
  -18.9400  -30.1120   23.9560 C   0  0  0  0  0  3  0  0  0  0  0  0
  -17.6320  -30.6060   24.1160 C   0  0  0  0  0  3  0  0  0  0  0  0
  -16.5340  -29.8310   23.7020 C   0  0  0  0  0  3  0  0  0  0  0  0
  -16.7480  -28.5680   23.1210 C   0  0  0  0  0  3  0  0  0  0  0  0
  -25.8980  -32.5320   23.8690 C   0  0  0  0  0  3  0  0  0  0  0  0
  -25.5940  -33.9310   24.1990 N   0  0  0  0  0  0  0  0  0  0  0  0
  -25.9200  -34.9810   23.4330 C   0  0  0  0  0  0  0  0  0  0  0  0
  -26.5820  -34.8750   22.3970 O   0  0  0  0  0  0  0  0  0  0  0  0
  -25.0120  -34.0890   25.0080 H   0  0  0  0  0  0  0  0  0  0  0  0
  -24.1900  -36.7720   23.0790 C   0  0  0  0  0  1  0  0  0  0  0  0
  -25.4340  -36.3710   23.8880 C   0  0  0  0  0  3  0  0  0  0  0  0
  -27.5710  -37.2570   24.7070 C   0  0  0  0  0  1  0  0  0  0  0  0
  -26.4650  -37.4240   23.7690 N   0  0  0  0  0  0  0  0  0  0  0  0
  -26.0570  -38.3440   23.9190 H   0  0  0  0  0  0  0  0  0  0  0  0
  -26.4250  -31.7610   25.1430 C   0  0  1  0  0  0  0  0  0  0  0  0
  -25.3400  -31.5250   26.2190 C   0  0  0  0  0  1  0  0  0  0  0  0
  -27.0080  -30.3820   24.7510 C   0  0  0  0  0  1  0  0  0  0  0  0
  -27.5780  -32.5580   25.7960 C   0  0  0  0  0  1  0  0  0  0  0  0
  2  1  1  0
  2  8  1  0
  3  6  1  0
  5  8  1  0
  6  1  1  0
  6  4  1  0
  7  9  1  0
  7  5  1  0
  7  3  1  0
  8 52  1  1
  8  4  1  0
 10 12  1  0
 10  9  1  0
 10 13  1  0
 11 12  1  0
 14 22  1  0
 15 20  1  0
 16 17  1  0
 16 15  1  0
 18 17  1  0
 18 27  1  0
 18 19  1  0
 20 14  1  0
 20 19  1  0
 21 14  2  0
 22 13  1  0
 22 23  1  0
 24 25  2  0
 25 44  1  0
 26 25  1  0
 26 29  1  0
 27 24  1  0
 27 28  1  0
 28 26  2  0
 29 30  1  0
 30 31  2  0
 32 35  1  0
 32 31  1  0
 33 32  2  0
 34 33  1  0
 34 29  2  0
 35 36  1  0
 36 37  1  0
 37 38  2  0
 39 38  1  0
 39 43  1  0
 40 39  2  0
 41 36  2  0
 41 40  1  0
 42 41  1  0
 44 45  1  0
 45 48  1  0
 45 47  1  0
 46 44  2  0
 49 50  1  0
 49 24  1  0
 51 49  1  0
 53 54  1  0
 53 52  1  0
 55 66  2  0
 56 54  1  0
 56 61  1  0
 57 65  1  0
 57 67  1  0
 58 64  1  0
 58 60  1  0
 59 65  1  0
 60 59  1  0
 61 60  2  0
 62 63  1  0
 62 56  2  0
 63 58  2  0
 64 57  1  0
 65 55  1  0
 67 69  2  0
 68 67  1  0
 70 68  1  0
 71 80  2  0
 71 76  1  0
 72 68  1  0
 72 76  1  0
 73 72  1  0
 74 75  1  0
 74 73  1  0
 75 71  1  0
 76 77  2  0
 77 78  1  0
 79 78  2  0
 80 79  1  0
 81 55  1  0
 81 82  1  0
 81 91  1  0
 82 85  1  0
 83 87  1  0
 83 82  1  0
 84 83  2  0
 87 86  1  0
 89 87  1  0
 89 90  1  0
 89 88  1  0
 91 94  1  1
 91 92  1  0
 93 91  1  0
M  ISO  4  14 100  22 100  53 101  54 101
M  END
>  <TORSDO>  (3) 
F 22

>  <SCORE>  (3) 
-13.502

>  <name>  (3) 
2

>  <ligand_id>  (3) 
2

>  <original_smiles>  (3) 
[H]c1c([H])c([H])c2c(c1[H])C([H])([H])C([H])([H])C([H])([H])C2([H])N([H])C(=O)C1([H])N(C(=O)C([H])(N([H])C(=O)C([H])(N([H])C([H])([H])[H])C([H])([H])[H])C(C([H])([H])[H])(C([H])([H])[H])C([H])([H])[H])C([H])([H])c2c([H])c(OC([H])([H])C([H])([H])C34C([H])([H])C([H])([H])C([H])(C([H])([H])C([H])(C([H])([H])C([H])(C([H])([H])N([H])C(=O)N5C([H])([H])C([H])([H])C([H])([H])C([H])(n6nc(-c7c([H])c([H])c(Oc8c([H])c([H])c(F)c([H])c8F)c([H])c7[H])c(C(=O)N([H])[H])c6N([H])[H])C5([H])[H])C([H])([H])C([H])([H])[H])C3([H])[H])C4([H])[H])c([H])c([H])c2C1([H])[H]

>  <smiles>  (3) 
[H]c1c([H])c([H])c2c(c1[H])C([H])([H])C([H])([H])C([H])([H])C2([H])N([H])C(=O)C1([H])N(C(=O)C([H])(N([H])C(=O)C([H])(N([H])C([H])([H])[H])C([H])([H])[H])C(C([H])([H])[H])(C([H])([H])[H])C([H])([H])[H])C([H])([H])c2c([H])c(OC([H])([H])C([H])([H])C34C([H])([H])C([H])([H])C([H])(C([H])([H])C([H])(C([H])([H])C([H])(C([H])([H])N([H])C(=O)N5C([H])([H])C([H])([H])C([H])([H])C([H])(n6nc(-c7c([H])c([H])c(Oc8c([H])c([H])c(F)c([H])c8F)c([H])c7[H])c(C(=O)N([H])[H])c6N([H])[H])C5([H])[H])C([H])([H])C([H])([H])[H])C3([H])[H])C4([H])[H])c([H])c([H])c2C1([H])[H]

$$$$
3:0:0
     RDKit          3D

 93102  0  0  1  0  0  0  0  0999 V2000
  -25.7610  -23.2690   22.0210 C   0  0  0  0  0  2  0  0  0  0  0  0
  -26.2770  -21.8530   21.8630 C   0  0  0  0  0  2  0  0  0  0  0  0
  -28.2800  -23.4930   21.4080 C   0  0  0  0  0  2  0  0  0  0  0  0
  -26.7020  -23.0180   19.5760 C   0  0  0  0  0  2  0  0  0  0  0  0
  -29.3990  -22.6890   20.7090 C   0  0  0  0  0  2  0  0  0  0  0  0
  -27.7060  -22.0860   18.8800 C   0  0  0  0  0  2  0  0  0  0  0  0
  -26.8990  -22.9760   21.0740 C   0  0  2  0  0  0  0  0  0  0  0  0
  -29.2010  -22.3910   19.1880 C   0  0  2  0  0  0  0  0  0  0  0  0
  -30.0510  -21.0580   18.8370 C   0  0  0  0  0  2  0  0  0  0  0  0
  -29.7300  -19.6150   19.4770 C   0  0  0  0  0  3  0  0  0  0  0  0
  -30.8910  -18.5210   19.4360 C   0  0  0  0  0  3  0  0  0  0  0  0
  -31.5110  -16.0900   20.0500 C   0  0  0  0  0  0  0  0  0  0  0  0
  -31.6050  -13.6320   19.6880 C   0  0  0  0  0  2  0  0  0  0  0  0
  -30.7760  -13.2850   18.4320 C   0  0  0  0  0  2  0  0  0  0  0  0
  -29.2910  -13.0910   18.7890 C   0  0  0  0  0  2  0  0  0  0  0  0
  -28.7360  -14.2260   19.6900 C   0  0  0  0  0  3  0  0  0  0  0  0
  -29.6900  -14.5300   20.8670 C   0  0  0  0  0  2  0  0  0  0  0  0
  -31.0090  -14.8390   20.2980 N   0  0  0  0  0  0  0  0  0  0  0  0
  -32.6870  -16.2420   19.7070 O   0  0  0  0  0  0  0  0  0  0  0  0
  -30.6250  -17.1400   19.9930 N   0  0  0  0  0  0  0  0  0  0  0  0
  -29.6760  -16.9380   20.2760 H   0  0  0  0  0  0  0  0  0  0  0  0
  -26.3350  -14.8200   20.3780 C   0  0  0  0  0  0  0  0  0  0  0  0
  -25.2610  -14.0430   20.7240 C   0  0  0  0  0  0  0  0  0  0  0  0
  -25.7220  -12.6910   20.6830 C   0  0  0  0  0  0  0  0  0  0  0  0
  -27.3800  -13.9380   20.1490 N   0  0  0  0  0  0  0  0  0  0  0  0
  -27.0160  -12.6530   20.3930 N   0  0  0  0  0  0  0  0  0  0  0  0
  -24.9900  -11.4290   20.8460 C   0  0  0  0  0  0  0  0  0  0  0  0
  -25.2700  -10.5450   21.9110 C   0  0  0  0  0  3  0  0  0  0  0  0
  -24.5400   -9.3460   22.0560 C   0  0  0  0  0  3  0  0  0  0  0  0
  -23.5200   -9.0200   21.1320 C   0  0  0  0  0  0  0  0  0  0  0  0
  -23.2590   -9.8930   20.0620 C   0  0  0  0  0  3  0  0  0  0  0  0
  -23.9890  -11.0840   19.9170 C   0  0  0  0  0  3  0  0  0  0  0  0
  -22.7760   -7.8680   21.1790 O   0  0  0  0  0  0  0  0  0  0  0  0
  -22.3460   -7.3350   22.3680 C   0  0  0  0  0  0  0  0  0  0  0  0
  -21.5230   -8.0620   23.2560 C   0  0  0  0  0  3  0  0  0  0  0  0
  -21.0500   -7.4540   24.4350 C   0  0  0  0  0  3  0  0  0  0  0  0
  -21.3860   -6.1180   24.7230 C   0  0  0  0  0  0  0  0  0  0  0  0
  -22.2030   -5.3900   23.8400 C   0  0  0  0  0  3  0  0  0  0  0  0
  -22.6790   -5.9980   22.6640 C   0  0  0  0  0  0  0  0  0  0  0  0
  -23.4470   -5.2850   21.8050 F   0  0  0  0  0  0  0  0  0  0  0  0
  -20.9260   -5.5310   25.8520 F   0  0  0  0  0  0  0  0  0  0  0  0
  -23.8640  -14.5220   20.9810 C   0  0  0  0  0  0  0  0  0  0  0  0
  -23.1260  -13.8360   21.8470 N   0  0  0  0  0  0  0  0  0  0  0  0
  -23.4300  -15.5440   20.4490 O   0  0  0  0  0  0  0  0  0  0  0  0
  -23.4860  -13.0070   22.2990 H   0  0  0  0  0  0  0  0  0  0  0  0
  -22.1900  -14.1430   22.0650 H   0  0  0  0  0  0  0  0  0  0  0  0
  -26.5000  -16.1910   20.2210 N   0  0  0  0  0  0  0  0  0  0  0  0
  -25.7270  -16.8350   20.3350 H   0  0  0  0  0  0  0  0  0  0  0  0
  -27.3400  -16.6380   19.8720 H   0  0  0  0  0  0  0  0  0  0  0  0
  -29.6730  -23.6400   18.2730 C   0  0  0  0  0  2  0  0  0  0  0  0
  -29.6390  -25.1960   18.6740 C   0  0  0  0  0  3  0  0  0  0  0  0
  -28.5040  -26.1450   18.1080 C   0  0  0  0  0  3  0  0  0  0  0  0
  -28.4650  -27.5570   18.5690 O   0  0  0  0  0  0  0  0  0  0  0  0
  -24.6260  -31.2560   23.4250 C   0  0  0  0  0  0  0  0  0  0  0  0
  -27.2360  -28.1530   18.8960 C   0  0  0  0  0  0  0  0  0  0  0  0
  -23.3490  -30.0510   21.6910 C   0  0  0  0  0  3  0  0  0  0  0  0
  -24.6980  -29.2060   19.6930 C   0  0  0  0  0  0  0  0  0  0  0  0
  -25.7130  -30.9170   21.1950 C   0  0  0  0  0  2  0  0  0  0  0  0
  -25.8730  -29.7700   20.2040 C   0  0  0  0  0  0  0  0  0  0  0  0
  -27.1420  -29.2510   19.8070 C   0  0  0  0  0  3  0  0  0  0  0  0
  -26.0220  -27.6650   18.3560 C   0  0  0  0  0  3  0  0  0  0  0  0
  -24.7700  -28.1580   18.7680 C   0  0  0  0  0  3  0  0  0  0  0  0
  -23.3740  -29.7720   20.1670 C   0  0  0  0  0  2  0  0  0  0  0  0
  -24.5890  -30.7480   22.1580 N   0  0  0  0  0  0  0  0  0  0  0  0
  -23.6460  -31.1770   24.1800 O   0  0  0  0  0  0  0  0  0  0  0  0
  -23.0730  -28.7250   22.4380 C   0  0  0  0  0  0  0  0  0  0  0  0
  -21.8530  -28.1840   22.2780 N   0  0  0  0  0  0  0  0  0  0  0  0
  -23.9520  -28.1960   23.1240 O   0  0  0  0  0  0  0  0  0  0  0  0
  -21.1820  -28.6850   21.7150 H   0  0  0  0  0  0  0  0  0  0  0  0
  -19.1030  -25.8370   22.3380 C   0  0  0  0  0  0  0  0  0  0  0  0
  -21.3920  -26.9200   22.8580 C   0  0  0  0  0  3  0  0  0  0  0  0
  -22.0160  -25.7070   22.1280 C   0  0  0  0  0  2  0  0  0  0  0  0
  -21.1390  -25.1740   20.9890 C   0  0  0  0  0  2  0  0  0  0  0  0
  -19.7710  -24.7420   21.5240 C   0  0  0  0  0  2  0  0  0  0  0  0
  -19.8620  -26.8700   22.9510 C   0  0  0  0  0  0  0  0  0  0  0  0
  -19.1900  -27.8830   23.6670 C   0  0  0  0  0  3  0  0  0  0  0  0
  -17.7860  -27.8760   23.7760 C   0  0  0  0  0  3  0  0  0  0  0  0
  -17.0390  -26.8440   23.1820 C   0  0  0  0  0  3  0  0  0  0  0  0
  -17.6980  -25.8240   22.4710 C   0  0  0  0  0  3  0  0  0  0  0  0
  -25.8950  -31.9810   23.9730 C   0  0  0  0  0  3  0  0  0  0  0  0
  -25.4850  -33.3280   24.3990 N   0  0  0  0  0  0  0  0  0  0  0  0
  -25.6920  -34.4430   23.6890 C   0  0  0  0  0  0  0  0  0  0  0  0
  -26.3200  -34.4560   22.6270 O   0  0  0  0  0  0  0  0  0  0  0  0
  -24.9140  -33.3870   25.2290 H   0  0  0  0  0  0  0  0  0  0  0  0
  -23.8190  -36.1110   23.4920 C   0  0  0  0  0  1  0  0  0  0  0  0
  -25.1110  -35.7580   24.2460 C   0  0  0  0  0  3  0  0  0  0  0  0
  -27.1900  -36.7590   25.0840 C   0  0  0  0  0  1  0  0  0  0  0  0
  -26.0550  -36.8960   24.1760 N   0  0  0  0  0  0  0  0  0  0  0  0
  -25.5800  -37.7690   24.3910 H   0  0  0  0  0  0  0  0  0  0  0  0
  -26.5810  -31.2090   25.1670 C   0  0  1  0  0  0  0  0  0  0  0  0
  -25.5990  -30.8080   26.2940 C   0  0  0  0  0  1  0  0  0  0  0  0
  -27.2740  -29.9220   24.6620 C   0  0  0  0  0  1  0  0  0  0  0  0
  -27.6900  -32.0900   25.7910 C   0  0  0  0  0  1  0  0  0  0  0  0
  2  1  1  0
  7  4  1  6
  5  3  1  0
  6  8  1  0
  6  4  1  0
  7  3  1  0
  7  2  1  0
  7  1  1  0
  8  5  1  0
  8  9  1  6
  9 10  1  0
 11 10  2  0
 11 20  1  0
 12 18  1  0
 13 18  1  0
 14 15  1  0
 14 13  1  0
 16 15  1  0
 16 25  1  0
 16 17  1  0
 18 17  1  0
 19 12  2  0
 20 12  1  0
 20 21  1  0
 22 23  2  0
 23 42  1  0
 24 23  1  0
 24 27  1  0
 25 22  1  0
 25 26  1  0
 26 24  2  0
 27 28  1  0
 28 29  2  0
 30 33  1  0
 30 29  1  0
 31 30  2  0
 32 31  1  0
 32 27  2  0
 33 34  1  0
 34 39  2  0
 34 35  1  0
 35 36  2  0
 36 37  1  0
 37 41  1  0
 38 37  2  0
 39 38  1  0
 40 39  1  0
 42 43  1  0
 43 46  1  0
 43 45  1  0
 44 42  2  0
 47 48  1  0
 47 22  1  0
 49 47  1  0
 50 51  1  0
 50  8  1  0
 52 53  1  0
 52 51  2  0
 53 55  1  0
 54 65  2  0
 55 60  1  0
 56 64  1  0
 56 66  1  0
 57 63  1  0
 57 59  1  0
 58 64  1  0
 59 58  1  0
 60 59  2  0
 61 62  1  0
 61 55  2  0
 62 57  2  0
 63 56  1  0
 64 54  1  0
 66 68  2  0
 67 66  1  0
 69 67  1  0
 70 79  2  0
 70 75  1  0
 71 67  1  0
 71 75  1  0
 72 71  1  0
 73 74  1  0
 73 72  1  0
 74 70  1  0
 75 76  2  0
 76 77  1  0
 78 77  2  0
 79 78  1  0
 80 54  1  0
 80 81  1  0
 80 90  1  0
 81 84  1  0
 82 86  1  0
 82 81  1  0
 83 82  2  0
 86 85  1  0
 88 86  1  0
 88 89  1  0
 88 87  1  0
 90 93  1  1
 90 91  1  0
 92 90  1  0
M  ISO  4  12 100  20 100  52 101  53 101
M  END
>  <TORSDO>  (4) 
F 22

>  <SCORE>  (4) 
-5.371

>  <name>  (4) 
3

>  <ligand_id>  (4) 
3

>  <original_smiles>  (4) 
[H]c1c([H])c([H])c2c(c1[H])C([H])([H])C([H])([H])C([H])([H])C2([H])N([H])C(=O)C1([H])N(C(=O)C([H])(N([H])C(=O)C([H])(N([H])C([H])([H])[H])C([H])([H])[H])C(C([H])([H])[H])(C([H])([H])[H])C([H])([H])[H])C([H])([H])c2c([H])c(OC([H])([H])C([H])([H])C([H])([H])C3(C([H])([H])C([H])([H])C([H])([H])N([H])C(=O)N4C([H])([H])C([H])([H])C([H])([H])C([H])(n5nc(-c6c([H])c([H])c(Oc7c([H])c([H])c(F)c([H])c7F)c([H])c6[H])c(C(=O)N([H])[H])c5N([H])[H])C4([H])[H])C([H])([H])C([H])([H])C4(C([H])([H])C3([H])[H])C([H])([H])C4([H])[H])c([H])c([H])c2C1([H])[H]

>  <smiles>  (4) 
[H]c1c([H])c([H])c2c(c1[H])C([H])([H])C([H])([H])C([H])([H])C2([H])N([H])C(=O)C1([H])N(C(=O)C([H])(N([H])C(=O)C([H])(N([H])C([H])([H])[H])C([H])([H])[H])C(C([H])([H])[H])(C([H])([H])[H])C([H])([H])[H])C([H])([H])c2c([H])c(OC([H])([H])C([H])([H])C([H])([H])C3(C([H])([H])C([H])([H])C([H])([H])N([H])C(=O)N4C([H])([H])C([H])([H])C([H])([H])C([H])(n5nc(-c6c([H])c([H])c(Oc7c([H])c([H])c(F)c([H])c7F)c([H])c6[H])c(C(=O)N([H])[H])c5N([H])[H])C4([H])[H])C([H])([H])C([H])([H])C4(C([H])([H])C3([H])[H])C([H])([H])C4([H])[H])c([H])c([H])c2C1([H])[H]

$$$$
4:0:0
     RDKit          3D

 95103  0  0  1  0  0  0  0  0999 V2000
  -26.0250  -22.2480   20.5460 C   0  0  0  0  0  2  0  0  0  0  0  0
  -26.0770  -21.0960   19.5300 C   0  0  0  0  0  2  0  0  0  0  0  0
  -27.5240  -20.7010   19.1980 C   0  0  0  0  0  2  0  0  0  0  0  0
  -27.7890  -19.1960   19.1910 C   0  0  0  0  0  2  0  0  0  0  0  0
  -29.7000  -17.6770   18.6850 C   0  0  0  0  0  3  0  0  0  0  0  0
  -29.2730  -18.8780   19.1130 C   0  0  0  0  0  0  0  0  0  0  0  0
  -30.2410  -19.9280   19.6430 C   0  0  0  0  0  2  0  0  0  0  0  0
  -31.6950  -19.6470   19.2200 C   0  0  0  0  0  2  0  0  0  0  0  0
  -32.0760  -18.1880   19.4940 C   0  0  0  0  0  2  0  0  0  0  0  0
  -31.1330  -17.1830   18.7870 C   0  0  0  0  0  3  0  0  0  0  0  0
  -31.8640  -14.9400   19.6700 C   0  0  0  0  0  0  0  0  0  0  0  0
  -31.9330  -12.5830   20.3790 C   0  0  0  0  0  2  0  0  0  0  0  0
  -31.1820  -11.7190   19.3460 C   0  0  0  0  0  2  0  0  0  0  0  0
  -29.6660  -11.6820   19.6370 C   0  0  0  0  0  2  0  0  0  0  0  0
  -29.0690  -13.0920   19.8760 C   0  0  0  0  0  3  0  0  0  0  0  0
  -29.9380  -13.8680   20.8890 C   0  0  0  0  0  2  0  0  0  0  0  0
  -31.3210  -13.9150   20.3700 N   0  0  0  0  0  0  0  0  0  0  0  0
  -32.9610  -14.8970   19.1030 O   0  0  0  0  0  0  0  0  0  0  0  0
  -31.0590  -15.9980   19.6150 N   0  0  0  0  0  0  0  0  0  0  0  0
  -30.1930  -15.8760   20.1140 H   0  0  0  0  0  0  0  0  0  0  0  0
  -26.7640  -14.0460   20.5260 C   0  0  0  0  0  0  0  0  0  0  0  0
  -25.5800  -13.4350   20.8420 C   0  0  0  0  0  0  0  0  0  0  0  0
  -25.8310  -12.0320   20.7750 C   0  0  0  0  0  0  0  0  0  0  0  0
  -27.6720  -13.0210   20.3010 N   0  0  0  0  0  0  0  0  0  0  0  0
  -27.1080  -11.8030   20.5010 N   0  0  0  0  0  0  0  0  0  0  0  0
  -24.9160  -10.8890   20.9000 C   0  0  0  0  0  0  0  0  0  0  0  0
  -25.1410   -9.8610   21.8430 C   0  0  0  0  0  3  0  0  0  0  0  0
  -24.2370   -8.7830   21.9540 C   0  0  0  0  0  3  0  0  0  0  0  0
  -23.0920   -8.7280   21.1240 C   0  0  0  0  0  0  0  0  0  0  0  0
  -22.8860   -9.7410   20.1700 C   0  0  0  0  0  3  0  0  0  0  0  0
  -23.7890  -10.8100   20.0570 C   0  0  0  0  0  3  0  0  0  0  0  0
  -22.1740   -7.7060   21.1460 O   0  0  0  0  0  0  0  0  0  0  0  0
  -21.9190   -6.9920   22.2890 C   0  0  0  0  0  0  0  0  0  0  0  0
  -21.4600   -7.6150   23.4700 C   0  0  0  0  0  3  0  0  0  0  0  0
  -21.1450   -6.8340   24.6010 C   0  0  0  0  0  3  0  0  0  0  0  0
  -21.2750   -5.4340   24.5480 C   0  0  0  0  0  0  0  0  0  0  0  0
  -21.7280   -4.8120   23.3710 C   0  0  0  0  0  3  0  0  0  0  0  0
  -22.0440   -5.5890   22.2440 C   0  0  0  0  0  0  0  0  0  0  0  0
  -22.4600   -4.9830   21.1060 F   0  0  0  0  0  0  0  0  0  0  0  0
  -20.9650   -4.6840   25.6310 F   0  0  0  0  0  0  0  0  0  0  0  0
  -24.2640  -14.1130   21.0960 C   0  0  0  0  0  0  0  0  0  0  0  0
  -23.4270  -13.5320   21.9470 N   0  0  0  0  0  0  0  0  0  0  0  0
  -23.9890  -15.1920   20.5710 O   0  0  0  0  0  0  0  0  0  0  0  0
  -23.6600  -12.6640   22.4050 H   0  0  0  0  0  0  0  0  0  0  0  0
  -22.5400  -13.9710   22.1500 H   0  0  0  0  0  0  0  0  0  0  0  0
  -27.1290  -15.3800   20.3920 N   0  0  0  0  0  0  0  0  0  0  0  0
  -26.4530  -16.1310   20.4690 H   0  0  0  0  0  0  0  0  0  0  0  0
  -28.0400  -15.6980   20.0800 H   0  0  0  0  0  0  0  0  0  0  0  0
  -27.0200  -23.3970   20.2650 C   0  0  0  0  0  2  0  0  0  0  0  0
  -26.8020  -24.7170   21.0560 C   0  0  0  0  0  3  0  0  0  0  0  0
  -24.5890  -24.6250   22.4350 C   0  0  0  0  0  1  0  0  0  0  0  0
  -26.1250  -24.5110   22.4380 C   0  0  0  0  0  2  0  0  0  0  0  0
  -28.1670  -25.4260   21.2760 C   0  0  0  0  0  2  0  0  0  0  0  0
  -28.8970  -25.9310   20.0130 C   0  0  0  0  0  2  0  0  0  0  0  0
  -28.8700  -27.3550   19.9690 O   0  0  0  0  0  0  0  0  0  0  0  0
  -24.6220  -31.8910   23.3920 C   0  0  0  0  0  0  0  0  0  0  0  0
  -27.6370  -27.9610   19.9980 C   0  0  0  0  0  0  0  0  0  0  0  0
  -23.5630  -30.6030   21.5640 C   0  0  0  0  0  3  0  0  0  0  0  0
  -25.1540  -29.2960   20.0640 C   0  0  0  0  0  0  0  0  0  0  0  0
  -26.0680  -31.1130   21.5250 C   0  0  0  0  0  2  0  0  0  0  0  0
  -26.2510  -29.8260   20.7540 C   0  0  0  0  0  0  0  0  0  0  0  0
  -27.4950  -29.1620   20.7220 C   0  0  0  0  0  3  0  0  0  0  0  0
  -26.5250  -27.4430   19.2970 C   0  0  0  0  0  3  0  0  0  0  0  0
  -25.2830  -28.1030   19.3350 C   0  0  0  0  0  3  0  0  0  0  0  0
  -23.8590  -30.0720   20.1360 C   0  0  0  0  0  2  0  0  0  0  0  0
  -24.7660  -31.2090   22.2220 N   0  0  0  0  0  0  0  0  0  0  0  0
  -23.5030  -32.0570   23.9020 O   0  0  0  0  0  0  0  0  0  0  0  0
  -22.9360  -29.4570   22.3890 C   0  0  0  0  0  0  0  0  0  0  0  0
  -21.6300  -29.2240   22.1850 N   0  0  0  0  0  0  0  0  0  0  0  0
  -23.6200  -28.7850   23.1650 O   0  0  0  0  0  0  0  0  0  0  0  0
  -21.1430  -29.8180   21.5300 H   0  0  0  0  0  0  0  0  0  0  0  0
  -18.2950  -27.8680   22.4540 C   0  0  0  0  0  0  0  0  0  0  0  0
  -20.8320  -28.1800   22.8230 C   0  0  0  0  0  3  0  0  0  0  0  0
  -21.0050  -26.8290   22.0850 C   0  0  0  0  0  2  0  0  0  0  0  0
  -19.9350  -26.5850   21.0180 C   0  0  0  0  0  2  0  0  0  0  0  0
  -18.5370  -26.6090   21.6410 C   0  0  0  0  0  2  0  0  0  0  0  0
  -19.3720  -28.6170   22.9960 C   0  0  0  0  0  0  0  0  0  0  0  0
  -19.0890  -29.7990   23.7150 C   0  0  0  0  0  3  0  0  0  0  0  0
  -17.7630  -30.2310   23.9010 C   0  0  0  0  0  3  0  0  0  0  0  0
  -16.6980  -29.4780   23.3750 C   0  0  0  0  0  3  0  0  0  0  0  0
  -16.9670  -28.2970   22.6590 C   0  0  0  0  0  3  0  0  0  0  0  0
  -25.8470  -32.5210   24.1290 C   0  0  0  0  0  3  0  0  0  0  0  0
  -26.2730  -31.7270   25.4250 C   0  0  1  0  0  0  0  0  0  0  0  0
  -25.1010  -31.4300   26.3850 C   0  0  0  0  0  1  0  0  0  0  0  0
  -26.9260  -30.3760   25.0460 C   0  0  0  0  0  1  0  0  0  0  0  0
  -27.3350  -32.5320   26.2080 C   0  0  0  0  0  1  0  0  0  0  0  0
  -25.4980  -33.9100   24.4610 N   0  0  0  0  0  0  0  0  0  0  0  0
  -25.8760  -34.9790   23.7470 C   0  0  0  0  0  0  0  0  0  0  0  0
  -26.6240  -34.9010   22.7680 O   0  0  0  0  0  0  0  0  0  0  0  0
  -24.8480  -34.0480   25.2210 H   0  0  0  0  0  0  0  0  0  0  0  0
  -24.1500  -36.7510   23.2950 C   0  0  0  0  0  1  0  0  0  0  0  0
  -25.3340  -36.3520   24.1900 C   0  0  0  0  0  3  0  0  0  0  0  0
  -27.3900  -37.2490   25.1870 C   0  0  0  0  0  1  0  0  0  0  0  0
  -26.3530  -37.4200   24.1700 N   0  0  0  0  0  0  0  0  0  0  0  0
  -25.9220  -38.3300   24.3060 H   0  0  0  0  0  0  0  0  0  0  0  0
  2  1  1  0
  3  2  1  0
  4  3  1  0
  5 10  1  0
  5  6  2  0
  6  4  1  0
  6  7  1  0
  8  9  1  0
  8  7  1  0
 10  9  1  0
 10 19  1  0
 11 17  1  0
 13 14  1  0
 13 12  1  0
 15 14  1  0
 15 24  1  0
 15 16  1  0
 17 12  1  0
 17 16  1  0
 18 11  2  0
 19 11  1  0
 19 20  1  0
 21 22  2  0
 22 41  1  0
 23 22  1  0
 23 26  1  0
 24 25  1  0
 24 21  1  0
 25 23  2  0
 26 27  1  0
 27 28  2  0
 29 32  1  0
 29 28  1  0
 30 29  2  0
 31 30  1  0
 31 26  2  0
 32 33  1  0
 33 34  1  0
 34 35  2  0
 36 35  1  0
 36 40  1  0
 37 36  2  0
 38 33  2  0
 38 37  1  0
 39 38  1  0
 41 42  1  0
 42 45  1  0
 42 44  1  0
 43 41  2  0
 46 47  1  0
 46 21  1  0
 48 46  1  0
 49  1  1  0
 50 49  1  0
 50 53  1  0
 50 52  1  0
 51 52  1  0
 54 53  1  0
 55 57  1  0
 55 54  1  0
 56 67  2  0
 57 62  1  0
 58 66  1  0
 58 68  1  0
 59 65  1  0
 59 61  1  0
 60 66  1  0
 61 60  1  0
 62 61  2  0
 63 64  1  0
 63 57  2  0
 64 59  2  0
 65 58  1  0
 66 56  1  0
 68 70  2  0
 69 68  1  0
 71 69  1  0
 72 81  2  0
 72 77  1  0
 73 69  1  0
 73 77  1  0
 74 73  1  0
 75 76  1  0
 75 74  1  0
 76 72  1  0
 77 78  2  0
 78 79  1  0
 80 79  2  0
 81 80  1  0
 82 56  1  0
 82 87  1  0
 82 83  1  0
 83 86  1  1
 83 84  1  0
 85 83  1  0
 87 90  1  0
 88 92  1  0
 88 87  1  0
 89 88  2  0
 92 91  1  0
 94 92  1  0
 94 95  1  0
 94 93  1  0
M  ISO  4  11 100  19 100  54 101  55 101
M  END
>  <TORSDO>  (5) 
F 25

>  <SCORE>  (5) 
-9.344

>  <name>  (5) 
4

>  <ligand_id>  (5) 
4

>  <original_smiles>  (5) 
[H]C1=C(C([H])([H])C([H])([H])C([H])([H])C([H])([H])C([H])([H])C([H])(C([H])([H])C([H])([H])[H])C([H])([H])C([H])([H])Oc2c([H])c([H])c3c(c2[H])C([H])([H])N(C(=O)C([H])(N([H])C(=O)C([H])(N([H])C([H])([H])[H])C([H])([H])[H])C(C([H])([H])[H])(C([H])([H])[H])C([H])([H])[H])C([H])(C(=O)N([H])C2([H])c4c([H])c([H])c([H])c([H])c4C([H])([H])C([H])([H])C2([H])[H])C3([H])[H])C([H])([H])C([H])([H])C([H])([H])C1([H])N([H])C(=O)N1C([H])([H])C([H])([H])C([H])([H])C([H])(n2nc(-c3c([H])c([H])c(Oc4c([H])c([H])c(F)c([H])c4F)c([H])c3[H])c(C(=O)N([H])[H])c2N([H])[H])C1([H])[H]

>  <smiles>  (5) 
[H]C1=C(C([H])([H])C([H])([H])C([H])([H])C([H])([H])C([H])([H])C([H])(C([H])([H])C([H])([H])[H])C([H])([H])C([H])([H])Oc2c([H])c([H])c3c(c2[H])C([H])([H])N(C(=O)C([H])(N([H])C(=O)C([H])(N([H])C([H])([H])[H])C([H])([H])[H])C(C([H])([H])[H])(C([H])([H])[H])C([H])([H])[H])C([H])(C(=O)N([H])C2([H])c4c([H])c([H])c([H])c([H])c4C([H])([H])C([H])([H])C2([H])[H])C3([H])[H])C([H])([H])C([H])([H])C([H])([H])C1([H])N([H])C(=O)N1C([H])([H])C([H])([H])C([H])([H])C([H])(n2nc(-c3c([H])c([H])c(Oc4c([H])c([H])c(F)c([H])c4F)c([H])c3[H])c(C(=O)N([H])[H])c2N([H])[H])C1([H])[H]

$$$$
5:0:0
     RDKit          3D

 94101  0  0  1  0  0  0  0  0999 V2000
  -30.6190  -19.4490   21.6230 C   0  0  0  0  0  2  0  0  0  0  0  0
  -29.3460  -17.6370   20.6820 C   0  0  0  0  0  0  0  0  0  0  0  0
  -29.3840  -18.7720   21.2720 N   0  0  0  0  0  0  0  0  0  0  0  0
  -30.5470  -16.7760   20.2080 C   0  0  0  0  0  3  0  0  0  0  0  0
  -31.2090  -14.3540   20.3970 C   0  0  0  0  0  0  0  0  0  0  0  0
  -31.0690  -12.0840   19.4510 C   0  0  0  0  0  2  0  0  0  0  0  0
  -30.2910  -12.1660   18.1200 C   0  0  0  0  0  2  0  0  0  0  0  0
  -28.7730  -12.0560   18.3630 C   0  0  0  0  0  2  0  0  0  0  0  0
  -28.2770  -13.0100   19.4820 C   0  0  0  0  0  3  0  0  0  0  0  0
  -29.1770  -12.9010   20.7370 C   0  0  0  0  0  2  0  0  0  0  0  0
  -30.5710  -13.1540   20.3280 N   0  0  0  0  0  0  0  0  0  0  0  0
  -32.3720  -14.5270   20.0230 O   0  0  0  0  0  0  0  0  0  0  0  0
  -30.4090  -15.3890   20.6890 N   0  0  0  0  0  0  0  0  0  0  0  0
  -29.4990  -15.1430   21.0470 H   0  0  0  0  0  0  0  0  0  0  0  0
  -25.7850  -13.6300   19.6940 C   0  0  0  0  0  0  0  0  0  0  0  0
  -24.6870  -12.9000   20.0610 C   0  0  0  0  0  0  0  0  0  0  0  0
  -25.1700  -11.5900   20.3580 C   0  0  0  0  0  0  0  0  0  0  0  0
  -26.8690  -12.7730   19.8000 N   0  0  0  0  0  0  0  0  0  0  0  0
  -26.4920  -11.5490   20.2500 N   0  0  0  0  0  0  0  0  0  0  0  0
  -24.4430  -10.3540   20.6810 C   0  0  0  0  0  0  0  0  0  0  0  0
  -24.7600   -9.5900   21.8250 C   0  0  0  0  0  3  0  0  0  0  0  0
  -24.0350   -8.4160   22.1250 C   0  0  0  0  0  3  0  0  0  0  0  0
  -22.9790   -8.0000   21.2800 C   0  0  0  0  0  0  0  0  0  0  0  0
  -22.6830   -8.7520   20.1300 C   0  0  0  0  0  3  0  0  0  0  0  0
  -23.4090   -9.9170   19.8310 C   0  0  0  0  0  3  0  0  0  0  0  0
  -22.2360   -6.8600   21.4780 O   0  0  0  0  0  0  0  0  0  0  0  0
  -22.0300   -6.3460   22.7330 C   0  0  0  0  0  0  0  0  0  0  0  0
  -21.4530   -7.1140   23.7680 C   0  0  0  0  0  3  0  0  0  0  0  0
  -21.1950   -6.5250   25.0220 C   0  0  0  0  0  3  0  0  0  0  0  0
  -21.5030   -5.1680   25.2410 C   0  0  0  0  0  0  0  0  0  0  0  0
  -22.0730   -4.4000   24.2100 C   0  0  0  0  0  3  0  0  0  0  0  0
  -22.3330   -4.9870   22.9580 C   0  0  0  0  0  0  0  0  0  0  0  0
  -22.8620   -4.2380   21.9620 F   0  0  0  0  0  0  0  0  0  0  0  0
  -21.2480   -4.6000   26.4420 F   0  0  0  0  0  0  0  0  0  0  0  0
  -23.2580  -13.3600   20.0360 C   0  0  0  0  0  0  0  0  0  0  0  0
  -22.4260  -12.8210   20.9190 N   0  0  0  0  0  0  0  0  0  0  0  0
  -22.8820  -14.2380   19.2610 O   0  0  0  0  0  0  0  0  0  0  0  0
  -22.7390  -12.1150   21.5690 H   0  0  0  0  0  0  0  0  0  0  0  0
  -21.4610  -13.1200   20.9470 H   0  0  0  0  0  0  0  0  0  0  0  0
  -25.9420  -14.9390   19.2520 N   0  0  0  0  0  0  0  0  0  0  0  0
  -25.1410  -15.5380   19.0860 H   0  0  0  0  0  0  0  0  0  0  0  0
  -26.7960  -15.3030   18.8540 H   0  0  0  0  0  0  0  0  0  0  0  0
  -30.9790  -18.0890   17.9730 C   0  0  0  0  0  1  0  0  0  0  0  0
  -30.6440  -16.7540   18.6530 C   0  0  0  0  0  2  0  0  0  0  0  0
  -27.9690  -17.0620   20.3750 C   0  0  0  0  0  2  0  0  0  0  0  0
  -27.3880  -16.2440   21.5440 C   0  0  0  0  0  2  0  0  0  0  0  0
  -25.4800  -14.7470   22.3380 C   0  0  0  0  0  1  0  0  0  0  0  0
  -26.0590  -15.5640   21.1790 C   0  0  0  0  0  2  0  0  0  0  0  0
  -30.3090  -20.8780   22.1300 C   0  0  0  0  0  2  0  0  0  0  0  0
  -29.8230  -21.8660   21.0430 C   0  0  0  0  0  2  0  0  0  0  0  0
  -29.4680  -23.2630   21.6080 C   0  0  0  0  0  2  0  0  0  0  0  0
  -29.1180  -24.3180   20.5310 C   0  0  0  0  0  2  0  0  0  0  0  0
  -28.7210  -25.6890   21.1220 C   0  0  0  0  0  2  0  0  0  0  0  0
  -28.5830  -26.6710   20.0910 O   0  0  0  0  0  0  0  0  0  0  0  0
  -24.6050  -31.7340   23.1600 C   0  0  0  0  0  0  0  0  0  0  0  0
  -27.4050  -27.3780   20.1150 C   0  0  0  0  0  0  0  0  0  0  0  0
  -23.4630  -30.3210   21.4780 C   0  0  0  0  0  3  0  0  0  0  0  0
  -24.9800  -28.8200   20.0810 C   0  0  0  0  0  0  0  0  0  0  0  0
  -25.9830  -30.7340   21.3400 C   0  0  0  0  0  2  0  0  0  0  0  0
  -26.1110  -29.3680   20.7000 C   0  0  0  0  0  0  0  0  0  0  0  0
  -27.3290  -28.6530   20.7160 C   0  0  0  0  0  3  0  0  0  0  0  0
  -26.2640  -26.8360   19.4940 C   0  0  0  0  0  3  0  0  0  0  0  0
  -25.0490  -27.5500   19.4760 C   0  0  0  0  0  3  0  0  0  0  0  0
  -23.7180  -29.6530   20.1010 C   0  0  0  0  0  2  0  0  0  0  0  0
  -24.7000  -30.9440   22.0530 N   0  0  0  0  0  0  0  0  0  0  0  0
  -23.5070  -31.9810   23.6780 O   0  0  0  0  0  0  0  0  0  0  0  0
  -22.8100  -29.2820   22.4170 C   0  0  0  0  0  0  0  0  0  0  0  0
  -21.4880  -29.0950   22.2730 N   0  0  0  0  0  0  0  0  0  0  0  0
  -23.4890  -28.6470   23.2280 O   0  0  0  0  0  0  0  0  0  0  0  0
  -21.0020  -29.6610   21.5910 H   0  0  0  0  0  0  0  0  0  0  0  0
  -18.1100  -27.8950   22.7290 C   0  0  0  0  0  0  0  0  0  0  0  0
  -20.6670  -28.1400   23.0180 C   0  0  0  0  0  3  0  0  0  0  0  0
  -20.7690  -26.7230   22.4080 C   0  0  0  0  0  2  0  0  0  0  0  0
  -19.6700  -26.4280   21.3820 C   0  0  0  0  0  2  0  0  0  0  0  0
  -18.2870  -26.5610   22.0240 C   0  0  0  0  0  2  0  0  0  0  0  0
  -19.2290  -28.6440   23.1820 C   0  0  0  0  0  0  0  0  0  0  0  0
  -19.0110  -29.8940   23.7990 C   0  0  0  0  0  3  0  0  0  0  0  0
  -17.7070  -30.3960   23.9710 C   0  0  0  0  0  3  0  0  0  0  0  0
  -16.6020  -29.6420   23.5360 C   0  0  0  0  0  3  0  0  0  0  0  0
  -16.8050  -28.3940   22.9200 C   0  0  0  0  0  3  0  0  0  0  0  0
  -25.8650  -32.3810   23.8150 C   0  0  0  0  0  3  0  0  0  0  0  0
  -26.3740  -31.6030   25.0900 C   0  0  1  0  0  0  0  0  0  0  0  0
  -25.2670  -31.3260   26.1320 C   0  0  0  0  0  1  0  0  0  0  0  0
  -26.9940  -30.2450   24.6850 C   0  0  0  0  0  1  0  0  0  0  0  0
  -27.4950  -32.4120   25.7850 C   0  0  0  0  0  1  0  0  0  0  0  0
  -25.5230  -33.7680   24.1550 N   0  0  0  0  0  0  0  0  0  0  0  0
  -25.8480  -34.8360   23.4140 C   0  0  0  0  0  0  0  0  0  0  0  0
  -26.5390  -34.7570   22.3940 O   0  0  0  0  0  0  0  0  0  0  0  0
  -24.9080  -33.9020   24.9440 H   0  0  0  0  0  0  0  0  0  0  0  0
  -24.0850  -36.5910   23.0510 C   0  0  0  0  0  1  0  0  0  0  0  0
  -25.3240  -36.2080   23.8760 C   0  0  0  0  0  3  0  0  0  0  0  0
  -27.4310  -37.1280   24.7410 C   0  0  0  0  0  1  0  0  0  0  0  0
  -26.3350  -37.2840   23.7860 N   0  0  0  0  0  0  0  0  0  0  0  0
  -25.9070  -38.1930   23.9410 H   0  0  0  0  0  0  0  0  0  0  0  0
  1 49  1  0
  2  3  2  0
  3  1  1  0
  4 44  1  0
  4  2  1  0
  4 13  1  0
  5 13  1  0
  6 11  1  0
  7  8  1  0
  7  6  1  0
  9  8  1  0
  9 18  1  0
  9 10  1  0
 11  5  1  0
 11 10  1  0
 12  5  2  0
 13 14  1  0
 15 18  1  0
 15 16  2  0
 16 17  1  0
 17 20  1  0
 18 19  1  0
 19 17  2  0
 20 21  1  0
 21 22  2  0
 23 26  1  0
 23 22  1  0
 24 23  2  0
 25 24  1  0
 25 20  2  0
 26 27  1  0
 27 32  2  0
 27 28  1  0
 28 29  2  0
 29 30  1  0
 30 34  1  0
 31 30  2  0
 32 31  1  0
 33 32  1  0
 35 16  1  0
 35 36  1  0
 36 39  1  0
 36 38  1  0
 37 35  2  0
 40 15  1  0
 41 40  1  0
 42 40  1  0
 43 44  1  0
 45  2  1  0
 45 46  1  0
 48 46  1  0
 48 47  1  0
 50 51  1  0
 50 49  1  0
 52 53  1  0
 52 51  1  0
 54 56  1  0
 54 53  1  0
 55 66  2  0
 56 61  1  0
 57 65  1  0
 57 67  1  0
 58 64  1  0
 58 60  1  0
 59 65  1  0
 60 61  2  0
 60 59  1  0
 62 56  2  0
 63 62  1  0
 63 58  2  0
 64 57  1  0
 65 55  1  0
 67 69  2  0
 68 67  1  0
 70 68  1  0
 71 80  2  0
 71 76  1  0
 72 68  1  0
 72 76  1  0
 73 72  1  0
 74 75  1  0
 74 73  1  0
 75 71  1  0
 76 77  2  0
 77 78  1  0
 79 78  2  0
 80 79  1  0
 81 55  1  0
 81 86  1  0
 81 82  1  0
 82 85  1  1
 82 83  1  0
 84 82  1  0
 86 89  1  0
 87 91  1  0
 87 86  1  0
 88 87  2  0
 91 90  1  0
 93 91  1  0
 93 94  1  0
 93 92  1  0
M  ISO  4   5 100  13 100  53 101  54 101
M  END
>  <TORSDO>  (6) 
F 27

>  <SCORE>  (6) 
-5.984

>  <name>  (6) 
5

>  <ligand_id>  (6) 
5

>  <original_smiles>  (6) 
[H]c1c([H])c([H])c2c(c1[H])C([H])([H])C([H])([H])C([H])([H])C2([H])N([H])C(=O)C1([H])N(C(=O)C([H])(N([H])C(=O)C([H])(N([H])C([H])([H])[H])C([H])([H])[H])C(C([H])([H])[H])(C([H])([H])[H])C([H])([H])[H])C([H])([H])c2c([H])c(OC([H])([H])C([H])([H])C([H])([H])C([H])([H])C([H])([H])C([H])([H])N=C(C([H])([H])C([H])([H])C([H])([H])C([H])([H])[H])C([H])(N([H])C(=O)N3C([H])([H])C([H])([H])C([H])([H])C([H])(n4nc(-c5c([H])c([H])c(Oc6c([H])c([H])c(F)c([H])c6F)c([H])c5[H])c(C(=O)N([H])[H])c4N([H])[H])C3([H])[H])C([H])([H])C([H])([H])[H])c([H])c([H])c2C1([H])[H]

>  <smiles>  (6) 
[H]c1c([H])c([H])c2c(c1[H])C([H])([H])C([H])([H])C([H])([H])C2([H])N([H])C(=O)C1([H])N(C(=O)C([H])(N([H])C(=O)C([H])(N([H])C([H])([H])[H])C([H])([H])[H])C(C([H])([H])[H])(C([H])([H])[H])C([H])([H])[H])C([H])([H])c2c([H])c(OC([H])([H])C([H])([H])C([H])([H])C([H])([H])C([H])([H])C([H])([H])N=C(C([H])([H])C([H])([H])C([H])([H])C([H])([H])[H])C([H])(N([H])C(=O)N3C([H])([H])C([H])([H])C([H])([H])C([H])(n4nc(-c5c([H])c([H])c(Oc6c([H])c([H])c(F)c([H])c6F)c([H])c5[H])c(C(=O)N([H])[H])c4N([H])[H])C3([H])[H])C([H])([H])C([H])([H])[H])c([H])c([H])c2C1([H])[H]

$$$$
6:0:0
     RDKit          3D

 95103  0  0  1  0  0  0  0  0999 V2000
  -29.2070  -22.6440   19.5760 C   0  0  0  0  0  3  0  0  0  0  0  0
  -26.6840  -22.1960   19.0000 C   0  0  0  0  0  1  0  0  0  0  0  0
  -28.1310  -22.3610   18.4920 C   0  0  0  0  0  2  0  0  0  0  0  0
  -30.1730  -24.8490   18.6950 C   0  0  0  0  0  1  0  0  0  0  0  0
  -29.3960  -24.2350   19.8860 C   0  0  2  0  0  0  0  0  0  0  0  0
  -31.6970  -24.0390   21.1420 C   0  0  0  0  0  1  0  0  0  0  0  0
  -30.2170  -24.4700   21.1860 C   0  0  0  0  0  2  0  0  0  0  0  0
  -28.0780  -25.1250   19.9890 C   0  0  0  0  0  2  0  0  0  0  0  0
  -28.2480  -26.5850   20.1180 O   0  0  0  0  0  0  0  0  0  0  0  0
  -24.5340  -31.8870   23.2530 C   0  0  0  0  0  0  0  0  0  0  0  0
  -27.1070  -27.3950   20.0980 C   0  0  0  0  0  0  0  0  0  0  0  0
  -23.3090  -30.5210   21.6010 C   0  0  0  0  0  3  0  0  0  0  0  0
  -24.7390  -28.9930   20.1390 C   0  0  0  0  0  0  0  0  0  0  0  0
  -25.8460  -30.8430   21.3950 C   0  0  0  0  0  2  0  0  0  0  0  0
  -25.9150  -29.4780   20.7250 C   0  0  0  0  0  0  0  0  0  0  0  0
  -27.1020  -28.6930   20.6900 C   0  0  0  0  0  3  0  0  0  0  0  0
  -25.9020  -26.9500   19.5040 C   0  0  0  0  0  3  0  0  0  0  0  0
  -24.7340  -27.7350   19.5190 C   0  0  0  0  0  3  0  0  0  0  0  0
  -23.5040  -29.8660   20.2100 C   0  0  0  0  0  2  0  0  0  0  0  0
  -24.5830  -31.0990   22.1410 N   0  0  0  0  0  0  0  0  0  0  0  0
  -23.4580  -32.1600   23.8010 O   0  0  0  0  0  0  0  0  0  0  0  0
  -22.6520  -29.4900   22.5500 C   0  0  0  0  0  0  0  0  0  0  0  0
  -21.3300  -29.3010   22.4110 N   0  0  0  0  0  0  0  0  0  0  0  0
  -23.3310  -28.8660   23.3700 O   0  0  0  0  0  0  0  0  0  0  0  0
  -20.8420  -29.8570   21.7230 H   0  0  0  0  0  0  0  0  0  0  0  0
  -17.9600  -28.0660   22.8690 C   0  0  0  0  0  0  0  0  0  0  0  0
  -20.5130  -28.3510   23.1680 C   0  0  0  0  0  3  0  0  0  0  0  0
  -20.6360  -26.9240   22.5860 C   0  0  0  0  0  2  0  0  0  0  0  0
  -19.5470  -26.5930   21.5600 C   0  0  0  0  0  2  0  0  0  0  0  0
  -18.1560  -26.7230   22.1890 C   0  0  0  0  0  2  0  0  0  0  0  0
  -19.0660  -28.8390   23.3130 C   0  0  0  0  0  0  0  0  0  0  0  0
  -18.8280  -30.0970   23.9070 C   0  0  0  0  0  3  0  0  0  0  0  0
  -17.5170  -30.5860   24.0600 C   0  0  0  0  0  3  0  0  0  0  0  0
  -16.4240  -29.8100   23.6320 C   0  0  0  0  0  3  0  0  0  0  0  0
  -16.6470  -28.5530   23.0450 C   0  0  0  0  0  3  0  0  0  0  0  0
  -25.8260  -32.5020   23.8760 C   0  0  0  0  0  3  0  0  0  0  0  0
  -25.5440  -33.9120   24.1810 N   0  0  0  0  0  0  0  0  0  0  0  0
  -25.9170  -34.9460   23.4160 C   0  0  0  0  0  0  0  0  0  0  0  0
  -26.6070  -34.8120   22.4010 O   0  0  0  0  0  0  0  0  0  0  0  0
  -24.9400  -34.0910   24.9700 H   0  0  0  0  0  0  0  0  0  0  0  0
  -24.2710  -36.7940   22.9670 C   0  0  0  0  0  1  0  0  0  0  0  0
  -25.4540  -36.3520   23.8430 C   0  0  0  0  0  3  0  0  0  0  0  0
  -27.5580  -37.1790   24.7990 C   0  0  0  0  0  1  0  0  0  0  0  0
  -26.5260  -37.3700   23.7840 N   0  0  0  0  0  0  0  0  0  0  0  0
  -26.1420  -38.3040   23.8940 H   0  0  0  0  0  0  0  0  0  0  0  0
  -26.3150  -31.7420   25.1690 C   0  0  1  0  0  0  0  0  0  0  0  0
  -25.2070  -31.5340   26.2270 C   0  0  0  0  0  1  0  0  0  0  0  0
  -26.8830  -30.3520   24.8040 C   0  0  0  0  0  1  0  0  0  0  0  0
  -27.4700  -32.5300   25.8350 C   0  0  0  0  0  1  0  0  0  0  0  0
  -29.1790  -21.5740   20.7580 C   0  0  0  0  0  2  0  0  0  0  0  0
  -30.5320  -19.3920   21.1990 C   0  0  0  0  0  3  0  0  0  0  0  0
  -30.7020  -17.9780   21.1580 C   0  0  0  0  0  3  0  0  0  0  0  0
  -28.6720  -19.2250   19.6870 C   0  0  0  0  0  3  0  0  0  0  0  0
  -29.4870  -20.0530   20.4970 C   0  0  0  0  0  0  0  0  0  0  0  0
  -28.8520  -17.8140   19.6130 C   0  0  0  0  0  0  0  0  0  0  0  0
  -29.8430  -17.1510   20.3940 C   0  0  0  0  0  0  0  0  0  0  0  0
  -27.9350  -17.0360   18.6900 C   0  0  0  0  0  1  0  0  0  0  0  0
  -30.6630  -14.7090   20.2610 C   0  0  0  0  0  0  0  0  0  0  0  0
  -30.4990  -12.4520   19.2430 C   0  0  0  0  0  2  0  0  0  0  0  0
  -29.5180  -12.5450   18.0520 C   0  0  0  0  0  2  0  0  0  0  0  0
  -28.0570  -12.3640   18.5150 C   0  0  0  0  0  2  0  0  0  0  0  0
  -27.7090  -13.2300   19.7540 C   0  0  0  0  0  3  0  0  0  0  0  0
  -28.8010  -13.1060   20.8430 C   0  0  0  0  0  2  0  0  0  0  0  0
  -30.0910  -13.4650   20.2290 N   0  0  0  0  0  0  0  0  0  0  0  0
  -31.8140  -14.9130   19.8620 O   0  0  0  0  0  0  0  0  0  0  0  0
  -29.7970  -15.7120   20.5780 N   0  0  0  0  0  0  0  0  0  0  0  0
  -28.8810  -15.3550   20.7980 H   0  0  0  0  0  0  0  0  0  0  0  0
  -25.3260  -13.7990   20.5350 C   0  0  0  0  0  0  0  0  0  0  0  0
  -24.2790  -13.0110   20.9250 C   0  0  0  0  0  0  0  0  0  0  0  0
  -24.7590  -11.6660   20.8780 C   0  0  0  0  0  0  0  0  0  0  0  0
  -26.3780  -12.9330   20.2720 N   0  0  0  0  0  0  0  0  0  0  0  0
  -26.0410  -11.6450   20.5380 N   0  0  0  0  0  0  0  0  0  0  0  0
  -24.0560  -10.3950   21.0820 C   0  0  0  0  0  0  0  0  0  0  0  0
  -24.4820   -9.4650   22.0550 C   0  0  0  0  0  3  0  0  0  0  0  0
  -23.7790   -8.2560   22.2450 C   0  0  0  0  0  3  0  0  0  0  0  0
  -22.6350   -7.9700   21.4640 C   0  0  0  0  0  0  0  0  0  0  0  0
  -22.2270   -8.8900   20.4810 C   0  0  0  0  0  3  0  0  0  0  0  0
  -22.9330  -10.0890   20.2880 C   0  0  0  0  0  3  0  0  0  0  0  0
  -21.9060   -6.8090   21.5620 O   0  0  0  0  0  0  0  0  0  0  0  0
  -21.7960   -6.1250   22.7450 C   0  0  0  0  0  0  0  0  0  0  0  0
  -21.1830   -6.6970   23.8820 C   0  0  0  0  0  3  0  0  0  0  0  0
  -21.0270   -5.9340   25.0560 C   0  0  0  0  0  3  0  0  0  0  0  0
  -21.4750   -4.6000   25.0950 C   0  0  0  0  0  0  0  0  0  0  0  0
  -22.0810   -4.0280   23.9620 C   0  0  0  0  0  3  0  0  0  0  0  0
  -22.2380   -4.7880   22.7900 C   0  0  0  0  0  0  0  0  0  0  0  0
  -22.8030   -4.2250   21.6940 F   0  0  0  0  0  0  0  0  0  0  0  0
  -21.3180   -3.8650   26.2200 F   0  0  0  0  0  0  0  0  0  0  0  0
  -22.8830  -13.4690   21.2340 C   0  0  0  0  0  0  0  0  0  0  0  0
  -22.1810  -12.7520   22.1040 N   0  0  0  0  0  0  0  0  0  0  0  0
  -22.4240  -14.4980   20.7400 O   0  0  0  0  0  0  0  0  0  0  0  0
  -22.5650  -11.9190   22.5240 H   0  0  0  0  0  0  0  0  0  0  0  0
  -21.2470  -13.0430   22.3540 H   0  0  0  0  0  0  0  0  0  0  0  0
  -25.4620  -15.1730   20.3650 N   0  0  0  0  0  0  0  0  0  0  0  0
  -24.6910  -15.8150   20.5090 H   0  0  0  0  0  0  0  0  0  0  0  0
  -26.3020  -15.6330   20.0440 H   0  0  0  0  0  0  0  0  0  0  0  0
  1  3  1  0
  1  5  1  0
  1 50  1  0
  3  2  1  0
  5  4  1  6
  5  8  1  0
  5  7  1  0
  6  7  1  0
  8  9  1  0
 10 21  2  0
 11  9  1  0
 11 16  1  0
 12 20  1  0
 12 22  1  0
 13 19  1  0
 13 15  1  0
 14 20  1  0
 15 14  1  0
 16 15  2  0
 17 18  1  0
 17 11  2  0
 18 13  2  0
 19 12  1  0
 20 10  1  0
 22 24  2  0
 23 22  1  0
 25 23  1  0
 26 35  2  0
 26 31  1  0
 27 23  1  0
 27 31  1  0
 28 27  1  0
 29 30  1  0
 29 28  1  0
 30 26  1  0
 31 32  2  0
 32 33  1  0
 34 33  2  0
 35 34  1  0
 36 10  1  0
 36 37  1  0
 36 46  1  0
 37 40  1  0
 38 42  1  0
 38 37  1  0
 39 38  2  0
 42 41  1  0
 44 42  1  0
 44 45  1  0
 44 43  1  0
 46 49  1  1
 46 47  1  0
 48 46  1  0
 52 51  1  0
 53 54  1  0
 54 50  1  0
 54 51  2  0
 55 53  2  0
 55 56  1  0
 56 66  1  0
 56 52  2  0
 57 55  1  0
 58 66  1  0
 59 64  1  0
 60 61  1  0
 60 59  1  0
 62 61  1  0
 62 71  1  0
 62 63  1  0
 64 58  1  0
 64 63  1  0
 65 58  2  0
 66 67  1  0
 68 69  2  0
 69 88  1  0
 70 69  1  0
 70 73  1  0
 71 68  1  0
 71 72  1  0
 72 70  2  0
 73 74  1  0
 74 75  2  0
 76 79  1  0
 76 75  1  0
 77 76  2  0
 78 77  1  0
 78 73  2  0
 79 80  1  0
 80 85  2  0
 80 81  1  0
 81 82  2  0
 82 83  1  0
 83 87  1  0
 84 83  2  0
 85 84  1  0
 86 85  1  0
 88 89  1  0
 89 92  1  0
 89 91  1  0
 90 88  2  0
 93 94  1  0
 93 68  1  0
 95 93  1  0
M  ISO  4   8 101   9 101  58 100  66 100
M  END
>  <TORSDO>  (7) 
F 22

>  <SCORE>  (7) 
-13.135

>  <name>  (7) 
6

>  <ligand_id>  (7) 
6

>  <original_smiles>  (7) 
[H]c1c([H])c([H])c2c(c1[H])C([H])([H])C([H])([H])C([H])([H])C2([H])N([H])C(=O)C1([H])N(C(=O)C([H])(N([H])C(=O)C([H])(N([H])C([H])([H])[H])C([H])([H])[H])C(C([H])([H])[H])(C([H])([H])[H])C([H])([H])[H])C([H])([H])c2c([H])c(OC([H])([H])C(C([H])([H])[H])(C([H])([H])C([H])([H])[H])C([H])(C([H])([H])c3c([H])c([H])c(N([H])C(=O)N4C([H])([H])C([H])([H])C([H])([H])C([H])(n5nc(-c6c([H])c([H])c(Oc7c([H])c([H])c(F)c([H])c7F)c([H])c6[H])c(C(=O)N([H])[H])c5N([H])[H])C4([H])[H])c(C([H])([H])[H])c3[H])C([H])([H])C([H])([H])[H])c([H])c([H])c2C1([H])[H]

>  <smiles>  (7) 
[H]c1c([H])c([H])c2c(c1[H])C([H])([H])C([H])([H])C([H])([H])C2([H])N([H])C(=O)C1([H])N(C(=O)C([H])(N([H])C(=O)C([H])(N([H])C([H])([H])[H])C([H])([H])[H])C(C([H])([H])[H])(C([H])([H])[H])C([H])([H])[H])C([H])([H])c2c([H])c(OC([H])([H])C(C([H])([H])[H])(C([H])([H])C([H])([H])[H])C([H])(C([H])([H])c3c([H])c([H])c(N([H])C(=O)N4C([H])([H])C([H])([H])C([H])([H])C([H])(n5nc(-c6c([H])c([H])c(Oc7c([H])c([H])c(F)c([H])c7F)c([H])c6[H])c(C(=O)N([H])[H])c5N([H])[H])C4([H])[H])c(C([H])([H])[H])c3[H])C([H])([H])C([H])([H])[H])c([H])c([H])c2C1([H])[H]

$$$$
7:0:0
     RDKit          3D

 96103  0  0  1  0  0  0  0  0999 V2000
  -29.2130  -20.1720   21.8190 C   0  0  0  0  0  2  0  0  0  0  0  0
  -30.3590  -19.1570   21.9740 C   0  0  0  0  0  2  0  0  0  0  0  0
  -30.0490  -17.7780   21.3390 C   0  0  0  0  0  2  0  0  0  0  0  0
  -31.2870  -16.9590   20.8680 C   0  0  0  0  0  3  0  0  0  0  0  0
  -31.4640  -14.5610   19.9440 C   0  0  0  0  0  0  0  0  0  0  0  0
  -31.1060  -12.3100   18.9950 C   0  0  0  0  0  2  0  0  0  0  0  0
  -30.1250  -12.3760   17.8090 C   0  0  0  0  0  2  0  0  0  0  0  0
  -28.6620  -12.3140   18.2930 C   0  0  0  0  0  2  0  0  0  0  0  0
  -28.3730  -13.3010   19.4540 C   0  0  0  0  0  3  0  0  0  0  0  0
  -29.4490  -13.1730   20.5510 C   0  0  0  0  0  2  0  0  0  0  0  0
  -30.7630  -13.3980   19.9240 N   0  0  0  0  0  0  0  0  0  0  0  0
  -32.5390  -14.6870   19.3520 O   0  0  0  0  0  0  0  0  0  0  0  0
  -30.8640  -15.5660   20.6110 N   0  0  0  0  0  0  0  0  0  0  0  0
  -29.9710  -15.3140   21.0080 H   0  0  0  0  0  0  0  0  0  0  0  0
  -26.0620  -14.0510   20.3000 C   0  0  0  0  0  0  0  0  0  0  0  0
  -24.9640  -13.3430   20.7100 C   0  0  0  0  0  0  0  0  0  0  0  0
  -25.3300  -11.9650   20.6250 C   0  0  0  0  0  0  0  0  0  0  0  0
  -27.0310  -13.1070   19.9960 N   0  0  0  0  0  0  0  0  0  0  0  0
  -26.5940  -11.8460   20.2420 N   0  0  0  0  0  0  0  0  0  0  0  0
  -24.5320  -10.7480   20.8300 C   0  0  0  0  0  0  0  0  0  0  0  0
  -24.9000   -9.7770   21.7880 C   0  0  0  0  0  3  0  0  0  0  0  0
  -24.1080   -8.6240   21.9770 C   0  0  0  0  0  3  0  0  0  0  0  0
  -22.9360   -8.4340   21.2060 C   0  0  0  0  0  0  0  0  0  0  0  0
  -22.5880   -9.3930   20.2380 C   0  0  0  0  0  3  0  0  0  0  0  0
  -23.3810  -10.5380   20.0480 C   0  0  0  0  0  3  0  0  0  0  0  0
  -22.1180   -7.3340   21.3030 O   0  0  0  0  0  0  0  0  0  0  0  0
  -21.9380   -6.6730   22.4910 C   0  0  0  0  0  0  0  0  0  0  0  0
  -21.4100   -7.3200   23.6290 C   0  0  0  0  0  3  0  0  0  0  0  0
  -21.1750   -6.5880   24.8100 C   0  0  0  0  0  3  0  0  0  0  0  0
  -21.4610   -5.2090   24.8520 C   0  0  0  0  0  0  0  0  0  0  0  0
  -21.9840   -4.5630   23.7200 C   0  0  0  0  0  3  0  0  0  0  0  0
  -22.2200   -5.2930   22.5410 C   0  0  0  0  0  0  0  0  0  0  0  0
  -22.7030   -4.6620   21.4440 F   0  0  0  0  0  0  0  0  0  0  0  0
  -21.2290   -4.5040   25.9840 F   0  0  0  0  0  0  0  0  0  0  0  0
  -23.6190  -13.9040   21.0720 C   0  0  0  0  0  0  0  0  0  0  0  0
  -22.9070  -13.2470   21.9810 N   0  0  0  0  0  0  0  0  0  0  0  0
  -23.2140  -14.9580   20.5860 O   0  0  0  0  0  0  0  0  0  0  0  0
  -23.2500  -12.3930   22.3970 H   0  0  0  0  0  0  0  0  0  0  0  0
  -22.0060  -13.6030   22.2670 H   0  0  0  0  0  0  0  0  0  0  0  0
  -26.3120  -15.4110   20.1450 N   0  0  0  0  0  0  0  0  0  0  0  0
  -25.6100  -16.1210   20.3210 H   0  0  0  0  0  0  0  0  0  0  0  0
  -27.1780  -15.7930   19.7860 H   0  0  0  0  0  0  0  0  0  0  0  0
  -32.0810  -17.6500   19.7100 C   0  0  0  0  0  2  0  0  0  0  0  0
  -31.3130  -17.9780   18.4170 C   0  0  0  0  0  0  0  0  0  0  0  0
  -31.8610  -18.8680   17.6020 N   0  0  0  0  0  0  0  0  0  0  0  0
  -30.2390  -17.4440   18.1380 O   0  0  0  0  0  0  0  0  0  0  0  0
  -32.7530  -19.2880   17.8270 H   0  0  0  0  0  0  0  0  0  0  0  0
  -31.4020  -19.1130   16.7360 H   0  0  0  0  0  0  0  0  0  0  0  0
  -29.6130  -21.6000   22.2470 C   0  0  0  0  0  2  0  0  0  0  0  0
  -28.6930  -22.6130   21.6830 N   0  0  0  0  0  4  0  0  0  0  0  0
  -27.8040  -22.5490   22.1530 H   0  0  0  0  0  0  0  0  0  0  0  0
  -28.5400  -22.3860   20.7160 H   0  0  0  0  0  0  0  0  0  0  0  0
  -29.1860  -24.0070   21.7440 C   0  0  0  0  0  2  0  0  0  0  0  0
  -28.5270  -24.8810   20.6610 C   0  0  0  0  0  2  0  0  0  0  0  0
  -28.9940  -26.3480   20.6860 C   0  0  0  0  0  2  0  0  0  0  0  0
  -28.5390  -27.0110   19.5100 O   0  0  0  0  0  0  0  0  0  0  0  0
  -24.6150  -31.7570   23.0770 C   0  0  0  0  0  0  0  0  0  0  0  0
  -27.3420  -27.6640   19.6440 C   0  0  0  0  0  0  0  0  0  0  0  0
  -23.4140  -30.4130   21.3790 C   0  0  0  0  0  3  0  0  0  0  0  0
  -24.8860  -29.0330   19.8180 C   0  0  0  0  0  0  0  0  0  0  0  0
  -25.9100  -30.9010   21.1330 C   0  0  0  0  0  2  0  0  0  0  0  0
  -26.0350  -29.5770   20.4100 C   0  0  0  0  0  0  0  0  0  0  0  0
  -27.2680  -28.8970   20.3230 C   0  0  0  0  0  3  0  0  0  0  0  0
  -26.1850  -27.1260   19.0470 C   0  0  0  0  0  3  0  0  0  0  0  0
  -24.9550  -27.8050   19.1360 C   0  0  0  0  0  3  0  0  0  0  0  0
  -23.6090  -29.8300   19.9530 C   0  0  0  0  0  2  0  0  0  0  0  0
  -24.6660  -31.0340   21.9230 N   0  0  0  0  0  0  0  0  0  0  0  0
  -23.5420  -31.9500   23.6650 O   0  0  0  0  0  0  0  0  0  0  0  0
  -22.8360  -29.3070   22.2870 C   0  0  0  0  0  0  0  0  0  0  0  0
  -21.5190  -29.0750   22.1770 N   0  0  0  0  0  0  0  0  0  0  0  0
  -23.5680  -28.6620   23.0440 O   0  0  0  0  0  0  0  0  0  0  0  0
  -20.9920  -29.6500   21.5360 H   0  0  0  0  0  0  0  0  0  0  0  0
  -18.2140  -27.6910   22.6470 C   0  0  0  0  0  0  0  0  0  0  0  0
  -20.7600  -28.0540   22.9020 C   0  0  0  0  0  3  0  0  0  0  0  0
  -20.9220  -26.6670   22.2380 C   0  0  0  0  0  2  0  0  0  0  0  0
  -19.8200  -26.3510   21.2230 C   0  0  0  0  0  2  0  0  0  0  0  0
  -18.4430  -26.3930   21.8940 C   0  0  0  0  0  2  0  0  0  0  0  0
  -19.3020  -28.4790   23.1060 C   0  0  0  0  0  0  0  0  0  0  0  0
  -19.0370  -29.6950   23.7710 C   0  0  0  0  0  3  0  0  0  0  0  0
  -17.7140  -30.1260   23.9830 C   0  0  0  0  0  3  0  0  0  0  0  0
  -16.6400  -29.3350   23.5410 C   0  0  0  0  0  3  0  0  0  0  0  0
  -16.8900  -28.1180   22.8810 C   0  0  0  0  0  3  0  0  0  0  0  0
  -25.8960  -32.3960   23.6980 C   0  0  0  0  0  3  0  0  0  0  0  0
  -26.4650  -31.5820   24.9250 C   0  0  1  0  0  0  0  0  0  0  0  0
  -25.4030  -31.2640   26.0040 C   0  0  0  0  0  1  0  0  0  0  0  0
  -27.0770  -30.2420   24.4560 C   0  0  0  0  0  1  0  0  0  0  0  0
  -27.6050  -32.3810   25.6000 C   0  0  0  0  0  1  0  0  0  0  0  0
  -25.5560  -33.7670   24.0950 N   0  0  0  0  0  0  0  0  0  0  0  0
  -25.8510  -34.8610   23.3810 C   0  0  0  0  0  0  0  0  0  0  0  0
  -26.5110  -34.8220   22.3390 O   0  0  0  0  0  0  0  0  0  0  0  0
  -24.9600  -33.8700   24.9040 H   0  0  0  0  0  0  0  0  0  0  0  0
  -24.0580  -36.6090   23.1360 C   0  0  0  0  0  1  0  0  0  0  0  0
  -25.3290  -36.2130   23.9050 C   0  0  0  0  0  3  0  0  0  0  0  0
  -27.4490  -37.1370   24.7310 C   0  0  0  0  0  1  0  0  0  0  0  0
  -26.3240  -37.3030   23.8130 N   0  0  0  0  0  0  0  0  0  0  0  0
  -25.8930  -38.2040   24.0000 H   0  0  0  0  0  0  0  0  0  0  0  0
  1  2  1  0
  1 49  1  0
  3  2  1  0
  4 43  1  0
  4  3  1  0
  5 13  1  0
  6 11  1  0
  7  8  1  0
  7  6  1  0
  9  8  1  0
  9 18  1  0
  9 10  1  0
 11  5  1  0
 11 10  1  0
 12  5  2  0
 13  4  1  0
 13 14  1  0
 15 16  2  0
 16 35  1  0
 17 16  1  0
 17 20  1  0
 18 19  1  0
 18 15  1  0
 19 17  2  0
 20 21  1  0
 21 22  2  0
 23 26  1  0
 23 22  1  0
 24 23  2  0
 25 24  1  0
 25 20  2  0
 26 27  1  0
 27 32  2  0
 27 28  1  0
 28 29  2  0
 29 30  1  0
 30 34  1  0
 31 30  2  0
 32 31  1  0
 33 32  1  0
 35 36  1  0
 36 39  1  0
 36 38  1  0
 37 35  2  0
 40 15  1  0
 40 41  1  0
 42 40  1  0
 44 43  1  0
 45 47  1  0
 45 44  1  0
 46 44  2  0
 48 45  1  0
 50 53  1  0
 50 51  1  0
 50 49  1  0
 52 50  1  0
 54 55  1  0
 54 53  1  0
 56 58  1  0
 56 55  1  0
 57 68  2  0
 58 63  1  0
 59 67  1  0
 59 69  1  0
 60 66  1  0
 60 62  1  0
 61 67  1  0
 62 61  1  0
 63 62  2  0
 64 65  1  0
 64 58  2  0
 65 60  2  0
 66 59  1  0
 67 57  1  0
 69 71  2  0
 70 69  1  0
 72 70  1  0
 73 82  2  0
 73 78  1  0
 74 70  1  0
 74 78  1  0
 75 74  1  0
 76 77  1  0
 76 75  1  0
 77 73  1  0
 78 79  2  0
 79 80  1  0
 81 80  2  0
 82 81  1  0
 83 57  1  0
 83 88  1  0
 83 84  1  0
 84 87  1  1
 84 85  1  0
 86 84  1  0
 88 91  1  0
 89 93  1  0
 89 88  1  0
 90 89  2  0
 93 92  1  0
 95 93  1  0
 95 96  1  0
 95 94  1  0
M  ISO  4   5 100  13 100  55 101  56 101
M  END
>  <TORSDO>  (8) 
F 26

>  <SCORE>  (8) 
-10.257

>  <name>  (8) 
7

>  <ligand_id>  (8) 
7

>  <original_smiles>  (8) 
[H]c1c([H])c([H])c2c(c1[H])C([H])([H])C([H])([H])C([H])([H])C2([H])N([H])C(=O)C1([H])N(C(=O)C([H])(N([H])C(=O)C([H])(N([H])C([H])([H])[H])C([H])([H])[H])C(C([H])([H])[H])(C([H])([H])[H])C([H])([H])[H])C([H])([H])c2c([H])c(OC([H])([H])C([H])([H])C([H])([H])[N+]([H])([H])C([H])([H])C([H])([H])C([H])([H])C([H])([H])C([H])(N([H])C(=O)N3C([H])([H])C([H])([H])C([H])([H])C([H])(n4nc(-c5c([H])c([H])c(Oc6c([H])c([H])c(F)c([H])c6F)c([H])c5[H])c(C(=O)N([H])[H])c4N([H])[H])C3([H])[H])C([H])([H])C(=O)N([H])[H])c([H])c([H])c2C1([H])[H]

>  <smiles>  (8) 
[H]c1c([H])c([H])c2c(c1[H])C([H])([H])C([H])([H])C([H])([H])C2([H])N([H])C(=O)C1([H])N(C(=O)C([H])(N([H])C(=O)C([H])(N([H])C([H])([H])[H])C([H])([H])[H])C(C([H])([H])[H])(C([H])([H])[H])C([H])([H])[H])C([H])([H])c2c([H])c(OC([H])([H])C([H])([H])C([H])([H])[N+]([H])([H])C([H])([H])C([H])([H])C([H])([H])C([H])([H])C([H])(N([H])C(=O)N3C([H])([H])C([H])([H])C([H])([H])C([H])(n4nc(-c5c([H])c([H])c(Oc6c([H])c([H])c(F)c([H])c6F)c([H])c5[H])c(C(=O)N([H])[H])c4N([H])[H])C3([H])[H])C([H])([H])C(=O)N([H])[H])c([H])c([H])c2C1([H])[H]

$$$$
8:0:0
     RDKit          3D

 89 96  0  0  1  0  0  0  0  0999 V2000
  -28.9060  -22.4900   20.8830 C   0  0  0  0  0  2  0  0  0  0  0  0
  -29.1130  -23.9180   20.2210 C   0  0  0  0  0  0  0  0  0  0  0  0
  -30.1910  -24.1940   19.6850 O   0  0  0  0  0  0  0  0  0  0  0  0
  -27.9490  -24.9830   20.2470 C   0  0  0  0  0  2  0  0  0  0  0  0
  -28.2940  -26.4330   20.1850 O   0  0  0  0  0  0  0  0  0  0  0  0
  -24.6300  -31.8910   23.2310 C   0  0  0  0  0  0  0  0  0  0  0  0
  -27.1970  -27.3140   20.1490 C   0  0  0  0  0  0  0  0  0  0  0  0
  -23.4100  -30.4960   21.6030 C   0  0  0  0  0  3  0  0  0  0  0  0
  -24.8440  -28.9470   20.1670 C   0  0  0  0  0  0  0  0  0  0  0  0
  -25.9510  -30.8010   21.4040 C   0  0  0  0  0  2  0  0  0  0  0  0
  -26.0210  -29.4240   20.7550 C   0  0  0  0  0  0  0  0  0  0  0  0
  -27.2040  -28.6200   20.7390 C   0  0  0  0  0  3  0  0  0  0  0  0
  -25.9930  -26.9050   19.5290 C   0  0  0  0  0  3  0  0  0  0  0  0
  -24.8330  -27.6930   19.5430 C   0  0  0  0  0  3  0  0  0  0  0  0
  -23.6110  -29.8250   20.2220 C   0  0  0  0  0  2  0  0  0  0  0  0
  -24.6840  -31.0800   22.1360 N   0  0  0  0  0  0  0  0  0  0  0  0
  -23.5520  -32.1720   23.7750 O   0  0  0  0  0  0  0  0  0  0  0  0
  -22.7540  -29.4800   22.5680 C   0  0  0  0  0  0  0  0  0  0  0  0
  -21.4270  -29.3020   22.4500 N   0  0  0  0  0  0  0  0  0  0  0  0
  -23.4360  -28.8530   23.3820 O   0  0  0  0  0  0  0  0  0  0  0  0
  -20.9350  -29.8560   21.7630 H   0  0  0  0  0  0  0  0  0  0  0  0
  -18.0520  -28.1030   22.9690 C   0  0  0  0  0  0  0  0  0  0  0  0
  -20.6120  -28.3680   23.2290 C   0  0  0  0  0  3  0  0  0  0  0  0
  -20.7140  -26.9330   22.6610 C   0  0  0  0  0  2  0  0  0  0  0  0
  -19.6090  -26.6020   21.6530 C   0  0  0  0  0  2  0  0  0  0  0  0
  -18.2300  -26.7490   22.3000 C   0  0  0  0  0  2  0  0  0  0  0  0
  -19.1720  -28.8690   23.3900 C   0  0  0  0  0  0  0  0  0  0  0  0
  -18.9520  -30.1350   23.9760 C   0  0  0  0  0  3  0  0  0  0  0  0
  -17.6470  -30.6350   24.1430 C   0  0  0  0  0  3  0  0  0  0  0  0
  -16.5420  -29.8660   23.7360 C   0  0  0  0  0  3  0  0  0  0  0  0
  -16.7470  -28.6010   23.1550 C   0  0  0  0  0  3  0  0  0  0  0  0
  -25.9190  -32.5210   23.8420 C   0  0  0  0  0  3  0  0  0  0  0  0
  -25.6120  -33.9180   24.1830 N   0  0  0  0  0  0  0  0  0  0  0  0
  -25.9330  -34.9750   23.4240 C   0  0  0  0  0  0  0  0  0  0  0  0
  -26.5880  -34.8770   22.3840 O   0  0  0  0  0  0  0  0  0  0  0  0
  -25.0300  -34.0680   24.9960 H   0  0  0  0  0  0  0  0  0  0  0  0
  -24.1960  -36.7660   23.1030 C   0  0  0  0  0  1  0  0  0  0  0  0
  -25.4480  -36.3610   23.8960 C   0  0  0  0  0  3  0  0  0  0  0  0
  -27.5960  -37.2440   24.6970 C   0  0  0  0  0  1  0  0  0  0  0  0
  -26.4790  -37.4160   23.7730 N   0  0  0  0  0  0  0  0  0  0  0  0
  -26.0740  -38.3350   23.9320 H   0  0  0  0  0  0  0  0  0  0  0  0
  -26.4490  -31.7450   25.1100 C   0  0  1  0  0  0  0  0  0  0  0  0
  -25.3670  -31.5050   26.1900 C   0  0  0  0  0  1  0  0  0  0  0  0
  -27.0240  -30.3670   24.7100 C   0  0  0  0  0  1  0  0  0  0  0  0
  -27.6070  -32.5360   25.7610 C   0  0  0  0  0  1  0  0  0  0  0  0
  -29.0260  -21.1250   20.0400 C   0  0  0  0  0  3  0  0  0  0  0  0
  -27.1200  -21.8230   18.4090 C   0  0  0  0  0  1  0  0  0  0  0  0
  -27.6800  -20.7630   19.3630 C   0  0  0  0  0  2  0  0  0  0  0  0
  -29.5800  -19.8510   20.8480 C   0  0  0  0  0  2  0  0  0  0  0  0
  -29.4130  -18.3600   20.2780 C   0  0  0  0  0  3  0  0  0  0  0  0
  -30.2750  -17.1880   20.9320 C   0  0  0  0  0  3  0  0  0  0  0  0
  -30.6110  -14.6540   20.4230 C   0  0  0  0  0  0  0  0  0  0  0  0
  -30.3740  -12.4150   19.3680 C   0  0  0  0  0  2  0  0  0  0  0  0
  -29.4330  -12.5250   18.1470 C   0  0  0  0  0  2  0  0  0  0  0  0
  -27.9610  -12.3780   18.5760 C   0  0  0  0  0  2  0  0  0  0  0  0
  -27.6000  -13.2620   19.7990 C   0  0  0  0  0  3  0  0  0  0  0  0
  -28.6540  -13.1270   20.9190 C   0  0  0  0  0  2  0  0  0  0  0  0
  -29.9620  -13.4510   20.3350 N   0  0  0  0  0  0  0  0  0  0  0  0
  -31.7930  -14.7700   20.0920 O   0  0  0  0  0  0  0  0  0  0  0  0
  -29.8460  -15.7580   20.7080 N   0  0  0  0  0  0  0  0  0  0  0  0
  -28.8700  -15.5630   20.8710 H   0  0  0  0  0  0  0  0  0  0  0  0
  -25.2070  -13.8820   20.5030 C   0  0  0  0  0  0  0  0  0  0  0  0
  -24.1340  -13.1180   20.8720 C   0  0  0  0  0  0  0  0  0  0  0  0
  -24.5870  -11.7630   20.8520 C   0  0  0  0  0  0  0  0  0  0  0  0
  -26.2480  -12.9920   20.2820 N   0  0  0  0  0  0  0  0  0  0  0  0
  -25.8800  -11.7140   20.5540 N   0  0  0  0  0  0  0  0  0  0  0  0
  -23.8510  -10.5080   21.0450 C   0  0  0  0  0  0  0  0  0  0  0  0
  -24.2850   -9.5320   21.9690 C   0  0  0  0  0  3  0  0  0  0  0  0
  -23.5500   -8.3390   22.1490 C   0  0  0  0  0  3  0  0  0  0  0  0
  -22.3670   -8.1160   21.4040 C   0  0  0  0  0  0  0  0  0  0  0  0
  -21.9540   -9.0790   20.4680 C   0  0  0  0  0  3  0  0  0  0  0  0
  -22.6890  -10.2630   20.2850 C   0  0  0  0  0  3  0  0  0  0  0  0
  -21.6020   -6.9770   21.4950 O   0  0  0  0  0  0  0  0  0  0  0  0
  -21.5730   -6.2190   22.6380 C   0  0  0  0  0  0  0  0  0  0  0  0
  -21.1960   -6.7650   23.8840 C   0  0  0  0  0  3  0  0  0  0  0  0
  -21.1120   -5.9360   25.0210 C   0  0  0  0  0  3  0  0  0  0  0  0
  -21.3950   -4.5610   24.9120 C   0  0  0  0  0  0  0  0  0  0  0  0
  -21.7640   -4.0140   23.6690 C   0  0  0  0  0  3  0  0  0  0  0  0
  -21.8500   -4.8400   22.5370 C   0  0  0  0  0  0  0  0  0  0  0  0
  -22.1860   -4.3050   21.3380 F   0  0  0  0  0  0  0  0  0  0  0  0
  -21.3060   -3.7620   26.0000 F   0  0  0  0  0  0  0  0  0  0  0  0
  -22.7360  -13.6070   21.1280 C   0  0  0  0  0  0  0  0  0  0  0  0
  -21.9970  -12.9220   21.9930 N   0  0  0  0  0  0  0  0  0  0  0  0
  -22.3100  -14.6300   20.5970 O   0  0  0  0  0  0  0  0  0  0  0  0
  -22.3540  -12.0930   22.4460 H   0  0  0  0  0  0  0  0  0  0  0  0
  -21.0600  -13.2300   22.2080 H   0  0  0  0  0  0  0  0  0  0  0  0
  -25.3820  -15.2490   20.3130 N   0  0  0  0  0  0  0  0  0  0  0  0
  -24.6150  -15.9050   20.4180 H   0  0  0  0  0  0  0  0  0  0  0  0
  -26.2180  -15.6800   19.9390 H   0  0  0  0  0  0  0  0  0  0  0  0
  2  4  1  0
  2  1  1  0
  3  2  2  0
  5  4  1  0
  6 17  2  0
  7  5  1  0
  7 12  1  0
  8 16  1  0
  8 18  1  0
  9 15  1  0
  9 11  1  0
 10 16  1  0
 11 10  1  0
 12 11  2  0
 13 14  1  0
 13  7  2  0
 14  9  2  0
 15  8  1  0
 16  6  1  0
 18 20  2  0
 19 18  1  0
 21 19  1  0
 22 31  2  0
 22 27  1  0
 23 19  1  0
 23 27  1  0
 24 23  1  0
 25 26  1  0
 25 24  1  0
 26 22  1  0
 27 28  2  0
 28 29  1  0
 30 29  2  0
 31 30  1  0
 32  6  1  0
 32 33  1  0
 32 42  1  0
 33 36  1  0
 34 38  1  0
 34 33  1  0
 35 34  2  0
 38 37  1  0
 40 38  1  0
 40 41  1  0
 40 39  1  0
 42 45  1  1
 42 43  1  0
 44 42  1  0
 46 48  1  0
 46 49  1  0
 46  1  1  0
 47 48  1  0
 50 49  1  0
 50 51  2  0
 52 60  1  0
 53 58  1  0
 54 55  1  0
 54 53  1  0
 56 55  1  0
 56 65  1  0
 56 57  1  0
 58 52  1  0
 58 57  1  0
 59 52  2  0
 60 61  1  0
 60 51  1  0
 62 63  2  0
 63 82  1  0
 64 63  1  0
 64 67  1  0
 65 62  1  0
 65 66  1  0
 66 64  2  0
 67 68  1  0
 68 69  2  0
 70 73  1  0
 70 69  1  0
 71 70  2  0
 72 71  1  0
 72 67  2  0
 73 74  1  0
 74 75  1  0
 75 76  2  0
 77 76  1  0
 77 81  1  0
 78 77  2  0
 79 74  2  0
 79 78  1  0
 80 79  1  0
 82 83  1  0
 83 86  1  0
 83 85  1  0
 84 82  2  0
 87 88  1  0
 87 62  1  0
 89 87  1  0
M  ISO  4   4 101   5 101  52 100  60 100
M  END
>  <TORSDO>  (9) 
F 23

>  <SCORE>  (9) 
-12.705

>  <name>  (9) 
8

>  <ligand_id>  (9) 
8

>  <original_smiles>  (9) 
[H]c1c([H])c([H])c2c(c1[H])C([H])([H])C([H])([H])C([H])([H])C2([H])N([H])C(=O)C1([H])N(C(=O)C([H])(N([H])C(=O)C([H])(N([H])C([H])([H])[H])C([H])([H])[H])C(C([H])([H])[H])(C([H])([H])[H])C([H])([H])[H])C([H])([H])c2c([H])c(OC([H])([H])C(=O)C([H])([H])C([H])(C([H])([H])C([H])([H])[H])C([H])([H])C([H])([H])C([H])([H])N([H])C(=O)N3C([H])([H])C([H])([H])C([H])([H])C([H])(n4nc(-c5c([H])c([H])c(Oc6c([H])c([H])c(F)c([H])c6F)c([H])c5[H])c(C(=O)N([H])[H])c4N([H])[H])C3([H])[H])c([H])c([H])c2C1([H])[H]

>  <smiles>  (9) 
[H]c1c([H])c([H])c2c(c1[H])C([H])([H])C([H])([H])C([H])([H])C2([H])N([H])C(=O)C1([H])N(C(=O)C([H])(N([H])C(=O)C([H])(N([H])C([H])([H])[H])C([H])([H])[H])C(C([H])([H])[H])(C([H])([H])[H])C([H])([H])[H])C([H])([H])c2c([H])c(OC([H])([H])C(=O)C([H])([H])C([H])(C([H])([H])C([H])([H])[H])C([H])([H])C([H])([H])C([H])([H])N([H])C(=O)N3C([H])([H])C([H])([H])C([H])([H])C([H])(n4nc(-c5c([H])c([H])c(Oc6c([H])c([H])c(F)c([H])c6F)c([H])c5[H])c(C(=O)N([H])[H])c4N([H])[H])C3([H])[H])c([H])c([H])c2C1([H])[H]

$$$$
9:0:0
     RDKit          3D

 93102  0  0  1  0  0  0  0  0999 V2000
  -30.8160  -19.8230   21.0960 C   0  0  0  0  0  0  0  0  0  0  0  0
  -28.6240  -20.5100   22.3070 C   0  0  0  0  0  2  0  0  0  0  0  0
  -28.6530  -19.2390   20.0590 C   0  0  0  0  0  2  0  0  0  0  0  0
  -29.9860  -20.9970   21.6860 C   0  0  0  0  0  3  0  0  0  0  0  0
  -29.9230  -18.6030   20.7170 C   0  0  0  0  0  3  0  0  0  0  0  0
  -28.2390  -20.5730   20.7770 C   0  0  0  0  0  3  0  0  0  0  0  0
  -29.1150  -21.8780   20.7420 C   0  0  0  0  0  3  0  0  0  0  0  0
  -32.0380  -19.7920   20.9430 O   0  0  0  0  0  0  0  0  0  0  0  0
  -30.6000  -17.3620   19.9840 C   0  0  0  0  0  2  0  0  0  0  0  0
  -31.0130  -14.8460   20.2160 C   0  0  0  0  0  0  0  0  0  0  0  0
  -30.7380  -12.5840   19.2460 C   0  0  0  0  0  2  0  0  0  0  0  0
  -29.8050  -12.6950   18.0210 C   0  0  0  0  0  2  0  0  0  0  0  0
  -28.3320  -12.5600   18.4500 C   0  0  0  0  0  2  0  0  0  0  0  0
  -27.9790  -13.4730   19.6560 C   0  0  0  0  0  3  0  0  0  0  0  0
  -29.0340  -13.3620   20.7850 C   0  0  0  0  0  2  0  0  0  0  0  0
  -30.3490  -13.6480   20.1970 N   0  0  0  0  0  0  0  0  0  0  0  0
  -32.1720  -14.9440   19.8060 O   0  0  0  0  0  0  0  0  0  0  0  0
  -30.2790  -15.9710   20.4720 N   0  0  0  0  0  0  0  0  0  0  0  0
  -29.3550  -15.8180   20.8450 H   0  0  0  0  0  0  0  0  0  0  0  0
  -25.5950  -14.1200   20.3630 C   0  0  0  0  0  0  0  0  0  0  0  0
  -24.5080  -13.3680   20.7260 C   0  0  0  0  0  0  0  0  0  0  0  0
  -24.9400  -12.0080   20.6920 C   0  0  0  0  0  0  0  0  0  0  0  0
  -26.6220  -13.2180   20.1370 N   0  0  0  0  0  0  0  0  0  0  0  0
  -26.2330  -11.9420   20.3950 N   0  0  0  0  0  0  0  0  0  0  0  0
  -24.1850  -10.7610   20.8760 C   0  0  0  0  0  0  0  0  0  0  0  0
  -24.5960   -9.7760   21.7990 C   0  0  0  0  0  3  0  0  0  0  0  0
  -23.8380   -8.5970   21.9700 C   0  0  0  0  0  3  0  0  0  0  0  0
  -22.6570   -8.3950   21.2180 C   0  0  0  0  0  0  0  0  0  0  0  0
  -22.2660   -9.3700   20.2840 C   0  0  0  0  0  3  0  0  0  0  0  0
  -23.0230  -10.5400   20.1100 C   0  0  0  0  0  3  0  0  0  0  0  0
  -21.8750   -7.2680   21.3000 O   0  0  0  0  0  0  0  0  0  0  0  0
  -21.8220   -6.5090   22.4410 C   0  0  0  0  0  0  0  0  0  0  0  0
  -21.4330   -7.0580   23.6840 C   0  0  0  0  0  3  0  0  0  0  0  0
  -21.3250   -6.2280   24.8170 C   0  0  0  0  0  3  0  0  0  0  0  0
  -21.5950   -4.8500   24.7100 C   0  0  0  0  0  0  0  0  0  0  0  0
  -21.9770   -4.3010   23.4730 C   0  0  0  0  0  3  0  0  0  0  0  0
  -22.0870   -5.1280   22.3420 C   0  0  0  0  0  0  0  0  0  0  0  0
  -22.4340   -4.5910   21.1470 F   0  0  0  0  0  0  0  0  0  0  0  0
  -21.4850   -4.0500   25.7960 F   0  0  0  0  0  0  0  0  0  0  0  0
  -23.1230  -13.8780   20.9940 C   0  0  0  0  0  0  0  0  0  0  0  0
  -22.3800  -13.1990   21.8620 N   0  0  0  0  0  0  0  0  0  0  0  0
  -22.7080  -14.9100   20.4710 O   0  0  0  0  0  0  0  0  0  0  0  0
  -22.7310  -12.3640   22.3080 H   0  0  0  0  0  0  0  0  0  0  0  0
  -21.4490  -13.5210   22.0860 H   0  0  0  0  0  0  0  0  0  0  0  0
  -25.7860  -15.4860   20.1820 N   0  0  0  0  0  0  0  0  0  0  0  0
  -25.0190  -16.1450   20.2580 H   0  0  0  0  0  0  0  0  0  0  0  0
  -26.6300  -15.9060   19.8170 H   0  0  0  0  0  0  0  0  0  0  0  0
  -29.6810  -22.6870   19.5220 C   0  0  0  0  0  3  0  0  0  0  0  0
  -27.4740  -22.3840   18.1620 C   0  0  0  0  0  1  0  0  0  0  0  0
  -29.0130  -22.3610   18.1660 C   0  0  0  0  0  2  0  0  0  0  0  0
  -29.8120  -24.2730   19.7400 C   0  0  0  0  0  3  0  0  0  0  0  0
  -28.5580  -25.2210   19.5560 C   0  0  0  0  0  3  0  0  0  0  0  0
  -28.7320  -26.6900   19.6300 O   0  0  0  0  0  0  0  0  0  0  0  0
  -24.6740  -31.6370   22.9680 C   0  0  0  0  0  0  0  0  0  0  0  0
  -27.5650  -27.4680   19.6230 C   0  0  0  0  0  0  0  0  0  0  0  0
  -23.5590  -30.2560   21.2550 C   0  0  0  0  0  3  0  0  0  0  0  0
  -25.1000  -28.9120   19.7250 C   0  0  0  0  0  0  0  0  0  0  0  0
  -26.0700  -30.7630   21.0840 C   0  0  0  0  0  2  0  0  0  0  0  0
  -26.2390  -29.4390   20.3460 C   0  0  0  0  0  0  0  0  0  0  0  0
  -27.4760  -28.7320   20.2870 C   0  0  0  0  0  3  0  0  0  0  0  0
  -26.4020  -27.0090   18.9640 C   0  0  0  0  0  3  0  0  0  0  0  0
  -25.1840  -27.7050   19.0220 C   0  0  0  0  0  3  0  0  0  0  0  0
  -23.8080  -29.6900   19.8340 C   0  0  0  0  0  2  0  0  0  0  0  0
  -24.7860  -30.8970   21.8260 N   0  0  0  0  0  0  0  0  0  0  0  0
  -23.5790  -31.8060   23.5220 O   0  0  0  0  0  0  0  0  0  0  0  0
  -22.9820  -29.1370   22.1540 C   0  0  0  0  0  0  0  0  0  0  0  0
  -21.6640  -28.9000   22.0530 N   0  0  0  0  0  0  0  0  0  0  0  0
  -23.7190  -28.4890   22.9030 O   0  0  0  0  0  0  0  0  0  0  0  0
  -21.1260  -29.4750   21.4170 H   0  0  0  0  0  0  0  0  0  0  0  0
  -18.3670  -27.5090   22.5760 C   0  0  0  0  0  0  0  0  0  0  0  0
  -20.9190  -27.8650   22.7700 C   0  0  0  0  0  3  0  0  0  0  0  0
  -21.0590  -26.4910   22.0740 C   0  0  0  0  0  2  0  0  0  0  0  0
  -19.9320  -26.2020   21.0770 C   0  0  0  0  0  2  0  0  0  0  0  0
  -18.5730  -26.2320   21.7810 C   0  0  0  0  0  2  0  0  0  0  0  0
  -19.4680  -28.2860   23.0240 C   0  0  0  0  0  0  0  0  0  0  0  0
  -19.2170  -29.4860   23.7250 C   0  0  0  0  0  3  0  0  0  0  0  0
  -17.9000  -29.9120   23.9780 C   0  0  0  0  0  3  0  0  0  0  0  0
  -16.8150  -29.1290   23.5460 C   0  0  0  0  0  3  0  0  0  0  0  0
  -17.0500  -27.9310   22.8500 C   0  0  0  0  0  3  0  0  0  0  0  0
  -25.9150  -32.3260   23.6160 C   0  0  0  0  0  3  0  0  0  0  0  0
  -25.5050  -33.6750   24.0290 N   0  0  0  0  0  0  0  0  0  0  0  0
  -25.7460  -34.7920   23.3300 C   0  0  0  0  0  0  0  0  0  0  0  0
  -26.4020  -34.7990   22.2850 O   0  0  0  0  0  0  0  0  0  0  0  0
  -24.9160  -33.7360   24.8470 H   0  0  0  0  0  0  0  0  0  0  0  0
  -23.8740  -36.4580   23.1220 C   0  0  0  0  0  1  0  0  0  0  0  0
  -25.1680  -36.1120   23.8760 C   0  0  0  0  0  3  0  0  0  0  0  0
  -27.2550  -37.1160   24.6960 C   0  0  0  0  0  1  0  0  0  0  0  0
  -26.1140  -37.2470   23.7900 N   0  0  0  0  0  0  0  0  0  0  0  0
  -25.6470  -38.1250   23.9990 H   0  0  0  0  0  0  0  0  0  0  0  0
  -26.5020  -31.5240   24.8400 C   0  0  1  0  0  0  0  0  0  0  0  0
  -25.4450  -31.1510   25.9040 C   0  0  0  0  0  1  0  0  0  0  0  0
  -27.1750  -30.2160   24.3690 C   0  0  0  0  0  1  0  0  0  0  0  0
  -27.6070  -32.3600   25.5290 C   0  0  0  0  0  1  0  0  0  0  0  0
  1  4  1  0
  3  5  1  0
  4  2  1  0
  5  9  1  0
  5  1  1  0
  6  3  1  0
  6  2  1  0
  7 48  1  0
  7  6  1  0
  7  4  1  0
  8  1  2  0
  9 18  1  0
 10 18  1  0
 11 16  1  0
 12 13  1  0
 12 11  1  0
 14 13  1  0
 14 23  1  0
 14 15  1  0
 16 10  1  0
 16 15  1  0
 17 10  2  0
 18 19  1  0
 20 21  2  0
 21 40  1  0
 22 21  1  0
 22 25  1  0
 23 20  1  0
 23 24  1  0
 24 22  2  0
 25 26  1  0
 26 27  2  0
 28 31  1  0
 28 27  1  0
 29 28  2  0
 30 29  1  0
 30 25  2  0
 31 32  1  0
 32 33  1  0
 33 34  2  0
 35 34  1  0
 35 39  1  0
 36 35  2  0
 37 32  2  0
 37 36  1  0
 38 37  1  0
 40 41  1  0
 41 44  1  0
 41 43  1  0
 42 40  2  0
 45 46  1  0
 45 20  1  0
 47 45  1  0
 48 50  1  0
 48 51  1  0
 49 50  1  0
 52 53  1  0
 52 51  2  0
 54 65  2  0
 55 53  1  0
 55 60  1  0
 56 64  1  0
 56 66  1  0
 57 63  1  0
 57 59  1  0
 58 64  1  0
 59 58  1  0
 60 59  2  0
 61 62  1  0
 61 55  2  0
 62 57  2  0
 63 56  1  0
 64 54  1  0
 66 68  2  0
 67 66  1  0
 69 67  1  0
 70 79  2  0
 70 75  1  0
 71 67  1  0
 71 75  1  0
 72 71  1  0
 73 74  1  0
 73 72  1  0
 74 70  1  0
 75 76  2  0
 76 77  1  0
 78 77  2  0
 79 78  1  0
 80 54  1  0
 80 81  1  0
 80 90  1  0
 81 84  1  0
 82 86  1  0
 82 81  1  0
 83 82  2  0
 86 85  1  0
 88 86  1  0
 88 89  1  0
 88 87  1  0
 90 93  1  1
 90 91  1  0
 92 90  1  0
M  ISO  4  10 100  18 100  52 101  53 101
M  END
>  <TORSDO>  (10) 
F 21

>  <SCORE>  (10) 
-11.145

>  <name>  (10) 
9

>  <ligand_id>  (10) 
9

>  <original_smiles>  (10) 
[H]c1c([H])c([H])c2c(c1[H])C([H])([H])C([H])([H])C([H])([H])C2([H])N([H])C(=O)C1([H])N(C(=O)C([H])(N([H])C(=O)C([H])(N([H])C([H])([H])[H])C([H])([H])[H])C(C([H])([H])[H])(C([H])([H])[H])C([H])([H])[H])C([H])([H])c2c([H])c(OC([H])([H])C([H])([H])C([H])(C([H])([H])C([H])([H])[H])C3([H])C4([H])C(=O)C([H])(C([H])([H])N([H])C(=O)N5C([H])([H])C([H])([H])C([H])([H])C([H])(n6nc(-c7c([H])c([H])c(Oc8c([H])c([H])c(F)c([H])c8F)c([H])c7[H])c(C(=O)N([H])[H])c6N([H])[H])C5([H])[H])C([H])([H])C3([H])C4([H])[H])c([H])c([H])c2C1([H])[H]

>  <smiles>  (10) 
[H]c1c([H])c([H])c2c(c1[H])C([H])([H])C([H])([H])C([H])([H])C2([H])N([H])C(=O)C1([H])N(C(=O)C([H])(N([H])C(=O)C([H])(N([H])C([H])([H])[H])C([H])([H])[H])C(C([H])([H])[H])(C([H])([H])[H])C([H])([H])[H])C([H])([H])c2c([H])c(OC([H])([H])C([H])([H])C([H])(C([H])([H])C([H])([H])[H])C3([H])C4([H])C(=O)C([H])(C([H])([H])N([H])C(=O)N5C([H])([H])C([H])([H])C([H])([H])C([H])(n6nc(-c7c([H])c([H])c(Oc8c([H])c([H])c(F)c([H])c8F)c([H])c7[H])c(C(=O)N([H])[H])c6N([H])[H])C5([H])[H])C([H])([H])C3([H])C4([H])[H])c([H])c([H])c2C1([H])[H]

$$$$
10:0:0
     RDKit          3D

 89 98  0  0  1  0  0  0  0  0999 V2000
  -27.5890  -20.2000   18.0940 C   0  0  0  0  0  2  0  0  0  0  0  0
  -29.1940  -19.5600   20.6920 C   0  0  0  0  0  2  0  0  0  0  0  0
  -29.1410  -18.1650   18.5230 C   0  0  0  0  0  2  0  0  0  0  0  0
  -28.8080  -20.9420   18.5340 C   0  0  0  0  0  3  0  0  0  0  0  0
  -29.1740  -21.1740   19.9860 C   0  0  0  0  0  3  0  0  0  0  0  0
  -29.7830  -18.0890   19.9330 C   0  0  0  0  0  3  0  0  0  0  0  0
  -28.9570  -19.5600   17.8540 C   0  0  2  0  0  0  0  0  0  0  0  0
  -29.5060  -19.5300   16.4380 C   0  0  0  0  0  1  0  0  0  0  0  0
  -30.4590  -15.2450   20.2230 C   0  0  0  0  0  0  0  0  0  0  0  0
  -30.4220  -12.8060   19.3670 C   0  0  0  0  0  2  0  0  0  0  0  0
  -29.4920  -12.6350   18.1390 C   0  0  0  0  0  2  0  0  0  0  0  0
  -28.0440  -12.3710   18.5890 C   0  0  0  0  0  2  0  0  0  0  0  0
  -27.6100  -13.3230   19.7310 C   0  0  0  0  0  3  0  0  0  0  0  0
  -28.6680  -13.4500   20.8490 C   0  0  0  0  0  2  0  0  0  0  0  0
  -29.9030  -13.9390   20.2150 N   0  0  0  0  0  0  0  0  0  0  0  0
  -31.6560  -15.2690   19.9030 O   0  0  0  0  0  0  0  0  0  0  0  0
  -29.6870  -16.4920   20.3900 N   0  0  0  0  0  0  0  0  0  0  0  0
  -28.7650  -16.2710   20.7390 H   0  0  0  0  0  0  0  0  0  0  0  0
  -25.2440  -13.8720   20.5080 C   0  0  0  0  0  0  0  0  0  0  0  0
  -24.1890  -13.0900   20.8870 C   0  0  0  0  0  0  0  0  0  0  0  0
  -24.6600  -11.7420   20.8440 C   0  0  0  0  0  0  0  0  0  0  0  0
  -26.2860  -13.0010   20.2500 N   0  0  0  0  0  0  0  0  0  0  0  0
  -25.9480  -11.7140   20.5190 N   0  0  0  0  0  0  0  0  0  0  0  0
  -23.9380  -10.4760   21.0360 C   0  0  0  0  0  0  0  0  0  0  0  0
  -24.3740   -9.5100   21.9690 C   0  0  0  0  0  3  0  0  0  0  0  0
  -23.6500   -8.3120   22.1510 C   0  0  0  0  0  3  0  0  0  0  0  0
  -22.4760   -8.0700   21.3980 C   0  0  0  0  0  0  0  0  0  0  0  0
  -22.0590   -9.0260   20.4540 C   0  0  0  0  0  3  0  0  0  0  0  0
  -22.7830  -10.2150   20.2710 C   0  0  0  0  0  3  0  0  0  0  0  0
  -21.7230   -6.9240   21.4890 O   0  0  0  0  0  0  0  0  0  0  0  0
  -21.6650   -6.1910   22.6470 C   0  0  0  0  0  0  0  0  0  0  0  0
  -21.2030   -6.7480   23.8600 C   0  0  0  0  0  3  0  0  0  0  0  0
  -21.0940   -5.9400   25.0090 C   0  0  0  0  0  3  0  0  0  0  0  0
  -21.4360   -4.5760   24.9460 C   0  0  0  0  0  0  0  0  0  0  0  0
  -21.8910   -4.0190   23.7380 C   0  0  0  0  0  3  0  0  0  0  0  0
  -22.0010   -4.8240   22.5920 C   0  0  0  0  0  0  0  0  0  0  0  0
  -22.4190   -4.2760   21.4250 F   0  0  0  0  0  0  0  0  0  0  0  0
  -21.3250   -3.7980   26.0480 F   0  0  0  0  0  0  0  0  0  0  0  0
  -22.7930  -13.5610   21.1710 C   0  0  0  0  0  0  0  0  0  0  0  0
  -22.0740  -12.8580   22.0370 N   0  0  0  0  0  0  0  0  0  0  0  0
  -22.3500  -14.5900   20.6610 O   0  0  0  0  0  0  0  0  0  0  0  0
  -22.4450  -12.0260   22.4710 H   0  0  0  0  0  0  0  0  0  0  0  0
  -21.1370  -13.1570   22.2710 H   0  0  0  0  0  0  0  0  0  0  0  0
  -25.3980  -15.2440   20.3340 N   0  0  0  0  0  0  0  0  0  0  0  0
  -24.6240  -15.8910   20.4520 H   0  0  0  0  0  0  0  0  0  0  0  0
  -26.2280  -15.6860   19.9600 H   0  0  0  0  0  0  0  0  0  0  0  0
  -28.5860  -22.7630   20.5810 C   0  0  0  0  0  2  0  0  0  0  0  0
  -28.2610  -24.3550   19.8270 C   0  0  0  0  0  2  0  0  0  0  0  0
  -28.2320  -25.9220   20.3140 O   0  0  0  0  0  0  0  0  0  0  0  0
  -24.6160  -31.8320   23.1940 C   0  0  0  0  0  0  0  0  0  0  0  0
  -27.2040  -26.9870   20.1860 C   0  0  0  0  0  0  0  0  0  0  0  0
  -23.4330  -30.4320   21.5490 C   0  0  0  0  0  3  0  0  0  0  0  0
  -24.8920  -28.8370   20.1290 C   0  0  0  0  0  0  0  0  0  0  0  0
  -25.9960  -30.6580   21.4130 C   0  0  0  0  0  2  0  0  0  0  0  0
  -26.0720  -29.2520   20.7560 C   0  0  0  0  0  0  0  0  0  0  0  0
  -27.2180  -28.3440   20.7660 C   0  0  0  0  0  3  0  0  0  0  0  0
  -25.9980  -26.7180   19.5000 C   0  0  0  0  0  3  0  0  0  0  0  0
  -24.8780  -27.5900   19.4800 C   0  0  0  0  0  3  0  0  0  0  0  0
  -23.6680  -29.7500   20.1730 C   0  0  0  0  0  2  0  0  0  0  0  0
  -24.7020  -31.0010   22.1050 N   0  0  0  0  0  0  0  0  0  0  0  0
  -23.5250  -32.1180   23.7120 O   0  0  0  0  0  0  0  0  0  0  0  0
  -22.7400  -29.4340   22.5130 C   0  0  0  0  0  0  0  0  0  0  0  0
  -21.4080  -29.2750   22.3910 N   0  0  0  0  0  0  0  0  0  0  0  0
  -23.4050  -28.8020   23.3370 O   0  0  0  0  0  0  0  0  0  0  0  0
  -20.9250  -29.8350   21.7030 H   0  0  0  0  0  0  0  0  0  0  0  0
  -18.0210  -28.0890   22.9130 C   0  0  0  0  0  0  0  0  0  0  0  0
  -20.5840  -28.3380   23.1610 C   0  0  0  0  0  3  0  0  0  0  0  0
  -20.6730  -26.9080   22.5760 C   0  0  0  0  0  2  0  0  0  0  0  0
  -19.5610  -26.6010   21.5660 C   0  0  0  0  0  2  0  0  0  0  0  0
  -18.1850  -26.7460   22.2210 C   0  0  0  0  0  2  0  0  0  0  0  0
  -19.1460  -28.8430   23.3400 C   0  0  0  0  0  0  0  0  0  0  0  0
  -18.9360  -30.0980   23.9500 C   0  0  0  0  0  3  0  0  0  0  0  0
  -17.6340  -30.6010   24.1370 C   0  0  0  0  0  3  0  0  0  0  0  0
  -16.5230  -29.8450   23.7230 C   0  0  0  0  0  3  0  0  0  0  0  0
  -16.7180  -28.5900   23.1180 C   0  0  0  0  0  3  0  0  0  0  0  0
  -25.8840  -32.4780   23.8320 C   0  0  0  0  0  3  0  0  0  0  0  0
  -25.5640  -33.8780   24.1570 N   0  0  0  0  0  0  0  0  0  0  0  0
  -25.9020  -34.9370   23.4090 C   0  0  0  0  0  0  0  0  0  0  0  0
  -26.5770  -34.8380   22.3830 O   0  0  0  0  0  0  0  0  0  0  0  0
  -24.9630  -34.0280   24.9540 H   0  0  0  0  0  0  0  0  0  0  0  0
  -24.1790  -36.7410   23.0560 C   0  0  0  0  0  1  0  0  0  0  0  0
  -25.4140  -36.3260   23.8720 C   0  0  0  0  0  3  0  0  0  0  0  0
  -27.5420  -37.2090   24.7240 C   0  0  0  0  0  1  0  0  0  0  0  0
  -26.4500  -37.3790   23.7700 N   0  0  0  0  0  0  0  0  0  0  0  0
  -26.0430  -38.3000   23.9130 H   0  0  0  0  0  0  0  0  0  0  0  0
  -26.3810  -31.7200   25.1250 C   0  0  1  0  0  0  0  0  0  0  0  0
  -25.2730  -31.4960   26.1810 C   0  0  0  0  0  1  0  0  0  0  0  0
  -26.9670  -30.3360   24.7640 C   0  0  0  0  0  1  0  0  0  0  0  0
  -27.5250  -32.5190   25.7940 C   0  0  0  0  0  1  0  0  0  0  0  0
  3  6  1  0
  4  1  1  0
  4  5  1  0
  5 47  1  0
  5  2  1  0
  6 17  1  0
  6  2  1  0
  7  8  1  6
  7  1  1  0
  7  3  1  0
  7  4  1  0
  9 17  1  0
 10 15  1  0
 11 12  1  0
 11 10  1  0
 13 12  1  0
 13 22  1  0
 13 14  1  0
 15  9  1  0
 15 14  1  0
 16  9  2  0
 17 18  1  0
 19 20  2  0
 20 39  1  0
 21 20  1  0
 21 24  1  0
 22 19  1  0
 22 23  1  0
 23 21  2  0
 24 25  1  0
 25 26  2  0
 27 30  1  0
 27 26  1  0
 28 27  2  0
 29 28  1  0
 29 24  2  0
 30 31  1  0
 31 32  1  0
 32 33  2  0
 34 33  1  0
 34 38  1  0
 35 34  2  0
 36 31  2  0
 36 35  1  0
 37 36  1  0
 39 40  1  0
 40 43  1  0
 40 42  1  0
 41 39  2  0
 44 45  1  0
 44 19  1  0
 46 44  1  0
 48 49  1  0
 48 47  1  0
 50 61  2  0
 51 49  1  0
 51 56  1  0
 52 60  1  0
 52 62  1  0
 53 59  1  0
 53 55  1  0
 54 60  1  0
 55 56  2  0
 55 54  1  0
 57 51  2  0
 58 57  1  0
 58 53  2  0
 59 52  1  0
 60 50  1  0
 62 64  2  0
 63 62  1  0
 65 63  1  0
 66 75  2  0
 66 71  1  0
 67 63  1  0
 67 71  1  0
 68 67  1  0
 69 70  1  0
 69 68  1  0
 70 66  1  0
 71 72  2  0
 72 73  1  0
 74 73  2  0
 75 74  1  0
 76 50  1  0
 76 77  1  0
 76 86  1  0
 77 80  1  0
 78 82  1  0
 78 77  1  0
 79 78  2  0
 82 81  1  0
 84 82  1  0
 84 85  1  0
 84 83  1  0
 86 89  1  1
 86 87  1  0
 88 86  1  0
M  ISO  4   9 100  17 100  48 101  49 101
M  END
>  <TORSDO>  (11) 
F 18

>  <SCORE>  (11) 
-15.774

>  <name>  (11) 
10

>  <ligand_id>  (11) 
10

>  <original_smiles>  (11) 
[H]c1c([H])c([H])c2c(c1[H])C([H])([H])C([H])([H])C([H])([H])C2([H])N([H])C(=O)C1([H])N(C(=O)C([H])(N([H])C(=O)C([H])(N([H])C([H])([H])[H])C([H])([H])[H])C(C([H])([H])[H])(C([H])([H])[H])C([H])([H])[H])C([H])([H])c2c([H])c(OC([H])([H])C([H])([H])C3([H])C([H])([H])C([H])(N([H])C(=O)N4C([H])([H])C([H])([H])C([H])([H])C([H])(n5nc(-c6c([H])c([H])c(Oc7c([H])c([H])c(F)c([H])c7F)c([H])c6[H])c(C(=O)N([H])[H])c5N([H])[H])C4([H])[H])C([H])([H])C4(C([H])([H])[H])C([H])([H])C34[H])c([H])c([H])c2C1([H])[H]

>  <smiles>  (11) 
[H]c1c([H])c([H])c2c(c1[H])C([H])([H])C([H])([H])C([H])([H])C2([H])N([H])C(=O)C1([H])N(C(=O)C([H])(N([H])C(=O)C([H])(N([H])C([H])([H])[H])C([H])([H])[H])C(C([H])([H])[H])(C([H])([H])[H])C([H])([H])[H])C([H])([H])c2c([H])c(OC([H])([H])C([H])([H])C3([H])C([H])([H])C([H])(N([H])C(=O)N4C([H])([H])C([H])([H])C([H])([H])C([H])(n5nc(-c6c([H])c([H])c(Oc7c([H])c([H])c(F)c([H])c7F)c([H])c6[H])c(C(=O)N([H])[H])c5N([H])[H])C4([H])[H])C([H])([H])C4(C([H])([H])[H])C([H])([H])C34[H])c([H])c([H])c2C1([H])[H]

$$$$
11:0:0
     RDKit          3D

 95104  0  0  1  0  0  0  0  0999 V2000
  -30.4680  -20.7440   21.7390 C   0  0  0  0  0  2  0  0  0  0  0  0
  -31.4010  -21.0390   20.5700 C   0  0  0  0  0  2  0  0  0  0  0  0
  -28.9200  -18.9210   20.7720 C   0  0  0  0  0  2  0  0  0  0  0  0
  -30.1710  -18.4660   18.6970 C   0  0  0  0  0  2  0  0  0  0  0  0
  -29.1110  -20.5440   21.0650 C   0  0  0  0  0  3  0  0  0  0  0  0
  -30.4780  -21.2480   19.3500 C   0  0  0  0  0  3  0  0  0  0  0  0
  -30.5530  -19.9930   18.3580 C   0  0  0  0  0  3  0  0  0  0  0  0
  -29.1030  -21.7320   19.9470 C   0  0  0  0  0  3  0  0  0  0  0  0
  -30.0390  -17.8980   20.1510 C   0  0  0  0  0  3  0  0  0  0  0  0
  -30.5500  -15.1220   20.0020 C   0  0  0  0  0  0  0  0  0  0  0  0
  -30.3670  -12.7890   19.0090 C   0  0  0  0  0  2  0  0  0  0  0  0
  -29.3670  -12.7780   17.8290 C   0  0  0  0  0  2  0  0  0  0  0  0
  -27.9310  -12.5460   18.3390 C   0  0  0  0  0  2  0  0  0  0  0  0
  -27.5930  -13.4390   19.5610 C   0  0  0  0  0  3  0  0  0  0  0  0
  -28.7120  -13.4260   20.6250 C   0  0  0  0  0  2  0  0  0  0  0  0
  -29.9440  -13.8630   19.9540 N   0  0  0  0  0  0  0  0  0  0  0  0
  -31.7390  -15.1790   19.6690 O   0  0  0  0  0  0  0  0  0  0  0  0
  -29.7840  -16.3140   20.2150 N   0  0  0  0  0  0  0  0  0  0  0  0
  -28.8280  -16.0870   20.4440 H   0  0  0  0  0  0  0  0  0  0  0  0
  -25.2590  -13.9960   20.4450 C   0  0  0  0  0  0  0  0  0  0  0  0
  -24.2180  -13.2110   20.8570 C   0  0  0  0  0  0  0  0  0  0  0  0
  -24.6810  -11.8620   20.7730 C   0  0  0  0  0  0  0  0  0  0  0  0
  -26.2880  -13.1250   20.1290 N   0  0  0  0  0  0  0  0  0  0  0  0
  -25.9540  -11.8340   20.3920 N   0  0  0  0  0  0  0  0  0  0  0  0
  -23.9660  -10.5940   20.9750 C   0  0  0  0  0  0  0  0  0  0  0  0
  -24.4250   -9.6220   21.8920 C   0  0  0  0  0  3  0  0  0  0  0  0
  -23.7080   -8.4220   22.0830 C   0  0  0  0  0  3  0  0  0  0  0  0
  -22.5160   -8.1840   21.3570 C   0  0  0  0  0  0  0  0  0  0  0  0
  -22.0740   -9.1440   20.4280 C   0  0  0  0  0  3  0  0  0  0  0  0
  -22.7930  -10.3360   20.2360 C   0  0  0  0  0  3  0  0  0  0  0  0
  -21.7670   -7.0360   21.4590 O   0  0  0  0  0  0  0  0  0  0  0  0
  -21.7290   -6.3030   22.6180 C   0  0  0  0  0  0  0  0  0  0  0  0
  -21.2590   -6.8510   23.8320 C   0  0  0  0  0  3  0  0  0  0  0  0
  -21.1720   -6.0420   24.9820 C   0  0  0  0  0  3  0  0  0  0  0  0
  -21.5410   -4.6860   24.9190 C   0  0  0  0  0  0  0  0  0  0  0  0
  -22.0030   -4.1360   23.7100 C   0  0  0  0  0  3  0  0  0  0  0  0
  -22.0930   -4.9430   22.5620 C   0  0  0  0  0  0  0  0  0  0  0  0
  -22.5190   -4.4030   21.3940 F   0  0  0  0  0  0  0  0  0  0  0  0
  -21.4480   -3.9060   26.0210 F   0  0  0  0  0  0  0  0  0  0  0  0
  -22.8370  -13.6800   21.2100 C   0  0  0  0  0  0  0  0  0  0  0  0
  -22.1530  -12.9640   22.0960 N   0  0  0  0  0  0  0  0  0  0  0  0
  -22.3750  -14.7170   20.7380 O   0  0  0  0  0  0  0  0  0  0  0  0
  -22.5400  -12.1230   22.5000 H   0  0  0  0  0  0  0  0  0  0  0  0
  -21.2290  -13.2600   22.3760 H   0  0  0  0  0  0  0  0  0  0  0  0
  -25.4070  -15.3700   20.2850 N   0  0  0  0  0  0  0  0  0  0  0  0
  -24.6340  -16.0110   20.4310 H   0  0  0  0  0  0  0  0  0  0  0  0
  -26.2220  -15.8190   19.8890 H   0  0  0  0  0  0  0  0  0  0  0  0
  -29.1000  -23.3920   20.4140 C   0  0  0  0  0  3  0  0  0  0  0  0
  -28.1670  -24.7110   19.8710 C   0  0  0  0  0  3  0  0  0  0  0  0
  -28.3270  -26.2360   20.2260 O   0  0  0  0  0  0  0  0  0  0  0  0
  -24.6260  -31.8950   23.2240 C   0  0  0  0  0  0  0  0  0  0  0  0
  -27.2610  -27.2160   20.1490 C   0  0  0  0  0  0  0  0  0  0  0  0
  -23.4460  -30.5050   21.5650 C   0  0  0  0  0  3  0  0  0  0  0  0
  -24.9160  -28.9540   20.1270 C   0  0  0  0  0  0  0  0  0  0  0  0
  -25.9980  -30.7860   21.4180 C   0  0  0  0  0  2  0  0  0  0  0  0
  -26.0870  -29.3980   20.7500 C   0  0  0  0  0  0  0  0  0  0  0  0
  -27.2590  -28.5470   20.7430 C   0  0  0  0  0  3  0  0  0  0  0  0
  -26.0610  -26.8790   19.4830 C   0  0  0  0  0  3  0  0  0  0  0  0
  -24.9150  -27.7080   19.4780 C   0  0  0  0  0  3  0  0  0  0  0  0
  -23.6810  -29.8410   20.1810 C   0  0  0  0  0  2  0  0  0  0  0  0
  -24.7090  -31.0830   22.1250 N   0  0  0  0  0  0  0  0  0  0  0  0
  -23.5370  -32.1660   23.7500 O   0  0  0  0  0  0  0  0  0  0  0  0
  -22.7700  -29.4840   22.5160 C   0  0  0  0  0  0  0  0  0  0  0  0
  -21.4430  -29.3100   22.3850 N   0  0  0  0  0  0  0  0  0  0  0  0
  -23.4430  -28.8560   23.3370 O   0  0  0  0  0  0  0  0  0  0  0  0
  -20.9540  -29.8710   21.7000 H   0  0  0  0  0  0  0  0  0  0  0  0
  -18.0660  -28.0920   22.8860 C   0  0  0  0  0  0  0  0  0  0  0  0
  -20.6250  -28.3590   23.1430 C   0  0  0  0  0  3  0  0  0  0  0  0
  -20.7280  -26.9370   22.5460 C   0  0  0  0  0  2  0  0  0  0  0  0
  -19.6230  -26.6250   21.5320 C   0  0  0  0  0  2  0  0  0  0  0  0
  -18.2430  -26.7560   22.1850 C   0  0  0  0  0  2  0  0  0  0  0  0
  -19.1850  -28.8510   23.3220 C   0  0  0  0  0  0  0  0  0  0  0  0
  -18.9650  -30.1010   23.9390 C   0  0  0  0  0  3  0  0  0  0  0  0
  -17.6600  -30.5950   24.1220 C   0  0  0  0  0  3  0  0  0  0  0  0
  -16.5550  -29.8320   23.7020 C   0  0  0  0  0  3  0  0  0  0  0  0
  -16.7600  -28.5830   23.0890 C   0  0  0  0  0  3  0  0  0  0  0  0
  -25.8980  -32.5370   23.8600 C   0  0  0  0  0  3  0  0  0  0  0  0
  -26.4070  -31.7680   25.1420 C   0  0  1  0  0  0  0  0  0  0  0  0
  -25.3020  -31.5150   26.1940 C   0  0  0  0  0  1  0  0  0  0  0  0
  -27.0090  -30.3950   24.7610 C   0  0  0  0  0  1  0  0  0  0  0  0
  -27.5380  -32.5740   25.8230 C   0  0  0  0  0  1  0  0  0  0  0  0
  -25.5730  -33.9330   24.1960 N   0  0  0  0  0  0  0  0  0  0  0  0
  -25.8810  -34.9940   23.4390 C   0  0  0  0  0  0  0  0  0  0  0  0
  -26.5310  -34.9020   22.3940 O   0  0  0  0  0  0  0  0  0  0  0  0
  -24.9900  -34.0760   25.0080 H   0  0  0  0  0  0  0  0  0  0  0  0
  -24.1190  -36.7670   23.1440 C   0  0  0  0  0  1  0  0  0  0  0  0
  -25.3890  -36.3750   23.9150 C   0  0  0  0  0  3  0  0  0  0  0  0
  -27.5280  -37.2970   24.7000 C   0  0  0  0  0  1  0  0  0  0  0  0
  -26.4040  -37.4410   23.7780 N   0  0  0  0  0  0  0  0  0  0  0  0
  -25.9860  -38.3550   23.9320 H   0  0  0  0  0  0  0  0  0  0  0  0
  -29.9460  -20.3950   16.9850 C   0  0  0  0  0  2  0  0  0  0  0  0
  -30.5940  -19.7120   15.8480 N   0  0  0  0  0  4  0  0  0  0  0  0
  -31.5820  -19.8930   15.8340 H   0  0  0  0  0  0  0  0  0  0  0  0
  -30.2120  -20.0530   14.9860 H   0  0  0  0  0  0  0  0  0  0  0  0
  -30.4460  -18.7200   15.8810 H   0  0  0  0  0  0  0  0  0  0  0  0
  2  1  1  0
  4  9  1  0
  5  3  1  0
  5  1  1  0
  6  8  1  0
  6  2  1  0
  7 91  1  0
  7  4  1  0
  7  6  1  0
  8 48  1  0
  8  5  1  0
  9 18  1  0
  9  3  1  0
 10 18  1  0
 11 16  1  0
 12 13  1  0
 12 11  1  0
 14 13  1  0
 14 23  1  0
 14 15  1  0
 16 10  1  0
 16 15  1  0
 17 10  2  0
 18 19  1  0
 20 21  2  0
 21 40  1  0
 22 21  1  0
 22 25  1  0
 23 24  1  0
 23 20  1  0
 24 22  2  0
 25 26  1  0
 26 27  2  0
 28 31  1  0
 28 27  1  0
 29 28  2  0
 30 29  1  0
 30 25  2  0
 31 32  1  0
 32 33  1  0
 33 34  2  0
 35 34  1  0
 35 39  1  0
 36 35  2  0
 37 32  2  0
 37 36  1  0
 38 37  1  0
 40 41  1  0
 41 44  1  0
 41 43  1  0
 42 40  2  0
 45 46  1  0
 45 20  1  0
 47 45  1  0
 49 50  1  0
 49 48  2  0
 51 62  2  0
 52 50  1  0
 52 57  1  0
 53 61  1  0
 53 63  1  0
 54 60  1  0
 54 56  1  0
 55 61  1  0
 56 55  1  0
 57 56  2  0
 58 52  2  0
 59 58  1  0
 59 54  2  0
 60 53  1  0
 61 51  1  0
 63 65  2  0
 64 63  1  0
 66 64  1  0
 67 76  2  0
 67 72  1  0
 68 64  1  0
 68 72  1  0
 69 68  1  0
 70 71  1  0
 70 69  1  0
 71 67  1  0
 72 73  2  0
 73 74  1  0
 75 74  2  0
 76 75  1  0
 77 51  1  0
 77 82  1  0
 77 78  1  0
 78 81  1  1
 78 79  1  0
 80 78  1  0
 82 85  1  0
 83 87  1  0
 83 82  1  0
 84 83  2  0
 87 86  1  0
 89 87  1  0
 89 90  1  0
 89 88  1  0
 92 95  1  0
 92 91  1  0
 93 92  1  0
 94 92  1  0
M  ISO  4  10 100  18 100  49 101  50 101
M  END
>  <TORSDO>  (12) 
F 20

>  <SCORE>  (12) 
-15.048

>  <name>  (12) 
11

>  <ligand_id>  (12) 
11

>  <original_smiles>  (12) 
[H]c1c([H])c([H])c2c(c1[H])C([H])([H])C([H])([H])C([H])([H])C2([H])N([H])C(=O)C1([H])N(C(=O)C([H])(N([H])C(=O)C([H])(N([H])C([H])([H])[H])C([H])([H])[H])C(C([H])([H])[H])(C([H])([H])[H])C([H])([H])[H])C([H])([H])c2c([H])c(OC([H])([H])C([H])([H])C3([H])C4([H])C([H])([H])C([H])([H])C3([H])C([H])(C([H])([H])[N+]([H])([H])[H])C([H])([H])C([H])(N([H])C(=O)N3C([H])([H])C([H])([H])C([H])([H])C([H])(n5nc(-c6c([H])c([H])c(Oc7c([H])c([H])c(F)c([H])c7F)c([H])c6[H])c(C(=O)N([H])[H])c5N([H])[H])C3([H])[H])C4([H])[H])c([H])c([H])c2C1([H])[H]

>  <smiles>  (12) 
[H]c1c([H])c([H])c2c(c1[H])C([H])([H])C([H])([H])C([H])([H])C2([H])N([H])C(=O)C1([H])N(C(=O)C([H])(N([H])C(=O)C([H])(N([H])C([H])([H])[H])C([H])([H])[H])C(C([H])([H])[H])(C([H])([H])[H])C([H])([H])[H])C([H])([H])c2c([H])c(OC([H])([H])C([H])([H])C3([H])C4([H])C([H])([H])C([H])([H])C3([H])C([H])(C([H])([H])[N+]([H])([H])[H])C([H])([H])C([H])(N([H])C(=O)N3C([H])([H])C([H])([H])C([H])([H])C([H])(n5nc(-c6c([H])c([H])c(Oc7c([H])c([H])c(F)c([H])c7F)c([H])c6[H])c(C(=O)N([H])[H])c5N([H])[H])C3([H])[H])C4([H])[H])c([H])c([H])c2C1([H])[H]

$$$$
12:0:0
     RDKit          3D

101110  0  0  1  0  0  0  0  0999 V2000
  -29.0740  -22.8590   22.0510 C   0  0  0  0  0  2  0  0  0  0  0  0
  -29.0640  -21.5040   21.3120 C   0  0  0  0  0  2  0  0  0  0  0  0
  -29.6850  -23.9950   19.8640 C   0  0  0  0  0  2  0  0  0  0  0  0
  -28.7970  -24.0750   21.1240 C   0  0  0  0  0  3  0  0  0  0  0  0
  -30.0360  -21.5140   20.1070 C   0  0  0  0  0  3  0  0  0  0  0  0
  -29.5560  -22.6340   19.1390 C   0  0  0  0  0  3  0  0  0  0  0  0
  -30.2850  -20.1080   19.4750 C   0  0  0  0  0  2  0  0  0  0  0  0
  -31.6240  -17.9170   22.4100 C   0  0  0  0  0  3  0  0  0  0  0  0
  -30.0990  -17.6470   20.0790 C   0  0  0  0  0  3  0  0  0  0  0  0
  -31.4220  -19.0400   21.5790 C   0  0  0  0  0  0  0  0  0  0  0  0
  -31.0780  -16.6620   22.0900 C   0  0  0  0  0  0  0  0  0  0  0  0
  -30.6030  -18.9290   20.4170 C   0  0  0  0  0  0  0  0  0  0  0  0
  -30.3510  -16.5140   20.8910 C   0  0  0  0  0  0  0  0  0  0  0  0
  -32.1240  -20.3250   21.9820 C   0  0  0  0  0  1  0  0  0  0  0  0
  -31.3100  -15.4850   23.0220 C   0  0  0  0  0  1  0  0  0  0  0  0
  -30.2940  -14.4110   19.6040 C   0  0  0  0  0  0  0  0  0  0  0  0
  -29.8950  -12.2720   18.4330 C   0  0  0  0  0  2  0  0  0  0  0  0
  -28.7930  -12.4600   17.3750 C   0  0  0  0  0  2  0  0  0  0  0  0
  -27.3980  -12.2690   18.0020 C   0  0  0  0  0  2  0  0  0  0  0  0
  -27.2100  -13.0860   19.3080 C   0  0  0  0  0  3  0  0  0  0  0  0
  -28.4070  -12.8710   20.2570 C   0  0  0  0  0  2  0  0  0  0  0  0
  -29.6410  -13.2200   19.5290 N   0  0  0  0  0  0  0  0  0  0  0  0
  -31.2290  -14.7180   18.8570 O   0  0  0  0  0  0  0  0  0  0  0  0
  -29.8340  -15.2380   20.5560 N   0  0  0  0  0  0  0  0  0  0  0  0
  -29.1590  -14.8350   21.1880 H   0  0  0  0  0  0  0  0  0  0  0  0
  -24.9130  -13.6190   20.3540 C   0  0  0  0  0  0  0  0  0  0  0  0
  -23.9240  -12.8110   20.8520 C   0  0  0  0  0  0  0  0  0  0  0  0
  -24.4080  -11.4740   20.7250 C   0  0  0  0  0  0  0  0  0  0  0  0
  -25.9370  -12.7700   19.9600 N   0  0  0  0  0  0  0  0  0  0  0  0
  -25.6410  -11.4730   20.2340 N   0  0  0  0  0  0  0  0  0  0  0  0
  -23.7450  -10.1910   20.9910 C   0  0  0  0  0  0  0  0  0  0  0  0
  -24.2630   -9.2690   21.9300 C   0  0  0  0  0  3  0  0  0  0  0  0
  -23.5980   -8.0500   22.1770 C   0  0  0  0  0  3  0  0  0  0  0  0
  -22.4000   -7.7430   21.4900 C   0  0  0  0  0  0  0  0  0  0  0  0
  -21.9000   -8.6530   20.5420 C   0  0  0  0  0  3  0  0  0  0  0  0
  -22.5660   -9.8630   20.2930 C   0  0  0  0  0  3  0  0  0  0  0  0
  -21.6980   -6.5710   21.6510 O   0  0  0  0  0  0  0  0  0  0  0  0
  -21.6650   -5.9100   22.8530 C   0  0  0  0  0  0  0  0  0  0  0  0
  -21.1920   -6.5280   24.0320 C   0  0  0  0  0  3  0  0  0  0  0  0
  -21.1100   -5.7880   25.2280 C   0  0  0  0  0  3  0  0  0  0  0  0
  -21.4910   -4.4340   25.2480 C   0  0  0  0  0  0  0  0  0  0  0  0
  -21.9590   -3.8150   24.0740 C   0  0  0  0  0  3  0  0  0  0  0  0
  -22.0420   -4.5520   22.8800 C   0  0  0  0  0  0  0  0  0  0  0  0
  -22.4710   -3.9460   21.7470 F   0  0  0  0  0  0  0  0  0  0  0  0
  -21.4060   -3.7220   26.3950 F   0  0  0  0  0  0  0  0  0  0  0  0
  -22.5720  -13.2490   21.3340 C   0  0  0  0  0  0  0  0  0  0  0  0
  -21.9960  -12.5300   22.2930 N   0  0  0  0  0  0  0  0  0  0  0  0
  -22.0350  -14.2660   20.9000 O   0  0  0  0  0  0  0  0  0  0  0  0
  -22.4410  -11.7100   22.6770 H   0  0  0  0  0  0  0  0  0  0  0  0
  -21.0970  -12.8130   22.6540 H   0  0  0  0  0  0  0  0  0  0  0  0
  -25.0160  -14.9960   20.1880 N   0  0  0  0  0  0  0  0  0  0  0  0
  -24.2470  -15.6290   20.3840 H   0  0  0  0  0  0  0  0  0  0  0  0
  -25.8260  -15.4690   19.8030 H   0  0  0  0  0  0  0  0  0  0  0  0
  -28.9700  -25.4090   21.9000 C   0  0  0  0  0  2  0  0  0  0  0  0
  -29.1700  -26.6970   21.0610 C   0  0  0  0  0  2  0  0  0  0  0  0
  -28.2780  -26.7870   19.9430 O   0  0  0  0  0  0  0  0  0  0  0  0
  -24.5540  -31.9250   23.2420 C   0  0  0  0  0  0  0  0  0  0  0  0
  -27.1440  -27.5660   20.0430 C   0  0  0  0  0  0  0  0  0  0  0  0
  -23.3050  -30.5490   21.6030 C   0  0  0  0  0  3  0  0  0  0  0  0
  -24.7340  -29.0500   20.1110 C   0  0  0  0  0  0  0  0  0  0  0  0
  -25.8140  -30.9420   21.3320 C   0  0  0  0  0  2  0  0  0  0  0  0
  -25.8980  -29.5760   20.6860 C   0  0  0  0  0  0  0  0  0  0  0  0
  -27.1060  -28.8430   20.6540 C   0  0  0  0  0  3  0  0  0  0  0  0
  -25.9700  -27.0660   19.4410 C   0  0  0  0  0  3  0  0  0  0  0  0
  -24.7670  -27.7960   19.4780 C   0  0  0  0  0  3  0  0  0  0  0  0
  -23.4780  -29.8880   20.2060 C   0  0  0  0  0  2  0  0  0  0  0  0
  -24.5780  -31.1520   22.1200 N   0  0  0  0  0  0  0  0  0  0  0  0
  -23.4890  -32.1790   23.8210 O   0  0  0  0  0  0  0  0  0  0  0  0
  -22.6890  -29.5080   22.5630 C   0  0  0  0  0  0  0  0  0  0  0  0
  -21.3780  -29.2610   22.4140 N   0  0  0  0  0  0  0  0  0  0  0  0
  -23.3880  -28.9260   23.3980 O   0  0  0  0  0  0  0  0  0  0  0  0
  -20.8780  -29.7820   21.7070 H   0  0  0  0  0  0  0  0  0  0  0  0
  -18.0780  -27.8410   22.7780 C   0  0  0  0  0  0  0  0  0  0  0  0
  -20.5920  -28.2910   23.1750 C   0  0  0  0  0  3  0  0  0  0  0  0
  -20.8270  -26.8540   22.6570 C   0  0  0  0  0  2  0  0  0  0  0  0
  -19.8080  -26.4210   21.5980 C   0  0  0  0  0  2  0  0  0  0  0  0
  -18.3870  -26.4860   22.1640 C   0  0  0  0  0  2  0  0  0  0  0  0
  -19.1150  -28.6950   23.2390 C   0  0  0  0  0  0  0  0  0  0  0  0
  -18.7770  -29.9590   23.7680 C   0  0  0  0  0  3  0  0  0  0  0  0
  -17.4330  -30.3700   23.8480 C   0  0  0  0  0  3  0  0  0  0  0  0
  -16.4090  -29.5140   23.4080 C   0  0  0  0  0  3  0  0  0  0  0  0
  -16.7330  -28.2510   22.8780 C   0  0  0  0  0  3  0  0  0  0  0  0
  -25.8560  -32.5470   23.8370 C   0  0  0  0  0  3  0  0  0  0  0  0
  -25.5640  -33.9450   24.1730 N   0  0  0  0  0  0  0  0  0  0  0  0
  -25.8970  -34.9960   23.4110 C   0  0  0  0  0  0  0  0  0  0  0  0
  -26.5550  -34.8890   22.3730 O   0  0  0  0  0  0  0  0  0  0  0  0
  -24.9750  -34.1020   24.9770 H   0  0  0  0  0  0  0  0  0  0  0  0
  -24.1810  -36.8030   23.0700 C   0  0  0  0  0  1  0  0  0  0  0  0
  -25.4220  -36.3850   23.8750 C   0  0  0  0  0  3  0  0  0  0  0  0
  -27.5690  -37.2490   24.6940 C   0  0  0  0  0  1  0  0  0  0  0  0
  -26.4590  -37.4330   23.7640 N   0  0  0  0  0  0  0  0  0  0  0  0
  -26.0590  -38.3520   23.9280 H   0  0  0  0  0  0  0  0  0  0  0  0
  -26.3940  -31.7660   25.1000 C   0  0  1  0  0  0  0  0  0  0  0  0
  -25.3110  -31.5030   26.1710 C   0  0  0  0  0  1  0  0  0  0  0  0
  -26.9930  -30.4020   24.6820 C   0  0  0  0  0  1  0  0  0  0  0  0
  -27.5320  -32.5720   25.7680 C   0  0  0  0  0  1  0  0  0  0  0  0
  -30.1790  -22.6730   17.7190 C   0  0  0  0  0  2  0  0  0  0  0  0
  -31.6410  -22.8600   17.7010 N   0  0  0  0  0  4  0  0  0  0  0  0
  -31.9050  -23.7080   18.1680 H   0  0  0  0  0  0  0  0  0  0  0  0
  -31.9520  -22.9290   16.7470 H   0  0  0  0  0  0  0  0  0  0  0  0
  -32.1190  -22.0870   18.1240 H   0  0  0  0  0  0  0  0  0  0  0  0
  2  1  1  0
  3  4  1  0
  4 54  1  0
  4  1  1  0
  5  7  1  0
  5  2  1  0
  6 97  1  0
  6  3  1  0
  6  5  1  0
  7 12  1  0
  9 12  2  0
  9 13  1  0
 10 14  1  0
 10  8  2  0
 11  8  1  0
 11 15  1  0
 12 10  1  0
 13 11  2  0
 16 24  1  0
 17 22  1  0
 18 19  1  0
 18 17  1  0
 20 19  1  0
 20 29  1  0
 20 21  1  0
 22 16  1  0
 22 21  1  0
 23 16  2  0
 24 13  1  0
 24 25  1  0
 26 27  2  0
 27 46  1  0
 28 27  1  0
 28 31  1  0
 29 30  1  0
 29 26  1  0
 30 28  2  0
 31 32  1  0
 32 33  2  0
 34 37  1  0
 34 33  1  0
 35 34  2  0
 36 35  1  0
 36 31  2  0
 37 38  1  0
 38 43  2  0
 38 39  1  0
 39 40  2  0
 40 41  1  0
 41 45  1  0
 42 41  2  0
 43 42  1  0
 44 43  1  0
 46 47  1  0
 47 50  1  0
 47 49  1  0
 48 46  2  0
 51 26  1  0
 51 52  1  0
 53 51  1  0
 55 54  1  0
 56 58  1  0
 56 55  1  0
 57 68  2  0
 58 63  1  0
 59 67  1  0
 59 69  1  0
 60 66  1  0
 60 62  1  0
 61 67  1  0
 62 61  1  0
 63 62  2  0
 64 65  1  0
 64 58  2  0
 65 60  2  0
 66 59  1  0
 67 57  1  0
 69 71  2  0
 70 69  1  0
 72 70  1  0
 73 82  2  0
 73 78  1  0
 74 70  1  0
 74 78  1  0
 75 74  1  0
 76 77  1  0
 76 75  1  0
 77 73  1  0
 78 79  2  0
 79 80  1  0
 81 80  2  0
 82 81  1  0
 83 57  1  0
 83 84  1  0
 83 93  1  0
 84 87  1  0
 85 89  1  0
 85 84  1  0
 86 85  2  0
 89 88  1  0
 91 89  1  0
 91 92  1  0
 91 90  1  0
 93 96  1  1
 93 94  1  0
 95 93  1  0
 98 97  1  0
 98101  1  0
 98 99  1  0
100 98  1  0
M  ISO  4  16 100  24 100  55 101  56 101
M  END
>  <TORSDO>  (13) 
F 22

>  <SCORE>  (13) 
-10.586

>  <name>  (13) 
12

>  <ligand_id>  (13) 
12

>  <original_smiles>  (13) 
[H]c1c([H])c([H])c2c(c1[H])C([H])([H])C([H])([H])C([H])([H])C2([H])N([H])C(=O)C1([H])N(C(=O)C([H])(N([H])C(=O)C([H])(N([H])C([H])([H])[H])C([H])([H])[H])C(C([H])([H])[H])(C([H])([H])[H])C([H])([H])[H])C([H])([H])c2c([H])c(OC([H])([H])C([H])([H])C3([H])C([H])([H])C([H])([H])C([H])(C([H])([H])c4c([H])c(N([H])C(=O)N5C([H])([H])C([H])([H])C([H])([H])C([H])(n6nc(-c7c([H])c([H])c(Oc8c([H])c([H])c(F)c([H])c8F)c([H])c7[H])c(C(=O)N([H])[H])c6N([H])[H])C5([H])[H])c(C([H])([H])[H])c([H])c4C([H])([H])[H])C([H])(C([H])([H])[N+]([H])([H])[H])C3([H])[H])c([H])c([H])c2C1([H])[H]

>  <smiles>  (13) 
[H]c1c([H])c([H])c2c(c1[H])C([H])([H])C([H])([H])C([H])([H])C2([H])N([H])C(=O)C1([H])N(C(=O)C([H])(N([H])C(=O)C([H])(N([H])C([H])([H])[H])C([H])([H])[H])C(C([H])([H])[H])(C([H])([H])[H])C([H])([H])[H])C([H])([H])c2c([H])c(OC([H])([H])C([H])([H])C3([H])C([H])([H])C([H])([H])C([H])(C([H])([H])c4c([H])c(N([H])C(=O)N5C([H])([H])C([H])([H])C([H])([H])C([H])(n6nc(-c7c([H])c([H])c(Oc8c([H])c([H])c(F)c([H])c8F)c([H])c7[H])c(C(=O)N([H])[H])c6N([H])[H])C5([H])[H])c(C([H])([H])[H])c([H])c4C([H])([H])[H])C([H])(C([H])([H])[N+]([H])([H])[H])C3([H])[H])c([H])c([H])c2C1([H])[H]

$$$$
13:0:0
     RDKit          3D

 92102  0  0  1  0  0  0  0  0999 V2000
  -32.6200  -19.4020   17.6420 C   0  0  0  0  0  2  0  0  0  0  0  0
  -32.2190  -20.2640   18.8160 C   0  0  0  0  0  2  0  0  0  0  0  0
  -28.6710  -21.1900   18.8110 C   0  0  0  0  0  2  0  0  0  0  0  0
  -29.4520  -20.5080   20.9290 C   0  0  0  0  0  2  0  0  0  0  0  0
  -30.0100  -19.2430   17.7760 C   0  0  0  0  0  2  0  0  0  0  0  0
  -31.3530  -17.8060   19.2700 C   0  0  0  0  0  2  0  0  0  0  0  0
  -28.9070  -19.6200   18.7870 C   0  0  0  0  0  3  0  0  0  0  0  0
  -29.1830  -19.0540   20.2220 C   0  0  0  0  0  3  0  0  0  0  0  0
  -28.6130  -21.7390   20.2520 C   0  0  0  0  0  3  0  0  0  0  0  0
  -30.2200  -17.7110   20.3340 C   0  0  0  0  0  3  0  0  0  0  0  0
  -31.3700  -19.0710   18.4300 C   0  0  1  0  0  0  0  0  0  0  0  0
  -30.5100  -14.9670   20.3900 C   0  0  0  0  0  0  0  0  0  0  0  0
  -30.3420  -12.6210   19.4590 C   0  0  0  0  0  2  0  0  0  0  0  0
  -29.4200  -12.5890   18.2210 C   0  0  0  0  0  2  0  0  0  0  0  0
  -27.9530  -12.3910   18.6490 C   0  0  0  0  0  2  0  0  0  0  0  0
  -27.5470  -13.3190   19.8260 C   0  0  0  0  0  3  0  0  0  0  0  0
  -28.6000  -13.3370   20.9540 C   0  0  0  0  0  2  0  0  0  0  0  0
  -29.8750  -13.7290   20.3400 N   0  0  0  0  0  0  0  0  0  0  0  0
  -31.7220  -14.9750   20.1590 O   0  0  0  0  0  0  0  0  0  0  0  0
  -29.7800  -16.1900   20.4720 N   0  0  0  0  0  0  0  0  0  0  0  0
  -28.7900  -16.0590   20.6210 H   0  0  0  0  0  0  0  0  0  0  0  0
  -25.1650  -13.8970   20.5600 C   0  0  0  0  0  0  0  0  0  0  0  0
  -24.0990  -13.1230   20.9270 C   0  0  0  0  0  0  0  0  0  0  0  0
  -24.5630  -11.7710   20.8970 C   0  0  0  0  0  0  0  0  0  0  0  0
  -26.2080  -13.0190   20.3230 N   0  0  0  0  0  0  0  0  0  0  0  0
  -25.8560  -11.7350   20.5920 N   0  0  0  0  0  0  0  0  0  0  0  0
  -23.8330  -10.5100   21.0840 C   0  0  0  0  0  0  0  0  0  0  0  0
  -24.2670   -9.5330   22.0070 C   0  0  0  0  0  3  0  0  0  0  0  0
  -23.5370   -8.3380   22.1820 C   0  0  0  0  0  3  0  0  0  0  0  0
  -22.3570   -8.1110   21.4330 C   0  0  0  0  0  0  0  0  0  0  0  0
  -21.9420   -9.0770   20.4990 C   0  0  0  0  0  3  0  0  0  0  0  0
  -22.6740  -10.2630   20.3220 C   0  0  0  0  0  3  0  0  0  0  0  0
  -21.5970   -6.9710   21.5190 O   0  0  0  0  0  0  0  0  0  0  0  0
  -21.5620   -6.2120   22.6620 C   0  0  0  0  0  0  0  0  0  0  0  0
  -21.1510   -6.7510   23.9010 C   0  0  0  0  0  3  0  0  0  0  0  0
  -21.0630   -5.9190   25.0350 C   0  0  0  0  0  3  0  0  0  0  0  0
  -21.3770   -4.5500   24.9320 C   0  0  0  0  0  0  0  0  0  0  0  0
  -21.7800   -4.0120   23.6980 C   0  0  0  0  0  3  0  0  0  0  0  0
  -21.8690   -4.8410   22.5660 C   0  0  0  0  0  0  0  0  0  0  0  0
  -22.2380   -4.3110   21.3740 F   0  0  0  0  0  0  0  0  0  0  0  0
  -21.2850   -3.7500   26.0190 F   0  0  0  0  0  0  0  0  0  0  0  0
  -22.7020  -13.6020   21.1900 C   0  0  0  0  0  0  0  0  0  0  0  0
  -21.9670  -12.9070   22.0520 N   0  0  0  0  0  0  0  0  0  0  0  0
  -22.2690  -14.6280   20.6660 O   0  0  0  0  0  0  0  0  0  0  0  0
  -22.3290  -12.0780   22.4980 H   0  0  0  0  0  0  0  0  0  0  0  0
  -21.0280  -13.2110   22.2700 H   0  0  0  0  0  0  0  0  0  0  0  0
  -25.3290  -15.2680   20.3820 N   0  0  0  0  0  0  0  0  0  0  0  0
  -24.5550  -15.9170   20.4890 H   0  0  0  0  0  0  0  0  0  0  0  0
  -26.1660  -15.7070   20.0220 H   0  0  0  0  0  0  0  0  0  0  0  0
  -28.9500  -23.3870   20.4480 C   0  0  0  0  0  3  0  0  0  0  0  0
  -27.9640  -24.6900   20.0390 C   0  0  0  0  0  3  0  0  0  0  0  0
  -28.2320  -26.2100   20.2590 O   0  0  0  0  0  0  0  0  0  0  0  0
  -24.6340  -31.8860   23.2690 C   0  0  0  0  0  0  0  0  0  0  0  0
  -27.1790  -27.1920   20.1920 C   0  0  0  0  0  0  0  0  0  0  0  0
  -23.4180  -30.5030   21.6300 C   0  0  0  0  0  3  0  0  0  0  0  0
  -24.8530  -28.9350   20.1850 C   0  0  0  0  0  0  0  0  0  0  0  0
  -25.9710  -30.7650   21.4480 C   0  0  0  0  0  2  0  0  0  0  0  0
  -26.0370  -29.3790   20.7860 C   0  0  0  0  0  0  0  0  0  0  0  0
  -27.2010  -28.5220   20.7740 C   0  0  0  0  0  3  0  0  0  0  0  0
  -25.9680  -26.8490   19.5480 C   0  0  0  0  0  3  0  0  0  0  0  0
  -24.8310  -27.6840   19.5500 C   0  0  0  0  0  3  0  0  0  0  0  0
  -23.6270  -29.8340   20.2470 C   0  0  0  0  0  2  0  0  0  0  0  0
  -24.6950  -31.0730   22.1700 N   0  0  0  0  0  0  0  0  0  0  0  0
  -23.5530  -32.1700   23.8070 O   0  0  0  0  0  0  0  0  0  0  0  0
  -22.7450  -29.4910   22.5910 C   0  0  0  0  0  0  0  0  0  0  0  0
  -21.4180  -29.3170   22.4670 N   0  0  0  0  0  0  0  0  0  0  0  0
  -23.4200  -28.8650   23.4120 O   0  0  0  0  0  0  0  0  0  0  0  0
  -20.9290  -29.8750   21.7810 H   0  0  0  0  0  0  0  0  0  0  0  0
  -18.0420  -28.0980   22.9620 C   0  0  0  0  0  0  0  0  0  0  0  0
  -20.5990  -28.3770   23.2380 C   0  0  0  0  0  3  0  0  0  0  0  0
  -20.7120  -26.9440   22.6690 C   0  0  0  0  0  2  0  0  0  0  0  0
  -19.6150  -26.6110   21.6520 C   0  0  0  0  0  2  0  0  0  0  0  0
  -18.2300  -26.7480   22.2900 C   0  0  0  0  0  2  0  0  0  0  0  0
  -19.1550  -28.8690   23.3930 C   0  0  0  0  0  0  0  0  0  0  0  0
  -18.9240  -30.1310   23.9840 C   0  0  0  0  0  3  0  0  0  0  0  0
  -17.6150  -30.6220   24.1470 C   0  0  0  0  0  3  0  0  0  0  0  0
  -16.5180  -29.8490   23.7310 C   0  0  0  0  0  3  0  0  0  0  0  0
  -16.7320  -28.5880   23.1440 C   0  0  0  0  0  3  0  0  0  0  0  0
  -25.9190  -32.5140   23.8900 C   0  0  0  0  0  3  0  0  0  0  0  0
  -25.6150  -33.9140   24.2260 N   0  0  0  0  0  0  0  0  0  0  0  0
  -25.9280  -34.9700   23.4620 C   0  0  0  0  0  0  0  0  0  0  0  0
  -26.5690  -34.8670   22.4130 O   0  0  0  0  0  0  0  0  0  0  0  0
  -25.0400  -34.0680   25.0410 H   0  0  0  0  0  0  0  0  0  0  0  0
  -24.1800  -36.7590   23.1740 C   0  0  0  0  0  1  0  0  0  0  0  0
  -25.4560  -36.3590   23.9350 C   0  0  0  0  0  3  0  0  0  0  0  0
  -27.6180  -37.2570   24.6770 C   0  0  0  0  0  1  0  0  0  0  0  0
  -26.4790  -37.4150   23.7760 N   0  0  0  0  0  0  0  0  0  0  0  0
  -26.0750  -38.3340   23.9330 H   0  0  0  0  0  0  0  0  0  0  0  0
  -26.4300  -31.7420   25.1690 C   0  0  1  0  0  0  0  0  0  0  0  0
  -25.3370  -31.5150   26.2380 C   0  0  0  0  0  1  0  0  0  0  0  0
  -27.0040  -30.3590   24.7830 C   0  0  0  0  0  1  0  0  0  0  0  0
  -27.5870  -32.5310   25.8280 C   0  0  0  0  0  1  0  0  0  0  0  0
 11  1  1  6
  1  2  1  0
  3  9  1  0
  5 11  1  0
  6 10  1  0
  7  5  1  0
  7  3  1  0
  7  8  1  0
  8 10  1  0
  8  4  1  0
  9 50  1  0
  9  4  1  0
 10 20  1  0
 11  2  1  0
 11  6  1  0
 12 20  1  0
 13 18  1  0
 14 15  1  0
 14 13  1  0
 16 15  1  0
 16 25  1  0
 16 17  1  0
 18 12  1  0
 18 17  1  0
 19 12  2  0
 20 21  1  0
 22 23  2  0
 23 42  1  0
 24 23  1  0
 24 27  1  0
 25 22  1  0
 25 26  1  0
 26 24  2  0
 27 28  1  0
 28 29  2  0
 30 33  1  0
 30 29  1  0
 31 30  2  0
 32 31  1  0
 32 27  2  0
 33 34  1  0
 34 35  1  0
 35 36  2  0
 37 36  1  0
 37 41  1  0
 38 37  2  0
 39 34  2  0
 39 38  1  0
 40 39  1  0
 42 43  1  0
 43 46  1  0
 43 45  1  0
 44 42  2  0
 47 48  1  0
 47 22  1  0
 49 47  1  0
 51 52  1  0
 51 50  2  0
 53 64  2  0
 54 52  1  0
 54 59  1  0
 55 63  1  0
 55 65  1  0
 56 62  1  0
 56 58  1  0
 57 63  1  0
 58 57  1  0
 59 58  2  0
 60 61  1  0
 60 54  2  0
 61 56  2  0
 62 55  1  0
 63 53  1  0
 65 67  2  0
 66 65  1  0
 68 66  1  0
 69 78  2  0
 69 74  1  0
 70 66  1  0
 70 74  1  0
 71 70  1  0
 72 73  1  0
 72 71  1  0
 73 69  1  0
 74 75  2  0
 75 76  1  0
 77 76  2  0
 78 77  1  0
 79 53  1  0
 79 80  1  0
 79 89  1  0
 80 83  1  0
 81 85  1  0
 81 80  1  0
 82 81  2  0
 85 84  1  0
 87 88  1  0
 87 85  1  0
 87 86  1  0
 89 92  1  1
 89 90  1  0
 91 89  1  0
M  ISO  4  12 100  20 100  51 101  52 101
M  END
>  <TORSDO>  (14) 
F 18

>  <SCORE>  (14) 
-14.702

>  <name>  (14) 
13

>  <ligand_id>  (14) 
13

>  <original_smiles>  (14) 
[H]c1c([H])c([H])c2c(c1[H])C([H])([H])C([H])([H])C([H])([H])C2([H])N([H])C(=O)C1([H])N(C(=O)C([H])(N([H])C(=O)C([H])(N([H])C([H])([H])[H])C([H])([H])[H])C(C([H])([H])[H])(C([H])([H])[H])C([H])([H])[H])C([H])([H])c2c([H])c(OC([H])([H])C([H])([H])C3([H])C([H])([H])C4([H])C([H])([H])C5(C([H])([H])C5([H])[H])C([H])([H])C([H])(N([H])C(=O)N5C([H])([H])C([H])([H])C([H])([H])C([H])(n6nc(-c7c([H])c([H])c(Oc8c([H])c([H])c(F)c([H])c8F)c([H])c7[H])c(C(=O)N([H])[H])c6N([H])[H])C5([H])[H])C4([H])C3([H])[H])c([H])c([H])c2C1([H])[H]

>  <smiles>  (14) 
[H]c1c([H])c([H])c2c(c1[H])C([H])([H])C([H])([H])C([H])([H])C2([H])N([H])C(=O)C1([H])N(C(=O)C([H])(N([H])C(=O)C([H])(N([H])C([H])([H])[H])C([H])([H])[H])C(C([H])([H])[H])(C([H])([H])[H])C([H])([H])[H])C([H])([H])c2c([H])c(OC([H])([H])C([H])([H])C3([H])C([H])([H])C4([H])C([H])([H])C5(C([H])([H])C5([H])[H])C([H])([H])C([H])(N([H])C(=O)N5C([H])([H])C([H])([H])C([H])([H])C([H])(n6nc(-c7c([H])c([H])c(Oc8c([H])c([H])c(F)c([H])c8F)c([H])c7[H])c(C(=O)N([H])[H])c6N([H])[H])C5([H])[H])C4([H])C3([H])[H])c([H])c([H])c2C1([H])[H]

$$$$
14:0:0
     RDKit          3D

 96105  0  0  1  0  0  0  0  0999 V2000
  -30.3540  -22.0110   21.3710 C   0  0  0  0  0  3  0  0  0  0  0  0
  -29.1920  -22.9630   21.2800 N   0  0  0  0  0  4  0  0  0  0  0  0
  -28.4820  -22.5280   20.7100 H   0  0  0  0  0  0  0  0  0  0  0  0
  -28.7980  -23.0700   22.2040 H   0  0  0  0  0  0  0  0  0  0  0  0
  -29.4480  -24.3400   20.7290 C   0  0  0  0  0  2  0  0  0  0  0  0
  -28.1500  -25.1220   20.3760 C   0  0  0  0  0  2  0  0  0  0  0  0
  -28.3420  -26.5540   20.2510 O   0  0  0  0  0  0  0  0  0  0  0  0
  -24.5950  -31.8070   23.2990 C   0  0  0  0  0  0  0  0  0  0  0  0
  -27.1900  -27.3260   20.2100 C   0  0  0  0  0  0  0  0  0  0  0  0
  -23.3780  -30.4320   21.6430 C   0  0  0  0  0  3  0  0  0  0  0  0
  -24.8160  -28.8860   20.2120 C   0  0  0  0  0  0  0  0  0  0  0  0
  -25.9100  -30.7560   21.4560 C   0  0  0  0  0  2  0  0  0  0  0  0
  -25.9820  -29.3860   20.8060 C   0  0  0  0  0  0  0  0  0  0  0  0
  -27.1720  -28.6170   20.7960 C   0  0  0  0  0  3  0  0  0  0  0  0
  -26.0030  -26.8520   19.6020 C   0  0  0  0  0  3  0  0  0  0  0  0
  -24.8250  -27.6210   19.6030 C   0  0  0  0  0  3  0  0  0  0  0  0
  -23.5830  -29.7600   20.2600 C   0  0  0  0  0  2  0  0  0  0  0  0
  -24.6460  -31.0120   22.1920 N   0  0  0  0  0  0  0  0  0  0  0  0
  -23.5160  -32.0890   23.8370 O   0  0  0  0  0  0  0  0  0  0  0  0
  -22.7090  -29.4130   22.5950 C   0  0  0  0  0  0  0  0  0  0  0  0
  -21.3840  -29.2420   22.4570 N   0  0  0  0  0  0  0  0  0  0  0  0
  -23.3810  -28.7790   23.4130 O   0  0  0  0  0  0  0  0  0  0  0  0
  -20.9030  -29.8090   21.7720 H   0  0  0  0  0  0  0  0  0  0  0  0
  -17.9950  -28.0770   22.9270 C   0  0  0  0  0  0  0  0  0  0  0  0
  -20.5530  -28.3080   23.2170 C   0  0  0  0  0  3  0  0  0  0  0  0
  -20.6450  -26.8790   22.6320 C   0  0  0  0  0  2  0  0  0  0  0  0
  -19.5460  -26.5730   21.6100 C   0  0  0  0  0  2  0  0  0  0  0  0
  -18.1620  -26.7290   22.2450 C   0  0  0  0  0  2  0  0  0  0  0  0
  -19.1190  -28.8240   23.3690 C   0  0  0  0  0  0  0  0  0  0  0  0
  -18.9090  -30.0880   23.9650 C   0  0  0  0  0  3  0  0  0  0  0  0
  -17.6090  -30.6010   24.1240 C   0  0  0  0  0  3  0  0  0  0  0  0
  -16.5000  -29.8510   23.6990 C   0  0  0  0  0  3  0  0  0  0  0  0
  -16.6930  -28.5890   23.1060 C   0  0  0  0  0  3  0  0  0  0  0  0
  -25.8880  -32.4170   23.9280 C   0  0  0  0  0  3  0  0  0  0  0  0
  -26.3750  -31.6490   25.2170 C   0  0  1  0  0  0  0  0  0  0  0  0
  -25.2660  -31.4410   26.2750 C   0  0  0  0  0  1  0  0  0  0  0  0
  -26.9370  -30.2570   24.8420 C   0  0  0  0  0  1  0  0  0  0  0  0
  -27.5330  -32.4270   25.8840 C   0  0  0  0  0  1  0  0  0  0  0  0
  -25.6050  -33.8260   24.2380 N   0  0  0  0  0  0  0  0  0  0  0  0
  -25.9610  -34.8600   23.4630 C   0  0  0  0  0  0  0  0  0  0  0  0
  -26.6300  -34.7270   22.4350 O   0  0  0  0  0  0  0  0  0  0  0  0
  -25.0130  -34.0040   25.0340 H   0  0  0  0  0  0  0  0  0  0  0  0
  -24.2730  -36.6830   23.0720 C   0  0  0  0  0  1  0  0  0  0  0  0
  -25.4990  -36.2630   23.8990 C   0  0  0  0  0  3  0  0  0  0  0  0
  -27.6380  -37.1220   24.7430 C   0  0  0  0  0  1  0  0  0  0  0  0
  -26.5540  -37.2930   23.7800 N   0  0  0  0  0  0  0  0  0  0  0  0
  -26.1650  -38.2240   23.9030 H   0  0  0  0  0  0  0  0  0  0  0  0
  -32.8850  -21.8900   22.0510 C   0  0  0  0  0  1  0  0  0  0  0  0
  -31.5910  -22.7110   22.0090 C   0  0  0  0  0  2  0  0  0  0  0  0
  -29.9640  -20.6770   22.1190 C   0  0  0  0  0  2  0  0  0  0  0  0
  -30.6720  -19.3690   21.6500 C   0  0  0  0  0  0  0  0  0  0  0  0
  -31.9020  -19.3270   21.5820 O   0  0  0  0  0  0  0  0  0  0  0  0
  -30.7810  -14.4580   20.8080 C   0  0  0  0  0  0  0  0  0  0  0  0
  -30.6020  -12.1100   20.0620 C   0  0  0  0  0  2  0  0  0  0  0  0
  -29.7860  -11.9990   18.7570 C   0  0  0  0  0  2  0  0  0  0  0  0
  -28.2630  -11.9960   19.0350 C   0  0  0  0  0  2  0  0  0  0  0  0
  -27.7840  -12.9740   20.1490 C   0  0  0  0  0  3  0  0  0  0  0  0
  -28.7540  -13.0250   21.3500 C   0  0  0  0  0  2  0  0  0  0  0  0
  -30.1050  -13.2670   20.8230 N   0  0  0  0  0  0  0  0  0  0  0  0
  -32.0140  -14.4850   20.8270 O   0  0  0  0  0  0  0  0  0  0  0  0
  -28.7890  -18.5110   20.2000 C   0  0  0  0  0  2  0  0  0  0  0  0
  -29.6050  -18.6010   18.9090 C   0  0  0  0  0  2  0  0  0  0  0  0
  -30.4620  -16.3570   18.1740 C   0  0  0  0  0  2  0  0  0  0  0  0
  -29.5360  -15.5440   19.0550 C   0  0  0  0  0  2  0  0  0  0  0  0
  -29.8260  -18.1080   21.2570 C   0  0  0  0  0  3  0  0  0  0  0  0
  -30.7270  -17.5490   19.0570 C   0  0  0  0  0  3  0  0  0  0  0  0
  -30.6630  -16.9940   20.5080 C   0  0  0  0  0  3  0  0  0  0  0  0
  -30.0880  -15.5910   20.4230 N   0  0  0  0  0  0  0  0  0  0  0  0
  -25.3610  -13.6300   20.6710 C   0  0  0  0  0  0  0  0  0  0  0  0
  -24.2560  -12.8780   20.9650 C   0  0  0  0  0  0  0  0  0  0  0  0
  -24.7040  -11.5220   21.0080 C   0  0  0  0  0  0  0  0  0  0  0  0
  -26.4070  -12.7260   20.5460 N   0  0  0  0  0  0  0  0  0  0  0  0
  -26.0140  -11.4590   20.8140 N   0  0  0  0  0  0  0  0  0  0  0  0
  -23.9550  -10.2710   21.1630 C   0  0  0  0  0  0  0  0  0  0  0  0
  -24.3120   -9.3160   22.1390 C   0  0  0  0  0  3  0  0  0  0  0  0
  -23.5650   -8.1270   22.2830 C   0  0  0  0  0  3  0  0  0  0  0  0
  -22.4470   -7.8870   21.4480 C   0  0  0  0  0  0  0  0  0  0  0  0
  -22.1110   -8.8300   20.4600 C   0  0  0  0  0  3  0  0  0  0  0  0
  -22.8600  -10.0100   20.3160 C   0  0  0  0  0  3  0  0  0  0  0  0
  -21.6770   -6.7520   21.4980 O   0  0  0  0  0  0  0  0  0  0  0  0
  -21.5500   -6.0210   22.6520 C   0  0  0  0  0  0  0  0  0  0  0  0
  -21.0200   -6.5810   23.8350 C   0  0  0  0  0  3  0  0  0  0  0  0
  -20.8450   -5.7750   24.9770 C   0  0  0  0  0  3  0  0  0  0  0  0
  -21.1890   -4.4110   24.9360 C   0  0  0  0  0  0  0  0  0  0  0  0
  -21.7100   -3.8500   23.7570 C   0  0  0  0  0  3  0  0  0  0  0  0
  -21.8880   -4.6530   22.6170 C   0  0  0  0  0  0  0  0  0  0  0  0
  -22.3730   -4.1040   21.4770 F   0  0  0  0  0  0  0  0  0  0  0  0
  -21.0110   -3.6330   26.0310 F   0  0  0  0  0  0  0  0  0  0  0  0
  -22.8460  -13.3730   21.1020 C   0  0  0  0  0  0  0  0  0  0  0  0
  -22.0430  -12.7100   21.9250 N   0  0  0  0  0  0  0  0  0  0  0  0
  -22.4640  -14.3840   20.5140 O   0  0  0  0  0  0  0  0  0  0  0  0
  -22.3640  -11.8910   22.4210 H   0  0  0  0  0  0  0  0  0  0  0  0
  -21.0920  -13.0230   22.0650 H   0  0  0  0  0  0  0  0  0  0  0  0
  -25.5580  -14.9960   20.4770 N   0  0  0  0  0  0  0  0  0  0  0  0
  -24.7990  -15.6660   20.5120 H   0  0  0  0  0  0  0  0  0  0  0  0
  -26.4500  -15.4170   20.2490 H   0  0  0  0  0  0  0  0  0  0  0  0
  1 49  1  0
  1 50  1  0
  2  1  1  0
  2  4  1  0
  3  2  1  0
  5  2  1  0
  6  5  1  0
  7  6  1  0
  8 19  2  0
  9  7  1  0
  9 14  1  0
 10 18  1  0
 10 20  1  0
 11 17  1  0
 11 13  1  0
 12 18  1  0
 13 12  1  0
 14 13  2  0
 15 16  1  0
 15  9  2  0
 16 11  2  0
 17 10  1  0
 18  8  1  0
 20 22  2  0
 21 20  1  0
 23 21  1  0
 24 33  2  0
 24 29  1  0
 25 21  1  0
 25 29  1  0
 26 25  1  0
 27 28  1  0
 27 26  1  0
 28 24  1  0
 29 30  2  0
 30 31  1  0
 32 31  2  0
 33 32  1  0
 34  8  1  0
 34 39  1  0
 34 35  1  0
 35 38  1  1
 35 36  1  0
 37 35  1  0
 39 42  1  0
 40 44  1  0
 40 39  1  0
 41 40  2  0
 44 43  1  0
 46 44  1  0
 46 47  1  0
 46 45  1  0
 49 48  1  0
 51 50  1  0
 52 51  2  0
 53 59  1  0
 53 60  2  0
 54 59  1  0
 55 56  1  0
 55 54  1  0
 57 56  1  0
 57 72  1  0
 57 58  1  0
 59 58  1  0
 61 65  1  0
 62 66  1  0
 62 61  1  0
 63 64  1  0
 64 68  1  0
 65 51  1  0
 66 63  1  0
 66 67  1  0
 67 68  1  0
 67 65  1  0
 68 53  1  0
 69 70  2  0
 70 71  1  0
 70 89  1  0
 71 74  1  0
 72 69  1  0
 72 73  1  0
 73 71  2  0
 74 75  1  0
 75 76  2  0
 77 80  1  0
 77 76  1  0
 78 77  2  0
 79 78  1  0
 79 74  2  0
 80 81  1  0
 81 82  1  0
 82 83  2  0
 84 83  1  0
 84 88  1  0
 85 84  2  0
 86 81  2  0
 86 85  1  0
 87 86  1  0
 89 90  1  0
 90 93  1  0
 90 92  1  0
 91 89  2  0
 94 95  1  0
 94 69  1  0
 96 94  1  0
M  ISO  4   6 101   7 101  53 100  68 100
M  END
>  <TORSDO>  (15) 
F 22

>  <SCORE>  (15) 
-11.082

>  <name>  (15) 
14

>  <ligand_id>  (15) 
14

>  <original_smiles>  (15) 
[H]c1c([H])c([H])c2c(c1[H])C([H])([H])C([H])([H])C([H])([H])C2([H])N([H])C(=O)C1([H])N(C(=O)C([H])(N([H])C(=O)C([H])(N([H])C([H])([H])[H])C([H])([H])[H])C(C([H])([H])[H])(C([H])([H])[H])C([H])([H])[H])C([H])([H])c2c([H])c(OC([H])([H])C([H])([H])[N+]([H])([H])C([H])(C([H])([H])C(=O)C3([H])C([H])([H])C([H])([H])C4([H])C([H])([H])C([H])([H])N(C(=O)N5C([H])([H])C([H])([H])C([H])([H])C([H])(n6nc(-c7c([H])c([H])c(Oc8c([H])c([H])c(F)c([H])c8F)c([H])c7[H])c(C(=O)N([H])[H])c6N([H])[H])C5([H])[H])C34[H])C([H])([H])C([H])([H])[H])c([H])c([H])c2C1([H])[H]

>  <smiles>  (15) 
[H]c1c([H])c([H])c2c(c1[H])C([H])([H])C([H])([H])C([H])([H])C2([H])N([H])C(=O)C1([H])N(C(=O)C([H])(N([H])C(=O)C([H])(N([H])C([H])([H])[H])C([H])([H])[H])C(C([H])([H])[H])(C([H])([H])[H])C([H])([H])[H])C([H])([H])c2c([H])c(OC([H])([H])C([H])([H])[N+]([H])([H])C([H])(C([H])([H])C(=O)C3([H])C([H])([H])C([H])([H])C4([H])C([H])([H])C([H])([H])N(C(=O)N5C([H])([H])C([H])([H])C([H])([H])C([H])(n6nc(-c7c([H])c([H])c(Oc8c([H])c([H])c(F)c([H])c8F)c([H])c7[H])c(C(=O)N([H])[H])c6N([H])[H])C5([H])[H])C34[H])C([H])([H])C([H])([H])[H])c([H])c([H])c2C1([H])[H]

$$$$
15:0:0
     RDKit          3D

 96103  0  0  1  0  0  0  0  0999 V2000
  -28.0010  -23.4400   17.1700 C   0  0  0  0  0  2  0  0  0  0  0  0
  -27.4600  -22.1070   16.6250 C   0  0  0  0  0  2  0  0  0  0  0  0
  -27.3020  -21.0250   17.7060 C   0  0  0  0  0  2  0  0  0  0  0  0
  -28.6440  -20.4260   18.1550 C   0  0  0  0  0  2  0  0  0  0  0  0
  -28.4870  -19.3730   19.2590 C   0  0  0  0  0  2  0  0  0  0  0  0
  -29.8000  -18.9000   19.7330 N   0  0  0  0  0  4  0  0  0  0  0  0
  -30.3200  -19.6920   20.0730 H   0  0  0  0  0  0  0  0  0  0  0  0
  -30.3050  -18.5100   18.9540 H   0  0  0  0  0  0  0  0  0  0  0  0
  -29.7310  -17.8870   20.8040 C   0  0  0  0  0  2  0  0  0  0  0  0
  -31.1420  -17.5330   21.3050 C   0  0  0  0  0  2  0  0  0  0  0  0
  -31.2000  -16.3440   22.2840 C   0  0  0  0  0  2  0  0  0  0  0  0
  -31.0580  -14.3760   20.7440 C   0  0  0  0  0  0  0  0  0  0  0  0
  -30.6810  -12.3730   19.3580 C   0  0  0  0  0  2  0  0  0  0  0  0
  -29.7510  -12.6730   18.1680 C   0  0  0  0  0  2  0  0  0  0  0  0
  -28.2730  -12.5290   18.5800 C   0  0  0  0  0  2  0  0  0  0  0  0
  -27.9410  -13.3010   19.8840 C   0  0  0  0  0  3  0  0  0  0  0  0
  -28.9730  -12.9780   20.9860 C   0  0  0  0  0  2  0  0  0  0  0  0
  -30.3220  -13.2720   20.4640 N   0  0  0  0  0  0  0  0  0  0  0  0
  -32.0880  -14.6810   20.1360 O   0  0  0  0  0  0  0  0  0  0  0  0
  -30.5940  -15.1240   21.7520 N   0  0  0  0  0  0  0  0  0  0  0  0
  -29.7670  -14.7780   22.2180 H   0  0  0  0  0  0  0  0  0  0  0  0
  -25.5240  -13.9110   20.5380 C   0  0  0  0  0  0  0  0  0  0  0  0
  -24.4480  -13.1370   20.8830 C   0  0  0  0  0  0  0  0  0  0  0  0
  -24.9090  -11.7850   20.8560 C   0  0  0  0  0  0  0  0  0  0  0  0
  -26.5750  -13.0300   20.3290 N   0  0  0  0  0  0  0  0  0  0  0  0
  -26.2040  -11.7460   20.5720 N   0  0  0  0  0  0  0  0  0  0  0  0
  -24.1790  -10.5220   21.0270 C   0  0  0  0  0  0  0  0  0  0  0  0
  -24.5630   -9.5730   21.9990 C   0  0  0  0  0  3  0  0  0  0  0  0
  -23.8350   -8.3740   22.1560 C   0  0  0  0  0  3  0  0  0  0  0  0
  -22.7090   -8.1170   21.3400 C   0  0  0  0  0  0  0  0  0  0  0  0
  -22.3430   -9.0550   20.3580 C   0  0  0  0  0  3  0  0  0  0  0  0
  -23.0720  -10.2450   20.2000 C   0  0  0  0  0  3  0  0  0  0  0  0
  -21.9570   -6.9680   21.4040 O   0  0  0  0  0  0  0  0  0  0  0  0
  -21.8230   -6.2600   22.5700 C   0  0  0  0  0  0  0  0  0  0  0  0
  -21.2610   -6.8350   23.7320 C   0  0  0  0  0  3  0  0  0  0  0  0
  -21.0780   -6.0510   24.8890 C   0  0  0  0  0  3  0  0  0  0  0  0
  -21.4460   -4.6930   24.8840 C   0  0  0  0  0  0  0  0  0  0  0  0
  -22.0000   -4.1170   23.7280 C   0  0  0  0  0  3  0  0  0  0  0  0
  -22.1850   -4.8970   22.5730 C   0  0  0  0  0  0  0  0  0  0  0  0
  -22.7000   -4.3320   21.4550 F   0  0  0  0  0  0  0  0  0  0  0  0
  -21.2630   -3.9380   25.9920 F   0  0  0  0  0  0  0  0  0  0  0  0
  -23.0460  -13.6140   21.1310 C   0  0  0  0  0  0  0  0  0  0  0  0
  -22.2990  -12.9130   21.9770 N   0  0  0  0  0  0  0  0  0  0  0  0
  -22.6190  -14.6450   20.6110 O   0  0  0  0  0  0  0  0  0  0  0  0
  -22.6560  -12.0790   22.4210 H   0  0  0  0  0  0  0  0  0  0  0  0
  -21.3580  -13.2130   22.1840 H   0  0  0  0  0  0  0  0  0  0  0  0
  -25.6940  -15.2810   20.3670 N   0  0  0  0  0  0  0  0  0  0  0  0
  -24.9250  -15.9360   20.4600 H   0  0  0  0  0  0  0  0  0  0  0  0
  -26.5520  -15.7160   20.0550 H   0  0  0  0  0  0  0  0  0  0  0  0
  -28.4890  -24.3850   16.0550 C   0  0  0  0  0  2  0  0  0  0  0  0
  -29.2630  -25.6040   16.5900 C   0  0  0  0  0  2  0  0  0  0  0  0
  -28.3660  -26.6010   17.3380 C   0  0  0  0  0  2  0  0  0  0  0  0
  -29.1020  -27.5180   18.3370 C   0  0  0  0  0  2  0  0  0  0  0  0
  -30.4250  -27.7530   20.5180 C   0  0  0  0  0  1  0  0  0  0  0  0
  -29.5140  -26.8440   19.6760 C   0  0  0  0  0  3  0  0  0  0  0  0
  -28.4200  -26.3350   20.4580 O   0  0  0  0  0  0  0  0  0  0  0  0
  -24.4550  -31.6160   23.1860 C   0  0  0  0  0  0  0  0  0  0  0  0
  -27.2570  -27.0660   20.4630 C   0  0  0  0  0  0  0  0  0  0  0  0
  -23.3420  -30.1550   21.5260 C   0  0  0  0  0  3  0  0  0  0  0  0
  -24.8640  -28.5450   20.2790 C   0  0  0  0  0  0  0  0  0  0  0  0
  -25.8740  -30.4950   21.4760 C   0  0  0  0  0  2  0  0  0  0  0  0
  -25.9820  -29.0960   20.9150 C   0  0  0  0  0  0  0  0  0  0  0  0
  -27.1790  -28.3590   21.0210 C   0  0  0  0  0  3  0  0  0  0  0  0
  -26.1060  -26.4970   19.8810 C   0  0  0  0  0  3  0  0  0  0  0  0
  -24.9140  -27.2370   19.7680 C   0  0  0  0  0  3  0  0  0  0  0  0
  -23.6310  -29.4130   20.1940 C   0  0  0  0  0  2  0  0  0  0  0  0
  -24.5710  -30.7760   22.1210 N   0  0  0  0  0  0  0  0  0  0  0  0
  -23.3440  -31.9170   23.6470 O   0  0  0  0  0  0  0  0  0  0  0  0
  -22.6250  -29.1780   22.4840 C   0  0  0  0  0  0  0  0  0  0  0  0
  -21.3000  -29.0420   22.3180 N   0  0  0  0  0  0  0  0  0  0  0  0
  -23.2560  -28.5410   23.3310 O   0  0  0  0  0  0  0  0  0  0  0  0
  -20.8510  -29.6060   21.6100 H   0  0  0  0  0  0  0  0  0  0  0  0
  -17.8550  -28.0690   22.7910 C   0  0  0  0  0  0  0  0  0  0  0  0
  -20.4230  -28.1530   23.0800 C   0  0  0  0  0  3  0  0  0  0  0  0
  -20.4340  -26.7230   22.4940 C   0  0  0  0  0  2  0  0  0  0  0  0
  -19.3190  -26.4800   21.4730 C   0  0  0  0  0  2  0  0  0  0  0  0
  -17.9450  -26.7140   22.1100 C   0  0  0  0  0  2  0  0  0  0  0  0
  -19.0190  -28.7510   23.2320 C   0  0  0  0  0  0  0  0  0  0  0  0
  -18.8810  -30.0240   23.8280 C   0  0  0  0  0  3  0  0  0  0  0  0
  -17.6110  -30.6110   23.9900 C   0  0  0  0  0  3  0  0  0  0  0  0
  -16.4610  -29.9230   23.5650 C   0  0  0  0  0  3  0  0  0  0  0  0
  -16.5850  -28.6550   22.9700 C   0  0  0  0  0  3  0  0  0  0  0  0
  -25.7070  -32.2620   23.8620 C   0  0  0  0  0  3  0  0  0  0  0  0
  -26.1630  -31.5160   25.1740 C   0  0  1  0  0  0  0  0  0  0  0  0
  -25.0200  -31.2840   26.1890 C   0  0  0  0  0  1  0  0  0  0  0  0
  -26.7730  -30.1370   24.8350 C   0  0  0  0  0  1  0  0  0  0  0  0
  -27.2720  -32.3280   25.8850 C   0  0  0  0  0  1  0  0  0  0  0  0
  -25.3780  -33.6640   24.1470 N   0  0  0  0  0  0  0  0  0  0  0  0
  -25.7250  -34.7000   23.3710 C   0  0  0  0  0  0  0  0  0  0  0  0
  -26.4270  -34.5760   22.3640 O   0  0  0  0  0  0  0  0  0  0  0  0
  -24.7550  -33.8340   24.9230 H   0  0  0  0  0  0  0  0  0  0  0  0
  -23.9840  -36.4630   22.9290 C   0  0  0  0  0  1  0  0  0  0  0  0
  -25.2130  -36.0950   23.7770 C   0  0  0  0  0  3  0  0  0  0  0  0
  -27.3140  -37.0330   24.6370 C   0  0  0  0  0  1  0  0  0  0  0  0
  -26.2360  -37.1560   23.6580 N   0  0  0  0  0  0  0  0  0  0  0  0
  -25.8150  -38.0760   23.7630 H   0  0  0  0  0  0  0  0  0  0  0  0
  2  1  1  0
  2  3  1  0
  3  4  1  0
  4  5  1  0
  5  6  1  0
  6  7  1  0
  6  9  1  0
  8  6  1  0
  9 10  1  0
 10 11  1  0
 12 20  1  0
 13 18  1  0
 14 15  1  0
 14 13  1  0
 16 15  1  0
 16 25  1  0
 16 17  1  0
 18 12  1  0
 18 17  1  0
 19 12  2  0
 20 21  1  0
 20 11  1  0
 22 23  2  0
 23 42  1  0
 24 23  1  0
 24 27  1  0
 25 22  1  0
 25 26  1  0
 26 24  2  0
 27 28  1  0
 28 29  2  0
 30 33  1  0
 30 29  1  0
 31 30  2  0
 32 31  1  0
 32 27  2  0
 33 34  1  0
 34 39  2  0
 34 35  1  0
 35 36  2  0
 37 36  1  0
 37 41  1  0
 38 37  2  0
 39 38  1  0
 40 39  1  0
 42 43  1  0
 43 46  1  0
 43 45  1  0
 44 42  2  0
 47 48  1  0
 47 22  1  0
 49 47  1  0
 50 51  1  0
 50  1  1  0
 51 52  1  0
 52 53  1  0
 53 55  1  0
 55 56  1  0
 55 54  1  0
 56 58  1  0
 57 68  2  0
 58 63  1  0
 59 67  1  0
 59 69  1  0
 60 62  1  0
 61 67  1  0
 62 63  2  0
 62 61  1  0
 64 58  2  0
 65 64  1  0
 65 60  2  0
 66 60  1  0
 66 59  1  0
 67 57  1  0
 69 71  2  0
 70 69  1  0
 72 70  1  0
 73 82  2  0
 73 78  1  0
 74 70  1  0
 74 78  1  0
 75 74  1  0
 76 77  1  0
 76 75  1  0
 77 73  1  0
 78 79  2  0
 79 80  1  0
 81 80  2  0
 82 81  1  0
 83 57  1  0
 83 88  1  0
 83 84  1  0
 84 87  1  1
 84 85  1  0
 86 84  1  0
 88 91  1  0
 89 93  1  0
 89 88  1  0
 90 89  2  0
 93 92  1  0
 95 96  1  0
 95 93  1  0
 95 94  1  0
M  ISO  4  12 100  20 100  55 101  56 101
M  END
>  <TORSDO>  (16) 
F 29

>  <SCORE>  (16) 
-9.371

>  <name>  (16) 
15

>  <ligand_id>  (16) 
15

>  <original_smiles>  (16) 
[H]c1c([H])c([H])c2c(c1[H])C([H])([H])C([H])([H])C([H])([H])C2([H])N([H])C(=O)C1([H])N(C(=O)C([H])(N([H])C(=O)C([H])(N([H])C([H])([H])[H])C([H])([H])[H])C(C([H])([H])[H])(C([H])([H])[H])C([H])([H])[H])C([H])([H])c2c([H])c(OC([H])(C([H])([H])[H])C([H])([H])C([H])([H])C([H])([H])C([H])([H])C([H])([H])C([H])([H])C([H])([H])C([H])([H])C([H])([H])[N+]([H])([H])C([H])([H])C([H])([H])C([H])([H])N([H])C(=O)N3C([H])([H])C([H])([H])C([H])([H])C([H])(n4nc(-c5c([H])c([H])c(Oc6c([H])c([H])c(F)c([H])c6F)c([H])c5[H])c(C(=O)N([H])[H])c4N([H])[H])C3([H])[H])c([H])c([H])c2C1([H])[H]

>  <smiles>  (16) 
[H]c1c([H])c([H])c2c(c1[H])C([H])([H])C([H])([H])C([H])([H])C2([H])N([H])C(=O)C1([H])N(C(=O)C([H])(N([H])C(=O)C([H])(N([H])C([H])([H])[H])C([H])([H])[H])C(C([H])([H])[H])(C([H])([H])[H])C([H])([H])[H])C([H])([H])c2c([H])c(OC([H])(C([H])([H])[H])C([H])([H])C([H])([H])C([H])([H])C([H])([H])C([H])([H])C([H])([H])C([H])([H])C([H])([H])C([H])([H])[N+]([H])([H])C([H])([H])C([H])([H])C([H])([H])N([H])C(=O)N3C([H])([H])C([H])([H])C([H])([H])C([H])(n4nc(-c5c([H])c([H])c(Oc6c([H])c([H])c(F)c([H])c6F)c([H])c5[H])c(C(=O)N([H])[H])c4N([H])[H])C3([H])[H])c([H])c([H])c2C1([H])[H]

$$$$
16:0:0
     RDKit          3D

 91 99  0  0  1  0  0  0  0  0999 V2000
  -29.3820  -20.6320   22.2070 C   0  0  0  0  0  2  0  0  0  0  0  0
  -28.7400  -20.2840   19.8530 C   0  0  0  0  0  2  0  0  0  0  0  0
  -30.2260  -19.3290   22.1570 C   0  0  0  0  0  2  0  0  0  0  0  0
  -29.5410  -18.9350   19.8140 C   0  0  0  0  0  2  0  0  0  0  0  0
  -29.2770  -21.3600   20.8440 C   0  0  0  0  0  3  0  0  0  0  0  0
  -29.6950  -18.2250   21.1890 C   0  0  0  0  0  3  0  0  0  0  0  0
  -28.3890  -22.6750   20.9320 C   0  0  0  0  0  2  0  0  0  0  0  0
  -28.9640  -24.0660   20.4430 C   0  0  0  0  0  2  0  0  0  0  0  0
  -28.0790  -25.3120   20.8430 C   0  0  0  0  0  2  0  0  0  0  0  0
  -28.3140  -26.6100   20.1930 O   0  0  0  0  0  0  0  0  0  0  0  0
  -24.5620  -31.9090   23.2340 C   0  0  0  0  0  0  0  0  0  0  0  0
  -27.1980  -27.4430   20.1400 C   0  0  0  0  0  0  0  0  0  0  0  0
  -23.3560  -30.5130   21.5890 C   0  0  0  0  0  3  0  0  0  0  0  0
  -24.8140  -28.9970   20.1390 C   0  0  0  0  0  0  0  0  0  0  0  0
  -25.8840  -30.8770   21.3790 C   0  0  0  0  0  2  0  0  0  0  0  0
  -25.9780  -29.5080   20.7270 C   0  0  0  0  0  0  0  0  0  0  0  0
  -27.1800  -28.7450   20.7120 C   0  0  0  0  0  3  0  0  0  0  0  0
  -26.0210  -26.9790   19.5140 C   0  0  0  0  0  3  0  0  0  0  0  0
  -24.8360  -27.7380   19.5190 C   0  0  0  0  0  3  0  0  0  0  0  0
  -23.5630  -29.8500   20.2030 C   0  0  0  0  0  2  0  0  0  0  0  0
  -24.6190  -31.1160   22.1270 N   0  0  0  0  0  0  0  0  0  0  0  0
  -23.4810  -32.1690   23.7830 O   0  0  0  0  0  0  0  0  0  0  0  0
  -22.7150  -29.4790   22.5440 C   0  0  0  0  0  0  0  0  0  0  0  0
  -21.3920  -29.2750   22.4150 N   0  0  0  0  0  0  0  0  0  0  0  0
  -23.4050  -28.8620   23.3610 O   0  0  0  0  0  0  0  0  0  0  0  0
  -20.8940  -29.8280   21.7320 H   0  0  0  0  0  0  0  0  0  0  0  0
  -18.0370  -28.0200   22.9030 C   0  0  0  0  0  0  0  0  0  0  0  0
  -20.5900  -28.3210   23.1820 C   0  0  0  0  0  3  0  0  0  0  0  0
  -20.7170  -26.8930   22.6040 C   0  0  0  0  0  2  0  0  0  0  0  0
  -19.6250  -26.5550   21.5840 C   0  0  0  0  0  2  0  0  0  0  0  0
  -18.2390  -26.6760   22.2240 C   0  0  0  0  0  2  0  0  0  0  0  0
  -19.1430  -28.8000   23.3380 C   0  0  0  0  0  0  0  0  0  0  0  0
  -18.9030  -30.0580   23.9310 C   0  0  0  0  0  3  0  0  0  0  0  0
  -17.5890  -30.5380   24.0940 C   0  0  0  0  0  3  0  0  0  0  0  0
  -16.4990  -29.7550   23.6770 C   0  0  0  0  0  3  0  0  0  0  0  0
  -16.7240  -28.4990   23.0870 C   0  0  0  0  0  3  0  0  0  0  0  0
  -25.8470  -32.5440   23.8510 C   0  0  0  0  0  3  0  0  0  0  0  0
  -25.5300  -33.9390   24.1850 N   0  0  0  0  0  0  0  0  0  0  0  0
  -25.8600  -34.9960   23.4330 C   0  0  0  0  0  0  0  0  0  0  0  0
  -26.5350  -34.9000   22.4020 O   0  0  0  0  0  0  0  0  0  0  0  0
  -24.9300  -34.0880   24.9840 H   0  0  0  0  0  0  0  0  0  0  0  0
  -24.1350  -36.7900   23.0700 C   0  0  0  0  0  1  0  0  0  0  0  0
  -25.3660  -36.3800   23.8940 C   0  0  0  0  0  3  0  0  0  0  0  0
  -27.4900  -37.2610   24.7540 C   0  0  0  0  0  1  0  0  0  0  0  0
  -26.3970  -37.4360   23.8000 N   0  0  0  0  0  0  0  0  0  0  0  0
  -25.9890  -38.3540   23.9560 H   0  0  0  0  0  0  0  0  0  0  0  0
  -26.3720  -31.7710   25.1240 C   0  0  1  0  0  0  0  0  0  0  0  0
  -25.2820  -31.5170   26.1920 C   0  0  0  0  0  1  0  0  0  0  0  0
  -26.9660  -30.4000   24.7230 C   0  0  0  0  0  1  0  0  0  0  0  0
  -27.5210  -32.5720   25.7830 C   0  0  0  0  0  1  0  0  0  0  0  0
  -30.5910  -16.8960   21.1630 C   0  0  0  0  0  3  0  0  0  0  0  0
  -30.4480  -14.6640   19.9300 C   0  0  0  0  0  0  0  0  0  0  0  0
  -30.0180  -12.5720   18.6650 C   0  0  0  0  0  2  0  0  0  0  0  0
  -28.9620  -12.8210   17.5700 C   0  0  0  0  0  2  0  0  0  0  0  0
  -27.5440  -12.6310   18.1390 C   0  0  0  0  0  2  0  0  0  0  0  0
  -27.3270  -13.3930   19.4750 C   0  0  0  0  0  3  0  0  0  0  0  0
  -28.4920  -13.1420   20.4610 C   0  0  0  0  0  2  0  0  0  0  0  0
  -29.7420  -13.5040   19.7760 N   0  0  0  0  0  0  0  0  0  0  0  0
  -31.5140  -14.8480   19.3380 O   0  0  0  0  0  0  0  0  0  0  0  0
  -29.9040  -15.6480   20.7000 N   0  0  0  0  0  0  0  0  0  0  0  0
  -28.9970  -15.4500   21.0950 H   0  0  0  0  0  0  0  0  0  0  0  0
  -24.9890  -13.9190   20.4030 C   0  0  0  0  0  0  0  0  0  0  0  0
  -23.9770  -13.1140   20.8490 C   0  0  0  0  0  0  0  0  0  0  0  0
  -24.4680  -11.7750   20.7560 C   0  0  0  0  0  0  0  0  0  0  0  0
  -26.0310  -13.0710   20.0670 N   0  0  0  0  0  0  0  0  0  0  0  0
  -25.7280  -11.7750   20.3390 N   0  0  0  0  0  0  0  0  0  0  0  0
  -23.7910  -10.4910   20.9870 C   0  0  0  0  0  0  0  0  0  0  0  0
  -24.2880   -9.5510   21.9170 C   0  0  0  0  0  3  0  0  0  0  0  0
  -23.6100   -8.3310   22.1340 C   0  0  0  0  0  3  0  0  0  0  0  0
  -22.4220   -8.0430   21.4210 C   0  0  0  0  0  0  0  0  0  0  0  0
  -21.9460   -8.9720   20.4800 C   0  0  0  0  0  3  0  0  0  0  0  0
  -22.6240  -10.1830   20.2610 C   0  0  0  0  0  3  0  0  0  0  0  0
  -21.7110   -6.8750   21.5490 O   0  0  0  0  0  0  0  0  0  0  0  0
  -21.6920   -6.1690   22.7250 C   0  0  0  0  0  0  0  0  0  0  0  0
  -21.2480   -6.7490   23.9350 C   0  0  0  0  0  3  0  0  0  0  0  0
  -21.1790   -5.9670   25.1050 C   0  0  0  0  0  3  0  0  0  0  0  0
  -21.5420   -4.6070   25.0680 C   0  0  0  0  0  0  0  0  0  0  0  0
  -21.9780   -4.0280   23.8640 C   0  0  0  0  0  3  0  0  0  0  0  0
  -22.0490   -4.8060   22.6950 C   0  0  0  0  0  0  0  0  0  0  0  0
  -22.4500   -4.2370   21.5330 F   0  0  0  0  0  0  0  0  0  0  0  0
  -21.4670   -3.8540   26.1900 F   0  0  0  0  0  0  0  0  0  0  0  0
  -22.5960  -13.5500   21.2480 C   0  0  0  0  0  0  0  0  0  0  0  0
  -21.9710  -12.8300   22.1740 N   0  0  0  0  0  0  0  0  0  0  0  0
  -22.0840  -14.5640   20.7760 O   0  0  0  0  0  0  0  0  0  0  0  0
  -22.3980  -12.0090   22.5750 H   0  0  0  0  0  0  0  0  0  0  0  0
  -21.0490  -13.1070   22.4880 H   0  0  0  0  0  0  0  0  0  0  0  0
  -25.1040  -15.2950   20.2320 N   0  0  0  0  0  0  0  0  0  0  0  0
  -24.3390  -15.9340   20.4140 H   0  0  0  0  0  0  0  0  0  0  0  0
  -25.9180  -15.7550   19.8430 H   0  0  0  0  0  0  0  0  0  0  0  0
  -31.8840  -15.2460   22.7760 C   0  0  0  0  0  1  0  0  0  0  0  0
  -31.2600  -16.6310   22.5450 C   0  0  0  0  0  2  0  0  0  0  0  0
  2  5  1  0
  3  1  1  0
  4  2  1  0
  4  6  1  0
  5  7  1  0
  5  1  1  0
  6 51  1  0
  6  3  1  0
  8  9  1  0
  8  7  1  0
 10  9  1  0
 11 22  2  0
 12 10  1  0
 12 17  1  0
 13 21  1  0
 13 23  1  0
 14 20  1  0
 14 16  1  0
 15 21  1  0
 16 15  1  0
 17 16  2  0
 18 19  1  0
 18 12  2  0
 19 14  2  0
 20 13  1  0
 21 11  1  0
 23 25  2  0
 24 23  1  0
 26 24  1  0
 27 36  2  0
 27 32  1  0
 28 24  1  0
 28 32  1  0
 29 28  1  0
 30 31  1  0
 30 29  1  0
 31 27  1  0
 32 33  2  0
 33 34  1  0
 35 34  2  0
 36 35  1  0
 37 11  1  0
 37 38  1  0
 37 47  1  0
 38 41  1  0
 39 43  1  0
 39 38  1  0
 40 39  2  0
 43 42  1  0
 45 43  1  0
 45 46  1  0
 45 44  1  0
 47 50  1  1
 47 48  1  0
 49 47  1  0
 51 91  1  0
 52 60  1  0
 53 58  1  0
 54 55  1  0
 54 53  1  0
 56 55  1  0
 56 65  1  0
 56 57  1  0
 58 52  1  0
 58 57  1  0
 59 52  2  0
 60 61  1  0
 60 51  1  0
 62 63  2  0
 63 82  1  0
 64 63  1  0
 64 67  1  0
 65 66  1  0
 65 62  1  0
 66 64  2  0
 67 68  1  0
 68 69  2  0
 70 73  1  0
 70 69  1  0
 71 70  2  0
 72 71  1  0
 72 67  2  0
 73 74  1  0
 74 75  1  0
 75 76  2  0
 77 76  1  0
 77 81  1  0
 78 77  2  0
 79 74  2  0
 79 78  1  0
 80 79  1  0
 82 83  1  0
 83 86  1  0
 83 85  1  0
 84 82  2  0
 87 62  1  0
 87 88  1  0
 89 87  1  0
 91 90  1  0
M  ISO  4   9 101  10 101  52 100  60 100
M  END
>  <TORSDO>  (17) 
F 21

>  <SCORE>  (17) 
-9.706

>  <name>  (17) 
16

>  <ligand_id>  (17) 
16

>  <original_smiles>  (17) 
[H]c1c([H])c([H])c2c(c1[H])C([H])([H])C([H])([H])C([H])([H])C2([H])N([H])C(=O)C1([H])N(C(=O)C([H])(N([H])C(=O)C([H])(N([H])C([H])([H])[H])C([H])([H])[H])C(C([H])([H])[H])(C([H])([H])[H])C([H])([H])[H])C([H])([H])c2c([H])c(OC([H])([H])C([H])([H])C([H])([H])C3([H])C([H])([H])C([H])([H])C([H])(C([H])(N([H])C(=O)N4C([H])([H])C([H])([H])C([H])([H])C([H])(n5nc(-c6c([H])c([H])c(Oc7c([H])c([H])c(F)c([H])c7F)c([H])c6[H])c(C(=O)N([H])[H])c5N([H])[H])C4([H])[H])C([H])([H])C([H])([H])[H])C([H])([H])C3([H])[H])c([H])c([H])c2C1([H])[H]

>  <smiles>  (17) 
[H]c1c([H])c([H])c2c(c1[H])C([H])([H])C([H])([H])C([H])([H])C2([H])N([H])C(=O)C1([H])N(C(=O)C([H])(N([H])C(=O)C([H])(N([H])C([H])([H])[H])C([H])([H])[H])C(C([H])([H])[H])(C([H])([H])[H])C([H])([H])[H])C([H])([H])c2c([H])c(OC([H])([H])C([H])([H])C([H])([H])C3([H])C([H])([H])C([H])([H])C([H])(C([H])(N([H])C(=O)N4C([H])([H])C([H])([H])C([H])([H])C([H])(n5nc(-c6c([H])c([H])c(Oc7c([H])c([H])c(F)c([H])c7F)c([H])c6[H])c(C(=O)N([H])[H])c5N([H])[H])C4([H])[H])C([H])([H])C([H])([H])[H])C([H])([H])C3([H])[H])c([H])c([H])c2C1([H])[H]

$$$$
17:0:0
     RDKit          3D

 93103  0  0  1  0  0  0  0  0999 V2000
  -30.2990  -24.4090   23.3790 C   0  0  0  0  0  2  0  0  0  0  0  0
  -28.8920  -24.4470   22.7630 C   0  0  0  0  0  2  0  0  0  0  0  0
  -29.4030  -22.2140   23.1250 C   0  0  0  0  0  2  0  0  0  0  0  0
  -31.1090  -22.8360   21.6050 C   0  0  0  0  0  2  0  0  0  0  0  0
  -30.7250  -22.9650   23.0890 C   0  0  0  0  0  3  0  0  0  0  0  0
  -28.7730  -23.0750   22.0330 C   0  0  0  0  0  3  0  0  0  0  0  0
  -29.7530  -22.9250   20.8140 C   0  0  2  0  0  0  0  0  0  0  0  0
  -29.4860  -21.5590   19.9490 C   0  0  0  0  0  2  0  0  0  0  0  0
  -29.5140  -19.2750   21.3990 C   0  0  0  0  0  2  0  0  0  0  0  0
  -30.1460  -20.1450   20.3260 C   0  0  0  0  0  3  0  0  0  0  0  0
  -29.6590  -18.6610   20.0250 C   0  0  0  0  0  3  0  0  0  0  0  0
  -30.6200  -17.4090   19.8450 C   0  0  0  0  0  2  0  0  0  0  0  0
  -30.9270  -14.8440   19.9060 C   0  0  0  0  0  0  0  0  0  0  0  0
  -30.6970  -12.5360   19.0140 C   0  0  0  0  0  2  0  0  0  0  0  0
  -29.7370  -12.5470   17.8080 C   0  0  0  0  0  2  0  0  0  0  0  0
  -28.2720  -12.4200   18.2710 C   0  0  0  0  0  2  0  0  0  0  0  0
  -27.9250  -13.3670   19.4510 C   0  0  0  0  0  3  0  0  0  0  0  0
  -29.0000  -13.3270   20.5570 C   0  0  0  0  0  2  0  0  0  0  0  0
  -30.2890  -13.6290   19.9210 N   0  0  0  0  0  0  0  0  0  0  0  0
  -32.1030  -14.9290   19.5330 O   0  0  0  0  0  0  0  0  0  0  0  0
  -30.1720  -15.9800   20.0850 N   0  0  0  0  0  0  0  0  0  0  0  0
  -29.1990  -15.8460   20.3220 H   0  0  0  0  0  0  0  0  0  0  0  0
  -25.5800  -14.0160   20.2660 C   0  0  0  0  0  0  0  0  0  0  0  0
  -24.5100  -13.2660   20.6730 C   0  0  0  0  0  0  0  0  0  0  0  0
  -24.9400  -11.9050   20.6240 C   0  0  0  0  0  0  0  0  0  0  0  0
  -26.5920  -13.1120   19.9870 N   0  0  0  0  0  0  0  0  0  0  0  0
  -26.2160  -11.8370   20.2660 N   0  0  0  0  0  0  0  0  0  0  0  0
  -24.1910  -10.6580   20.8400 C   0  0  0  0  0  0  0  0  0  0  0  0
  -24.6040   -9.7060   21.7970 C   0  0  0  0  0  3  0  0  0  0  0  0
  -23.8600   -8.5230   21.9990 C   0  0  0  0  0  3  0  0  0  0  0  0
  -22.6840   -8.2870   21.2450 C   0  0  0  0  0  0  0  0  0  0  0  0
  -22.2910   -9.2280   20.2760 C   0  0  0  0  0  3  0  0  0  0  0  0
  -23.0370  -10.4010   20.0730 C   0  0  0  0  0  3  0  0  0  0  0  0
  -21.9150   -7.1550   21.3510 O   0  0  0  0  0  0  0  0  0  0  0  0
  -21.8050   -6.4690   22.5360 C   0  0  0  0  0  0  0  0  0  0  0  0
  -21.3370   -7.0890   23.7150 C   0  0  0  0  0  3  0  0  0  0  0  0
  -21.1730   -6.3310   24.8910 C   0  0  0  0  0  3  0  0  0  0  0  0
  -21.4670   -4.9530   24.8890 C   0  0  0  0  0  0  0  0  0  0  0  0
  -21.9290   -4.3340   23.7140 C   0  0  0  0  0  3  0  0  0  0  0  0
  -22.0940   -5.0900   22.5400 C   0  0  0  0  0  0  0  0  0  0  0  0
  -22.5180   -4.4830   21.4040 F   0  0  0  0  0  0  0  0  0  0  0  0
  -21.3010   -4.2230   26.0150 F   0  0  0  0  0  0  0  0  0  0  0  0
  -23.1360  -13.7760   20.9920 C   0  0  0  0  0  0  0  0  0  0  0  0
  -22.4250  -13.1010   21.8880 N   0  0  0  0  0  0  0  0  0  0  0  0
  -22.7010  -14.8060   20.4800 O   0  0  0  0  0  0  0  0  0  0  0  0
  -22.7910  -12.2670   22.3240 H   0  0  0  0  0  0  0  0  0  0  0  0
  -21.5000  -13.4220   22.1370 H   0  0  0  0  0  0  0  0  0  0  0  0
  -25.7760  -15.3840   20.0860 N   0  0  0  0  0  0  0  0  0  0  0  0
  -25.0340  -16.0620   20.2210 H   0  0  0  0  0  0  0  0  0  0  0  0
  -26.6130  -15.7900   19.6920 H   0  0  0  0  0  0  0  0  0  0  0  0
  -29.7620  -24.2900   19.9430 C   0  0  0  0  0  2  0  0  0  0  0  0
  -28.4720  -25.1750   19.6480 C   0  0  0  0  0  2  0  0  0  0  0  0
  -28.5870  -26.6350   19.8920 O   0  0  0  0  0  0  0  0  0  0  0  0
  -24.5930  -31.6940   23.1550 C   0  0  0  0  0  0  0  0  0  0  0  0
  -27.4200  -27.4160   19.8870 C   0  0  0  0  0  0  0  0  0  0  0  0
  -23.4590  -30.3250   21.4400 C   0  0  0  0  0  3  0  0  0  0  0  0
  -24.9820  -28.9100   19.9520 C   0  0  0  0  0  0  0  0  0  0  0  0
  -25.9810  -30.7670   21.2830 C   0  0  0  0  0  2  0  0  0  0  0  0
  -26.1260  -29.4260   20.5730 C   0  0  0  0  0  0  0  0  0  0  0  0
  -27.3480  -28.6910   20.5320 C   0  0  0  0  0  3  0  0  0  0  0  0
  -26.2450  -26.9520   19.2520 C   0  0  0  0  0  3  0  0  0  0  0  0
  -25.0420  -27.6800   19.2860 C   0  0  0  0  0  3  0  0  0  0  0  0
  -23.7100  -29.7270   20.0290 C   0  0  0  0  0  2  0  0  0  0  0  0
  -24.6960  -30.9440   22.0170 N   0  0  0  0  0  0  0  0  0  0  0  0
  -23.4950  -31.8970   23.6960 O   0  0  0  0  0  0  0  0  0  0  0  0
  -22.8380  -29.2320   22.3460 C   0  0  0  0  0  0  0  0  0  0  0  0
  -21.5210  -29.0050   22.2080 N   0  0  0  0  0  0  0  0  0  0  0  0
  -23.5420  -28.5970   23.1370 O   0  0  0  0  0  0  0  0  0  0  0  0
  -21.0080  -29.5810   21.5510 H   0  0  0  0  0  0  0  0  0  0  0  0
  -18.1960  -27.6460   22.6370 C   0  0  0  0  0  0  0  0  0  0  0  0
  -20.7410  -27.9970   22.9290 C   0  0  0  0  0  3  0  0  0  0  0  0
  -20.9060  -26.6010   22.2880 C   0  0  0  0  0  2  0  0  0  0  0  0
  -19.8190  -26.2810   21.2560 C   0  0  0  0  0  2  0  0  0  0  0  0
  -18.4300  -26.3390   21.9000 C   0  0  0  0  0  2  0  0  0  0  0  0
  -19.2810  -28.4310   23.1090 C   0  0  0  0  0  0  0  0  0  0  0  0
  -19.0100  -29.6530   23.7620 C   0  0  0  0  0  3  0  0  0  0  0  0
  -17.6870  -30.0920   23.9450 C   0  0  0  0  0  3  0  0  0  0  0  0
  -16.6150  -29.3030   23.4910 C   0  0  0  0  0  3  0  0  0  0  0  0
  -16.8710  -28.0820   22.8420 C   0  0  0  0  0  3  0  0  0  0  0  0
  -25.8410  -32.3560   23.8140 C   0  0  0  0  0  3  0  0  0  0  0  0
  -25.4790  -33.7360   24.1650 N   0  0  0  0  0  0  0  0  0  0  0  0
  -25.7950  -34.8150   23.4370 C   0  0  0  0  0  0  0  0  0  0  0  0
  -26.4920  -34.7550   22.4200 O   0  0  0  0  0  0  0  0  0  0  0  0
  -24.8580  -33.8510   24.9520 H   0  0  0  0  0  0  0  0  0  0  0  0
  -24.0180  -36.5610   23.0850 C   0  0  0  0  0  1  0  0  0  0  0  0
  -25.2560  -36.1790   23.9120 C   0  0  0  0  0  3  0  0  0  0  0  0
  -27.3460  -37.1110   24.8000 C   0  0  0  0  0  1  0  0  0  0  0  0
  -26.2580  -37.2650   23.8380 N   0  0  0  0  0  0  0  0  0  0  0  0
  -25.8230  -38.1680   24.0000 H   0  0  0  0  0  0  0  0  0  0  0  0
  -26.3550  -31.5770   25.0860 C   0  0  1  0  0  0  0  0  0  0  0  0
  -25.2480  -31.2860   26.1280 C   0  0  0  0  0  1  0  0  0  0  0  0
  -26.9850  -30.2240   24.6780 C   0  0  0  0  0  1  0  0  0  0  0  0
  -27.4660  -32.3920   25.7880 C   0  0  0  0  0  1  0  0  0  0  0  0
  2  1  1  0
  5  4  1  0
  5  3  1  0
  5  1  1  0
  6  2  1  0
  6  3  1  0
  7 51  1  6
  7  4  1  0
  7  6  1  0
  8  7  1  0
 10  8  1  0
 10  9  1  0
 11 12  1  0
 11 10  1  0
 11  9  1  0
 12 21  1  0
 13 19  1  0
 13 21  1  0
 14 19  1  0
 15 16  1  0
 15 14  1  0
 17 16  1  0
 17 26  1  0
 17 18  1  0
 19 18  1  0
 20 13  2  0
 21 22  1  0
 23 24  2  0
 24 43  1  0
 25 24  1  0
 25 28  1  0
 26 23  1  0
 26 27  1  0
 27 25  2  0
 28 29  1  0
 29 30  2  0
 31 34  1  0
 31 30  1  0
 32 31  2  0
 33 32  1  0
 33 28  2  0
 34 35  1  0
 35 40  2  0
 35 36  1  0
 36 37  2  0
 38 37  1  0
 38 42  1  0
 39 38  2  0
 40 39  1  0
 41 40  1  0
 43 44  1  0
 44 47  1  0
 44 46  1  0
 45 43  2  0
 48 49  1  0
 48 23  1  0
 50 48  1  0
 52 53  1  0
 52 51  1  0
 54 65  2  0
 55 53  1  0
 55 60  1  0
 56 64  1  0
 56 66  1  0
 57 63  1  0
 57 59  1  0
 58 64  1  0
 59 58  1  0
 60 59  2  0
 61 62  1  0
 61 55  2  0
 62 57  2  0
 63 56  1  0
 64 54  1  0
 66 68  2  0
 67 66  1  0
 69 67  1  0
 70 79  2  0
 70 75  1  0
 71 67  1  0
 71 75  1  0
 72 71  1  0
 73 74  1  0
 73 72  1  0
 74 70  1  0
 75 76  2  0
 76 77  1  0
 78 77  2  0
 79 78  1  0
 80 54  1  0
 80 81  1  0
 80 90  1  0
 81 84  1  0
 82 86  1  0
 82 81  1  0
 83 82  2  0
 86 85  1  0
 88 86  1  0
 88 89  1  0
 88 87  1  0
 90 93  1  1
 90 91  1  0
 92 90  1  0
M  ISO  4  13 100  21 100  52 101  53 101
M  END
>  <TORSDO>  (18) 
F 21

>  <SCORE>  (18) 
-11.492

>  <name>  (18) 
17

>  <ligand_id>  (18) 
17

>  <original_smiles>  (18) 
[H]c1c([H])c([H])c2c(c1[H])C([H])([H])C([H])([H])C([H])([H])C2([H])N([H])C(=O)C1([H])N(C(=O)C([H])(N([H])C(=O)C([H])(N([H])C([H])([H])[H])C([H])([H])[H])C(C([H])([H])[H])(C([H])([H])[H])C([H])([H])[H])C([H])([H])c2c([H])c(OC([H])([H])C([H])([H])C3(C([H])([H])C4([H])C([H])([H])C4([H])C([H])([H])N([H])C(=O)N4C([H])([H])C([H])([H])C([H])([H])C([H])(n5nc(-c6c([H])c([H])c(Oc7c([H])c([H])c(F)c([H])c7F)c([H])c6[H])c(C(=O)N([H])[H])c5N([H])[H])C4([H])[H])C([H])([H])C4([H])C([H])([H])C([H])([H])C3([H])C4([H])[H])c([H])c([H])c2C1([H])[H]

>  <smiles>  (18) 
[H]c1c([H])c([H])c2c(c1[H])C([H])([H])C([H])([H])C([H])([H])C2([H])N([H])C(=O)C1([H])N(C(=O)C([H])(N([H])C(=O)C([H])(N([H])C([H])([H])[H])C([H])([H])[H])C(C([H])([H])[H])(C([H])([H])[H])C([H])([H])[H])C([H])([H])c2c([H])c(OC([H])([H])C([H])([H])C3(C([H])([H])C4([H])C([H])([H])C4([H])C([H])([H])N([H])C(=O)N4C([H])([H])C([H])([H])C([H])([H])C([H])(n5nc(-c6c([H])c([H])c(Oc7c([H])c([H])c(F)c([H])c7F)c([H])c6[H])c(C(=O)N([H])[H])c5N([H])[H])C4([H])[H])C([H])([H])C4([H])C([H])([H])C([H])([H])C3([H])C4([H])[H])c([H])c([H])c2C1([H])[H]

$$$$
18:0:0
     RDKit          3D

 91100  0  0  1  0  0  0  0  0999 V2000
  -30.6750  -14.9440   20.1090 C   0  0  0  0  0  0  0  0  0  0  0  0
  -30.4000  -12.5980   19.2600 C   0  0  0  0  0  2  0  0  0  0  0  0
  -29.4460  -12.4870   18.0550 C   0  0  0  0  0  2  0  0  0  0  0  0
  -28.0060  -12.2870   18.5460 C   0  0  0  0  0  2  0  0  0  0  0  0
  -27.6190  -13.2850   19.6680 C   0  0  0  0  0  3  0  0  0  0  0  0
  -28.7030  -13.3950   20.7660 C   0  0  0  0  0  2  0  0  0  0  0  0
  -29.9590  -13.7540   20.0970 N   0  0  0  0  0  0  0  0  0  0  0  0
  -31.8480  -14.8520   19.7570 O   0  0  0  0  0  0  0  0  0  0  0  0
  -27.9920  -19.2980   19.9170 C   0  0  0  0  0  2  0  0  0  0  0  0
  -30.2040  -20.2400   20.1180 C   0  0  0  0  0  2  0  0  0  0  0  0
  -28.8400  -16.7470   20.8240 C   0  0  0  0  0  2  0  0  0  0  0  0
  -30.7850  -17.5530   19.7790 C   0  0  0  0  0  3  0  0  0  0  0  0
  -28.8080  -18.3480   20.8850 C   0  0  0  0  0  3  0  0  0  0  0  0
  -30.2260  -18.7460   20.6400 C   0  0  0  0  0  3  0  0  0  0  0  0
  -28.7860  -20.6440   19.6010 C   0  0  0  0  0  3  0  0  0  0  0  0
  -30.1190  -16.2500   20.2170 N   0  0  0  0  0  0  0  0  0  0  0  0
  -25.2820  -13.8660   20.5330 C   0  0  0  0  0  0  0  0  0  0  0  0
  -24.2240  -13.0870   20.9130 C   0  0  0  0  0  0  0  0  0  0  0  0
  -24.6680  -11.7340   20.8030 C   0  0  0  0  0  0  0  0  0  0  0  0
  -26.3030  -12.9860   20.2160 N   0  0  0  0  0  0  0  0  0  0  0  0
  -25.9450  -11.6960   20.4450 N   0  0  0  0  0  0  0  0  0  0  0  0
  -23.9320  -10.4730   20.9640 C   0  0  0  0  0  0  0  0  0  0  0  0
  -24.3510   -9.4840   21.8810 C   0  0  0  0  0  3  0  0  0  0  0  0
  -23.6140   -8.2900   22.0330 C   0  0  0  0  0  3  0  0  0  0  0  0
  -22.4440   -8.0770   21.2670 C   0  0  0  0  0  0  0  0  0  0  0  0
  -22.0430   -9.0540   20.3400 C   0  0  0  0  0  3  0  0  0  0  0  0
  -22.7790  -10.2400   20.1850 C   0  0  0  0  0  3  0  0  0  0  0  0
  -21.6770   -6.9380   21.3290 O   0  0  0  0  0  0  0  0  0  0  0  0
  -21.5570   -6.2150   22.4880 C   0  0  0  0  0  0  0  0  0  0  0  0
  -21.0170   -6.7780   23.6660 C   0  0  0  0  0  3  0  0  0  0  0  0
  -20.8490   -5.9790   24.8140 C   0  0  0  0  0  3  0  0  0  0  0  0
  -21.2090   -4.6180   24.7850 C   0  0  0  0  0  0  0  0  0  0  0  0
  -21.7410   -4.0550   23.6110 C   0  0  0  0  0  3  0  0  0  0  0  0
  -21.9110   -4.8510   22.4650 C   0  0  0  0  0  0  0  0  0  0  0  0
  -22.4030   -4.2980   21.3290 F   0  0  0  0  0  0  0  0  0  0  0  0
  -21.0410   -3.8470   25.8850 F   0  0  0  0  0  0  0  0  0  0  0  0
  -22.8450  -13.5690   21.2590 C   0  0  0  0  0  0  0  0  0  0  0  0
  -22.1510  -12.8520   22.1340 N   0  0  0  0  0  0  0  0  0  0  0  0
  -22.3990  -14.6170   20.7950 O   0  0  0  0  0  0  0  0  0  0  0  0
  -22.5270  -12.0010   22.5260 H   0  0  0  0  0  0  0  0  0  0  0  0
  -21.2300  -13.1550   22.4160 H   0  0  0  0  0  0  0  0  0  0  0  0
  -25.4530  -15.2390   20.4020 N   0  0  0  0  0  0  0  0  0  0  0  0
  -24.6870  -15.8880   20.5470 H   0  0  0  0  0  0  0  0  0  0  0  0
  -26.2860  -15.6820   20.0340 H   0  0  0  0  0  0  0  0  0  0  0  0
  -32.3320  -17.6180   19.7100 C   0  0  0  0  0  0  0  0  0  0  0  0
  -32.9830  -17.4990   18.3310 C   0  0  0  0  0  1  0  0  0  0  0  0
  -33.0440  -17.7610   20.7070 O   0  0  0  0  0  0  0  0  0  0  0  0
  -28.1360  -22.0950   20.0340 C   0  0  0  0  0  2  0  0  0  0  0  0
  -28.5140  -23.5520   19.3800 C   0  0  0  0  0  3  0  0  0  0  0  0
  -27.6910  -24.8970   19.8280 C   0  0  0  0  0  3  0  0  0  0  0  0
  -27.9820  -26.3210   19.3720 O   0  0  0  0  0  0  0  0  0  0  0  0
  -24.6180  -31.7030   22.9810 C   0  0  0  0  0  0  0  0  0  0  0  0
  -26.9410  -27.2850   19.4520 C   0  0  0  0  0  0  0  0  0  0  0  0
  -23.3040  -30.4650   21.3020 C   0  0  0  0  0  3  0  0  0  0  0  0
  -24.6430  -29.0060   19.6790 C   0  0  0  0  0  0  0  0  0  0  0  0
  -25.8450  -30.7230   21.0230 C   0  0  0  0  0  2  0  0  0  0  0  0
  -25.8590  -29.3980   20.2590 C   0  0  0  0  0  0  0  0  0  0  0  0
  -27.0120  -28.5520   20.1340 C   0  0  0  0  0  3  0  0  0  0  0  0
  -25.7080  -26.9860   18.8310 C   0  0  0  0  0  3  0  0  0  0  0  0
  -24.5740  -27.8080   18.9570 C   0  0  0  0  0  3  0  0  0  0  0  0
  -23.4360  -29.9070   19.8630 C   0  0  0  0  0  2  0  0  0  0  0  0
  -24.6110  -30.9800   21.8220 N   0  0  0  0  0  0  0  0  0  0  0  0
  -23.5690  -31.9590   23.5880 O   0  0  0  0  0  0  0  0  0  0  0  0
  -22.6680  -29.3840   22.2110 C   0  0  0  0  0  0  0  0  0  0  0  0
  -21.3370  -29.2170   22.1170 N   0  0  0  0  0  0  0  0  0  0  0  0
  -23.3690  -28.7020   22.9630 O   0  0  0  0  0  0  0  0  0  0  0  0
  -20.8260  -29.8200   21.4860 H   0  0  0  0  0  0  0  0  0  0  0  0
  -17.9750  -27.9870   22.6580 C   0  0  0  0  0  0  0  0  0  0  0  0
  -20.5410  -28.2310   22.8520 C   0  0  0  0  0  3  0  0  0  0  0  0
  -20.6210  -26.8420   22.1820 C   0  0  0  0  0  2  0  0  0  0  0  0
  -19.4840  -26.5860   21.1860 C   0  0  0  0  0  2  0  0  0  0  0  0
  -18.1230  -26.6870   21.8850 C   0  0  0  0  0  2  0  0  0  0  0  0
  -19.1090  -28.7190   23.0950 C   0  0  0  0  0  0  0  0  0  0  0  0
  -18.9160  -29.9400   23.7790 C   0  0  0  0  0  3  0  0  0  0  0  0
  -17.6200  -30.4290   24.0270 C   0  0  0  0  0  3  0  0  0  0  0  0
  -16.4990  -29.6930   23.6050 C   0  0  0  0  0  3  0  0  0  0  0  0
  -16.6770  -28.4720   22.9290 C   0  0  0  0  0  3  0  0  0  0  0  0
  -25.9430  -32.2660   23.5790 C   0  0  0  0  0  3  0  0  0  0  0  0
  -26.5260  -31.3790   24.7510 C   0  0  1  0  0  0  0  0  0  0  0  0
  -25.4940  -31.0550   25.8570 C   0  0  0  0  0  1  0  0  0  0  0  0
  -27.0760  -30.0360   24.2160 C   0  0  0  0  0  1  0  0  0  0  0  0
  -27.7240  -32.1030   25.4100 C   0  0  0  0  0  1  0  0  0  0  0  0
  -25.6690  -33.6290   24.0540 N   0  0  0  0  0  0  0  0  0  0  0  0
  -25.9640  -34.7480   23.3780 C   0  0  0  0  0  0  0  0  0  0  0  0
  -26.5720  -34.7400   22.3040 O   0  0  0  0  0  0  0  0  0  0  0  0
  -25.1190  -33.7110   24.8960 H   0  0  0  0  0  0  0  0  0  0  0  0
  -24.2470  -36.5880   23.2880 C   0  0  0  0  0  1  0  0  0  0  0  0
  -25.5190  -36.0900   23.9920 C   0  0  0  0  0  3  0  0  0  0  0  0
  -27.6990  -36.8680   24.8080 C   0  0  0  0  0  1  0  0  0  0  0  0
  -26.5590  -37.1410   23.9360 N   0  0  0  0  0  0  0  0  0  0  0  0
  -26.1710  -38.0420   24.1970 H   0  0  0  0  0  0  0  0  0  0  0  0
  1 16  1  0
  2  7  1  0
  3  4  1  0
  3  2  1  0
  5  4  1  0
  5 20  1  0
  5  6  1  0
  7  1  1  0
  7  6  1  0
  8  1  2  0
 11 13  1  0
 12 45  1  0
 12 16  1  0
 12 14  1  0
 13  9  1  0
 14 10  1  0
 14 13  1  0
 15  9  1  0
 15 48  1  0
 15 10  1  0
 16 11  1  0
 17 18  2  0
 18 37  1  0
 19 18  1  0
 19 22  1  0
 20 21  1  0
 20 17  1  0
 21 19  2  0
 22 23  1  0
 23 24  2  0
 25 28  1  0
 25 24  1  0
 26 25  2  0
 27 26  1  0
 27 22  2  0
 28 29  1  0
 29 30  1  0
 30 31  2  0
 32 31  1  0
 32 36  1  0
 33 32  2  0
 34 29  2  0
 34 33  1  0
 35 34  1  0
 37 38  1  0
 38 41  1  0
 38 40  1  0
 39 37  2  0
 42 17  1  0
 42 43  1  0
 44 42  1  0
 45 47  2  0
 46 45  1  0
 49 50  2  0
 49 48  1  0
 51 53  1  0
 51 50  1  0
 52 63  2  0
 53 58  1  0
 54 62  1  0
 54 64  1  0
 55 61  1  0
 55 57  1  0
 56 62  1  0
 57 56  1  0
 58 57  2  0
 59 60  1  0
 59 53  2  0
 60 55  2  0
 61 54  1  0
 62 52  1  0
 64 66  2  0
 65 64  1  0
 67 65  1  0
 68 77  2  0
 68 73  1  0
 69 65  1  0
 69 73  1  0
 70 69  1  0
 71 72  1  0
 71 70  1  0
 72 68  1  0
 73 74  2  0
 74 75  1  0
 76 75  2  0
 77 76  1  0
 78 52  1  0
 78 83  1  0
 78 79  1  0
 79 82  1  1
 79 80  1  0
 81 79  1  0
 83 86  1  0
 84 88  1  0
 84 83  1  0
 85 84  2  0
 88 87  1  0
 90 88  1  0
 90 91  1  0
 90 89  1  0
M  ISO  4   1 100  16 100  50 101  51 101
M  END
>  <TORSDO>  (19) 
F 19

>  <SCORE>  (19) 
-13.713

>  <name>  (19) 
18

>  <ligand_id>  (19) 
18

>  <original_smiles>  (19) 
[H]c1c([H])c([H])c2c(c1[H])C([H])([H])C([H])([H])C([H])([H])C2([H])N([H])C(=O)C1([H])N(C(=O)C([H])(N([H])C(=O)C([H])(N([H])C([H])([H])[H])C([H])([H])[H])C(C([H])([H])[H])(C([H])([H])[H])C([H])([H])[H])C([H])([H])c2c([H])c(OC([H])([H])C([H])([H])C([H])([H])C3([H])C([H])([H])C4([H])C([H])([H])N(C(=O)N5C([H])([H])C([H])([H])C([H])([H])C([H])(n6nc(-c7c([H])c([H])c(Oc8c([H])c([H])c(F)c([H])c8F)c([H])c7[H])c(C(=O)N([H])[H])c6N([H])[H])C5([H])[H])C([H])(C(=O)C([H])([H])[H])C4([H])C3([H])[H])c([H])c([H])c2C1([H])[H]

>  <smiles>  (19) 
[H]c1c([H])c([H])c2c(c1[H])C([H])([H])C([H])([H])C([H])([H])C2([H])N([H])C(=O)C1([H])N(C(=O)C([H])(N([H])C(=O)C([H])(N([H])C([H])([H])[H])C([H])([H])[H])C(C([H])([H])[H])(C([H])([H])[H])C([H])([H])[H])C([H])([H])c2c([H])c(OC([H])([H])C([H])([H])C([H])([H])C3([H])C([H])([H])C4([H])C([H])([H])N(C(=O)N5C([H])([H])C([H])([H])C([H])([H])C([H])(n6nc(-c7c([H])c([H])c(Oc8c([H])c([H])c(F)c([H])c8F)c([H])c7[H])c(C(=O)N([H])[H])c6N([H])[H])C5([H])[H])C([H])(C(=O)C([H])([H])[H])C4([H])C3([H])[H])c([H])c([H])c2C1([H])[H]

$$$$
19:0:0
     RDKit          3D

 95103  0  0  1  0  0  0  0  0999 V2000
  -25.6210  -17.8860   20.0360 C   0  0  0  0  0  2  0  0  0  0  0  0
  -25.4960  -13.9110   22.3510 C   0  0  0  0  0  1  0  0  0  0  0  0
  -26.8810  -14.0430   18.7580 C   0  0  0  0  0  3  0  0  0  0  0  0
  -25.0630  -15.4530   21.7870 C   0  0  0  0  0  2  0  0  0  0  0  0
  -26.1510  -15.4240   19.0790 C   0  0  0  0  0  3  0  0  0  0  0  0
  -27.2530  -12.8820   19.8450 C   0  0  0  0  0  3  0  0  0  0  0  0
  -25.5200  -16.1730   20.3480 C   0  0  0  0  0  3  0  0  0  0  0  0
  -31.2930  -12.5240   21.8440 C   0  0  0  0  0  0  0  0  0  0  0  0
  -31.6710  -10.3250   21.0640 C   0  0  0  0  0  2  0  0  0  0  0  0
  -30.9280  -10.5570   19.7430 C   0  0  0  0  0  2  0  0  0  0  0  0
  -29.4010  -10.4440   20.0590 C   0  0  0  0  0  2  0  0  0  0  0  0
  -28.9470  -10.9950   21.4930 C   0  0  0  0  0  3  0  0  0  0  0  0
  -29.8190  -10.7310   22.6220 C   0  0  0  0  0  2  0  0  0  0  0  0
  -31.0550  -11.2120   22.0440 N   0  0  0  0  0  0  0  0  0  0  0  0
  -32.3640  -12.8550   22.4090 O   0  0  0  0  0  0  0  0  0  0  0  0
  -30.9400  -14.5410   18.8080 C   0  0  0  0  0  2  0  0  0  0  0  0
  -29.4400  -14.4020   18.8210 C   0  0  0  0  0  2  0  0  0  0  0  0
  -31.2950  -14.3770   20.2710 C   0  0  0  0  0  2  0  0  0  0  0  0
  -29.0930  -13.1700   19.7170 C   0  0  0  0  0  3  0  0  0  0  0  0
  -30.4840  -13.2640   20.7900 N   0  0  0  0  0  0  0  0  0  0  0  0
  -27.3130  -13.3080   21.4780 C   0  0  0  0  0  3  0  0  0  0  0  0
  -25.1410  -12.5880   20.7770 C   0  0  0  0  0  2  0  0  0  0  0  0
  -25.3670  -10.9270   20.9220 C   0  0  0  0  0  0  0  0  0  0  0  0
  -27.7710  -11.6190   21.6720 N   0  0  0  0  0  0  0  0  0  0  0  0
  -26.7250  -10.5440   21.3560 N   0  0  0  0  0  0  0  0  0  0  0  0
  -24.4790   -9.6730   20.9820 C   0  0  0  0  0  0  0  0  0  0  0  0
  -24.8510   -8.4440   21.6340 C   0  0  0  0  0  3  0  0  0  0  0  0
  -23.9930   -7.3030   21.6780 C   0  0  0  0  0  3  0  0  0  0  0  0
  -22.7210   -7.3520   21.0610 C   0  0  0  0  0  0  0  0  0  0  0  0
  -22.3640   -8.5420   20.3960 C   0  0  0  0  0  3  0  0  0  0  0  0
  -23.2180   -9.6660   20.3580 C   0  0  0  0  0  3  0  0  0  0  0  0
  -21.8120   -6.3110   20.9950 O   0  0  0  0  0  0  0  0  0  0  0  0
  -21.9980   -5.0960   21.6120 C   0  0  0  0  0  0  0  0  0  0  0  0
  -22.0740   -4.9660   23.0170 C   0  0  0  0  0  3  0  0  0  0  0  0
  -22.1920   -3.6890   23.6060 C   0  0  0  0  0  3  0  0  0  0  0  0
  -22.2250   -2.5360   22.7980 C   0  0  0  0  0  0  0  0  0  0  0  0
  -22.1320   -2.6580   21.4020 C   0  0  0  0  0  3  0  0  0  0  0  0
  -22.0130   -3.9300   20.8130 C   0  0  0  0  0  0  0  0  0  0  0  0
  -21.8950   -4.0310   19.4670 F   0  0  0  0  0  0  0  0  0  0  0  0
  -22.3440   -1.3120   23.3650 F   0  0  0  0  0  0  0  0  0  0  0  0
  -23.6950  -13.0190   20.8660 C   0  0  0  0  0  0  0  0  0  0  0  0
  -22.9070  -12.3350   21.7120 N   0  0  0  0  0  0  0  0  0  0  0  0
  -23.2830  -13.9680   20.2400 O   0  0  0  0  0  0  0  0  0  0  0  0
  -23.2700  -11.5670   22.2540 H   0  0  0  0  0  0  0  0  0  0  0  0
  -21.9410  -12.6050   21.8300 H   0  0  0  0  0  0  0  0  0  0  0  0
  -28.1680  -14.3660   21.5880 N   0  0  0  0  0  0  0  0  0  0  0  0
  -27.6210  -15.1730   21.3160 H   0  0  0  0  0  0  0  0  0  0  0  0
  -28.9460  -14.2700   20.9520 H   0  0  0  0  0  0  0  0  0  0  0  0
  -26.8920  -19.0520   19.5320 C   0  0  0  0  0  2  0  0  0  0  0  0
  -26.8940  -20.6190   18.6430 C   0  0  0  0  0  2  0  0  0  0  0  0
  -27.9200  -22.1080   18.5720 C   0  0  0  0  0  3  0  0  0  0  0  0
  -29.9440  -20.7210   17.6280 C   0  0  0  0  0  1  0  0  0  0  0  0
  -29.4460  -21.9050   18.4510 C   0  0  0  0  0  2  0  0  0  0  0  0
  -27.6140  -23.7560   17.9420 C   0  0  0  0  0  2  0  0  0  0  0  0
  -28.4780  -25.1280   17.5890 O   0  0  0  0  0  0  0  0  0  0  0  0
  -26.4260  -29.8950   22.7360 C   0  0  0  0  0  0  0  0  0  0  0  0
  -27.9270  -26.4410   17.8820 C   0  0  0  0  0  0  0  0  0  0  0  0
  -24.9160  -29.2510   20.9100 C   0  0  0  0  0  3  0  0  0  0  0  0
  -26.0060  -28.3800   18.7570 C   0  0  0  0  0  0  0  0  0  0  0  0
  -27.4460  -29.4600   20.4630 C   0  0  0  0  0  2  0  0  0  0  0  0
  -27.2820  -28.4200   19.3340 C   0  0  0  0  0  0  0  0  0  0  0  0
  -28.2700  -27.4500   18.8900 C   0  0  0  0  0  3  0  0  0  0  0  0
  -26.7500  -26.6910   17.1790 C   0  0  0  0  0  3  0  0  0  0  0  0
  -25.7750  -27.5760   17.6400 C   0  0  0  0  0  3  0  0  0  0  0  0
  -24.8880  -29.2080   19.3590 C   0  0  0  0  0  2  0  0  0  0  0  0
  -26.2940  -29.5410   21.4220 N   0  0  0  0  0  0  0  0  0  0  0  0
  -25.4460  -29.9680   23.4930 O   0  0  0  0  0  0  0  0  0  0  0  0
  -24.3250  -27.9390   21.4930 C   0  0  0  0  0  0  0  0  0  0  0  0
  -23.0190  -27.7020   21.2700 N   0  0  0  0  0  0  0  0  0  0  0  0
  -25.0380  -27.1560   22.1260 O   0  0  0  0  0  0  0  0  0  0  0  0
  -22.4900  -28.3930   20.7560 H   0  0  0  0  0  0  0  0  0  0  0  0
  -19.8850  -25.9200   20.9260 C   0  0  0  0  0  0  0  0  0  0  0  0
  -22.2790  -26.5150   21.7070 C   0  0  0  0  0  3  0  0  0  0  0  0
  -22.7300  -25.2550   20.9290 C   0  0  0  0  0  2  0  0  0  0  0  0
  -21.8770  -24.9750   19.6860 C   0  0  0  0  0  2  0  0  0  0  0  0
  -20.4100  -24.7760   20.0760 C   0  0  0  0  0  2  0  0  0  0  0  0
  -20.7620  -26.7450   21.6800 C   0  0  0  0  0  0  0  0  0  0  0  0
  -20.2220  -27.8140   22.4260 C   0  0  0  0  0  3  0  0  0  0  0  0
  -18.8360  -28.0640   22.4270 C   0  0  0  0  0  3  0  0  0  0  0  0
  -17.9710  -27.2360   21.6890 C   0  0  0  0  0  3  0  0  0  0  0  0
  -18.4970  -26.1650   20.9450 C   0  0  0  0  0  3  0  0  0  0  0  0
  -27.8140  -30.2470   23.3450 C   0  0  0  0  0  3  0  0  0  0  0  0
  -27.6480  -31.4610   24.1620 N   0  0  0  0  0  0  0  0  0  0  0  0
  -28.1780  -32.6570   23.8750 C   0  0  0  0  0  0  0  0  0  0  0  0
  -28.9260  -32.8390   22.9100 O   0  0  0  0  0  0  0  0  0  0  0  0
  -27.0050  -31.3980   24.9380 H   0  0  0  0  0  0  0  0  0  0  0  0
  -26.8660  -34.7960   24.0840 C   0  0  0  0  0  1  0  0  0  0  0  0
  -27.8270  -33.8380   24.8040 C   0  0  0  0  0  3  0  0  0  0  0  0
  -29.8420  -33.8310   26.2100 C   0  0  0  0  0  1  0  0  0  0  0  0
  -29.0110  -34.5880   25.2770 N   0  0  0  0  0  0  0  0  0  0  0  0
  -28.7320  -35.4530   25.7320 H   0  0  0  0  0  0  0  0  0  0  0  0
  -28.4180  -29.0790   24.2180 C   0  0  1  0  0  0  0  0  0  0  0  0
  -27.4460  -28.5350   25.2910 C   0  0  0  0  0  1  0  0  0  0  0  0
  -28.8460  -27.8870   23.3310 C   0  0  0  0  0  1  0  0  0  0  0  0
  -29.6970  -29.5720   24.9350 C   0  0  0  0  0  1  0  0  0  0  0  0
  1  7  1  0
  3  5  2  0
  4  2  1  0
  6  3  1  0
  6 21  1  0
  7  5  1  0
  7  4  1  0
  8 14  1  0
  8 15  2  0
  9 14  1  0
 10 11  1  0
 10  9  1  0
 12 11  1  0
 12 24  1  0
 12 13  1  0
 14 13  1  0
 16 17  1  0
 16 18  1  0
 18 20  1  0
 19 17  1  0
 19  6  1  0
 19 20  1  0
 20  8  1  0
 21 46  1  0
 21 24  1  0
 22 41  1  0
 22 23  1  0
 23 26  1  0
 23 25  2  0
 25 24  1  0
 26 27  1  0
 27 28  2  0
 29 28  1  0
 30 29  2  0
 31 30  1  0
 31 26  2  0
 32 29  1  0
 32 33  1  0
 33 34  1  0
 34 35  2  0
 36 40  1  0
 36 35  1  0
 37 36  2  0
 38 37  1  0
 38 33  2  0
 39 38  1  0
 41 42  1  0
 42 45  1  0
 42 44  1  0
 43 41  2  0
 47 46  1  0
 48 46  1  0
 49  1  1  0
 50 49  1  0
 51 54  1  0
 51 50  1  0
 52 53  1  0
 53 51  1  0
 55 57  1  0
 55 54  1  0
 56 67  2  0
 57 62  1  0
 58 66  1  0
 58 68  1  0
 59 61  1  0
 59 65  1  0
 60 66  1  0
 61 60  1  0
 62 61  2  0
 63 64  1  0
 63 57  2  0
 64 59  2  0
 65 58  1  0
 66 56  1  0
 68 70  2  0
 69 68  1  0
 71 69  1  0
 72 81  2  0
 72 77  1  0
 73 69  1  0
 74 73  1  0
 75 76  1  0
 75 74  1  0
 76 72  1  0
 77 73  1  0
 77 78  2  0
 78 79  1  0
 80 79  2  0
 81 80  1  0
 82 56  1  0
 82 83  1  0
 82 92  1  0
 83 86  1  0
 84 83  1  0
 84 88  1  0
 85 84  2  0
 88 87  1  0
 88 90  1  0
 90 91  1  0
 90 89  1  0
 92 95  1  1
 92 93  1  0
 94 92  1  0
M  ISO  4   8 100  20 100  54 101  55 101
M  END
>  <TORSDO>  (20) 
F 22

>  <SCORE>  (20) 
-3.888

>  <name>  (20) 
19

>  <ligand_id>  (20) 
19

>  <original_smiles>  (20) 
[H]c1c([H])c([H])c2c(c1[H])C([H])([H])C([H])([H])C([H])([H])C2([H])N([H])C(=O)C1([H])N(C(=O)C([H])(N([H])C(=O)C([H])(N([H])C([H])([H])[H])C([H])([H])[H])C(C([H])([H])[H])(C([H])([H])[H])C([H])([H])[H])C([H])([H])c2c([H])c(OC([H])([H])C([H])(C([H])([H])C([H])([H])[H])C([H])([H])C([H])([H])C([H])([H])c3c([H])c([H])c(C4([H])N(C(=O)N5C([H])([H])C([H])([H])C([H])([H])C([H])(n6nc(-c7c([H])c([H])c(Oc8c([H])c([H])c(F)c([H])c8F)c([H])c7[H])c(C(=O)N([H])[H])c6N([H])[H])C5([H])[H])C([H])([H])C([H])([H])C4([H])[H])c([H])c3[H])c([H])c([H])c2C1([H])[H]

>  <smiles>  (20) 
[H]c1c([H])c([H])c2c(c1[H])C([H])([H])C([H])([H])C([H])([H])C2([H])N([H])C(=O)C1([H])N(C(=O)C([H])(N([H])C(=O)C([H])(N([H])C([H])([H])[H])C([H])([H])[H])C(C([H])([H])[H])(C([H])([H])[H])C([H])([H])[H])C([H])([H])c2c([H])c(OC([H])([H])C([H])(C([H])([H])C([H])([H])[H])C([H])([H])C([H])([H])C([H])([H])c3c([H])c([H])c(C4([H])N(C(=O)N5C([H])([H])C([H])([H])C([H])([H])C([H])(n6nc(-c7c([H])c([H])c(Oc8c([H])c([H])c(F)c([H])c8F)c([H])c7[H])c(C(=O)N([H])[H])c6N([H])[H])C5([H])[H])C([H])([H])C([H])([H])C4([H])[H])c([H])c3[H])c([H])c([H])c2C1([H])[H]

$$$$
20:0:0
     RDKit          3D

 95104  0  0  1  0  0  0  0  0999 V2000
  -30.4090  -18.4970   21.4630 C   0  0  0  0  0  2  0  0  0  0  0  0
  -29.8530  -20.0090   21.4980 C   0  0  0  0  0  2  0  0  0  0  0  0
  -29.9550  -20.4480   18.0290 C   0  0  0  0  0  2  0  0  0  0  0  0
  -29.4670  -18.0970   19.1590 C   0  0  0  0  0  2  0  0  0  0  0  0
  -30.8930  -20.7900   19.1900 C   0  0  0  0  0  3  0  0  0  0  0  0
  -29.1490  -19.6540   19.0680 C   0  0  0  0  0  3  0  0  0  0  0  0
  -29.5860  -17.4820   20.5850 C   0  0  0  0  0  3  0  0  0  0  0  0
  -29.6360  -20.7470   20.1210 C   0  0  1  0  0  0  0  0  0  0  0  0
  -30.5400  -14.8740   20.3720 C   0  0  0  0  0  0  0  0  0  0  0  0
  -30.3960  -12.5830   19.3390 C   0  0  0  0  0  2  0  0  0  0  0  0
  -29.4420  -12.6440   18.1230 C   0  0  0  0  0  2  0  0  0  0  0  0
  -27.9800  -12.4350   18.5680 C   0  0  0  0  0  2  0  0  0  0  0  0
  -27.6050  -13.3190   19.7870 C   0  0  0  0  0  3  0  0  0  0  0  0
  -28.6740  -13.2180   20.8980 C   0  0  0  0  0  2  0  0  0  0  0  0
  -29.9640  -13.6170   20.3110 N   0  0  0  0  0  0  0  0  0  0  0  0
  -31.6940  -15.0340   19.9620 O   0  0  0  0  0  0  0  0  0  0  0  0
  -29.7080  -15.9360   20.7240 N   0  0  0  0  0  0  0  0  0  0  0  0
  -28.8450  -15.5520   21.0840 H   0  0  0  0  0  0  0  0  0  0  0  0
  -25.2230  -13.9010   20.5480 C   0  0  0  0  0  0  0  0  0  0  0  0
  -24.1620  -13.1230   20.9190 C   0  0  0  0  0  0  0  0  0  0  0  0
  -24.6230  -11.7710   20.8620 C   0  0  0  0  0  0  0  0  0  0  0  0
  -26.2640  -13.0240   20.2850 N   0  0  0  0  0  0  0  0  0  0  0  0
  -25.9090  -11.7380   20.5360 N   0  0  0  0  0  0  0  0  0  0  0  0
  -23.8980  -10.5050   21.0420 C   0  0  0  0  0  0  0  0  0  0  0  0
  -24.3240   -9.5370   21.9780 C   0  0  0  0  0  3  0  0  0  0  0  0
  -23.6000   -8.3370   22.1460 C   0  0  0  0  0  3  0  0  0  0  0  0
  -22.4360   -8.0960   21.3810 C   0  0  0  0  0  0  0  0  0  0  0  0
  -22.0280   -9.0530   20.4330 C   0  0  0  0  0  3  0  0  0  0  0  0
  -22.7520  -10.2440   20.2630 C   0  0  0  0  0  3  0  0  0  0  0  0
  -21.6840   -6.9480   21.4580 O   0  0  0  0  0  0  0  0  0  0  0  0
  -21.5980   -6.2210   22.6170 C   0  0  0  0  0  0  0  0  0  0  0  0
  -21.1040   -6.7820   23.8150 C   0  0  0  0  0  3  0  0  0  0  0  0
  -20.9700   -5.9800   24.9660 C   0  0  0  0  0  3  0  0  0  0  0  0
  -21.3190   -4.6180   24.9200 C   0  0  0  0  0  0  0  0  0  0  0  0
  -21.8070   -4.0550   23.7270 C   0  0  0  0  0  3  0  0  0  0  0  0
  -21.9430   -4.8560   22.5800 C   0  0  0  0  0  0  0  0  0  0  0  0
  -22.3940   -4.3040   21.4270 F   0  0  0  0  0  0  0  0  0  0  0  0
  -21.1840   -3.8450   26.0220 F   0  0  0  0  0  0  0  0  0  0  0  0
  -22.7670  -13.5950   21.2160 C   0  0  0  0  0  0  0  0  0  0  0  0
  -22.0490  -12.8880   22.0810 N   0  0  0  0  0  0  0  0  0  0  0  0
  -22.3210  -14.6250   20.7120 O   0  0  0  0  0  0  0  0  0  0  0  0
  -22.4200  -12.0540   22.5130 H   0  0  0  0  0  0  0  0  0  0  0  0
  -21.1150  -13.1870   22.3210 H   0  0  0  0  0  0  0  0  0  0  0  0
  -25.3930  -15.2730   20.3930 N   0  0  0  0  0  0  0  0  0  0  0  0
  -24.6380  -15.9370   20.5280 H   0  0  0  0  0  0  0  0  0  0  0  0
  -26.2430  -15.7060   20.0550 H   0  0  0  0  0  0  0  0  0  0  0  0
  -31.7000  -22.0830   19.0490 C   0  0  0  0  0  0  0  0  0  0  0  0
  -32.3470  -22.5070   20.1260 N   0  0  0  0  0  0  0  0  0  0  0  0
  -31.7730  -22.6820   17.9760 O   0  0  0  0  0  0  0  0  0  0  0  0
  -32.2470  -22.0020   20.9950 H   0  0  0  0  0  0  0  0  0  0  0  0
  -32.9280  -23.3320   20.0920 H   0  0  0  0  0  0  0  0  0  0  0  0
  -28.6850  -22.1150   20.2340 C   0  0  0  0  0  2  0  0  0  0  0  0
  -29.1460  -23.6970   20.3030 C   0  0  0  0  0  3  0  0  0  0  0  0
  -28.0330  -24.8910   20.1620 C   0  0  0  0  0  3  0  0  0  0  0  0
  -28.3010  -26.3840   20.2840 O   0  0  0  0  0  0  0  0  0  0  0  0
  -24.6450  -31.9590   23.2810 C   0  0  0  0  0  0  0  0  0  0  0  0
  -27.2120  -27.3060   20.2360 C   0  0  0  0  0  0  0  0  0  0  0  0
  -23.4330  -30.5670   21.6470 C   0  0  0  0  0  3  0  0  0  0  0  0
  -24.8710  -29.0010   20.2160 C   0  0  0  0  0  0  0  0  0  0  0  0
  -25.9810  -30.8460   21.4660 C   0  0  0  0  0  2  0  0  0  0  0  0
  -26.0490  -29.4600   20.8160 C   0  0  0  0  0  0  0  0  0  0  0  0
  -27.2230  -28.6280   20.8100 C   0  0  0  0  0  3  0  0  0  0  0  0
  -26.0020  -26.9230   19.6130 C   0  0  0  0  0  3  0  0  0  0  0  0
  -24.8560  -27.7420   19.5970 C   0  0  0  0  0  3  0  0  0  0  0  0
  -23.6430  -29.8930   20.2660 C   0  0  0  0  0  2  0  0  0  0  0  0
  -24.7060  -31.1420   22.1880 N   0  0  0  0  0  0  0  0  0  0  0  0
  -23.5620  -32.2480   23.8090 O   0  0  0  0  0  0  0  0  0  0  0  0
  -22.7550  -29.5590   22.6070 C   0  0  0  0  0  0  0  0  0  0  0  0
  -21.4290  -29.3840   22.4700 N   0  0  0  0  0  0  0  0  0  0  0  0
  -23.4230  -28.9370   23.4380 O   0  0  0  0  0  0  0  0  0  0  0  0
  -20.9480  -29.9420   21.7800 H   0  0  0  0  0  0  0  0  0  0  0  0
  -18.0410  -28.2060   22.9610 C   0  0  0  0  0  0  0  0  0  0  0  0
  -20.6010  -28.4520   23.2380 C   0  0  0  0  0  3  0  0  0  0  0  0
  -20.6960  -27.0190   22.6630 C   0  0  0  0  0  2  0  0  0  0  0  0
  -19.5940  -26.7010   21.6480 C   0  0  0  0  0  2  0  0  0  0  0  0
  -18.2120  -26.8560   22.2860 C   0  0  0  0  0  2  0  0  0  0  0  0
  -19.1630  -28.9630   23.3930 C   0  0  0  0  0  0  0  0  0  0  0  0
  -18.9480  -30.2270   23.9840 C   0  0  0  0  0  3  0  0  0  0  0  0
  -17.6450  -30.7340   24.1470 C   0  0  0  0  0  3  0  0  0  0  0  0
  -16.5380  -29.9740   23.7290 C   0  0  0  0  0  3  0  0  0  0  0  0
  -16.7370  -28.7120   23.1430 C   0  0  0  0  0  3  0  0  0  0  0  0
  -25.9280  -32.5850   23.9070 C   0  0  0  0  0  3  0  0  0  0  0  0
  -26.4350  -31.8100   25.1850 C   0  0  1  0  0  0  0  0  0  0  0  0
  -25.3380  -31.5750   26.2510 C   0  0  0  0  0  1  0  0  0  0  0  0
  -27.0110  -30.4300   24.7910 C   0  0  0  0  0  1  0  0  0  0  0  0
  -27.5900  -32.5950   25.8480 C   0  0  0  0  0  1  0  0  0  0  0  0
  -25.6240  -33.9860   24.2400 N   0  0  0  0  0  0  0  0  0  0  0  0
  -25.9310  -35.0360   23.4680 C   0  0  0  0  0  0  0  0  0  0  0  0
  -26.5670  -34.9280   22.4160 O   0  0  0  0  0  0  0  0  0  0  0  0
  -25.0580  -34.1430   25.0610 H   0  0  0  0  0  0  0  0  0  0  0  0
  -24.1800  -36.8180   23.1750 C   0  0  0  0  0  1  0  0  0  0  0  0
  -25.4570  -36.4260   23.9360 C   0  0  0  0  0  3  0  0  0  0  0  0
  -27.6210  -37.3280   24.6670 C   0  0  0  0  0  1  0  0  0  0  0  0
  -26.4780  -37.4840   23.7710 N   0  0  0  0  0  0  0  0  0  0  0  0
  -26.0730  -38.4020   23.9300 H   0  0  0  0  0  0  0  0  0  0  0  0
  1  2  1  0
  3  5  1  0
  4  7  1  0
  5 47  1  0
  5  8  1  0
  6  3  1  0
  6  4  1  0
  6  8  1  0
  7 17  1  0
  7  1  1  0
  8 52  1  1
  8  2  1  0
  9 17  1  0
 10 15  1  0
 11 12  1  0
 11 10  1  0
 13 12  1  0
 13 22  1  0
 13 14  1  0
 15  9  1  0
 15 14  1  0
 16  9  2  0
 17 18  1  0
 19 20  2  0
 20 39  1  0
 21 20  1  0
 21 24  1  0
 22 23  1  0
 22 19  1  0
 23 21  2  0
 24 25  1  0
 25 26  2  0
 27 30  1  0
 27 26  1  0
 28 27  2  0
 29 28  1  0
 29 24  2  0
 30 31  1  0
 31 32  1  0
 32 33  2  0
 34 33  1  0
 34 38  1  0
 35 34  2  0
 36 31  2  0
 36 35  1  0
 37 36  1  0
 39 40  1  0
 40 43  1  0
 40 42  1  0
 41 39  2  0
 44 45  1  0
 44 19  1  0
 46 44  1  0
 47 48  1  0
 48 50  1  0
 49 47  2  0
 51 48  1  0
 52 53  1  0
 54 55  1  0
 54 53  2  0
 56 67  2  0
 57 55  1  0
 57 62  1  0
 58 66  1  0
 58 68  1  0
 59 65  1  0
 59 61  1  0
 60 66  1  0
 61 60  1  0
 62 61  2  0
 63 57  2  0
 64 63  1  0
 64 59  2  0
 65 58  1  0
 66 56  1  0
 68 70  2  0
 69 68  1  0
 71 69  1  0
 72 81  2  0
 72 77  1  0
 73 69  1  0
 73 77  1  0
 74 73  1  0
 75 76  1  0
 75 74  1  0
 76 72  1  0
 77 78  2  0
 78 79  1  0
 80 79  2  0
 81 80  1  0
 82 56  1  0
 82 87  1  0
 82 83  1  0
 83 86  1  1
 83 84  1  0
 85 83  1  0
 87 90  1  0
 88 92  1  0
 88 87  1  0
 89 88  2  0
 92 91  1  0
 94 95  1  0
 94 92  1  0
 94 93  1  0
M  ISO  4   9 100  17 100  54 101  55 101
M  END
>  <TORSDO>  (21) 
F 20

>  <SCORE>  (21) 
-13.830

>  <name>  (21) 
20

>  <ligand_id>  (21) 
20

>  <original_smiles>  (21) 
[H]c1c([H])c([H])c2c(c1[H])C([H])([H])C([H])([H])C([H])([H])C2([H])N([H])C(=O)C1([H])N(C(=O)C([H])(N([H])C(=O)C([H])(N([H])C([H])([H])[H])C([H])([H])[H])C(C([H])([H])[H])(C([H])([H])[H])C([H])([H])[H])C([H])([H])c2c([H])c(OC([H])([H])C([H])([H])C([H])([H])C34C([H])([H])C([H])([H])C([H])(N([H])C(=O)N5C([H])([H])C([H])([H])C([H])([H])C([H])(n6nc(-c7c([H])c([H])c(Oc8c([H])c([H])c(F)c([H])c8F)c([H])c7[H])c(C(=O)N([H])[H])c6N([H])[H])C5([H])[H])C([H])([H])C3([H])C([H])([H])C4([H])C(=O)N([H])[H])c([H])c([H])c2C1([H])[H]

>  <smiles>  (21) 
[H]c1c([H])c([H])c2c(c1[H])C([H])([H])C([H])([H])C([H])([H])C2([H])N([H])C(=O)C1([H])N(C(=O)C([H])(N([H])C(=O)C([H])(N([H])C([H])([H])[H])C([H])([H])[H])C(C([H])([H])[H])(C([H])([H])[H])C([H])([H])[H])C([H])([H])c2c([H])c(OC([H])([H])C([H])([H])C([H])([H])C34C([H])([H])C([H])([H])C([H])(N([H])C(=O)N5C([H])([H])C([H])([H])C([H])([H])C([H])(n6nc(-c7c([H])c([H])c(Oc8c([H])c([H])c(F)c([H])c8F)c([H])c7[H])c(C(=O)N([H])[H])c6N([H])[H])C5([H])[H])C([H])([H])C3([H])C([H])([H])C4([H])C(=O)N([H])[H])c([H])c([H])c2C1([H])[H]

$$$$
21:0:0
     RDKit          3D

 93102  0  0  1  0  0  0  0  0999 V2000
  -27.8260  -22.3120   21.0340 C   0  0  0  0  0  3  0  0  0  0  0  0
  -28.0970  -20.9460   21.2600 C   0  0  0  0  0  3  0  0  0  0  0  0
  -29.3020  -20.7880   19.1320 C   0  0  0  0  0  3  0  0  0  0  0  0
  -29.0100  -22.1550   18.9140 C   0  0  0  0  0  0  0  0  0  0  0  0
  -28.2920  -22.8980   19.8460 C   0  0  0  0  0  0  0  0  0  0  0  0
  -28.8260  -20.1690   20.3230 C   0  0  0  0  0  0  0  0  0  0  0  0
  -29.3440  -23.0220   17.7670 C   0  0  0  0  0  0  0  0  0  0  0  0
  -28.1070  -24.3350   19.4150 C   0  0  0  0  0  2  0  0  0  0  0  0
  -28.6290  -24.3800   17.9520 C   0  0  0  0  0  3  0  0  0  0  0  0
  -30.0380  -22.7280   16.7890 O   0  0  0  0  0  0  0  0  0  0  0  0
  -29.0570  -18.6910   20.6660 C   0  0  0  0  0  2  0  0  0  0  0  0
  -29.6890  -17.7920   19.5810 C   0  0  0  0  0  2  0  0  0  0  0  0
  -29.9490  -16.3460   20.0780 C   0  0  0  0  0  2  0  0  0  0  0  0
  -31.4410  -14.4640   19.2240 C   0  0  0  0  0  0  0  0  0  0  0  0
  -31.0260  -12.1170   18.6130 C   0  0  0  0  0  2  0  0  0  0  0  0
  -29.9840  -12.0740   17.4770 C   0  0  0  0  0  2  0  0  0  0  0  0
  -28.5530  -12.0680   18.0500 C   0  0  0  0  0  2  0  0  0  0  0  0
  -28.3320  -13.1530   19.1400 C   0  0  0  0  0  3  0  0  0  0  0  0
  -29.4870  -13.1500   20.1680 C   0  0  0  0  0  2  0  0  0  0  0  0
  -30.7390  -13.3130   19.4190 N   0  0  0  0  0  0  0  0  0  0  0  0
  -32.5640  -14.4740   18.7210 O   0  0  0  0  0  0  0  0  0  0  0  0
  -30.7340  -15.6010   19.0940 N   0  0  0  0  0  0  0  0  0  0  0  0
  -31.2170  -16.2240   18.4650 H   0  0  0  0  0  0  0  0  0  0  0  0
  -26.1490  -13.9890   20.2110 C   0  0  0  0  0  0  0  0  0  0  0  0
  -25.0440  -13.3260   20.6730 C   0  0  0  0  0  0  0  0  0  0  0  0
  -25.3120  -11.9360   20.4880 C   0  0  0  0  0  0  0  0  0  0  0  0
  -27.0290  -13.0070   19.7820 N   0  0  0  0  0  0  0  0  0  0  0  0
  -26.5360  -11.7620   20.0050 N   0  0  0  0  0  0  0  0  0  0  0  0
  -24.4530  -10.7610   20.6900 C   0  0  0  0  0  0  0  0  0  0  0  0
  -24.7690   -9.7720   21.6480 C   0  0  0  0  0  3  0  0  0  0  0  0
  -23.9190   -8.6620   21.8380 C   0  0  0  0  0  3  0  0  0  0  0  0
  -22.7380   -8.5350   21.0700 C   0  0  0  0  0  0  0  0  0  0  0  0
  -22.4390   -9.5090   20.1010 C   0  0  0  0  0  3  0  0  0  0  0  0
  -23.2890  -10.6110   19.9100 C   0  0  0  0  0  3  0  0  0  0  0  0
  -21.8650   -7.4780   21.1680 O   0  0  0  0  0  0  0  0  0  0  0  0
  -21.5690   -6.8980   22.3750 C   0  0  0  0  0  0  0  0  0  0  0  0
  -21.0480   -7.6460   23.4530 C   0  0  0  0  0  3  0  0  0  0  0  0
  -20.6920   -6.9990   24.6520 C   0  0  0  0  0  3  0  0  0  0  0  0
  -20.8480   -5.6050   24.7730 C   0  0  0  0  0  0  0  0  0  0  0  0
  -21.3610   -4.8570   23.6990 C   0  0  0  0  0  3  0  0  0  0  0  0
  -21.7170   -5.5020   22.5020 C   0  0  0  0  0  0  0  0  0  0  0  0
  -22.1930   -4.7740   21.4630 F   0  0  0  0  0  0  0  0  0  0  0  0
  -20.4980   -4.9810   25.9220 F   0  0  0  0  0  0  0  0  0  0  0  0
  -23.7700  -13.9490   21.1670 C   0  0  0  0  0  0  0  0  0  0  0  0
  -23.1070  -13.3100   22.1250 N   0  0  0  0  0  0  0  0  0  0  0  0
  -23.3820  -15.0340   20.7390 O   0  0  0  0  0  0  0  0  0  0  0  0
  -23.4370  -12.4290   22.4910 H   0  0  0  0  0  0  0  0  0  0  0  0
  -22.2580  -13.7080   22.5000 H   0  0  0  0  0  0  0  0  0  0  0  0
  -26.4700  -15.3390   20.1010 N   0  0  0  0  0  0  0  0  0  0  0  0
  -25.8150  -16.0680   20.3590 H   0  0  0  0  0  0  0  0  0  0  0  0
  -27.3130  -15.6930   19.6700 H   0  0  0  0  0  0  0  0  0  0  0  0
  -29.4670  -25.6440   17.5970 C   0  0  0  0  0  2  0  0  0  0  0  0
  -28.7730  -26.5860   16.7650 O   0  0  0  0  0  0  0  0  0  0  0  0
  -25.6360  -29.0980   22.6570 C   0  0  0  0  0  0  0  0  0  0  0  0
  -27.6600  -27.1510   17.3440 C   0  0  0  0  0  0  0  0  0  0  0  0
  -24.1620  -28.7540   20.7000 C   0  0  0  0  0  3  0  0  0  0  0  0
  -25.3470  -28.2990   18.4870 C   0  0  0  0  0  0  0  0  0  0  0  0
  -26.6460  -29.2740   20.3860 C   0  0  0  0  0  2  0  0  0  0  0  0
  -26.5920  -28.4690   19.1070 C   0  0  0  0  0  0  0  0  0  0  0  0
  -27.7530  -27.8980   18.5390 C   0  0  0  0  0  3  0  0  0  0  0  0
  -26.4050  -27.0080   16.7190 C   0  0  0  0  0  3  0  0  0  0  0  0
  -25.2470  -27.5680   17.2900 C   0  0  0  0  0  3  0  0  0  0  0  0
  -24.1510  -28.9380   19.1590 C   0  0  0  0  0  2  0  0  0  0  0  0
  -25.5080  -29.0240   21.3020 N   0  0  0  0  0  0  0  0  0  0  0  0
  -24.6500  -28.9850   23.3990 O   0  0  0  0  0  0  0  0  0  0  0  0
  -23.6140  -27.3480   21.0320 C   0  0  0  0  0  0  0  0  0  0  0  0
  -22.3610  -27.0840   20.6290 N   0  0  0  0  0  0  0  0  0  0  0  0
  -24.3170  -26.5170   21.6130 O   0  0  0  0  0  0  0  0  0  0  0  0
  -21.8450  -27.8200   20.1690 H   0  0  0  0  0  0  0  0  0  0  0  0
  -19.3790  -25.2680   19.6950 C   0  0  0  0  0  0  0  0  0  0  0  0
  -21.6530  -25.8160   20.7970 C   0  0  0  0  0  3  0  0  0  0  0  0
  -22.2450  -24.7200   19.8800 C   0  0  0  0  0  2  0  0  0  0  0  0
  -21.5280  -24.6080   18.5320 C   0  0  0  0  0  2  0  0  0  0  0  0
  -20.0440  -24.2930   18.7380 C   0  0  0  0  0  2  0  0  0  0  0  0
  -20.1370  -25.9940   20.6510 C   0  0  0  0  0  0  0  0  0  0  0  0
  -19.4750  -26.9130   21.4950 C   0  0  0  0  0  3  0  0  0  0  0  0
  -18.0850  -27.1100   21.3940 C   0  0  0  0  0  3  0  0  0  0  0  0
  -17.3380  -26.3770   20.4550 C   0  0  0  0  0  3  0  0  0  0  0  0
  -17.9830  -25.4550   19.6120 C   0  0  0  0  0  3  0  0  0  0  0  0
  -27.0190  -29.3480   23.3370 C   0  0  0  0  0  3  0  0  0  0  0  0
  -27.5110  -28.1320   24.2120 C   0  0  1  0  0  0  0  0  0  0  0  0
  -26.4430  -27.6030   25.1980 C   0  0  0  0  0  1  0  0  0  0  0  0
  -27.9490  -26.9530   23.3110 C   0  0  0  0  0  1  0  0  0  0  0  0
  -28.7550  -28.5470   25.0340 C   0  0  0  0  0  1  0  0  0  0  0  0
  -26.8960  -30.5620   24.1540 N   0  0  0  0  0  0  0  0  0  0  0  0
  -27.4130  -31.7530   23.8280 C   0  0  0  0  0  0  0  0  0  0  0  0
  -28.1140  -31.9280   22.8280 O   0  0  0  0  0  0  0  0  0  0  0  0
  -26.2890  -30.5040   24.9600 H   0  0  0  0  0  0  0  0  0  0  0  0
  -26.0360  -33.8370   24.1150 C   0  0  0  0  0  1  0  0  0  0  0  0
  -27.1030  -32.9410   24.7610 C   0  0  0  0  0  3  0  0  0  0  0  0
  -29.2440  -33.0480   25.9590 C   0  0  0  0  0  1  0  0  0  0  0  0
  -28.2950  -33.7500   25.0980 N   0  0  0  0  0  0  0  0  0  0  0  0
  -28.0250  -34.6140   25.5600 H   0  0  0  0  0  0  0  0  0  0  0  0
  1  2  1  0
  3  6  1  0
  4  3  2  0
  4  5  1  0
  5  1  2  0
  6 11  1  0
  6  2  2  0
  7  9  1  0
  7  4  1  0
  8  5  1  0
  9 52  1  0
  9  8  1  0
 10  7  2  0
 12 13  1  0
 12 11  1  0
 14 20  1  0
 15 20  1  0
 16 17  1  0
 16 15  1  0
 18 17  1  0
 18 27  1  0
 18 19  1  0
 20 19  1  0
 21 14  2  0
 22 14  1  0
 22 13  1  0
 23 22  1  0
 24 25  2  0
 25 44  1  0
 26 25  1  0
 26 29  1  0
 27 28  1  0
 27 24  1  0
 28 26  2  0
 29 30  1  0
 30 31  2  0
 32 35  1  0
 32 31  1  0
 33 32  2  0
 34 33  1  0
 34 29  2  0
 35 36  1  0
 36 41  2  0
 36 37  1  0
 37 38  2  0
 38 39  1  0
 39 43  1  0
 40 39  2  0
 41 40  1  0
 42 41  1  0
 44 45  1  0
 45 47  1  0
 45 48  1  0
 46 44  2  0
 49 24  1  0
 49 50  1  0
 51 49  1  0
 53 55  1  0
 53 52  1  0
 54 65  2  0
 55 60  1  0
 56 66  1  0
 56 64  1  0
 57 59  1  0
 57 63  1  0
 58 64  1  0
 59 58  1  0
 60 59  2  0
 61 62  1  0
 61 55  2  0
 62 57  2  0
 63 56  1  0
 64 54  1  0
 66 68  2  0
 67 66  1  0
 69 67  1  0
 70 75  1  0
 71 67  1  0
 72 71  1  0
 73 74  1  0
 73 72  1  0
 74 70  1  0
 75 71  1  0
 75 76  2  0
 77 76  1  0
 78 77  2  0
 79 70  2  0
 79 78  1  0
 80 54  1  0
 80 85  1  0
 80 81  1  0
 81 84  1  1
 81 82  1  0
 83 81  1  0
 85 88  1  0
 86 85  1  0
 86 90  1  0
 87 86  2  0
 90 89  1  0
 90 92  1  0
 92 93  1  0
 92 91  1  0
M  ISO  4  14 100  22 100  52 101  53 101
M  END
>  <TORSDO>  (22) 
F 20

>  <SCORE>  (22) 
-8.851

>  <name>  (22) 
21

>  <ligand_id>  (22) 
21

>  <original_smiles>  (22) 
[H]c1c([H])c([H])c2c(c1[H])C([H])([H])C([H])([H])C([H])([H])C2([H])N([H])C(=O)C1([H])N(C(=O)C([H])(N([H])C(=O)C([H])(N([H])C([H])([H])[H])C([H])([H])[H])C(C([H])([H])[H])(C([H])([H])[H])C([H])([H])[H])C([H])([H])c2c([H])c(OC([H])([H])C3([H])C(=O)c4c([H])c(C([H])([H])C([H])([H])C([H])([H])N([H])C(=O)N5C([H])([H])C([H])([H])C([H])([H])C([H])(n6nc(-c7c([H])c([H])c(Oc8c([H])c([H])c(F)c([H])c8F)c([H])c7[H])c(C(=O)N([H])[H])c6N([H])[H])C5([H])[H])c([H])c([H])c4C3([H])[H])c([H])c([H])c2C1([H])[H]

>  <smiles>  (22) 
[H]c1c([H])c([H])c2c(c1[H])C([H])([H])C([H])([H])C([H])([H])C2([H])N([H])C(=O)C1([H])N(C(=O)C([H])(N([H])C(=O)C([H])(N([H])C([H])([H])[H])C([H])([H])[H])C(C([H])([H])[H])(C([H])([H])[H])C([H])([H])[H])C([H])([H])c2c([H])c(OC([H])([H])C3([H])C(=O)c4c([H])c(C([H])([H])C([H])([H])C([H])([H])N([H])C(=O)N5C([H])([H])C([H])([H])C([H])([H])C([H])(n6nc(-c7c([H])c([H])c(Oc8c([H])c([H])c(F)c([H])c8F)c([H])c7[H])c(C(=O)N([H])[H])c6N([H])[H])C5([H])[H])c([H])c([H])c4C3([H])[H])c([H])c([H])c2C1([H])[H]

$$$$
22:0:0
     RDKit          3D

 99106  0  0  1  0  0  0  0  0999 V2000
  -27.6130  -20.9450   18.9100 C   0  0  0  0  0  2  0  0  0  0  0  0
  -27.9780  -19.5630   19.2940 N   0  0  0  0  0  4  0  0  0  0  0  0
  -27.1340  -19.0420   19.4720 H   0  0  0  0  0  0  0  0  0  0  0  0
  -28.5010  -19.6060   20.1540 H   0  0  0  0  0  0  0  0  0  0  0  0
  -28.7990  -18.8470   18.2940 C   0  0  0  0  0  2  0  0  0  0  0  0
  -28.9990  -17.3550   18.6350 C   0  0  0  0  0  2  0  0  0  0  0  0
  -29.7630  -17.1110   19.9530 C   0  0  0  0  0  2  0  0  0  0  0  0
  -30.6720  -15.8620   19.9510 C   0  0  0  0  0  3  0  0  0  0  0  0
  -30.1240  -13.8400   18.5830 C   0  0  0  0  0  0  0  0  0  0  0  0
  -29.1940  -11.9840   17.2570 C   0  0  0  0  0  2  0  0  0  0  0  0
  -27.9510  -12.4640   16.4820 C   0  0  0  0  0  2  0  0  0  0  0  0
  -26.6840  -12.3360   17.3500 C   0  0  0  0  0  2  0  0  0  0  0  0
  -26.8650  -12.9470   18.7650 C   0  0  0  0  0  3  0  0  0  0  0  0
  -28.1790  -12.4580   19.4110 C   0  0  0  0  0  2  0  0  0  0  0  0
  -29.2870  -12.7740   18.4920 N   0  0  0  0  0  0  0  0  0  0  0  0
  -30.9770  -14.0990   17.7300 O   0  0  0  0  0  0  0  0  0  0  0  0
  -29.9240  -14.6390   19.6410 N   0  0  0  0  0  0  0  0  0  0  0  0
  -29.2000  -14.3610   20.2840 H   0  0  0  0  0  0  0  0  0  0  0  0
  -24.8180  -13.5590   20.2020 C   0  0  0  0  0  0  0  0  0  0  0  0
  -23.8800  -12.7860   20.8330 C   0  0  0  0  0  0  0  0  0  0  0  0
  -24.2520  -11.4300   20.5830 C   0  0  0  0  0  0  0  0  0  0  0  0
  -25.7070  -12.6730   19.6140 N   0  0  0  0  0  0  0  0  0  0  0  0
  -25.3850  -11.3840   19.8940 N   0  0  0  0  0  0  0  0  0  0  0  0
  -23.5670  -10.1740   20.9120 C   0  0  0  0  0  0  0  0  0  0  0  0
  -24.1470   -9.2180   21.7730 C   0  0  0  0  0  3  0  0  0  0  0  0
  -23.4610   -8.0250   22.0890 C   0  0  0  0  0  3  0  0  0  0  0  0
  -22.1780   -7.7820   21.5450 C   0  0  0  0  0  0  0  0  0  0  0  0
  -21.6120   -8.7260   20.6700 C   0  0  0  0  0  3  0  0  0  0  0  0
  -22.2990   -9.9090   20.3520 C   0  0  0  0  0  3  0  0  0  0  0  0
  -21.4480   -6.6400   21.7740 O   0  0  0  0  0  0  0  0  0  0  0  0
  -21.5070   -5.9760   22.9720 C   0  0  0  0  0  0  0  0  0  0  0  0
  -21.1520   -6.6000   24.1880 C   0  0  0  0  0  3  0  0  0  0  0  0
  -21.1620   -5.8600   25.3870 C   0  0  0  0  0  3  0  0  0  0  0  0
  -21.5160   -4.4980   25.3720 C   0  0  0  0  0  0  0  0  0  0  0  0
  -21.8650   -3.8740   24.1630 C   0  0  0  0  0  3  0  0  0  0  0  0
  -21.8570   -4.6110   22.9650 C   0  0  0  0  0  0  0  0  0  0  0  0
  -22.1730   -3.9990   21.7980 F   0  0  0  0  0  0  0  0  0  0  0  0
  -21.5180   -3.7850   26.5240 F   0  0  0  0  0  0  0  0  0  0  0  0
  -22.6520  -13.2750   21.5490 C   0  0  0  0  0  0  0  0  0  0  0  0
  -22.2080  -12.5480   22.5680 N   0  0  0  0  0  0  0  0  0  0  0  0
  -22.1080  -14.3330   21.2360 O   0  0  0  0  0  0  0  0  0  0  0  0
  -22.6670  -11.6910   22.8380 H   0  0  0  0  0  0  0  0  0  0  0  0
  -21.3970  -12.8540   23.0870 H   0  0  0  0  0  0  0  0  0  0  0  0
  -24.9800  -14.9340   20.0630 N   0  0  0  0  0  0  0  0  0  0  0  0
  -24.3140  -15.6000   20.4380 H   0  0  0  0  0  0  0  0  0  0  0  0
  -25.7210  -15.3670   19.5270 H   0  0  0  0  0  0  0  0  0  0  0  0
  -31.4000  -15.7180   21.3000 C   0  0  0  0  0  2  0  0  0  0  0  0
  -32.1450  -14.3860   21.4610 C   0  0  0  0  0  2  0  0  0  0  0  0
  -33.4730  -12.8990   23.0530 C   0  0  0  0  0  1  0  0  0  0  0  0
  -32.7740  -14.2470   22.8530 C   0  0  0  0  0  2  0  0  0  0  0  0
  -26.8370  -21.6560   20.0370 C   0  0  0  0  0  2  0  0  0  0  0  0
  -27.7560  -22.2830   21.1040 C   0  0  0  0  0  2  0  0  0  0  0  0
  -28.0150  -23.7860   20.9000 C   0  0  0  0  0  2  0  0  0  0  0  0
  -29.0580  -24.3310   21.8970 C   0  0  0  0  0  2  0  0  0  0  0  0
  -29.0120  -25.8520   22.1920 C   0  0  0  0  0  3  0  0  0  0  0  0
  -27.5210  -25.7450   24.3190 C   0  0  0  0  0  1  0  0  0  0  0  0
  -27.7160  -26.3140   22.9050 C   0  0  0  0  0  2  0  0  0  0  0  0
  -29.4260  -26.7370   20.9860 C   0  0  0  0  0  2  0  0  0  0  0  0
  -28.5300  -26.6920   19.8710 O   0  0  0  0  0  0  0  0  0  0  0  0
  -24.6630  -31.7640   23.0750 C   0  0  0  0  0  0  0  0  0  0  0  0
  -27.3870  -27.4570   19.9150 C   0  0  0  0  0  0  0  0  0  0  0  0
  -23.4730  -30.3730   21.4050 C   0  0  0  0  0  3  0  0  0  0  0  0
  -24.9520  -28.8900   19.9500 C   0  0  0  0  0  0  0  0  0  0  0  0
  -25.9850  -30.7870   21.2120 C   0  0  0  0  0  2  0  0  0  0  0  0
  -26.0950  -29.4340   20.5490 C   0  0  0  0  0  0  0  0  0  0  0  0
  -27.3140  -28.7260   20.5340 C   0  0  0  0  0  3  0  0  0  0  0  0
  -26.2330  -26.9290   19.3020 C   0  0  0  0  0  3  0  0  0  0  0  0
  -25.0130  -27.6320   19.3260 C   0  0  0  0  0  3  0  0  0  0  0  0
  -23.6910  -29.7210   20.0130 C   0  0  0  0  0  2  0  0  0  0  0  0
  -24.7250  -30.9880   21.9570 N   0  0  0  0  0  0  0  0  0  0  0  0
  -23.5800  -32.0090   23.6230 O   0  0  0  0  0  0  0  0  0  0  0  0
  -22.8440  -29.3240   22.3470 C   0  0  0  0  0  0  0  0  0  0  0  0
  -21.5150  -29.1520   22.2480 N   0  0  0  0  0  0  0  0  0  0  0  0
  -23.5440  -28.6680   23.1240 O   0  0  0  0  0  0  0  0  0  0  0  0
  -21.0100  -29.7350   21.5950 H   0  0  0  0  0  0  0  0  0  0  0  0
  -18.1450  -27.9890   22.8080 C   0  0  0  0  0  0  0  0  0  0  0  0
  -20.7130  -28.1930   23.0060 C   0  0  0  0  0  3  0  0  0  0  0  0
  -20.7750  -26.7890   22.3640 C   0  0  0  0  0  2  0  0  0  0  0  0
  -19.6330  -26.5260   21.3770 C   0  0  0  0  0  2  0  0  0  0  0  0
  -18.2760  -26.6650   22.0730 C   0  0  0  0  0  2  0  0  0  0  0  0
  -19.2900  -28.7130   23.2330 C   0  0  0  0  0  0  0  0  0  0  0  0
  -19.1160  -29.9540   23.8810 C   0  0  0  0  0  3  0  0  0  0  0  0
  -17.8270  -30.4730   24.1090 C   0  0  0  0  0  3  0  0  0  0  0  0
  -16.6950  -29.7430   23.7050 C   0  0  0  0  0  3  0  0  0  0  0  0
  -16.8560  -28.5030   23.0600 C   0  0  0  0  0  3  0  0  0  0  0  0
  -25.9430  -32.4000   23.7010 C   0  0  0  0  0  3  0  0  0  0  0  0
  -26.5040  -31.5880   24.9340 C   0  0  1  0  0  0  0  0  0  0  0  0
  -25.4380  -31.2900   26.0150 C   0  0  0  0  0  1  0  0  0  0  0  0
  -27.1050  -30.2390   24.4730 C   0  0  0  0  0  1  0  0  0  0  0  0
  -27.6480  -32.3800   25.6080 C   0  0  0  0  0  1  0  0  0  0  0  0
  -25.6080  -33.7750   24.0930 N   0  0  0  0  0  0  0  0  0  0  0  0
  -25.9060  -34.8650   23.3730 C   0  0  0  0  0  0  0  0  0  0  0  0
  -26.5650  -34.8200   22.3310 O   0  0  0  0  0  0  0  0  0  0  0  0
  -25.0260  -33.8840   24.9100 H   0  0  0  0  0  0  0  0  0  0  0  0
  -24.1240  -36.6190   23.1130 C   0  0  0  0  0  1  0  0  0  0  0  0
  -25.3870  -36.2200   23.8910 C   0  0  0  0  0  3  0  0  0  0  0  0
  -27.5070  -37.1330   24.7270 C   0  0  0  0  0  1  0  0  0  0  0  0
  -26.3880  -37.3050   23.8040 N   0  0  0  0  0  0  0  0  0  0  0  0
  -25.9580  -38.2070   23.9930 H   0  0  0  0  0  0  0  0  0  0  0  0
  1  2  1  0
  1 51  1  0
  2  3  1  0
  2  4  1  0
  5  6  1  0
  5  2  1  0
  6  7  1  0
  8  7  1  0
  8 47  1  0
  9 17  1  0
 10 15  1  0
 11 10  1  0
 11 12  1  0
 13 12  1  0
 13 14  1  0
 13 22  1  0
 15  9  1  0
 15 14  1  0
 16  9  2  0
 17  8  1  0
 17 18  1  0
 19 20  2  0
 20 39  1  0
 21 20  1  0
 21 24  1  0
 22 23  1  0
 22 19  1  0
 23 21  2  0
 24 25  1  0
 25 26  2  0
 27 30  1  0
 27 26  1  0
 28 27  2  0
 29 28  1  0
 29 24  2  0
 30 31  1  0
 31 32  1  0
 32 33  2  0
 34 33  1  0
 34 38  1  0
 35 34  2  0
 36 31  2  0
 36 35  1  0
 37 36  1  0
 39 40  1  0
 40 42  1  0
 40 43  1  0
 41 39  2  0
 44 19  1  0
 44 45  1  0
 46 44  1  0
 47 48  1  0
 48 50  1  0
 50 49  1  0
 51 52  1  0
 53 52  1  0
 53 54  1  0
 54 55  1  0
 55 58  1  0
 55 57  1  0
 57 56  1  0
 59 61  1  0
 59 58  1  0
 60 71  2  0
 61 66  1  0
 62 70  1  0
 62 72  1  0
 63 69  1  0
 63 65  1  0
 64 70  1  0
 65 64  1  0
 66 65  2  0
 67 68  1  0
 67 61  2  0
 68 63  2  0
 69 62  1  0
 70 60  1  0
 72 74  2  0
 73 72  1  0
 75 73  1  0
 76 85  2  0
 76 81  1  0
 77 73  1  0
 77 81  1  0
 78 77  1  0
 79 80  1  0
 79 78  1  0
 80 76  1  0
 81 82  2  0
 82 83  1  0
 84 83  2  0
 85 84  1  0
 86 60  1  0
 86 91  1  0
 86 87  1  0
 87 90  1  1
 87 88  1  0
 89 87  1  0
 91 94  1  0
 92 96  1  0
 92 91  1  0
 93 92  2  0
 96 95  1  0
 98 96  1  0
 98 99  1  0
 98 97  1  0
M  ISO  4   9 100  17 100  58 101  59 101
M  END
>  <TORSDO>  (23) 
F 31

>  <SCORE>  (23) 
-2.343

>  <name>  (23) 
22

>  <ligand_id>  (23) 
22

>  <original_smiles>  (23) 
[H]c1c([H])c([H])c2c(c1[H])C([H])([H])C([H])([H])C([H])([H])C2([H])N([H])C(=O)C1([H])N(C(=O)C([H])(N([H])C(=O)C([H])(N([H])C([H])([H])[H])C([H])([H])[H])C(C([H])([H])[H])(C([H])([H])[H])C([H])([H])[H])C([H])([H])c2c([H])c(OC([H])([H])C([H])(C([H])([H])C([H])([H])[H])C([H])([H])C([H])([H])C([H])([H])C([H])([H])C([H])([H])[N+]([H])([H])C([H])([H])C([H])([H])C([H])([H])C([H])(N([H])C(=O)N3C([H])([H])C([H])([H])C([H])([H])C([H])(n4nc(-c5c([H])c([H])c(Oc6c([H])c([H])c(F)c([H])c6F)c([H])c5[H])c(C(=O)N([H])[H])c4N([H])[H])C3([H])[H])C([H])([H])C([H])([H])C([H])([H])C([H])([H])[H])c([H])c([H])c2C1([H])[H]

>  <smiles>  (23) 
[H]c1c([H])c([H])c2c(c1[H])C([H])([H])C([H])([H])C([H])([H])C2([H])N([H])C(=O)C1([H])N(C(=O)C([H])(N([H])C(=O)C([H])(N([H])C([H])([H])[H])C([H])([H])[H])C(C([H])([H])[H])(C([H])([H])[H])C([H])([H])[H])C([H])([H])c2c([H])c(OC([H])([H])C([H])(C([H])([H])C([H])([H])[H])C([H])([H])C([H])([H])C([H])([H])C([H])([H])C([H])([H])[N+]([H])([H])C([H])([H])C([H])([H])C([H])([H])C([H])(N([H])C(=O)N3C([H])([H])C([H])([H])C([H])([H])C([H])(n4nc(-c5c([H])c([H])c(Oc6c([H])c([H])c(F)c([H])c6F)c([H])c5[H])c(C(=O)N([H])[H])c4N([H])[H])C3([H])[H])C([H])([H])C([H])([H])C([H])([H])C([H])([H])[H])c([H])c([H])c2C1([H])[H]

$$$$
23:0:0
     RDKit          3D

 98105  0  0  1  0  0  0  0  0999 V2000
  -23.5840  -20.8630   23.5560 N   0  0  0  0  0  4  0  0  0  0  0  0
  -23.7130  -21.0420   22.5760 H   0  0  0  0  0  0  0  0  0  0  0  0
  -22.5950  -20.7210   23.7020 H   0  0  0  0  0  0  0  0  0  0  0  0
  -24.3020  -19.6220   23.9260 C   0  0  0  0  0  2  0  0  0  0  0  0
  -24.4920  -18.6830   22.7190 C   0  0  0  0  0  2  0  0  0  0  0  0
  -25.5660  -19.1760   21.7200 C   0  0  0  0  0  2  0  0  0  0  0  0
  -25.9200  -18.0800   20.7000 C   0  0  0  0  0  2  0  0  0  0  0  0
  -27.2500  -18.2570   20.0720 N   0  0  0  0  0  4  0  0  0  0  0  0
  -27.7640  -18.9660   20.5700 H   0  0  0  0  0  0  0  0  0  0  0  0
  -27.1330  -18.5600   19.1170 H   0  0  0  0  0  0  0  0  0  0  0  0
  -28.0190  -16.9990   20.0970 C   0  0  0  0  0  2  0  0  0  0  0  0
  -29.5530  -17.1560   20.1820 C   0  0  0  0  0  2  0  0  0  0  0  0
  -30.5740  -14.8870   20.1520 C   0  0  0  0  0  0  0  0  0  0  0  0
  -30.7250  -12.4320   20.3830 C   0  0  0  0  0  2  0  0  0  0  0  0
  -30.0130  -11.6590   19.2620 C   0  0  0  0  0  2  0  0  0  0  0  0
  -28.5080  -11.5050   19.5540 C   0  0  0  0  0  2  0  0  0  0  0  0
  -27.8360  -12.8470   19.9370 C   0  0  0  0  0  3  0  0  0  0  0  0
  -28.6530  -13.5490   21.0430 C   0  0  0  0  0  2  0  0  0  0  0  0
  -30.0530  -13.7190   20.5940 N   0  0  0  0  0  0  0  0  0  0  0  0
  -31.5080  -14.9850   19.3510 O   0  0  0  0  0  0  0  0  0  0  0  0
  -30.0770  -15.9420   20.8010 N   0  0  0  0  0  0  0  0  0  0  0  0
  -29.6340  -15.6930   21.6740 H   0  0  0  0  0  0  0  0  0  0  0  0
  -25.4190  -13.5680   20.4960 C   0  0  0  0  0  0  0  0  0  0  0  0
  -24.2940  -12.8500   20.8030 C   0  0  0  0  0  0  0  0  0  0  0  0
  -24.6960  -11.4780   20.8130 C   0  0  0  0  0  0  0  0  0  0  0  0
  -26.4380  -12.6420   20.3330 N   0  0  0  0  0  0  0  0  0  0  0  0
  -25.9990  -11.3810   20.5780 N   0  0  0  0  0  0  0  0  0  0  0  0
  -23.9070  -10.2500   20.9710 C   0  0  0  0  0  0  0  0  0  0  0  0
  -24.0920   -9.3950   22.0800 C   0  0  0  0  0  3  0  0  0  0  0  0
  -23.3070   -8.2320   22.2210 C   0  0  0  0  0  3  0  0  0  0  0  0
  -22.3270   -7.9120   21.2510 C   0  0  0  0  0  0  0  0  0  0  0  0
  -22.1620   -8.7560   20.1400 C   0  0  0  0  0  3  0  0  0  0  0  0
  -22.9470   -9.9090   19.9960 C   0  0  0  0  0  3  0  0  0  0  0  0
  -21.5350   -6.7910   21.2950 O   0  0  0  0  0  0  0  0  0  0  0  0
  -21.0720   -6.2830   22.4810 C   0  0  0  0  0  0  0  0  0  0  0  0
  -20.2470   -7.0440   23.3390 C   0  0  0  0  0  3  0  0  0  0  0  0
  -19.7270   -6.4600   24.5130 C   0  0  0  0  0  3  0  0  0  0  0  0
  -20.0300   -5.1210   24.8280 C   0  0  0  0  0  0  0  0  0  0  0  0
  -20.8470   -4.3610   23.9740 C   0  0  0  0  0  3  0  0  0  0  0  0
  -21.3650   -4.9400   22.8010 C   0  0  0  0  0  0  0  0  0  0  0  0
  -22.1370   -4.1990   21.9710 F   0  0  0  0  0  0  0  0  0  0  0  0
  -19.5190   -4.5620   25.9490 F   0  0  0  0  0  0  0  0  0  0  0  0
  -22.9060  -13.3920   20.9780 C   0  0  0  0  0  0  0  0  0  0  0  0
  -22.1030  -12.7730   21.8380 N   0  0  0  0  0  0  0  0  0  0  0  0
  -22.5380  -14.4070   20.3850 O   0  0  0  0  0  0  0  0  0  0  0  0
  -22.4060  -11.9610   22.3530 H   0  0  0  0  0  0  0  0  0  0  0  0
  -21.1650  -13.1200   21.9900 H   0  0  0  0  0  0  0  0  0  0  0  0
  -25.6470  -14.9300   20.3150 N   0  0  0  0  0  0  0  0  0  0  0  0
  -24.8560  -15.5570   20.2100 H   0  0  0  0  0  0  0  0  0  0  0  0
  -26.4760  -15.2670   19.8450 H   0  0  0  0  0  0  0  0  0  0  0  0
  -24.0230  -22.0750   24.2820 C   0  0  0  0  0  2  0  0  0  0  0  0
  -24.2770  -23.2560   23.3250 C   0  0  0  0  0  2  0  0  0  0  0  0
  -25.3560  -22.8920   22.2870 C   0  0  0  0  0  2  0  0  0  0  0  0
  -25.8240  -24.0600   21.4010 C   0  0  0  0  0  2  0  0  0  0  0  0
  -27.2030  -23.7680   20.7700 C   0  0  0  0  0  2  0  0  0  0  0  0
  -27.9660  -25.0240   20.3150 C   0  0  0  0  0  2  0  0  0  0  0  0
  -27.5640  -25.5850   18.9400 C   0  0  0  0  0  2  0  0  0  0  0  0
  -27.6530  -27.0170   18.9530 O   0  0  0  0  0  0  0  0  0  0  0  0
  -24.5790  -31.7120   23.3520 C   0  0  0  0  0  0  0  0  0  0  0  0
  -26.5180  -27.7460   19.2510 C   0  0  0  0  0  0  0  0  0  0  0  0
  -23.0870  -30.6570   21.6850 C   0  0  0  0  0  3  0  0  0  0  0  0
  -24.2450  -29.3280   19.8510 C   0  0  0  0  0  0  0  0  0  0  0  0
  -25.5880  -30.9370   21.2120 C   0  0  0  0  0  2  0  0  0  0  0  0
  -25.5030  -29.6950   20.3470 C   0  0  0  0  0  0  0  0  0  0  0  0
  -26.6410  -28.9140   20.0440 C   0  0  0  0  0  3  0  0  0  0  0  0
  -25.2360  -27.4020   18.7590 C   0  0  0  0  0  3  0  0  0  0  0  0
  -24.1050  -28.1770   19.0630 C   0  0  0  0  0  3  0  0  0  0  0  0
  -23.0720  -30.2120   20.2010 C   0  0  0  0  0  2  0  0  0  0  0  0
  -24.4440  -31.1050   22.1390 N   0  0  0  0  0  0  0  0  0  0  0  0
  -23.5960  -31.9370   24.0690 O   0  0  0  0  0  0  0  0  0  0  0  0
  -22.5030  -29.5130   22.5440 C   0  0  0  0  0  0  0  0  0  0  0  0
  -21.1920  -29.2650   22.3950 N   0  0  0  0  0  0  0  0  0  0  0  0
  -23.2250  -28.8600   23.3020 O   0  0  0  0  0  0  0  0  0  0  0  0
  -20.6680  -29.8460   21.7550 H   0  0  0  0  0  0  0  0  0  0  0  0
  -17.9540  -27.6830   22.5950 C   0  0  0  0  0  0  0  0  0  0  0  0
  -20.4370  -28.2150   23.0780 C   0  0  0  0  0  3  0  0  0  0  0  0
  -20.7450  -26.8250   22.4720 C   0  0  0  0  0  2  0  0  0  0  0  0
  -19.7680  -26.4180   21.3650 C   0  0  0  0  0  2  0  0  0  0  0  0
  -18.3320  -26.3880   21.8970 C   0  0  0  0  0  2  0  0  0  0  0  0
  -18.9410  -28.5470   23.1350 C   0  0  0  0  0  0  0  0  0  0  0  0
  -18.5370  -29.7600   23.7360 C   0  0  0  0  0  3  0  0  0  0  0  0
  -17.1730  -30.1050   23.8120 C   0  0  0  0  0  3  0  0  0  0  0  0
  -16.1980  -29.2360   23.2920 C   0  0  0  0  0  3  0  0  0  0  0  0
  -16.5880  -28.0280   22.6850 C   0  0  0  0  0  3  0  0  0  0  0  0
  -25.9710  -32.1740   23.8840 C   0  0  0  0  0  3  0  0  0  0  0  0
  -25.8190  -33.5470   24.3820 N   0  0  0  0  0  0  0  0  0  0  0  0
  -26.1900  -34.6440   23.7070 C   0  0  0  0  0  0  0  0  0  0  0  0
  -26.7690  -34.5980   22.6200 O   0  0  0  0  0  0  0  0  0  0  0  0
  -25.2990  -33.6660   25.2370 H   0  0  0  0  0  0  0  0  0  0  0  0
  -24.6180  -36.6070   23.6740 C   0  0  0  0  0  1  0  0  0  0  0  0
  -25.8650  -36.0070   24.3460 C   0  0  0  0  0  3  0  0  0  0  0  0
  -28.1200  -36.6050   25.1080 C   0  0  0  0  0  1  0  0  0  0  0  0
  -26.9810  -36.9730   24.2710 N   0  0  0  0  0  0  0  0  0  0  0  0
  -26.6730  -37.9030   24.5440 H   0  0  0  0  0  0  0  0  0  0  0  0
  -26.5500  -31.2340   25.0110 C   0  0  1  0  0  0  0  0  0  0  0  0
  -25.5570  -30.9690   26.1650 C   0  0  0  0  0  1  0  0  0  0  0  0
  -26.9690  -29.8650   24.4270 C   0  0  0  0  0  1  0  0  0  0  0  0
  -27.8250  -31.8680   25.6180 C   0  0  0  0  0  1  0  0  0  0  0  0
  1  3  1  0
  1  4  1  0
  1 51  1  0
  2  1  1  0
  5  4  1  0
  6  5  1  0
  7  6  1  0
  8 11  1  0
  8  9  1  0
  8  7  1  0
 10  8  1  0
 11 12  1  0
 12 21  1  0
 13 19  1  0
 13 21  1  0
 14 19  1  0
 15 16  1  0
 15 14  1  0
 17 16  1  0
 17 26  1  0
 17 18  1  0
 19 18  1  0
 20 13  2  0
 21 22  1  0
 23 24  2  0
 24 25  1  0
 24 43  1  0
 25 28  1  0
 26 23  1  0
 26 27  1  0
 27 25  2  0
 28 29  1  0
 29 30  2  0
 31 34  1  0
 31 30  1  0
 32 31  2  0
 33 32  1  0
 33 28  2  0
 34 35  1  0
 35 40  2  0
 35 36  1  0
 36 37  2  0
 37 38  1  0
 38 42  1  0
 39 38  2  0
 40 39  1  0
 41 40  1  0
 43 44  1  0
 44 47  1  0
 44 46  1  0
 45 43  2  0
 48 23  1  0
 49 48  1  0
 50 48  1  0
 52 51  1  0
 53 52  1  0
 54 53  1  0
 55 54  1  0
 56 55  1  0
 57 58  1  0
 57 56  1  0
 58 60  1  0
 59 70  2  0
 60 65  1  0
 61 69  1  0
 61 71  1  0
 62 68  1  0
 62 64  1  0
 63 69  1  0
 64 63  1  0
 65 64  2  0
 66 67  1  0
 66 60  2  0
 67 62  2  0
 68 61  1  0
 69 59  1  0
 71 73  2  0
 72 71  1  0
 74 72  1  0
 75 84  2  0
 75 80  1  0
 76 72  1  0
 76 80  1  0
 77 76  1  0
 78 79  1  0
 78 77  1  0
 79 75  1  0
 80 81  2  0
 81 82  1  0
 83 82  2  0
 84 83  1  0
 85 59  1  0
 85 86  1  0
 85 95  1  0
 86 89  1  0
 87 91  1  0
 87 86  1  0
 88 87  2  0
 91 90  1  0
 93 91  1  0
 93 94  1  0
 93 92  1  0
 95 98  1  1
 95 96  1  0
 97 95  1  0
M  ISO  4  13 100  21 100  57 101  58 101
M  END
>  <TORSDO>  (24) 
F 30

>  <SCORE>  (24) 
22.312

>  <name>  (24) 
23

>  <ligand_id>  (24) 
23

>  <original_smiles>  (24) 
[H]c1c([H])c([H])c2c(c1[H])C([H])([H])C([H])([H])C([H])([H])C2([H])N([H])C(=O)C1([H])N(C(=O)C([H])(N([H])C(=O)C([H])(N([H])C([H])([H])[H])C([H])([H])[H])C(C([H])([H])[H])(C([H])([H])[H])C([H])([H])[H])C([H])([H])c2c([H])c(OC([H])([H])C([H])([H])C([H])([H])C([H])([H])C([H])([H])C([H])([H])C([H])([H])[N+]([H])([H])C([H])([H])C([H])([H])C([H])([H])C([H])([H])[N+]([H])([H])C([H])([H])C([H])([H])N([H])C(=O)N3C([H])([H])C([H])([H])C([H])([H])C([H])(n4nc(-c5c([H])c([H])c(Oc6c([H])c([H])c(F)c([H])c6F)c([H])c5[H])c(C(=O)N([H])[H])c4N([H])[H])C3([H])[H])c([H])c([H])c2C1([H])[H]

>  <smiles>  (24) 
[H]c1c([H])c([H])c2c(c1[H])C([H])([H])C([H])([H])C([H])([H])C2([H])N([H])C(=O)C1([H])N(C(=O)C([H])(N([H])C(=O)C([H])(N([H])C([H])([H])[H])C([H])([H])[H])C(C([H])([H])[H])(C([H])([H])[H])C([H])([H])[H])C([H])([H])c2c([H])c(OC([H])([H])C([H])([H])C([H])([H])C([H])([H])C([H])([H])C([H])([H])C([H])([H])[N+]([H])([H])C([H])([H])C([H])([H])C([H])([H])C([H])([H])[N+]([H])([H])C([H])([H])C([H])([H])N([H])C(=O)N3C([H])([H])C([H])([H])C([H])([H])C([H])(n4nc(-c5c([H])c([H])c(Oc6c([H])c([H])c(F)c([H])c6F)c([H])c5[H])c(C(=O)N([H])[H])c4N([H])[H])C3([H])[H])c([H])c([H])c2C1([H])[H]

$$$$
24:0:0
     RDKit          3D

 96104  0  0  1  0  0  0  0  0999 V2000
  -31.9960  -22.4340   19.1750 C   0  0  0  0  0  3  0  0  0  0  0  0
  -32.0750  -19.9880   19.2020 C   0  0  0  0  0  3  0  0  0  0  0  0
  -30.1740  -21.1390   18.2120 C   0  0  0  0  0  3  0  0  0  0  0  0
  -32.6480  -21.2340   19.5320 C   0  0  0  0  0  0  0  0  0  0  0  0
  -30.7530  -22.3950   18.5100 C   0  0  0  0  0  0  0  0  0  0  0  0
  -30.8190  -19.9290   18.5650 C   0  0  0  0  0  0  0  0  0  0  0  0
  -33.9360  -21.2890   20.3290 C   0  0  0  0  0  1  0  0  0  0  0  0
  -30.0470  -23.6940   18.1080 C   0  0  0  0  0  2  0  0  0  0  0  0
  -29.8610  -24.7400   19.2400 C   0  0  0  0  0  2  0  0  0  0  0  0
  -28.6500  -25.6490   18.9430 C   0  0  0  0  0  2  0  0  0  0  0  0
  -28.5790  -26.8480   19.7350 O   0  0  0  0  0  0  0  0  0  0  0  0
  -24.6340  -31.7450   23.1110 C   0  0  0  0  0  0  0  0  0  0  0  0
  -27.3710  -27.5330   19.7680 C   0  0  0  0  0  0  0  0  0  0  0  0
  -23.4490  -30.3960   21.4130 C   0  0  0  0  0  3  0  0  0  0  0  0
  -24.9290  -28.9700   19.9030 C   0  0  0  0  0  0  0  0  0  0  0  0
  -25.9620  -30.8340   21.2030 C   0  0  0  0  0  2  0  0  0  0  0  0
  -26.0820  -29.4940   20.5010 C   0  0  0  0  0  0  0  0  0  0  0  0
  -27.3010  -28.7790   20.4400 C   0  0  0  0  0  3  0  0  0  0  0  0
  -26.1900  -27.0300   19.1700 C   0  0  0  0  0  3  0  0  0  0  0  0
  -24.9770  -27.7340   19.2440 C   0  0  0  0  0  3  0  0  0  0  0  0
  -23.6610  -29.7900   20.0010 C   0  0  0  0  0  2  0  0  0  0  0  0
  -24.7010  -31.0040   21.9690 N   0  0  0  0  0  0  0  0  0  0  0  0
  -23.5520  -31.9570   23.6770 O   0  0  0  0  0  0  0  0  0  0  0  0
  -22.8320  -29.3120   22.3260 C   0  0  0  0  0  0  0  0  0  0  0  0
  -21.5170  -29.0810   22.1820 N   0  0  0  0  0  0  0  0  0  0  0  0
  -23.5340  -28.6840   23.1230 O   0  0  0  0  0  0  0  0  0  0  0  0
  -21.0060  -29.6390   21.5130 H   0  0  0  0  0  0  0  0  0  0  0  0
  -18.1950  -27.7210   22.6000 C   0  0  0  0  0  0  0  0  0  0  0  0
  -20.7360  -28.0790   22.9080 C   0  0  0  0  0  3  0  0  0  0  0  0
  -20.9050  -26.6760   22.2750 C   0  0  0  0  0  2  0  0  0  0  0  0
  -19.8260  -26.3460   21.2380 C   0  0  0  0  0  2  0  0  0  0  0  0
  -18.4350  -26.4080   21.8730 C   0  0  0  0  0  2  0  0  0  0  0  0
  -19.2760  -28.5120   23.0720 C   0  0  0  0  0  0  0  0  0  0  0  0
  -18.9980  -29.7430   23.7060 C   0  0  0  0  0  3  0  0  0  0  0  0
  -17.6720  -30.1820   23.8750 C   0  0  0  0  0  3  0  0  0  0  0  0
  -16.6040  -29.3860   23.4230 C   0  0  0  0  0  3  0  0  0  0  0  0
  -16.8680  -28.1570   22.7920 C   0  0  0  0  0  3  0  0  0  0  0  0
  -25.9080  -32.3810   23.7490 C   0  0  0  0  0  3  0  0  0  0  0  0
  -26.4390  -31.5810   24.9990 C   0  0  1  0  0  0  0  0  0  0  0  0
  -25.3510  -31.2780   26.0580 C   0  0  0  0  0  1  0  0  0  0  0  0
  -27.0580  -30.2360   24.5570 C   0  0  0  0  0  1  0  0  0  0  0  0
  -27.5700  -32.3790   25.6890 C   0  0  0  0  0  1  0  0  0  0  0  0
  -25.5780  -33.7620   24.1230 N   0  0  0  0  0  0  0  0  0  0  0  0
  -25.8920  -34.8410   23.3920 C   0  0  0  0  0  0  0  0  0  0  0  0
  -26.5610  -34.7780   22.3580 O   0  0  0  0  0  0  0  0  0  0  0  0
  -24.9890  -33.8850   24.9340 H   0  0  0  0  0  0  0  0  0  0  0  0
  -24.1390  -36.6150   23.0800 C   0  0  0  0  0  1  0  0  0  0  0  0
  -25.3820  -36.2100   23.8880 C   0  0  0  0  0  3  0  0  0  0  0  0
  -27.4990  -37.1030   24.7550 C   0  0  0  0  0  1  0  0  0  0  0  0
  -26.4000  -37.2800   23.8090 N   0  0  0  0  0  0  0  0  0  0  0  0
  -25.9820  -38.1900   23.9780 H   0  0  0  0  0  0  0  0  0  0  0  0
  -30.0780  -18.6140   18.3130 C   0  0  0  0  0  2  0  0  0  0  0  0
  -30.8040  -17.2480   18.5770 C   0  0  0  0  0  2  0  0  0  0  0  0
  -30.0820  -16.1310   19.4980 C   0  0  1  0  0  0  0  0  0  0  0  0
  -30.6740  -14.6800   19.1510 C   0  0  0  0  0  0  0  0  0  0  0  0
  -30.6290  -12.2110   18.8340 C   0  0  0  0  0  2  0  0  0  0  0  0
  -29.6470  -11.8480   17.7010 C   0  0  0  0  0  2  0  0  0  0  0  0
  -28.2180  -11.6630   18.2570 C   0  0  0  0  0  2  0  0  0  0  0  0
  -27.8000  -12.8390   19.1750 C   0  0  0  0  0  3  0  0  0  0  0  0
  -28.9150  -13.1220   20.2220 C   0  0  0  0  0  2  0  0  0  0  0  0
  -30.1380  -13.4520   19.4750 N   0  0  0  0  0  0  0  0  0  0  0  0
  -31.7400  -14.6830   18.5240 O   0  0  0  0  0  0  0  0  0  0  0  0
  -25.5020  -13.5270   20.1170 C   0  0  0  0  0  0  0  0  0  0  0  0
  -24.4670  -12.7910   20.6180 C   0  0  0  0  0  0  0  0  0  0  0  0
  -24.8870  -11.4260   20.5520 C   0  0  0  0  0  0  0  0  0  0  0  0
  -26.4990  -12.6150   19.7970 N   0  0  0  0  0  0  0  0  0  0  0  0
  -26.1350  -11.3460   20.1110 N   0  0  0  0  0  0  0  0  0  0  0  0
  -24.1520  -10.1870   20.8290 C   0  0  0  0  0  0  0  0  0  0  0  0
  -24.5910   -9.2770   21.8150 C   0  0  0  0  0  3  0  0  0  0  0  0
  -23.8630   -8.0980   22.0750 C   0  0  0  0  0  3  0  0  0  0  0  0
  -22.6810   -7.8200   21.3480 C   0  0  0  0  0  0  0  0  0  0  0  0
  -22.2620   -8.7170   20.3500 C   0  0  0  0  0  3  0  0  0  0  0  0
  -22.9890   -9.8900   20.0890 C   0  0  0  0  0  3  0  0  0  0  0  0
  -21.9190   -6.6900   21.5140 O   0  0  0  0  0  0  0  0  0  0  0  0
  -21.8210   -6.0590   22.7290 C   0  0  0  0  0  0  0  0  0  0  0  0
  -21.3350   -6.7230   23.8760 C   0  0  0  0  0  3  0  0  0  0  0  0
  -21.1910   -6.0220   25.0900 C   0  0  0  0  0  3  0  0  0  0  0  0
  -21.5180   -4.6550   25.1550 C   0  0  0  0  0  0  0  0  0  0  0  0
  -21.9910   -3.9880   24.0110 C   0  0  0  0  0  3  0  0  0  0  0  0
  -22.1410   -4.6900   22.8020 C   0  0  0  0  0  0  0  0  0  0  0  0
  -22.5820   -4.0380   21.6990 F   0  0  0  0  0  0  0  0  0  0  0  0
  -21.3700   -3.9770   26.3180 F   0  0  0  0  0  0  0  0  0  0  0  0
  -23.1170  -13.3060   21.0340 C   0  0  0  0  0  0  0  0  0  0  0  0
  -22.4830  -12.6530   22.0000 N   0  0  0  0  0  0  0  0  0  0  0  0
  -22.6380  -14.3240   20.5350 O   0  0  0  0  0  0  0  0  0  0  0  0
  -22.8870  -11.8340   22.4320 H   0  0  0  0  0  0  0  0  0  0  0  0
  -21.5780  -12.9690   22.3190 H   0  0  0  0  0  0  0  0  0  0  0  0
  -25.6700  -14.8900   19.8780 N   0  0  0  0  0  0  0  0  0  0  0  0
  -24.9170  -15.5560   20.0120 H   0  0  0  0  0  0  0  0  0  0  0  0
  -26.4440  -15.2670   19.3480 H   0  0  0  0  0  0  0  0  0  0  0  0
  -30.4580  -16.3350   21.0100 C   0  0  0  0  0  0  0  0  0  0  0  0
  -30.5190  -15.3810   21.7980 O   0  0  0  0  0  0  0  0  0  0  0  0
  -30.3510  -17.9030   23.0590 C   0  0  0  0  0  1  0  0  0  0  0  0
  -30.7110  -17.7520   21.5640 C   0  0  0  0  0  2  0  0  0  0  0  0
  -27.7410  -17.2990   20.1830 C   0  0  0  0  0  1  0  0  0  0  0  0
  -28.5120  -16.2800   19.3170 C   0  0  0  0  0  2  0  0  0  0  0  0
  1  4  1  0
  2  4  2  0
  3  5  1  0
  3  6  2  0
  4  7  1  0
  5  1  2  0
  6  2  1  0
  8  5  1  0
  8  9  1  0
 10  9  1  0
 10 11  1  0
 11 13  1  0
 12 23  2  0
 13 18  1  0
 14 22  1  0
 14 24  1  0
 15 21  1  0
 15 17  1  0
 16 22  1  0
 17 16  1  0
 18 17  2  0
 19 20  1  0
 19 13  2  0
 20 15  2  0
 21 14  1  0
 22 12  1  0
 24 26  2  0
 25 24  1  0
 27 25  1  0
 28 37  2  0
 28 33  1  0
 29 25  1  0
 29 33  1  0
 30 29  1  0
 31 32  1  0
 31 30  1  0
 32 28  1  0
 33 34  2  0
 34 35  1  0
 36 35  2  0
 37 36  1  0
 38 12  1  0
 38 43  1  0
 38 39  1  0
 39 42  1  1
 39 40  1  0
 41 39  1  0
 43 46  1  0
 44 48  1  0
 44 43  1  0
 45 44  2  0
 48 47  1  0
 50 48  1  0
 50 51  1  0
 50 49  1  0
 52  6  1  0
 52 53  1  0
 54 53  1  6
 54 91  1  0
 55 61  1  0
 55 54  1  0
 56 61  1  0
 57 58  1  0
 57 56  1  0
 59 58  1  0
 59 66  1  0
 59 60  1  0
 61 60  1  0
 62 55  2  0
 63 64  2  0
 64 83  1  0
 65 64  1  0
 65 68  1  0
 66 67  1  0
 66 63  1  0
 67 65  2  0
 68 69  1  0
 69 70  2  0
 71 74  1  0
 71 70  1  0
 72 71  2  0
 73 72  1  0
 73 68  2  0
 74 75  1  0
 75 80  2  0
 75 76  1  0
 76 77  2  0
 77 78  1  0
 78 82  1  0
 79 78  2  0
 80 79  1  0
 81 80  1  0
 83 84  1  0
 84 87  1  0
 84 86  1  0
 85 83  2  0
 88 89  1  0
 88 63  1  0
 90 88  1  0
 91 94  1  0
 91 92  2  0
 94 93  1  0
 96 54  1  0
 96 95  1  0
M  ISO  4  10 101  11 101  54 100  55 100
M  END
>  <TORSDO>  (25) 
F 25

>  <SCORE>  (25) 
-11.168

>  <name>  (25) 
24

>  <ligand_id>  (25) 
24

>  <original_smiles>  (25) 
[H]c1c([H])c([H])c2c(c1[H])C([H])([H])C([H])([H])C([H])([H])C2([H])N([H])C(=O)C1([H])N(C(=O)C([H])(N([H])C(=O)C([H])(N([H])C([H])([H])[H])C([H])([H])[H])C(C([H])([H])[H])(C([H])([H])[H])C([H])([H])[H])C([H])([H])c2c([H])c(OC([H])([H])C([H])([H])C([H])([H])c3c([H])c(C([H])([H])[H])c([H])c(C([H])([H])C([H])([H])C(C(=O)N4C([H])([H])C([H])([H])C([H])([H])C([H])(n5nc(-c6c([H])c([H])c(Oc7c([H])c([H])c(F)c([H])c7F)c([H])c6[H])c(C(=O)N([H])[H])c5N([H])[H])C4([H])[H])(C(=O)C([H])([H])C([H])([H])[H])C([H])([H])C([H])([H])[H])c3[H])c([H])c([H])c2C1([H])[H]

>  <smiles>  (25) 
[H]c1c([H])c([H])c2c(c1[H])C([H])([H])C([H])([H])C([H])([H])C2([H])N([H])C(=O)C1([H])N(C(=O)C([H])(N([H])C(=O)C([H])(N([H])C([H])([H])[H])C([H])([H])[H])C(C([H])([H])[H])(C([H])([H])[H])C([H])([H])[H])C([H])([H])c2c([H])c(OC([H])([H])C([H])([H])C([H])([H])c3c([H])c(C([H])([H])[H])c([H])c(C([H])([H])C([H])([H])C(C(=O)N4C([H])([H])C([H])([H])C([H])([H])C([H])(n5nc(-c6c([H])c([H])c(Oc7c([H])c([H])c(F)c([H])c7F)c([H])c6[H])c(C(=O)N([H])[H])c5N([H])[H])C4([H])[H])(C(=O)C([H])([H])C([H])([H])[H])C([H])([H])C([H])([H])[H])c3[H])c([H])c([H])c2C1([H])[H]

$$$$
25:0:0
     RDKit          3D

 95104  0  0  1  0  0  0  0  0999 V2000
  -31.1480  -14.6410   20.1970 C   0  0  0  0  0  0  0  0  0  0  0  0
  -30.7570  -12.4990   19.0230 C   0  0  0  0  0  2  0  0  0  0  0  0
  -29.8110  -12.7470   17.8300 C   0  0  0  0  0  2  0  0  0  0  0  0
  -28.3330  -12.6670   18.2700 C   0  0  0  0  0  2  0  0  0  0  0  0
  -28.0470  -13.4750   19.5650 C   0  0  0  0  0  3  0  0  0  0  0  0
  -29.1110  -13.1620   20.6400 C   0  0  0  0  0  2  0  0  0  0  0  0
  -30.4240  -13.4870   20.0680 N   0  0  0  0  0  0  0  0  0  0  0  0
  -32.2880  -14.7270   19.7330 O   0  0  0  0  0  0  0  0  0  0  0  0
  -31.0450  -18.1410   22.6970 C   0  0  0  0  0  2  0  0  0  0  0  0
  -31.0220  -19.6780   22.7870 C   0  0  0  0  0  2  0  0  0  0  0  0
  -29.8400  -19.6630   20.4810 C   0  0  0  0  0  2  0  0  0  0  0  0
  -29.8310  -16.0610   21.8100 C   0  0  0  0  0  2  0  0  0  0  0  0
  -30.7370  -17.1190   19.8660 C   0  0  0  0  0  3  0  0  0  0  0  0
  -29.7870  -17.5880   21.9960 C   0  0  0  0  0  3  0  0  0  0  0  0
  -29.7420  -18.0950   20.5730 C   0  0  0  0  0  3  0  0  0  0  0  0
  -30.8140  -20.4230   21.4380 C   0  0  0  0  0  3  0  0  0  0  0  0
  -30.4950  -15.8010   20.5240 N   0  0  0  0  0  0  0  0  0  0  0  0
  -25.6750  -14.1520   20.2890 C   0  0  0  0  0  0  0  0  0  0  0  0
  -24.5930  -13.4070   20.6750 C   0  0  0  0  0  0  0  0  0  0  0  0
  -25.0230  -12.0460   20.6620 C   0  0  0  0  0  0  0  0  0  0  0  0
  -26.6950  -13.2380   20.0610 N   0  0  0  0  0  0  0  0  0  0  0  0
  -26.3080  -11.9690   20.3450 N   0  0  0  0  0  0  0  0  0  0  0  0
  -24.2640  -10.8060   20.8750 C   0  0  0  0  0  0  0  0  0  0  0  0
  -24.6570   -9.8590   21.8460 C   0  0  0  0  0  3  0  0  0  0  0  0
  -23.9060   -8.6810   22.0450 C   0  0  0  0  0  3  0  0  0  0  0  0
  -22.7460   -8.4400   21.2710 C   0  0  0  0  0  0  0  0  0  0  0  0
  -22.3690   -9.3750   20.2900 C   0  0  0  0  0  3  0  0  0  0  0  0
  -23.1240  -10.5430   20.0890 C   0  0  0  0  0  3  0  0  0  0  0  0
  -21.9650   -7.3150   21.3780 O   0  0  0  0  0  0  0  0  0  0  0  0
  -21.8640   -6.6200   22.5570 C   0  0  0  0  0  0  0  0  0  0  0  0
  -21.3790   -7.2250   23.7390 C   0  0  0  0  0  3  0  0  0  0  0  0
  -21.2240   -6.4560   24.9090 C   0  0  0  0  0  3  0  0  0  0  0  0
  -21.5380   -5.0850   24.8980 C   0  0  0  0  0  0  0  0  0  0  0  0
  -22.0150   -4.4810   23.7220 C   0  0  0  0  0  3  0  0  0  0  0  0
  -22.1710   -5.2460   22.5530 C   0  0  0  0  0  0  0  0  0  0  0  0
  -22.6110   -4.6540   21.4170 F   0  0  0  0  0  0  0  0  0  0  0  0
  -21.3820   -4.3440   26.0210 F   0  0  0  0  0  0  0  0  0  0  0  0
  -23.2050  -13.9190   20.9420 C   0  0  0  0  0  0  0  0  0  0  0  0
  -22.4650  -13.2720   21.8360 N   0  0  0  0  0  0  0  0  0  0  0  0
  -22.7840  -14.9350   20.3900 O   0  0  0  0  0  0  0  0  0  0  0  0
  -22.8070  -12.4490   22.3070 H   0  0  0  0  0  0  0  0  0  0  0  0
  -21.5370  -13.6100   22.0530 H   0  0  0  0  0  0  0  0  0  0  0  0
  -25.8700  -15.5150   20.0820 N   0  0  0  0  0  0  0  0  0  0  0  0
  -25.1360  -16.1980   20.2310 H   0  0  0  0  0  0  0  0  0  0  0  0
  -26.7120  -15.9200   19.6900 H   0  0  0  0  0  0  0  0  0  0  0  0
  -30.4970  -17.0500   18.3460 C   0  0  0  0  0  0  0  0  0  0  0  0
  -31.4700  -17.4770   17.5500 N   0  0  0  0  0  0  0  0  0  0  0  0
  -29.4470  -16.6040   17.8890 O   0  0  0  0  0  0  0  0  0  0  0  0
  -32.3330  -17.8280   17.9420 H   0  0  0  0  0  0  0  0  0  0  0  0
  -31.3780  -17.4330   16.5450 H   0  0  0  0  0  0  0  0  0  0  0  0
  -30.3640  -21.9040   21.7550 C   0  0  0  0  0  2  0  0  0  0  0  0
  -30.1540  -22.9390   20.5970 C   0  0  0  0  0  2  0  0  0  0  0  0
  -29.4640  -24.2810   21.0480 C   0  0  0  0  0  3  0  0  0  0  0  0
  -29.3240  -25.4080   19.9660 C   0  0  0  0  0  3  0  0  0  0  0  0
  -29.0360  -26.7380   20.4810 O   0  0  0  0  0  0  0  0  0  0  0  0
  -24.7710  -31.7520   23.2240 C   0  0  0  0  0  0  0  0  0  0  0  0
  -27.8100  -27.3890   20.3530 C   0  0  0  0  0  0  0  0  0  0  0  0
  -23.7360  -30.3050   21.5080 C   0  0  0  0  0  3  0  0  0  0  0  0
  -25.3500  -28.8220   20.1870 C   0  0  0  0  0  0  0  0  0  0  0  0
  -26.2540  -30.7610   21.4770 C   0  0  0  0  0  2  0  0  0  0  0  0
  -26.4390  -29.3880   20.8510 C   0  0  0  0  0  0  0  0  0  0  0  0
  -27.6670  -28.6800   20.9270 C   0  0  0  0  0  3  0  0  0  0  0  0
  -26.6920  -26.8440   19.6750 C   0  0  0  0  0  3  0  0  0  0  0  0
  -25.4760  -27.5560   19.5890 C   0  0  0  0  0  3  0  0  0  0  0  0
  -24.0650  -29.6270   20.1480 C   0  0  0  0  0  2  0  0  0  0  0  0
  -24.9340  -30.9560   22.1300 N   0  0  0  0  0  0  0  0  0  0  0  0
  -23.6460  -31.9770   23.6920 O   0  0  0  0  0  0  0  0  0  0  0  0
  -23.0600  -29.2620   22.4270 C   0  0  0  0  0  0  0  0  0  0  0  0
  -21.7300  -29.1140   22.2920 N   0  0  0  0  0  0  0  0  0  0  0  0
  -23.7310  -28.5920   23.2170 O   0  0  0  0  0  0  0  0  0  0  0  0
  -21.2490  -29.7140   21.6370 H   0  0  0  0  0  0  0  0  0  0  0  0
  -18.3270  -28.0290   22.8150 C   0  0  0  0  0  0  0  0  0  0  0  0
  -20.9000  -28.1520   23.0150 C   0  0  0  0  0  3  0  0  0  0  0  0
  -20.9220  -26.7690   22.3250 C   0  0  0  0  0  2  0  0  0  0  0  0
  -19.7690  -26.5640   21.3360 C   0  0  0  0  0  2  0  0  0  0  0  0
  -18.4200  -26.7200   22.0450 C   0  0  0  0  0  2  0  0  0  0  0  0
  -19.4920  -28.7050   23.2600 C   0  0  0  0  0  0  0  0  0  0  0  0
  -19.3500  -29.9290   23.9510 C   0  0  0  0  0  3  0  0  0  0  0  0
  -18.0770  -30.4750   24.1940 C   0  0  0  0  0  3  0  0  0  0  0  0
  -16.9270  -29.7970   23.7610 C   0  0  0  0  0  3  0  0  0  0  0  0
  -17.0520  -28.5740   23.0770 C   0  0  0  0  0  3  0  0  0  0  0  0
  -25.9840  -32.4380   23.9260 C   0  0  0  0  0  3  0  0  0  0  0  0
  -26.4240  -31.7090   25.2540 C   0  0  1  0  0  0  0  0  0  0  0  0
  -25.2580  -31.4620   26.2420 C   0  0  0  0  0  1  0  0  0  0  0  0
  -27.0720  -30.3400   24.9350 C   0  0  0  0  0  1  0  0  0  0  0  0
  -27.4990  -32.5480   25.9840 C   0  0  0  0  0  1  0  0  0  0  0  0
  -25.6140  -33.8310   24.2010 N   0  0  0  0  0  0  0  0  0  0  0  0
  -25.9630  -34.8760   23.4380 C   0  0  0  0  0  0  0  0  0  0  0  0
  -26.7000  -34.7690   22.4540 O   0  0  0  0  0  0  0  0  0  0  0  0
  -24.9630  -33.9840   24.9580 H   0  0  0  0  0  0  0  0  0  0  0  0
  -24.2000  -36.5980   22.9340 C   0  0  0  0  0  1  0  0  0  0  0  0
  -25.4040  -36.2590   23.8290 C   0  0  0  0  0  3  0  0  0  0  0  0
  -27.4510  -37.2450   24.7610 C   0  0  0  0  0  1  0  0  0  0  0  0
  -26.4050  -37.3450   23.7440 N   0  0  0  0  0  0  0  0  0  0  0  0
  -25.9580  -38.2530   23.8350 H   0  0  0  0  0  0  0  0  0  0  0  0
  1 17  1  0
  2  7  1  0
  3  4  1  0
  3  2  1  0
  5  4  1  0
  5 21  1  0
  5  6  1  0
  7  1  1  0
  7  6  1  0
  8  1  2  0
  9 10  1  0
 11 16  1  0
 13 46  1  0
 13 17  1  0
 13 15  1  0
 14 12  1  0
 14  9  1  0
 15 11  1  0
 15 14  1  0
 16 51  1  0
 16 10  1  0
 17 12  1  0
 18 19  2  0
 19 38  1  0
 20 19  1  0
 20 23  1  0
 21 18  1  0
 21 22  1  0
 22 20  2  0
 23 24  1  0
 24 25  2  0
 26 29  1  0
 26 25  1  0
 27 26  2  0
 28 27  1  0
 28 23  2  0
 29 30  1  0
 30 31  1  0
 31 32  2  0
 33 32  1  0
 33 37  1  0
 34 33  2  0
 35 30  2  0
 35 34  1  0
 36 35  1  0
 38 39  1  0
 39 42  1  0
 39 41  1  0
 40 38  2  0
 43 44  1  0
 43 18  1  0
 45 43  1  0
 47 49  1  0
 47 46  1  0
 48 46  2  0
 50 47  1  0
 52 53  1  0
 52 51  1  0
 54 55  1  0
 54 53  2  0
 56 67  2  0
 57 55  1  0
 57 62  1  0
 58 66  1  0
 58 68  1  0
 59 61  1  0
 60 66  1  0
 61 62  2  0
 61 60  1  0
 63 57  2  0
 64 63  1  0
 64 59  2  0
 65 59  1  0
 65 58  1  0
 66 56  1  0
 68 70  2  0
 69 68  1  0
 71 69  1  0
 72 81  2  0
 72 77  1  0
 73 69  1  0
 73 77  1  0
 74 73  1  0
 75 76  1  0
 75 74  1  0
 76 72  1  0
 77 78  2  0
 78 79  1  0
 80 79  2  0
 81 80  1  0
 82 56  1  0
 82 87  1  0
 82 83  1  0
 83 86  1  1
 83 84  1  0
 85 83  1  0
 87 90  1  0
 88 92  1  0
 88 87  1  0
 89 88  2  0
 92 91  1  0
 94 92  1  0
 94 95  1  0
 94 93  1  0
M  ISO  4   1 100  17 100  54 101  55 101
M  END
>  <TORSDO>  (26) 
F 20

>  <SCORE>  (26) 
-12.117

>  <name>  (26) 
25

>  <ligand_id>  (26) 
25

>  <original_smiles>  (26) 
[H]c1c([H])c([H])c2c(c1[H])C([H])([H])C([H])([H])C([H])([H])C2([H])N([H])C(=O)C1([H])N(C(=O)C([H])(N([H])C(=O)C([H])(N([H])C([H])([H])[H])C([H])([H])[H])C(C([H])([H])[H])(C([H])([H])[H])C([H])([H])[H])C([H])([H])c2c([H])c(OC([H])([H])C([H])([H])C([H])([H])C([H])([H])C3([H])C([H])([H])C([H])([H])C4([H])C([H])([H])N(C(=O)N5C([H])([H])C([H])([H])C([H])([H])C([H])(n6nc(-c7c([H])c([H])c(Oc8c([H])c([H])c(F)c([H])c8F)c([H])c7[H])c(C(=O)N([H])[H])c6N([H])[H])C5([H])[H])C([H])(C(=O)N([H])[H])C4([H])C3([H])[H])c([H])c([H])c2C1([H])[H]

>  <smiles>  (26) 
[H]c1c([H])c([H])c2c(c1[H])C([H])([H])C([H])([H])C([H])([H])C2([H])N([H])C(=O)C1([H])N(C(=O)C([H])(N([H])C(=O)C([H])(N([H])C([H])([H])[H])C([H])([H])[H])C(C([H])([H])[H])(C([H])([H])[H])C([H])([H])[H])C([H])([H])c2c([H])c(OC([H])([H])C([H])([H])C([H])([H])C([H])([H])C3([H])C([H])([H])C([H])([H])C4([H])C([H])([H])N(C(=O)N5C([H])([H])C([H])([H])C([H])([H])C([H])(n6nc(-c7c([H])c([H])c(Oc8c([H])c([H])c(F)c([H])c8F)c([H])c7[H])c(C(=O)N([H])[H])c6N([H])[H])C5([H])[H])C([H])(C(=O)N([H])[H])C4([H])C3([H])[H])c([H])c([H])c2C1([H])[H]

$$$$
26:0:0
     RDKit          3D

 96104  0  0  1  0  0  0  0  0999 V2000
  -29.1590  -21.5440   19.7730 C   0  0  0  0  0  3  0  0  0  0  0  0
  -31.0630  -24.0780   22.1410 C   0  0  0  0  0  2  0  0  0  0  0  0
  -31.5090  -23.1170   23.2540 C   0  0  0  0  0  2  0  0  0  0  0  0
  -30.7350  -23.3200   20.8460 C   0  0  0  0  0  2  0  0  0  0  0  0
  -30.1230  -21.2960   22.1980 C   0  0  0  0  0  2  0  0  0  0  0  0
  -30.4610  -22.0150   23.5200 C   0  0  0  0  0  3  0  0  0  0  0  0
  -29.6410  -22.2510   21.0830 C   0  0  0  0  0  3  0  0  0  0  0  0
  -31.3180  -21.5940   25.9260 C   0  0  0  0  0  1  0  0  0  0  0  0
  -30.9480  -20.9890   24.5640 C   0  0  0  0  0  2  0  0  0  0  0  0
  -29.0970  -22.6040   18.6660 N   0  0  0  0  0  4  0  0  0  0  0  0
  -30.0210  -22.9900   18.5540 H   0  0  0  0  0  0  0  0  0  0  0  0
  -28.9110  -22.0980   17.8140 H   0  0  0  0  0  0  0  0  0  0  0  0
  -28.0680  -23.7480   18.6780 C   0  0  0  0  0  2  0  0  0  0  0  0
  -28.4810  -25.1570   19.3360 C   0  0  0  0  0  2  0  0  0  0  0  0
  -28.2950  -26.4560   18.6290 O   0  0  0  0  0  0  0  0  0  0  0  0
  -24.9180  -31.2100   22.9300 C   0  0  0  0  0  0  0  0  0  0  0  0
  -27.1790  -27.2580   18.9060 C   0  0  0  0  0  0  0  0  0  0  0  0
  -23.5480  -30.1050   21.1980 C   0  0  0  0  0  3  0  0  0  0  0  0
  -24.8390  -28.8240   19.3970 C   0  0  0  0  0  0  0  0  0  0  0  0
  -26.0580  -30.4730   20.8220 C   0  0  0  0  0  2  0  0  0  0  0  0
  -26.0640  -29.2210   19.9480 C   0  0  0  0  0  0  0  0  0  0  0  0
  -27.2390  -28.4550   19.6870 C   0  0  0  0  0  3  0  0  0  0  0  0
  -25.9320  -26.9040   18.3540 C   0  0  0  0  0  3  0  0  0  0  0  0
  -24.7730  -27.6720   18.5930 C   0  0  0  0  0  3  0  0  0  0  0  0
  -23.6210  -29.6720   19.7100 C   0  0  0  0  0  2  0  0  0  0  0  0
  -24.8660  -30.6040   21.7080 N   0  0  0  0  0  0  0  0  0  0  0  0
  -23.8940  -31.3830   23.6080 O   0  0  0  0  0  0  0  0  0  0  0  0
  -22.9710  -28.9350   22.0310 C   0  0  0  0  0  0  0  0  0  0  0  0
  -21.6550  -28.6970   21.9090 N   0  0  0  0  0  0  0  0  0  0  0  0
  -23.7080  -28.2480   22.7440 O   0  0  0  0  0  0  0  0  0  0  0  0
  -21.1170  -29.3090   21.3110 H   0  0  0  0  0  0  0  0  0  0  0  0
  -18.3930  -27.1620   22.2080 C   0  0  0  0  0  0  0  0  0  0  0  0
  -20.9120  -27.6200   22.5650 C   0  0  0  0  0  3  0  0  0  0  0  0
  -21.1520  -26.2660   21.8570 C   0  0  0  0  0  2  0  0  0  0  0  0
  -20.1010  -25.9480   20.7890 C   0  0  0  0  0  2  0  0  0  0  0  0
  -18.7020  -25.9060   21.4090 C   0  0  0  0  0  2  0  0  0  0  0  0
  -19.4310  -27.9750   22.7370 C   0  0  0  0  0  0  0  0  0  0  0  0
  -19.0880  -29.1490   23.4420 C   0  0  0  0  0  3  0  0  0  0  0  0
  -17.7410  -29.5150   23.6230 C   0  0  0  0  0  3  0  0  0  0  0  0
  -16.7170  -28.6980   23.1100 C   0  0  0  0  0  3  0  0  0  0  0  0
  -17.0440  -27.5230   22.4090 C   0  0  0  0  0  3  0  0  0  0  0  0
  -26.2610  -31.7350   23.5260 C   0  0  0  0  0  3  0  0  0  0  0  0
  -25.9970  -33.0530   24.1220 N   0  0  0  0  0  0  0  0  0  0  0  0
  -26.3100  -34.2240   23.5520 C   0  0  0  0  0  0  0  0  0  0  0  0
  -26.9200  -34.3040   22.4830 O   0  0  0  0  0  0  0  0  0  0  0  0
  -25.4500  -33.0640   24.9700 H   0  0  0  0  0  0  0  0  0  0  0  0
  -24.6100  -36.0760   23.6210 C   0  0  0  0  0  1  0  0  0  0  0  0
  -25.8770  -35.5100   24.2820 C   0  0  0  0  0  3  0  0  0  0  0  0
  -28.0630  -36.1970   25.1650 C   0  0  0  0  0  1  0  0  0  0  0  0
  -26.9280  -36.5510   24.3150 N   0  0  0  0  0  0  0  0  0  0  0  0
  -26.5490  -37.4340   24.6450 H   0  0  0  0  0  0  0  0  0  0  0  0
  -26.8900  -30.7580   24.5940 C   0  0  1  0  0  0  0  0  0  0  0  0
  -25.9040  -30.3340   25.7090 C   0  0  0  0  0  1  0  0  0  0  0  0
  -27.4120  -29.4710   23.9140 C   0  0  0  0  0  1  0  0  0  0  0  0
  -28.1120  -31.4300   25.2620 C   0  0  0  0  0  1  0  0  0  0  0  0
  -30.0190  -20.2100   19.4120 C   0  0  0  0  0  2  0  0  0  0  0  0
  -29.5800  -18.7140   19.8490 C   0  0  0  0  0  3  0  0  0  0  0  0
  -30.7250  -17.6150   20.0920 C   0  0  0  0  0  3  0  0  0  0  0  0
  -31.1580  -15.0550   20.3350 C   0  0  0  0  0  0  0  0  0  0  0  0
  -31.1030  -12.6490   19.7050 C   0  0  0  0  0  2  0  0  0  0  0  0
  -30.2750  -12.5000   18.4120 C   0  0  0  0  0  2  0  0  0  0  0  0
  -28.7760  -12.3490   18.7370 C   0  0  0  0  0  2  0  0  0  0  0  0
  -28.2740  -13.4050   19.7600 C   0  0  0  0  0  3  0  0  0  0  0  0
  -29.2320  -13.5280   20.9650 C   0  0  0  0  0  2  0  0  0  0  0  0
  -30.5680  -13.8200   20.4310 N   0  0  0  0  0  0  0  0  0  0  0  0
  -32.3620  -15.1600   20.0920 O   0  0  0  0  0  0  0  0  0  0  0  0
  -30.3380  -16.1620   20.3000 N   0  0  0  0  0  0  0  0  0  0  0  0
  -29.3580  -15.9780   20.4560 H   0  0  0  0  0  0  0  0  0  0  0  0
  -25.8520  -14.0410   20.3170 C   0  0  0  0  0  0  0  0  0  0  0  0
  -24.7580  -13.2870   20.6490 C   0  0  0  0  0  0  0  0  0  0  0  0
  -25.2100  -11.9320   20.6890 C   0  0  0  0  0  0  0  0  0  0  0  0
  -26.8990  -13.1460   20.1760 N   0  0  0  0  0  0  0  0  0  0  0  0
  -26.5170  -11.8750   20.4620 N   0  0  0  0  0  0  0  0  0  0  0  0
  -24.4610  -10.6820   20.8750 C   0  0  0  0  0  0  0  0  0  0  0  0
  -24.7740   -9.7800   21.9140 C   0  0  0  0  0  3  0  0  0  0  0  0
  -24.0270   -8.5940   22.0850 C   0  0  0  0  0  3  0  0  0  0  0  0
  -22.9520   -8.3030   21.2110 C   0  0  0  0  0  0  0  0  0  0  0  0
  -22.6580   -9.1930   20.1630 C   0  0  0  0  0  3  0  0  0  0  0  0
  -23.4080  -10.3690   19.9930 C   0  0  0  0  0  3  0  0  0  0  0  0
  -22.1880   -7.1640   21.2830 O   0  0  0  0  0  0  0  0  0  0  0  0
  -21.9360   -6.5390   22.4790 C   0  0  0  0  0  0  0  0  0  0  0  0
  -21.2820   -7.2010   23.5410 C   0  0  0  0  0  3  0  0  0  0  0  0
  -20.9820   -6.5020   24.7280 C   0  0  0  0  0  3  0  0  0  0  0  0
  -21.3250   -5.1430   24.8500 C   0  0  0  0  0  0  0  0  0  0  0  0
  -21.9720   -4.4800   23.7910 C   0  0  0  0  0  3  0  0  0  0  0  0
  -22.2720   -5.1770   22.6080 C   0  0  0  0  0  0  0  0  0  0  0  0
  -22.8750   -4.5280   21.5820 F   0  0  0  0  0  0  0  0  0  0  0  0
  -21.0300   -4.4680   25.9860 F   0  0  0  0  0  0  0  0  0  0  0  0
  -23.3520  -13.7830   20.8190 C   0  0  0  0  0  0  0  0  0  0  0  0
  -22.5700  -13.1280   21.6700 N   0  0  0  0  0  0  0  0  0  0  0  0
  -22.9520  -14.7880   20.2320 O   0  0  0  0  0  0  0  0  0  0  0  0
  -22.9070  -12.3160   22.1660 H   0  0  0  0  0  0  0  0  0  0  0  0
  -21.6240  -13.4430   21.8280 H   0  0  0  0  0  0  0  0  0  0  0  0
  -26.0360  -15.4030   20.1020 N   0  0  0  0  0  0  0  0  0  0  0  0
  -25.2630  -16.0580   20.1300 H   0  0  0  0  0  0  0  0  0  0  0  0
  -26.8960  -15.8220   19.7700 H   0  0  0  0  0  0  0  0  0  0  0  0
  1 56  1  0
  2  3  1  0
  3  6  1  0
  4  7  1  0
  4  2  1  0
  5  6  1  0
  6  9  1  0
  7  1  1  0
  7  5  1  0
  9  8  1  0
 10 13  1  0
 10  1  1  0
 11 10  1  0
 12 10  1  0
 13 14  1  0
 15 17  1  0
 15 14  1  0
 16 27  2  0
 17 22  1  0
 18 26  1  0
 18 28  1  0
 19 25  1  0
 19 21  1  0
 20 26  1  0
 21 20  1  0
 22 21  2  0
 23 24  1  0
 23 17  2  0
 24 19  2  0
 25 18  1  0
 26 16  1  0
 28 30  2  0
 29 28  1  0
 31 29  1  0
 32 41  2  0
 32 37  1  0
 33 29  1  0
 33 37  1  0
 34 33  1  0
 35 36  1  0
 35 34  1  0
 36 32  1  0
 37 38  2  0
 38 39  1  0
 40 39  2  0
 41 40  1  0
 42 16  1  0
 42 43  1  0
 42 52  1  0
 43 46  1  0
 44 43  1  0
 44 48  1  0
 45 44  2  0
 48 47  1  0
 48 50  1  0
 50 51  1  0
 50 49  1  0
 52 55  1  1
 52 53  1  0
 54 52  1  0
 56 57  1  0
 57 58  2  0
 58 67  1  0
 59 65  1  0
 60 65  1  0
 61 62  1  0
 61 60  1  0
 63 62  1  0
 63 72  1  0
 63 64  1  0
 65 64  1  0
 66 59  2  0
 67 59  1  0
 67 68  1  0
 69 70  2  0
 70 71  1  0
 70 89  1  0
 71 74  1  0
 72 69  1  0
 72 73  1  0
 73 71  2  0
 74 75  1  0
 75 76  2  0
 77 80  1  0
 77 76  1  0
 78 77  2  0
 79 78  1  0
 79 74  2  0
 80 81  1  0
 81 86  2  0
 81 82  1  0
 82 83  2  0
 83 84  1  0
 84 88  1  0
 85 84  2  0
 86 85  1  0
 87 86  1  0
 89 90  1  0
 90 93  1  0
 90 92  1  0
 91 89  2  0
 94 95  1  0
 94 69  1  0
 96 94  1  0
M  ISO  4  14 101  15 101  59 100  67 100
M  END
>  <TORSDO>  (27) 
F 24

>  <SCORE>  (27) 
-6.683

>  <name>  (27) 
26

>  <ligand_id>  (27) 
26

>  <original_smiles>  (27) 
[H]c1c([H])c([H])c2c(c1[H])C([H])([H])C([H])([H])C([H])([H])C2([H])N([H])C(=O)C1([H])N(C(=O)C([H])(N([H])C(=O)C([H])(N([H])C([H])([H])[H])C([H])([H])[H])C(C([H])([H])[H])(C([H])([H])[H])C([H])([H])[H])C([H])([H])c2c([H])c(OC([H])([H])C([H])([H])[N+]([H])([H])C([H])(C([H])([H])C([H])([H])C([H])([H])N([H])C(=O)N3C([H])([H])C([H])([H])C([H])([H])C([H])(n4nc(-c5c([H])c([H])c(Oc6c([H])c([H])c(F)c([H])c6F)c([H])c5[H])c(C(=O)N([H])[H])c4N([H])[H])C3([H])[H])C3([H])C([H])([H])C([H])([H])C([H])([H])C([H])(C([H])([H])C([H])([H])[H])C3([H])[H])c([H])c([H])c2C1([H])[H]

>  <smiles>  (27) 
[H]c1c([H])c([H])c2c(c1[H])C([H])([H])C([H])([H])C([H])([H])C2([H])N([H])C(=O)C1([H])N(C(=O)C([H])(N([H])C(=O)C([H])(N([H])C([H])([H])[H])C([H])([H])[H])C(C([H])([H])[H])(C([H])([H])[H])C([H])([H])[H])C([H])([H])c2c([H])c(OC([H])([H])C([H])([H])[N+]([H])([H])C([H])(C([H])([H])C([H])([H])C([H])([H])N([H])C(=O)N3C([H])([H])C([H])([H])C([H])([H])C([H])(n4nc(-c5c([H])c([H])c(Oc6c([H])c([H])c(F)c([H])c6F)c([H])c5[H])c(C(=O)N([H])[H])c4N([H])[H])C3([H])[H])C3([H])C([H])([H])C([H])([H])C([H])([H])C([H])(C([H])([H])C([H])([H])[H])C3([H])[H])c([H])c([H])c2C1([H])[H]

$$$$
27:0:0
     RDKit          3D

 94103  0  0  1  0  0  0  0  0999 V2000
  -30.4830  -20.9990   18.4120 C   0  0  0  0  0  2  0  0  0  0  0  0
  -28.9750  -21.2010   18.2880 C   0  0  0  0  0  2  0  0  0  0  0  0
  -30.5600  -18.4920   19.1290 C   0  0  0  0  0  2  0  0  0  0  0  0
  -30.6600  -19.9770   19.5260 C   0  0  0  0  0  3  0  0  0  0  0  0
  -29.4130  -19.8640   20.4510 C   0  0  0  0  0  3  0  0  0  0  0  0
  -28.4910  -21.1980   19.7390 C   0  0  0  0  0  3  0  0  0  0  0  0
  -30.0210  -18.1410   20.5040 C   0  0  1  0  0  0  0  0  0  0  0  0
  -30.1120  -15.2990   20.0630 C   0  0  0  0  0  0  0  0  0  0  0  0
  -29.9790  -12.9420   19.0250 C   0  0  0  0  0  2  0  0  0  0  0  0
  -28.9950  -12.8610   17.8350 C   0  0  0  0  0  2  0  0  0  0  0  0
  -27.5630  -12.5810   18.3210 C   0  0  0  0  0  2  0  0  0  0  0  0
  -27.1920  -13.4300   19.5660 C   0  0  0  0  0  3  0  0  0  0  0  0
  -28.3090  -13.4860   20.6330 C   0  0  0  0  0  2  0  0  0  0  0  0
  -29.5050  -14.0190   19.9660 N   0  0  0  0  0  0  0  0  0  0  0  0
  -31.2900  -15.2850   19.6810 O   0  0  0  0  0  0  0  0  0  0  0  0
  -29.4540  -16.5850   20.4040 N   0  0  0  0  0  0  0  0  0  0  0  0
  -28.4910  -16.4710   20.6890 H   0  0  0  0  0  0  0  0  0  0  0  0
  -24.8500  -13.8970   20.4570 C   0  0  0  0  0  0  0  0  0  0  0  0
  -23.8320  -13.0850   20.8660 C   0  0  0  0  0  0  0  0  0  0  0  0
  -24.3320  -11.7490   20.7790 C   0  0  0  0  0  0  0  0  0  0  0  0
  -25.9020  -13.0610   20.1340 N   0  0  0  0  0  0  0  0  0  0  0  0
  -25.6050  -11.7590   20.3960 N   0  0  0  0  0  0  0  0  0  0  0  0
  -23.6470  -10.4640   20.9750 C   0  0  0  0  0  0  0  0  0  0  0  0
  -24.1560   -9.4800   21.8510 C   0  0  0  0  0  3  0  0  0  0  0  0
  -23.4640   -8.2660   22.0430 C   0  0  0  0  0  3  0  0  0  0  0  0
  -22.2480   -8.0230   21.3580 C   0  0  0  0  0  0  0  0  0  0  0  0
  -21.7570   -8.9980   20.4700 C   0  0  0  0  0  3  0  0  0  0  0  0
  -22.4530  -10.2050   20.2760 C   0  0  0  0  0  3  0  0  0  0  0  0
  -21.5230   -6.8610   21.4590 O   0  0  0  0  0  0  0  0  0  0  0  0
  -21.5810   -6.0720   22.5790 C   0  0  0  0  0  0  0  0  0  0  0  0
  -21.2640   -6.5730   23.8610 C   0  0  0  0  0  3  0  0  0  0  0  0
  -21.2660   -5.7080   24.9750 C   0  0  0  0  0  3  0  0  0  0  0  0
  -21.5770   -4.3460   24.8100 C   0  0  0  0  0  0  0  0  0  0  0  0
  -21.8870   -3.8450   23.5340 C   0  0  0  0  0  3  0  0  0  0  0  0
  -21.8850   -4.7040   22.4220 C   0  0  0  0  0  0  0  0  0  0  0  0
  -22.1620   -4.2100   21.1920 F   0  0  0  0  0  0  0  0  0  0  0  0
  -21.5750   -3.5150   25.8790 F   0  0  0  0  0  0  0  0  0  0  0  0
  -22.4390  -13.5190   21.2200 C   0  0  0  0  0  0  0  0  0  0  0  0
  -21.7790  -12.7990   22.1190 N   0  0  0  0  0  0  0  0  0  0  0  0
  -21.9470  -14.5360   20.7320 O   0  0  0  0  0  0  0  0  0  0  0  0
  -22.1960  -11.9820   22.5430 H   0  0  0  0  0  0  0  0  0  0  0  0
  -20.8440  -13.0710   22.3890 H   0  0  0  0  0  0  0  0  0  0  0  0
  -24.9580  -15.2770   20.3120 N   0  0  0  0  0  0  0  0  0  0  0  0
  -24.1680  -15.8880   20.4800 H   0  0  0  0  0  0  0  0  0  0  0  0
  -25.7560  -15.7610   19.9240 H   0  0  0  0  0  0  0  0  0  0  0  0
  -28.5600  -22.9160   20.2370 C   0  0  0  0  0  3  0  0  0  0  0  0
  -27.7720  -24.4010   19.6550 C   0  0  0  0  0  3  0  0  0  0  0  0
  -27.9850  -25.9920   19.9370 O   0  0  0  0  0  0  0  0  0  0  0  0
  -24.4960  -31.8600   23.0350 C   0  0  0  0  0  0  0  0  0  0  0  0
  -26.9700  -27.0660   19.8830 C   0  0  0  0  0  0  0  0  0  0  0  0
  -23.2550  -30.4870   21.4100 C   0  0  0  0  0  3  0  0  0  0  0  0
  -24.6620  -28.9110   19.9200 C   0  0  0  0  0  0  0  0  0  0  0  0
  -25.8120  -30.7110   21.1950 C   0  0  0  0  0  2  0  0  0  0  0  0
  -25.8650  -29.3170   20.5150 C   0  0  0  0  0  0  0  0  0  0  0  0
  -27.0100  -28.4130   20.4760 C   0  0  0  0  0  3  0  0  0  0  0  0
  -25.7420  -26.8020   19.2340 C   0  0  0  0  0  3  0  0  0  0  0  0
  -24.6250  -27.6710   19.2590 C   0  0  0  0  0  3  0  0  0  0  0  0
  -23.4450  -29.8260   20.0160 C   0  0  0  0  0  2  0  0  0  0  0  0
  -24.5430  -31.0430   21.9340 N   0  0  0  0  0  0  0  0  0  0  0  0
  -23.4210  -32.1430   23.5900 O   0  0  0  0  0  0  0  0  0  0  0  0
  -22.5900  -29.4750   22.3770 C   0  0  0  0  0  0  0  0  0  0  0  0
  -21.2540  -29.3260   22.2970 N   0  0  0  0  0  0  0  0  0  0  0  0
  -23.2790  -28.8250   23.1680 O   0  0  0  0  0  0  0  0  0  0  0  0
  -20.7520  -29.9000   21.6360 H   0  0  0  0  0  0  0  0  0  0  0  0
  -17.8800  -28.1440   22.9010 C   0  0  0  0  0  0  0  0  0  0  0  0
  -20.4490  -28.3800   23.0780 C   0  0  0  0  0  3  0  0  0  0  0  0
  -20.5160  -26.9600   22.4700 C   0  0  0  0  0  2  0  0  0  0  0  0
  -19.3760  -26.6680   21.4890 C   0  0  0  0  0  2  0  0  0  0  0  0
  -18.0200  -26.8100   22.1880 C   0  0  0  0  0  2  0  0  0  0  0  0
  -19.0200  -28.8880   23.3030 C   0  0  0  0  0  0  0  0  0  0  0  0
  -18.8330  -30.1380   23.9340 C   0  0  0  0  0  3  0  0  0  0  0  0
  -17.5390  -30.6420   24.1630 C   0  0  0  0  0  3  0  0  0  0  0  0
  -16.4140  -29.8950   23.7730 C   0  0  0  0  0  3  0  0  0  0  0  0
  -16.5850  -28.6470   23.1490 C   0  0  0  0  0  3  0  0  0  0  0  0
  -25.7860  -32.4900   23.6390 C   0  0  0  0  0  3  0  0  0  0  0  0
  -25.4720  -33.8760   24.0290 N   0  0  0  0  0  0  0  0  0  0  0  0
  -25.8030  -34.9670   23.3240 C   0  0  0  0  0  0  0  0  0  0  0  0
  -26.4710  -34.9110   22.2880 O   0  0  0  0  0  0  0  0  0  0  0  0
  -24.8760  -33.9930   24.8360 H   0  0  0  0  0  0  0  0  0  0  0  0
  -24.0800  -36.7850   23.0640 C   0  0  0  0  0  1  0  0  0  0  0  0
  -25.3210  -36.3340   23.8500 C   0  0  0  0  0  3  0  0  0  0  0  0
  -27.4630  -37.1720   24.7180 C   0  0  0  0  0  1  0  0  0  0  0  0
  -26.3580  -37.3890   23.7880 N   0  0  0  0  0  0  0  0  0  0  0  0
  -25.9530  -38.3020   23.9820 H   0  0  0  0  0  0  0  0  0  0  0  0
  -26.3400  -31.6890   24.8820 C   0  0  1  0  0  0  0  0  0  0  0  0
  -25.2800  -31.4210   25.9750 C   0  0  0  0  0  1  0  0  0  0  0  0
  -26.9150  -30.3220   24.4460 C   0  0  0  0  0  1  0  0  0  0  0  0
  -27.5080  -32.4690   25.5300 C   0  0  0  0  0  1  0  0  0  0  0  0
  -31.0500  -18.0290   21.6870 C   0  0  0  0  0  2  0  0  0  0  0  0
  -30.4950  -18.3760   23.0900 C   0  0  0  0  0  2  0  0  0  0  0  0
  -31.3800  -17.9030   24.1740 N   0  0  0  0  0  4  0  0  0  0  0  0
  -31.4390  -16.8990   24.2000 H   0  0  0  0  0  0  0  0  0  0  0  0
  -31.0260  -18.2110   25.0640 H   0  0  0  0  0  0  0  0  0  0  0  0
  -32.3040  -18.2790   24.0570 H   0  0  0  0  0  0  0  0  0  0  0  0
  2  1  1  0
  2  6  1  0
  3  4  1  0
  3  7  1  0
  4  1  1  0
  4  5  1  0
  5  7  1  0
  6 46  1  0
  6  5  1  0
  7 89  1  1
  8 16  1  0
  9 14  1  0
 10 11  1  0
 10  9  1  0
 11 12  1  0
 12 21  1  0
 12 13  1  0
 14  8  1  0
 14 13  1  0
 15  8  2  0
 16  7  1  0
 16 17  1  0
 18 19  2  0
 19 38  1  0
 20 19  1  0
 20 23  1  0
 21 22  1  0
 21 18  1  0
 22 20  2  0
 23 24  1  0
 24 25  2  0
 26 29  1  0
 26 25  1  0
 27 26  2  0
 28 27  1  0
 28 23  2  0
 29 30  1  0
 30 31  1  0
 31 32  2  0
 33 32  1  0
 33 37  1  0
 34 33  2  0
 35 30  2  0
 35 34  1  0
 36 35  1  0
 38 39  1  0
 39 42  1  0
 39 41  1  0
 40 38  2  0
 43 18  1  0
 43 44  1  0
 45 43  1  0
 47 48  1  0
 47 46  2  0
 49 60  2  0
 49 75  1  0
 50 48  1  0
 50 55  1  0
 51 59  1  0
 51 61  1  0
 52 58  1  0
 52 54  1  0
 53 59  1  0
 54 53  1  0
 55 54  2  0
 56 57  1  0
 56 50  2  0
 57 52  2  0
 58 51  1  0
 59 49  1  0
 61 63  2  0
 62 61  1  0
 62 66  1  0
 64 62  1  0
 65 74  2  0
 65 70  1  0
 66 70  1  0
 67 66  1  0
 68 69  1  0
 68 67  1  0
 69 65  1  0
 70 71  2  0
 71 72  1  0
 73 72  2  0
 74 73  1  0
 75 76  1  0
 75 85  1  0
 76 79  1  0
 77 81  1  0
 77 76  1  0
 78 77  2  0
 80 81  1  0
 83 81  1  0
 83 84  1  0
 83 82  1  0
 85 88  1  1
 85 86  1  0
 87 85  1  0
 89 90  1  0
 90 91  1  0
 91 92  1  0
 91 93  1  0
 94 91  1  0
M  ISO  4   8 100  16 100  47 101  48 101
M  END
>  <TORSDO>  (28) 
F 21

>  <SCORE>  (28) 
-12.787

>  <name>  (28) 
27

>  <ligand_id>  (28) 
27

>  <original_smiles>  (28) 
[H]c1c([H])c([H])c2c(c1[H])C([H])([H])C([H])([H])C([H])([H])C2([H])N([H])C(=O)C1([H])N(C(=O)C([H])(N([H])C(=O)C([H])(N([H])C([H])([H])[H])C([H])([H])[H])C(C([H])([H])[H])(C([H])([H])[H])C([H])([H])[H])C([H])([H])c2c([H])c(OC([H])([H])C([H])([H])C3([H])C([H])([H])C([H])([H])C4([H])C([H])([H])C(N([H])C(=O)N5C([H])([H])C([H])([H])C([H])([H])C([H])(n6nc(-c7c([H])c([H])c(Oc8c([H])c([H])c(F)c([H])c8F)c([H])c7[H])c(C(=O)N([H])[H])c6N([H])[H])C5([H])[H])(C([H])([H])C([H])([H])[N+]([H])([H])[H])C34[H])c([H])c([H])c2C1([H])[H]

>  <smiles>  (28) 
[H]c1c([H])c([H])c2c(c1[H])C([H])([H])C([H])([H])C([H])([H])C2([H])N([H])C(=O)C1([H])N(C(=O)C([H])(N([H])C(=O)C([H])(N([H])C([H])([H])[H])C([H])([H])[H])C(C([H])([H])[H])(C([H])([H])[H])C([H])([H])[H])C([H])([H])c2c([H])c(OC([H])([H])C([H])([H])C3([H])C([H])([H])C([H])([H])C4([H])C([H])([H])C(N([H])C(=O)N5C([H])([H])C([H])([H])C([H])([H])C([H])(n6nc(-c7c([H])c([H])c(Oc8c([H])c([H])c(F)c([H])c8F)c([H])c7[H])c(C(=O)N([H])[H])c6N([H])[H])C5([H])[H])(C([H])([H])C([H])([H])[N+]([H])([H])[H])C34[H])c([H])c([H])c2C1([H])[H]

$$$$
28:0:0
     RDKit          3D

 97105  0  0  1  0  0  0  0  0999 V2000
  -28.6920  -17.3660   20.8680 C   0  0  0  0  0  3  0  0  0  0  0  0
  -30.9760  -18.0950   20.4710 C   0  0  0  0  0  3  0  0  0  0  0  0
  -30.0710  -17.1450   21.0050 C   0  0  0  0  0  0  0  0  0  0  0  0
  -28.2110  -18.5380   20.2490 C   0  0  0  0  0  0  0  0  0  0  0  0
  -30.5180  -19.2660   19.8160 C   0  0  0  0  0  0  0  0  0  0  0  0
  -29.1150  -19.5040   19.7360 C   0  0  0  0  0  0  0  0  0  0  0  0
  -26.7060  -18.7470   20.1570 C   0  0  0  0  0  1  0  0  0  0  0  0
  -28.5480  -20.7940   19.1480 C   0  0  0  0  0  1  0  0  0  0  0  0
  -31.5470  -20.2570   19.2470 C   0  0  0  0  0  2  0  0  0  0  0  0
  -31.2590  -20.7020   17.7880 C   0  0  0  0  0  2  0  0  0  0  0  0
  -31.7160  -22.0850   17.4740 N   0  0  0  0  0  4  0  0  0  0  0  0
  -32.6680  -22.0290   17.1470 H   0  0  0  0  0  0  0  0  0  0  0  0
  -31.7200  -22.6400   18.3170 H   0  0  0  0  0  0  0  0  0  0  0  0
  -30.8700  -22.7820   16.4640 C   0  0  0  0  0  2  0  0  0  0  0  0
  -31.3180  -24.2310   16.1230 C   0  0  0  0  0  2  0  0  0  0  0  0
  -30.9090  -25.2460   17.0530 O   0  0  0  0  0  0  0  0  0  0  0  0
  -25.5320  -27.6590   21.0170 C   0  0  0  0  0  0  0  0  0  0  0  0
  -29.6160  -25.7380   17.0270 C   0  0  0  0  0  0  0  0  0  0  0  0
  -24.9820  -27.1730   18.6560 C   0  0  0  0  0  3  0  0  0  0  0  0
  -26.9710  -26.7570   17.1140 C   0  0  0  0  0  0  0  0  0  0  0  0
  -27.3550  -27.8550   19.3260 C   0  0  0  0  0  2  0  0  0  0  0  0
  -27.8570  -27.0210   18.1640 C   0  0  0  0  0  0  0  0  0  0  0  0
  -29.1740  -26.5140   18.1240 C   0  0  0  0  0  3  0  0  0  0  0  0
  -28.7070  -25.4940   15.9690 C   0  0  0  0  0  3  0  0  0  0  0  0
  -27.3910  -25.9930   16.0130 C   0  0  0  0  0  3  0  0  0  0  0  0
  -25.5750  -27.3260   17.2300 C   0  0  0  0  0  2  0  0  0  0  0  0
  -25.9610  -27.5470   19.7280 N   0  0  0  0  0  0  0  0  0  0  0  0
  -24.3400  -27.4940   21.3140 O   0  0  0  0  0  0  0  0  0  0  0  0
  -24.4260  -25.7390   18.8080 C   0  0  0  0  0  0  0  0  0  0  0  0
  -23.2430  -25.4900   18.2230 N   0  0  0  0  0  0  0  0  0  0  0  0
  -25.0650  -24.8740   19.4140 O   0  0  0  0  0  0  0  0  0  0  0  0
  -22.7770  -26.2560   17.7540 H   0  0  0  0  0  0  0  0  0  0  0  0
  -20.2660  -23.8100   17.0550 C   0  0  0  0  0  0  0  0  0  0  0  0
  -22.5470  -24.2050   18.2040 C   0  0  0  0  0  3  0  0  0  0  0  0
  -23.1400  -23.2680   17.1250 C   0  0  0  0  0  2  0  0  0  0  0  0
  -22.4070  -23.3550   15.7840 C   0  0  0  0  0  2  0  0  0  0  0  0
  -20.9290  -22.9980   15.9540 C   0  0  0  0  0  2  0  0  0  0  0  0
  -21.0280  -24.3890   18.1030 C   0  0  0  0  0  0  0  0  0  0  0  0
  -20.3680  -25.1620   19.0820 C   0  0  0  0  0  3  0  0  0  0  0  0
  -18.9750  -25.3580   19.0270 C   0  0  0  0  0  3  0  0  0  0  0  0
  -18.2240  -24.7700   17.9940 C   0  0  0  0  0  3  0  0  0  0  0  0
  -18.8690  -23.9950   17.0130 C   0  0  0  0  0  3  0  0  0  0  0  0
  -26.5120  -28.0220   22.1760 C   0  0  0  0  0  3  0  0  0  0  0  0
  -25.7920  -28.9020   23.1060 N   0  0  0  0  0  0  0  0  0  0  0  0
  -25.9340  -30.2330   23.1540 C   0  0  0  0  0  0  0  0  0  0  0  0
  -26.7490  -30.8460   22.4600 O   0  0  0  0  0  0  0  0  0  0  0  0
  -25.0720  -28.4740   23.6680 H   0  0  0  0  0  0  0  0  0  0  0  0
  -23.8500  -31.6270   23.3570 C   0  0  0  0  0  1  0  0  0  0  0  0
  -25.0270  -31.0080   24.1290 C   0  0  0  0  0  3  0  0  0  0  0  0
  -26.6950  -31.5360   25.8540 C   0  0  0  0  0  1  0  0  0  0  0  0
  -25.7390  -32.0640   24.8820 N   0  0  0  0  0  0  0  0  0  0  0  0
  -25.0800  -32.6590   25.3780 H   0  0  0  0  0  0  0  0  0  0  0  0
  -27.0770  -26.7570   22.9300 C   0  0  1  0  0  0  0  0  0  0  0  0
  -25.9800  -25.7850   23.4220 C   0  0  0  0  0  1  0  0  0  0  0  0
  -28.0380  -25.9610   22.0170 C   0  0  0  0  0  1  0  0  0  0  0  0
  -27.9050  -27.2040   24.1580 C   0  0  0  0  0  1  0  0  0  0  0  0
  -30.5630  -15.9070   21.7620 C   0  0  0  0  0  2  0  0  0  0  0  0
  -31.3680  -13.6510   21.6070 C   0  0  0  0  0  0  0  0  0  0  0  0
  -31.1100  -11.2090   21.6580 C   0  0  0  0  0  2  0  0  0  0  0  0
  -30.5950  -10.7410   20.2820 C   0  0  0  0  0  2  0  0  0  0  0  0
  -29.0550  -10.7860   20.2410 C   0  0  0  0  0  2  0  0  0  0  0  0
  -28.4650  -12.1220   20.7710 C   0  0  0  0  0  3  0  0  0  0  0  0
  -29.1380  -12.5610   22.0910 C   0  0  0  0  0  2  0  0  0  0  0  0
  -30.5900  -12.5650   21.8720 N   0  0  0  0  0  0  0  0  0  0  0  0
  -32.6010  -13.6010   21.6390 O   0  0  0  0  0  0  0  0  0  0  0  0
  -30.7610  -14.6820   20.9610 N   0  0  0  0  0  0  0  0  0  0  0  0
  -26.0860  -13.0930   20.7670 C   0  0  0  0  0  0  0  0  0  0  0  0
  -24.8580  -12.4990   20.8570 C   0  0  0  0  0  0  0  0  0  0  0  0
  -25.1060  -11.1010   21.0130 C   0  0  0  0  0  0  0  0  0  0  0  0
  -27.0120  -12.0660   20.8750 N   0  0  0  0  0  0  0  0  0  0  0  0
  -26.4110  -10.8680   21.0790 N   0  0  0  0  0  0  0  0  0  0  0  0
  -24.1780   -9.9650   21.0450 C   0  0  0  0  0  0  0  0  0  0  0  0
  -24.2430   -8.9940   22.0670 C   0  0  0  0  0  3  0  0  0  0  0  0
  -23.3300   -7.9170   22.0910 C   0  0  0  0  0  3  0  0  0  0  0  0
  -22.3360   -7.8090   21.0890 C   0  0  0  0  0  0  0  0  0  0  0  0
  -22.2920   -8.7660   20.0600 C   0  0  0  0  0  3  0  0  0  0  0  0
  -23.2050   -9.8330   20.0340 C   0  0  0  0  0  3  0  0  0  0  0  0
  -21.4230   -6.7860   21.0170 O   0  0  0  0  0  0  0  0  0  0  0  0
  -21.0100   -6.1100   22.1360 C   0  0  0  0  0  0  0  0  0  0  0  0
  -20.4290   -6.7760   23.2380 C   0  0  0  0  0  3  0  0  0  0  0  0
  -19.9550   -6.0350   24.3380 C   0  0  0  0  0  3  0  0  0  0  0  0
  -20.0550   -4.6310   24.3370 C   0  0  0  0  0  0  0  0  0  0  0  0
  -20.6310   -3.9650   23.2400 C   0  0  0  0  0  3  0  0  0  0  0  0
  -21.1060   -4.7040   22.1410 C   0  0  0  0  0  0  0  0  0  0  0  0
  -21.6400   -4.0580   21.0770 F   0  0  0  0  0  0  0  0  0  0  0  0
  -19.5920   -3.9160   25.3890 F   0  0  0  0  0  0  0  0  0  0  0  0
  -23.5270  -13.1770   20.7050 C   0  0  0  0  0  0  0  0  0  0  0  0
  -22.5020  -12.6710   21.3820 N   0  0  0  0  0  0  0  0  0  0  0  0
  -23.3970  -14.1920   20.0230 O   0  0  0  0  0  0  0  0  0  0  0  0
  -22.6080  -11.8540   21.9650 H   0  0  0  0  0  0  0  0  0  0  0  0
  -21.5950  -13.1110   21.3200 H   0  0  0  0  0  0  0  0  0  0  0  0
  -26.4850  -14.4140   20.5890 N   0  0  0  0  0  0  0  0  0  0  0  0
  -25.8120  -15.1660   20.5000 H   0  0  0  0  0  0  0  0  0  0  0  0
  -27.4440  -14.7340   20.5700 H   0  0  0  0  0  0  0  0  0  0  0  0
  -31.2170  -14.9640   19.5740 C   0  0  0  0  0  2  0  0  0  0  0  0
  -30.4970  -15.2280   17.1310 C   0  0  0  0  0  1  0  0  0  0  0  0
  -30.1200  -14.7160   18.5250 C   0  0  0  0  0  2  0  0  0  0  0  0
  1  3  1  0
  2  3  2  0
  3 57  1  0
  4  1  2  0
  5  2  1  0
  6  5  2  0
  6  4  1  0
  7  4  1  0
  8  6  1  0
  9  5  1  0
 10  9  1  0
 11 10  1  0
 11 13  1  0
 12 11  1  0
 14 11  1  0
 15 14  1  0
 15 16  1  0
 17 28  2  0
 18 16  1  0
 18 23  1  0
 19 29  1  0
 19 27  1  0
 20 26  1  0
 20 22  1  0
 21 27  1  0
 22 21  1  0
 23 22  2  0
 24 25  1  0
 24 18  2  0
 25 20  2  0
 26 19  1  0
 27 17  1  0
 29 31  2  0
 30 29  1  0
 32 30  1  0
 33 38  1  0
 34 30  1  0
 35 34  1  0
 36 37  1  0
 36 35  1  0
 37 33  1  0
 38 34  1  0
 38 39  2  0
 40 39  1  0
 41 40  2  0
 42 33  2  0
 42 41  1  0
 43 17  1  0
 43 53  1  0
 43 44  1  0
 44 45  1  0
 44 47  1  0
 45 49  1  0
 46 45  2  0
 49 48  1  0
 49 51  1  0
 51 52  1  0
 51 50  1  0
 53 54  1  1
 53 56  1  0
 55 53  1  0
 58 65  2  0
 58 64  1  0
 59 64  1  0
 60 59  1  0
 61 60  1  0
 62 61  1  0
 62 70  1  0
 62 63  1  0
 64 63  1  0
 66 58  1  0
 66 57  1  0
 67 68  2  0
 67 70  1  0
 68 69  1  0
 69 72  1  0
 69 71  2  0
 70 71  1  0
 72 73  1  0
 73 74  2  0
 75 74  1  0
 76 75  2  0
 77 76  1  0
 77 72  2  0
 78 75  1  0
 78 79  1  0
 79 84  2  0
 79 80  1  0
 80 81  2  0
 82 81  1  0
 82 86  1  0
 83 82  2  0
 84 83  1  0
 85 84  1  0
 87 68  1  0
 87 88  1  0
 88 90  1  0
 89 87  2  0
 91 88  1  0
 92 67  1  0
 93 92  1  0
 94 92  1  0
 95 66  1  0
 96 97  1  0
 97 95  1  0
M  ISO  4  15 101  16 101  58 100  66 100
M  END
>  <TORSDO>  (29) 
F 24

>  <SCORE>  (29) 
-5.505

>  <name>  (29) 
28

>  <ligand_id>  (29) 
28

>  <original_smiles>  (29) 
[H]c1c([H])c([H])c2c(c1[H])C([H])([H])C([H])([H])C([H])([H])C2([H])N([H])C(=O)C1([H])N(C(=O)C([H])(N([H])C(=O)C([H])(N([H])C([H])([H])[H])C([H])([H])[H])C(C([H])([H])[H])(C([H])([H])[H])C([H])([H])[H])C([H])([H])c2c([H])c(OC([H])([H])C([H])([H])[N+]([H])([H])C([H])([H])C([H])([H])c3c([H])c(C([H])([H])N(C(=O)N4C([H])([H])C([H])([H])C([H])([H])C([H])(n5nc(-c6c([H])c([H])c(Oc7c([H])c([H])c(F)c([H])c7F)c([H])c6[H])c(C(=O)N([H])[H])c5N([H])[H])C4([H])[H])C([H])([H])C([H])([H])C([H])([H])[H])c([H])c(C([H])([H])[H])c3C([H])([H])[H])c([H])c([H])c2C1([H])[H]

>  <smiles>  (29) 
[H]c1c([H])c([H])c2c(c1[H])C([H])([H])C([H])([H])C([H])([H])C2([H])N([H])C(=O)C1([H])N(C(=O)C([H])(N([H])C(=O)C([H])(N([H])C([H])([H])[H])C([H])([H])[H])C(C([H])([H])[H])(C([H])([H])[H])C([H])([H])[H])C([H])([H])c2c([H])c(OC([H])([H])C([H])([H])[N+]([H])([H])C([H])([H])C([H])([H])c3c([H])c(C([H])([H])N(C(=O)N4C([H])([H])C([H])([H])C([H])([H])C([H])(n5nc(-c6c([H])c([H])c(Oc7c([H])c([H])c(F)c([H])c7F)c([H])c6[H])c(C(=O)N([H])[H])c5N([H])[H])C4([H])[H])C([H])([H])C([H])([H])C([H])([H])[H])c([H])c(C([H])([H])[H])c3C([H])([H])[H])c([H])c([H])c2C1([H])[H]

$$$$
29:0:0
     RDKit          3D

 94103  0  0  1  0  0  0  0  0999 V2000
  -28.6220  -22.8930   21.7460 C   0  0  0  0  0  0  0  0  0  0  0  0
  -28.9930  -21.7830   21.1060 N   0  0  0  0  0  0  0  0  0  0  0  0
  -28.0570  -22.8800   22.8410 O   0  0  0  0  0  0  0  0  0  0  0  0
  -29.4580  -21.8930   20.2140 H   0  0  0  0  0  0  0  0  0  0  0  0
  -28.9290  -24.2020   21.0200 C   0  0  0  0  0  2  0  0  0  0  0  0
  -28.9080  -25.4580   21.9110 C   0  0  0  0  0  2  0  0  0  0  0  0
  -29.3410  -26.7070   21.1280 C   0  0  0  0  0  2  0  0  0  0  0  0
  -28.5160  -26.8530   19.9740 O   0  0  0  0  0  0  0  0  0  0  0  0
  -24.6630  -31.9140   23.2290 C   0  0  0  0  0  0  0  0  0  0  0  0
  -27.3500  -27.5690   20.0890 C   0  0  0  0  0  0  0  0  0  0  0  0
  -23.4540  -30.5090   21.5850 C   0  0  0  0  0  3  0  0  0  0  0  0
  -24.9160  -29.0000   20.1390 C   0  0  0  0  0  0  0  0  0  0  0  0
  -25.9650  -30.9160   21.3600 C   0  0  0  0  0  2  0  0  0  0  0  0
  -26.0650  -29.5480   20.7220 C   0  0  0  0  0  0  0  0  0  0  0  0
  -27.2820  -28.8400   20.7020 C   0  0  0  0  0  3  0  0  0  0  0  0
  -26.1890  -27.0300   19.4980 C   0  0  0  0  0  3  0  0  0  0  0  0
  -24.9690  -27.7350   19.5280 C   0  0  0  0  0  3  0  0  0  0  0  0
  -23.6580  -29.8360   20.2000 C   0  0  0  0  0  2  0  0  0  0  0  0
  -24.7120  -31.1280   22.1170 N   0  0  0  0  0  0  0  0  0  0  0  0
  -23.5860  -32.1680   23.7850 O   0  0  0  0  0  0  0  0  0  0  0  0
  -22.8300  -29.4730   22.5460 C   0  0  0  0  0  0  0  0  0  0  0  0
  -21.5090  -29.2640   22.4200 N   0  0  0  0  0  0  0  0  0  0  0  0
  -23.5280  -28.8580   23.3550 O   0  0  0  0  0  0  0  0  0  0  0  0
  -21.0080  -29.8130   21.7350 H   0  0  0  0  0  0  0  0  0  0  0  0
  -18.1610  -28.0030   22.9050 C   0  0  0  0  0  0  0  0  0  0  0  0
  -20.7110  -28.3090   23.1860 C   0  0  0  0  0  3  0  0  0  0  0  0
  -20.8440  -26.8820   22.6070 C   0  0  0  0  0  2  0  0  0  0  0  0
  -19.7520  -26.5400   21.5880 C   0  0  0  0  0  2  0  0  0  0  0  0
  -18.3660  -26.6570   22.2280 C   0  0  0  0  0  2  0  0  0  0  0  0
  -19.2630  -28.7850   23.3400 C   0  0  0  0  0  0  0  0  0  0  0  0
  -19.0200  -30.0440   23.9300 C   0  0  0  0  0  3  0  0  0  0  0  0
  -17.7060  -30.5220   24.0900 C   0  0  0  0  0  3  0  0  0  0  0  0
  -16.6180  -29.7360   23.6750 C   0  0  0  0  0  3  0  0  0  0  0  0
  -16.8460  -28.4780   23.0880 C   0  0  0  0  0  3  0  0  0  0  0  0
  -25.9500  -32.5520   23.8380 C   0  0  0  0  0  3  0  0  0  0  0  0
  -25.6390  -33.9490   24.1690 N   0  0  0  0  0  0  0  0  0  0  0  0
  -25.9670  -35.0010   23.4070 C   0  0  0  0  0  0  0  0  0  0  0  0
  -26.6360  -34.8990   22.3760 O   0  0  0  0  0  0  0  0  0  0  0  0
  -25.0500  -34.1030   24.9740 H   0  0  0  0  0  0  0  0  0  0  0  0
  -24.2330  -36.7830   23.0400 C   0  0  0  0  0  1  0  0  0  0  0  0
  -25.4700  -36.3870   23.8610 C   0  0  0  0  0  3  0  0  0  0  0  0
  -27.5990  -37.2780   24.7000 C   0  0  0  0  0  1  0  0  0  0  0  0
  -26.5000  -37.4440   23.7530 N   0  0  0  0  0  0  0  0  0  0  0  0
  -26.0900  -38.3630   23.9000 H   0  0  0  0  0  0  0  0  0  0  0  0
  -26.4840  -31.7830   25.1080 C   0  0  1  0  0  0  0  0  0  0  0  0
  -25.4020  -31.5360   26.1850 C   0  0  0  0  0  1  0  0  0  0  0  0
  -27.0750  -30.4120   24.7040 C   0  0  0  0  0  1  0  0  0  0  0  0
  -27.6330  -32.5850   25.7640 C   0  0  0  0  0  1  0  0  0  0  0  0
  -28.7310  -20.4170   21.5290 C   0  0  0  0  0  2  0  0  0  0  0  0
  -28.3370  -18.0620   19.3500 C   0  0  0  0  0  2  0  0  0  0  0  0
  -28.9660  -19.4360   19.1080 C   0  0  0  0  0  2  0  0  0  0  0  0
  -30.9230  -19.1340   20.8870 C   0  0  0  0  0  2  0  0  0  0  0  0
  -29.1660  -17.9500   20.6310 C   0  0  0  0  0  3  0  0  0  0  0  0
  -30.6730  -17.6500   20.6020 C   0  0  0  0  0  3  0  0  0  0  0  0
  -29.4500  -19.4610   20.5750 C   0  0  1  0  0  0  0  0  0  0  0  0
  -31.2400  -16.5770   21.5290 C   0  0  0  0  0  2  0  0  0  0  0  0
  -31.0770  -14.4790   20.2060 C   0  0  0  0  0  0  0  0  0  0  0  0
  -30.6500  -12.3990   18.9540 C   0  0  0  0  0  2  0  0  0  0  0  0
  -29.6870  -12.6400   17.7770 C   0  0  0  0  0  2  0  0  0  0  0  0
  -28.2230  -12.5220   18.2380 C   0  0  0  0  0  2  0  0  0  0  0  0
  -27.9320  -13.3690   19.5050 C   0  0  0  0  0  3  0  0  0  0  0  0
  -28.9970  -13.1050   20.5940 C   0  0  0  0  0  2  0  0  0  0  0  0
  -30.3320  -13.3600   20.0190 N   0  0  0  0  0  0  0  0  0  0  0  0
  -32.0750  -14.7510   19.5320 O   0  0  0  0  0  0  0  0  0  0  0  0
  -30.6720  -15.2730   21.2030 N   0  0  0  0  0  0  0  0  0  0  0  0
  -29.8740  -14.9650   21.7390 H   0  0  0  0  0  0  0  0  0  0  0  0
  -25.5550  -14.0320   20.2470 C   0  0  0  0  0  0  0  0  0  0  0  0
  -24.4780  -13.2830   20.6380 C   0  0  0  0  0  0  0  0  0  0  0  0
  -24.9090  -11.9220   20.6050 C   0  0  0  0  0  0  0  0  0  0  0  0
  -26.5790  -13.1270   20.0050 N   0  0  0  0  0  0  0  0  0  0  0  0
  -26.1920  -11.8550   20.2730 N   0  0  0  0  0  0  0  0  0  0  0  0
  -24.1610  -10.6760   20.8150 C   0  0  0  0  0  0  0  0  0  0  0  0
  -24.5610   -9.7280   21.7820 C   0  0  0  0  0  3  0  0  0  0  0  0
  -23.8160   -8.5450   21.9770 C   0  0  0  0  0  3  0  0  0  0  0  0
  -22.6550   -8.3020   21.2050 C   0  0  0  0  0  0  0  0  0  0  0  0
  -22.2720   -9.2390   20.2280 C   0  0  0  0  0  3  0  0  0  0  0  0
  -23.0190  -10.4120   20.0310 C   0  0  0  0  0  3  0  0  0  0  0  0
  -21.8830   -7.1710   21.3080 O   0  0  0  0  0  0  0  0  0  0  0  0
  -21.7620   -6.4860   22.4900 C   0  0  0  0  0  0  0  0  0  0  0  0
  -21.2820   -7.1080   23.6650 C   0  0  0  0  0  3  0  0  0  0  0  0
  -21.1080   -6.3510   24.8400 C   0  0  0  0  0  3  0  0  0  0  0  0
  -21.4010   -4.9740   24.8430 C   0  0  0  0  0  0  0  0  0  0  0  0
  -21.8740   -4.3520   23.6730 C   0  0  0  0  0  3  0  0  0  0  0  0
  -22.0500   -5.1070   22.5000 C   0  0  0  0  0  0  0  0  0  0  0  0
  -22.4850   -4.4990   21.3700 F   0  0  0  0  0  0  0  0  0  0  0  0
  -21.2270   -4.2450   25.9700 F   0  0  0  0  0  0  0  0  0  0  0  0
  -23.0950  -13.7910   20.9350 C   0  0  0  0  0  0  0  0  0  0  0  0
  -22.3730  -13.1170   21.8230 N   0  0  0  0  0  0  0  0  0  0  0  0
  -22.6650  -14.8190   20.4140 O   0  0  0  0  0  0  0  0  0  0  0  0
  -22.7320  -12.2850   22.2650 H   0  0  0  0  0  0  0  0  0  0  0  0
  -21.4460  -13.4400   22.0640 H   0  0  0  0  0  0  0  0  0  0  0  0
  -25.7470  -15.3970   20.0610 N   0  0  0  0  0  0  0  0  0  0  0  0
  -25.0020  -16.0740   20.1860 H   0  0  0  0  0  0  0  0  0  0  0  0
  -26.6130  -15.8140   19.7450 H   0  0  0  0  0  0  0  0  0  0  0  0
  1  3  2  0
  2 49  1  0
  2  1  1  0
  4  2  1  0
  5  1  1  0
  5  6  1  0
  7  6  1  0
  8 10  1  0
  8  7  1  0
  9 20  2  0
 10 15  1  0
 11 19  1  0
 11 21  1  0
 12 18  1  0
 12 14  1  0
 13 19  1  0
 14 13  1  0
 15 14  2  0
 16 17  1  0
 16 10  2  0
 17 12  2  0
 18 11  1  0
 19  9  1  0
 21 23  2  0
 22 21  1  0
 24 22  1  0
 25 34  2  0
 25 30  1  0
 26 22  1  0
 26 30  1  0
 27 26  1  0
 28 29  1  0
 28 27  1  0
 29 25  1  0
 30 31  2  0
 31 32  1  0
 33 32  2  0
 34 33  1  0
 35  9  1  0
 35 36  1  0
 35 45  1  0
 36 39  1  0
 37 41  1  0
 37 36  1  0
 38 37  2  0
 41 40  1  0
 43 41  1  0
 43 44  1  0
 43 42  1  0
 45 48  1  1
 45 46  1  0
 47 45  1  0
 51 50  1  0
 51 55  1  0
 53 50  1  0
 54 53  1  0
 54 52  1  0
 54 56  1  0
 55 53  1  0
 55 52  1  0
 55 49  1  1
 57 65  1  0
 58 63  1  0
 59 60  1  0
 59 58  1  0
 61 60  1  0
 61 70  1  0
 61 62  1  0
 63 57  1  0
 63 62  1  0
 64 57  2  0
 65 56  1  0
 65 66  1  0
 67 68  2  0
 68 87  1  0
 69 68  1  0
 69 72  1  0
 70 67  1  0
 70 71  1  0
 71 69  2  0
 72 73  1  0
 73 74  2  0
 75 78  1  0
 75 74  1  0
 76 75  2  0
 77 76  1  0
 77 72  2  0
 78 79  1  0
 79 84  2  0
 79 80  1  0
 80 81  2  0
 81 82  1  0
 82 86  1  0
 83 82  2  0
 84 83  1  0
 85 84  1  0
 87 88  1  0
 88 91  1  0
 88 90  1  0
 89 87  2  0
 92 93  1  0
 92 67  1  0
 94 92  1  0
M  ISO  4   7 101   8 101  57 100  65 100
M  END
>  <TORSDO>  (30) 
F 22

>  <SCORE>  (30) 
-12.266

>  <name>  (30) 
29

>  <ligand_id>  (30) 
29

>  <original_smiles>  (30) 
[H]c1c([H])c([H])c2c(c1[H])C([H])([H])C([H])([H])C([H])([H])C2([H])N([H])C(=O)C1([H])N(C(=O)C([H])(N([H])C(=O)C([H])(N([H])C([H])([H])[H])C([H])([H])[H])C(C([H])([H])[H])(C([H])([H])[H])C([H])([H])[H])C([H])([H])c2c([H])c(OC([H])([H])C([H])([H])C([H])([H])C(=O)N([H])C([H])([H])C34C([H])([H])C([H])([H])C3([H])C([H])(C([H])([H])N([H])C(=O)N3C([H])([H])C([H])([H])C([H])([H])C([H])(n5nc(-c6c([H])c([H])c(Oc7c([H])c([H])c(F)c([H])c7F)c([H])c6[H])c(C(=O)N([H])[H])c5N([H])[H])C3([H])[H])C4([H])[H])c([H])c([H])c2C1([H])[H]

>  <smiles>  (30) 
[H]c1c([H])c([H])c2c(c1[H])C([H])([H])C([H])([H])C([H])([H])C2([H])N([H])C(=O)C1([H])N(C(=O)C([H])(N([H])C(=O)C([H])(N([H])C([H])([H])[H])C([H])([H])[H])C(C([H])([H])[H])(C([H])([H])[H])C([H])([H])[H])C([H])([H])c2c([H])c(OC([H])([H])C([H])([H])C([H])([H])C(=O)N([H])C([H])([H])C34C([H])([H])C([H])([H])C3([H])C([H])(C([H])([H])N([H])C(=O)N3C([H])([H])C([H])([H])C([H])([H])C([H])(n5nc(-c6c([H])c([H])c(Oc7c([H])c([H])c(F)c([H])c7F)c([H])c6[H])c(C(=O)N([H])[H])c5N([H])[H])C3([H])[H])C4([H])[H])c([H])c([H])c2C1([H])[H]

$$$$
30:0:0
     RDKit          3D

 98105  0  0  1  0  0  0  0  0999 V2000
  -28.9380  -18.7840   21.7410 C   0  0  0  0  0  2  0  0  0  0  0  0
  -28.8680  -20.3190   21.5750 C   0  0  0  0  0  2  0  0  0  0  0  0
  -28.1660  -20.7010   20.3270 N   0  0  0  0  0  4  0  0  0  0  0  0
  -28.7410  -20.5610   19.5120 H   0  0  0  0  0  0  0  0  0  0  0  0
  -27.3540  -20.1070   20.2490 H   0  0  0  0  0  0  0  0  0  0  0  0
  -27.6410  -22.0800   20.3180 C   0  0  0  0  0  2  0  0  0  0  0  0
  -28.6980  -23.1410   19.9780 C   0  0  0  0  0  2  0  0  0  0  0  0
  -28.2080  -24.5460   20.3310 C   0  0  0  0  0  2  0  0  0  0  0  0
  -28.9400  -25.6330   19.5310 C   0  0  0  0  0  2  0  0  0  0  0  0
  -28.7630  -26.9280   20.0960 O   0  0  0  0  0  0  0  0  0  0  0  0
  -24.6720  -31.8060   23.1880 C   0  0  0  0  0  0  0  0  0  0  0  0
  -27.5380  -27.5580   20.0420 C   0  0  0  0  0  0  0  0  0  0  0  0
  -23.5480  -30.4270   21.4640 C   0  0  0  0  0  3  0  0  0  0  0  0
  -25.0840  -28.9720   20.0360 C   0  0  0  0  0  0  0  0  0  0  0  0
  -26.0670  -30.8480   21.3630 C   0  0  0  0  0  2  0  0  0  0  0  0
  -26.2020  -29.5040   20.6860 C   0  0  0  0  0  0  0  0  0  0  0  0
  -27.4210  -28.8010   20.6980 C   0  0  0  0  0  3  0  0  0  0  0  0
  -26.4020  -27.0360   19.3770 C   0  0  0  0  0  3  0  0  0  0  0  0
  -25.1750  -27.7280   19.3860 C   0  0  0  0  0  3  0  0  0  0  0  0
  -23.8170  -29.7990   20.0700 C   0  0  0  0  0  2  0  0  0  0  0  0
  -24.7760  -31.0460   22.0620 N   0  0  0  0  0  0  0  0  0  0  0  0
  -23.5680  -32.0400   23.7030 O   0  0  0  0  0  0  0  0  0  0  0  0
  -22.8960  -29.3630   22.3720 C   0  0  0  0  0  0  0  0  0  0  0  0
  -21.5730  -29.1770   22.2180 N   0  0  0  0  0  0  0  0  0  0  0  0
  -23.5730  -28.7090   23.1690 O   0  0  0  0  0  0  0  0  0  0  0  0
  -21.0920  -29.7330   21.5230 H   0  0  0  0  0  0  0  0  0  0  0  0
  -18.1940  -27.9860   22.6490 C   0  0  0  0  0  0  0  0  0  0  0  0
  -20.7520  -28.2070   22.9410 C   0  0  0  0  0  3  0  0  0  0  0  0
  -20.8400  -26.8100   22.2790 C   0  0  0  0  0  2  0  0  0  0  0  0
  -19.7400  -26.5740   21.2400 C   0  0  0  0  0  2  0  0  0  0  0  0
  -18.3680  -26.6770   21.9050 C   0  0  0  0  0  2  0  0  0  0  0  0
  -19.3150  -28.7160   23.1230 C   0  0  0  0  0  0  0  0  0  0  0  0
  -19.1000  -29.9500   23.7750 C   0  0  0  0  0  3  0  0  0  0  0  0
  -17.7930  -30.4470   23.9570 C   0  0  0  0  0  3  0  0  0  0  0  0
  -16.6880  -29.7080   23.5020 C   0  0  0  0  0  3  0  0  0  0  0  0
  -16.8890  -28.4780   22.8530 C   0  0  0  0  0  3  0  0  0  0  0  0
  -25.9260  -32.4420   23.8690 C   0  0  0  0  0  3  0  0  0  0  0  0
  -25.5900  -33.8320   24.2000 N   0  0  0  0  0  0  0  0  0  0  0  0
  -25.9440  -34.8920   23.4630 C   0  0  0  0  0  0  0  0  0  0  0  0
  -26.6620  -34.8060   22.4610 O   0  0  0  0  0  0  0  0  0  0  0  0
  -24.9550  -33.9770   24.9710 H   0  0  0  0  0  0  0  0  0  0  0  0
  -24.2070  -36.6640   23.0570 C   0  0  0  0  0  1  0  0  0  0  0  0
  -25.4200  -36.2680   23.9140 C   0  0  0  0  0  3  0  0  0  0  0  0
  -27.5090  -37.1710   24.8370 C   0  0  0  0  0  1  0  0  0  0  0  0
  -26.4450  -37.3340   23.8510 N   0  0  0  0  0  0  0  0  0  0  0  0
  -26.0210  -38.2480   23.9860 H   0  0  0  0  0  0  0  0  0  0  0  0
  -26.4010  -31.6570   25.1510 C   0  0  1  0  0  0  0  0  0  0  0  0
  -25.2670  -31.3810   26.1630 C   0  0  0  0  0  1  0  0  0  0  0  0
  -27.0240  -30.2970   24.7590 C   0  0  0  0  0  1  0  0  0  0  0  0
  -27.5080  -32.4580   25.8740 C   0  0  0  0  0  1  0  0  0  0  0  0
  -30.1860  -18.1090   21.1250 C   0  0  0  0  0  2  0  0  0  0  0  0
  -29.8910  -16.7490   20.4480 C   0  0  0  0  0  3  0  0  0  0  0  0
  -31.2160  -14.6080   20.5910 C   0  0  0  0  0  0  0  0  0  0  0  0
  -30.9280  -12.4640   19.4050 C   0  0  0  0  0  2  0  0  0  0  0  0
  -30.0260  -12.7180   18.1770 C   0  0  0  0  0  2  0  0  0  0  0  0
  -28.5330  -12.6430   18.5630 C   0  0  0  0  0  2  0  0  0  0  0  0
  -28.1890  -13.4460   19.8450 C   0  0  0  0  0  3  0  0  0  0  0  0
  -29.2030  -13.1440   20.9740 C   0  0  0  0  0  2  0  0  0  0  0  0
  -30.5600  -13.4240   20.4590 N   0  0  0  0  0  0  0  0  0  0  0  0
  -32.3230  -14.8390   20.0950 O   0  0  0  0  0  0  0  0  0  0  0  0
  -30.4640  -15.5790   21.1430 N   0  0  0  0  0  0  0  0  0  0  0  0
  -29.8100  -15.1950   21.8090 H   0  0  0  0  0  0  0  0  0  0  0  0
  -25.7960  -14.1400   20.4880 C   0  0  0  0  0  0  0  0  0  0  0  0
  -24.6860  -13.4010   20.8100 C   0  0  0  0  0  0  0  0  0  0  0  0
  -25.0950  -12.0350   20.7520 C   0  0  0  0  0  0  0  0  0  0  0  0
  -26.8110  -13.2210   20.2700 N   0  0  0  0  0  0  0  0  0  0  0  0
  -26.3900  -11.9500   20.4820 N   0  0  0  0  0  0  0  0  0  0  0  0
  -24.3170  -10.7980   20.8800 C   0  0  0  0  0  0  0  0  0  0  0  0
  -24.6850   -9.7900   21.8010 C   0  0  0  0  0  3  0  0  0  0  0  0
  -23.9110   -8.6160   21.9190 C   0  0  0  0  0  3  0  0  0  0  0  0
  -22.7590   -8.4410   21.1160 C   0  0  0  0  0  0  0  0  0  0  0  0
  -22.4120   -9.4360   20.1820 C   0  0  0  0  0  3  0  0  0  0  0  0
  -23.1860  -10.6020   20.0630 C   0  0  0  0  0  3  0  0  0  0  0  0
  -21.9640   -7.3210   21.1430 O   0  0  0  0  0  0  0  0  0  0  0  0
  -21.8150   -6.5710   22.2840 C   0  0  0  0  0  0  0  0  0  0  0  0
  -21.3400   -7.1360   23.4880 C   0  0  0  0  0  3  0  0  0  0  0  0
  -21.1370   -6.3160   24.6180 C   0  0  0  0  0  3  0  0  0  0  0  0
  -21.3980   -4.9360   24.5420 C   0  0  0  0  0  0  0  0  0  0  0  0
  -21.8660   -4.3710   23.3430 C   0  0  0  0  0  3  0  0  0  0  0  0
  -22.0710   -5.1880   22.2170 C   0  0  0  0  0  0  0  0  0  0  0  0
  -22.5030   -4.6360   21.0570 F   0  0  0  0  0  0  0  0  0  0  0  0
  -21.1950   -4.1470   25.6240 F   0  0  0  0  0  0  0  0  0  0  0  0
  -23.3040  -13.9270   21.0630 C   0  0  0  0  0  0  0  0  0  0  0  0
  -22.5390  -13.2500   21.9160 N   0  0  0  0  0  0  0  0  0  0  0  0
  -22.9100  -14.9710   20.5480 O   0  0  0  0  0  0  0  0  0  0  0  0
  -22.8680  -12.4030   22.3580 H   0  0  0  0  0  0  0  0  0  0  0  0
  -21.6140  -13.5840   22.1370 H   0  0  0  0  0  0  0  0  0  0  0  0
  -26.0110  -15.5070   20.3390 N   0  0  0  0  0  0  0  0  0  0  0  0
  -25.2380  -16.1620   20.3630 H   0  0  0  0  0  0  0  0  0  0  0  0
  -26.8640  -15.9050   19.9700 H   0  0  0  0  0  0  0  0  0  0  0  0
  -30.1280  -16.7980   18.9170 C   0  0  0  0  0  2  0  0  0  0  0  0
  -29.4410  -18.0010   18.2450 C   0  0  0  0  0  2  0  0  0  0  0  0
  -29.7920  -18.0940   16.7520 C   0  0  0  0  0  2  0  0  0  0  0  0
  -28.8220  -18.9760   15.9450 C   0  0  0  0  0  2  0  0  0  0  0  0
  -29.1160  -18.9230   14.5020 N   0  0  0  0  0  4  0  0  0  0  0  0
  -29.9710  -19.4090   14.3010 H   0  0  0  0  0  0  0  0  0  0  0  0
  -28.3750  -19.3580   13.9820 H   0  0  0  0  0  0  0  0  0  0  0  0
  -29.1960  -17.9720   14.1870 H   0  0  0  0  0  0  0  0  0  0  0  0
  2  1  1  0
  3  2  1  0
  4  3  1  0
  5  3  1  0
  6  3  1  0
  7  6  1  0
  7  8  1  0
  9 10  1  0
  9  8  1  0
 11 22  2  0
 12 10  1  0
 12 17  1  0
 13 21  1  0
 13 23  1  0
 14 20  1  0
 14 16  1  0
 15 21  1  0
 16 17  2  0
 16 15  1  0
 18 19  1  0
 18 12  2  0
 19 14  2  0
 20 13  1  0
 21 11  1  0
 23 25  2  0
 24 23  1  0
 26 24  1  0
 27 36  2  0
 27 32  1  0
 28 24  1  0
 28 32  1  0
 29 28  1  0
 30 31  1  0
 30 29  1  0
 31 27  1  0
 32 33  2  0
 33 34  1  0
 35 34  2  0
 36 35  1  0
 37 11  1  0
 37 38  1  0
 37 47  1  0
 38 41  1  0
 39 43  1  0
 39 38  1  0
 40 39  2  0
 43 42  1  0
 45 43  1  0
 45 46  1  0
 45 44  1  0
 47 50  1  1
 47 48  1  0
 49 47  1  0
 51  1  1  0
 52 91  1  0
 52 51  1  0
 52 61  1  0
 53 61  1  0
 54 59  1  0
 55 56  1  0
 55 54  1  0
 57 56  1  0
 57 66  1  0
 57 58  1  0
 59 53  1  0
 59 58  1  0
 60 53  2  0
 61 62  1  0
 63 64  2  0
 64 83  1  0
 65 64  1  0
 65 68  1  0
 66 67  1  0
 66 63  1  0
 67 65  2  0
 68 69  1  0
 69 70  2  0
 71 74  1  0
 71 70  1  0
 72 71  2  0
 73 72  1  0
 73 68  2  0
 74 75  1  0
 75 76  1  0
 76 77  2  0
 78 77  1  0
 78 82  1  0
 79 78  2  0
 80 75  2  0
 80 79  1  0
 81 80  1  0
 83 84  1  0
 84 87  1  0
 84 86  1  0
 85 83  2  0
 88 89  1  0
 88 63  1  0
 90 88  1  0
 92 91  1  0
 93 92  1  0
 94 93  1  0
 95 94  1  0
 96 95  1  0
 97 95  1  0
 98 95  1  0
M  ISO  4   9 101  10 101  53 100  61 100
M  END
>  <TORSDO>  (31) 
F 29

>  <SCORE>  (31) 
-9.480

>  <name>  (31) 
30

>  <ligand_id>  (31) 
30

>  <original_smiles>  (31) 
[H]c1c([H])c([H])c2c(c1[H])C([H])([H])C([H])([H])C([H])([H])C2([H])N([H])C(=O)C1([H])N(C(=O)C([H])(N([H])C(=O)C([H])(N([H])C([H])([H])[H])C([H])([H])[H])C(C([H])([H])[H])(C([H])([H])[H])C([H])([H])[H])C([H])([H])c2c([H])c(OC([H])([H])C([H])([H])C([H])([H])C([H])([H])[N+]([H])([H])C([H])([H])C([H])([H])C([H])([H])C([H])(N([H])C(=O)N3C([H])([H])C([H])([H])C([H])([H])C([H])(n4nc(-c5c([H])c([H])c(Oc6c([H])c([H])c(F)c([H])c6F)c([H])c5[H])c(C(=O)N([H])[H])c4N([H])[H])C3([H])[H])C([H])([H])C([H])([H])C([H])([H])C([H])([H])[N+]([H])([H])[H])c([H])c([H])c2C1([H])[H]

>  <smiles>  (31) 
[H]c1c([H])c([H])c2c(c1[H])C([H])([H])C([H])([H])C([H])([H])C2([H])N([H])C(=O)C1([H])N(C(=O)C([H])(N([H])C(=O)C([H])(N([H])C([H])([H])[H])C([H])([H])[H])C(C([H])([H])[H])(C([H])([H])[H])C([H])([H])[H])C([H])([H])c2c([H])c(OC([H])([H])C([H])([H])C([H])([H])C([H])([H])[N+]([H])([H])C([H])([H])C([H])([H])C([H])([H])C([H])(N([H])C(=O)N3C([H])([H])C([H])([H])C([H])([H])C([H])(n4nc(-c5c([H])c([H])c(Oc6c([H])c([H])c(F)c([H])c6F)c([H])c5[H])c(C(=O)N([H])[H])c4N([H])[H])C3([H])[H])C([H])([H])C([H])([H])C([H])([H])C([H])([H])[N+]([H])([H])[H])c([H])c([H])c2C1([H])[H]

$$$$
31:0:0
     RDKit          3D

 96104  0  0  1  0  0  0  0  0999 V2000
  -30.7810  -22.3490   20.3080 C   0  0  0  0  0  2  0  0  0  0  0  0
  -28.2910  -22.2300   20.0390 C   0  0  0  0  0  2  0  0  0  0  0  0
  -30.8060  -20.8690   20.7490 C   0  0  0  0  0  2  0  0  0  0  0  0
  -28.3220  -20.7500   20.4870 C   0  0  0  0  0  2  0  0  0  0  0  0
  -29.4500  -23.0420   20.6540 C   0  0  0  0  0  3  0  0  0  0  0  0
  -29.6500  -19.9990   20.1750 C   0  0  2  0  0  0  0  0  0  0  0  0
  -29.4620  -24.5330   20.2150 C   0  0  0  0  0  2  0  0  0  0  0  0
  -28.3630  -25.5770   22.2950 C   0  0  0  0  0  1  0  0  0  0  0  0
  -28.3140  -25.4120   20.7660 C   0  0  0  0  0  3  0  0  0  0  0  0
  -28.4130  -26.7220   20.1850 O   0  0  0  0  0  0  0  0  0  0  0  0
  -24.5850  -31.8810   23.2460 C   0  0  0  0  0  0  0  0  0  0  0  0
  -27.2460  -27.4540   20.1750 C   0  0  0  0  0  0  0  0  0  0  0  0
  -23.3860  -30.4740   21.6030 C   0  0  0  0  0  3  0  0  0  0  0  0
  -24.8480  -28.9430   20.1820 C   0  0  0  0  0  0  0  0  0  0  0  0
  -25.9110  -30.8440   21.4080 C   0  0  0  0  0  2  0  0  0  0  0  0
  -26.0020  -29.4750   20.7690 C   0  0  0  0  0  0  0  0  0  0  0  0
  -27.2070  -28.7380   20.7610 C   0  0  0  0  0  3  0  0  0  0  0  0
  -26.0780  -26.9370   19.5750 C   0  0  0  0  0  3  0  0  0  0  0  0
  -24.8790  -27.6730   19.5810 C   0  0  0  0  0  3  0  0  0  0  0  0
  -23.5990  -29.7950   20.2250 C   0  0  0  0  0  2  0  0  0  0  0  0
  -24.6450  -31.0810   22.1440 N   0  0  0  0  0  0  0  0  0  0  0  0
  -23.5030  -32.1510   23.7830 O   0  0  0  0  0  0  0  0  0  0  0  0
  -22.7380  -29.4510   22.5630 C   0  0  0  0  0  0  0  0  0  0  0  0
  -21.4130  -29.2680   22.4360 N   0  0  0  0  0  0  0  0  0  0  0  0
  -23.4230  -28.8250   23.3750 O   0  0  0  0  0  0  0  0  0  0  0  0
  -20.9220  -29.8250   21.7500 H   0  0  0  0  0  0  0  0  0  0  0  0
  -18.0370  -28.0880   22.9430 C   0  0  0  0  0  0  0  0  0  0  0  0
  -20.5960  -28.3310   23.2050 C   0  0  0  0  0  3  0  0  0  0  0  0
  -20.6890  -26.9030   22.6210 C   0  0  0  0  0  2  0  0  0  0  0  0
  -19.5810  -26.5920   21.6100 C   0  0  0  0  0  2  0  0  0  0  0  0
  -18.2020  -26.7420   22.2600 C   0  0  0  0  0  2  0  0  0  0  0  0
  -19.1600  -28.8430   23.3720 C   0  0  0  0  0  0  0  0  0  0  0  0
  -18.9520  -30.1060   23.9690 C   0  0  0  0  0  3  0  0  0  0  0  0
  -17.6500  -30.6130   24.1410 C   0  0  0  0  0  3  0  0  0  0  0  0
  -16.5400  -29.8550   23.7290 C   0  0  0  0  0  3  0  0  0  0  0  0
  -16.7350  -28.5960   23.1350 C   0  0  0  0  0  3  0  0  0  0  0  0
  -25.8690  -32.5160   23.8670 C   0  0  0  0  0  3  0  0  0  0  0  0
  -26.3830  -31.7500   25.1480 C   0  0  1  0  0  0  0  0  0  0  0  0
  -25.2860  -31.5150   26.2130 C   0  0  0  0  0  1  0  0  0  0  0  0
  -26.9700  -30.3720   24.7620 C   0  0  0  0  0  1  0  0  0  0  0  0
  -27.5320  -32.5490   25.8100 C   0  0  0  0  0  1  0  0  0  0  0  0
  -25.5600  -33.9150   24.1860 N   0  0  0  0  0  0  0  0  0  0  0  0
  -25.9020  -34.9620   23.4220 C   0  0  0  0  0  0  0  0  0  0  0  0
  -26.5830  -34.8490   22.3980 O   0  0  0  0  0  0  0  0  0  0  0  0
  -24.9590  -34.0770   24.9800 H   0  0  0  0  0  0  0  0  0  0  0  0
  -24.1860  -36.7560   23.0260 C   0  0  0  0  0  1  0  0  0  0  0  0
  -25.4110  -36.3530   23.8620 C   0  0  0  0  0  3  0  0  0  0  0  0
  -27.5340  -37.2350   24.7250 C   0  0  0  0  0  1  0  0  0  0  0  0
  -26.4490  -37.4020   23.7620 N   0  0  0  0  0  0  0  0  0  0  0  0
  -26.0430  -38.3240   23.9000 H   0  0  0  0  0  0  0  0  0  0  0  0
  -29.6110  -18.6150   20.9130 C   0  0  0  0  0  2  0  0  0  0  0  0
  -30.8850  -17.7350   20.8320 C   0  0  0  0  0  2  0  0  0  0  0  0
  -30.8840  -16.5140   21.7840 C   0  0  0  0  0  2  0  0  0  0  0  0
  -30.7380  -14.4210   20.4310 C   0  0  0  0  0  0  0  0  0  0  0  0
  -30.3640  -12.3310   19.1740 C   0  0  0  0  0  2  0  0  0  0  0  0
  -29.4150  -12.5750   17.9850 C   0  0  0  0  0  2  0  0  0  0  0  0
  -27.9440  -12.4450   18.4250 C   0  0  0  0  0  2  0  0  0  0  0  0
  -27.6300  -13.2610   19.7060 C   0  0  0  0  0  3  0  0  0  0  0  0
  -28.6860  -12.9960   20.8020 C   0  0  0  0  0  2  0  0  0  0  0  0
  -30.0150  -13.2880   20.2350 N   0  0  0  0  0  0  0  0  0  0  0  0
  -31.8140  -14.6400   19.8670 O   0  0  0  0  0  0  0  0  0  0  0  0
  -30.1990  -15.3250   21.2650 N   0  0  0  0  0  0  0  0  0  0  0  0
  -29.3060  -15.0890   21.6720 H   0  0  0  0  0  0  0  0  0  0  0  0
  -25.2320  -13.8880   20.4050 C   0  0  0  0  0  0  0  0  0  0  0  0
  -24.1610  -13.1240   20.7820 C   0  0  0  0  0  0  0  0  0  0  0  0
  -24.6170  -11.7700   20.7680 C   0  0  0  0  0  0  0  0  0  0  0  0
  -26.2750  -13.0000   20.1860 N   0  0  0  0  0  0  0  0  0  0  0  0
  -25.9070  -11.7220   20.4600 N   0  0  0  0  0  0  0  0  0  0  0  0
  -23.8860  -10.5130   20.9730 C   0  0  0  0  0  0  0  0  0  0  0  0
  -24.3150   -9.5550   21.9170 C   0  0  0  0  0  3  0  0  0  0  0  0
  -23.5850   -8.3620   22.1100 C   0  0  0  0  0  3  0  0  0  0  0  0
  -22.4120   -8.1190   21.3560 C   0  0  0  0  0  0  0  0  0  0  0  0
  -22.0020   -9.0660   20.4010 C   0  0  0  0  0  3  0  0  0  0  0  0
  -22.7320  -10.2510   20.2080 C   0  0  0  0  0  3  0  0  0  0  0  0
  -21.6540   -6.9780   21.4570 O   0  0  0  0  0  0  0  0  0  0  0  0
  -21.6050   -6.2460   22.6160 C   0  0  0  0  0  0  0  0  0  0  0  0
  -21.1840   -6.8130   23.8380 C   0  0  0  0  0  3  0  0  0  0  0  0
  -21.0830   -6.0070   24.9900 C   0  0  0  0  0  3  0  0  0  0  0  0
  -21.3920   -4.6360   24.9200 C   0  0  0  0  0  0  0  0  0  0  0  0
  -21.8060   -4.0680   23.7020 C   0  0  0  0  0  3  0  0  0  0  0  0
  -21.9090   -4.8700   22.5520 C   0  0  0  0  0  0  0  0  0  0  0  0
  -22.2880   -4.3150   21.3760 F   0  0  0  0  0  0  0  0  0  0  0  0
  -21.2880   -3.8590   26.0240 F   0  0  0  0  0  0  0  0  0  0  0  0
  -22.7650  -13.6100   21.0500 C   0  0  0  0  0  0  0  0  0  0  0  0
  -22.0350  -12.9260   21.9220 N   0  0  0  0  0  0  0  0  0  0  0  0
  -22.3310  -14.6320   20.5200 O   0  0  0  0  0  0  0  0  0  0  0  0
  -22.3990  -12.0980   22.3730 H   0  0  0  0  0  0  0  0  0  0  0  0
  -21.0990  -13.2330   22.1440 H   0  0  0  0  0  0  0  0  0  0  0  0
  -25.4040  -15.2550   20.2130 N   0  0  0  0  0  0  0  0  0  0  0  0
  -24.6430  -15.9160   20.3190 H   0  0  0  0  0  0  0  0  0  0  0  0
  -26.2650  -15.6870   19.9050 H   0  0  0  0  0  0  0  0  0  0  0  0
  -29.8550  -19.8070   18.6400 C   0  0  0  0  0  2  0  0  0  0  0  0
  -28.8180  -18.9790   18.0000 N   0  0  0  0  0  4  0  0  0  0  0  0
  -28.8050  -18.0550   18.3890 H   0  0  0  0  0  0  0  0  0  0  0  0
  -29.0100  -18.9020   17.0170 H   0  0  0  0  0  0  0  0  0  0  0  0
  -27.9090  -19.3950   18.1060 H   0  0  0  0  0  0  0  0  0  0  0  0
  1  5  1  0
  1  3  1  0
  2  4  1  0
  2  5  1  0
  5  7  1  0
  6 92  1  6
  6  4  1  0
  6  3  1  0
  6 51  1  0
  7  9  1  0
  9  8  1  0
 10  9  1  0
 11 22  2  0
 12 10  1  0
 12 17  1  0
 13 21  1  0
 13 23  1  0
 14 20  1  0
 14 16  1  0
 15 21  1  0
 16 15  1  0
 17 16  2  0
 18 19  1  0
 18 12  2  0
 19 14  2  0
 20 13  1  0
 21 11  1  0
 23 25  2  0
 24 23  1  0
 26 24  1  0
 27 36  2  0
 27 32  1  0
 28 24  1  0
 28 32  1  0
 29 28  1  0
 30 31  1  0
 30 29  1  0
 31 27  1  0
 32 33  2  0
 33 34  1  0
 35 34  2  0
 36 35  1  0
 37 11  1  0
 37 42  1  0
 37 38  1  0
 38 41  1  1
 38 39  1  0
 40 38  1  0
 42 45  1  0
 43 47  1  0
 43 42  1  0
 44 43  2  0
 47 46  1  0
 49 47  1  0
 49 50  1  0
 49 48  1  0
 52 51  1  0
 52 53  1  0
 54 62  1  0
 55 60  1  0
 56 57  1  0
 56 55  1  0
 58 57  1  0
 58 67  1  0
 58 59  1  0
 60 54  1  0
 60 59  1  0
 61 54  2  0
 62 63  1  0
 62 53  1  0
 64 65  2  0
 65 84  1  0
 66 65  1  0
 66 69  1  0
 67 64  1  0
 67 68  1  0
 68 66  2  0
 69 70  1  0
 70 71  2  0
 72 75  1  0
 72 71  1  0
 73 72  2  0
 74 73  1  0
 74 69  2  0
 75 76  1  0
 76 77  1  0
 77 78  2  0
 79 78  1  0
 79 83  1  0
 80 79  2  0
 81 76  2  0
 81 80  1  0
 82 81  1  0
 84 85  1  0
 85 88  1  0
 85 87  1  0
 86 84  2  0
 89 90  1  0
 89 64  1  0
 91 89  1  0
 93 96  1  0
 93 94  1  0
 93 92  1  0
 95 93  1  0
M  ISO  4   9 101  10 101  54 100  62 100
M  END
>  <TORSDO>  (32) 
F 23

>  <SCORE>  (32) 
-13.246

>  <name>  (32) 
31

>  <ligand_id>  (32) 
31

>  <original_smiles>  (32) 
[H]c1c([H])c([H])c2c(c1[H])C([H])([H])C([H])([H])C([H])([H])C2([H])N([H])C(=O)C1([H])N(C(=O)C([H])(N([H])C(=O)C([H])(N([H])C([H])([H])[H])C([H])([H])[H])C(C([H])([H])[H])(C([H])([H])[H])C([H])([H])[H])C([H])([H])c2c([H])c(OC([H])(C([H])([H])[H])C([H])([H])C3([H])C([H])([H])C([H])([H])C(C([H])([H])C([H])([H])C([H])([H])N([H])C(=O)N4C([H])([H])C([H])([H])C([H])([H])C([H])(n5nc(-c6c([H])c([H])c(Oc7c([H])c([H])c(F)c([H])c7F)c([H])c6[H])c(C(=O)N([H])[H])c5N([H])[H])C4([H])[H])(C([H])([H])[N+]([H])([H])[H])C([H])([H])C3([H])[H])c([H])c([H])c2C1([H])[H]

>  <smiles>  (32) 
[H]c1c([H])c([H])c2c(c1[H])C([H])([H])C([H])([H])C([H])([H])C2([H])N([H])C(=O)C1([H])N(C(=O)C([H])(N([H])C(=O)C([H])(N([H])C([H])([H])[H])C([H])([H])[H])C(C([H])([H])[H])(C([H])([H])[H])C([H])([H])[H])C([H])([H])c2c([H])c(OC([H])(C([H])([H])[H])C([H])([H])C3([H])C([H])([H])C([H])([H])C(C([H])([H])C([H])([H])C([H])([H])N([H])C(=O)N4C([H])([H])C([H])([H])C([H])([H])C([H])(n5nc(-c6c([H])c([H])c(Oc7c([H])c([H])c(F)c([H])c7F)c([H])c6[H])c(C(=O)N([H])[H])c5N([H])[H])C4([H])[H])(C([H])([H])[N+]([H])([H])[H])C([H])([H])C3([H])[H])c([H])c([H])c2C1([H])[H]

$$$$
32:0:0
     RDKit          3D

 97105  0  0  1  0  0  0  0  0999 V2000
  -30.8010  -21.7580   19.3840 C   0  0  0  0  0  2  0  0  0  0  0  0
  -28.3210  -21.4460   19.0880 C   0  0  0  0  0  2  0  0  0  0  0  0
  -30.8640  -20.4250   20.1660 C   0  0  0  0  0  2  0  0  0  0  0  0
  -28.3980  -20.1120   19.8530 C   0  0  0  0  0  2  0  0  0  0  0  0
  -29.4220  -22.4340   19.5140 C   0  0  0  0  0  3  0  0  0  0  0  0
  -29.7730  -19.3920   19.7610 C   0  0  2  0  0  0  0  0  0  0  0  0
  -29.2840  -23.7530   18.7170 C   0  0  0  0  0  2  0  0  0  0  0  0
  -30.3400  -24.8340   19.0260 C   0  0  0  0  0  2  0  0  0  0  0  0
  -29.9710  -26.2180   18.4420 C   0  0  0  0  0  2  0  0  0  0  0  0
  -29.5320  -27.2490   19.4980 C   0  0  0  0  0  2  0  0  0  0  0  0
  -28.4090  -26.7160   20.1870 O   0  0  0  0  0  0  0  0  0  0  0  0
  -24.5890  -31.9070   23.2440 C   0  0  0  0  0  0  0  0  0  0  0  0
  -27.2730  -27.4820   20.1930 C   0  0  0  0  0  0  0  0  0  0  0  0
  -23.3940  -30.4880   21.6060 C   0  0  0  0  0  3  0  0  0  0  0  0
  -24.8630  -28.9460   20.2030 C   0  0  0  0  0  0  0  0  0  0  0  0
  -25.9160  -30.8630   21.4120 C   0  0  0  0  0  2  0  0  0  0  0  0
  -26.0160  -29.4900   20.7870 C   0  0  0  0  0  0  0  0  0  0  0  0
  -27.2260  -28.7640   20.7850 C   0  0  0  0  0  3  0  0  0  0  0  0
  -26.1050  -26.9370   19.6280 C   0  0  0  0  0  3  0  0  0  0  0  0
  -24.9000  -27.6650   19.6250 C   0  0  0  0  0  3  0  0  0  0  0  0
  -23.6130  -29.7960   20.2350 C   0  0  0  0  0  2  0  0  0  0  0  0
  -24.6520  -31.0990   22.1480 N   0  0  0  0  0  0  0  0  0  0  0  0
  -23.5050  -32.1790   23.7780 O   0  0  0  0  0  0  0  0  0  0  0  0
  -22.7420  -29.4730   22.5710 C   0  0  0  0  0  0  0  0  0  0  0  0
  -21.4190  -29.2890   22.4400 N   0  0  0  0  0  0  0  0  0  0  0  0
  -23.4240  -28.8540   23.3930 O   0  0  0  0  0  0  0  0  0  0  0  0
  -20.9290  -29.8460   21.7550 H   0  0  0  0  0  0  0  0  0  0  0  0
  -18.0440  -28.0940   22.9270 C   0  0  0  0  0  0  0  0  0  0  0  0
  -20.6000  -28.3550   23.2120 C   0  0  0  0  0  3  0  0  0  0  0  0
  -20.7070  -26.9200   22.6450 C   0  0  0  0  0  2  0  0  0  0  0  0
  -19.6110  -26.5900   21.6260 C   0  0  0  0  0  2  0  0  0  0  0  0
  -18.2250  -26.7400   22.2620 C   0  0  0  0  0  2  0  0  0  0  0  0
  -19.1600  -28.8590   23.3590 C   0  0  0  0  0  0  0  0  0  0  0  0
  -18.9400  -30.1250   23.9410 C   0  0  0  0  0  3  0  0  0  0  0  0
  -17.6340  -30.6300   24.0930 C   0  0  0  0  0  3  0  0  0  0  0  0
  -16.5320  -29.8620   23.6770 C   0  0  0  0  0  3  0  0  0  0  0  0
  -16.7380  -28.5950   23.1030 C   0  0  0  0  0  3  0  0  0  0  0  0
  -25.8710  -32.5460   23.8650 C   0  0  0  0  0  3  0  0  0  0  0  0
  -26.3920  -31.7770   25.1400 C   0  0  1  0  0  0  0  0  0  0  0  0
  -25.3010  -31.5310   26.2080 C   0  0  0  0  0  1  0  0  0  0  0  0
  -26.9790  -30.4030   24.7420 C   0  0  0  0  0  1  0  0  0  0  0  0
  -27.5380  -32.5740   25.8050 C   0  0  0  0  0  1  0  0  0  0  0  0
  -25.5560  -33.9440   24.1900 N   0  0  0  0  0  0  0  0  0  0  0  0
  -25.8960  -34.9940   23.4310 C   0  0  0  0  0  0  0  0  0  0  0  0
  -26.5760  -34.8890   22.4070 O   0  0  0  0  0  0  0  0  0  0  0  0
  -24.9450  -34.0970   24.9790 H   0  0  0  0  0  0  0  0  0  0  0  0
  -24.1680  -36.7810   23.0490 C   0  0  0  0  0  1  0  0  0  0  0  0
  -25.3990  -36.3820   23.8770 C   0  0  0  0  0  3  0  0  0  0  0  0
  -27.5270  -37.2700   24.7240 C   0  0  0  0  0  1  0  0  0  0  0  0
  -26.4310  -37.4380   23.7740 N   0  0  0  0  0  0  0  0  0  0  0  0
  -26.0210  -38.3580   23.9190 H   0  0  0  0  0  0  0  0  0  0  0  0
  -29.7500  -18.2070   20.7840 C   0  0  0  0  0  2  0  0  0  0  0  0
  -31.0860  -17.4730   21.0250 C   0  0  0  0  0  2  0  0  0  0  0  0
  -30.9820  -16.2730   21.9940 C   0  0  0  0  0  2  0  0  0  0  0  0
  -30.7080  -14.3310   20.4470 C   0  0  0  0  0  0  0  0  0  0  0  0
  -30.2940  -12.2960   19.1160 C   0  0  0  0  0  2  0  0  0  0  0  0
  -29.3230  -12.5740   17.9540 C   0  0  0  0  0  2  0  0  0  0  0  0
  -27.8590  -12.4380   18.4150 C   0  0  0  0  0  2  0  0  0  0  0  0
  -27.5690  -13.2190   19.7240 C   0  0  0  0  0  3  0  0  0  0  0  0
  -28.6430  -12.9170   20.7920 C   0  0  0  0  0  2  0  0  0  0  0  0
  -29.9690  -13.2170   20.2160 N   0  0  0  0  0  0  0  0  0  0  0  0
  -31.7240  -14.6120   19.8050 O   0  0  0  0  0  0  0  0  0  0  0  0
  -30.2750  -15.1160   21.4430 N   0  0  0  0  0  0  0  0  0  0  0  0
  -29.4560  -14.7950   21.9380 H   0  0  0  0  0  0  0  0  0  0  0  0
  -25.1740  -13.8210   20.4590 C   0  0  0  0  0  0  0  0  0  0  0  0
  -24.1140  -13.0470   20.8460 C   0  0  0  0  0  0  0  0  0  0  0  0
  -24.5790  -11.6970   20.8110 C   0  0  0  0  0  0  0  0  0  0  0  0
  -26.2210  -12.9430   20.2200 N   0  0  0  0  0  0  0  0  0  0  0  0
  -25.8650  -11.6610   20.4850 N   0  0  0  0  0  0  0  0  0  0  0  0
  -23.8590  -10.4330   21.0170 C   0  0  0  0  0  0  0  0  0  0  0  0
  -24.3180   -9.4630   21.9360 C   0  0  0  0  0  3  0  0  0  0  0  0
  -23.5990   -8.2650   22.1290 C   0  0  0  0  0  3  0  0  0  0  0  0
  -22.4080   -8.0260   21.4040 C   0  0  0  0  0  0  0  0  0  0  0  0
  -21.9680   -8.9850   20.4730 C   0  0  0  0  0  3  0  0  0  0  0  0
  -22.6880  -10.1760   20.2780 C   0  0  0  0  0  3  0  0  0  0  0  0
  -21.6580   -6.8800   21.5070 O   0  0  0  0  0  0  0  0  0  0  0  0
  -21.6530   -6.1220   22.6510 C   0  0  0  0  0  0  0  0  0  0  0  0
  -21.2880   -6.6660   23.9010 C   0  0  0  0  0  3  0  0  0  0  0  0
  -21.2310   -5.8360   25.0400 C   0  0  0  0  0  3  0  0  0  0  0  0
  -21.5280   -4.4650   24.9270 C   0  0  0  0  0  0  0  0  0  0  0  0
  -21.8860   -3.9210   23.6810 C   0  0  0  0  0  3  0  0  0  0  0  0
  -21.9450   -4.7490   22.5460 C   0  0  0  0  0  0  0  0  0  0  0  0
  -22.2700   -4.2150   21.3430 F   0  0  0  0  0  0  0  0  0  0  0  0
  -21.4650   -3.6660   26.0180 F   0  0  0  0  0  0  0  0  0  0  0  0
  -22.7200  -13.5210   21.1410 C   0  0  0  0  0  0  0  0  0  0  0  0
  -22.0070  -12.8250   22.0190 N   0  0  0  0  0  0  0  0  0  0  0  0
  -22.2700  -14.5450   20.6270 O   0  0  0  0  0  0  0  0  0  0  0  0
  -22.3820  -11.9950   22.4550 H   0  0  0  0  0  0  0  0  0  0  0  0
  -21.0710  -13.1220   22.2560 H   0  0  0  0  0  0  0  0  0  0  0  0
  -25.3310  -15.1920   20.2730 N   0  0  0  0  0  0  0  0  0  0  0  0
  -24.5650  -15.8450   20.3930 H   0  0  0  0  0  0  0  0  0  0  0  0
  -26.1840  -15.6350   19.9600 H   0  0  0  0  0  0  0  0  0  0  0  0
  -30.0680  -18.8850   18.3150 C   0  0  0  0  0  2  0  0  0  0  0  0
  -29.1170  -17.8740   17.8260 N   0  0  0  0  0  4  0  0  0  0  0  0
  -29.1430  -17.0540   18.4020 H   0  0  0  0  0  0  0  0  0  0  0  0
  -29.3680  -17.6060   16.8890 H   0  0  0  0  0  0  0  0  0  0  0  0
  -28.1830  -18.2400   17.8050 H   0  0  0  0  0  0  0  0  0  0  0  0
  1  5  1  0
  1  3  1  0
  2  5  1  0
  2  4  1  0
  5  7  1  0
  6 93  1  6
  6  4  1  0
  6  3  1  0
  6 52  1  0
  7  8  1  0
  9  8  1  0
  9 10  1  0
 10 11  1  0
 11 13  1  0
 12 23  2  0
 13 18  1  0
 14 22  1  0
 14 24  1  0
 15 21  1  0
 15 17  1  0
 16 22  1  0
 17 16  1  0
 18 17  2  0
 19 13  2  0
 20 19  1  0
 20 15  2  0
 21 14  1  0
 22 12  1  0
 24 26  2  0
 25 24  1  0
 27 25  1  0
 28 37  2  0
 28 33  1  0
 29 25  1  0
 29 33  1  0
 30 29  1  0
 31 32  1  0
 31 30  1  0
 32 28  1  0
 33 34  2  0
 34 35  1  0
 36 35  2  0
 37 36  1  0
 38 12  1  0
 38 43  1  0
 38 39  1  0
 39 42  1  1
 39 40  1  0
 41 39  1  0
 43 46  1  0
 44 48  1  0
 44 43  1  0
 45 44  2  0
 48 47  1  0
 50 48  1  0
 50 51  1  0
 50 49  1  0
 52 53  1  0
 53 54  1  0
 55 63  1  0
 56 61  1  0
 57 58  1  0
 57 56  1  0
 59 58  1  0
 59 68  1  0
 59 60  1  0
 61 55  1  0
 61 60  1  0
 62 55  2  0
 63 64  1  0
 63 54  1  0
 65 66  2  0
 66 85  1  0
 67 66  1  0
 67 70  1  0
 68 65  1  0
 68 69  1  0
 69 67  2  0
 70 71  1  0
 71 72  2  0
 73 76  1  0
 73 72  1  0
 74 73  2  0
 75 74  1  0
 75 70  2  0
 76 77  1  0
 77 78  1  0
 78 79  2  0
 80 79  1  0
 80 84  1  0
 81 80  2  0
 82 77  2  0
 82 81  1  0
 83 82  1  0
 85 86  1  0
 86 89  1  0
 86 88  1  0
 87 85  2  0
 90 91  1  0
 90 65  1  0
 92 90  1  0
 94 93  1  0
 94 95  1  0
 96 94  1  0
 97 94  1  0
M  ISO  4  10 101  11 101  55 100  63 100
M  END
>  <TORSDO>  (33) 
F 25

>  <SCORE>  (33) 
-12.647

>  <name>  (33) 
32

>  <ligand_id>  (33) 
32

>  <original_smiles>  (33) 
[H]c1c([H])c([H])c2c(c1[H])C([H])([H])C([H])([H])C([H])([H])C2([H])N([H])C(=O)C1([H])N(C(=O)C([H])(N([H])C(=O)C([H])(N([H])C([H])([H])[H])C([H])([H])[H])C(C([H])([H])[H])(C([H])([H])[H])C([H])([H])[H])C([H])([H])c2c([H])c(OC([H])([H])C([H])([H])C([H])([H])C([H])([H])C3([H])C([H])([H])C([H])([H])C(C([H])([H])C([H])([H])C([H])([H])N([H])C(=O)N4C([H])([H])C([H])([H])C([H])([H])C([H])(n5nc(-c6c([H])c([H])c(Oc7c([H])c([H])c(F)c([H])c7F)c([H])c6[H])c(C(=O)N([H])[H])c5N([H])[H])C4([H])[H])(C([H])([H])[N+]([H])([H])[H])C([H])([H])C3([H])[H])c([H])c([H])c2C1([H])[H]

>  <smiles>  (33) 
[H]c1c([H])c([H])c2c(c1[H])C([H])([H])C([H])([H])C([H])([H])C2([H])N([H])C(=O)C1([H])N(C(=O)C([H])(N([H])C(=O)C([H])(N([H])C([H])([H])[H])C([H])([H])[H])C(C([H])([H])[H])(C([H])([H])[H])C([H])([H])[H])C([H])([H])c2c([H])c(OC([H])([H])C([H])([H])C([H])([H])C([H])([H])C3([H])C([H])([H])C([H])([H])C(C([H])([H])C([H])([H])C([H])([H])N([H])C(=O)N4C([H])([H])C([H])([H])C([H])([H])C([H])(n5nc(-c6c([H])c([H])c(Oc7c([H])c([H])c(F)c([H])c7F)c([H])c6[H])c(C(=O)N([H])[H])c5N([H])[H])C4([H])[H])(C([H])([H])[N+]([H])([H])[H])C([H])([H])C3([H])[H])c([H])c([H])c2C1([H])[H]

$$$$
33:0:0
     RDKit          3D

 94103  0  0  1  0  0  0  0  0999 V2000
  -28.4090  -21.0700   18.9840 C   0  0  0  0  0  2  0  0  0  0  0  0
  -27.8570  -22.3440   19.6360 C   0  0  0  0  0  2  0  0  0  0  0  0
  -30.2450  -22.5920   19.5560 C   0  0  0  0  0  2  0  0  0  0  0  0
  -29.9440  -21.1250   19.1210 C   0  0  0  0  0  3  0  0  0  0  0  0
  -28.9360  -23.4130   19.4280 C   0  0  0  0  0  3  0  0  0  0  0  0
  -30.5690  -19.2470   22.4140 C   0  0  0  0  0  3  0  0  0  0  0  0
  -31.3780  -18.1660   22.0310 C   0  0  0  0  0  3  0  0  0  0  0  0
  -30.1360  -20.1700   21.4470 C   0  0  0  0  0  3  0  0  0  0  0  0
  -31.7390  -18.0120   20.6830 C   0  0  0  0  0  3  0  0  0  0  0  0
  -30.4920  -20.0440   20.0810 C   0  0  0  0  0  0  0  0  0  0  0  0
  -31.3060  -18.9240   19.6930 C   0  0  0  0  0  0  0  0  0  0  0  0
  -31.7890  -18.6340   18.2680 C   0  0  0  0  0  2  0  0  0  0  0  0
  -31.4660  -17.2150   17.7360 C   0  0  0  0  0  2  0  0  0  0  0  0
  -32.1000  -15.0760   18.8870 C   0  0  0  0  0  0  0  0  0  0  0  0
  -31.8560  -12.6300   18.8470 C   0  0  0  0  0  2  0  0  0  0  0  0
  -30.8670  -12.2740   17.7180 C   0  0  0  0  0  2  0  0  0  0  0  0
  -29.4140  -12.3140   18.2340 C   0  0  0  0  0  2  0  0  0  0  0  0
  -29.0900  -13.6140   19.0190 C   0  0  0  0  0  3  0  0  0  0  0  0
  -30.1910  -13.9210   20.0600 C   0  0  0  0  0  2  0  0  0  0  0  0
  -31.4830  -13.9590   19.3570 N   0  0  0  0  0  0  0  0  0  0  0  0
  -33.2270  -15.0550   18.3840 O   0  0  0  0  0  0  0  0  0  0  0  0
  -31.3050  -16.1590   18.7610 N   0  0  0  0  0  0  0  0  0  0  0  0
  -30.3940  -16.0880   19.1900 H   0  0  0  0  0  0  0  0  0  0  0  0
  -26.9290  -14.5930   20.0160 C   0  0  0  0  0  0  0  0  0  0  0  0
  -25.7800  -14.0010   20.4690 C   0  0  0  0  0  0  0  0  0  0  0  0
  -25.9820  -12.5930   20.3300 C   0  0  0  0  0  0  0  0  0  0  0  0
  -27.7660  -13.5560   19.6330 N   0  0  0  0  0  0  0  0  0  0  0  0
  -27.2040  -12.3440   19.8780 N   0  0  0  0  0  0  0  0  0  0  0  0
  -25.0600  -11.4720   20.5460 C   0  0  0  0  0  0  0  0  0  0  0  0
  -25.3650  -10.4280   21.4490 C   0  0  0  0  0  3  0  0  0  0  0  0
  -24.4560   -9.3680   21.6520 C   0  0  0  0  0  3  0  0  0  0  0  0
  -23.2250   -9.3450   20.9530 C   0  0  0  0  0  0  0  0  0  0  0  0
  -22.9370  -10.3740   20.0390 C   0  0  0  0  0  3  0  0  0  0  0  0
  -23.8450  -11.4250   19.8330 C   0  0  0  0  0  3  0  0  0  0  0  0
  -22.2910   -8.3440   21.0690 O   0  0  0  0  0  0  0  0  0  0  0  0
  -22.1150   -7.6570   22.2430 C   0  0  0  0  0  0  0  0  0  0  0  0
  -21.8000   -8.3160   23.4520 C   0  0  0  0  0  3  0  0  0  0  0  0
  -21.5580   -7.5650   24.6200 C   0  0  0  0  0  3  0  0  0  0  0  0
  -21.6210   -6.1590   24.5790 C   0  0  0  0  0  0  0  0  0  0  0  0
  -21.9280   -5.5020   23.3750 C   0  0  0  0  0  3  0  0  0  0  0  0
  -22.1720   -6.2490   22.2100 C   0  0  0  0  0  0  0  0  0  0  0  0
  -22.4470   -5.6100   21.0480 F   0  0  0  0  0  0  0  0  0  0  0  0
  -21.3800   -5.4380   25.7000 F   0  0  0  0  0  0  0  0  0  0  0  0
  -24.5300  -14.7010   20.9150 C   0  0  0  0  0  0  0  0  0  0  0  0
  -23.8060  -14.1190   21.8660 N   0  0  0  0  0  0  0  0  0  0  0  0
  -24.2110  -15.7970   20.4540 O   0  0  0  0  0  0  0  0  0  0  0  0
  -24.0770  -13.2310   22.2610 H   0  0  0  0  0  0  0  0  0  0  0  0
  -22.9670  -14.5700   22.2050 H   0  0  0  0  0  0  0  0  0  0  0  0
  -27.3200  -15.9210   19.8800 N   0  0  0  0  0  0  0  0  0  0  0  0
  -26.7030  -16.6880   20.1170 H   0  0  0  0  0  0  0  0  0  0  0  0
  -28.2030  -16.2300   19.4920 H   0  0  0  0  0  0  0  0  0  0  0  0
  -28.7950  -24.6150   20.4090 C   0  0  0  0  0  2  0  0  0  0  0  0
  -29.4660  -25.9560   19.9940 C   0  0  0  0  0  2  0  0  0  0  0  0
  -28.9090  -26.5810   18.8270 O   0  0  0  0  0  0  0  0  0  0  0  0
  -24.8610  -30.9710   22.7570 C   0  0  0  0  0  0  0  0  0  0  0  0
  -27.6970  -27.2060   19.0210 C   0  0  0  0  0  0  0  0  0  0  0  0
  -23.6810  -29.6270   21.0470 C   0  0  0  0  0  3  0  0  0  0  0  0
  -25.1710  -28.4240   19.3600 C   0  0  0  0  0  0  0  0  0  0  0  0
  -26.1310  -30.2830   20.7260 C   0  0  0  0  0  2  0  0  0  0  0  0
  -26.3100  -29.0050   19.9340 C   0  0  0  0  0  0  0  0  0  0  0  0
  -27.5780  -28.3990   19.7690 C   0  0  0  0  0  3  0  0  0  0  0  0
  -26.5470  -26.6480   18.4290 C   0  0  0  0  0  3  0  0  0  0  0  0
  -25.2830  -27.2420   18.6070 C   0  0  0  0  0  3  0  0  0  0  0  0
  -23.8500  -29.1260   19.5880 C   0  0  0  0  0  2  0  0  0  0  0  0
  -24.9110  -30.3050   21.5680 N   0  0  0  0  0  0  0  0  0  0  0  0
  -23.8030  -31.0610   23.3960 O   0  0  0  0  0  0  0  0  0  0  0  0
  -23.2180  -28.4410   21.9260 C   0  0  0  0  0  0  0  0  0  0  0  0
  -21.9370  -28.0580   21.7880 N   0  0  0  0  0  0  0  0  0  0  0  0
  -24.0060  -27.8730   22.6860 O   0  0  0  0  0  0  0  0  0  0  0  0
  -21.3520  -28.5800   21.1520 H   0  0  0  0  0  0  0  0  0  0  0  0
  -18.8520  -26.2030   22.0800 C   0  0  0  0  0  0  0  0  0  0  0  0
  -21.2940  -26.9430   22.4840 C   0  0  0  0  0  3  0  0  0  0  0  0
  -21.7020  -25.5890   21.8590 C   0  0  0  0  0  2  0  0  0  0  0  0
  -20.7260  -25.1050   20.7820 C   0  0  0  0  0  2  0  0  0  0  0  0
  -19.3180  -24.9460   21.3640 C   0  0  0  0  0  2  0  0  0  0  0  0
  -19.7790  -27.1480   22.5930 C   0  0  0  0  0  0  0  0  0  0  0  0
  -19.2920  -28.3160   23.2180 C   0  0  0  0  0  3  0  0  0  0  0  0
  -17.9080  -28.5440   23.3400 C   0  0  0  0  0  3  0  0  0  0  0  0
  -16.9940  -27.5970   22.8450 C   0  0  0  0  0  3  0  0  0  0  0  0
  -17.4670  -26.4290   22.2210 C   0  0  0  0  0  3  0  0  0  0  0  0
  -26.1210  -31.6720   23.3560 C   0  0  0  0  0  3  0  0  0  0  0  0
  -25.6820  -32.9470   23.9400 N   0  0  0  0  0  0  0  0  0  0  0  0
  -25.8300  -34.1410   23.3510 C   0  0  0  0  0  0  0  0  0  0  0  0
  -26.4220  -34.2920   22.2790 O   0  0  0  0  0  0  0  0  0  0  0  0
  -25.1460  -32.8940   24.7920 H   0  0  0  0  0  0  0  0  0  0  0  0
  -23.8890  -35.7380   23.4050 C   0  0  0  0  0  1  0  0  0  0  0  0
  -25.2240  -35.3640   24.0670 C   0  0  0  0  0  3  0  0  0  0  0  0
  -27.2990  -36.3560   24.9240 C   0  0  0  0  0  1  0  0  0  0  0  0
  -26.1200  -36.5410   24.0820 N   0  0  0  0  0  0  0  0  0  0  0  0
  -25.6240  -37.3660   24.4080 H   0  0  0  0  0  0  0  0  0  0  0  0
  -26.8690  -30.7920   24.4330 C   0  0  1  0  0  0  0  0  0  0  0  0
  -25.9390  -30.2480   25.5430 C   0  0  0  0  0  1  0  0  0  0  0  0
  -27.5650  -29.5840   23.7640 C   0  0  0  0  0  1  0  0  0  0  0  0
  -27.9820  -31.6260   25.1090 C   0  0  0  0  0  1  0  0  0  0  0  0
  1  4  1  0
  1  2  1  0
  4  3  1  0
  4 10  1  0
  5  3  1  0
  5  2  1  0
  5 52  1  0
  7  6  1  0
  8  6  2  0
  9  7  2  0
 10  8  1  0
 11 10  2  0
 11  9  1  0
 12 11  1  0
 13 12  1  0
 13 22  1  0
 14 20  1  0
 15 20  1  0
 16 17  1  0
 16 15  1  0
 18 17  1  0
 18 27  1  0
 18 19  1  0
 20 19  1  0
 21 14  2  0
 22 14  1  0
 22 23  1  0
 24 25  2  0
 25 44  1  0
 26 25  1  0
 26 29  1  0
 27 28  1  0
 27 24  1  0
 28 26  2  0
 29 30  1  0
 30 31  2  0
 32 35  1  0
 32 31  1  0
 33 32  2  0
 34 33  1  0
 34 29  2  0
 35 36  1  0
 36 37  1  0
 37 38  2  0
 39 38  1  0
 39 43  1  0
 40 39  2  0
 41 36  2  0
 41 40  1  0
 42 41  1  0
 44 45  1  0
 45 48  1  0
 45 47  1  0
 46 44  2  0
 49 24  1  0
 49 50  1  0
 51 49  1  0
 53 52  1  0
 54 56  1  0
 54 53  1  0
 55 66  2  0
 56 61  1  0
 57 65  1  0
 57 67  1  0
 58 64  1  0
 58 60  1  0
 59 65  1  0
 60 59  1  0
 61 60  2  0
 62 63  1  0
 62 56  2  0
 63 58  2  0
 64 57  1  0
 65 55  1  0
 67 69  2  0
 68 67  1  0
 70 68  1  0
 71 80  2  0
 71 76  1  0
 72 68  1  0
 72 76  1  0
 73 72  1  0
 74 75  1  0
 74 73  1  0
 75 71  1  0
 76 77  2  0
 77 78  1  0
 79 78  2  0
 80 79  1  0
 81 55  1  0
 81 82  1  0
 81 91  1  0
 82 85  1  0
 83 82  1  0
 83 87  1  0
 84 83  2  0
 87 86  1  0
 87 89  1  0
 89 90  1  0
 89 88  1  0
 91 94  1  1
 91 92  1  0
 93 91  1  0
M  ISO  4  14 100  22 100  53 101  54 101
M  END
>  <TORSDO>  (34) 
F 21

>  <SCORE>  (34) 
-8.799

>  <name>  (34) 
33

>  <ligand_id>  (34) 
33

>  <original_smiles>  (34) 
[H]c1c([H])c([H])c(C2([H])C([H])([H])C([H])([H])C([H])(C([H])([H])C([H])([H])Oc3c([H])c([H])c4c(c3[H])C([H])([H])N(C(=O)C([H])(N([H])C(=O)C([H])(N([H])C([H])([H])[H])C([H])([H])[H])C(C([H])([H])[H])(C([H])([H])[H])C([H])([H])[H])C([H])(C(=O)N([H])C3([H])c5c([H])c([H])c([H])c([H])c5C([H])([H])C([H])([H])C3([H])[H])C4([H])[H])C2([H])[H])c(C([H])([H])C([H])([H])N([H])C(=O)N2C([H])([H])C([H])([H])C([H])([H])C([H])(n3nc(-c4c([H])c([H])c(Oc5c([H])c([H])c(F)c([H])c5F)c([H])c4[H])c(C(=O)N([H])[H])c3N([H])[H])C2([H])[H])c1[H]

>  <smiles>  (34) 
[H]c1c([H])c([H])c(C2([H])C([H])([H])C([H])([H])C([H])(C([H])([H])C([H])([H])Oc3c([H])c([H])c4c(c3[H])C([H])([H])N(C(=O)C([H])(N([H])C(=O)C([H])(N([H])C([H])([H])[H])C([H])([H])[H])C(C([H])([H])[H])(C([H])([H])[H])C([H])([H])[H])C([H])(C(=O)N([H])C3([H])c5c([H])c([H])c([H])c([H])c5C([H])([H])C([H])([H])C3([H])[H])C4([H])[H])C2([H])[H])c(C([H])([H])C([H])([H])N([H])C(=O)N2C([H])([H])C([H])([H])C([H])([H])C([H])(n3nc(-c4c([H])c([H])c(Oc5c([H])c([H])c(F)c([H])c5F)c([H])c4[H])c(C(=O)N([H])[H])c3N([H])[H])C2([H])[H])c1[H]

$$$$
34:0:0
     RDKit          3D

 97104  0  0  1  0  0  0  0  0999 V2000
  -31.3440  -21.9070   22.7140 C   0  0  0  0  0  3  0  0  0  0  0  0
  -31.6090  -21.8390   24.1640 N   0  0  0  0  0  4  0  0  0  0  0  0
  -32.4340  -22.3540   24.4150 H   0  0  0  0  0  0  0  0  0  0  0  0
  -31.7320  -20.8850   24.4530 H   0  0  0  0  0  0  0  0  0  0  0  0
  -30.8350  -22.2110   24.6840 H   0  0  0  0  0  0  0  0  0  0  0  0
  -30.9980  -23.3500   22.2790 C   0  0  0  0  0  2  0  0  0  0  0  0
  -29.4900  -23.6140   22.0590 C   0  0  0  0  0  3  0  0  0  0  0  0
  -27.3920  -24.8260   22.9520 C   0  0  0  0  0  1  0  0  0  0  0  0
  -28.8960  -24.5590   23.1260 C   0  0  0  0  0  2  0  0  0  0  0  0
  -29.2380  -24.0910   20.6150 C   0  0  0  0  0  2  0  0  0  0  0  0
  -30.0930  -25.3020   20.1800 C   0  0  0  0  0  2  0  0  0  0  0  0
  -29.2740  -26.5820   20.1220 C   0  0  0  0  0  2  0  0  0  0  0  0
  -28.1710  -26.3410   19.2580 O   0  0  0  0  0  0  0  0  0  0  0  0
  -24.7180  -31.2860   23.0420 C   0  0  0  0  0  0  0  0  0  0  0  0
  -27.0690  -27.1410   19.4220 C   0  0  0  0  0  0  0  0  0  0  0  0
  -23.3990  -30.1470   21.2800 C   0  0  0  0  0  3  0  0  0  0  0  0
  -24.7370  -28.7080   19.6590 C   0  0  0  0  0  0  0  0  0  0  0  0
  -25.9280  -30.4130   21.0540 C   0  0  0  0  0  2  0  0  0  0  0  0
  -25.9240  -29.1230   20.2700 C   0  0  0  0  0  0  0  0  0  0  0  0
  -27.0910  -28.3500   20.1540 C   0  0  0  0  0  3  0  0  0  0  0  0
  -25.8670  -26.7290   18.8120 C   0  0  0  0  0  3  0  0  0  0  0  0
  -24.6980  -27.5050   18.9290 C   0  0  0  0  0  3  0  0  0  0  0  0
  -23.5400  -29.6120   19.8290 C   0  0  0  0  0  2  0  0  0  0  0  0
  -24.7020  -30.6210   21.8540 N   0  0  0  0  0  0  0  0  0  0  0  0
  -23.6660  -31.5530   23.6380 O   0  0  0  0  0  0  0  0  0  0  0  0
  -22.7140  -29.0610   22.1370 C   0  0  0  0  0  0  0  0  0  0  0  0
  -21.3760  -28.9950   22.0520 N   0  0  0  0  0  0  0  0  0  0  0  0
  -23.3790  -28.2850   22.8290 O   0  0  0  0  0  0  0  0  0  0  0  0
  -20.9070  -29.6710   21.4660 H   0  0  0  0  0  0  0  0  0  0  0  0
  -17.9370  -28.0410   22.5890 C   0  0  0  0  0  0  0  0  0  0  0  0
  -20.5160  -28.0330   22.7370 C   0  0  0  0  0  3  0  0  0  0  0  0
  -20.4570  -26.6950   21.9630 C   0  0  0  0  0  2  0  0  0  0  0  0
  -19.2800  -26.6170   20.9850 C   0  0  0  0  0  2  0  0  0  0  0  0
  -17.9520  -26.7890   21.7260 C   0  0  0  0  0  2  0  0  0  0  0  0
  -19.1420  -28.6330   23.0490 C   0  0  0  0  0  0  0  0  0  0  0  0
  -19.0730  -29.8160   23.8170 C   0  0  0  0  0  3  0  0  0  0  0  0
  -17.8320  -30.4020   24.1280 C   0  0  0  0  0  3  0  0  0  0  0  0
  -16.6410  -29.8020   23.6830 C   0  0  0  0  0  3  0  0  0  0  0  0
  -16.6960  -28.6220   22.9190 C   0  0  0  0  0  3  0  0  0  0  0  0
  -26.0530  -31.7660   23.6960 C   0  0  0  0  0  3  0  0  0  0  0  0
  -26.5570  -30.8170   24.8510 C   0  0  1  0  0  0  0  0  0  0  0  0
  -25.4810  -30.5140   25.9180 C   0  0  0  0  0  1  0  0  0  0  0  0
  -27.0460  -29.4680   24.2720 C   0  0  0  0  0  1  0  0  0  0  0  0
  -27.7700  -31.4590   25.5650 C   0  0  0  0  0  1  0  0  0  0  0  0
  -25.8340  -33.1290   24.1970 N   0  0  0  0  0  0  0  0  0  0  0  0
  -26.2380  -34.2430   23.5700 C   0  0  0  0  0  0  0  0  0  0  0  0
  -26.9090  -34.2220   22.5340 O   0  0  0  0  0  0  0  0  0  0  0  0
  -25.2450  -33.2220   25.0120 H   0  0  0  0  0  0  0  0  0  0  0  0
  -24.6330  -36.1720   23.4320 C   0  0  0  0  0  1  0  0  0  0  0  0
  -25.8360  -35.5920   24.1930 C   0  0  0  0  0  3  0  0  0  0  0  0
  -28.0090  -36.2300   25.1390 C   0  0  0  0  0  1  0  0  0  0  0  0
  -26.9350  -36.5810   24.2150 N   0  0  0  0  0  0  0  0  0  0  0  0
  -26.5860  -37.5010   24.4710 H   0  0  0  0  0  0  0  0  0  0  0  0
  -32.5260  -21.3430   21.8830 C   0  0  0  0  0  2  0  0  0  0  0  0
  -32.1600  -20.9720   20.4230 C   0  0  0  0  0  2  0  0  0  0  0  0
  -31.0790  -19.8790   20.2620 C   0  0  0  0  0  2  0  0  0  0  0  0
  -31.4750  -18.5690   20.9570 C   0  0  0  0  0  2  0  0  0  0  0  0
  -30.4450  -17.4420   20.8440 C   0  0  0  0  0  2  0  0  0  0  0  0
  -30.9360  -16.2100   21.6270 C   0  0  0  0  0  2  0  0  0  0  0  0
  -30.7750  -14.1250   20.2780 C   0  0  0  0  0  0  0  0  0  0  0  0
  -30.3740  -12.0530   19.0070 C   0  0  0  0  0  2  0  0  0  0  0  0
  -29.3940  -12.2940   17.8420 C   0  0  0  0  0  2  0  0  0  0  0  0
  -27.9390  -12.1480   18.3240 C   0  0  0  0  0  2  0  0  0  0  0  0
  -27.6540  -12.9750   19.6050 C   0  0  0  0  0  3  0  0  0  0  0  0
  -28.7320  -12.7040   20.6760 C   0  0  0  0  0  2  0  0  0  0  0  0
  -30.0490  -12.9960   20.0850 N   0  0  0  0  0  0  0  0  0  0  0  0
  -31.8110  -14.3760   19.6540 O   0  0  0  0  0  0  0  0  0  0  0  0
  -30.2910  -14.9710   21.2020 N   0  0  0  0  0  0  0  0  0  0  0  0
  -29.4370  -14.7020   21.6690 H   0  0  0  0  0  0  0  0  0  0  0  0
  -25.2710  -13.6060   20.3470 C   0  0  0  0  0  0  0  0  0  0  0  0
  -24.2130  -12.8450   20.7720 C   0  0  0  0  0  0  0  0  0  0  0  0
  -24.6790  -11.4940   20.7780 C   0  0  0  0  0  0  0  0  0  0  0  0
  -26.3110  -12.7190   20.1240 N   0  0  0  0  0  0  0  0  0  0  0  0
  -25.9600  -11.4460   20.4390 N   0  0  0  0  0  0  0  0  0  0  0  0
  -23.9620  -10.2380   21.0340 C   0  0  0  0  0  0  0  0  0  0  0  0
  -24.3960   -9.3340   22.0290 C   0  0  0  0  0  3  0  0  0  0  0  0
  -23.6870   -8.1380   22.2710 C   0  0  0  0  0  3  0  0  0  0  0  0
  -22.5280   -7.8360   21.5170 C   0  0  0  0  0  0  0  0  0  0  0  0
  -22.1110   -8.7280   20.5140 C   0  0  0  0  0  3  0  0  0  0  0  0
  -22.8190   -9.9190   20.2730 C   0  0  0  0  0  3  0  0  0  0  0  0
  -21.7880   -6.6880   21.6640 O   0  0  0  0  0  0  0  0  0  0  0  0
  -21.7120   -6.0300   22.8650 C   0  0  0  0  0  0  0  0  0  0  0  0
  -21.2180   -6.6590   24.0290 C   0  0  0  0  0  3  0  0  0  0  0  0
  -21.0940   -5.9260   25.2250 C   0  0  0  0  0  3  0  0  0  0  0  0
  -21.4470   -4.5640   25.2580 C   0  0  0  0  0  0  0  0  0  0  0  0
  -21.9290   -3.9340   24.0970 C   0  0  0  0  0  3  0  0  0  0  0  0
  -22.0600   -4.6660   22.9050 C   0  0  0  0  0  0  0  0  0  0  0  0
  -22.5060   -4.0490   21.7840 F   0  0  0  0  0  0  0  0  0  0  0  0
  -21.3170   -3.8580   26.4050 F   0  0  0  0  0  0  0  0  0  0  0  0
  -22.8210  -13.3250   21.0600 C   0  0  0  0  0  0  0  0  0  0  0  0
  -22.1170  -12.6580   21.9690 N   0  0  0  0  0  0  0  0  0  0  0  0
  -22.3640  -14.3270   20.5130 O   0  0  0  0  0  0  0  0  0  0  0  0
  -22.4970  -11.8490   22.4370 H   0  0  0  0  0  0  0  0  0  0  0  0
  -21.1800  -12.9580   22.1990 H   0  0  0  0  0  0  0  0  0  0  0  0
  -25.4300  -14.9690   20.1140 N   0  0  0  0  0  0  0  0  0  0  0  0
  -24.6670  -15.6330   20.2010 H   0  0  0  0  0  0  0  0  0  0  0  0
  -26.2850  -15.3880   19.7670 H   0  0  0  0  0  0  0  0  0  0  0  0
  1 54  1  0
  1  2  1  0
  2  3  1  0
  2  4  1  0
  2  5  1  0
  6  1  1  0
  7 10  1  0
  7  6  1  0
  7  9  1  0
  8  9  1  0
 11 10  1  0
 12 11  1  0
 13 15  1  0
 13 12  1  0
 14 25  2  0
 15 20  1  0
 16 24  1  0
 16 26  1  0
 17 23  1  0
 17 19  1  0
 18 24  1  0
 19 18  1  0
 20 19  2  0
 21 22  1  0
 21 15  2  0
 22 17  2  0
 23 16  1  0
 24 14  1  0
 26 28  2  0
 27 26  1  0
 29 27  1  0
 30 39  2  0
 30 35  1  0
 31 27  1  0
 31 35  1  0
 32 31  1  0
 33 34  1  0
 33 32  1  0
 34 30  1  0
 35 36  2  0
 36 37  1  0
 38 37  2  0
 39 38  1  0
 40 14  1  0
 40 45  1  0
 40 41  1  0
 41 44  1  1
 41 42  1  0
 43 41  1  0
 45 48  1  0
 46 50  1  0
 46 45  1  0
 47 46  2  0
 50 49  1  0
 50 52  1  0
 52 53  1  0
 52 51  1  0
 55 54  1  0
 56 55  1  0
 56 57  1  0
 58 57  1  0
 58 59  1  0
 60 68  1  0
 61 66  1  0
 62 63  1  0
 62 61  1  0
 64 63  1  0
 64 73  1  0
 64 65  1  0
 66 60  1  0
 66 65  1  0
 67 60  2  0
 68 59  1  0
 68 69  1  0
 70 71  2  0
 71 72  1  0
 71 90  1  0
 72 75  1  0
 73 70  1  0
 73 74  1  0
 74 72  2  0
 75 76  1  0
 76 77  2  0
 78 81  1  0
 78 77  1  0
 79 78  2  0
 80 79  1  0
 80 75  2  0
 81 82  1  0
 82 87  2  0
 82 83  1  0
 83 84  2  0
 84 85  1  0
 85 89  1  0
 86 85  2  0
 87 86  1  0
 88 87  1  0
 90 91  1  0
 91 94  1  0
 91 93  1  0
 92 90  2  0
 95 96  1  0
 95 70  1  0
 97 95  1  0
M  ISO  4  12 101  13 101  60 100  68 100
M  END
>  <TORSDO>  (35) 
F 29

>  <SCORE>  (35) 
-9.436

>  <name>  (35) 
34

>  <ligand_id>  (35) 
34

>  <original_smiles>  (35) 
[H]c1c([H])c([H])c2c(c1[H])C([H])([H])C([H])([H])C([H])([H])C2([H])N([H])C(=O)C1([H])N(C(=O)C([H])(N([H])C(=O)C([H])(N([H])C([H])([H])[H])C([H])([H])[H])C(C([H])([H])[H])(C([H])([H])[H])C([H])([H])[H])C([H])([H])c2c([H])c(OC([H])([H])C([H])([H])C([H])([H])C([H])(C([H])([H])C([H])([H])[H])C([H])([H])C([H])(C([H])([H])C([H])([H])C([H])([H])C([H])([H])C([H])([H])C([H])([H])N([H])C(=O)N3C([H])([H])C([H])([H])C([H])([H])C([H])(n4nc(-c5c([H])c([H])c(Oc6c([H])c([H])c(F)c([H])c6F)c([H])c5[H])c(C(=O)N([H])[H])c4N([H])[H])C3([H])[H])[N+]([H])([H])[H])c([H])c([H])c2C1([H])[H]

>  <smiles>  (35) 
[H]c1c([H])c([H])c2c(c1[H])C([H])([H])C([H])([H])C([H])([H])C2([H])N([H])C(=O)C1([H])N(C(=O)C([H])(N([H])C(=O)C([H])(N([H])C([H])([H])[H])C([H])([H])[H])C(C([H])([H])[H])(C([H])([H])[H])C([H])([H])[H])C([H])([H])c2c([H])c(OC([H])([H])C([H])([H])C([H])([H])C([H])(C([H])([H])C([H])([H])[H])C([H])([H])C([H])(C([H])([H])C([H])([H])C([H])([H])C([H])([H])C([H])([H])C([H])([H])N([H])C(=O)N3C([H])([H])C([H])([H])C([H])([H])C([H])(n4nc(-c5c([H])c([H])c(Oc6c([H])c([H])c(F)c([H])c6F)c([H])c5[H])c(C(=O)N([H])[H])c4N([H])[H])C3([H])[H])[N+]([H])([H])[H])c([H])c([H])c2C1([H])[H]

$$$$
35:0:0
     RDKit          3D

 99108  0  0  1  0  0  0  0  0999 V2000
  -26.6680  -21.8780   21.4540 C   0  0  0  0  0  2  0  0  0  0  0  0
  -27.5020  -23.0530   19.3130 C   0  0  0  0  0  2  0  0  0  0  0  0
  -26.3740  -24.4970   21.2070 C   0  0  0  0  0  2  0  0  0  0  0  0
  -27.7840  -21.9460   20.3710 C   0  0  0  0  0  3  0  0  0  0  0  0
  -25.7460  -23.1130   21.4470 C   0  0  0  0  0  3  0  0  0  0  0  0
  -26.3900  -24.0350   19.7490 C   0  0  0  0  0  3  0  0  0  0  0  0
  -25.1320  -23.3720   20.1310 N   0  0  1  0  0  4  0  0  0  0  0  0
  -24.4150  -24.0720   20.2670 H   0  0  0  0  0  0  0  0  0  0  0  0
  -24.5730  -22.2640   19.3150 C   0  0  0  0  0  2  0  0  0  0  0  0
  -24.8560  -22.4230   17.7970 C   0  0  0  0  0  2  0  0  0  0  0  0
  -24.9180  -23.8710   17.2800 C   0  0  0  0  0  2  0  0  0  0  0  0
  -26.1530  -24.1730   16.4140 C   0  0  0  0  0  2  0  0  0  0  0  0
  -26.4640  -25.6700   16.2420 C   0  0  0  0  0  2  0  0  0  0  0  0
  -26.8460  -26.3040   17.4580 O   0  0  0  0  0  0  0  0  0  0  0  0
  -25.6270  -29.8140   23.4840 C   0  0  0  0  0  0  0  0  0  0  0  0
  -25.9810  -27.1690   18.0910 C   0  0  0  0  0  0  0  0  0  0  0  0
  -23.7400  -29.7840   21.8770 C   0  0  0  0  0  3  0  0  0  0  0  0
  -24.2970  -28.9200   19.5420 C   0  0  0  0  0  0  0  0  0  0  0  0
  -26.1600  -29.5870   21.0710 C   0  0  0  0  0  2  0  0  0  0  0  0
  -25.6410  -28.7750   19.9050 C   0  0  0  0  0  0  0  0  0  0  0  0
  -26.4720  -27.8830   19.2020 C   0  0  0  0  0  3  0  0  0  0  0  0
  -24.6390  -27.3770   17.7030 C   0  0  0  0  0  3  0  0  0  0  0  0
  -23.7880  -28.2180   18.4420 C   0  0  0  0  0  3  0  0  0  0  0  0
  -23.4660  -29.8880   20.3540 C   0  0  0  0  0  2  0  0  0  0  0  0
  -25.2030  -29.7110   22.1930 N   0  0  0  0  0  0  0  0  0  0  0  0
  -24.8240  -30.0070   24.4030 O   0  0  0  0  0  0  0  0  0  0  0  0
  -22.9350  -28.5930   22.4410 C   0  0  0  0  0  0  0  0  0  0  0  0
  -21.6000  -28.6630   22.3090 N   0  0  0  0  0  0  0  0  0  0  0  0
  -23.5080  -27.6310   22.9580 O   0  0  0  0  0  0  0  0  0  0  0  0
  -21.2130  -29.4860   21.8700 H   0  0  0  0  0  0  0  0  0  0  0  0
  -18.1460  -27.6610   22.0780 C   0  0  0  0  0  0  0  0  0  0  0  0
  -20.6410  -27.6490   22.7470 C   0  0  0  0  0  3  0  0  0  0  0  0
  -20.7580  -26.3670   21.8970 C   0  0  0  0  0  2  0  0  0  0  0  0
  -19.8160  -26.3520   20.6880 C   0  0  0  0  0  2  0  0  0  0  0  0
  -18.3570  -26.4870   21.1360 C   0  0  0  0  0  2  0  0  0  0  0  0
  -19.2220  -28.2180   22.8170 C   0  0  0  0  0  0  0  0  0  0  0  0
  -18.9750  -29.3250   23.6580 C   0  0  0  0  0  3  0  0  0  0  0  0
  -17.6890  -29.8800   23.7600 C   0  0  0  0  0  3  0  0  0  0  0  0
  -16.6230  -29.3140   23.0410 C   0  0  0  0  0  3  0  0  0  0  0  0
  -16.8520  -28.2020   22.2140 C   0  0  0  0  0  3  0  0  0  0  0  0
  -27.1380  -29.7170   23.8590 C   0  0  0  0  0  3  0  0  0  0  0  0
  -27.5400  -28.3230   24.4880 C   0  0  1  0  0  0  0  0  0  0  0  0
  -26.6250  -27.8870   25.6560 C   0  0  0  0  0  1  0  0  0  0  0  0
  -27.4960  -27.2030   23.4240 C   0  0  0  0  0  1  0  0  0  0  0  0
  -28.9970  -28.3790   25.0070 C   0  0  0  0  0  1  0  0  0  0  0  0
  -27.4310  -30.8120   24.7890 N   0  0  0  0  0  0  0  0  0  0  0  0
  -28.0690  -31.9420   24.4530 C   0  0  0  0  0  0  0  0  0  0  0  0
  -28.5390  -32.1380   23.3290 O   0  0  0  0  0  0  0  0  0  0  0  0
  -27.0350  -30.7410   25.7150 H   0  0  0  0  0  0  0  0  0  0  0  0
  -27.1560  -34.1280   25.2900 C   0  0  0  0  0  1  0  0  0  0  0  0
  -28.2030  -33.0280   25.5340 C   0  0  0  0  0  3  0  0  0  0  0  0
  -30.5700  -32.7000   26.0920 C   0  0  0  0  0  1  0  0  0  0  0  0
  -29.5530  -33.6300   25.6040 N   0  0  0  0  0  0  0  0  0  0  0  0
  -29.5580  -34.4480   26.2090 H   0  0  0  0  0  0  0  0  0  0  0  0
  -28.0390  -20.5490   19.7290 C   0  0  0  0  0  2  0  0  0  0  0  0
  -29.3670  -20.3860   18.9630 C   0  0  0  0  0  0  0  0  0  0  0  0
  -30.1690  -21.3180   18.8540 O   0  0  0  0  0  0  0  0  0  0  0  0
  -29.6380  -18.9990   18.3540 C   0  0  0  0  0  2  0  0  0  0  0  0
  -31.1150  -18.4810   18.3430 C   0  0  0  0  0  3  0  0  0  0  0  0
  -31.7840  -15.9790   18.4860 C   0  0  0  0  0  0  0  0  0  0  0  0
  -31.8150  -13.5090   18.6630 C   0  0  0  0  0  2  0  0  0  0  0  0
  -30.8570  -12.8820   17.6330 C   0  0  0  0  0  2  0  0  0  0  0  0
  -29.4190  -12.8110   18.1850 C   0  0  0  0  0  2  0  0  0  0  0  0
  -28.9500  -14.1580   18.8010 C   0  0  0  0  0  3  0  0  0  0  0  0
  -30.0190  -14.7160   19.7670 C   0  0  0  0  0  2  0  0  0  0  0  0
  -31.2940  -14.8370   19.0330 N   0  0  0  0  0  0  0  0  0  0  0  0
  -32.7230  -15.9810   17.6870 O   0  0  0  0  0  0  0  0  0  0  0  0
  -31.1510  -17.1020   18.8850 N   0  0  0  0  0  0  0  0  0  0  0  0
  -30.5030  -16.9320   19.6420 H   0  0  0  0  0  0  0  0  0  0  0  0
  -26.7710  -14.9980   19.8930 C   0  0  0  0  0  0  0  0  0  0  0  0
  -25.6780  -14.3310   20.3790 C   0  0  0  0  0  0  0  0  0  0  0  0
  -25.9540  -12.9390   20.2030 C   0  0  0  0  0  0  0  0  0  0  0  0
  -27.6530  -14.0160   19.4600 N   0  0  0  0  0  0  0  0  0  0  0  0
  -27.1670  -12.7710   19.6960 N   0  0  0  0  0  0  0  0  0  0  0  0
  -25.1090  -11.7610   20.4360 C   0  0  0  0  0  0  0  0  0  0  0  0
  -25.4620  -10.7740   21.3810 C   0  0  0  0  0  3  0  0  0  0  0  0
  -24.6250   -9.6570   21.5990 C   0  0  0  0  0  3  0  0  0  0  0  0
  -23.4170   -9.5220   20.8720 C   0  0  0  0  0  0  0  0  0  0  0  0
  -23.0810  -10.4970   19.9160 C   0  0  0  0  0  3  0  0  0  0  0  0
  -23.9190  -11.6040   19.6980 C   0  0  0  0  0  3  0  0  0  0  0  0
  -22.5550   -8.4610   20.9990 O   0  0  0  0  0  0  0  0  0  0  0  0
  -22.2910   -7.8910   22.2160 C   0  0  0  0  0  0  0  0  0  0  0  0
  -21.7460   -8.6330   23.2870 C   0  0  0  0  0  3  0  0  0  0  0  0
  -21.4270   -7.9890   24.4980 C   0  0  0  0  0  3  0  0  0  0  0  0
  -21.6450   -6.6050   24.6400 C   0  0  0  0  0  0  0  0  0  0  0  0
  -22.1860   -5.8640   23.5730 C   0  0  0  0  0  3  0  0  0  0  0  0
  -22.5060   -6.5050   22.3640 C   0  0  0  0  0  0  0  0  0  0  0  0
  -23.0060   -5.7810   21.3350 F   0  0  0  0  0  0  0  0  0  0  0  0
  -21.3310   -5.9850   25.8030 F   0  0  0  0  0  0  0  0  0  0  0  0
  -24.4110  -14.9470   20.8950 C   0  0  0  0  0  0  0  0  0  0  0  0
  -23.7520  -14.2870   21.8410 N   0  0  0  0  0  0  0  0  0  0  0  0
  -24.0250  -16.0440   20.4940 O   0  0  0  0  0  0  0  0  0  0  0  0
  -24.0840  -13.3950   22.1800 H   0  0  0  0  0  0  0  0  0  0  0  0
  -22.9090  -14.6780   22.2350 H   0  0  0  0  0  0  0  0  0  0  0  0
  -27.0850  -16.3460   19.7650 N   0  0  0  0  0  0  0  0  0  0  0  0
  -26.4280  -17.0760   20.0100 H   0  0  0  0  0  0  0  0  0  0  0  0
  -27.9080  -16.6930   19.2900 H   0  0  0  0  0  0  0  0  0  0  0  0
  -31.7830  -20.0480   16.3590 C   0  0  0  0  0  1  0  0  0  0  0  0
  -31.7990  -18.6420   16.9570 C   0  0  0  0  0  2  0  0  0  0  0  0
  2  4  1  0
  4 55  1  0
  4  1  1  0
  5  3  1  0
  5  1  1  0
  6  2  1  0
  6  7  1  0
  6  3  1  0
  7  8  1  1
  7  5  1  0
  9  7  1  0
 10  9  1  0
 11 10  1  0
 12 11  1  0
 13 12  1  0
 13 14  1  0
 14 16  1  0
 15 26  2  0
 16 21  1  0
 17 25  1  0
 17 27  1  0
 18 20  1  0
 18 24  1  0
 19 25  1  0
 20 19  1  0
 21 20  2  0
 22 16  2  0
 22 23  1  0
 23 18  2  0
 24 17  1  0
 25 15  1  0
 27 29  2  0
 28 27  1  0
 30 28  1  0
 31 40  2  0
 31 36  1  0
 32 28  1  0
 32 36  1  0
 33 32  1  0
 34 35  1  0
 34 33  1  0
 35 31  1  0
 36 37  2  0
 37 38  1  0
 39 38  2  0
 40 39  1  0
 41 15  1  0
 41 42  1  0
 41 46  1  0
 42 45  1  1
 42 43  1  0
 44 42  1  0
 46 49  1  0
 47 46  1  0
 47 51  1  0
 48 47  2  0
 51 50  1  0
 51 53  1  0
 53 52  1  0
 53 54  1  0
 56 55  1  0
 57 56  2  0
 58 56  1  0
 59 99  1  0
 59 58  1  0
 59 68  1  0
 60 68  1  0
 60 66  1  0
 61 66  1  0
 62 63  1  0
 62 61  1  0
 64 63  1  0
 64 73  1  0
 64 65  1  0
 66 65  1  0
 67 60  2  0
 68 69  1  0
 70 71  2  0
 71 90  1  0
 72 71  1  0
 72 75  1  0
 73 74  1  0
 73 70  1  0
 74 72  2  0
 75 76  1  0
 76 77  2  0
 78 81  1  0
 78 77  1  0
 79 78  2  0
 80 79  1  0
 80 75  2  0
 81 82  1  0
 82 87  2  0
 82 83  1  0
 83 84  2  0
 84 85  1  0
 85 89  1  0
 86 85  2  0
 87 86  1  0
 88 87  1  0
 90 91  1  0
 91 93  1  0
 91 94  1  0
 92 90  2  0
 95 70  1  0
 95 96  1  0
 97 95  1  0
 98 99  1  0
M  ISO  4  13 101  14 101  60 100  68 100
M  END
>  <TORSDO>  (36) 
F 26

>  <SCORE>  (36) 
-6.279

>  <name>  (36) 
35

>  <ligand_id>  (36) 
35

>  <original_smiles>  (36) 
[H]c1c([H])c([H])c2c(c1[H])C([H])([H])C([H])([H])C([H])([H])C2([H])N([H])C(=O)C1([H])N(C(=O)C([H])(N([H])C(=O)C([H])(N([H])C([H])([H])[H])C([H])([H])[H])C(C([H])([H])[H])(C([H])([H])[H])C([H])([H])[H])C([H])([H])c2c([H])c(OC([H])([H])C([H])([H])C([H])([H])C([H])([H])C([H])([H])[N+]3([H])C4([H])C([H])([H])C([H])(C([H])([H])C(=O)C([H])([H])C([H])(N([H])C(=O)N5C([H])([H])C([H])([H])C([H])([H])C([H])(n6nc(-c7c([H])c([H])c(Oc8c([H])c([H])c(F)c([H])c8F)c([H])c7[H])c(C(=O)N([H])[H])c6N([H])[H])C5([H])[H])C([H])([H])C([H])([H])[H])C([H])([H])C3([H])C4([H])[H])c([H])c([H])c2C1([H])[H]

>  <smiles>  (36) 
[H]c1c([H])c([H])c2c(c1[H])C([H])([H])C([H])([H])C([H])([H])C2([H])N([H])C(=O)C1([H])N(C(=O)C([H])(N([H])C(=O)C([H])(N([H])C([H])([H])[H])C([H])([H])[H])C(C([H])([H])[H])(C([H])([H])[H])C([H])([H])[H])C([H])([H])c2c([H])c(OC([H])([H])C([H])([H])C([H])([H])C([H])([H])C([H])([H])[N+]3([H])C4([H])C([H])([H])C([H])(C([H])([H])C(=O)C([H])([H])C([H])(N([H])C(=O)N5C([H])([H])C([H])([H])C([H])([H])C([H])(n6nc(-c7c([H])c([H])c(Oc8c([H])c([H])c(F)c([H])c8F)c([H])c7[H])c(C(=O)N([H])[H])c6N([H])[H])C5([H])[H])C([H])([H])C([H])([H])[H])C([H])([H])C3([H])C4([H])[H])c([H])c([H])c2C1([H])[H]

$$$$
36:0:0
     RDKit          3D

 90 99  0  0  1  0  0  0  0  0999 V2000
  -30.2180  -18.8910   19.6510 C   0  0  0  0  0  0  0  0  0  0  0  0
  -26.9910  -19.5090   18.9610 C   0  0  0  0  0  2  0  0  0  0  0  0
  -28.2490  -19.7330   18.1300 C   0  0  0  0  0  2  0  0  0  0  0  0
  -28.3190  -17.6990   20.4030 C   0  0  0  0  0  2  0  0  0  0  0  0
  -29.6640  -17.3370   19.6830 C   0  0  0  0  0  3  0  0  0  0  0  0
  -27.9160  -19.1970   20.1390 C   0  0  0  0  0  3  0  0  0  0  0  0
  -29.0460  -19.9880   19.4340 C   0  0  1  0  0  0  0  0  0  0  0  0
  -31.4130  -19.1410   19.8180 O   0  0  0  0  0  0  0  0  0  0  0  0
  -30.9580  -14.8860   20.0750 C   0  0  0  0  0  0  0  0  0  0  0  0
  -30.7310  -12.4620   19.3760 C   0  0  0  0  0  2  0  0  0  0  0  0
  -29.8240  -12.3260   18.1340 C   0  0  0  0  0  2  0  0  0  0  0  0
  -28.3500  -12.2110   18.5570 C   0  0  0  0  0  2  0  0  0  0  0  0
  -27.9580  -13.2660   19.6250 C   0  0  0  0  0  3  0  0  0  0  0  0
  -28.9940  -13.3740   20.7650 C   0  0  0  0  0  2  0  0  0  0  0  0
  -30.2890  -13.6660   20.1420 N   0  0  0  0  0  0  0  0  0  0  0  0
  -32.1390  -14.8520   19.7170 O   0  0  0  0  0  0  0  0  0  0  0  0
  -30.3770  -16.1330   20.4170 N   0  0  0  0  0  0  0  0  0  0  0  0
  -31.0790  -16.5800   20.9910 H   0  0  0  0  0  0  0  0  0  0  0  0
  -25.6280  -14.0030   20.3760 C   0  0  0  0  0  0  0  0  0  0  0  0
  -24.5140  -13.3040   20.7460 C   0  0  0  0  0  0  0  0  0  0  0  0
  -24.8820  -11.9230   20.7050 C   0  0  0  0  0  0  0  0  0  0  0  0
  -26.6070  -13.0560   20.1290 N   0  0  0  0  0  0  0  0  0  0  0  0
  -26.1670  -11.7980   20.3910 N   0  0  0  0  0  0  0  0  0  0  0  0
  -24.0680  -10.7150   20.8900 C   0  0  0  0  0  0  0  0  0  0  0  0
  -24.4570   -9.6880   21.7780 C   0  0  0  0  0  3  0  0  0  0  0  0
  -23.6450   -8.5470   21.9540 C   0  0  0  0  0  3  0  0  0  0  0  0
  -22.4280   -8.4240   21.2410 C   0  0  0  0  0  0  0  0  0  0  0  0
  -22.0570   -9.4390   20.3410 C   0  0  0  0  0  3  0  0  0  0  0  0
  -22.8690  -10.5710   20.1630 C   0  0  0  0  0  3  0  0  0  0  0  0
  -21.5900   -7.3400   21.3280 O   0  0  0  0  0  0  0  0  0  0  0  0
  -21.5810   -6.5230   22.4300 C   0  0  0  0  0  0  0  0  0  0  0  0
  -21.2960   -7.0170   23.7220 C   0  0  0  0  0  3  0  0  0  0  0  0
  -21.2280   -6.1320   24.8160 C   0  0  0  0  0  3  0  0  0  0  0  0
  -21.4370   -4.7530   24.6200 C   0  0  0  0  0  0  0  0  0  0  0  0
  -21.7160   -4.2590   23.3340 C   0  0  0  0  0  3  0  0  0  0  0  0
  -21.7850   -5.1420   22.2420 C   0  0  0  0  0  0  0  0  0  0  0  0
  -22.0330   -4.6560   21.0010 F   0  0  0  0  0  0  0  0  0  0  0  0
  -21.3650   -3.9010   25.6690 F   0  0  0  0  0  0  0  0  0  0  0  0
  -23.1550  -13.8770   21.0210 C   0  0  0  0  0  0  0  0  0  0  0  0
  -22.3880  -13.2390   21.8970 N   0  0  0  0  0  0  0  0  0  0  0  0
  -22.7860  -14.9270   20.4960 O   0  0  0  0  0  0  0  0  0  0  0  0
  -22.7010  -12.3880   22.3410 H   0  0  0  0  0  0  0  0  0  0  0  0
  -21.4760  -13.6050   22.1260 H   0  0  0  0  0  0  0  0  0  0  0  0
  -25.8870  -15.3590   20.2020 N   0  0  0  0  0  0  0  0  0  0  0  0
  -25.1700  -16.0670   20.3150 H   0  0  0  0  0  0  0  0  0  0  0  0
  -26.7670  -15.7300   19.8700 H   0  0  0  0  0  0  0  0  0  0  0  0
  -29.3130  -21.6570   19.6320 C   0  0  0  0  0  2  0  0  0  0  0  0
  -28.1470  -22.8840   19.7560 C   0  0  0  0  0  2  0  0  0  0  0  0
  -28.2720  -24.5490   19.3780 C   0  0  0  0  0  2  0  0  0  0  0  0
  -28.2220  -26.0390   19.8710 O   0  0  0  0  0  0  0  0  0  0  0  0
  -24.5250  -31.5720   22.9900 C   0  0  0  0  0  0  0  0  0  0  0  0
  -27.1370  -26.9880   19.7980 C   0  0  0  0  0  0  0  0  0  0  0  0
  -23.3340  -30.2210   21.3060 C   0  0  0  0  0  3  0  0  0  0  0  0
  -24.7920  -28.7050   19.8220 C   0  0  0  0  0  0  0  0  0  0  0  0
  -25.8820  -30.5170   21.1440 C   0  0  0  0  0  2  0  0  0  0  0  0
  -25.9650  -29.1470   20.4460 C   0  0  0  0  0  0  0  0  0  0  0  0
  -27.1350  -28.3020   20.4180 C   0  0  0  0  0  3  0  0  0  0  0  0
  -25.9410  -26.6430   19.1350 C   0  0  0  0  0  3  0  0  0  0  0  0
  -24.7920  -27.4680   19.1520 C   0  0  0  0  0  3  0  0  0  0  0  0
  -23.5560  -29.5890   19.9040 C   0  0  0  0  0  2  0  0  0  0  0  0
  -24.6000  -30.7920   21.8690 N   0  0  0  0  0  0  0  0  0  0  0  0
  -23.4380  -31.8290   23.5290 O   0  0  0  0  0  0  0  0  0  0  0  0
  -22.6670  -29.1780   22.2360 C   0  0  0  0  0  0  0  0  0  0  0  0
  -21.3300  -29.0480   22.1520 N   0  0  0  0  0  0  0  0  0  0  0  0
  -23.3530  -28.4910   22.9980 O   0  0  0  0  0  0  0  0  0  0  0  0
  -20.8340  -29.6570   21.5180 H   0  0  0  0  0  0  0  0  0  0  0  0
  -17.9370  -27.9340   22.7520 C   0  0  0  0  0  0  0  0  0  0  0  0
  -20.5140  -28.0870   22.9000 C   0  0  0  0  0  3  0  0  0  0  0  0
  -20.5300  -26.6960   22.2250 C   0  0  0  0  0  2  0  0  0  0  0  0
  -19.3680  -26.4860   21.2500 C   0  0  0  0  0  2  0  0  0  0  0  0
  -18.0270  -26.6330   21.9740 C   0  0  0  0  0  2  0  0  0  0  0  0
  -19.1050  -28.6260   23.1730 C   0  0  0  0  0  0  0  0  0  0  0  0
  -18.9640  -29.8480   23.8650 C   0  0  0  0  0  3  0  0  0  0  0  0
  -17.6890  -30.3790   24.1370 C   0  0  0  0  0  3  0  0  0  0  0  0
  -16.5370  -29.6830   23.7310 C   0  0  0  0  0  3  0  0  0  0  0  0
  -16.6620  -28.4620   23.0440 C   0  0  0  0  0  3  0  0  0  0  0  0
  -25.7980  -32.1990   23.6370 C   0  0  0  0  0  3  0  0  0  0  0  0
  -26.3170  -31.3920   24.8910 C   0  0  1  0  0  0  0  0  0  0  0  0
  -25.2250  -31.1180   25.9520 C   0  0  0  0  0  1  0  0  0  0  0  0
  -26.9060  -30.0290   24.4620 C   0  0  0  0  0  1  0  0  0  0  0  0
  -27.4640  -32.1710   25.5770 C   0  0  0  0  0  1  0  0  0  0  0  0
  -25.4730  -33.5820   24.0190 N   0  0  0  0  0  0  0  0  0  0  0  0
  -25.8190  -34.6710   23.3180 C   0  0  0  0  0  0  0  0  0  0  0  0
  -26.5110  -34.6150   22.2970 O   0  0  0  0  0  0  0  0  0  0  0  0
  -24.8590  -33.6990   24.8120 H   0  0  0  0  0  0  0  0  0  0  0  0
  -24.0980  -36.4820   23.0070 C   0  0  0  0  0  1  0  0  0  0  0  0
  -25.3200  -36.0380   23.8270 C   0  0  0  0  0  3  0  0  0  0  0  0
  -27.4280  -36.8930   24.7570 C   0  0  0  0  0  1  0  0  0  0  0  0
  -26.3550  -37.0960   23.7860 N   0  0  0  0  0  0  0  0  0  0  0  0
  -25.9440  -38.0100   23.9520 H   0  0  0  0  0  0  0  0  0  0  0  0
  1  5  1  0
  1  8  2  0
  3  2  1  0
  3  7  1  0
  5  4  1  0
  5 17  1  0
  6  2  1  0
  6  4  1  0
  7 47  1  1
  7  1  1  0
  7  6  1  0
  9 15  1  0
  9 17  1  0
 10 15  1  0
 11 12  1  0
 11 10  1  0
 13 12  1  0
 13 22  1  0
 13 14  1  0
 15 14  1  0
 16  9  2  0
 17 18  1  0
 19 20  2  0
 20 39  1  0
 21 20  1  0
 21 24  1  0
 22 19  1  0
 22 23  1  0
 23 21  2  0
 24 25  1  0
 25 26  2  0
 27 30  1  0
 27 26  1  0
 28 27  2  0
 29 28  1  0
 29 24  2  0
 30 31  1  0
 31 32  1  0
 32 33  2  0
 34 33  1  0
 34 38  1  0
 35 34  2  0
 36 31  2  0
 36 35  1  0
 37 36  1  0
 39 40  1  0
 40 43  1  0
 40 42  1  0
 41 39  2  0
 44 45  1  0
 44 19  1  0
 46 44  1  0
 47 48  1  0
 49 48  1  0
 49 50  1  0
 51 62  2  0
 52 50  1  0
 52 57  1  0
 53 61  1  0
 53 63  1  0
 54 60  1  0
 54 56  1  0
 55 61  1  0
 56 55  1  0
 57 56  2  0
 58 59  1  0
 58 52  2  0
 59 54  2  0
 60 53  1  0
 61 51  1  0
 63 65  2  0
 64 63  1  0
 66 64  1  0
 67 76  2  0
 67 72  1  0
 68 64  1  0
 68 72  1  0
 69 68  1  0
 70 71  1  0
 70 69  1  0
 71 67  1  0
 72 73  2  0
 73 74  1  0
 75 74  2  0
 76 75  1  0
 77 51  1  0
 77 82  1  0
 77 78  1  0
 78 81  1  1
 78 79  1  0
 80 78  1  0
 82 85  1  0
 83 87  1  0
 83 82  1  0
 84 83  2  0
 87 86  1  0
 89 87  1  0
 89 90  1  0
 89 88  1  0
M  ISO  4   9 100  17 100  49 101  50 101
M  END
>  <TORSDO>  (37) 
F 19

>  <SCORE>  (37) 
-15.100

>  <name>  (37) 
36

>  <ligand_id>  (37) 
36

>  <original_smiles>  (37) 
[H]c1c([H])c([H])c2c(c1[H])C([H])([H])C([H])([H])C([H])([H])C2([H])N([H])C(=O)C1([H])N(C(=O)C([H])(N([H])C(=O)C([H])(N([H])C([H])([H])[H])C([H])([H])[H])C(C([H])([H])[H])(C([H])([H])[H])C([H])([H])[H])C([H])([H])c2c([H])c(OC([H])([H])C([H])([H])C([H])([H])C34C(=O)C([H])(N([H])C(=O)N5C([H])([H])C([H])([H])C([H])([H])C([H])(n6nc(-c7c([H])c([H])c(Oc8c([H])c([H])c(F)c([H])c8F)c([H])c7[H])c(C(=O)N([H])[H])c6N([H])[H])C5([H])[H])C([H])([H])C3([H])C([H])([H])C4([H])[H])c([H])c([H])c2C1([H])[H]

>  <smiles>  (37) 
[H]c1c([H])c([H])c2c(c1[H])C([H])([H])C([H])([H])C([H])([H])C2([H])N([H])C(=O)C1([H])N(C(=O)C([H])(N([H])C(=O)C([H])(N([H])C([H])([H])[H])C([H])([H])[H])C(C([H])([H])[H])(C([H])([H])[H])C([H])([H])[H])C([H])([H])c2c([H])c(OC([H])([H])C([H])([H])C([H])([H])C34C(=O)C([H])(N([H])C(=O)N5C([H])([H])C([H])([H])C([H])([H])C([H])(n6nc(-c7c([H])c([H])c(Oc8c([H])c([H])c(F)c([H])c8F)c([H])c7[H])c(C(=O)N([H])[H])c6N([H])[H])C5([H])[H])C([H])([H])C3([H])C([H])([H])C4([H])[H])c([H])c([H])c2C1([H])[H]

$$$$
37:0:0
     RDKit          3D

101109  0  0  1  0  0  0  0  0999 V2000
  -29.8830  -21.0740   18.2650 C   0  0  0  0  0  2  0  0  0  0  0  0
  -31.5770  -19.6130   19.4660 C   0  0  0  0  0  3  0  0  0  0  0  0
  -29.2250  -18.9870   19.5710 C   0  0  0  0  0  3  0  0  0  0  0  0
  -31.9100  -18.4770   20.2300 C   0  0  0  0  0  3  0  0  0  0  0  0
  -29.5600  -17.8470   20.3290 C   0  0  0  0  0  3  0  0  0  0  0  0
  -30.2330  -19.8720   19.1300 C   0  0  0  0  0  0  0  0  0  0  0  0
  -30.9070  -17.5830   20.6650 C   0  0  0  0  0  0  0  0  0  0  0  0
  -31.2940  -16.3580   21.4930 C   0  0  0  0  0  3  0  0  0  0  0  0
  -31.0080  -14.2680   20.1720 C   0  0  0  0  0  0  0  0  0  0  0  0
  -30.5140  -12.1900   18.9420 C   0  0  0  0  0  2  0  0  0  0  0  0
  -29.5500  -12.4500   17.7690 C   0  0  0  0  0  2  0  0  0  0  0  0
  -28.0860  -12.3850   18.2400 C   0  0  0  0  0  2  0  0  0  0  0  0
  -27.8280  -13.2340   19.5130 C   0  0  0  0  0  3  0  0  0  0  0  0
  -28.8960  -12.9440   20.5920 C   0  0  0  0  0  2  0  0  0  0  0  0
  -30.2260  -13.1720   19.9970 N   0  0  0  0  0  0  0  0  0  0  0  0
  -32.0530  -14.4590   19.5440 O   0  0  0  0  0  0  0  0  0  0  0  0
  -30.5770  -15.1410   21.0910 N   0  0  0  0  0  0  0  0  0  0  0  0
  -29.6720  -14.9580   21.4970 H   0  0  0  0  0  0  0  0  0  0  0  0
  -25.4740  -13.9600   20.2600 C   0  0  0  0  0  0  0  0  0  0  0  0
  -24.3810  -13.2420   20.6640 C   0  0  0  0  0  0  0  0  0  0  0  0
  -24.7800  -11.8700   20.6440 C   0  0  0  0  0  0  0  0  0  0  0  0
  -26.4740  -13.0300   20.0240 N   0  0  0  0  0  0  0  0  0  0  0  0
  -26.0600  -11.7680   20.3110 N   0  0  0  0  0  0  0  0  0  0  0  0
  -24.0040  -10.6440   20.8700 C   0  0  0  0  0  0  0  0  0  0  0  0
  -24.4130   -9.6720   21.8090 C   0  0  0  0  0  3  0  0  0  0  0  0
  -23.6390   -8.5110   22.0210 C   0  0  0  0  0  3  0  0  0  0  0  0
  -22.4430   -8.3120   21.2930 C   0  0  0  0  0  0  0  0  0  0  0  0
  -22.0530   -9.2720   20.3420 C   0  0  0  0  0  3  0  0  0  0  0  0
  -22.8250  -10.4250   20.1290 C   0  0  0  0  0  3  0  0  0  0  0  0
  -21.6420   -7.2020   21.4130 O   0  0  0  0  0  0  0  0  0  0  0  0
  -21.5760   -6.4860   22.5810 C   0  0  0  0  0  0  0  0  0  0  0  0
  -21.2100   -7.0870   23.8040 C   0  0  0  0  0  3  0  0  0  0  0  0
  -21.0860   -6.2990   24.9660 C   0  0  0  0  0  3  0  0  0  0  0  0
  -21.3210   -4.9130   24.9070 C   0  0  0  0  0  0  0  0  0  0  0  0
  -21.6800   -4.3110   23.6880 C   0  0  0  0  0  3  0  0  0  0  0  0
  -21.8040   -5.0960   22.5270 C   0  0  0  0  0  0  0  0  0  0  0  0
  -22.1310   -4.5080   21.3510 F   0  0  0  0  0  0  0  0  0  0  0  0
  -21.1950   -4.1540   26.0210 F   0  0  0  0  0  0  0  0  0  0  0  0
  -23.0120  -13.7830   20.9600 C   0  0  0  0  0  0  0  0  0  0  0  0
  -22.2790  -13.1390   21.8610 N   0  0  0  0  0  0  0  0  0  0  0  0
  -22.6040  -14.8140   20.4260 O   0  0  0  0  0  0  0  0  0  0  0  0
  -22.6230  -12.3060   22.3140 H   0  0  0  0  0  0  0  0  0  0  0  0
  -21.3600  -13.4860   22.1010 H   0  0  0  0  0  0  0  0  0  0  0  0
  -25.6960  -15.3190   20.0560 N   0  0  0  0  0  0  0  0  0  0  0  0
  -24.9630  -16.0090   20.1650 H   0  0  0  0  0  0  0  0  0  0  0  0
  -26.5540  -15.7070   19.6860 H   0  0  0  0  0  0  0  0  0  0  0  0
  -31.1340  -16.6240   23.0040 C   0  0  0  0  0  2  0  0  0  0  0  0
  -31.5910  -15.4930   23.8320 N   0  0  0  0  0  4  0  0  0  0  0  0
  -31.0450  -14.6690   23.6590 H   0  0  0  0  0  0  0  0  0  0  0  0
  -31.5040  -15.7280   24.8040 H   0  0  0  0  0  0  0  0  0  0  0  0
  -32.5550  -15.2880   23.6450 H   0  0  0  0  0  0  0  0  0  0  0  0
  -29.9670  -22.4240   19.0110 C   0  0  0  0  0  2  0  0  0  0  0  0
  -29.7300  -23.6130   18.0710 C   0  0  0  0  0  0  0  0  0  0  0  0
  -30.5640  -24.6580   18.1720 N   0  0  0  0  0  0  0  0  0  0  0  0
  -28.8180  -23.5750   17.2420 O   0  0  0  0  0  0  0  0  0  0  0  0
  -31.2920  -24.6080   18.8730 H   0  0  0  0  0  0  0  0  0  0  0  0
  -30.6160  -25.7900   17.2460 C   0  0  0  0  0  2  0  0  0  0  0  0
  -29.5300  -26.8580   17.4990 C   0  0  0  0  0  2  0  0  0  0  0  0
  -29.8240  -27.8570   18.6400 C   0  0  0  0  0  2  0  0  0  0  0  0
  -29.6920  -27.2830   20.0620 C   0  0  0  0  0  2  0  0  0  0  0  0
  -28.4250  -26.6600   20.2290 O   0  0  0  0  0  0  0  0  0  0  0  0
  -24.5810  -31.8930   23.2180 C   0  0  0  0  0  0  0  0  0  0  0  0
  -27.2940  -27.4430   20.2420 C   0  0  0  0  0  0  0  0  0  0  0  0
  -23.3980  -30.4570   21.5850 C   0  0  0  0  0  3  0  0  0  0  0  0
  -24.8770  -28.9050   20.2040 C   0  0  0  0  0  0  0  0  0  0  0  0
  -25.9180  -30.8350   21.4050 C   0  0  0  0  0  2  0  0  0  0  0  0
  -26.0210  -29.4570   20.7940 C   0  0  0  0  0  0  0  0  0  0  0  0
  -27.2320  -28.7350   20.8150 C   0  0  0  0  0  3  0  0  0  0  0  0
  -26.1300  -26.8910   19.6700 C   0  0  0  0  0  3  0  0  0  0  0  0
  -24.9230  -27.6170   19.6400 C   0  0  0  0  0  3  0  0  0  0  0  0
  -23.6270  -29.7540   20.2190 C   0  0  0  0  0  2  0  0  0  0  0  0
  -24.6500  -31.0780   22.1280 N   0  0  0  0  0  0  0  0  0  0  0  0
  -23.4940  -32.1670   23.7440 O   0  0  0  0  0  0  0  0  0  0  0  0
  -22.7450  -29.4490   22.5560 C   0  0  0  0  0  0  0  0  0  0  0  0
  -21.4230  -29.2550   22.4170 N   0  0  0  0  0  0  0  0  0  0  0  0
  -23.4230  -28.8430   23.3900 O   0  0  0  0  0  0  0  0  0  0  0  0
  -20.9360  -29.7930   21.7130 H   0  0  0  0  0  0  0  0  0  0  0  0
  -18.0530  -28.0450   22.8920 C   0  0  0  0  0  0  0  0  0  0  0  0
  -20.6040  -28.3280   23.1970 C   0  0  0  0  0  3  0  0  0  0  0  0
  -20.7270  -26.8860   22.6520 C   0  0  0  0  0  2  0  0  0  0  0  0
  -19.6420  -26.5340   21.6290 C   0  0  0  0  0  2  0  0  0  0  0  0
  -18.2490  -26.6840   22.2470 C   0  0  0  0  0  2  0  0  0  0  0  0
  -19.1590  -28.8240   23.3240 C   0  0  0  0  0  0  0  0  0  0  0  0
  -18.9230  -30.0990   23.8840 C   0  0  0  0  0  3  0  0  0  0  0  0
  -17.6120  -30.5940   24.0180 C   0  0  0  0  0  3  0  0  0  0  0  0
  -16.5200  -29.8120   23.6040 C   0  0  0  0  0  3  0  0  0  0  0  0
  -16.7420  -28.5390   23.0470 C   0  0  0  0  0  3  0  0  0  0  0  0
  -25.8600  -32.5390   23.8390 C   0  0  0  0  0  3  0  0  0  0  0  0
  -26.3920  -31.7680   25.1080 C   0  0  1  0  0  0  0  0  0  0  0  0
  -25.3050  -31.5020   26.1740 C   0  0  0  0  0  1  0  0  0  0  0  0
  -27.0000  -30.4050   24.7050 C   0  0  0  0  0  1  0  0  0  0  0  0
  -27.5310  -32.5760   25.7740 C   0  0  0  0  0  1  0  0  0  0  0  0
  -25.5340  -33.9310   24.1720 N   0  0  0  0  0  0  0  0  0  0  0  0
  -25.8530  -34.9900   23.4150 C   0  0  0  0  0  0  0  0  0  0  0  0
  -26.5280  -34.8970   22.3860 O   0  0  0  0  0  0  0  0  0  0  0  0
  -24.9390  -34.0760   24.9760 H   0  0  0  0  0  0  0  0  0  0  0  0
  -24.1020  -36.7550   23.0490 C   0  0  0  0  0  1  0  0  0  0  0  0
  -25.3420  -36.3700   23.8700 C   0  0  0  0  0  3  0  0  0  0  0  0
  -27.4630  -37.2780   24.7110 C   0  0  0  0  0  1  0  0  0  0  0  0
  -26.3620  -37.4370   23.7650 N   0  0  0  0  0  0  0  0  0  0  0  0
  -25.9430  -38.3500   23.9200 H   0  0  0  0  0  0  0  0  0  0  0  0
  1 52  1  0
  1  6  1  0
  2  4  1  0
  3  5  2  0
  4  7  2  0
  5  7  1  0
  6  2  2  0
  6  3  1  0
  7  8  1  0
  8 47  1  0
  9 17  1  0
 10 15  1  0
 11 12  1  0
 11 10  1  0
 13 12  1  0
 13 22  1  0
 13 14  1  0
 15  9  1  0
 15 14  1  0
 16  9  2  0
 17  8  1  0
 17 18  1  0
 19 20  2  0
 20 39  1  0
 21 20  1  0
 21 24  1  0
 22 19  1  0
 22 23  1  0
 23 21  2  0
 24 25  1  0
 25 26  2  0
 27 30  1  0
 27 26  1  0
 28 27  2  0
 29 28  1  0
 29 24  2  0
 30 31  1  0
 31 32  1  0
 32 33  2  0
 34 33  1  0
 34 38  1  0
 35 34  2  0
 36 31  2  0
 36 35  1  0
 37 36  1  0
 39 40  1  0
 40 43  1  0
 40 42  1  0
 41 39  2  0
 44 45  1  0
 44 19  1  0
 46 44  1  0
 47 48  1  0
 48 50  1  0
 49 48  1  0
 51 48  1  0
 53 54  1  0
 53 52  1  0
 54 56  1  0
 55 53  2  0
 57 58  1  0
 57 54  1  0
 58 59  1  0
 59 60  1  0
 60 61  1  0
 61 63  1  0
 62 73  2  0
 63 68  1  0
 64 72  1  0
 64 74  1  0
 65 71  1  0
 65 67  1  0
 66 72  1  0
 67 68  2  0
 67 66  1  0
 69 63  2  0
 70 69  1  0
 70 65  2  0
 71 64  1  0
 72 62  1  0
 74 76  2  0
 75 74  1  0
 77 75  1  0
 78 87  2  0
 78 83  1  0
 79 75  1  0
 79 83  1  0
 80 79  1  0
 81 82  1  0
 81 80  1  0
 82 78  1  0
 83 84  2  0
 84 85  1  0
 86 85  2  0
 87 86  1  0
 88 62  1  0
 88 93  1  0
 88 89  1  0
 89 92  1  1
 89 90  1  0
 91 89  1  0
 93 96  1  0
 94 98  1  0
 94 93  1  0
 95 94  2  0
 98 97  1  0
100 98  1  0
100101  1  0
100 99  1  0
M  ISO  4   9 100  17 100  60 101  61 101
M  END
>  <TORSDO>  (38) 
F 26

>  <SCORE>  (38) 
-9.486

>  <name>  (38) 
37

>  <ligand_id>  (38) 
37

>  <original_smiles>  (38) 
[H]c1c([H])c([H])c2c(c1[H])C([H])([H])C([H])([H])C([H])([H])C2([H])N([H])C(=O)C1([H])N(C(=O)C([H])(N([H])C(=O)C([H])(N([H])C([H])([H])[H])C([H])([H])[H])C(C([H])([H])[H])(C([H])([H])[H])C([H])([H])[H])C([H])([H])c2c([H])c(OC([H])([H])C([H])([H])C([H])([H])C([H])([H])N([H])C(=O)C([H])([H])C([H])([H])c3c([H])c([H])c(C([H])(N([H])C(=O)N4C([H])([H])C([H])([H])C([H])([H])C([H])(n5nc(-c6c([H])c([H])c(Oc7c([H])c([H])c(F)c([H])c7F)c([H])c6[H])c(C(=O)N([H])[H])c5N([H])[H])C4([H])[H])C([H])([H])[N+]([H])([H])[H])c([H])c3[H])c([H])c([H])c2C1([H])[H]

>  <smiles>  (38) 
[H]c1c([H])c([H])c2c(c1[H])C([H])([H])C([H])([H])C([H])([H])C2([H])N([H])C(=O)C1([H])N(C(=O)C([H])(N([H])C(=O)C([H])(N([H])C([H])([H])[H])C([H])([H])[H])C(C([H])([H])[H])(C([H])([H])[H])C([H])([H])[H])C([H])([H])c2c([H])c(OC([H])([H])C([H])([H])C([H])([H])C([H])([H])N([H])C(=O)C([H])([H])C([H])([H])c3c([H])c([H])c(C([H])(N([H])C(=O)N4C([H])([H])C([H])([H])C([H])([H])C([H])(n5nc(-c6c([H])c([H])c(Oc7c([H])c([H])c(F)c([H])c7F)c([H])c6[H])c(C(=O)N([H])[H])c5N([H])[H])C4([H])[H])C([H])([H])[N+]([H])([H])[H])c([H])c3[H])c([H])c([H])c2C1([H])[H]

$$$$
38:0:0
     RDKit          3D

 98106  0  0  1  0  0  0  0  0999 V2000
  -28.0650  -21.0100   20.5760 C   0  0  0  0  0  3  0  0  0  0  0  0
  -30.4160  -21.6030   20.4040 C   0  0  0  0  0  3  0  0  0  0  0  0
  -28.4170  -19.7430   21.0720 C   0  0  0  0  0  3  0  0  0  0  0  0
  -30.7760  -20.3260   20.8840 C   0  0  0  0  0  3  0  0  0  0  0  0
  -29.0560  -21.9510   20.2180 C   0  0  0  0  0  0  0  0  0  0  0  0
  -29.7750  -19.3720   21.1750 C   0  0  0  0  0  0  0  0  0  0  0  0
  -28.7100  -23.2310   19.4510 C   0  0  0  0  0  2  0  0  0  0  0  0
  -27.7950  -24.3460   20.0620 C   0  0  0  0  0  3  0  0  0  0  0  0
  -25.3810  -23.4240   20.3120 C   0  0  0  0  0  1  0  0  0  0  0  0
  -26.6550  -23.9140   21.0210 C   0  0  0  0  0  2  0  0  0  0  0  0
  -28.5550  -25.5710   20.6510 C   0  0  0  0  0  2  0  0  0  0  0  0
  -28.3810  -26.8020   19.9230 O   0  0  0  0  0  0  0  0  0  0  0  0
  -24.5750  -31.8700   23.2290 C   0  0  0  0  0  0  0  0  0  0  0  0
  -27.1890  -27.4880   20.0350 C   0  0  0  0  0  0  0  0  0  0  0  0
  -23.3560  -30.5170   21.5570 C   0  0  0  0  0  3  0  0  0  0  0  0
  -24.7940  -29.0020   20.1060 C   0  0  0  0  0  0  0  0  0  0  0  0
  -25.8860  -30.8660   21.3610 C   0  0  0  0  0  2  0  0  0  0  0  0
  -25.9620  -29.5090   20.6950 C   0  0  0  0  0  0  0  0  0  0  0  0
  -27.1610  -28.7560   20.6590 C   0  0  0  0  0  3  0  0  0  0  0  0
  -26.0000  -27.0070   19.4390 C   0  0  0  0  0  3  0  0  0  0  0  0
  -24.8070  -27.7450   19.4860 C   0  0  0  0  0  3  0  0  0  0  0  0
  -23.5590  -29.8670   20.1670 C   0  0  0  0  0  2  0  0  0  0  0  0
  -24.6250  -31.0960   22.1070 N   0  0  0  0  0  0  0  0  0  0  0  0
  -23.4980  -32.1270   23.7840 O   0  0  0  0  0  0  0  0  0  0  0  0
  -22.7100  -29.4730   22.4990 C   0  0  0  0  0  0  0  0  0  0  0  0
  -21.3850  -29.2850   22.3740 N   0  0  0  0  0  0  0  0  0  0  0  0
  -23.3990  -28.8370   23.2980 O   0  0  0  0  0  0  0  0  0  0  0  0
  -20.8880  -29.8330   21.6860 H   0  0  0  0  0  0  0  0  0  0  0  0
  -18.0260  -28.0590   22.8500 C   0  0  0  0  0  0  0  0  0  0  0  0
  -20.5820  -28.3290   23.1340 C   0  0  0  0  0  3  0  0  0  0  0  0
  -20.6960  -26.9100   22.5290 C   0  0  0  0  0  2  0  0  0  0  0  0
  -19.6030  -26.6130   21.4970 C   0  0  0  0  0  2  0  0  0  0  0  0
  -18.2180  -26.7240   22.1460 C   0  0  0  0  0  2  0  0  0  0  0  0
  -19.1360  -28.8170   23.3030 C   0  0  0  0  0  0  0  0  0  0  0  0
  -18.9080  -30.0670   23.9210 C   0  0  0  0  0  3  0  0  0  0  0  0
  -17.5980  -30.5540   24.0890 C   0  0  0  0  0  3  0  0  0  0  0  0
  -16.4990  -29.7930   23.6510 C   0  0  0  0  0  3  0  0  0  0  0  0
  -16.7150  -28.5480   23.0350 C   0  0  0  0  0  3  0  0  0  0  0  0
  -25.8660  -32.4860   23.8510 C   0  0  0  0  0  3  0  0  0  0  0  0
  -26.3870  -31.6920   25.1130 C   0  0  1  0  0  0  0  0  0  0  0  0
  -25.3030  -31.4380   26.1860 C   0  0  0  0  0  1  0  0  0  0  0  0
  -26.9640  -30.3210   24.6910 C   0  0  0  0  0  1  0  0  0  0  0  0
  -27.5430  -32.4690   25.7800 C   0  0  0  0  0  1  0  0  0  0  0  0
  -25.5640  -33.8800   24.2020 N   0  0  0  0  0  0  0  0  0  0  0  0
  -25.9080  -34.9410   23.4600 C   0  0  0  0  0  0  0  0  0  0  0  0
  -26.5800  -34.8480   22.4290 O   0  0  0  0  0  0  0  0  0  0  0  0
  -24.9700  -34.0230   25.0050 H   0  0  0  0  0  0  0  0  0  0  0  0
  -24.2010  -36.7560   23.1200 C   0  0  0  0  0  1  0  0  0  0  0  0
  -25.4290  -36.3250   23.9370 C   0  0  0  0  0  3  0  0  0  0  0  0
  -27.5590  -37.1760   24.8140 C   0  0  0  0  0  1  0  0  0  0  0  0
  -26.4720  -37.3710   23.8570 N   0  0  0  0  0  0  0  0  0  0  0  0
  -26.0700  -38.2900   24.0190 H   0  0  0  0  0  0  0  0  0  0  0  0
  -30.1350  -17.9320   21.5230 C   0  0  0  0  0  2  0  0  0  0  0  0
  -30.6450  -17.0700   20.3330 C   0  0  0  0  0  3  0  0  0  0  0  0
  -30.9910  -14.6070   20.0780 C   0  0  0  0  0  0  0  0  0  0  0  0
  -30.6210  -12.4530   18.9570 C   0  0  0  0  0  2  0  0  0  0  0  0
  -29.6590  -12.7000   17.7790 C   0  0  0  0  0  2  0  0  0  0  0  0
  -28.1920  -12.5780   18.2400 C   0  0  0  0  0  2  0  0  0  0  0  0
  -27.8990  -13.4010   19.5220 C   0  0  0  0  0  3  0  0  0  0  0  0
  -28.9830  -13.1710   20.6000 C   0  0  0  0  0  2  0  0  0  0  0  0
  -30.2970  -13.4410   19.9940 N   0  0  0  0  0  0  0  0  0  0  0  0
  -32.1120  -14.7640   19.5910 O   0  0  0  0  0  0  0  0  0  0  0  0
  -30.2840  -15.6540   20.5230 N   0  0  0  0  0  0  0  0  0  0  0  0
  -29.3750  -15.4430   20.9050 H   0  0  0  0  0  0  0  0  0  0  0  0
  -25.5240  -14.0340   20.2860 C   0  0  0  0  0  0  0  0  0  0  0  0
  -24.4580  -13.2710   20.6830 C   0  0  0  0  0  0  0  0  0  0  0  0
  -24.9070  -11.9170   20.6430 C   0  0  0  0  0  0  0  0  0  0  0  0
  -26.5550  -13.1420   20.0320 N   0  0  0  0  0  0  0  0  0  0  0  0
  -26.1880  -11.8650   20.3050 N   0  0  0  0  0  0  0  0  0  0  0  0
  -24.1780  -10.6600   20.8580 C   0  0  0  0  0  0  0  0  0  0  0  0
  -24.5890   -9.7220   21.8300 C   0  0  0  0  0  3  0  0  0  0  0  0
  -23.8590   -8.5310   22.0270 C   0  0  0  0  0  3  0  0  0  0  0  0
  -22.7060   -8.2680   21.2500 C   0  0  0  0  0  0  0  0  0  0  0  0
  -22.3150   -9.1940   20.2680 C   0  0  0  0  0  3  0  0  0  0  0  0
  -23.0460  -10.3760   20.0680 C   0  0  0  0  0  3  0  0  0  0  0  0
  -21.9470   -7.1250   21.3580 O   0  0  0  0  0  0  0  0  0  0  0  0
  -21.8200   -6.4540   22.5450 C   0  0  0  0  0  0  0  0  0  0  0  0
  -21.3000   -7.0770   23.7010 C   0  0  0  0  0  3  0  0  0  0  0  0
  -21.1160   -6.3320   24.8810 C   0  0  0  0  0  3  0  0  0  0  0  0
  -21.4470   -4.9640   24.9100 C   0  0  0  0  0  0  0  0  0  0  0  0
  -21.9630   -4.3400   23.7590 C   0  0  0  0  0  3  0  0  0  0  0  0
  -22.1450   -5.0830   22.5790 C   0  0  0  0  0  0  0  0  0  0  0  0
  -22.6210   -4.4720   21.4680 F   0  0  0  0  0  0  0  0  0  0  0  0
  -21.2650   -4.2440   26.0410 F   0  0  0  0  0  0  0  0  0  0  0  0
  -23.0730  -13.7620   20.9880 C   0  0  0  0  0  0  0  0  0  0  0  0
  -22.3640  -13.0760   21.8750 N   0  0  0  0  0  0  0  0  0  0  0  0
  -22.6290  -14.7900   20.4780 O   0  0  0  0  0  0  0  0  0  0  0  0
  -22.7410  -12.2460   22.3100 H   0  0  0  0  0  0  0  0  0  0  0  0
  -21.4340  -13.3800   22.1200 H   0  0  0  0  0  0  0  0  0  0  0  0
  -25.7070  -15.4010   20.1070 N   0  0  0  0  0  0  0  0  0  0  0  0
  -24.9880  -16.0840   20.3170 H   0  0  0  0  0  0  0  0  0  0  0  0
  -26.5780  -15.8210   19.8190 H   0  0  0  0  0  0  0  0  0  0  0  0
  -30.2850  -17.5820   18.9020 C   0  0  0  0  0  2  0  0  0  0  0  0
  -28.7910  -17.5660   18.5120 C   0  0  0  0  0  2  0  0  0  0  0  0
  -28.5400  -18.2020   17.2030 N   0  0  0  0  0  4  0  0  0  0  0  0
  -28.9710  -19.1100   17.1550 H   0  0  0  0  0  0  0  0  0  0  0  0
  -27.5530  -18.3170   17.0620 H   0  0  0  0  0  0  0  0  0  0  0  0
  -28.8940  -17.6390   16.4490 H   0  0  0  0  0  0  0  0  0  0  0  0
  1  3  1  0
  2  4  2  0
  3  6  2  0
  4  6  1  0
  5  2  1  0
  5  1  2  0
  6 53  1  0
  7  5  1  0
  8  7  1  0
  8 11  1  0
  8 10  1  0
  9 10  1  0
 12 14  1  0
 12 11  1  0
 13 24  2  0
 14 19  1  0
 15 23  1  0
 15 25  1  0
 16 22  1  0
 16 18  1  0
 17 23  1  0
 18 17  1  0
 19 18  2  0
 20 21  1  0
 20 14  2  0
 21 16  2  0
 22 15  1  0
 23 13  1  0
 25 27  2  0
 26 25  1  0
 28 26  1  0
 29 38  2  0
 29 34  1  0
 30 26  1  0
 30 34  1  0
 31 30  1  0
 32 33  1  0
 32 31  1  0
 33 29  1  0
 34 35  2  0
 35 36  1  0
 37 36  2  0
 38 37  1  0
 39 13  1  0
 39 44  1  0
 39 40  1  0
 40 43  1  1
 40 41  1  0
 42 40  1  0
 44 47  1  0
 45 49  1  0
 45 44  1  0
 46 45  2  0
 49 48  1  0
 51 49  1  0
 51 52  1  0
 51 50  1  0
 54 93  1  0
 54 63  1  0
 54 53  1  0
 55 63  1  0
 56 61  1  0
 57 58  1  0
 57 56  1  0
 59 58  1  0
 59 68  1  0
 59 60  1  0
 61 55  1  0
 61 60  1  0
 62 55  2  0
 63 64  1  0
 65 66  2  0
 66 85  1  0
 67 66  1  0
 67 70  1  0
 68 65  1  0
 68 69  1  0
 69 67  2  0
 70 71  1  0
 71 72  2  0
 73 76  1  0
 73 72  1  0
 74 73  2  0
 75 74  1  0
 75 70  2  0
 76 77  1  0
 77 82  2  0
 77 78  1  0
 78 79  2  0
 79 80  1  0
 80 84  1  0
 81 80  2  0
 82 81  1  0
 83 82  1  0
 85 86  1  0
 86 89  1  0
 86 88  1  0
 87 85  2  0
 90 65  1  0
 90 91  1  0
 92 90  1  0
 94 93  1  0
 95 94  1  0
 96 95  1  0
 97 95  1  0
 98 95  1  0
M  ISO  4  11 101  12 101  55 100  63 100
M  END
>  <TORSDO>  (39) 
F 25

>  <SCORE>  (39) 
-12.028

>  <name>  (39) 
38

>  <ligand_id>  (39) 
38

>  <original_smiles>  (39) 
[H]c1c([H])c([H])c2c(c1[H])C([H])([H])C([H])([H])C([H])([H])C2([H])N([H])C(=O)C1([H])N(C(=O)C([H])(N([H])C(=O)C([H])(N([H])C([H])([H])[H])C([H])([H])[H])C(C([H])([H])[H])(C([H])([H])[H])C([H])([H])[H])C([H])([H])c2c([H])c(OC([H])([H])C([H])(C([H])([H])c3c([H])c([H])c(C([H])([H])C([H])(N([H])C(=O)N4C([H])([H])C([H])([H])C([H])([H])C([H])(n5nc(-c6c([H])c([H])c(Oc7c([H])c([H])c(F)c([H])c7F)c([H])c6[H])c(C(=O)N([H])[H])c5N([H])[H])C4([H])[H])C([H])([H])C([H])([H])[N+]([H])([H])[H])c([H])c3[H])C([H])([H])C([H])([H])[H])c([H])c([H])c2C1([H])[H]

>  <smiles>  (39) 
[H]c1c([H])c([H])c2c(c1[H])C([H])([H])C([H])([H])C([H])([H])C2([H])N([H])C(=O)C1([H])N(C(=O)C([H])(N([H])C(=O)C([H])(N([H])C([H])([H])[H])C([H])([H])[H])C(C([H])([H])[H])(C([H])([H])[H])C([H])([H])[H])C([H])([H])c2c([H])c(OC([H])([H])C([H])(C([H])([H])c3c([H])c([H])c(C([H])([H])C([H])(N([H])C(=O)N4C([H])([H])C([H])([H])C([H])([H])C([H])(n5nc(-c6c([H])c([H])c(Oc7c([H])c([H])c(F)c([H])c7F)c([H])c6[H])c(C(=O)N([H])[H])c5N([H])[H])C4([H])[H])C([H])([H])C([H])([H])[N+]([H])([H])[H])c([H])c3[H])C([H])([H])C([H])([H])[H])c([H])c([H])c2C1([H])[H]

$$$$
39:0:0
     RDKit          3D

 93101  0  0  1  0  0  0  0  0999 V2000
  -27.0780  -20.7910   18.9520 C   0  0  0  0  0  0  0  0  0  0  0  0
  -27.2370  -19.5330   18.4800 C   0  0  0  0  0  3  0  0  0  0  0  0
  -25.9920  -21.7240   18.4740 C   0  0  0  0  0  2  0  0  0  0  0  0
  -27.8590  -21.5200   20.0270 C   0  0  0  0  0  2  0  0  0  0  0  0
  -25.6880  -22.6460   19.6610 C   0  0  0  0  0  2  0  0  0  0  0  0
  -26.8560  -22.4940   20.6600 C   0  0  0  0  0  3  0  0  0  0  0  0
  -28.2230  -18.4960   18.8750 C   0  0  0  0  0  0  0  0  0  0  0  0
  -27.9800  -17.1480   18.1990 C   0  0  0  0  0  1  0  0  0  0  0  0
  -29.1600  -18.7470   19.7080 N   0  0  0  0  0  0  0  0  0  0  0  0
  -30.1100  -17.7480   20.1630 C   0  0  0  0  0  2  0  0  0  0  0  0
  -29.4520  -16.7870   21.1790 C   0  0  0  0  0  2  0  0  0  0  0  0
  -30.9940  -14.8920   21.0840 C   0  0  0  0  0  0  0  0  0  0  0  0
  -30.6950  -12.7580   19.8910 C   0  0  0  0  0  2  0  0  0  0  0  0
  -29.8970  -12.9290   18.5780 C   0  0  0  0  0  2  0  0  0  0  0  0
  -28.3950  -13.2430   18.7940 C   0  0  0  0  0  2  0  0  0  0  0  0
  -27.9700  -13.1300   20.2570 C   0  0  0  0  0  3  0  0  0  0  0  0
  -28.9030  -13.5520   21.3900 C   0  0  0  0  0  2  0  0  0  0  0  0
  -30.2570  -13.7780   20.8580 N   0  0  0  0  0  0  0  0  0  0  0  0
  -32.1420  -15.0390   20.6700 O   0  0  0  0  0  0  0  0  0  0  0  0
  -30.4260  -15.8780   21.7840 N   0  0  0  0  0  0  0  0  0  0  0  0
  -31.1150  -16.3990   22.3080 H   0  0  0  0  0  0  0  0  0  0  0  0
  -25.5230  -14.1070   20.6280 C   0  0  0  0  0  0  0  0  0  0  0  0
  -24.3900  -13.3840   20.9240 C   0  0  0  0  0  0  0  0  0  0  0  0
  -24.7990  -12.0210   20.9700 C   0  0  0  0  0  0  0  0  0  0  0  0
  -26.5430  -13.1530   20.5410 N   0  0  0  0  0  0  0  0  0  0  0  0
  -26.0810  -11.9190   20.7810 N   0  0  0  0  0  0  0  0  0  0  0  0
  -24.0800  -10.7670   21.1230 C   0  0  0  0  0  0  0  0  0  0  0  0
  -24.4710   -9.8240   22.0990 C   0  0  0  0  0  3  0  0  0  0  0  0
  -23.7720   -8.6080   22.2270 C   0  0  0  0  0  3  0  0  0  0  0  0
  -22.6750   -8.3380   21.3770 C   0  0  0  0  0  0  0  0  0  0  0  0
  -22.3160   -9.2680   20.3860 C   0  0  0  0  0  3  0  0  0  0  0  0
  -23.0170  -10.4750   20.2540 C   0  0  0  0  0  3  0  0  0  0  0  0
  -21.9430   -7.1790   21.4210 O   0  0  0  0  0  0  0  0  0  0  0  0
  -21.7960   -6.4700   22.5850 C   0  0  0  0  0  0  0  0  0  0  0  0
  -21.2330   -7.0480   23.7450 C   0  0  0  0  0  3  0  0  0  0  0  0
  -21.0340   -6.2600   24.8960 C   0  0  0  0  0  3  0  0  0  0  0  0
  -21.3890   -4.8990   24.8870 C   0  0  0  0  0  0  0  0  0  0  0  0
  -21.9490   -4.3230   23.7330 C   0  0  0  0  0  3  0  0  0  0  0  0
  -22.1490   -5.1070   22.5850 C   0  0  0  0  0  0  0  0  0  0  0  0
  -22.6690   -4.5440   21.4670 F   0  0  0  0  0  0  0  0  0  0  0  0
  -21.1890   -4.1400   25.9900 F   0  0  0  0  0  0  0  0  0  0  0  0
  -22.9800  -13.8810   21.0760 C   0  0  0  0  0  0  0  0  0  0  0  0
  -22.1810  -13.1960   21.8890 N   0  0  0  0  0  0  0  0  0  0  0  0
  -22.5880  -14.8950   20.5040 O   0  0  0  0  0  0  0  0  0  0  0  0
  -22.5060  -12.3700   22.3700 H   0  0  0  0  0  0  0  0  0  0  0  0
  -21.2300  -13.5050   22.0340 H   0  0  0  0  0  0  0  0  0  0  0  0
  -25.7550  -15.4650   20.4280 N   0  0  0  0  0  0  0  0  0  0  0  0
  -25.0140  -16.1570   20.4430 H   0  0  0  0  0  0  0  0  0  0  0  0
  -26.6550  -15.8460   20.1710 H   0  0  0  0  0  0  0  0  0  0  0  0
  -27.4520  -23.8260   21.1660 C   0  0  0  0  0  2  0  0  0  0  0  0
  -28.0770  -24.7300   20.0840 C   0  0  0  0  0  2  0  0  0  0  0  0
  -28.4530  -26.1190   20.6280 C   0  0  0  0  0  2  0  0  0  0  0  0
  -28.3230  -27.1210   19.6190 O   0  0  0  0  0  0  0  0  0  0  0  0
  -24.5480  -31.9680   23.1710 C   0  0  0  0  0  0  0  0  0  0  0  0
  -27.1440  -27.8160   19.7050 C   0  0  0  0  0  0  0  0  0  0  0  0
  -23.2950  -30.6400   21.5010 C   0  0  0  0  0  3  0  0  0  0  0  0
  -24.7150  -29.2290   19.9210 C   0  0  0  0  0  0  0  0  0  0  0  0
  -25.7980  -31.0780   21.2130 C   0  0  0  0  0  2  0  0  0  0  0  0
  -25.8850  -29.7530   20.4880 C   0  0  0  0  0  0  0  0  0  0  0  0
  -27.1030  -29.0510   20.3820 C   0  0  0  0  0  3  0  0  0  0  0  0
  -25.9630  -27.3010   19.1290 C   0  0  0  0  0  3  0  0  0  0  0  0
  -24.7470  -27.9990   19.2400 C   0  0  0  0  0  3  0  0  0  0  0  0
  -23.4540  -30.0460   20.0730 C   0  0  0  0  0  2  0  0  0  0  0  0
  -24.5670  -31.2400   22.0200 N   0  0  0  0  0  0  0  0  0  0  0  0
  -23.4880  -32.1800   23.7770 O   0  0  0  0  0  0  0  0  0  0  0  0
  -22.7140  -29.5470   22.4250 C   0  0  0  0  0  0  0  0  0  0  0  0
  -21.3950  -29.3190   22.3220 N   0  0  0  0  0  0  0  0  0  0  0  0
  -23.4440  -28.9090   23.1870 O   0  0  0  0  0  0  0  0  0  0  0  0
  -20.8650  -29.8880   21.6770 H   0  0  0  0  0  0  0  0  0  0  0  0
  -18.0880  -27.9510   22.8170 C   0  0  0  0  0  0  0  0  0  0  0  0
  -20.6350  -28.3130   23.0630 C   0  0  0  0  0  3  0  0  0  0  0  0
  -20.7940  -26.9140   22.4250 C   0  0  0  0  0  2  0  0  0  0  0  0
  -19.6900  -26.5790   21.4180 C   0  0  0  0  0  2  0  0  0  0  0  0
  -18.3140  -26.6380   22.0880 C   0  0  0  0  0  2  0  0  0  0  0  0
  -19.1780  -28.7460   23.2630 C   0  0  0  0  0  0  0  0  0  0  0  0
  -18.9120  -29.9740   23.9050 C   0  0  0  0  0  3  0  0  0  0  0  0
  -17.5890  -30.4090   24.1090 C   0  0  0  0  0  3  0  0  0  0  0  0
  -16.5140  -29.6120   23.6810 C   0  0  0  0  0  3  0  0  0  0  0  0
  -16.7650  -28.3850   23.0410 C   0  0  0  0  0  3  0  0  0  0  0  0
  -25.8490  -32.5890   23.7680 C   0  0  0  0  0  3  0  0  0  0  0  0
  -25.5450  -33.9770   24.1430 N   0  0  0  0  0  0  0  0  0  0  0  0
  -25.8690  -35.0500   23.4110 C   0  0  0  0  0  0  0  0  0  0  0  0
  -26.5300  -34.9780   22.3700 O   0  0  0  0  0  0  0  0  0  0  0  0
  -24.9630  -34.1070   24.9580 H   0  0  0  0  0  0  0  0  0  0  0  0
  -24.1420  -36.8530   23.1170 C   0  0  0  0  0  1  0  0  0  0  0  0
  -25.3850  -36.4240   23.9130 C   0  0  0  0  0  3  0  0  0  0  0  0
  -27.5220  -37.2790   24.7670 C   0  0  0  0  0  1  0  0  0  0  0  0
  -26.4190  -37.4790   23.8310 N   0  0  0  0  0  0  0  0  0  0  0  0
  -26.0150  -38.3950   24.0090 H   0  0  0  0  0  0  0  0  0  0  0  0
  -26.4110  -31.7860   25.0040 C   0  0  1  0  0  0  0  0  0  0  0  0
  -25.3540  -31.5090   26.0990 C   0  0  0  0  0  1  0  0  0  0  0  0
  -26.9880  -30.4250   24.5520 C   0  0  0  0  0  1  0  0  0  0  0  0
  -27.5770  -32.5700   25.6530 C   0  0  0  0  0  1  0  0  0  0  0  0
  1  4  1  0
  2  7  1  0
  2  1  2  0
  3  1  1  0
  3  5  1  0
  4  6  1  0
  5  6  1  0
  6 50  1  0
  7  9  2  0
  8  7  1  0
  9 10  1  0
 10 11  1  0
 11 20  1  0
 12 20  1  0
 13 18  1  0
 14 15  1  0
 14 13  1  0
 16 15  1  0
 16 25  1  0
 16 17  1  0
 18 12  1  0
 18 17  1  0
 19 12  2  0
 20 21  1  0
 22 23  2  0
 23 24  1  0
 23 42  1  0
 24 27  1  0
 25 22  1  0
 25 26  1  0
 26 24  2  0
 27 28  1  0
 28 29  2  0
 30 33  1  0
 30 29  1  0
 31 30  2  0
 32 31  1  0
 32 27  2  0
 33 34  1  0
 34 39  2  0
 34 35  1  0
 35 36  2  0
 37 36  1  0
 37 41  1  0
 38 37  2  0
 39 38  1  0
 40 39  1  0
 42 43  1  0
 43 46  1  0
 43 45  1  0
 44 42  2  0
 47 48  1  0
 47 22  1  0
 49 47  1  0
 51 52  1  0
 51 50  1  0
 53 55  1  0
 53 52  1  0
 54 65  2  0
 55 60  1  0
 56 64  1  0
 56 66  1  0
 57 63  1  0
 57 59  1  0
 58 64  1  0
 59 58  1  0
 60 59  2  0
 61 62  1  0
 61 55  2  0
 62 57  2  0
 63 56  1  0
 64 54  1  0
 66 68  2  0
 67 66  1  0
 69 67  1  0
 70 79  2  0
 70 75  1  0
 71 67  1  0
 71 75  1  0
 72 71  1  0
 73 74  1  0
 73 72  1  0
 74 70  1  0
 75 76  2  0
 76 77  1  0
 78 77  2  0
 79 78  1  0
 80 54  1  0
 80 81  1  0
 80 90  1  0
 81 84  1  0
 82 86  1  0
 82 81  1  0
 83 82  2  0
 86 85  1  0
 88 86  1  0
 88 89  1  0
 88 87  1  0
 90 93  1  1
 90 91  1  0
 92 90  1  0
M  ISO  4  12 100  20 100  52 101  53 101
M  END
>  <TORSDO>  (40) 
F 22

>  <SCORE>  (40) 
-12.375

>  <name>  (40) 
39

>  <ligand_id>  (40) 
39

>  <original_smiles>  (40) 
[H]C(C(=NC([H])([H])C([H])([H])N([H])C(=O)N1C([H])([H])C([H])([H])C([H])([H])C([H])(n2nc(-c3c([H])c([H])c(Oc4c([H])c([H])c(F)c([H])c4F)c([H])c3[H])c(C(=O)N([H])[H])c2N([H])[H])C1([H])[H])C([H])([H])[H])=C1C([H])([H])C([H])([H])C([H])(C([H])([H])C([H])([H])C([H])([H])Oc2c([H])c([H])c3c(c2[H])C([H])([H])N(C(=O)C([H])(N([H])C(=O)C([H])(N([H])C([H])([H])[H])C([H])([H])[H])C(C([H])([H])[H])(C([H])([H])[H])C([H])([H])[H])C([H])(C(=O)N([H])C2([H])c4c([H])c([H])c([H])c([H])c4C([H])([H])C([H])([H])C2([H])[H])C3([H])[H])C1([H])[H]

>  <smiles>  (40) 
[H]C(C(=NC([H])([H])C([H])([H])N([H])C(=O)N1C([H])([H])C([H])([H])C([H])([H])C([H])(n2nc(-c3c([H])c([H])c(Oc4c([H])c([H])c(F)c([H])c4F)c([H])c3[H])c(C(=O)N([H])[H])c2N([H])[H])C1([H])[H])C([H])([H])[H])=C1C([H])([H])C([H])([H])C([H])(C([H])([H])C([H])([H])C([H])([H])Oc2c([H])c([H])c3c(c2[H])C([H])([H])N(C(=O)C([H])(N([H])C(=O)C([H])(N([H])C([H])([H])[H])C([H])([H])[H])C(C([H])([H])[H])(C([H])([H])[H])C([H])([H])[H])C([H])(C(=O)N([H])C2([H])c4c([H])c([H])c([H])c([H])c4C([H])([H])C([H])([H])C2([H])[H])C3([H])[H])C1([H])[H]

$$$$
40:0:0
     RDKit          3D

 89 98  0  0  1  0  0  0  0  0999 V2000
  -28.7610  -19.0390   18.5880 C   0  0  0  0  0  2  0  0  0  0  0  0
  -27.4950  -21.3220   19.1560 C   0  0  0  0  0  2  0  0  0  0  0  0
  -29.3120  -21.6250   18.2920 C   0  0  0  0  0  2  0  0  0  0  0  0
  -29.5240  -20.4820   20.5940 C   0  0  0  0  0  2  0  0  0  0  0  0
  -28.3020  -20.4630   18.1620 C   0  0  0  0  0  3  0  0  0  0  0  0
  -29.2080  -18.9270   20.0790 C   0  0  0  0  0  3  0  0  0  0  0  0
  -28.8530  -21.7560   19.7670 C   0  0  2  0  0  0  0  0  0  0  0  0
  -30.2310  -17.6180   20.3480 C   0  0  0  0  0  2  0  0  0  0  0  0
  -30.5580  -14.9220   20.3430 C   0  0  0  0  0  0  0  0  0  0  0  0
  -30.4030  -12.6040   19.3780 C   0  0  0  0  0  2  0  0  0  0  0  0
  -29.4740  -12.6380   18.1460 C   0  0  0  0  0  2  0  0  0  0  0  0
  -28.0000  -12.4460   18.5570 C   0  0  0  0  0  2  0  0  0  0  0  0
  -27.6050  -13.3100   19.7840 C   0  0  0  0  0  3  0  0  0  0  0  0
  -28.6640  -13.2700   20.9040 C   0  0  0  0  0  2  0  0  0  0  0  0
  -29.9400  -13.6770   20.2970 N   0  0  0  0  0  0  0  0  0  0  0  0
  -31.7630  -14.9790   20.0890 O   0  0  0  0  0  0  0  0  0  0  0  0
  -29.8010  -16.1080   20.4410 N   0  0  0  0  0  0  0  0  0  0  0  0
  -28.8200  -15.9470   20.6120 H   0  0  0  0  0  0  0  0  0  0  0  0
  -25.2170  -13.8620   20.5180 C   0  0  0  0  0  0  0  0  0  0  0  0
  -24.1590  -13.0810   20.8880 C   0  0  0  0  0  0  0  0  0  0  0  0
  -24.6330  -11.7310   20.8530 C   0  0  0  0  0  0  0  0  0  0  0  0
  -26.2680  -12.9950   20.2760 N   0  0  0  0  0  0  0  0  0  0  0  0
  -25.9260  -11.7060   20.5430 N   0  0  0  0  0  0  0  0  0  0  0  0
  -23.9130  -10.4640   21.0420 C   0  0  0  0  0  0  0  0  0  0  0  0
  -24.3500   -9.5010   21.9780 C   0  0  0  0  0  3  0  0  0  0  0  0
  -23.6330   -8.2980   22.1560 C   0  0  0  0  0  3  0  0  0  0  0  0
  -22.4640   -8.0490   21.3970 C   0  0  0  0  0  0  0  0  0  0  0  0
  -22.0480   -9.0020   20.4500 C   0  0  0  0  0  3  0  0  0  0  0  0
  -22.7620  -10.1960   20.2710 C   0  0  0  0  0  3  0  0  0  0  0  0
  -21.7190   -6.8980   21.4810 O   0  0  0  0  0  0  0  0  0  0  0  0
  -21.6680   -6.1570   22.6360 C   0  0  0  0  0  0  0  0  0  0  0  0
  -21.2170   -6.7060   23.8560 C   0  0  0  0  0  3  0  0  0  0  0  0
  -21.1150   -5.8890   25.0010 C   0  0  0  0  0  3  0  0  0  0  0  0
  -21.4530   -4.5250   24.9250 C   0  0  0  0  0  0  0  0  0  0  0  0
  -21.8980   -3.9750   23.7090 C   0  0  0  0  0  3  0  0  0  0  0  0
  -22.0000   -4.7880   22.5670 C   0  0  0  0  0  0  0  0  0  0  0  0
  -22.4070   -4.2480   21.3930 F   0  0  0  0  0  0  0  0  0  0  0  0
  -21.3490   -3.7400   26.0230 F   0  0  0  0  0  0  0  0  0  0  0  0
  -22.7570  -13.5440   21.1620 C   0  0  0  0  0  0  0  0  0  0  0  0
  -22.0340  -12.8420   22.0200 N   0  0  0  0  0  0  0  0  0  0  0  0
  -22.3130  -14.5650   20.6370 O   0  0  0  0  0  0  0  0  0  0  0  0
  -22.4130  -12.0180   22.4680 H   0  0  0  0  0  0  0  0  0  0  0  0
  -21.0890  -13.1240   22.2370 H   0  0  0  0  0  0  0  0  0  0  0  0
  -25.3740  -15.2350   20.3330 N   0  0  0  0  0  0  0  0  0  0  0  0
  -24.5970  -15.8830   20.3860 H   0  0  0  0  0  0  0  0  0  0  0  0
  -26.2080  -15.6540   19.9420 H   0  0  0  0  0  0  0  0  0  0  0  0
  -28.9400  -23.3230   20.3940 C   0  0  0  0  0  3  0  0  0  0  0  0
  -28.0340  -24.6560   19.8730 C   0  0  0  0  0  3  0  0  0  0  0  0
  -28.2390  -26.1640   20.2360 O   0  0  0  0  0  0  0  0  0  0  0  0
  -24.6170  -31.8690   23.2460 C   0  0  0  0  0  0  0  0  0  0  0  0
  -27.1860  -27.1530   20.1730 C   0  0  0  0  0  0  0  0  0  0  0  0
  -23.4140  -30.4750   21.6050 C   0  0  0  0  0  3  0  0  0  0  0  0
  -24.8640  -28.9050   20.1650 C   0  0  0  0  0  0  0  0  0  0  0  0
  -25.9720  -30.7260   21.4490 C   0  0  0  0  0  2  0  0  0  0  0  0
  -26.0390  -29.3370   20.7920 C   0  0  0  0  0  0  0  0  0  0  0  0
  -27.1990  -28.4720   20.7880 C   0  0  0  0  0  3  0  0  0  0  0  0
  -25.9900  -26.8320   19.4950 C   0  0  0  0  0  3  0  0  0  0  0  0
  -24.8510  -27.6640   19.5070 C   0  0  0  0  0  3  0  0  0  0  0  0
  -23.6370  -29.8010   20.2220 C   0  0  0  0  0  2  0  0  0  0  0  0
  -24.6870  -31.0480   22.1520 N   0  0  0  0  0  0  0  0  0  0  0  0
  -23.5300  -32.1460   23.7760 O   0  0  0  0  0  0  0  0  0  0  0  0
  -22.7360  -29.4680   22.5660 C   0  0  0  0  0  0  0  0  0  0  0  0
  -21.4080  -29.2910   22.4420 N   0  0  0  0  0  0  0  0  0  0  0  0
  -23.4070  -28.8420   23.3880 O   0  0  0  0  0  0  0  0  0  0  0  0
  -20.9120  -29.8430   21.7550 H   0  0  0  0  0  0  0  0  0  0  0  0
  -18.0330  -28.0670   22.9340 C   0  0  0  0  0  0  0  0  0  0  0  0
  -20.5910  -28.3510   23.2170 C   0  0  0  0  0  3  0  0  0  0  0  0
  -20.7070  -26.9140   22.6540 C   0  0  0  0  0  2  0  0  0  0  0  0
  -19.6170  -26.5780   21.6340 C   0  0  0  0  0  2  0  0  0  0  0  0
  -18.2290  -26.7160   22.2640 C   0  0  0  0  0  2  0  0  0  0  0  0
  -19.1430  -28.8420   23.3680 C   0  0  0  0  0  0  0  0  0  0  0  0
  -18.9080  -30.1050   23.9550 C   0  0  0  0  0  3  0  0  0  0  0  0
  -17.5980  -30.5950   24.1110 C   0  0  0  0  0  3  0  0  0  0  0  0
  -16.5040  -29.8190   23.6950 C   0  0  0  0  0  3  0  0  0  0  0  0
  -16.7210  -28.5550   23.1120 C   0  0  0  0  0  3  0  0  0  0  0  0
  -25.8930  -32.5080   23.8710 C   0  0  0  0  0  3  0  0  0  0  0  0
  -26.3950  -31.7540   25.1620 C   0  0  1  0  0  0  0  0  0  0  0  0
  -25.2920  -31.5410   26.2250 C   0  0  0  0  0  1  0  0  0  0  0  0
  -26.9670  -30.3660   24.7960 C   0  0  0  0  0  1  0  0  0  0  0  0
  -27.5430  -32.5510   25.8230 C   0  0  0  0  0  1  0  0  0  0  0  0
  -25.5830  -33.9100   24.1890 N   0  0  0  0  0  0  0  0  0  0  0  0
  -25.9190  -34.9600   23.4300 C   0  0  0  0  0  0  0  0  0  0  0  0
  -26.5860  -34.8520   22.3990 O   0  0  0  0  0  0  0  0  0  0  0  0
  -24.9950  -34.0750   24.9920 H   0  0  0  0  0  0  0  0  0  0  0  0
  -24.1970  -36.7610   23.0810 C   0  0  0  0  0  1  0  0  0  0  0  0
  -25.4400  -36.3510   23.8860 C   0  0  0  0  0  3  0  0  0  0  0  0
  -27.5790  -37.2330   24.7120 C   0  0  0  0  0  1  0  0  0  0  0  0
  -26.4750  -37.4030   23.7710 N   0  0  0  0  0  0  0  0  0  0  0  0
  -26.0700  -38.3240   23.9240 H   0  0  0  0  0  0  0  0  0  0  0  0
  1  6  1  0
  2  7  1  0
  3  7  1  0
  5  3  1  0
  5  1  1  0
  5  2  1  0
  6  8  1  0
  6  4  1  0
  7 47  1  1
  7  4  1  0
  8 17  1  0
  9 17  1  0
 10 15  1  0
 11 12  1  0
 11 10  1  0
 13 12  1  0
 13 22  1  0
 13 14  1  0
 15  9  1  0
 15 14  1  0
 16  9  2  0
 17 18  1  0
 19 20  2  0
 20 39  1  0
 21 20  1  0
 21 24  1  0
 22 19  1  0
 22 23  1  0
 23 21  2  0
 24 25  1  0
 25 26  2  0
 27 30  1  0
 27 26  1  0
 28 27  2  0
 29 28  1  0
 29 24  2  0
 30 31  1  0
 31 32  1  0
 32 33  2  0
 34 33  1  0
 34 38  1  0
 35 34  2  0
 36 31  2  0
 36 35  1  0
 37 36  1  0
 39 40  1  0
 40 43  1  0
 40 42  1  0
 41 39  2  0
 44 45  1  0
 44 19  1  0
 46 44  1  0
 48 49  1  0
 48 47  2  0
 50 61  2  0
 51 49  1  0
 51 56  1  0
 52 60  1  0
 52 62  1  0
 53 59  1  0
 53 55  1  0
 54 60  1  0
 55 54  1  0
 56 55  2  0
 57 58  1  0
 57 51  2  0
 58 53  2  0
 59 52  1  0
 60 50  1  0
 62 64  2  0
 63 62  1  0
 65 63  1  0
 66 75  2  0
 66 71  1  0
 67 63  1  0
 67 71  1  0
 68 67  1  0
 69 70  1  0
 69 68  1  0
 70 66  1  0
 71 72  2  0
 72 73  1  0
 74 73  2  0
 75 74  1  0
 76 50  1  0
 76 81  1  0
 76 77  1  0
 77 80  1  1
 77 78  1  0
 79 77  1  0
 81 84  1  0
 82 86  1  0
 82 81  1  0
 83 82  2  0
 86 85  1  0
 88 86  1  0
 88 89  1  0
 88 87  1  0
M  ISO  4   9 100  17 100  48 101  49 101
M  END
>  <TORSDO>  (41) 
F 19

>  <SCORE>  (41) 
-14.208

>  <name>  (41) 
40

>  <ligand_id>  (41) 
40

>  <original_smiles>  (41) 
[H]c1c([H])c([H])c2c(c1[H])C([H])([H])C([H])([H])C([H])([H])C2([H])N([H])C(=O)C1([H])N(C(=O)C([H])(N([H])C(=O)C([H])(N([H])C([H])([H])[H])C([H])([H])[H])C(C([H])([H])[H])(C([H])([H])[H])C([H])([H])[H])C([H])([H])c2c([H])c(OC([H])([H])C([H])([H])C34C([H])([H])C([H])(C([H])([H])N([H])C(=O)N5C([H])([H])C([H])([H])C([H])([H])C([H])(n6nc(-c7c([H])c([H])c(Oc8c([H])c([H])c(F)c([H])c8F)c([H])c7[H])c(C(=O)N([H])[H])c6N([H])[H])C5([H])[H])C([H])([H])C([H])(C3([H])[H])C4([H])[H])c([H])c([H])c2C1([H])[H]

>  <smiles>  (41) 
[H]c1c([H])c([H])c2c(c1[H])C([H])([H])C([H])([H])C([H])([H])C2([H])N([H])C(=O)C1([H])N(C(=O)C([H])(N([H])C(=O)C([H])(N([H])C([H])([H])[H])C([H])([H])[H])C(C([H])([H])[H])(C([H])([H])[H])C([H])([H])[H])C([H])([H])c2c([H])c(OC([H])([H])C([H])([H])C34C([H])([H])C([H])(C([H])([H])N([H])C(=O)N5C([H])([H])C([H])([H])C([H])([H])C([H])(n6nc(-c7c([H])c([H])c(Oc8c([H])c([H])c(F)c([H])c8F)c([H])c7[H])c(C(=O)N([H])[H])c6N([H])[H])C5([H])[H])C([H])([H])C([H])(C3([H])[H])C4([H])[H])c([H])c([H])c2C1([H])[H]

$$$$
41:0:0
     RDKit          3D

100107  0  0  1  0  0  0  0  0999 V2000
  -28.3520  -24.8510   25.7750 C   0  0  0  0  0  2  0  0  0  0  0  0
  -27.4210  -25.2180   24.6750 N   0  0  0  0  0  4  0  0  0  0  0  0
  -26.7450  -25.8560   25.0710 H   0  0  0  0  0  0  0  0  0  0  0  0
  -26.9060  -24.4050   24.3840 H   0  0  0  0  0  0  0  0  0  0  0  0
  -28.0320  -25.9220   23.5130 C   0  0  0  0  0  2  0  0  0  0  0  0
  -28.7970  -24.9950   22.5340 C   0  0  0  0  0  2  0  0  0  0  0  0
  -28.0740  -24.5350   21.2330 C   0  0  0  0  0  3  0  0  0  0  0  0
  -26.1600  -22.9880   22.0250 C   0  0  0  0  0  1  0  0  0  0  0  0
  -26.5470  -24.2930   21.3140 C   0  0  0  0  0  2  0  0  0  0  0  0
  -28.5040  -25.3580   19.9940 C   0  0  0  0  0  2  0  0  0  0  0  0
  -28.4430  -26.7730   20.1620 O   0  0  0  0  0  0  0  0  0  0  0  0
  -24.6130  -31.8650   23.2100 C   0  0  0  0  0  0  0  0  0  0  0  0
  -27.2410  -27.4490   20.1130 C   0  0  0  0  0  0  0  0  0  0  0  0
  -23.4010  -30.4970   21.5400 C   0  0  0  0  0  3  0  0  0  0  0  0
  -24.8510  -28.9650   20.1080 C   0  0  0  0  0  0  0  0  0  0  0  0
  -25.9270  -30.8470   21.3550 C   0  0  0  0  0  2  0  0  0  0  0  0
  -26.0050  -29.4790   20.7110 C   0  0  0  0  0  0  0  0  0  0  0  0
  -27.2000  -28.7270   20.7070 C   0  0  0  0  0  3  0  0  0  0  0  0
  -26.0770  -26.9530   19.4850 C   0  0  0  0  0  3  0  0  0  0  0  0
  -24.8830  -27.7030   19.4880 C   0  0  0  0  0  3  0  0  0  0  0  0
  -23.6130  -29.8340   20.1500 C   0  0  0  0  0  2  0  0  0  0  0  0
  -24.6650  -31.0840   22.0950 N   0  0  0  0  0  0  0  0  0  0  0  0
  -23.5330  -32.1340   23.7540 O   0  0  0  0  0  0  0  0  0  0  0  0
  -22.7360  -29.4710   22.4880 C   0  0  0  0  0  0  0  0  0  0  0  0
  -21.4100  -29.3050   22.3550 N   0  0  0  0  0  0  0  0  0  0  0  0
  -23.4120  -28.8340   23.3000 O   0  0  0  0  0  0  0  0  0  0  0  0
  -20.9350  -29.8540   21.6500 H   0  0  0  0  0  0  0  0  0  0  0  0
  -18.0200  -28.1490   22.8420 C   0  0  0  0  0  0  0  0  0  0  0  0
  -20.5790  -28.3770   23.1190 C   0  0  0  0  0  3  0  0  0  0  0  0
  -20.6650  -26.9470   22.5350 C   0  0  0  0  0  2  0  0  0  0  0  0
  -19.5530  -26.6370   21.5260 C   0  0  0  0  0  2  0  0  0  0  0  0
  -18.1790  -26.7950   22.1760 C   0  0  0  0  0  2  0  0  0  0  0  0
  -19.1450  -28.8980   23.2790 C   0  0  0  0  0  0  0  0  0  0  0  0
  -18.9320  -30.1570   23.8830 C   0  0  0  0  0  3  0  0  0  0  0  0
  -17.6280  -30.6610   24.0590 C   0  0  0  0  0  3  0  0  0  0  0  0
  -16.5200  -29.9080   23.6340 C   0  0  0  0  0  3  0  0  0  0  0  0
  -16.7180  -28.6570   23.0250 C   0  0  0  0  0  3  0  0  0  0  0  0
  -25.9030  -32.4820   23.8380 C   0  0  0  0  0  3  0  0  0  0  0  0
  -25.5930  -33.8620   24.2320 N   0  0  0  0  0  0  0  0  0  0  0  0
  -25.9040  -34.9470   23.5100 C   0  0  0  0  0  0  0  0  0  0  0  0
  -26.5570  -34.8920   22.4650 O   0  0  0  0  0  0  0  0  0  0  0  0
  -25.0180  -33.9810   25.0530 H   0  0  0  0  0  0  0  0  0  0  0  0
  -24.1530  -36.7350   23.2630 C   0  0  0  0  0  1  0  0  0  0  0  0
  -25.4140  -36.3120   24.0330 C   0  0  0  0  0  3  0  0  0  0  0  0
  -27.5610  -37.1830   24.8460 C   0  0  0  0  0  1  0  0  0  0  0  0
  -26.4330  -37.3800   23.9380 N   0  0  0  0  0  0  0  0  0  0  0  0
  -26.0240  -38.2890   24.1350 H   0  0  0  0  0  0  0  0  0  0  0  0
  -26.4470  -31.6560   25.0670 C   0  0  1  0  0  0  0  0  0  0  0  0
  -25.3730  -31.3570   26.1390 C   0  0  0  0  0  1  0  0  0  0  0  0
  -27.0290  -30.3010   24.6010 C   0  0  0  0  0  1  0  0  0  0  0  0
  -27.6060  -32.4240   25.7450 C   0  0  0  0  0  1  0  0  0  0  0  0
  -28.3040  -23.3470   26.1390 C   0  0  0  0  0  2  0  0  0  0  0  0
  -29.2110  -22.4800   25.2530 C   0  0  0  0  0  2  0  0  0  0  0  0
  -29.2590  -20.9950   25.6190 C   0  0  0  0  0  2  0  0  0  0  0  0
  -30.3340  -20.2870   24.7770 C   0  0  0  0  0  2  0  0  0  0  0  0
  -30.4180  -18.7670   24.9800 C   0  0  0  0  0  2  0  0  0  0  0  0
  -31.4280  -18.1490   23.9940 C   0  0  0  0  0  2  0  0  0  0  0  0
  -31.3920  -16.6730   23.9680 N   0  0  0  0  0  4  0  0  0  0  0  0
  -30.4900  -16.3690   23.6390 H   0  0  0  0  0  0  0  0  0  0  0  0
  -31.5220  -16.3150   24.9000 H   0  0  0  0  0  0  0  0  0  0  0  0
  -32.4240  -16.0880   23.0890 C   0  0  0  0  0  2  0  0  0  0  0  0
  -32.2010  -14.5860   22.8710 C   0  0  0  0  0  2  0  0  0  0  0  0
  -30.8880  -14.1860   20.8120 C   0  0  0  0  0  0  0  0  0  0  0  0
  -30.3980  -12.2870   19.3390 C   0  0  0  0  0  2  0  0  0  0  0  0
  -29.4540  -12.5520   18.1610 C   0  0  0  0  0  2  0  0  0  0  0  0
  -27.9930  -12.3770   18.6030 C   0  0  0  0  0  2  0  0  0  0  0  0
  -27.6620  -13.2050   19.8710 C   0  0  0  0  0  3  0  0  0  0  0  0
  -28.7060  -12.9690   20.9860 C   0  0  0  0  0  2  0  0  0  0  0  0
  -30.0560  -13.1910   20.4420 N   0  0  0  0  0  0  0  0  0  0  0  0
  -31.7390  -14.6950   20.0780 O   0  0  0  0  0  0  0  0  0  0  0  0
  -30.9630  -14.2870   22.1480 N   0  0  0  0  0  0  0  0  0  0  0  0
  -30.2650  -13.7540   22.6470 H   0  0  0  0  0  0  0  0  0  0  0  0
  -25.2600  -13.8170   20.5670 C   0  0  0  0  0  0  0  0  0  0  0  0
  -24.1830  -13.0430   20.9160 C   0  0  0  0  0  0  0  0  0  0  0  0
  -24.6380  -11.6920   20.8710 C   0  0  0  0  0  0  0  0  0  0  0  0
  -26.3030  -12.9330   20.3370 N   0  0  0  0  0  0  0  0  0  0  0  0
  -25.9310  -11.6490   20.5750 N   0  0  0  0  0  0  0  0  0  0  0  0
  -23.9040  -10.4290   21.0400 C   0  0  0  0  0  0  0  0  0  0  0  0
  -24.3600   -9.4220   21.9180 C   0  0  0  0  0  3  0  0  0  0  0  0
  -23.6280   -8.2250   22.0760 C   0  0  0  0  0  3  0  0  0  0  0  0
  -22.4270   -8.0280   21.3550 C   0  0  0  0  0  0  0  0  0  0  0  0
  -21.9890   -9.0240   20.4650 C   0  0  0  0  0  3  0  0  0  0  0  0
  -22.7210  -10.2130   20.3050 C   0  0  0  0  0  3  0  0  0  0  0  0
  -21.6640   -6.8870   21.4250 O   0  0  0  0  0  0  0  0  0  0  0  0
  -21.6850   -6.0730   22.5280 C   0  0  0  0  0  0  0  0  0  0  0  0
  -21.4020   -6.5640   23.8220 C   0  0  0  0  0  3  0  0  0  0  0  0
  -21.3650   -5.6790   24.9180 C   0  0  0  0  0  3  0  0  0  0  0  0
  -21.6040   -4.3050   24.7240 C   0  0  0  0  0  0  0  0  0  0  0  0
  -21.8820   -3.8140   23.4360 C   0  0  0  0  0  3  0  0  0  0  0  0
  -21.9190   -4.6960   22.3410 C   0  0  0  0  0  0  0  0  0  0  0  0
  -22.1660   -4.2140   21.0990 F   0  0  0  0  0  0  0  0  0  0  0  0
  -21.5620   -3.4550   25.7750 F   0  0  0  0  0  0  0  0  0  0  0  0
  -22.7860  -13.5250   21.1830 C   0  0  0  0  0  0  0  0  0  0  0  0
  -22.0500  -12.8230   22.0380 N   0  0  0  0  0  0  0  0  0  0  0  0
  -22.3570  -14.5560   20.6700 O   0  0  0  0  0  0  0  0  0  0  0  0
  -22.4070  -11.9850   22.4710 H   0  0  0  0  0  0  0  0  0  0  0  0
  -21.1150  -13.1310   22.2640 H   0  0  0  0  0  0  0  0  0  0  0  0
  -25.4330  -15.1870   20.4090 N   0  0  0  0  0  0  0  0  0  0  0  0
  -24.6700  -15.8480   20.5160 H   0  0  0  0  0  0  0  0  0  0  0  0
  -26.2950  -15.6250   20.1070 H   0  0  0  0  0  0  0  0  0  0  0  0
  1 52  1  0
  2  3  1  0
  2  1  1  0
  4  2  1  0
  5  2  1  0
  6  5  1  0
  7 10  1  0
  7  9  1  0
  7  6  1  0
  9  8  1  0
 10 11  1  0
 12 23  2  0
 13 11  1  0
 13 18  1  0
 14 22  1  0
 14 24  1  0
 15 21  1  0
 15 17  1  0
 16 22  1  0
 17 16  1  0
 18 17  2  0
 19 20  1  0
 19 13  2  0
 20 15  2  0
 21 14  1  0
 22 12  1  0
 24 26  2  0
 25 24  1  0
 27 25  1  0
 28 37  2  0
 28 33  1  0
 29 25  1  0
 29 33  1  0
 30 29  1  0
 31 32  1  0
 31 30  1  0
 32 28  1  0
 33 34  2  0
 34 35  1  0
 36 35  2  0
 37 36  1  0
 38 12  1  0
 38 39  1  0
 38 48  1  0
 39 42  1  0
 40 44  1  0
 40 39  1  0
 41 40  2  0
 44 43  1  0
 46 44  1  0
 46 47  1  0
 46 45  1  0
 48 51  1  1
 48 49  1  0
 50 48  1  0
 53 54  1  0
 53 52  1  0
 55 56  1  0
 55 54  1  0
 57 56  1  0
 58 57  1  0
 58 60  1  0
 59 58  1  0
 61 58  1  0
 62 61  1  0
 63 71  1  0
 64 69  1  0
 65 66  1  0
 65 64  1  0
 67 66  1  0
 67 76  1  0
 67 68  1  0
 69 63  1  0
 69 68  1  0
 70 63  2  0
 71 72  1  0
 71 62  1  0
 73 74  2  0
 74 93  1  0
 75 74  1  0
 75 78  1  0
 76 73  1  0
 76 77  1  0
 77 75  2  0
 78 79  1  0
 79 80  2  0
 81 84  1  0
 81 80  1  0
 82 81  2  0
 83 82  1  0
 83 78  2  0
 84 85  1  0
 85 86  1  0
 86 87  2  0
 88 87  1  0
 88 92  1  0
 89 88  2  0
 90 85  2  0
 90 89  1  0
 91 90  1  0
 93 94  1  0
 94 97  1  0
 94 96  1  0
 95 93  2  0
 98 99  1  0
 98 73  1  0
100 98  1  0
M  ISO  4  10 101  11 101  63 100  71 100
M  END
>  <TORSDO>  (42) 
F 31

>  <SCORE>  (42) 
5.746

>  <name>  (42) 
41

>  <ligand_id>  (42) 
41

>  <original_smiles>  (42) 
[H]c1c([H])c([H])c2c(c1[H])C([H])([H])C([H])([H])C([H])([H])C2([H])N([H])C(=O)C1([H])N(C(=O)C([H])(N([H])C(=O)C([H])(N([H])C([H])([H])[H])C([H])([H])[H])C(C([H])([H])[H])(C([H])([H])[H])C([H])([H])[H])C([H])([H])c2c([H])c(OC([H])([H])C([H])(C([H])([H])C([H])([H])[H])C([H])([H])C([H])([H])[N+]([H])([H])C([H])([H])C([H])([H])C([H])([H])C([H])([H])C([H])([H])C([H])([H])C([H])([H])[N+]([H])([H])C([H])([H])C([H])([H])N([H])C(=O)N3C([H])([H])C([H])([H])C([H])([H])C([H])(n4nc(-c5c([H])c([H])c(Oc6c([H])c([H])c(F)c([H])c6F)c([H])c5[H])c(C(=O)N([H])[H])c4N([H])[H])C3([H])[H])c([H])c([H])c2C1([H])[H]

>  <smiles>  (42) 
[H]c1c([H])c([H])c2c(c1[H])C([H])([H])C([H])([H])C([H])([H])C2([H])N([H])C(=O)C1([H])N(C(=O)C([H])(N([H])C(=O)C([H])(N([H])C([H])([H])[H])C([H])([H])[H])C(C([H])([H])[H])(C([H])([H])[H])C([H])([H])[H])C([H])([H])c2c([H])c(OC([H])([H])C([H])(C([H])([H])C([H])([H])[H])C([H])([H])C([H])([H])[N+]([H])([H])C([H])([H])C([H])([H])C([H])([H])C([H])([H])C([H])([H])C([H])([H])C([H])([H])[N+]([H])([H])C([H])([H])C([H])([H])N([H])C(=O)N3C([H])([H])C([H])([H])C([H])([H])C([H])(n4nc(-c5c([H])c([H])c(Oc6c([H])c([H])c(F)c([H])c6F)c([H])c5[H])c(C(=O)N([H])[H])c4N([H])[H])C3([H])[H])c([H])c([H])c2C1([H])[H]

$$$$
42:0:0
     RDKit          3D

 95104  0  0  1  0  0  0  0  0999 V2000
  -29.9000  -20.1980   20.4280 N   0  0  0  0  0  4  0  0  0  0  0  0
  -29.2580  -20.0130   21.1800 H   0  0  0  0  0  0  0  0  0  0  0  0
  -29.4070  -20.0580   19.5600 H   0  0  0  0  0  0  0  0  0  0  0  0
  -31.0070  -19.2180   20.5060 C   0  0  0  0  0  2  0  0  0  0  0  0
  -30.5210  -17.7570   20.3640 C   0  0  0  0  0  2  0  0  0  0  0  0
  -31.6570  -16.8020   19.9270 C   0  0  0  0  0  2  0  0  0  0  0  0
  -35.0240  -13.6950   20.1210 C   0  0  0  0  0  2  0  0  0  0  0  0
  -35.0760  -15.1760   19.8700 C   0  0  0  0  0  2  0  0  0  0  0  0
  -33.3060  -14.8490   21.7820 C   0  0  0  0  0  2  0  0  0  0  0  0
  -31.7800  -14.9570   21.6880 C   0  0  0  0  0  2  0  0  0  0  0  0
  -32.5640  -14.4680   19.5070 C   0  0  0  0  0  2  0  0  0  0  0  0
  -33.7960  -14.5430   20.3830 C   0  0  2  0  0  0  0  0  0  0  0  0
  -31.4510  -15.2790   20.2090 C   0  0  2  0  0  0  0  0  0  0  0  0
  -30.0240  -14.7550   19.8330 C   0  0  0  0  0  2  0  0  0  0  0  0
  -29.8420  -14.0490   18.4680 C   0  0  0  0  0  0  0  0  0  0  0  0
  -28.9200  -12.1510   17.1710 C   0  0  0  0  0  2  0  0  0  0  0  0
  -27.6050  -12.5010   16.4550 C   0  0  0  0  0  2  0  0  0  0  0  0
  -26.4030  -12.2850   17.3920 C   0  0  0  0  0  2  0  0  0  0  0  0
  -26.6010  -12.9650   18.7710 C   0  0  0  0  0  3  0  0  0  0  0  0
  -27.9810  -12.6130   19.3700 C   0  0  0  0  0  2  0  0  0  0  0  0
  -29.0200  -12.9700   18.3880 N   0  0  0  0  0  0  0  0  0  0  0  0
  -30.4900  -14.4430   17.4920 O   0  0  0  0  0  0  0  0  0  0  0  0
  -24.6740  -13.4770   20.4030 C   0  0  0  0  0  0  0  0  0  0  0  0
  -23.7830  -12.6630   21.0510 C   0  0  0  0  0  0  0  0  0  0  0  0
  -24.1280  -11.3270   20.6800 C   0  0  0  0  0  0  0  0  0  0  0  0
  -25.5110  -12.6340   19.6880 N   0  0  0  0  0  0  0  0  0  0  0  0
  -25.2050  -11.3290   19.9040 N   0  0  0  0  0  0  0  0  0  0  0  0
  -23.4630  -10.0510   20.9740 C   0  0  0  0  0  0  0  0  0  0  0  0
  -24.0850   -9.0590   21.7640 C   0  0  0  0  0  3  0  0  0  0  0  0
  -23.4170   -7.8480   22.0470 C   0  0  0  0  0  3  0  0  0  0  0  0
  -22.1150   -7.6200   21.5430 C   0  0  0  0  0  0  0  0  0  0  0  0
  -21.5090   -8.6010   20.7390 C   0  0  0  0  0  3  0  0  0  0  0  0
  -22.1770   -9.8040   20.4540 C   0  0  0  0  0  3  0  0  0  0  0  0
  -21.4020   -6.4630   21.7460 O   0  0  0  0  0  0  0  0  0  0  0  0
  -21.4850   -5.7620   22.9230 C   0  0  0  0  0  0  0  0  0  0  0  0
  -21.1670   -6.3520   24.1650 C   0  0  0  0  0  3  0  0  0  0  0  0
  -21.1990   -5.5770   25.3410 C   0  0  0  0  0  3  0  0  0  0  0  0
  -21.5370   -4.2120   25.2760 C   0  0  0  0  0  0  0  0  0  0  0  0
  -21.8490   -3.6210   24.0390 C   0  0  0  0  0  3  0  0  0  0  0  0
  -21.8190   -4.3940   22.8650 C   0  0  0  0  0  0  0  0  0  0  0  0
  -22.0990   -3.8160   21.6730 F   0  0  0  0  0  0  0  0  0  0  0  0
  -21.5600   -3.4650   26.4040 F   0  0  0  0  0  0  0  0  0  0  0  0
  -22.6170  -13.1000   21.8910 C   0  0  0  0  0  0  0  0  0  0  0  0
  -22.2540  -12.3100   22.8950 N   0  0  0  0  0  0  0  0  0  0  0  0
  -22.0500  -14.1730   21.6890 O   0  0  0  0  0  0  0  0  0  0  0  0
  -22.7320  -11.4390   23.0740 H   0  0  0  0  0  0  0  0  0  0  0  0
  -21.4870  -12.5800   23.4940 H   0  0  0  0  0  0  0  0  0  0  0  0
  -24.8300  -14.8590   20.3480 N   0  0  0  0  0  0  0  0  0  0  0  0
  -24.1980  -15.4950   20.8210 H   0  0  0  0  0  0  0  0  0  0  0  0
  -25.5290  -15.3360   19.7900 H   0  0  0  0  0  0  0  0  0  0  0  0
  -30.3240  -21.6170   20.5230 C   0  0  0  0  0  2  0  0  0  0  0  0
  -29.2390  -22.5750   19.9890 C   0  0  0  0  0  2  0  0  0  0  0  0
  -29.5410  -24.0770   20.1970 C   0  0  0  0  0  2  0  0  0  0  0  0
  -28.4410  -24.9520   19.5710 C   0  0  0  0  0  2  0  0  0  0  0  0
  -28.4880  -26.3170   20.0030 O   0  0  0  0  0  0  0  0  0  0  0  0
  -24.4910  -31.2380   23.2410 C   0  0  0  0  0  0  0  0  0  0  0  0
  -27.2860  -27.0010   20.0030 C   0  0  0  0  0  0  0  0  0  0  0  0
  -23.3330  -29.8530   21.5520 C   0  0  0  0  0  3  0  0  0  0  0  0
  -24.8350  -28.4230   20.0730 C   0  0  0  0  0  0  0  0  0  0  0  0
  -25.8450  -30.3050   21.3680 C   0  0  0  0  0  2  0  0  0  0  0  0
  -25.9770  -28.9630   20.6780 C   0  0  0  0  0  0  0  0  0  0  0  0
  -27.2030  -28.2600   20.6410 C   0  0  0  0  0  3  0  0  0  0  0  0
  -26.1190  -26.4800   19.3880 C   0  0  0  0  0  3  0  0  0  0  0  0
  -24.9020  -27.1790   19.4270 C   0  0  0  0  0  3  0  0  0  0  0  0
  -23.5620  -29.2320   20.1490 C   0  0  0  0  0  2  0  0  0  0  0  0
  -24.5740  -30.4780   22.1120 N   0  0  0  0  0  0  0  0  0  0  0  0
  -23.4000  -31.4530   23.7890 O   0  0  0  0  0  0  0  0  0  0  0  0
  -22.7190  -28.7760   22.4740 C   0  0  0  0  0  0  0  0  0  0  0  0
  -21.4370  -28.4490   22.2420 N   0  0  0  0  0  0  0  0  0  0  0  0
  -23.3950  -28.2360   23.3540 O   0  0  0  0  0  0  0  0  0  0  0  0
  -20.9480  -28.9410   21.5070 H   0  0  0  0  0  0  0  0  0  0  0  0
  -18.1980  -26.8610   22.4450 C   0  0  0  0  0  0  0  0  0  0  0  0
  -20.6650  -27.4360   22.9610 C   0  0  0  0  0  3  0  0  0  0  0  0
  -20.9980  -26.0160   22.4500 C   0  0  0  0  0  2  0  0  0  0  0  0
  -20.0520  -25.5360   21.3440 C   0  0  0  0  0  2  0  0  0  0  0  0
  -18.6040  -25.5270   21.8400 C   0  0  0  0  0  2  0  0  0  0  0  0
  -19.1680  -27.7640   22.9570 C   0  0  0  0  0  0  0  0  0  0  0  0
  -18.7400  -29.0060   23.4760 C   0  0  0  0  0  3  0  0  0  0  0  0
  -17.3750  -29.3480   23.4910 C   0  0  0  0  0  3  0  0  0  0  0  0
  -16.4180  -28.4440   22.9970 C   0  0  0  0  0  3  0  0  0  0  0  0
  -16.8300  -27.2020   22.4810 C   0  0  0  0  0  3  0  0  0  0  0  0
  -25.7550  -31.8910   23.8810 C   0  0  0  0  0  3  0  0  0  0  0  0
  -26.1760  -31.2210   25.2460 C   0  0  1  0  0  0  0  0  0  0  0  0
  -25.0130  -31.0830   26.2570 C   0  0  0  0  0  1  0  0  0  0  0  0
  -26.7600  -29.8100   25.0050 C   0  0  0  0  0  1  0  0  0  0  0  0
  -27.2940  -32.0550   25.9160 C   0  0  0  0  0  1  0  0  0  0  0  0
  -25.4660  -33.3180   24.0690 N   0  0  0  0  0  0  0  0  0  0  0  0
  -25.8840  -34.2930   23.2500 C   0  0  0  0  0  0  0  0  0  0  0  0
  -26.6240  -34.0840   22.2840 O   0  0  0  0  0  0  0  0  0  0  0  0
  -24.8240  -33.5580   24.8100 H   0  0  0  0  0  0  0  0  0  0  0  0
  -24.2660  -36.1000   22.5900 C   0  0  0  0  0  1  0  0  0  0  0  0
  -25.4070  -35.7260   23.5490 C   0  0  0  0  0  3  0  0  0  0  0  0
  -27.4820  -36.6100   24.5190 C   0  0  0  0  0  1  0  0  0  0  0  0
  -26.4840  -36.7370   23.4600 N   0  0  0  0  0  0  0  0  0  0  0  0
  -26.1000  -37.6770   23.4970 H   0  0  0  0  0  0  0  0  0  0  0  0
  1  4  1  0
  1 51  1  0
  1  2  1  0
  3  1  1  0
  5  4  1  0
 13  6  1  1
  6  5  1  0
 12  7  1  1
  8  7  1  0
  8 12  1  0
 10  9  1  0
 11 13  1  0
 11 12  1  0
 12  9  1  0
 13 14  1  0
 13 10  1  0
 15 14  1  0
 16 21  1  0
 17 16  1  0
 17 18  1  0
 19 18  1  0
 19 20  1  0
 19 26  1  0
 21 15  1  0
 21 20  1  0
 22 15  2  0
 23 24  2  0
 24 43  1  0
 25 28  1  0
 25 24  1  0
 26 27  1  0
 26 23  1  0
 27 25  2  0
 28 29  1  0
 29 30  2  0
 31 34  1  0
 31 30  1  0
 32 31  2  0
 33 32  1  0
 33 28  2  0
 34 35  1  0
 35 36  1  0
 36 37  2  0
 38 37  1  0
 38 42  1  0
 39 38  2  0
 40 35  2  0
 40 39  1  0
 41 40  1  0
 43 44  1  0
 44 46  1  0
 44 47  1  0
 45 43  2  0
 48 23  1  0
 48 49  1  0
 50 48  1  0
 52 53  1  0
 52 51  1  0
 54 55  1  0
 54 53  1  0
 55 57  1  0
 56 67  2  0
 57 62  1  0
 58 66  1  0
 58 68  1  0
 59 65  1  0
 59 61  1  0
 60 66  1  0
 61 60  1  0
 62 61  2  0
 63 64  1  0
 63 57  2  0
 64 59  2  0
 65 58  1  0
 66 56  1  0
 68 70  2  0
 69 68  1  0
 71 69  1  0
 72 81  2  0
 72 77  1  0
 73 69  1  0
 74 73  1  0
 75 76  1  0
 75 74  1  0
 76 72  1  0
 77 73  1  0
 77 78  2  0
 78 79  1  0
 80 79  2  0
 81 80  1  0
 82 56  1  0
 82 87  1  0
 82 83  1  0
 83 86  1  1
 83 84  1  0
 85 83  1  0
 87 90  1  0
 88 92  1  0
 88 87  1  0
 89 88  2  0
 92 91  1  0
 94 95  1  0
 94 92  1  0
 94 93  1  0
M  ISO  4  14 100  15 100  54 101  55 101
M  END
>  <TORSDO>  (43) 
F 25

>  <SCORE>  (43) 
-0.416

>  <name>  (43) 
42

>  <ligand_id>  (43) 
42

>  <original_smiles>  (43) 
[H]c1c([H])c([H])c2c(c1[H])C([H])([H])C([H])([H])C([H])([H])C2([H])N([H])C(=O)C1([H])N(C(=O)C([H])(N([H])C(=O)C([H])(N([H])C([H])([H])[H])C([H])([H])[H])C(C([H])([H])[H])(C([H])([H])[H])C([H])([H])[H])C([H])([H])c2c([H])c(OC([H])([H])C([H])([H])C([H])([H])C([H])([H])[N+]([H])([H])C([H])([H])C([H])([H])C([H])([H])C3(C([H])([H])C(=O)N4C([H])([H])C([H])([H])C([H])([H])C([H])(n5nc(-c6c([H])c([H])c(Oc7c([H])c([H])c(F)c([H])c7F)c([H])c6[H])c(C(=O)N([H])[H])c5N([H])[H])C4([H])[H])C([H])([H])C([H])([H])C4(C([H])([H])C4([H])[H])C3([H])[H])c([H])c([H])c2C1([H])[H]

>  <smiles>  (43) 
[H]c1c([H])c([H])c2c(c1[H])C([H])([H])C([H])([H])C([H])([H])C2([H])N([H])C(=O)C1([H])N(C(=O)C([H])(N([H])C(=O)C([H])(N([H])C([H])([H])[H])C([H])([H])[H])C(C([H])([H])[H])(C([H])([H])[H])C([H])([H])[H])C([H])([H])c2c([H])c(OC([H])([H])C([H])([H])C([H])([H])C([H])([H])[N+]([H])([H])C([H])([H])C([H])([H])C([H])([H])C3(C([H])([H])C(=O)N4C([H])([H])C([H])([H])C([H])([H])C([H])(n5nc(-c6c([H])c([H])c(Oc7c([H])c([H])c(F)c([H])c7F)c([H])c6[H])c(C(=O)N([H])[H])c5N([H])[H])C4([H])[H])C([H])([H])C([H])([H])C4(C([H])([H])C4([H])[H])C3([H])[H])c([H])c([H])c2C1([H])[H]

$$$$
43:0:0
     RDKit          3D

 95103  0  0  1  0  0  0  0  0999 V2000
  -29.1110  -22.1360   20.4230 C   0  0  0  0  0  3  0  0  0  0  0  0
  -27.8340  -21.9960   21.2740 C   0  0  0  0  0  0  0  0  0  0  0  0
  -27.9450  -22.1490   22.5920 N   0  0  0  0  0  0  0  0  0  0  0  0
  -26.7400  -21.7930   20.7500 O   0  0  0  0  0  0  0  0  0  0  0  0
  -28.8460  -22.3280   23.0140 H   0  0  0  0  0  0  0  0  0  0  0  0
  -27.1280  -22.1210   23.1880 H   0  0  0  0  0  0  0  0  0  0  0  0
  -30.1790  -21.0440   20.7820 C   0  0  0  0  0  2  0  0  0  0  0  0
  -30.0720  -18.4000   17.9730 C   0  0  0  0  0  3  0  0  0  0  0  0
  -30.0320  -19.6370   18.6470 C   0  0  0  0  0  3  0  0  0  0  0  0
  -30.1920  -17.1950   18.6950 C   0  0  0  0  0  3  0  0  0  0  0  0
  -30.2230  -18.4650   20.7780 C   0  0  0  0  0  3  0  0  0  0  0  0
  -30.1070  -19.6870   20.0580 C   0  0  0  0  0  0  0  0  0  0  0  0
  -30.2790  -17.2090   20.1100 C   0  0  0  0  0  0  0  0  0  0  0  0
  -31.0600  -14.8910   20.4780 C   0  0  0  0  0  0  0  0  0  0  0  0
  -30.7920  -12.6470   19.5160 C   0  0  0  0  0  2  0  0  0  0  0  0
  -29.9040  -12.8130   18.2620 C   0  0  0  0  0  2  0  0  0  0  0  0
  -28.4200  -12.6820   18.6460 C   0  0  0  0  0  2  0  0  0  0  0  0
  -28.0370  -13.5680   19.8620 C   0  0  0  0  0  3  0  0  0  0  0  0
  -29.0590  -13.4440   21.0190 C   0  0  0  0  0  2  0  0  0  0  0  0
  -30.4020  -13.6990   20.4710 N   0  0  0  0  0  0  0  0  0  0  0  0
  -32.2070  -15.0180   20.0380 O   0  0  0  0  0  0  0  0  0  0  0  0
  -30.3440  -15.9770   20.8440 N   0  0  0  0  0  0  0  0  0  0  0  0
  -29.5690  -15.8080   21.4680 H   0  0  0  0  0  0  0  0  0  0  0  0
  -25.6220  -14.1860   20.4890 C   0  0  0  0  0  0  0  0  0  0  0  0
  -24.5390  -13.4230   20.8370 C   0  0  0  0  0  0  0  0  0  0  0  0
  -24.9930  -12.0660   20.8300 C   0  0  0  0  0  0  0  0  0  0  0  0
  -26.6680  -13.2980   20.3030 N   0  0  0  0  0  0  0  0  0  0  0  0
  -26.2930  -12.0170   20.5630 N   0  0  0  0  0  0  0  0  0  0  0  0
  -24.2480  -10.8130   21.0110 C   0  0  0  0  0  0  0  0  0  0  0  0
  -24.6380   -9.8520   21.9730 C   0  0  0  0  0  3  0  0  0  0  0  0
  -23.8970   -8.6620   22.1370 C   0  0  0  0  0  3  0  0  0  0  0  0
  -22.7510   -8.4230   21.3390 C   0  0  0  0  0  0  0  0  0  0  0  0
  -22.3810   -9.3710   20.3690 C   0  0  0  0  0  3  0  0  0  0  0  0
  -23.1240  -10.5520   20.2030 C   0  0  0  0  0  3  0  0  0  0  0  0
  -21.9850   -7.2840   21.4120 O   0  0  0  0  0  0  0  0  0  0  0  0
  -21.8700   -6.5670   22.5760 C   0  0  0  0  0  0  0  0  0  0  0  0
  -21.3590   -7.1440   23.7580 C   0  0  0  0  0  3  0  0  0  0  0  0
  -21.1990   -6.3550   24.9150 C   0  0  0  0  0  3  0  0  0  0  0  0
  -21.5360   -4.9890   24.8890 C   0  0  0  0  0  0  0  0  0  0  0  0
  -22.0370   -4.4100   23.7100 C   0  0  0  0  0  3  0  0  0  0  0  0
  -22.2020   -5.1970   22.5560 C   0  0  0  0  0  0  0  0  0  0  0  0
  -22.6650   -4.6280   21.4170 F   0  0  0  0  0  0  0  0  0  0  0  0
  -21.3750   -4.2290   25.9970 F   0  0  0  0  0  0  0  0  0  0  0  0
  -23.1400  -13.9140   21.0740 C   0  0  0  0  0  0  0  0  0  0  0  0
  -22.3910  -13.2330   21.9350 N   0  0  0  0  0  0  0  0  0  0  0  0
  -22.7170  -14.9350   20.5330 O   0  0  0  0  0  0  0  0  0  0  0  0
  -22.7390  -12.3960   22.3830 H   0  0  0  0  0  0  0  0  0  0  0  0
  -21.4570  -13.5470   22.1530 H   0  0  0  0  0  0  0  0  0  0  0  0
  -25.8000  -15.5530   20.2930 N   0  0  0  0  0  0  0  0  0  0  0  0
  -25.0370  -16.2190   20.3380 H   0  0  0  0  0  0  0  0  0  0  0  0
  -26.6650  -15.9590   19.9620 H   0  0  0  0  0  0  0  0  0  0  0  0
  -29.6680  -23.5910   20.5590 C   0  0  0  0  0  2  0  0  0  0  0  0
  -28.8020  -24.7430   19.9770 C   0  0  0  0  0  2  0  0  0  0  0  0
  -29.1590  -26.1220   20.5860 C   0  0  0  0  0  2  0  0  0  0  0  0
  -28.9270  -27.2120   19.6910 O   0  0  0  0  0  0  0  0  0  0  0  0
  -24.7700  -31.7470   23.2840 C   0  0  0  0  0  0  0  0  0  0  0  0
  -27.7080  -27.8340   19.8020 C   0  0  0  0  0  0  0  0  0  0  0  0
  -23.6670  -30.4520   21.4870 C   0  0  0  0  0  3  0  0  0  0  0  0
  -25.2230  -29.1620   19.9340 C   0  0  0  0  0  0  0  0  0  0  0  0
  -26.1600  -30.9960   21.3530 C   0  0  0  0  0  2  0  0  0  0  0  0
  -26.3380  -29.7010   20.5880 C   0  0  0  0  0  0  0  0  0  0  0  0
  -27.5860  -29.0460   20.5180 C   0  0  0  0  0  3  0  0  0  0  0  0
  -26.5820  -27.3000   19.1470 C   0  0  0  0  0  3  0  0  0  0  0  0
  -25.3380  -27.9610   19.2120 C   0  0  0  0  0  3  0  0  0  0  0  0
  -23.9260  -29.9300   20.0490 C   0  0  0  0  0  2  0  0  0  0  0  0
  -24.8840  -31.0770   22.1020 N   0  0  0  0  0  0  0  0  0  0  0  0
  -23.6720  -31.8890   23.8360 O   0  0  0  0  0  0  0  0  0  0  0  0
  -23.0730  -29.3010   22.3280 C   0  0  0  0  0  0  0  0  0  0  0  0
  -21.7640  -29.0530   22.1660 N   0  0  0  0  0  0  0  0  0  0  0  0
  -23.7910  -28.6340   23.0800 O   0  0  0  0  0  0  0  0  0  0  0  0
  -21.2420  -29.6520   21.5400 H   0  0  0  0  0  0  0  0  0  0  0  0
  -18.4600  -27.6260   22.5070 C   0  0  0  0  0  0  0  0  0  0  0  0
  -21.0020  -27.9890   22.8220 C   0  0  0  0  0  3  0  0  0  0  0  0
  -21.1820  -26.6400   22.0880 C   0  0  0  0  0  2  0  0  0  0  0  0
  -20.1000  -26.3740   21.0370 C   0  0  0  0  0  2  0  0  0  0  0  0
  -18.7120  -26.3740   21.6830 C   0  0  0  0  0  2  0  0  0  0  0  0
  -19.5390  -28.3920   23.0280 C   0  0  0  0  0  0  0  0  0  0  0  0
  -19.2520  -29.5680   23.7540 C   0  0  0  0  0  3  0  0  0  0  0  0
  -17.9230  -29.9800   23.9630 C   0  0  0  0  0  3  0  0  0  0  0  0
  -16.8600  -29.2090   23.4590 C   0  0  0  0  0  3  0  0  0  0  0  0
  -17.1290  -28.0350   22.7360 C   0  0  0  0  0  3  0  0  0  0  0  0
  -26.0080  -32.3870   23.9850 C   0  0  0  0  0  3  0  0  0  0  0  0
  -25.6390  -33.7520   24.3780 N   0  0  0  0  0  0  0  0  0  0  0  0
  -25.9580  -34.8550   23.6880 C   0  0  0  0  0  0  0  0  0  0  0  0
  -26.6720  -34.8320   22.6820 O   0  0  0  0  0  0  0  0  0  0  0  0
  -25.0080  -33.8430   25.1620 H   0  0  0  0  0  0  0  0  0  0  0  0
  -24.1790  -36.5990   23.3600 C   0  0  0  0  0  1  0  0  0  0  0  0
  -25.4020  -36.1980   24.1980 C   0  0  0  0  0  3  0  0  0  0  0  0
  -27.4670  -37.1150   25.1590 C   0  0  0  0  0  1  0  0  0  0  0  0
  -26.3970  -37.2910   24.1800 N   0  0  0  0  0  0  0  0  0  0  0  0
  -25.9520  -38.1880   24.3540 H   0  0  0  0  0  0  0  0  0  0  0  0
  -26.5120  -31.5600   25.2310 C   0  0  1  0  0  0  0  0  0  0  0  0
  -25.3960  -31.2230   26.2480 C   0  0  0  0  0  1  0  0  0  0  0  0
  -27.1540  -30.2290   24.7750 C   0  0  0  0  0  1  0  0  0  0  0  0
  -27.6160  -32.3520   25.9740 C   0  0  0  0  0  1  0  0  0  0  0  0
  1 52  1  0
  1  7  1  0
  1  2  1  0
  2  3  1  0
  3  5  1  0
  3  6  1  0
  4  2  2  0
  8  9  2  0
  8 10  1  0
  9 12  1  0
 10 13  2  0
 12 11  2  0
 12  7  1  0
 13 11  1  0
 13 22  1  0
 14 22  1  0
 15 20  1  0
 16 17  1  0
 16 15  1  0
 18 17  1  0
 18 27  1  0
 18 19  1  0
 20 14  1  0
 20 19  1  0
 21 14  2  0
 22 23  1  0
 24 25  2  0
 25 44  1  0
 26 25  1  0
 26 29  1  0
 27 24  1  0
 27 28  1  0
 28 26  2  0
 29 30  1  0
 30 31  2  0
 32 35  1  0
 32 31  1  0
 33 32  2  0
 34 33  1  0
 34 29  2  0
 35 36  1  0
 36 37  1  0
 37 38  2  0
 39 38  1  0
 39 43  1  0
 40 39  2  0
 41 36  2  0
 41 40  1  0
 42 41  1  0
 44 45  1  0
 45 48  1  0
 45 47  1  0
 46 44  2  0
 49 50  1  0
 49 24  1  0
 51 49  1  0
 53 52  1  0
 53 54  1  0
 55 57  1  0
 55 54  1  0
 56 67  2  0
 57 62  1  0
 58 66  1  0
 58 68  1  0
 59 65  1  0
 59 61  1  0
 60 66  1  0
 61 60  1  0
 62 61  2  0
 63 64  1  0
 63 57  2  0
 64 59  2  0
 65 58  1  0
 66 56  1  0
 68 70  2  0
 69 68  1  0
 71 69  1  0
 72 81  2  0
 72 77  1  0
 73 69  1  0
 73 77  1  0
 74 73  1  0
 75 76  1  0
 75 74  1  0
 76 72  1  0
 77 78  2  0
 78 79  1  0
 80 79  2  0
 81 80  1  0
 82 56  1  0
 82 83  1  0
 82 92  1  0
 83 86  1  0
 84 88  1  0
 84 83  1  0
 85 84  2  0
 88 87  1  0
 90 88  1  0
 90 91  1  0
 90 89  1  0
 92 95  1  1
 92 93  1  0
 94 92  1  0
M  ISO  4  14 100  22 100  54 101  55 101
M  END
>  <TORSDO>  (44) 
F 22

>  <SCORE>  (44) 
-11.265

>  <name>  (44) 
43

>  <ligand_id>  (44) 
43

>  <original_smiles>  (44) 
[H]c1c([H])c([H])c2c(c1[H])C([H])([H])C([H])([H])C([H])([H])C2([H])N([H])C(=O)C1([H])N(C(=O)C([H])(N([H])C(=O)C([H])(N([H])C([H])([H])[H])C([H])([H])[H])C(C([H])([H])[H])(C([H])([H])[H])C([H])([H])[H])C([H])([H])c2c([H])c(OC([H])([H])C([H])([H])C([H])([H])C([H])(C(=O)N([H])[H])C([H])([H])c3c([H])c([H])c([H])c(N([H])C(=O)N4C([H])([H])C([H])([H])C([H])([H])C([H])(n5nc(-c6c([H])c([H])c(Oc7c([H])c([H])c(F)c([H])c7F)c([H])c6[H])c(C(=O)N([H])[H])c5N([H])[H])C4([H])[H])c3[H])c([H])c([H])c2C1([H])[H]

>  <smiles>  (44) 
[H]c1c([H])c([H])c2c(c1[H])C([H])([H])C([H])([H])C([H])([H])C2([H])N([H])C(=O)C1([H])N(C(=O)C([H])(N([H])C(=O)C([H])(N([H])C([H])([H])[H])C([H])([H])[H])C(C([H])([H])[H])(C([H])([H])[H])C([H])([H])[H])C([H])([H])c2c([H])c(OC([H])([H])C([H])([H])C([H])([H])C([H])(C(=O)N([H])[H])C([H])([H])c3c([H])c([H])c([H])c(N([H])C(=O)N4C([H])([H])C([H])([H])C([H])([H])C([H])(n5nc(-c6c([H])c([H])c(Oc7c([H])c([H])c(F)c([H])c7F)c([H])c6[H])c(C(=O)N([H])[H])c5N([H])[H])C4([H])[H])c3[H])c([H])c([H])c2C1([H])[H]

$$$$
44:0:0
     RDKit          3D

 97105  0  0  1  0  0  0  0  0999 V2000
  -31.1110  -20.3630   21.5040 C   0  0  0  0  0  2  0  0  0  0  0  0
  -30.2060  -21.2270   20.7280 N   0  0  0  0  0  4  0  0  0  0  0  0
  -29.4020  -21.4110   21.3050 H   0  0  0  0  0  0  0  0  0  0  0  0
  -29.8910  -20.7280   19.9120 H   0  0  0  0  0  0  0  0  0  0  0  0
  -30.7620  -22.5320   20.3290 C   0  0  0  0  0  2  0  0  0  0  0  0
  -29.7080  -23.3150   19.5320 C   0  0  0  0  0  2  0  0  0  0  0  0
  -29.9870  -24.8210   19.4380 C   0  0  0  0  0  2  0  0  0  0  0  0
  -28.7130  -25.5790   19.0600 C   0  0  0  0  0  2  0  0  0  0  0  0
  -28.8520  -26.9430   19.4230 O   0  0  0  0  0  0  0  0  0  0  0  0
  -25.5530  -31.4630   23.7820 C   0  0  0  0  0  0  0  0  0  0  0  0
  -27.6990  -27.6620   19.6500 C   0  0  0  0  0  0  0  0  0  0  0  0
  -24.1540  -30.5070   21.9800 C   0  0  0  0  0  3  0  0  0  0  0  0
  -25.4060  -29.2300   20.1680 C   0  0  0  0  0  0  0  0  0  0  0  0
  -26.6800  -30.7640   21.6750 C   0  0  0  0  0  2  0  0  0  0  0  0
  -26.6290  -29.5580   20.7640 C   0  0  0  0  0  0  0  0  0  0  0  0
  -27.7750  -28.7780   20.5100 C   0  0  0  0  0  3  0  0  0  0  0  0
  -26.4540  -27.3450   19.0530 C   0  0  0  0  0  3  0  0  0  0  0  0
  -25.3100  -28.1190   19.3150 C   0  0  0  0  0  3  0  0  0  0  0  0
  -24.2290  -30.1240   20.4790 C   0  0  0  0  0  2  0  0  0  0  0  0
  -25.4850  -30.9120   22.5370 N   0  0  0  0  0  0  0  0  0  0  0  0
  -24.5290  -31.6740   24.4450 O   0  0  0  0  0  0  0  0  0  0  0  0
  -23.4960  -29.3410   22.7510 C   0  0  0  0  0  0  0  0  0  0  0  0
  -22.1860  -29.1450   22.5310 N   0  0  0  0  0  0  0  0  0  0  0  0
  -24.1610  -28.6240   23.5040 O   0  0  0  0  0  0  0  0  0  0  0  0
  -21.7110  -29.7820   21.9070 H   0  0  0  0  0  0  0  0  0  0  0  0
  -18.8850  -27.6790   22.5110 C   0  0  0  0  0  0  0  0  0  0  0  0
  -21.3640  -28.0880   23.1180 C   0  0  0  0  0  3  0  0  0  0  0  0
  -21.6470  -26.7240   22.4490 C   0  0  0  0  0  2  0  0  0  0  0  0
  -20.7020  -26.4160   21.2830 C   0  0  0  0  0  2  0  0  0  0  0  0
  -19.2470  -26.4090   21.7600 C   0  0  0  0  0  2  0  0  0  0  0  0
  -19.8810  -28.4770   23.1350 C   0  0  0  0  0  0  0  0  0  0  0  0
  -19.4950  -29.6670   23.7890 C   0  0  0  0  0  3  0  0  0  0  0  0
  -18.1440  -30.0620   23.8280 C   0  0  0  0  0  3  0  0  0  0  0  0
  -17.1600  -29.2620   23.2220 C   0  0  0  0  0  3  0  0  0  0  0  0
  -17.5310  -28.0720   22.5700 C   0  0  0  0  0  3  0  0  0  0  0  0
  -26.9170  -31.8740   24.4200 C   0  0  0  0  0  3  0  0  0  0  0  0
  -27.4220  -30.8600   25.5180 C   0  0  1  0  0  0  0  0  0  0  0  0
  -26.3490  -30.4970   26.5700 C   0  0  0  0  0  1  0  0  0  0  0  0
  -27.9050  -29.5450   24.8610 C   0  0  0  0  0  1  0  0  0  0  0  0
  -28.6390  -31.4560   26.2630 C   0  0  0  0  0  1  0  0  0  0  0  0
  -26.7490  -33.2170   24.9900 N   0  0  0  0  0  0  0  0  0  0  0  0
  -27.1990  -34.3450   24.4230 C   0  0  0  0  0  0  0  0  0  0  0  0
  -27.8690  -34.3510   23.3870 O   0  0  0  0  0  0  0  0  0  0  0  0
  -26.1640  -33.2910   25.8090 H   0  0  0  0  0  0  0  0  0  0  0  0
  -25.6860  -36.3510   24.3700 C   0  0  0  0  0  1  0  0  0  0  0  0
  -26.8470  -35.6750   25.1150 C   0  0  0  0  0  3  0  0  0  0  0  0
  -29.0390  -36.1480   26.1140 C   0  0  0  0  0  1  0  0  0  0  0  0
  -27.9900  -36.6090   25.2080 N   0  0  0  0  0  0  0  0  0  0  0  0
  -27.6810  -37.5250   25.5210 H   0  0  0  0  0  0  0  0  0  0  0  0
  -30.3480  -19.1250   22.0130 C   0  0  0  0  0  2  0  0  0  0  0  0
  -31.5000  -15.7890   23.6760 C   0  0  0  0  0  2  0  0  0  0  0  0
  -30.6400  -17.0310   23.4100 C   0  0  0  0  0  2  0  0  0  0  0  0
  -31.6780  -14.9590   22.3960 C   0  0  0  0  0  2  0  0  0  0  0  0
  -31.4420  -17.0680   21.0180 C   0  0  0  0  0  2  0  0  0  0  0  0
  -31.2440  -17.9080   22.2950 C   0  0  0  0  0  3  0  0  0  0  0  0
  -32.2910  -15.8070   21.2570 C   0  0  0  0  0  3  0  0  0  0  0  0
  -32.4850  -15.0330   19.9330 C   0  0  0  0  0  3  0  0  0  0  0  0
  -30.8740  -13.8580   18.4060 C   0  0  0  0  0  0  0  0  0  0  0  0
  -30.0830  -11.7060   17.5340 C   0  0  0  0  0  2  0  0  0  0  0  0
  -28.8280  -11.7440   16.6540 C   0  0  0  0  0  2  0  0  0  0  0  0
  -27.5610  -11.6840   17.5220 C   0  0  0  0  0  2  0  0  0  0  0  0
  -27.5710  -12.7450   18.6500 C   0  0  0  0  0  3  0  0  0  0  0  0
  -28.9000  -12.7130   19.4390 C   0  0  0  0  0  2  0  0  0  0  0  0
  -30.0280  -12.8090   18.4960 N   0  0  0  0  0  0  0  0  0  0  0  0
  -31.4390  -14.2070   17.3640 O   0  0  0  0  0  0  0  0  0  0  0  0
  -31.2870  -14.2530   19.6150 N   0  0  0  0  0  0  0  0  0  0  0  0
  -30.8050  -13.8330   20.3940 H   0  0  0  0  0  0  0  0  0  0  0  0
  -25.6530  -13.5540   20.1690 C   0  0  0  0  0  0  0  0  0  0  0  0
  -24.6450  -12.8820   20.8070 C   0  0  0  0  0  0  0  0  0  0  0  0
  -24.8430  -11.5000   20.5090 C   0  0  0  0  0  0  0  0  0  0  0  0
  -26.4140  -12.5870   19.5320 N   0  0  0  0  0  0  0  0  0  0  0  0
  -25.9440  -11.3370   19.7870 N   0  0  0  0  0  0  0  0  0  0  0  0
  -24.0180  -10.3260   20.8240 C   0  0  0  0  0  0  0  0  0  0  0  0
  -24.4980   -9.2860   21.6510 C   0  0  0  0  0  3  0  0  0  0  0  0
  -23.6800   -8.1760   21.9530 C   0  0  0  0  0  3  0  0  0  0  0  0
  -22.3670   -8.0990   21.4310 C   0  0  0  0  0  0  0  0  0  0  0  0
  -21.9030   -9.1250   20.5910 C   0  0  0  0  0  3  0  0  0  0  0  0
  -22.7190  -10.2260   20.2860 C   0  0  0  0  0  3  0  0  0  0  0  0
  -21.5110   -7.0470   21.6500 O   0  0  0  0  0  0  0  0  0  0  0  0
  -21.5020   -6.3610   22.8380 C   0  0  0  0  0  0  0  0  0  0  0  0
  -21.2780   -7.0100   24.0720 C   0  0  0  0  0  3  0  0  0  0  0  0
  -21.2090   -6.2560   25.2610 C   0  0  0  0  0  3  0  0  0  0  0  0
  -21.3530   -4.8570   25.2190 C   0  0  0  0  0  0  0  0  0  0  0  0
  -21.5720   -4.2090   23.9900 C   0  0  0  0  0  3  0  0  0  0  0  0
  -21.6430   -4.9580   22.8030 C   0  0  0  0  0  0  0  0  0  0  0  0
  -21.8320   -4.3270   21.6190 F   0  0  0  0  0  0  0  0  0  0  0  0
  -21.2800   -4.1320   26.3590 F   0  0  0  0  0  0  0  0  0  0  0  0
  -23.5050  -13.4920   21.5710 C   0  0  0  0  0  0  0  0  0  0  0  0
  -23.0330  -12.8160   22.6130 N   0  0  0  0  0  0  0  0  0  0  0  0
  -23.0550  -14.5980   21.2750 O   0  0  0  0  0  0  0  0  0  0  0  0
  -23.4160  -11.9180   22.8690 H   0  0  0  0  0  0  0  0  0  0  0  0
  -22.2800  -13.2030   23.1640 H   0  0  0  0  0  0  0  0  0  0  0  0
  -25.9750  -14.9040   20.0620 N   0  0  0  0  0  0  0  0  0  0  0  0
  -25.4060  -15.6350   20.4780 H   0  0  0  0  0  0  0  0  0  0  0  0
  -26.7530  -15.2650   19.5240 H   0  0  0  0  0  0  0  0  0  0  0  0
  -34.0100  -13.4380   18.6010 C   0  0  0  0  0  1  0  0  0  0  0  0
  -33.7330  -14.1240   19.9460 C   0  0  0  0  0  2  0  0  0  0  0  0
  1 50  1  0
  2  3  1  0
  2  1  1  0
  4  2  1  0
  5  2  1  0
  6  5  1  0
  7  6  1  0
  8  9  1  0
  8  7  1  0
  9 11  1  0
 10 21  2  0
 11 16  1  0
 12 20  1  0
 12 22  1  0
 13 19  1  0
 13 15  1  0
 14 20  1  0
 15 14  1  0
 16 15  2  0
 17 18  1  0
 17 11  2  0
 18 13  2  0
 19 12  1  0
 20 10  1  0
 22 24  2  0
 23 22  1  0
 25 23  1  0
 26 35  2  0
 26 31  1  0
 27 23  1  0
 27 31  1  0
 28 27  1  0
 29 30  1  0
 29 28  1  0
 30 26  1  0
 31 32  2  0
 32 33  1  0
 34 33  2  0
 35 34  1  0
 36 10  1  0
 36 41  1  0
 36 37  1  0
 37 40  1  1
 37 38  1  0
 39 37  1  0
 41 44  1  0
 42 41  1  0
 42 46  1  0
 43 42  2  0
 46 45  1  0
 46 48  1  0
 48 49  1  0
 48 47  1  0
 52 51  1  0
 53 51  1  0
 54 56  1  0
 54 55  1  0
 55 50  1  0
 55 52  1  0
 56 57  1  0
 56 53  1  0
 57 97  1  0
 58 64  1  0
 58 66  1  0
 59 64  1  0
 60 61  1  0
 60 59  1  0
 62 61  1  0
 62 63  1  0
 62 71  1  0
 64 63  1  0
 65 58  2  0
 66 57  1  0
 66 67  1  0
 68 69  2  0
 69 88  1  0
 70 69  1  0
 70 73  1  0
 71 72  1  0
 71 68  1  0
 72 70  2  0
 73 74  1  0
 74 75  2  0
 76 79  1  0
 76 75  1  0
 77 76  2  0
 78 77  1  0
 78 73  2  0
 79 80  1  0
 80 81  1  0
 81 82  2  0
 83 82  1  0
 83 87  1  0
 84 83  2  0
 85 80  2  0
 85 84  1  0
 86 85  1  0
 88 89  1  0
 89 91  1  0
 89 92  1  0
 90 88  2  0
 93 68  1  0
 93 94  1  0
 95 93  1  0
 96 97  1  0
M  ISO  4   8 101   9 101  58 100  66 100
M  END
>  <TORSDO>  (45) 
F 25

>  <SCORE>  (45) 
-1.404

>  <name>  (45) 
44

>  <ligand_id>  (45) 
44

>  <original_smiles>  (45) 
[H]c1c([H])c([H])c2c(c1[H])C([H])([H])C([H])([H])C([H])([H])C2([H])N([H])C(=O)C1([H])N(C(=O)C([H])(N([H])C(=O)C([H])(N([H])C([H])([H])[H])C([H])([H])[H])C(C([H])([H])[H])(C([H])([H])[H])C([H])([H])[H])C([H])([H])c2c([H])c(OC([H])([H])C([H])([H])C([H])([H])C([H])([H])[N+]([H])([H])C([H])([H])C([H])([H])C3([H])C([H])([H])C([H])([H])C([H])([H])C([H])(C([H])(N([H])C(=O)N4C([H])([H])C([H])([H])C([H])([H])C([H])(n5nc(-c6c([H])c([H])c(Oc7c([H])c([H])c(F)c([H])c7F)c([H])c6[H])c(C(=O)N([H])[H])c5N([H])[H])C4([H])[H])C([H])([H])C([H])([H])[H])C3([H])[H])c([H])c([H])c2C1([H])[H]

>  <smiles>  (45) 
[H]c1c([H])c([H])c2c(c1[H])C([H])([H])C([H])([H])C([H])([H])C2([H])N([H])C(=O)C1([H])N(C(=O)C([H])(N([H])C(=O)C([H])(N([H])C([H])([H])[H])C([H])([H])[H])C(C([H])([H])[H])(C([H])([H])[H])C([H])([H])[H])C([H])([H])c2c([H])c(OC([H])([H])C([H])([H])C([H])([H])C([H])([H])[N+]([H])([H])C([H])([H])C([H])([H])C3([H])C([H])([H])C([H])([H])C([H])([H])C([H])(C([H])(N([H])C(=O)N4C([H])([H])C([H])([H])C([H])([H])C([H])(n5nc(-c6c([H])c([H])c(Oc7c([H])c([H])c(F)c([H])c7F)c([H])c6[H])c(C(=O)N([H])[H])c5N([H])[H])C4([H])[H])C([H])([H])C([H])([H])[H])C3([H])[H])c([H])c([H])c2C1([H])[H]

$$$$
45:0:0
     RDKit          3D

 96103  0  0  1  0  0  0  0  0999 V2000
  -27.4670  -22.1500   22.6720 C   0  0  0  0  0  2  0  0  0  0  0  0
  -26.4420  -23.2390   22.2590 C   0  0  0  0  0  2  0  0  0  0  0  0
  -26.6940  -23.8060   20.8450 C   0  0  0  0  0  2  0  0  0  0  0  0
  -27.3630  -25.1970   20.7220 C   0  0  0  0  0  2  0  0  0  0  0  0
  -28.2900  -25.2670   19.4800 C   0  0  0  0  0  3  0  0  0  0  0  0
  -27.8380  -23.3140   17.7830 C   0  0  0  0  0  1  0  0  0  0  0  0
  -27.6310  -24.7890   18.1620 C   0  0  0  0  0  2  0  0  0  0  0  0
  -29.1430  -26.5670   19.3800 C   0  0  0  0  0  2  0  0  0  0  0  0
  -28.6760  -27.8960   19.0830 O   0  0  0  0  0  0  0  0  0  0  0  0
  -24.5720  -31.9100   23.3530 C   0  0  0  0  0  0  0  0  0  0  0  0
  -27.4260  -28.3630   19.4120 C   0  0  0  0  0  0  0  0  0  0  0  0
  -23.3940  -30.5940   21.6270 C   0  0  0  0  0  3  0  0  0  0  0  0
  -24.8710  -29.5000   19.8690 C   0  0  0  0  0  0  0  0  0  0  0  0
  -25.8210  -31.3240   21.2750 C   0  0  0  0  0  2  0  0  0  0  0  0
  -26.0120  -30.0760   20.4420 C   0  0  0  0  0  0  0  0  0  0  0  0
  -27.2900  -29.5120   20.2260 C   0  0  0  0  0  3  0  0  0  0  0  0
  -26.2720  -27.8540   18.7840 C   0  0  0  0  0  3  0  0  0  0  0  0
  -24.9970  -28.3740   19.0490 C   0  0  0  0  0  3  0  0  0  0  0  0
  -23.5390  -30.1600   20.1450 C   0  0  0  0  0  2  0  0  0  0  0  0
  -24.6170  -31.2870   22.1420 N   0  0  0  0  0  0  0  0  0  0  0  0
  -23.5270  -31.9440   24.0180 O   0  0  0  0  0  0  0  0  0  0  0  0
  -22.9930  -29.3610   22.4650 C   0  0  0  0  0  0  0  0  0  0  0  0
  -21.7450  -28.9030   22.2830 N   0  0  0  0  0  0  0  0  0  0  0  0
  -23.7960  -28.8220   23.2290 O   0  0  0  0  0  0  0  0  0  0  0  0
  -21.1500  -29.3850   21.6200 H   0  0  0  0  0  0  0  0  0  0  0  0
  -18.7580  -26.8880   22.5280 C   0  0  0  0  0  0  0  0  0  0  0  0
  -21.1580  -27.7470   22.9520 C   0  0  0  0  0  3  0  0  0  0  0  0
  -21.6430  -26.4320   22.3000 C   0  0  0  0  0  2  0  0  0  0  0  0
  -20.6950  -25.9150   21.2150 C   0  0  0  0  0  2  0  0  0  0  0  0
  -19.2960  -25.6720   21.7910 C   0  0  0  0  0  2  0  0  0  0  0  0
  -19.6380  -27.8660   23.0670 C   0  0  0  0  0  0  0  0  0  0  0  0
  -19.0870  -28.9890   23.7250 C   0  0  0  0  0  3  0  0  0  0  0  0
  -17.6960  -29.1430   23.8520 C   0  0  0  0  0  3  0  0  0  0  0  0
  -16.8330  -28.1650   23.3310 C   0  0  0  0  0  3  0  0  0  0  0  0
  -17.3640  -27.0390   22.6770 C   0  0  0  0  0  3  0  0  0  0  0  0
  -25.8220  -32.6310   23.9470 C   0  0  0  0  0  3  0  0  0  0  0  0
  -26.4100  -31.9110   25.2210 C   0  0  1  0  0  0  0  0  0  0  0  0
  -25.3470  -31.5870   26.2940 C   0  0  0  0  0  1  0  0  0  0  0  0
  -27.1070  -30.5880   24.8350 C   0  0  0  0  0  1  0  0  0  0  0  0
  -27.4870  -32.8040   25.8790 C   0  0  0  0  0  1  0  0  0  0  0  0
  -25.4230  -34.0110   24.2620 N   0  0  0  0  0  0  0  0  0  0  0  0
  -25.6630  -35.0700   23.4780 C   0  0  0  0  0  0  0  0  0  0  0  0
  -26.3220  -34.9990   22.4370 O   0  0  0  0  0  0  0  0  0  0  0  0
  -24.8290  -34.1340   25.0700 H   0  0  0  0  0  0  0  0  0  0  0  0
  -23.8050  -36.7280   23.1390 C   0  0  0  0  0  1  0  0  0  0  0  0
  -25.0880  -36.4260   23.9280 C   0  0  0  0  0  3  0  0  0  0  0  0
  -27.1750  -37.4690   24.6970 C   0  0  0  0  0  1  0  0  0  0  0  0
  -26.0430  -37.5470   23.7750 N   0  0  0  0  0  0  0  0  0  0  0  0
  -25.5760  -38.4380   23.9210 H   0  0  0  0  0  0  0  0  0  0  0  0
  -27.7740  -21.0910   21.5860 C   0  0  0  0  0  2  0  0  0  0  0  0
  -29.2900  -20.8590   21.3750 C   0  0  0  0  0  2  0  0  0  0  0  0
  -29.6080  -19.7890   20.3050 C   0  0  0  0  0  2  0  0  0  0  0  0
  -30.8660  -18.9270   20.5790 C   0  0  0  0  0  2  0  0  0  0  0  0
  -31.9830  -19.0740   19.5130 C   0  0  0  0  0  2  0  0  0  0  0  0
  -33.4750  -15.5590   20.1180 C   0  0  0  0  0  0  0  0  0  0  0  0
  -33.3720  -13.1080   20.4260 C   0  0  0  0  0  2  0  0  0  0  0  0
  -32.6660  -12.4580   19.2180 C   0  0  0  0  0  2  0  0  0  0  0  0
  -31.1370  -12.4540   19.4080 C   0  0  0  0  0  2  0  0  0  0  0  0
  -30.5870  -13.8460   19.8170 C   0  0  0  0  0  3  0  0  0  0  0  0
  -31.4060  -14.4310   20.9890 C   0  0  0  0  0  2  0  0  0  0  0  0
  -32.8300  -14.4650   20.6030 N   0  0  0  0  0  0  0  0  0  0  0  0
  -34.5930  -15.5310   19.5800 O   0  0  0  0  0  0  0  0  0  0  0  0
  -32.9390  -17.9020   19.4200 C   0  0  0  0  0  0  0  0  0  0  0  0
  -32.7440  -16.7960   20.1890 N   0  0  0  0  0  0  0  0  0  0  0  0
  -33.9360  -18.0200   18.5090 N   0  0  0  0  0  4  0  0  0  0  0  0
  -31.9340  -16.8530   20.7830 H   0  0  0  0  0  0  0  0  0  0  0  0
  -34.0050  -18.8130   17.8810 H   0  0  0  0  0  0  0  0  0  0  0  0
  -34.6340  -17.2860   18.4070 H   0  0  0  0  0  0  0  0  0  0  0  0
  -28.2330  -14.8150   20.2210 C   0  0  0  0  0  0  0  0  0  0  0  0
  -27.0320  -14.2170   20.4950 C   0  0  0  0  0  0  0  0  0  0  0  0
  -27.2990  -12.8150   20.5640 C   0  0  0  0  0  0  0  0  0  0  0  0
  -29.1610  -13.7880   20.1410 N   0  0  0  0  0  0  0  0  0  0  0  0
  -28.5940  -12.5830   20.4000 N   0  0  0  0  0  0  0  0  0  0  0  0
  -26.3850  -11.6750   20.7210 C   0  0  0  0  0  0  0  0  0  0  0  0
  -26.4370  -10.8380   21.8600 C   0  0  0  0  0  3  0  0  0  0  0  0
  -25.5390   -9.7590   21.9970 C   0  0  0  0  0  3  0  0  0  0  0  0
  -24.5730   -9.5090   20.9930 C   0  0  0  0  0  0  0  0  0  0  0  0
  -24.5390  -10.3330   19.8550 C   0  0  0  0  0  3  0  0  0  0  0  0
  -25.4360  -11.4030   19.7170 C   0  0  0  0  0  3  0  0  0  0  0  0
  -23.6760   -8.4670   21.0270 O   0  0  0  0  0  0  0  0  0  0  0  0
  -23.0350   -8.1080   22.1860 C   0  0  0  0  0  0  0  0  0  0  0  0
  -22.2680   -9.0300   22.9310 C   0  0  0  0  0  3  0  0  0  0  0  0
  -21.5680   -8.6030   24.0780 C   0  0  0  0  0  3  0  0  0  0  0  0
  -21.6260   -7.2540   24.4760 C   0  0  0  0  0  0  0  0  0  0  0  0
  -22.3870   -6.3340   23.7360 C   0  0  0  0  0  3  0  0  0  0  0  0
  -23.0870   -6.7590   22.5930 C   0  0  0  0  0  0  0  0  0  0  0  0
  -23.8020   -5.8630   21.8690 F   0  0  0  0  0  0  0  0  0  0  0  0
  -20.9490   -6.8410   25.5730 F   0  0  0  0  0  0  0  0  0  0  0  0
  -25.6980  -14.8920   20.5990 C   0  0  0  0  0  0  0  0  0  0  0  0
  -24.7960  -14.3580   21.4170 N   0  0  0  0  0  0  0  0  0  0  0  0
  -25.4590  -15.9330   19.9870 O   0  0  0  0  0  0  0  0  0  0  0  0
  -24.9950  -13.5160   21.9350 H   0  0  0  0  0  0  0  0  0  0  0  0
  -23.8960  -14.8010   21.5270 H   0  0  0  0  0  0  0  0  0  0  0  0
  -28.6130  -16.1410   20.0280 N   0  0  0  0  0  0  0  0  0  0  0  0
  -27.9450  -16.9020   20.0590 H   0  0  0  0  0  0  0  0  0  0  0  0
  -29.5500  -16.4430   19.7970 H   0  0  0  0  0  0  0  0  0  0  0  0
  2  1  1  0
  3  2  1  0
  4  3  1  0
  5  7  1  0
  5  4  1  0
  6  7  1  0
  8  5  1  0
  9  8  1  0
  9 11  1  0
 10 21  2  0
 11 16  1  0
 12 20  1  0
 12 22  1  0
 13 19  1  0
 13 15  1  0
 14 20  1  0
 15 14  1  0
 16 15  2  0
 17 18  1  0
 17 11  2  0
 18 13  2  0
 19 12  1  0
 20 10  1  0
 22 24  2  0
 23 22  1  0
 25 23  1  0
 26 35  2  0
 26 31  1  0
 27 23  1  0
 27 31  1  0
 28 27  1  0
 29 30  1  0
 29 28  1  0
 30 26  1  0
 31 32  2  0
 32 33  1  0
 34 33  2  0
 35 34  1  0
 36 10  1  0
 36 41  1  0
 36 37  1  0
 37 40  1  1
 37 38  1  0
 39 37  1  0
 41 44  1  0
 42 46  1  0
 42 41  1  0
 43 42  2  0
 46 45  1  0
 48 49  1  0
 48 46  1  0
 48 47  1  0
 50  1  1  0
 51 50  1  0
 52 53  1  0
 52 51  1  0
 54 53  1  0
 55 64  1  0
 55 61  1  0
 56 61  1  0
 57 58  1  0
 57 56  1  0
 59 58  1  0
 59 72  1  0
 59 60  1  0
 61 60  1  0
 62 55  2  0
 63 54  1  0
 63 64  1  0
 64 66  1  0
 65 63  2  0
 67 65  1  0
 68 65  1  0
 69 70  2  0
 70 71  1  0
 70 89  1  0
 71 74  1  0
 72 69  1  0
 72 73  1  0
 73 71  2  0
 74 75  1  0
 75 76  2  0
 77 80  1  0
 77 76  1  0
 78 77  2  0
 79 78  1  0
 79 74  2  0
 80 81  1  0
 81 86  2  0
 81 82  1  0
 82 83  2  0
 83 84  1  0
 84 88  1  0
 85 84  2  0
 86 85  1  0
 87 86  1  0
 89 90  1  0
 90 93  1  0
 90 92  1  0
 91 89  2  0
 94 95  1  0
 94 69  1  0
 96 94  1  0
M  ISO  4   8 101   9 101  55 100  64 100
M  END
>  <TORSDO>  (46) 
F 27

>  <SCORE>  (46) 
-3.818

>  <name>  (46) 
45

>  <ligand_id>  (46) 
45

>  <original_smiles>  (46) 
[H]c1c([H])c([H])c2c(c1[H])C([H])([H])C([H])([H])C([H])([H])C2([H])N([H])C(=O)C1([H])N(C(=O)C([H])(N([H])C(=O)C([H])(N([H])C([H])([H])[H])C([H])([H])[H])C(C([H])([H])[H])(C([H])([H])[H])C([H])([H])[H])C([H])([H])c2c([H])c(OC([H])([H])C([H])(C([H])([H])C([H])([H])[H])C([H])([H])C([H])([H])C([H])([H])C([H])([H])C([H])([H])C([H])([H])C([H])([H])C([H])([H])C([H])([H])C(N([H])C(=O)N3C([H])([H])C([H])([H])C([H])([H])C([H])(n4nc(-c5c([H])c([H])c(Oc6c([H])c([H])c(F)c([H])c6F)c([H])c5[H])c(C(=O)N([H])[H])c4N([H])[H])C3([H])[H])=[N+]([H])[H])c([H])c([H])c2C1([H])[H]

>  <smiles>  (46) 
[H]c1c([H])c([H])c2c(c1[H])C([H])([H])C([H])([H])C([H])([H])C2([H])N([H])C(=O)C1([H])N(C(=O)C([H])(N([H])C(=O)C([H])(N([H])C([H])([H])[H])C([H])([H])[H])C(C([H])([H])[H])(C([H])([H])[H])C([H])([H])[H])C([H])([H])c2c([H])c(OC([H])([H])C([H])(C([H])([H])C([H])([H])[H])C([H])([H])C([H])([H])C([H])([H])C([H])([H])C([H])([H])C([H])([H])C([H])([H])C([H])([H])C([H])([H])C(N([H])C(=O)N3C([H])([H])C([H])([H])C([H])([H])C([H])(n4nc(-c5c([H])c([H])c(Oc6c([H])c([H])c(F)c([H])c6F)c([H])c5[H])c(C(=O)N([H])[H])c4N([H])[H])C3([H])[H])=[N+]([H])[H])c([H])c([H])c2C1([H])[H]

$$$$
46:0:0
     RDKit          3D

 98106  0  0  1  0  0  0  0  0999 V2000
  -27.7830  -22.1710   19.2100 C   0  0  0  0  0  3  0  0  0  0  0  0
  -29.1740  -22.0290   19.4250 C   0  0  0  0  0  0  0  0  0  0  0  0
  -26.8750  -21.1180   19.0690 C   0  0  0  0  0  0  0  0  0  0  0  0
  -29.7070  -20.6060   19.2060 C   0  0  0  0  0  0  0  0  0  0  0  0
  -28.7280  -19.5520   19.3320 C   0  0  0  0  0  0  0  0  0  0  0  0
  -27.3290  -19.7920   19.2120 C   0  0  0  0  0  0  0  0  0  0  0  0
  -24.8770  -22.4420   19.9560 C   0  0  0  0  0  1  0  0  0  0  0  0
  -25.4060  -21.4920   18.8680 C   0  0  0  0  0  2  0  0  0  0  0  0
  -29.5180  -18.0390   21.2250 C   0  0  0  0  0  1  0  0  0  0  0  0
  -29.1460  -18.1240   19.7350 C   0  0  0  0  0  2  0  0  0  0  0  0
  -29.7530  -23.4990   19.9590 C   0  0  0  0  0  3  0  0  0  0  0  0
  -28.7640  -24.9180   20.0360 C   0  0  0  0  0  3  0  0  0  0  0  0
  -28.9900  -26.4370   20.3970 O   0  0  0  0  0  0  0  0  0  0  0  0
  -24.8930  -31.8160   23.4230 C   0  0  0  0  0  0  0  0  0  0  0  0
  -27.9060  -27.4060   20.3140 C   0  0  0  0  0  0  0  0  0  0  0  0
  -23.8770  -30.4640   21.6340 C   0  0  0  0  0  3  0  0  0  0  0  0
  -25.4980  -29.0550   20.2170 C   0  0  0  0  0  0  0  0  0  0  0  0
  -26.4200  -30.8650   21.6500 C   0  0  0  0  0  2  0  0  0  0  0  0
  -26.6130  -29.5160   20.9290 C   0  0  0  0  0  0  0  0  0  0  0  0
  -27.8190  -28.7100   20.9600 C   0  0  0  0  0  3  0  0  0  0  0  0
  -26.7630  -27.0670   19.5550 C   0  0  0  0  0  3  0  0  0  0  0  0
  -25.5880  -27.8470   19.5170 C   0  0  0  0  0  3  0  0  0  0  0  0
  -24.2200  -29.8840   20.2370 C   0  0  0  0  0  2  0  0  0  0  0  0
  -25.0790  -31.0660   22.2930 N   0  0  0  0  0  0  0  0  0  0  0  0
  -23.7610  -32.0110   23.8930 O   0  0  0  0  0  0  0  0  0  0  0  0
  -23.1970  -29.3640   22.4900 C   0  0  0  0  0  0  0  0  0  0  0  0
  -21.8880  -29.1410   22.2770 N   0  0  0  0  0  0  0  0  0  0  0  0
  -23.8520  -28.7160   23.3100 O   0  0  0  0  0  0  0  0  0  0  0  0
  -21.4130  -29.7220   21.6000 H   0  0  0  0  0  0  0  0  0  0  0  0
  -18.5400  -27.7790   22.5360 C   0  0  0  0  0  0  0  0  0  0  0  0
  -21.0720  -28.1170   22.9380 C   0  0  0  0  0  3  0  0  0  0  0  0
  -21.2580  -26.7360   22.2680 C   0  0  0  0  0  2  0  0  0  0  0  0
  -20.2150  -26.4480   21.1840 C   0  0  0  0  0  2  0  0  0  0  0  0
  -18.8000  -26.4900   21.7720 C   0  0  0  0  0  2  0  0  0  0  0  0
  -19.6070  -28.5510   23.0690 C   0  0  0  0  0  0  0  0  0  0  0  0
  -19.3100  -29.7550   23.7440 C   0  0  0  0  0  3  0  0  0  0  0  0
  -17.9790  -30.1870   23.8940 C   0  0  0  0  0  3  0  0  0  0  0  0
  -16.9260  -29.4110   23.3780 C   0  0  0  0  0  3  0  0  0  0  0  0
  -17.2070  -28.2110   22.7010 C   0  0  0  0  0  3  0  0  0  0  0  0
  -26.0900  -32.4810   24.1680 C   0  0  0  0  0  3  0  0  0  0  0  0
  -26.4960  -31.7190   25.4910 C   0  0  1  0  0  0  0  0  0  0  0  0
  -25.3050  -31.4370   26.4370 C   0  0  0  0  0  1  0  0  0  0  0  0
  -27.1660  -30.3650   25.1640 C   0  0  0  0  0  1  0  0  0  0  0  0
  -27.5460  -32.5490   26.2690 C   0  0  0  0  0  1  0  0  0  0  0  0
  -25.7120  -33.8710   24.4710 N   0  0  0  0  0  0  0  0  0  0  0  0
  -26.0560  -34.9350   23.7350 C   0  0  0  0  0  0  0  0  0  0  0  0
  -26.7910  -34.8550   22.7470 O   0  0  0  0  0  0  0  0  0  0  0  0
  -25.0620  -34.0020   25.2320 H   0  0  0  0  0  0  0  0  0  0  0  0
  -24.2780  -36.6670   23.3040 C   0  0  0  0  0  1  0  0  0  0  0  0
  -25.5000  -36.3090   24.1650 C   0  0  0  0  0  3  0  0  0  0  0  0
  -27.5650  -37.2830   25.0680 C   0  0  0  0  0  1  0  0  0  0  0  0
  -26.4940  -37.4000   24.0820 N   0  0  0  0  0  0  0  0  0  0  0  0
  -26.0480  -38.3040   24.2070 H   0  0  0  0  0  0  0  0  0  0  0  0
  -31.1980  -19.9760   18.9040 C   0  0  0  0  0  2  0  0  0  0  0  0
  -31.6730  -18.3170   18.9010 C   0  0  0  0  0  2  0  0  0  0  0  0
  -32.3450  -15.9810   20.2570 C   0  0  0  0  0  0  0  0  0  0  0  0
  -32.4290  -13.4410   20.1930 C   0  0  0  0  0  2  0  0  0  0  0  0
  -31.7090  -12.9170   18.9270 C   0  0  0  0  0  2  0  0  0  0  0  0
  -30.2040  -12.7470   19.1960 C   0  0  0  0  0  2  0  0  0  0  0  0
  -29.5920  -13.9790   19.9090 C   0  0  0  0  0  3  0  0  0  0  0  0
  -30.4490  -14.4560   21.1030 C   0  0  0  0  0  2  0  0  0  0  0  0
  -31.7940  -14.7380   20.5860 N   0  0  0  0  0  0  0  0  0  0  0  0
  -33.5650  -16.0110   20.0660 O   0  0  0  0  0  0  0  0  0  0  0  0
  -31.5260  -17.1110   19.9420 N   0  0  0  0  0  0  0  0  0  0  0  0
  -30.5690  -16.9560   20.2200 H   0  0  0  0  0  0  0  0  0  0  0  0
  -27.1860  -14.6980   20.4010 C   0  0  0  0  0  0  0  0  0  0  0  0
  -26.0520  -13.9890   20.6850 C   0  0  0  0  0  0  0  0  0  0  0  0
  -26.4400  -12.6140   20.7130 C   0  0  0  0  0  0  0  0  0  0  0  0
  -28.1980  -13.7610   20.2820 N   0  0  0  0  0  0  0  0  0  0  0  0
  -27.7520  -12.5020   20.5320 N   0  0  0  0  0  0  0  0  0  0  0  0
  -25.6280  -11.3960   20.8410 C   0  0  0  0  0  0  0  0  0  0  0  0
  -25.8210  -10.4830   21.9020 C   0  0  0  0  0  3  0  0  0  0  0  0
  -25.0110   -9.3320   22.0130 C   0  0  0  0  0  3  0  0  0  0  0  0
  -23.9930   -9.0850   21.0620 C   0  0  0  0  0  0  0  0  0  0  0  0
  -23.8190   -9.9840   19.9950 C   0  0  0  0  0  3  0  0  0  0  0  0
  -24.6310  -11.1260   19.8820 C   0  0  0  0  0  3  0  0  0  0  0  0
  -23.1740   -7.9820   21.0780 O   0  0  0  0  0  0  0  0  0  0  0  0
  -22.7110   -7.4470   22.2530 C   0  0  0  0  0  0  0  0  0  0  0  0
  -21.9670   -8.2100   23.1790 C   0  0  0  0  0  3  0  0  0  0  0  0
  -21.4510   -7.6020   24.3410 C   0  0  0  0  0  3  0  0  0  0  0  0
  -21.6690   -6.2310   24.5740 C   0  0  0  0  0  0  0  0  0  0  0  0
  -22.4050   -5.4670   23.6510 C   0  0  0  0  0  3  0  0  0  0  0  0
  -22.9210   -6.0740   22.4920 C   0  0  0  0  0  0  0  0  0  0  0  0
  -23.6110   -5.3280   21.5950 F   0  0  0  0  0  0  0  0  0  0  0  0
  -21.1670   -5.6450   25.6860 F   0  0  0  0  0  0  0  0  0  0  0  0
  -24.6670  -14.5480   20.8150 C   0  0  0  0  0  0  0  0  0  0  0  0
  -23.8320  -13.9420   21.6510 N   0  0  0  0  0  0  0  0  0  0  0  0
  -24.3370  -15.5690   20.2100 O   0  0  0  0  0  0  0  0  0  0  0  0
  -24.1100  -13.1160   22.1610 H   0  0  0  0  0  0  0  0  0  0  0  0
  -22.9000  -14.3080   21.7820 H   0  0  0  0  0  0  0  0  0  0  0  0
  -27.4280  -16.0540   20.1820 N   0  0  0  0  0  0  0  0  0  0  0  0
  -26.6140  -16.4060   19.6890 H   0  0  0  0  0  0  0  0  0  0  0  0
  -28.2540  -16.1830   19.6080 H   0  0  0  0  0  0  0  0  0  0  0  0
  -26.3000  -18.6420   19.2380 C   0  0  0  0  0  2  0  0  0  0  0  0
  -26.1810  -17.9890   17.9270 N   0  0  0  0  0  4  0  0  0  0  0  0
  -26.0010  -18.6730   17.2160 H   0  0  0  0  0  0  0  0  0  0  0  0
  -25.4190  -17.3350   17.9450 H   0  0  0  0  0  0  0  0  0  0  0  0
  -27.0170  -17.4820   17.6780 H   0  0  0  0  0  0  0  0  0  0  0  0
  1  2  1  0
  2 11  1  0
  3  1  2  0
  3  6  1  0
  4  5  1  0
  4  2  2  0
  5 10  1  0
  6 94  1  0
  6  5  2  0
  8  3  1  0
  8  7  1  0
 10  9  1  0
 11 12  2  0
 12 13  1  0
 14 25  2  0
 15 13  1  0
 15 20  1  0
 16 24  1  0
 16 26  1  0
 17 23  1  0
 17 19  1  0
 18 24  1  0
 19 20  2  0
 19 18  1  0
 21 15  2  0
 22 21  1  0
 22 17  2  0
 23 16  1  0
 24 14  1  0
 26 28  2  0
 27 26  1  0
 29 27  1  0
 30 39  2  0
 30 35  1  0
 31 27  1  0
 31 35  1  0
 32 31  1  0
 33 34  1  0
 33 32  1  0
 34 30  1  0
 35 36  2  0
 36 37  1  0
 38 37  2  0
 39 38  1  0
 40 14  1  0
 40 45  1  0
 40 41  1  0
 41 44  1  1
 41 42  1  0
 43 41  1  0
 45 48  1  0
 46 50  1  0
 46 45  1  0
 47 46  2  0
 50 49  1  0
 52 50  1  0
 52 53  1  0
 52 51  1  0
 54  4  1  0
 55 54  1  0
 55 64  1  0
 56 62  1  0
 57 62  1  0
 58 59  1  0
 58 57  1  0
 60 59  1  0
 60 69  1  0
 60 61  1  0
 62 61  1  0
 63 56  2  0
 64 65  1  0
 64 56  1  0
 66 67  2  0
 67 68  1  0
 67 86  1  0
 68 71  1  0
 69 66  1  0
 69 70  1  0
 70 68  2  0
 71 72  1  0
 72 73  2  0
 74 77  1  0
 74 73  1  0
 75 74  2  0
 76 75  1  0
 76 71  2  0
 77 78  1  0
 78 83  2  0
 78 79  1  0
 79 80  2  0
 80 81  1  0
 81 85  1  0
 82 81  2  0
 83 82  1  0
 84 83  1  0
 86 87  1  0
 87 90  1  0
 87 89  1  0
 88 86  2  0
 91 66  1  0
 92 91  1  0
 93 91  1  0
 95 97  1  0
 95 94  1  0
 96 95  1  0
 98 95  1  0
M  ISO  4  12 101  13 101  56 100  64 100
M  END
>  <TORSDO>  (47) 
F 24

>  <SCORE>  (47) 
-7.815

>  <name>  (47) 
46

>  <ligand_id>  (47) 
46

>  <original_smiles>  (47) 
[H]c1c([H])c([H])c2c(c1[H])C([H])([H])C([H])([H])C([H])([H])C2([H])N([H])C(=O)C1([H])N(C(=O)C([H])(N([H])C(=O)C([H])(N([H])C([H])([H])[H])C([H])([H])[H])C(C([H])([H])[H])(C([H])([H])[H])C([H])([H])[H])C([H])([H])c2c([H])c(OC([H])([H])C([H])([H])c3c([H])c(C([H])([H])C([H])([H])[H])c(C([H])([H])[N+]([H])([H])[H])c(C([H])([H])C([H])([H])[H])c3C([H])([H])C([H])([H])N([H])C(=O)N3C([H])([H])C([H])([H])C([H])([H])C([H])(n4nc(-c5c([H])c([H])c(Oc6c([H])c([H])c(F)c([H])c6F)c([H])c5[H])c(C(=O)N([H])[H])c4N([H])[H])C3([H])[H])c([H])c([H])c2C1([H])[H]

>  <smiles>  (47) 
[H]c1c([H])c([H])c2c(c1[H])C([H])([H])C([H])([H])C([H])([H])C2([H])N([H])C(=O)C1([H])N(C(=O)C([H])(N([H])C(=O)C([H])(N([H])C([H])([H])[H])C([H])([H])[H])C(C([H])([H])[H])(C([H])([H])[H])C([H])([H])[H])C([H])([H])c2c([H])c(OC([H])([H])C([H])([H])c3c([H])c(C([H])([H])C([H])([H])[H])c(C([H])([H])[N+]([H])([H])[H])c(C([H])([H])C([H])([H])[H])c3C([H])([H])C([H])([H])N([H])C(=O)N3C([H])([H])C([H])([H])C([H])([H])C([H])(n4nc(-c5c([H])c([H])c(Oc6c([H])c([H])c(F)c([H])c6F)c([H])c5[H])c(C(=O)N([H])[H])c4N([H])[H])C3([H])[H])c([H])c([H])c2C1([H])[H]

$$$$
47:0:0
     RDKit          3D

 98107  0  0  1  0  0  0  0  0999 V2000
  -27.8220  -23.8430   21.6000 C   0  0  0  0  0  2  0  0  0  0  0  0
  -29.9300  -24.2720   20.3680 C   0  0  0  0  0  2  0  0  0  0  0  0
  -28.2850  -22.4160   21.9610 C   0  0  0  0  0  2  0  0  0  0  0  0
  -30.4020  -22.8100   20.5820 C   0  0  0  0  0  2  0  0  0  0  0  0
  -29.0490  -24.7650   21.5380 C   0  0  0  0  0  3  0  0  0  0  0  0
  -29.2960  -21.7720   20.9640 C   0  0  1  0  0  0  0  0  0  0  0  0
  -29.9770  -20.5780   21.7210 C   0  0  0  0  0  2  0  0  0  0  0  0
  -31.7910  -18.7020   21.5630 C   0  0  0  0  0  2  0  0  0  0  0  0
  -30.7120  -19.5240   20.8900 C   0  0  0  0  0  3  0  0  0  0  0  0
  -30.5030  -18.0350   21.1690 C   0  0  0  0  0  3  0  0  0  0  0  0
  -30.5010  -17.0020   20.0600 C   0  0  0  0  0  2  0  0  0  0  0  0
  -30.9740  -14.5590   20.2350 C   0  0  0  0  0  0  0  0  0  0  0  0
  -30.6750  -12.3700   19.1680 C   0  0  0  0  0  2  0  0  0  0  0  0
  -29.7330  -12.5550   17.9590 C   0  0  0  0  0  2  0  0  0  0  0  0
  -28.2490  -12.4880   18.3750 C   0  0  0  0  0  2  0  0  0  0  0  0
  -27.9190  -13.3350   19.6340 C   0  0  0  0  0  3  0  0  0  0  0  0
  -28.9730  -13.1040   20.7440 C   0  0  0  0  0  2  0  0  0  0  0  0
  -30.3040  -13.3780   20.1710 N   0  0  0  0  0  0  0  0  0  0  0  0
  -32.1370  -14.7000   19.8490 O   0  0  0  0  0  0  0  0  0  0  0  0
  -30.2000  -15.6250   20.4780 N   0  0  0  0  0  0  0  0  0  0  0  0
  -29.2490  -15.4290   20.7490 H   0  0  0  0  0  0  0  0  0  0  0  0
  -25.5210  -13.9730   20.3240 C   0  0  0  0  0  0  0  0  0  0  0  0
  -24.4440  -13.2150   20.7060 C   0  0  0  0  0  0  0  0  0  0  0  0
  -24.8940  -11.8610   20.6990 C   0  0  0  0  0  0  0  0  0  0  0  0
  -26.5610  -13.0810   20.1130 N   0  0  0  0  0  0  0  0  0  0  0  0
  -26.1860  -11.8050   20.3950 N   0  0  0  0  0  0  0  0  0  0  0  0
  -24.1590  -10.6070   20.9070 C   0  0  0  0  0  0  0  0  0  0  0  0
  -24.5610   -9.6710   21.8840 C   0  0  0  0  0  3  0  0  0  0  0  0
  -23.8280   -8.4790   22.0780 C   0  0  0  0  0  3  0  0  0  0  0  0
  -22.6770   -8.2170   21.2950 C   0  0  0  0  0  0  0  0  0  0  0  0
  -22.2960   -9.1430   20.3070 C   0  0  0  0  0  3  0  0  0  0  0  0
  -23.0300  -10.3260   20.1130 C   0  0  0  0  0  3  0  0  0  0  0  0
  -21.9170   -7.0780   21.4000 O   0  0  0  0  0  0  0  0  0  0  0  0
  -21.8000   -6.3950   22.5830 C   0  0  0  0  0  0  0  0  0  0  0  0
  -21.2980   -7.0080   23.7510 C   0  0  0  0  0  3  0  0  0  0  0  0
  -21.1300   -6.2500   24.9270 C   0  0  0  0  0  3  0  0  0  0  0  0
  -21.4510   -4.8800   24.9340 C   0  0  0  0  0  0  0  0  0  0  0  0
  -21.9460   -4.2660   23.7700 C   0  0  0  0  0  3  0  0  0  0  0  0
  -22.1160   -5.0220   22.5970 C   0  0  0  0  0  0  0  0  0  0  0  0
  -22.5720   -4.4190   21.4740 F   0  0  0  0  0  0  0  0  0  0  0  0
  -21.2820   -4.1500   26.0630 F   0  0  0  0  0  0  0  0  0  0  0  0
  -23.0470  -13.7090   20.9620 C   0  0  0  0  0  0  0  0  0  0  0  0
  -22.3120  -13.0370   21.8410 N   0  0  0  0  0  0  0  0  0  0  0  0
  -22.6160  -14.7230   20.4140 O   0  0  0  0  0  0  0  0  0  0  0  0
  -22.6690  -12.2200   22.3120 H   0  0  0  0  0  0  0  0  0  0  0  0
  -21.3710  -13.3450   22.0440 H   0  0  0  0  0  0  0  0  0  0  0  0
  -25.6990  -15.3390   20.1210 N   0  0  0  0  0  0  0  0  0  0  0  0
  -24.9430  -16.0060   20.2150 H   0  0  0  0  0  0  0  0  0  0  0  0
  -26.5410  -15.7460   19.7350 H   0  0  0  0  0  0  0  0  0  0  0  0
  -28.5540  -21.2990   19.6770 C   0  0  0  0  0  2  0  0  0  0  0  0
  -27.5250  -20.2720   19.9340 N   0  0  0  0  0  4  0  0  0  0  0  0
  -27.9420  -19.4390   20.3110 H   0  0  0  0  0  0  0  0  0  0  0  0
  -27.0550  -20.0370   19.0780 H   0  0  0  0  0  0  0  0  0  0  0  0
  -26.8410  -20.6170   20.5870 H   0  0  0  0  0  0  0  0  0  0  0  0
  -28.7180  -26.2870   21.5380 C   0  0  0  0  0  3  0  0  0  0  0  0
  -29.4900  -27.6720   23.5880 C   0  0  0  0  0  1  0  0  0  0  0  0
  -29.8490  -27.1390   22.1780 C   0  0  0  0  0  2  0  0  0  0  0  0
  -28.3850  -26.7690   20.2220 O   0  0  0  0  0  0  0  0  0  0  0  0
  -24.5740  -31.9600   23.2430 C   0  0  0  0  0  0  0  0  0  0  0  0
  -27.2480  -27.5460   20.1760 C   0  0  0  0  0  0  0  0  0  0  0  0
  -23.3810  -30.5430   21.6010 C   0  0  0  0  0  3  0  0  0  0  0  0
  -24.8490  -29.0320   20.1570 C   0  0  0  0  0  0  0  0  0  0  0  0
  -25.8950  -30.9400   21.3900 C   0  0  0  0  0  2  0  0  0  0  0  0
  -25.9920  -29.5640   20.7590 C   0  0  0  0  0  0  0  0  0  0  0  0
  -27.1910  -28.8180   20.7910 C   0  0  0  0  0  3  0  0  0  0  0  0
  -26.1040  -27.0390   19.5320 C   0  0  0  0  0  3  0  0  0  0  0  0
  -24.8980  -27.7690   19.5310 C   0  0  0  0  0  3  0  0  0  0  0  0
  -23.5930  -29.8750   20.2150 C   0  0  0  0  0  2  0  0  0  0  0  0
  -24.6360  -31.1620   22.1400 N   0  0  0  0  0  0  0  0  0  0  0  0
  -23.4910  -32.2240   23.7840 O   0  0  0  0  0  0  0  0  0  0  0  0
  -22.7450  -29.5120   22.5590 C   0  0  0  0  0  0  0  0  0  0  0  0
  -21.4230  -29.3150   22.4310 N   0  0  0  0  0  0  0  0  0  0  0  0
  -23.4350  -28.8960   23.3740 O   0  0  0  0  0  0  0  0  0  0  0  0
  -20.9220  -29.8790   21.7620 H   0  0  0  0  0  0  0  0  0  0  0  0
  -18.0620  -28.0760   22.9080 C   0  0  0  0  0  0  0  0  0  0  0  0
  -20.6170  -28.3680   23.2010 C   0  0  0  0  0  3  0  0  0  0  0  0
  -20.7440  -26.9380   22.6270 C   0  0  0  0  0  2  0  0  0  0  0  0
  -19.6480  -26.5950   21.6130 C   0  0  0  0  0  2  0  0  0  0  0  0
  -18.2560  -26.7270   22.2430 C   0  0  0  0  0  2  0  0  0  0  0  0
  -19.1690  -28.8510   23.3420 C   0  0  0  0  0  0  0  0  0  0  0  0
  -18.9270  -30.1170   23.9210 C   0  0  0  0  0  3  0  0  0  0  0  0
  -17.6120  -30.5980   24.0790 C   0  0  0  0  0  3  0  0  0  0  0  0
  -16.5230  -29.8120   23.6670 C   0  0  0  0  0  3  0  0  0  0  0  0
  -16.7480  -28.5560   23.0810 C   0  0  0  0  0  3  0  0  0  0  0  0
  -25.8540  -32.6050   23.8620 C   0  0  0  0  0  3  0  0  0  0  0  0
  -26.3770  -31.8440   25.1420 C   0  0  1  0  0  0  0  0  0  0  0  0
  -25.2840  -31.5850   26.2080 C   0  0  0  0  0  1  0  0  0  0  0  0
  -26.9870  -30.4840   24.7380 C   0  0  0  0  0  1  0  0  0  0  0  0
  -27.5130  -32.6570   25.8070 C   0  0  0  0  0  1  0  0  0  0  0  0
  -25.5430  -34.0030   24.1810 N   0  0  0  0  0  0  0  0  0  0  0  0
  -25.8910  -35.0520   23.4200 C   0  0  0  0  0  0  0  0  0  0  0  0
  -26.5800  -34.9400   22.4030 O   0  0  0  0  0  0  0  0  0  0  0  0
  -24.9510  -34.1690   24.9830 H   0  0  0  0  0  0  0  0  0  0  0  0
  -24.1840  -36.8470   23.0070 C   0  0  0  0  0  1  0  0  0  0  0  0
  -25.3940  -36.4430   23.8600 C   0  0  0  0  0  3  0  0  0  0  0  0
  -27.5030  -37.3130   24.7630 C   0  0  0  0  0  1  0  0  0  0  0  0
  -26.4350  -37.4890   23.7830 N   0  0  0  0  0  0  0  0  0  0  0  0
  -26.0320  -38.4110   23.9240 H   0  0  0  0  0  0  0  0  0  0  0  0
  1  3  1  0
  2  4  1  0
  2  5  1  0
  4  6  1  0
  5 55  1  0
  5  1  1  0
  6 50  1  6
  6  7  1  0
  6  3  1  0
  9 10  1  0
  9  8  1  0
  9  7  1  0
 10 11  1  0
 10  8  1  0
 11 20  1  0
 12 20  1  0
 13 18  1  0
 14 15  1  0
 14 13  1  0
 16 15  1  0
 16 25  1  0
 16 17  1  0
 18 12  1  0
 18 17  1  0
 19 12  2  0
 20 21  1  0
 22 23  2  0
 23 42  1  0
 24 23  1  0
 24 27  1  0
 25 22  1  0
 25 26  1  0
 26 24  2  0
 27 28  1  0
 28 29  2  0
 30 33  1  0
 30 29  1  0
 31 30  2  0
 32 31  1  0
 32 27  2  0
 33 34  1  0
 34 39  2  0
 34 35  1  0
 35 36  2  0
 36 37  1  0
 37 41  1  0
 38 37  2  0
 39 38  1  0
 40 39  1  0
 42 43  1  0
 43 46  1  0
 43 45  1  0
 44 42  2  0
 47 48  1  0
 47 22  1  0
 49 47  1  0
 50 51  1  0
 51 52  1  0
 51 54  1  0
 53 51  1  0
 55 57  1  0
 57 56  1  0
 58 55  1  0
 59 70  2  0
 60 58  1  0
 60 65  1  0
 61 69  1  0
 61 71  1  0
 62 68  1  0
 62 64  1  0
 63 69  1  0
 64 65  2  0
 64 63  1  0
 66 60  2  0
 67 66  1  0
 67 62  2  0
 68 61  1  0
 69 59  1  0
 71 73  2  0
 72 71  1  0
 74 72  1  0
 75 84  2  0
 75 80  1  0
 76 72  1  0
 76 80  1  0
 77 76  1  0
 78 79  1  0
 78 77  1  0
 79 75  1  0
 80 81  2  0
 81 82  1  0
 83 82  2  0
 84 83  1  0
 85 59  1  0
 85 90  1  0
 85 86  1  0
 86 89  1  1
 86 87  1  0
 88 86  1  0
 90 93  1  0
 91 95  1  0
 91 90  1  0
 92 91  2  0
 95 94  1  0
 97 95  1  0
 97 98  1  0
 97 96  1  0
M  ISO  4  12 100  20 100  55 101  58 101
M  END
>  <TORSDO>  (48) 
F 23

>  <SCORE>  (48) 
-13.305

>  <name>  (48) 
47

>  <ligand_id>  (48) 
47

>  <original_smiles>  (48) 
[H]c1c([H])c([H])c2c(c1[H])C([H])([H])C([H])([H])C([H])([H])C2([H])N([H])C(=O)C1([H])N(C(=O)C([H])(N([H])C(=O)C([H])(N([H])C([H])([H])[H])C([H])([H])[H])C(C([H])([H])[H])(C([H])([H])[H])C([H])([H])[H])C([H])([H])c2c([H])c(OC([H])(C([H])([H])C([H])([H])[H])C3([H])C([H])([H])C([H])([H])C(C([H])([H])C4([H])C([H])([H])C4([H])C([H])([H])N([H])C(=O)N4C([H])([H])C([H])([H])C([H])([H])C([H])(n5nc(-c6c([H])c([H])c(Oc7c([H])c([H])c(F)c([H])c7F)c([H])c6[H])c(C(=O)N([H])[H])c5N([H])[H])C4([H])[H])(C([H])([H])[N+]([H])([H])[H])C([H])([H])C3([H])[H])c([H])c([H])c2C1([H])[H]

>  <smiles>  (48) 
[H]c1c([H])c([H])c2c(c1[H])C([H])([H])C([H])([H])C([H])([H])C2([H])N([H])C(=O)C1([H])N(C(=O)C([H])(N([H])C(=O)C([H])(N([H])C([H])([H])[H])C([H])([H])[H])C(C([H])([H])[H])(C([H])([H])[H])C([H])([H])[H])C([H])([H])c2c([H])c(OC([H])(C([H])([H])C([H])([H])[H])C3([H])C([H])([H])C([H])([H])C(C([H])([H])C4([H])C([H])([H])C4([H])C([H])([H])N([H])C(=O)N4C([H])([H])C([H])([H])C([H])([H])C([H])(n5nc(-c6c([H])c([H])c(Oc7c([H])c([H])c(F)c([H])c7F)c([H])c6[H])c(C(=O)N([H])[H])c5N([H])[H])C4([H])[H])(C([H])([H])[N+]([H])([H])[H])C([H])([H])C3([H])[H])c([H])c([H])c2C1([H])[H]

$$$$
48:0:0
     RDKit          3D

 96105  0  0  1  0  0  0  0  0999 V2000
  -27.7930  -22.6710   19.0890 C   0  0  0  0  0  2  0  0  0  0  0  0
  -27.5460  -21.2620   19.6380 C   0  0  0  0  0  2  0  0  0  0  0  0
  -29.6010  -22.0920   20.5450 C   0  0  0  0  0  3  0  0  0  0  0  0
  -28.7400  -23.3170   20.0990 C   0  0  0  0  0  3  0  0  0  0  0  0
  -28.7440  -20.8770   20.4280 N   0  0  2  0  0  4  0  0  0  0  0  0
  -28.4510  -20.7160   21.3850 H   0  0  0  0  0  0  0  0  0  0  0  0
  -30.0340  -22.1860   22.0200 C   0  0  0  0  0  0  0  0  0  0  0  0
  -31.1300  -23.1790   22.3790 C   0  0  0  0  0  1  0  0  0  0  0  0
  -29.5150  -21.5020   22.9080 O   0  0  0  0  0  0  0  0  0  0  0  0
  -29.5350  -24.5320   19.5250 C   0  0  0  0  0  2  0  0  0  0  0  0
  -28.7010  -25.7380   19.0040 C   0  0  0  0  0  2  0  0  0  0  0  0
  -28.4150  -26.7140   20.0260 O   0  0  0  0  0  0  0  0  0  0  0  0
  -24.6110  -31.8650   23.1670 C   0  0  0  0  0  0  0  0  0  0  0  0
  -27.2320  -27.4370   20.0020 C   0  0  0  0  0  0  0  0  0  0  0  0
  -23.3920  -30.4770   21.5250 C   0  0  0  0  0  3  0  0  0  0  0  0
  -24.8310  -28.9540   20.0700 C   0  0  0  0  0  0  0  0  0  0  0  0
  -25.9180  -30.8310   21.3110 C   0  0  0  0  0  2  0  0  0  0  0  0
  -25.9960  -29.4650   20.6510 C   0  0  0  0  0  0  0  0  0  0  0  0
  -27.1940  -28.7120   20.6210 C   0  0  0  0  0  3  0  0  0  0  0  0
  -26.0350  -26.9360   19.4390 C   0  0  0  0  0  3  0  0  0  0  0  0
  -24.8460  -27.6870   19.4650 C   0  0  0  0  0  3  0  0  0  0  0  0
  -23.5880  -29.8120   20.1370 C   0  0  0  0  0  2  0  0  0  0  0  0
  -24.6590  -31.0720   22.0590 N   0  0  0  0  0  0  0  0  0  0  0  0
  -23.5340  -32.1320   23.7190 O   0  0  0  0  0  0  0  0  0  0  0  0
  -22.7490  -29.4460   22.4820 C   0  0  0  0  0  0  0  0  0  0  0  0
  -21.4230  -29.2730   22.3750 N   0  0  0  0  0  0  0  0  0  0  0  0
  -23.4420  -28.8050   23.2770 O   0  0  0  0  0  0  0  0  0  0  0  0
  -20.9250  -29.8420   21.7030 H   0  0  0  0  0  0  0  0  0  0  0  0
  -18.0490  -28.0960   22.9140 C   0  0  0  0  0  0  0  0  0  0  0  0
  -20.6120  -28.3300   23.1460 C   0  0  0  0  0  3  0  0  0  0  0  0
  -20.6950  -26.9080   22.5470 C   0  0  0  0  0  2  0  0  0  0  0  0
  -19.5740  -26.6080   21.5480 C   0  0  0  0  0  2  0  0  0  0  0  0
  -18.2040  -26.7560   22.2160 C   0  0  0  0  0  2  0  0  0  0  0  0
  -19.1800  -28.8430   23.3360 C   0  0  0  0  0  0  0  0  0  0  0  0
  -18.9810  -30.0990   23.9480 C   0  0  0  0  0  3  0  0  0  0  0  0
  -17.6840  -30.6080   24.1430 C   0  0  0  0  0  3  0  0  0  0  0  0
  -16.5660  -29.8570   23.7380 C   0  0  0  0  0  3  0  0  0  0  0  0
  -16.7500  -28.6030   23.1280 C   0  0  0  0  0  3  0  0  0  0  0  0
  -25.9020  -32.4920   23.7800 C   0  0  0  0  0  3  0  0  0  0  0  0
  -26.4470  -31.6960   25.0300 C   0  0  1  0  0  0  0  0  0  0  0  0
  -25.3750  -31.4290   26.1100 C   0  0  0  0  0  1  0  0  0  0  0  0
  -27.0310  -30.3300   24.5970 C   0  0  0  0  0  1  0  0  0  0  0  0
  -27.6040  -32.4830   25.6890 C   0  0  0  0  0  1  0  0  0  0  0  0
  -25.5890  -33.8790   24.1450 N   0  0  0  0  0  0  0  0  0  0  0  0
  -25.8970  -34.9490   23.4020 C   0  0  0  0  0  0  0  0  0  0  0  0
  -26.5460  -34.8740   22.3550 O   0  0  0  0  0  0  0  0  0  0  0  0
  -25.0110  -34.0120   24.9620 H   0  0  0  0  0  0  0  0  0  0  0  0
  -24.1430  -36.7310   23.1220 C   0  0  0  0  0  1  0  0  0  0  0  0
  -25.4060  -36.3240   23.8980 C   0  0  0  0  0  3  0  0  0  0  0  0
  -27.5500  -37.2120   24.6990 C   0  0  0  0  0  1  0  0  0  0  0  0
  -26.4260  -37.3890   23.7830 N   0  0  0  0  0  0  0  0  0  0  0  0
  -26.0140  -38.3020   23.9590 H   0  0  0  0  0  0  0  0  0  0  0  0
  -29.4450  -19.6340   19.9640 C   0  0  0  0  0  2  0  0  0  0  0  0
  -30.7120  -14.5310   20.0520 C   0  0  0  0  0  0  0  0  0  0  0  0
  -30.3490  -12.3710   18.9370 C   0  0  0  0  0  2  0  0  0  0  0  0
  -29.3540  -12.5980   17.7810 C   0  0  0  0  0  2  0  0  0  0  0  0
  -27.8990  -12.4720   18.2760 C   0  0  0  0  0  2  0  0  0  0  0  0
  -27.6260  -13.2830   19.5720 C   0  0  0  0  0  3  0  0  0  0  0  0
  -28.7390  -13.0760   20.6230 C   0  0  0  0  0  2  0  0  0  0  0  0
  -30.0260  -13.3590   19.9760 N   0  0  0  0  0  0  0  0  0  0  0  0
  -31.8880  -14.6350   19.6900 O   0  0  0  0  0  0  0  0  0  0  0  0
  -28.7230  -17.4830   21.2920 C   0  0  0  0  0  2  0  0  0  0  0  0
  -29.9250  -16.4960   21.2820 C   0  0  0  0  0  2  0  0  0  0  0  0
  -29.9650  -16.4910   18.8750 C   0  0  0  0  0  2  0  0  0  0  0  0
  -28.5640  -18.3300   20.0000 C   0  0  0  0  0  3  0  0  0  0  0  0
  -28.7110  -17.3830   18.7750 C   0  0  0  0  0  3  0  0  0  0  0  0
  -28.6100  -18.0810   17.4070 C   0  0  0  0  0  1  0  0  0  0  0  0
  -29.9340  -15.6470   20.0830 N   0  0  0  0  0  0  0  0  0  0  0  0
  -25.2680  -13.8750   20.4050 C   0  0  0  0  0  0  0  0  0  0  0  0
  -24.2190  -13.0960   20.8110 C   0  0  0  0  0  0  0  0  0  0  0  0
  -24.6800  -11.7450   20.7400 C   0  0  0  0  0  0  0  0  0  0  0  0
  -26.3010  -12.9980   20.1140 N   0  0  0  0  0  0  0  0  0  0  0  0
  -25.9550  -11.7110   20.3770 N   0  0  0  0  0  0  0  0  0  0  0  0
  -23.9620  -10.4790   20.9440 C   0  0  0  0  0  0  0  0  0  0  0  0
  -24.4180   -9.5140   21.8700 C   0  0  0  0  0  3  0  0  0  0  0  0
  -23.7010   -8.3140   22.0620 C   0  0  0  0  0  3  0  0  0  0  0  0
  -22.5160   -8.0700   21.3290 C   0  0  0  0  0  0  0  0  0  0  0  0
  -22.0800   -9.0230   20.3920 C   0  0  0  0  0  3  0  0  0  0  0  0
  -22.7950  -10.2160   20.1970 C   0  0  0  0  0  3  0  0  0  0  0  0
  -21.7680   -6.9220   21.4320 O   0  0  0  0  0  0  0  0  0  0  0  0
  -21.7140   -6.1990   22.5970 C   0  0  0  0  0  0  0  0  0  0  0  0
  -21.2800   -6.7740   23.8110 C   0  0  0  0  0  3  0  0  0  0  0  0
  -21.1740   -5.9770   24.9700 C   0  0  0  0  0  3  0  0  0  0  0  0
  -21.4920   -4.6070   24.9130 C   0  0  0  0  0  0  0  0  0  0  0  0
  -21.9180   -4.0320   23.7030 C   0  0  0  0  0  3  0  0  0  0  0  0
  -22.0260   -4.8250   22.5480 C   0  0  0  0  0  0  0  0  0  0  0  0
  -22.4170   -4.2620   21.3790 F   0  0  0  0  0  0  0  0  0  0  0  0
  -21.3830   -3.8390   26.0210 F   0  0  0  0  0  0  0  0  0  0  0  0
  -22.8380  -13.5670   21.1560 C   0  0  0  0  0  0  0  0  0  0  0  0
  -22.1540  -12.8620   22.0510 N   0  0  0  0  0  0  0  0  0  0  0  0
  -22.3730  -14.5950   20.6650 O   0  0  0  0  0  0  0  0  0  0  0  0
  -22.5430  -12.0290   22.4680 H   0  0  0  0  0  0  0  0  0  0  0  0
  -21.2270  -13.1580   22.3200 H   0  0  0  0  0  0  0  0  0  0  0  0
  -25.4250  -15.2480   20.2380 N   0  0  0  0  0  0  0  0  0  0  0  0
  -24.6670  -15.9030   20.3900 H   0  0  0  0  0  0  0  0  0  0  0  0
  -26.2730  -15.6870   19.9000 H   0  0  0  0  0  0  0  0  0  0  0  0
  1  2  1  0
  1  4  1  0
  2  5  1  0
  3  7  1  0
  4 10  1  0
  4  3  1  0
  5  3  1  0
  5  6  1  1
  7  8  1  0
  7  9  2  0
 11 10  1  0
 11 12  1  0
 13 24  2  0
 14 12  1  0
 14 19  1  0
 15 23  1  0
 15 25  1  0
 16 22  1  0
 16 18  1  0
 17 23  1  0
 18 17  1  0
 19 18  2  0
 20 21  1  0
 20 14  2  0
 21 16  2  0
 22 15  1  0
 23 13  1  0
 25 27  2  0
 26 25  1  0
 28 26  1  0
 29 38  2  0
 29 34  1  0
 30 26  1  0
 30 34  1  0
 31 30  1  0
 32 33  1  0
 32 31  1  0
 33 29  1  0
 34 35  2  0
 35 36  1  0
 37 36  2  0
 38 37  1  0
 39 13  1  0
 39 44  1  0
 39 40  1  0
 40 43  1  1
 40 41  1  0
 42 40  1  0
 44 47  1  0
 45 49  1  0
 45 44  1  0
 46 45  2  0
 49 48  1  0
 51 49  1  0
 51 52  1  0
 51 50  1  0
 53  5  1  0
 54 68  1  0
 55 60  1  0
 56 57  1  0
 56 55  1  0
 58 57  1  0
 58 72  1  0
 58 59  1  0
 60 54  1  0
 60 59  1  0
 61 54  2  0
 63 62  1  0
 64 68  1  0
 65 53  1  0
 65 62  1  0
 66 67  1  0
 66 64  1  0
 66 65  1  0
 68 63  1  0
 69 70  2  0
 70 89  1  0
 71 70  1  0
 71 74  1  0
 72 73  1  0
 72 69  1  0
 73 71  2  0
 74 75  1  0
 75 76  2  0
 77 80  1  0
 77 76  1  0
 78 77  2  0
 79 78  1  0
 79 74  2  0
 80 81  1  0
 81 82  1  0
 82 83  2  0
 84 83  1  0
 84 88  1  0
 85 84  2  0
 86 81  2  0
 86 85  1  0
 87 86  1  0
 89 90  1  0
 90 93  1  0
 90 92  1  0
 91 89  2  0
 94 95  1  0
 94 69  1  0
 96 94  1  0
M  ISO  4  11 101  12 101  54 100  68 100
M  END
>  <TORSDO>  (49) 
F 20

>  <SCORE>  (49) 
-12.894

>  <name>  (49) 
48

>  <ligand_id>  (49) 
48

>  <original_smiles>  (49) 
[H]c1c([H])c([H])c2c(c1[H])C([H])([H])C([H])([H])C([H])([H])C2([H])N([H])C(=O)C1([H])N(C(=O)C([H])(N([H])C(=O)C([H])(N([H])C([H])([H])[H])C([H])([H])[H])C(C([H])([H])[H])(C([H])([H])[H])C([H])([H])[H])C([H])([H])c2c([H])c(OC([H])([H])C([H])([H])C3([H])C([H])([H])C([H])([H])[N+]([H])(C([H])([H])C4([H])C([H])([H])C([H])([H])N(C(=O)N5C([H])([H])C([H])([H])C([H])([H])C([H])(n6nc(-c7c([H])c([H])c(Oc8c([H])c([H])c(F)c([H])c8F)c([H])c7[H])c(C(=O)N([H])[H])c6N([H])[H])C5([H])[H])C([H])([H])C4([H])C([H])([H])[H])C3([H])C(=O)C([H])([H])[H])c([H])c([H])c2C1([H])[H]

>  <smiles>  (49) 
[H]c1c([H])c([H])c2c(c1[H])C([H])([H])C([H])([H])C([H])([H])C2([H])N([H])C(=O)C1([H])N(C(=O)C([H])(N([H])C(=O)C([H])(N([H])C([H])([H])[H])C([H])([H])[H])C(C([H])([H])[H])(C([H])([H])[H])C([H])([H])[H])C([H])([H])c2c([H])c(OC([H])([H])C([H])([H])C3([H])C([H])([H])C([H])([H])[N+]([H])(C([H])([H])C4([H])C([H])([H])C([H])([H])N(C(=O)N5C([H])([H])C([H])([H])C([H])([H])C([H])(n6nc(-c7c([H])c([H])c(Oc8c([H])c([H])c(F)c([H])c8F)c([H])c7[H])c(C(=O)N([H])[H])c6N([H])[H])C5([H])[H])C([H])([H])C4([H])C([H])([H])[H])C3([H])C(=O)C([H])([H])[H])c([H])c([H])c2C1([H])[H]

$$$$
49:0:0
     RDKit          3D

 96103  0  0  1  0  0  0  0  0999 V2000
  -30.3210  -21.1580   18.7170 C   0  0  0  0  0  2  0  0  0  0  0  0
  -29.1910  -21.9190   18.1820 N   0  0  0  0  0  4  0  0  0  0  0  0
  -28.5250  -22.1250   18.9060 H   0  0  0  0  0  0  0  0  0  0  0  0
  -28.6830  -21.3360   17.5350 H   0  0  0  0  0  0  0  0  0  0  0  0
  -29.5790  -23.1310   17.4550 C   0  0  0  0  0  2  0  0  0  0  0  0
  -30.4130  -24.1760   18.2390 C   0  0  0  0  0  2  0  0  0  0  0  0
  -29.7070  -24.9490   19.3740 C   0  0  0  0  0  2  0  0  0  0  0  0
  -28.6280  -25.9580   18.9380 C   0  0  0  0  0  2  0  0  0  0  0  0
  -28.2780  -26.7490   20.0780 O   0  0  0  0  0  0  0  0  0  0  0  0
  -24.5330  -31.9030   23.2330 C   0  0  0  0  0  0  0  0  0  0  0  0
  -27.0900  -27.4490   20.0840 C   0  0  0  0  0  0  0  0  0  0  0  0
  -23.2790  -30.5130   21.6110 C   0  0  0  0  0  3  0  0  0  0  0  0
  -24.6890  -28.9500   20.1710 C   0  0  0  0  0  0  0  0  0  0  0  0
  -25.8010  -30.8410   21.3740 C   0  0  0  0  0  2  0  0  0  0  0  0
  -25.8590  -29.4680   20.7380 C   0  0  0  0  0  0  0  0  0  0  0  0
  -27.0530  -28.7160   20.7110 C   0  0  0  0  0  3  0  0  0  0  0  0
  -25.8940  -26.9360   19.5290 C   0  0  0  0  0  3  0  0  0  0  0  0
  -24.6980  -27.6760   19.5790 C   0  0  0  0  0  3  0  0  0  0  0  0
  -23.4520  -29.8180   20.2350 C   0  0  0  0  0  2  0  0  0  0  0  0
  -24.5560  -31.1010   22.1310 N   0  0  0  0  0  0  0  0  0  0  0  0
  -23.4670  -32.1920   23.7920 O   0  0  0  0  0  0  0  0  0  0  0  0
  -22.6340  -29.5070   22.5890 C   0  0  0  0  0  0  0  0  0  0  0  0
  -21.3090  -29.3210   22.4670 N   0  0  0  0  0  0  0  0  0  0  0  0
  -23.3210  -28.8910   23.4100 O   0  0  0  0  0  0  0  0  0  0  0  0
  -20.8140  -29.8680   21.7750 H   0  0  0  0  0  0  0  0  0  0  0  0
  -17.9450  -28.1050   22.9590 C   0  0  0  0  0  0  0  0  0  0  0  0
  -20.4960  -28.3920   23.2500 C   0  0  0  0  0  3  0  0  0  0  0  0
  -20.6170  -26.9500   22.7050 C   0  0  0  0  0  2  0  0  0  0  0  0
  -19.5290  -26.5960   21.6850 C   0  0  0  0  0  2  0  0  0  0  0  0
  -18.1410  -26.7430   22.3150 C   0  0  0  0  0  2  0  0  0  0  0  0
  -19.0530  -28.8860   23.3840 C   0  0  0  0  0  0  0  0  0  0  0  0
  -18.8200  -30.1610   23.9440 C   0  0  0  0  0  3  0  0  0  0  0  0
  -17.5100  -30.6560   24.0850 C   0  0  0  0  0  3  0  0  0  0  0  0
  -16.4150  -29.8730   23.6790 C   0  0  0  0  0  3  0  0  0  0  0  0
  -16.6340  -28.5990   23.1230 C   0  0  0  0  0  3  0  0  0  0  0  0
  -25.8440  -32.5130   23.8250 C   0  0  0  0  0  3  0  0  0  0  0  0
  -26.3880  -31.7260   25.0810 C   0  0  1  0  0  0  0  0  0  0  0  0
  -25.3190  -31.4910   26.1740 C   0  0  0  0  0  1  0  0  0  0  0  0
  -26.9490  -30.3460   24.6630 C   0  0  0  0  0  1  0  0  0  0  0  0
  -27.5620  -32.5030   25.7230 C   0  0  0  0  0  1  0  0  0  0  0  0
  -25.5600  -33.9120   24.1710 N   0  0  0  0  0  0  0  0  0  0  0  0
  -25.8890  -34.9670   23.4130 C   0  0  0  0  0  0  0  0  0  0  0  0
  -26.5390  -34.8630   22.3690 O   0  0  0  0  0  0  0  0  0  0  0  0
  -24.9840  -34.0680   24.9850 H   0  0  0  0  0  0  0  0  0  0  0  0
  -24.1730  -36.7780   23.1020 C   0  0  0  0  0  1  0  0  0  0  0  0
  -25.4250  -36.3560   23.8870 C   0  0  0  0  0  3  0  0  0  0  0  0
  -27.5830  -37.2130   24.6830 C   0  0  0  0  0  1  0  0  0  0  0  0
  -26.4650  -37.3990   23.7620 N   0  0  0  0  0  0  0  0  0  0  0  0
  -26.0700  -38.3210   23.9260 H   0  0  0  0  0  0  0  0  0  0  0  0
  -29.9000  -19.7090   19.0300 C   0  0  0  0  0  2  0  0  0  0  0  0
  -31.0590  -18.8020   19.4730 C   0  0  0  0  0  2  0  0  0  0  0  0
  -30.6340  -17.3190   19.5170 C   0  0  0  0  0  2  0  0  0  0  0  0
  -31.1210  -16.5290   20.7580 C   0  0  0  0  0  3  0  0  0  0  0  0
  -31.2430  -14.1640   19.9770 C   0  0  0  0  0  0  0  0  0  0  0  0
  -30.7450  -12.0840   18.7570 C   0  0  0  0  0  2  0  0  0  0  0  0
  -29.7670  -12.3930   17.6060 C   0  0  0  0  0  2  0  0  0  0  0  0
  -28.3060  -12.3570   18.0980 C   0  0  0  0  0  2  0  0  0  0  0  0
  -28.0910  -13.1850   19.3940 C   0  0  0  0  0  3  0  0  0  0  0  0
  -29.1640  -12.8350   20.4470 C   0  0  0  0  0  2  0  0  0  0  0  0
  -30.4870  -13.0500   19.8350 N   0  0  0  0  0  0  0  0  0  0  0  0
  -32.3270  -14.3230   19.4070 O   0  0  0  0  0  0  0  0  0  0  0  0
  -30.6620  -15.1480   20.6760 N   0  0  0  0  0  0  0  0  0  0  0  0
  -29.7940  -14.9350   21.1430 H   0  0  0  0  0  0  0  0  0  0  0  0
  -25.7630  -13.9620   20.1790 C   0  0  0  0  0  0  0  0  0  0  0  0
  -24.6650  -13.2690   20.6070 C   0  0  0  0  0  0  0  0  0  0  0  0
  -25.0380  -11.8900   20.5840 C   0  0  0  0  0  0  0  0  0  0  0  0
  -26.7400  -13.0100   19.9250 N   0  0  0  0  0  0  0  0  0  0  0  0
  -26.3080  -11.7600   20.2230 N   0  0  0  0  0  0  0  0  0  0  0  0
  -24.2430  -10.6810   20.8310 C   0  0  0  0  0  0  0  0  0  0  0  0
  -24.6540   -9.7060   21.7660 C   0  0  0  0  0  3  0  0  0  0  0  0
  -23.8670   -8.5560   21.9940 C   0  0  0  0  0  3  0  0  0  0  0  0
  -22.6520   -8.3760   21.2880 C   0  0  0  0  0  0  0  0  0  0  0  0
  -22.2580   -9.3420   20.3440 C   0  0  0  0  0  3  0  0  0  0  0  0
  -23.0460  -10.4820   20.1150 C   0  0  0  0  0  3  0  0  0  0  0  0
  -21.8350   -7.2820   21.4270 O   0  0  0  0  0  0  0  0  0  0  0  0
  -21.7900   -6.5630   22.5950 C   0  0  0  0  0  0  0  0  0  0  0  0
  -21.4750   -7.1690   23.8320 C   0  0  0  0  0  3  0  0  0  0  0  0
  -21.3650   -6.3820   24.9960 C   0  0  0  0  0  3  0  0  0  0  0  0
  -21.5610   -4.9890   24.9240 C   0  0  0  0  0  0  0  0  0  0  0  0
  -21.8760   -4.3830   23.6950 C   0  0  0  0  0  3  0  0  0  0  0  0
  -21.9830   -5.1690   22.5340 C   0  0  0  0  0  0  0  0  0  0  0  0
  -22.2590   -4.5780   21.3470 F   0  0  0  0  0  0  0  0  0  0  0  0
  -21.4530   -4.2320   26.0390 F   0  0  0  0  0  0  0  0  0  0  0  0
  -23.3140  -13.8390   20.9280 C   0  0  0  0  0  0  0  0  0  0  0  0
  -22.5870  -13.2180   21.8500 N   0  0  0  0  0  0  0  0  0  0  0  0
  -22.9170  -14.8760   20.3950 O   0  0  0  0  0  0  0  0  0  0  0  0
  -22.9210  -12.3810   22.3040 H   0  0  0  0  0  0  0  0  0  0  0  0
  -21.6820  -13.5860   22.1060 H   0  0  0  0  0  0  0  0  0  0  0  0
  -26.0120  -15.3140   19.9660 N   0  0  0  0  0  0  0  0  0  0  0  0
  -25.2830  -16.0110   20.0690 H   0  0  0  0  0  0  0  0  0  0  0  0
  -26.8390  -15.6730   19.5080 H   0  0  0  0  0  0  0  0  0  0  0  0
  -30.6500  -17.1240   22.0910 C   0  0  0  0  0  0  0  0  0  0  0  0
  -29.3390  -17.2310   22.2870 N   0  0  0  0  0  0  0  0  0  0  0  0
  -31.4550  -17.4550   22.9580 O   0  0  0  0  0  0  0  0  0  0  0  0
  -28.6830  -16.9890   21.5600 H   0  0  0  0  0  0  0  0  0  0  0  0
  -28.9910  -17.6340   23.1450 H   0  0  0  0  0  0  0  0  0  0  0  0
  1 50  1  0
  2  1  1  0
  2  3  1  0
  4  2  1  0
  5  2  1  0
  5  6  1  0
  6  7  1  0
  8  7  1  0
  8  9  1  0
  9 11  1  0
 10 21  2  0
 11 16  1  0
 12 20  1  0
 12 22  1  0
 13 19  1  0
 13 15  1  0
 14 20  1  0
 15 14  1  0
 16 15  2  0
 17 18  1  0
 17 11  2  0
 18 13  2  0
 19 12  1  0
 20 10  1  0
 22 24  2  0
 23 22  1  0
 25 23  1  0
 26 35  2  0
 26 31  1  0
 27 23  1  0
 27 31  1  0
 28 27  1  0
 29 30  1  0
 29 28  1  0
 30 26  1  0
 31 32  2  0
 32 33  1  0
 34 33  2  0
 35 34  1  0
 36 10  1  0
 36 41  1  0
 36 37  1  0
 37 40  1  1
 37 38  1  0
 39 37  1  0
 41 44  1  0
 42 46  1  0
 42 41  1  0
 43 42  2  0
 46 45  1  0
 48 46  1  0
 48 49  1  0
 48 47  1  0
 50 51  1  0
 51 52  1  0
 53 52  1  0
 53 92  1  0
 54 62  1  0
 55 60  1  0
 56 57  1  0
 56 55  1  0
 58 57  1  0
 58 67  1  0
 58 59  1  0
 60 54  1  0
 60 59  1  0
 61 54  2  0
 62 53  1  0
 62 63  1  0
 64 65  2  0
 65 84  1  0
 66 65  1  0
 66 69  1  0
 67 64  1  0
 67 68  1  0
 68 66  2  0
 69 70  1  0
 70 71  2  0
 72 75  1  0
 72 71  1  0
 73 72  2  0
 74 73  1  0
 74 69  2  0
 75 76  1  0
 76 77  1  0
 77 78  2  0
 79 78  1  0
 79 83  1  0
 80 79  2  0
 81 76  2  0
 81 80  1  0
 82 81  1  0
 84 85  1  0
 85 88  1  0
 85 87  1  0
 86 84  2  0
 89 90  1  0
 89 64  1  0
 91 89  1  0
 92 93  1  0
 92 94  2  0
 93 96  1  0
 95 93  1  0
M  ISO  4   8 101   9 101  54 100  62 100
M  END
>  <TORSDO>  (50) 
F 26

>  <SCORE>  (50) 
-10.505

>  <name>  (50) 
49

>  <ligand_id>  (50) 
49

>  <original_smiles>  (50) 
[H]c1c([H])c([H])c2c(c1[H])C([H])([H])C([H])([H])C([H])([H])C2([H])N([H])C(=O)C1([H])N(C(=O)C([H])(N([H])C(=O)C([H])(N([H])C([H])([H])[H])C([H])([H])[H])C(C([H])([H])[H])(C([H])([H])[H])C([H])([H])[H])C([H])([H])c2c([H])c(OC([H])([H])C([H])([H])C([H])([H])C([H])([H])[N+]([H])([H])C([H])([H])C([H])([H])C([H])([H])C([H])([H])C([H])(C(=O)N([H])[H])N([H])C(=O)N3C([H])([H])C([H])([H])C([H])([H])C([H])(n4nc(-c5c([H])c([H])c(Oc6c([H])c([H])c(F)c([H])c6F)c([H])c5[H])c(C(=O)N([H])[H])c4N([H])[H])C3([H])[H])c([H])c([H])c2C1([H])[H]

>  <smiles>  (50) 
[H]c1c([H])c([H])c2c(c1[H])C([H])([H])C([H])([H])C([H])([H])C2([H])N([H])C(=O)C1([H])N(C(=O)C([H])(N([H])C(=O)C([H])(N([H])C([H])([H])[H])C([H])([H])[H])C(C([H])([H])[H])(C([H])([H])[H])C([H])([H])[H])C([H])([H])c2c([H])c(OC([H])([H])C([H])([H])C([H])([H])C([H])([H])[N+]([H])([H])C([H])([H])C([H])([H])C([H])([H])C([H])([H])C([H])(C(=O)N([H])[H])N([H])C(=O)N3C([H])([H])C([H])([H])C([H])([H])C([H])(n4nc(-c5c([H])c([H])c(Oc6c([H])c([H])c(F)c([H])c6F)c([H])c5[H])c(C(=O)N([H])[H])c4N([H])[H])C3([H])[H])c([H])c([H])c2C1([H])[H]

$$$$
50:0:0
     RDKit          3D

 93101  0  0  1  0  0  0  0  0999 V2000
  -29.7610  -21.5100   21.1700 C   0  0  0  0  0  3  0  0  0  0  0  0
  -29.4550  -20.1900   21.1820 C   0  0  0  0  0  0  0  0  0  0  0  0
  -30.6070  -18.4160   22.6470 C   0  0  0  0  0  2  0  0  0  0  0  0
  -31.3110  -17.0710   22.4090 C   0  0  0  0  0  2  0  0  0  0  0  0
  -30.2220  -17.8430   20.3460 C   0  0  0  0  0  2  0  0  0  0  0  0
  -30.4770  -19.0530   21.2590 C   0  0  0  0  0  3  0  0  0  0  0  0
  -31.1360  -16.7340   20.9140 C   0  0  0  0  0  3  0  0  0  0  0  0
  -31.1240  -14.4100   19.9720 C   0  0  0  0  0  0  0  0  0  0  0  0
  -30.7410  -12.1950   18.9480 C   0  0  0  0  0  2  0  0  0  0  0  0
  -29.7660  -12.3160   17.7610 C   0  0  0  0  0  2  0  0  0  0  0  0
  -28.3060  -12.2320   18.2430 C   0  0  0  0  0  2  0  0  0  0  0  0
  -28.0150  -13.1770   19.4390 C   0  0  0  0  0  3  0  0  0  0  0  0
  -29.0940  -13.0190   20.5350 C   0  0  0  0  0  2  0  0  0  0  0  0
  -30.4120  -13.2530   19.9180 N   0  0  0  0  0  0  0  0  0  0  0  0
  -32.1730  -14.5840   19.3460 O   0  0  0  0  0  0  0  0  0  0  0  0
  -30.5870  -15.3860   20.7240 N   0  0  0  0  0  0  0  0  0  0  0  0
  -29.7260  -15.1620   21.2000 H   0  0  0  0  0  0  0  0  0  0  0  0
  -25.6800  -13.8950   20.2520 C   0  0  0  0  0  0  0  0  0  0  0  0
  -24.5910  -13.1710   20.6610 C   0  0  0  0  0  0  0  0  0  0  0  0
  -24.9830  -11.7990   20.5960 C   0  0  0  0  0  0  0  0  0  0  0  0
  -26.6700  -12.9650   19.9710 N   0  0  0  0  0  0  0  0  0  0  0  0
  -26.2550  -11.6990   20.2320 N   0  0  0  0  0  0  0  0  0  0  0  0
  -24.2050  -10.5710   20.8080 C   0  0  0  0  0  0  0  0  0  0  0  0
  -24.5770   -9.6220   21.7840 C   0  0  0  0  0  3  0  0  0  0  0  0
  -23.8020   -8.4570   21.9810 C   0  0  0  0  0  3  0  0  0  0  0  0
  -22.6440   -8.2350   21.2000 C   0  0  0  0  0  0  0  0  0  0  0  0
  -22.2910   -9.1740   20.2140 C   0  0  0  0  0  3  0  0  0  0  0  0
  -23.0650  -10.3300   20.0160 C   0  0  0  0  0  3  0  0  0  0  0  0
  -21.8460   -7.1220   21.3030 O   0  0  0  0  0  0  0  0  0  0  0  0
  -21.6610   -6.4770   22.4990 C   0  0  0  0  0  0  0  0  0  0  0  0
  -21.1270   -7.1380   23.6280 C   0  0  0  0  0  3  0  0  0  0  0  0
  -20.8890   -6.4210   24.8160 C   0  0  0  0  0  3  0  0  0  0  0  0
  -21.1740   -5.0420   24.8780 C   0  0  0  0  0  0  0  0  0  0  0  0
  -21.7000   -4.3820   23.7540 C   0  0  0  0  0  3  0  0  0  0  0  0
  -21.9400   -5.0970   22.5670 C   0  0  0  0  0  0  0  0  0  0  0  0
  -22.4270   -4.4510   21.4800 F   0  0  0  0  0  0  0  0  0  0  0  0
  -20.9390   -4.3510   26.0180 F   0  0  0  0  0  0  0  0  0  0  0  0
  -23.2330  -13.7120   21.0010 C   0  0  0  0  0  0  0  0  0  0  0  0
  -22.5180  -13.0500   21.9040 N   0  0  0  0  0  0  0  0  0  0  0  0
  -22.8160  -14.7560   20.5010 O   0  0  0  0  0  0  0  0  0  0  0  0
  -22.8690  -12.2040   22.3290 H   0  0  0  0  0  0  0  0  0  0  0  0
  -21.6080  -13.3930   22.1760 H   0  0  0  0  0  0  0  0  0  0  0  0
  -25.9060  -15.2570   20.0790 N   0  0  0  0  0  0  0  0  0  0  0  0
  -25.1830  -15.9530   20.2320 H   0  0  0  0  0  0  0  0  0  0  0  0
  -26.7720  -15.6530   19.7360 H   0  0  0  0  0  0  0  0  0  0  0  0
  -28.7640  -22.6060   21.1340 C   0  0  0  0  0  0  0  0  0  0  0  0
  -27.5670  -22.4290   21.3810 O   0  0  0  0  0  0  0  0  0  0  0  0
  -29.2370  -24.0170   20.7630 C   0  0  0  0  0  2  0  0  0  0  0  0
  -28.8150  -25.0950   21.7870 C   0  0  0  0  0  2  0  0  0  0  0  0
  -29.1860  -26.5240   21.3480 C   0  0  0  0  0  2  0  0  0  0  0  0
  -28.5050  -26.8480   20.1380 O   0  0  0  0  0  0  0  0  0  0  0  0
  -24.6200  -31.9740   23.2830 C   0  0  0  0  0  0  0  0  0  0  0  0
  -27.3390  -27.5710   20.2350 C   0  0  0  0  0  0  0  0  0  0  0  0
  -23.4340  -30.5490   21.6410 C   0  0  0  0  0  3  0  0  0  0  0  0
  -24.9150  -29.0190   20.2360 C   0  0  0  0  0  0  0  0  0  0  0  0
  -25.9520  -30.9450   21.4490 C   0  0  0  0  0  2  0  0  0  0  0  0
  -26.0590  -29.5680   20.8290 C   0  0  0  0  0  0  0  0  0  0  0  0
  -27.2740  -28.8490   20.8350 C   0  0  0  0  0  3  0  0  0  0  0  0
  -26.1840  -27.0330   19.6350 C   0  0  0  0  0  3  0  0  0  0  0  0
  -24.9690  -27.7460   19.6410 C   0  0  0  0  0  3  0  0  0  0  0  0
  -23.6580  -29.8600   20.2680 C   0  0  0  0  0  2  0  0  0  0  0  0
  -24.6860  -31.1720   22.1830 N   0  0  0  0  0  0  0  0  0  0  0  0
  -23.5350  -32.2340   23.8220 O   0  0  0  0  0  0  0  0  0  0  0  0
  -22.7930  -29.5260   22.6060 C   0  0  0  0  0  0  0  0  0  0  0  0
  -21.4760  -29.3110   22.4610 N   0  0  0  0  0  0  0  0  0  0  0  0
  -23.4780  -28.9250   23.4370 O   0  0  0  0  0  0  0  0  0  0  0  0
  -20.9840  -29.8530   21.7640 H   0  0  0  0  0  0  0  0  0  0  0  0
  -18.1240  -28.0390   22.9080 C   0  0  0  0  0  0  0  0  0  0  0  0
  -20.6680  -28.3650   23.2280 C   0  0  0  0  0  3  0  0  0  0  0  0
  -20.8170  -26.9290   22.6750 C   0  0  0  0  0  2  0  0  0  0  0  0
  -19.7460  -26.5650   21.6430 C   0  0  0  0  0  2  0  0  0  0  0  0
  -18.3470  -26.6850   22.2570 C   0  0  0  0  0  2  0  0  0  0  0  0
  -19.2140  -28.8350   23.3500 C   0  0  0  0  0  0  0  0  0  0  0  0
  -18.9540  -30.1020   23.9150 C   0  0  0  0  0  3  0  0  0  0  0  0
  -17.6350  -30.5770   24.0420 C   0  0  0  0  0  3  0  0  0  0  0  0
  -16.5590  -29.7790   23.6190 C   0  0  0  0  0  3  0  0  0  0  0  0
  -16.8040  -28.5120   23.0590 C   0  0  0  0  0  3  0  0  0  0  0  0
  -25.8980  -32.6210   23.9030 C   0  0  0  0  0  3  0  0  0  0  0  0
  -25.5800  -34.0210   24.2120 N   0  0  0  0  0  0  0  0  0  0  0  0
  -25.9210  -35.0650   23.4440 C   0  0  0  0  0  0  0  0  0  0  0  0
  -26.6070  -34.9520   22.4250 O   0  0  0  0  0  0  0  0  0  0  0  0
  -24.9760  -34.1820   25.0050 H   0  0  0  0  0  0  0  0  0  0  0  0
  -24.1950  -36.8460   23.0290 C   0  0  0  0  0  1  0  0  0  0  0  0
  -25.4180  -36.4570   23.8740 C   0  0  0  0  0  3  0  0  0  0  0  0
  -27.5300  -37.3580   24.7420 C   0  0  0  0  0  1  0  0  0  0  0  0
  -26.4490  -37.5110   23.7730 N   0  0  0  0  0  0  0  0  0  0  0  0
  -26.0370  -38.4310   23.9000 H   0  0  0  0  0  0  0  0  0  0  0  0
  -26.4150  -31.8680   25.1900 C   0  0  1  0  0  0  0  0  0  0  0  0
  -25.3150  -31.6130   26.2470 C   0  0  0  0  0  1  0  0  0  0  0  0
  -27.0320  -30.5020   24.8080 C   0  0  0  0  0  1  0  0  0  0  0  0
  -27.5390  -32.6910   25.8640 C   0  0  0  0  0  1  0  0  0  0  0  0
  -28.2040  -19.7020   21.1440 O   0  0  0  0  0  0  0  0  0  0  0  0
  -27.6120  -20.4490   21.1390 H   0  0  0  0  0  0  0  0  0  0  0  0
  1  2  2  0
  4  3  1  0
  5  7  1  0
  5  6  1  0
  6  2  1  0
  6  3  1  0
  7 16  1  0
  7  4  1  0
  8 16  1  0
  9 14  1  0
 10 11  1  0
 10  9  1  0
 12 11  1  0
 12 21  1  0
 12 13  1  0
 14  8  1  0
 14 13  1  0
 15  8  2  0
 16 17  1  0
 18 19  2  0
 19 38  1  0
 20 19  1  0
 20 23  1  0
 21 22  1  0
 21 18  1  0
 22 20  2  0
 23 24  1  0
 24 25  2  0
 26 29  1  0
 26 25  1  0
 27 26  2  0
 28 27  1  0
 28 23  2  0
 29 30  1  0
 30 35  2  0
 30 31  1  0
 31 32  2  0
 32 33  1  0
 33 37  1  0
 34 33  2  0
 35 34  1  0
 36 35  1  0
 38 39  1  0
 39 42  1  0
 39 41  1  0
 40 38  2  0
 43 44  1  0
 43 18  1  0
 45 43  1  0
 46  1  1  0
 46 47  2  0
 48 46  1  0
 48 49  1  0
 50 49  1  0
 51 53  1  0
 51 50  1  0
 52 63  2  0
 53 58  1  0
 54 62  1  0
 54 64  1  0
 55 61  1  0
 55 57  1  0
 56 62  1  0
 57 58  2  0
 57 56  1  0
 59 60  1  0
 59 53  2  0
 60 55  2  0
 61 54  1  0
 62 52  1  0
 64 66  2  0
 65 64  1  0
 67 65  1  0
 68 77  2  0
 68 73  1  0
 69 65  1  0
 69 73  1  0
 70 69  1  0
 71 72  1  0
 71 70  1  0
 72 68  1  0
 73 74  2  0
 74 75  1  0
 76 75  2  0
 77 76  1  0
 78 52  1  0
 78 79  1  0
 78 88  1  0
 79 82  1  0
 80 84  1  0
 80 79  1  0
 81 80  2  0
 84 83  1  0
 86 84  1  0
 86 87  1  0
 86 85  1  0
 88 91  1  1
 88 89  1  0
 90 88  1  0
 92  2  1  0
 93 92  1  0
M  ISO  4   8 100  16 100  50 101  51 101
M  END
>  <TORSDO>  (51) 
F 22

>  <SCORE>  (51) 
-12.550

>  <name>  (51) 
50

>  <ligand_id>  (51) 
50

>  <original_smiles>  (51) 
[H]OC(=C([H])C(=O)C([H])([H])C([H])([H])C([H])([H])Oc1c([H])c([H])c2c(c1[H])C([H])([H])N(C(=O)C([H])(N([H])C(=O)C([H])(N([H])C([H])([H])[H])C([H])([H])[H])C(C([H])([H])[H])(C([H])([H])[H])C([H])([H])[H])C([H])(C(=O)N([H])C1([H])c3c([H])c([H])c([H])c([H])c3C([H])([H])C([H])([H])C1([H])[H])C2([H])[H])C1([H])C([H])([H])C([H])([H])C([H])(N([H])C(=O)N2C([H])([H])C([H])([H])C([H])([H])C([H])(n3nc(-c4c([H])c([H])c(Oc5c([H])c([H])c(F)c([H])c5F)c([H])c4[H])c(C(=O)N([H])[H])c3N([H])[H])C2([H])[H])C1([H])[H]

>  <smiles>  (51) 
[H]OC(=C([H])C(=O)C([H])([H])C([H])([H])C([H])([H])Oc1c([H])c([H])c2c(c1[H])C([H])([H])N(C(=O)C([H])(N([H])C(=O)C([H])(N([H])C([H])([H])[H])C([H])([H])[H])C(C([H])([H])[H])(C([H])([H])[H])C([H])([H])[H])C([H])(C(=O)N([H])C1([H])c3c([H])c([H])c([H])c([H])c3C([H])([H])C([H])([H])C1([H])[H])C2([H])[H])C1([H])C([H])([H])C([H])([H])C([H])(N([H])C(=O)N2C([H])([H])C([H])([H])C([H])([H])C([H])(n3nc(-c4c([H])c([H])c(Oc5c([H])c([H])c(F)c([H])c5F)c([H])c4[H])c(C(=O)N([H])[H])c3N([H])[H])C2([H])[H])C1([H])[H]

$$$$
51:0:0
     RDKit          3D

 93101  0  0  1  0  0  0  0  0999 V2000
  -29.9410  -20.2620   22.0600 C   0  0  0  0  0  3  0  0  0  0  0  0
  -29.3010  -21.3570   21.4480 C   0  0  0  0  0  3  0  0  0  0  0  0
  -31.7380  -20.4090   20.4310 C   0  0  0  0  0  3  0  0  0  0  0  0
  -31.1630  -19.7770   21.5520 C   0  0  0  0  0  0  0  0  0  0  0  0
  -29.8670  -21.9900   20.3190 C   0  0  0  0  0  0  0  0  0  0  0  0
  -31.1030  -21.5110   19.8130 C   0  0  0  0  0  0  0  0  0  0  0  0
  -31.7560  -22.1460   18.5960 C   0  0  0  0  0  1  0  0  0  0  0  0
  -31.8750  -18.6140   22.2370 C   0  0  0  0  0  2  0  0  0  0  0  0
  -31.7200  -17.2360   21.5520 C   0  0  0  0  0  2  0  0  0  0  0  0
  -30.2570  -16.7860   21.3570 C   0  0  0  0  0  2  0  0  0  0  0  0
  -30.5900  -14.5400   20.2060 C   0  0  0  0  0  0  0  0  0  0  0  0
  -30.2360  -12.4710   18.9000 C   0  0  0  0  0  2  0  0  0  0  0  0
  -29.2330  -12.7320   17.7580 C   0  0  0  0  0  2  0  0  0  0  0  0
  -27.7840  -12.5550   18.2480 C   0  0  0  0  0  2  0  0  0  0  0  0
  -27.5030  -13.3270   19.5650 C   0  0  0  0  0  3  0  0  0  0  0  0
  -28.6050  -13.0340   20.6090 C   0  0  0  0  0  2  0  0  0  0  0  0
  -29.9120  -13.3750   20.0150 N   0  0  0  0  0  0  0  0  0  0  0  0
  -31.5850  -14.8570   19.5520 O   0  0  0  0  0  0  0  0  0  0  0  0
  -30.0550  -15.3480   21.1360 N   0  0  0  0  0  0  0  0  0  0  0  0
  -29.2800  -14.9390   21.6390 H   0  0  0  0  0  0  0  0  0  0  0  0
  -25.1190  -13.8890   20.3650 C   0  0  0  0  0  0  0  0  0  0  0  0
  -24.0780  -13.0960   20.7660 C   0  0  0  0  0  0  0  0  0  0  0  0
  -24.5590  -11.7520   20.7020 C   0  0  0  0  0  0  0  0  0  0  0  0
  -26.1690  -13.0290   20.0860 N   0  0  0  0  0  0  0  0  0  0  0  0
  -25.8360  -11.7370   20.3400 N   0  0  0  0  0  0  0  0  0  0  0  0
  -23.8610  -10.4770   20.9050 C   0  0  0  0  0  0  0  0  0  0  0  0
  -24.3040   -9.5400   21.8660 C   0  0  0  0  0  3  0  0  0  0  0  0
  -23.6080   -8.3260   22.0560 C   0  0  0  0  0  3  0  0  0  0  0  0
  -22.4540   -8.0420   21.2860 C   0  0  0  0  0  0  0  0  0  0  0  0
  -22.0320   -8.9690   20.3160 C   0  0  0  0  0  3  0  0  0  0  0  0
  -22.7290  -10.1730   20.1250 C   0  0  0  0  0  3  0  0  0  0  0  0
  -21.7300   -6.8790   21.3840 O   0  0  0  0  0  0  0  0  0  0  0  0
  -21.6370   -6.1860   22.5650 C   0  0  0  0  0  0  0  0  0  0  0  0
  -21.0950   -6.7710   23.7300 C   0  0  0  0  0  3  0  0  0  0  0  0
  -20.9540   -6.0010   24.9030 C   0  0  0  0  0  3  0  0  0  0  0  0
  -21.3440   -4.6490   24.9090 C   0  0  0  0  0  0  0  0  0  0  0  0
  -21.8770   -4.0630   23.7470 C   0  0  0  0  0  3  0  0  0  0  0  0
  -22.0200   -4.8300   22.5780 C   0  0  0  0  0  0  0  0  0  0  0  0
  -22.5150   -4.2570   21.4540 F   0  0  0  0  0  0  0  0  0  0  0  0
  -21.2000   -3.9060   26.0320 F   0  0  0  0  0  0  0  0  0  0  0  0
  -22.6850  -13.5470   21.1030 C   0  0  0  0  0  0  0  0  0  0  0  0
  -22.0010  -12.8200   21.9790 N   0  0  0  0  0  0  0  0  0  0  0  0
  -22.2140  -14.5780   20.6240 O   0  0  0  0  0  0  0  0  0  0  0  0
  -22.3970  -11.9880   22.3880 H   0  0  0  0  0  0  0  0  0  0  0  0
  -21.0670  -13.1010   22.2430 H   0  0  0  0  0  0  0  0  0  0  0  0
  -25.2550  -15.2640   20.1990 N   0  0  0  0  0  0  0  0  0  0  0  0
  -24.4860  -15.9090   20.3470 H   0  0  0  0  0  0  0  0  0  0  0  0
  -26.0950  -15.7210   19.8630 H   0  0  0  0  0  0  0  0  0  0  0  0
  -29.0800  -23.1040   19.6230 C   0  0  0  0  0  2  0  0  0  0  0  0
  -29.3280  -24.5520   20.1270 C   0  0  0  0  0  2  0  0  0  0  0  0
  -28.8240  -25.8180   17.9490 C   0  0  0  0  0  1  0  0  0  0  0  0
  -28.4040  -25.5690   19.4080 C   0  0  0  0  0  3  0  0  0  0  0  0
  -28.3520  -26.8520   20.0650 O   0  0  0  0  0  0  0  0  0  0  0  0
  -24.5870  -32.0040   23.2550 C   0  0  0  0  0  0  0  0  0  0  0  0
  -27.1670  -27.5780   20.0610 C   0  0  0  0  0  0  0  0  0  0  0  0
  -23.3470  -30.6130   21.6320 C   0  0  0  0  0  3  0  0  0  0  0  0
  -24.7680  -29.1000   20.1570 C   0  0  0  0  0  0  0  0  0  0  0  0
  -25.8720  -30.9700   21.3850 C   0  0  0  0  0  2  0  0  0  0  0  0
  -25.9410  -29.6060   20.7280 C   0  0  0  0  0  0  0  0  0  0  0  0
  -27.1380  -28.8500   20.6850 C   0  0  0  0  0  3  0  0  0  0  0  0
  -25.9670  -27.1040   19.4730 C   0  0  0  0  0  3  0  0  0  0  0  0
  -24.7760  -27.8470   19.5310 C   0  0  0  0  0  3  0  0  0  0  0  0
  -23.5250  -29.9550   20.2390 C   0  0  0  0  0  2  0  0  0  0  0  0
  -24.6210  -31.2120   22.1480 N   0  0  0  0  0  0  0  0  0  0  0  0
  -23.5160  -32.2670   23.8220 O   0  0  0  0  0  0  0  0  0  0  0  0
  -22.7210  -29.5780   22.5950 C   0  0  0  0  0  0  0  0  0  0  0  0
  -21.4050  -29.3470   22.4550 N   0  0  0  0  0  0  0  0  0  0  0  0
  -23.4160  -28.9850   23.4240 O   0  0  0  0  0  0  0  0  0  0  0  0
  -20.9040  -29.8800   21.7580 H   0  0  0  0  0  0  0  0  0  0  0  0
  -18.0780  -28.0150   22.9020 C   0  0  0  0  0  0  0  0  0  0  0  0
  -20.6130  -28.3920   23.2290 C   0  0  0  0  0  3  0  0  0  0  0  0
  -20.7940  -26.9540   22.6890 C   0  0  0  0  0  2  0  0  0  0  0  0
  -19.7320  -26.5600   21.6570 C   0  0  0  0  0  2  0  0  0  0  0  0
  -18.3300  -26.6580   22.2640 C   0  0  0  0  0  2  0  0  0  0  0  0
  -19.1500  -28.8350   23.3410 C   0  0  0  0  0  0  0  0  0  0  0  0
  -18.8620  -30.1020   23.8920 C   0  0  0  0  0  3  0  0  0  0  0  0
  -17.5330  -30.5490   24.0150 C   0  0  0  0  0  3  0  0  0  0  0  0
  -16.4730  -29.7270   23.5940 C   0  0  0  0  0  3  0  0  0  0  0  0
  -16.7470  -28.4620   23.0420 C   0  0  0  0  0  3  0  0  0  0  0  0
  -25.8840  -32.6340   23.8500 C   0  0  0  0  0  3  0  0  0  0  0  0
  -25.5840  -34.0310   24.1830 N   0  0  0  0  0  0  0  0  0  0  0  0
  -25.8960  -35.0820   23.4130 C   0  0  0  0  0  0  0  0  0  0  0  0
  -26.5410  -34.9750   22.3660 O   0  0  0  0  0  0  0  0  0  0  0  0
  -25.0110  -34.1880   25.0000 H   0  0  0  0  0  0  0  0  0  0  0  0
  -24.1570  -36.8690   23.0950 C   0  0  0  0  0  1  0  0  0  0  0  0
  -25.4180  -36.4710   23.8790 C   0  0  0  0  0  3  0  0  0  0  0  0
  -27.5660  -37.3650   24.6590 C   0  0  0  0  0  1  0  0  0  0  0  0
  -26.4460  -37.5260   23.7360 N   0  0  0  0  0  0  0  0  0  0  0  0
  -26.0410  -38.4460   23.8860 H   0  0  0  0  0  0  0  0  0  0  0  0
  -26.4260  -31.8600   25.1140 C   0  0  1  0  0  0  0  0  0  0  0  0
  -25.3490  -31.6020   26.1930 C   0  0  0  0  0  1  0  0  0  0  0  0
  -27.0240  -30.4940   24.7040 C   0  0  0  0  0  1  0  0  0  0  0  0
  -27.5720  -32.6660   25.7680 C   0  0  0  0  0  1  0  0  0  0  0  0
  2  1  2  0
  3  4  2  0
  4  1  1  0
  4  8  1  0
  5  2  1  0
  6  5  2  0
  6  3  1  0
  7  6  1  0
  9  8  1  0
 10  9  1  0
 11 19  1  0
 12 17  1  0
 13 14  1  0
 13 12  1  0
 15 14  1  0
 15 24  1  0
 15 16  1  0
 17 11  1  0
 17 16  1  0
 18 11  2  0
 19 10  1  0
 19 20  1  0
 21 22  2  0
 22 41  1  0
 23 22  1  0
 23 26  1  0
 24 25  1  0
 24 21  1  0
 25 23  2  0
 26 27  1  0
 27 28  2  0
 29 32  1  0
 29 28  1  0
 30 29  2  0
 31 30  1  0
 31 26  2  0
 32 33  1  0
 33 38  2  0
 33 34  1  0
 34 35  2  0
 35 36  1  0
 36 40  1  0
 37 36  2  0
 38 37  1  0
 39 38  1  0
 41 42  1  0
 42 45  1  0
 42 44  1  0
 43 41  2  0
 46 47  1  0
 46 21  1  0
 48 46  1  0
 49 50  1  0
 49  5  1  0
 52 51  1  0
 52 53  1  0
 52 50  1  0
 54 65  2  0
 55 53  1  0
 55 60  1  0
 56 64  1  0
 56 66  1  0
 57 63  1  0
 57 59  1  0
 58 64  1  0
 59 58  1  0
 60 59  2  0
 61 62  1  0
 61 55  2  0
 62 57  2  0
 63 56  1  0
 64 54  1  0
 66 68  2  0
 67 66  1  0
 69 67  1  0
 70 79  2  0
 70 75  1  0
 71 67  1  0
 71 75  1  0
 72 71  1  0
 73 74  1  0
 73 72  1  0
 74 70  1  0
 75 76  2  0
 76 77  1  0
 78 77  2  0
 79 78  1  0
 80 54  1  0
 80 81  1  0
 80 90  1  0
 81 84  1  0
 82 86  1  0
 82 81  1  0
 83 82  2  0
 86 85  1  0
 88 86  1  0
 88 89  1  0
 88 87  1  0
 90 93  1  1
 90 91  1  0
 92 90  1  0
M  ISO  4  11 100  19 100  52 101  53 101
M  END
>  <TORSDO>  (52) 
F 22

>  <SCORE>  (52) 
-12.464

>  <name>  (52) 
51

>  <ligand_id>  (52) 
51

>  <original_smiles>  (52) 
[H]c1c([H])c([H])c2c(c1[H])C([H])([H])C([H])([H])C([H])([H])C2([H])N([H])C(=O)C1([H])N(C(=O)C([H])(N([H])C(=O)C([H])(N([H])C([H])([H])[H])C([H])([H])[H])C(C([H])([H])[H])(C([H])([H])[H])C([H])([H])[H])C([H])([H])c2c([H])c(OC([H])(C([H])([H])[H])C([H])([H])C([H])([H])c3c([H])c([H])c(C([H])([H])C([H])([H])C([H])([H])N([H])C(=O)N4C([H])([H])C([H])([H])C([H])([H])C([H])(n5nc(-c6c([H])c([H])c(Oc7c([H])c([H])c(F)c([H])c7F)c([H])c6[H])c(C(=O)N([H])[H])c5N([H])[H])C4([H])[H])c([H])c3C([H])([H])[H])c([H])c([H])c2C1([H])[H]

>  <smiles>  (52) 
[H]c1c([H])c([H])c2c(c1[H])C([H])([H])C([H])([H])C([H])([H])C2([H])N([H])C(=O)C1([H])N(C(=O)C([H])(N([H])C(=O)C([H])(N([H])C([H])([H])[H])C([H])([H])[H])C(C([H])([H])[H])(C([H])([H])[H])C([H])([H])[H])C([H])([H])c2c([H])c(OC([H])(C([H])([H])[H])C([H])([H])C([H])([H])c3c([H])c([H])c(C([H])([H])C([H])([H])C([H])([H])N([H])C(=O)N4C([H])([H])C([H])([H])C([H])([H])C([H])(n5nc(-c6c([H])c([H])c(Oc7c([H])c([H])c(F)c([H])c7F)c([H])c6[H])c(C(=O)N([H])[H])c5N([H])[H])C4([H])[H])c([H])c3C([H])([H])[H])c([H])c([H])c2C1([H])[H]

$$$$
52:0:0
     RDKit          3D

 98106  0  0  1  0  0  0  0  0999 V2000
  -26.1710  -22.6830   20.5650 C   0  0  0  0  0  2  0  0  0  0  0  0
  -26.4090  -23.1060   18.2220 C   0  0  0  0  0  2  0  0  0  0  0  0
  -25.3320  -22.8360   19.2880 C   0  0  0  0  0  3  0  0  0  0  0  0
  -27.3700  -21.8200   20.1350 C   0  0  0  0  0  3  0  0  0  0  0  0
  -27.5900  -22.1990   18.6440 C   0  0  0  0  0  3  0  0  0  0  0  0
  -24.1800  -23.8580   19.4040 C   0  0  0  0  0  3  0  0  0  0  0  0
  -23.3010  -23.4250   20.4260 O   0  0  0  0  0  0  0  0  0  0  0  0
  -22.7010  -24.1400   20.6060 H   0  0  0  0  0  0  0  0  0  0  0  0
  -22.1800  -24.9740   18.2110 C   0  0  0  0  0  1  0  0  0  0  0  0
  -23.3630  -23.9960   18.1050 C   0  0  0  0  0  2  0  0  0  0  0  0
  -29.0570  -22.6120   18.2990 C   0  0  0  0  0  2  0  0  0  0  0  0
  -29.4320  -24.0700   17.9280 C   0  0  0  0  0  2  0  0  0  0  0  0
  -29.5860  -25.1180   19.0640 C   0  0  0  0  0  2  0  0  0  0  0  0
  -28.3230  -25.9680   19.2160 C   0  0  0  0  0  2  0  0  0  0  0  0
  -28.4140  -27.1890   19.9610 O   0  0  0  0  0  0  0  0  0  0  0  0
  -24.6670  -32.1670   23.4720 C   0  0  0  0  0  0  0  0  0  0  0  0
  -27.2360  -27.9180   20.0460 C   0  0  0  0  0  0  0  0  0  0  0  0
  -23.4180  -30.8580   21.7880 C   0  0  0  0  0  3  0  0  0  0  0  0
  -24.8340  -29.4180   20.2400 C   0  0  0  0  0  0  0  0  0  0  0  0
  -25.9430  -31.2270   21.5480 C   0  0  0  0  0  2  0  0  0  0  0  0
  -26.0090  -29.8970   20.8300 C   0  0  0  0  0  0  0  0  0  0  0  0
  -27.2100  -29.1490   20.7420 C   0  0  0  0  0  3  0  0  0  0  0  0
  -26.0310  -27.4770   19.4400 C   0  0  0  0  0  3  0  0  0  0  0  0
  -24.8390  -28.2030   19.5480 C   0  0  0  0  0  3  0  0  0  0  0  0
  -23.5910  -30.2660   20.3680 C   0  0  0  0  0  2  0  0  0  0  0  0
  -24.6950  -31.4290   22.3260 N   0  0  0  0  0  0  0  0  0  0  0  0
  -23.6000  -32.4020   24.0550 O   0  0  0  0  0  0  0  0  0  0  0  0
  -22.7970  -29.7790   22.7030 C   0  0  0  0  0  0  0  0  0  0  0  0
  -21.4810  -29.5500   22.5520 N   0  0  0  0  0  0  0  0  0  0  0  0
  -23.4940  -29.1510   23.5050 O   0  0  0  0  0  0  0  0  0  0  0  0
  -20.9790  -30.1060   21.8740 H   0  0  0  0  0  0  0  0  0  0  0  0
  -18.1660  -28.1560   22.9090 C   0  0  0  0  0  0  0  0  0  0  0  0
  -20.6920  -28.5570   23.2810 C   0  0  0  0  0  3  0  0  0  0  0  0
  -20.8990  -27.1410   22.6950 C   0  0  0  0  0  2  0  0  0  0  0  0
  -19.8550  -26.7670   21.6380 C   0  0  0  0  0  2  0  0  0  0  0  0
  -18.4460  -26.8230   22.2340 C   0  0  0  0  0  2  0  0  0  0  0  0
  -19.2220  -28.9750   23.3890 C   0  0  0  0  0  0  0  0  0  0  0  0
  -18.9090  -30.2170   23.9840 C   0  0  0  0  0  3  0  0  0  0  0  0
  -17.5750  -30.6430   24.1020 C   0  0  0  0  0  3  0  0  0  0  0  0
  -16.5320  -29.8220   23.6380 C   0  0  0  0  0  3  0  0  0  0  0  0
  -16.8280  -28.5800   23.0490 C   0  0  0  0  0  3  0  0  0  0  0  0
  -25.9690  -32.7650   24.0880 C   0  0  0  0  0  3  0  0  0  0  0  0
  -26.4730  -31.9780   25.3590 C   0  0  1  0  0  0  0  0  0  0  0  0
  -25.3770  -31.7500   26.4270 C   0  0  0  0  0  1  0  0  0  0  0  0
  -27.0340  -30.5930   24.9580 C   0  0  0  0  0  1  0  0  0  0  0  0
  -27.6380  -32.7490   26.0240 C   0  0  0  0  0  1  0  0  0  0  0  0
  -25.6950  -34.1680   24.4200 N   0  0  0  0  0  0  0  0  0  0  0  0
  -26.0540  -35.2120   23.6600 C   0  0  0  0  0  0  0  0  0  0  0  0
  -26.7240  -35.0930   22.6300 O   0  0  0  0  0  0  0  0  0  0  0  0
  -25.1040  -34.3350   25.2210 H   0  0  0  0  0  0  0  0  0  0  0  0
  -24.3670  -37.0420   23.3000 C   0  0  0  0  0  1  0  0  0  0  0  0
  -25.5960  -36.6100   24.1150 C   0  0  0  0  0  3  0  0  0  0  0  0
  -27.7510  -37.4410   24.9500 C   0  0  0  0  0  1  0  0  0  0  0  0
  -26.6540  -37.6400   24.0060 N   0  0  0  0  0  0  0  0  0  0  0  0
  -26.2700  -38.5680   24.1560 H   0  0  0  0  0  0  0  0  0  0  0  0
  -27.0070  -20.3330   20.4080 C   0  0  0  0  0  2  0  0  0  0  0  0
  -27.8080  -19.1930   19.7490 C   0  0  0  0  0  2  0  0  0  0  0  0
  -29.2360  -18.9340   20.2600 C   0  0  0  0  0  2  0  0  0  0  0  0
  -29.5560  -17.4380   20.0870 C   0  0  0  0  0  2  0  0  0  0  0  0
  -30.9050  -16.9500   20.6390 C   0  0  0  0  0  2  0  0  0  0  0  0
  -31.3430  -14.5760   19.9770 C   0  0  0  0  0  0  0  0  0  0  0  0
  -30.9550  -12.3540   18.9800 C   0  0  0  0  0  2  0  0  0  0  0  0
  -29.9900  -12.4730   17.7840 C   0  0  0  0  0  2  0  0  0  0  0  0
  -28.5200  -12.4250   18.2470 C   0  0  0  0  0  2  0  0  0  0  0  0
  -28.2360  -13.3960   19.4240 C   0  0  0  0  0  3  0  0  0  0  0  0
  -29.2960  -13.2110   20.5330 C   0  0  0  0  0  2  0  0  0  0  0  0
  -30.6360  -13.4170   19.9410 N   0  0  0  0  0  0  0  0  0  0  0  0
  -32.3480  -14.7930   19.2930 O   0  0  0  0  0  0  0  0  0  0  0  0
  -30.8190  -15.4990   20.7870 N   0  0  0  0  0  0  0  0  0  0  0  0
  -30.0800  -15.1610   21.3870 H   0  0  0  0  0  0  0  0  0  0  0  0
  -25.9070  -14.1810   20.2080 C   0  0  0  0  0  0  0  0  0  0  0  0
  -24.7960  -13.4880   20.6090 C   0  0  0  0  0  0  0  0  0  0  0  0
  -25.1540  -12.1060   20.5530 C   0  0  0  0  0  0  0  0  0  0  0  0
  -26.8770  -13.2270   19.9400 N   0  0  0  0  0  0  0  0  0  0  0  0
  -26.4260  -11.9730   20.2010 N   0  0  0  0  0  0  0  0  0  0  0  0
  -24.3430  -10.8980   20.7600 C   0  0  0  0  0  0  0  0  0  0  0  0
  -24.7140   -9.9150   21.7040 C   0  0  0  0  0  3  0  0  0  0  0  0
  -23.9100   -8.7710   21.9000 C   0  0  0  0  0  3  0  0  0  0  0  0
  -22.7210   -8.6030   21.1510 C   0  0  0  0  0  0  0  0  0  0  0  0
  -22.3690   -9.5740   20.1980 C   0  0  0  0  0  3  0  0  0  0  0  0
  -23.1720  -10.7100   20.0000 C   0  0  0  0  0  3  0  0  0  0  0  0
  -21.8930   -7.5120   21.2530 O   0  0  0  0  0  0  0  0  0  0  0  0
  -21.7700   -6.8090   22.4260 C   0  0  0  0  0  0  0  0  0  0  0  0
  -21.3590   -7.4280   23.6260 C   0  0  0  0  0  3  0  0  0  0  0  0
  -21.1780   -6.6570   24.7910 C   0  0  0  0  0  3  0  0  0  0  0  0
  -21.3980   -5.2660   24.7580 C   0  0  0  0  0  0  0  0  0  0  0  0
  -21.8000   -4.6470   23.5620 C   0  0  0  0  0  3  0  0  0  0  0  0
  -21.9830   -5.4150   22.3990 C   0  0  0  0  0  0  0  0  0  0  0  0
  -22.3520   -4.8100   21.2440 F   0  0  0  0  0  0  0  0  0  0  0  0
  -21.2170   -4.5240   25.8740 F   0  0  0  0  0  0  0  0  0  0  0  0
  -23.4480  -14.0640   20.9330 C   0  0  0  0  0  0  0  0  0  0  0  0
  -22.7040  -13.4220   21.8280 N   0  0  0  0  0  0  0  0  0  0  0  0
  -23.0640  -15.1170   20.4270 O   0  0  0  0  0  0  0  0  0  0  0  0
  -23.0250  -12.5680   22.2590 H   0  0  0  0  0  0  0  0  0  0  0  0
  -21.8010  -13.7940   22.0900 H   0  0  0  0  0  0  0  0  0  0  0  0
  -26.1680  -15.5370   20.0300 N   0  0  0  0  0  0  0  0  0  0  0  0
  -25.4580  -16.2460   20.1640 H   0  0  0  0  0  0  0  0  0  0  0  0
  -27.0410  -15.9060   19.6770 H   0  0  0  0  0  0  0  0  0  0  0  0
  2  5  1  0
  2  3  1  0
  3  6  1  0
  3  1  1  0
  4 56  1  0
  4  1  1  0
  5 11  1  0
  5  4  1  0
  6 10  1  0
  6  7  1  0
  7  8  1  0
 10  9  1  0
 12 11  1  0
 12 13  1  0
 13 14  1  0
 14 15  1  0
 15 17  1  0
 16 27  2  0
 17 22  1  0
 18 26  1  0
 18 28  1  0
 19 25  1  0
 19 21  1  0
 20 26  1  0
 21 20  1  0
 22 21  2  0
 23 24  1  0
 23 17  2  0
 24 19  2  0
 25 18  1  0
 26 16  1  0
 28 30  2  0
 29 28  1  0
 31 29  1  0
 32 41  2  0
 32 37  1  0
 33 29  1  0
 33 37  1  0
 34 33  1  0
 35 36  1  0
 35 34  1  0
 36 32  1  0
 37 38  2  0
 38 39  1  0
 40 39  2  0
 41 40  1  0
 42 16  1  0
 42 47  1  0
 42 43  1  0
 43 46  1  1
 43 44  1  0
 45 43  1  0
 47 50  1  0
 48 52  1  0
 48 47  1  0
 49 48  2  0
 52 51  1  0
 54 52  1  0
 54 55  1  0
 54 53  1  0
 57 58  1  0
 57 56  1  0
 59 58  1  0
 59 60  1  0
 60 69  1  0
 61 69  1  0
 62 67  1  0
 63 64  1  0
 63 62  1  0
 65 64  1  0
 65 74  1  0
 65 66  1  0
 67 61  1  0
 67 66  1  0
 68 61  2  0
 69 70  1  0
 71 72  2  0
 72 91  1  0
 73 72  1  0
 73 76  1  0
 74 75  1  0
 74 71  1  0
 75 73  2  0
 76 77  1  0
 77 78  2  0
 79 82  1  0
 79 78  1  0
 80 79  2  0
 81 80  1  0
 81 76  2  0
 82 83  1  0
 83 84  1  0
 84 85  2  0
 86 85  1  0
 86 90  1  0
 87 86  2  0
 88 83  2  0
 88 87  1  0
 89 88  1  0
 91 92  1  0
 92 95  1  0
 92 94  1  0
 93 91  2  0
 96 97  1  0
 96 71  1  0
 98 96  1  0
M  ISO  4  14 101  15 101  61 100  69 100
M  END
>  <TORSDO>  (53) 
F 28

>  <SCORE>  (53) 
-10.006

>  <name>  (53) 
52

>  <ligand_id>  (53) 
52

>  <original_smiles>  (53) 
[H]OC([H])(C([H])([H])C([H])([H])[H])C1([H])C([H])([H])C([H])(C([H])([H])C([H])([H])C([H])([H])C([H])([H])Oc2c([H])c([H])c3c(c2[H])C([H])([H])N(C(=O)C([H])(N([H])C(=O)C([H])(N([H])C([H])([H])[H])C([H])([H])[H])C(C([H])([H])[H])(C([H])([H])[H])C([H])([H])[H])C([H])(C(=O)N([H])C2([H])c4c([H])c([H])c([H])c([H])c4C([H])([H])C([H])([H])C2([H])[H])C3([H])[H])C([H])(C([H])([H])C([H])([H])C([H])([H])C([H])([H])C([H])([H])N([H])C(=O)N2C([H])([H])C([H])([H])C([H])([H])C([H])(n3nc(-c4c([H])c([H])c(Oc5c([H])c([H])c(F)c([H])c5F)c([H])c4[H])c(C(=O)N([H])[H])c3N([H])[H])C2([H])[H])C1([H])[H]

>  <smiles>  (53) 
[H]OC([H])(C([H])([H])C([H])([H])[H])C1([H])C([H])([H])C([H])(C([H])([H])C([H])([H])C([H])([H])C([H])([H])Oc2c([H])c([H])c3c(c2[H])C([H])([H])N(C(=O)C([H])(N([H])C(=O)C([H])(N([H])C([H])([H])[H])C([H])([H])[H])C(C([H])([H])[H])(C([H])([H])[H])C([H])([H])[H])C([H])(C(=O)N([H])C2([H])c4c([H])c([H])c([H])c([H])c4C([H])([H])C([H])([H])C2([H])[H])C3([H])[H])C([H])(C([H])([H])C([H])([H])C([H])([H])C([H])([H])C([H])([H])N([H])C(=O)N2C([H])([H])C([H])([H])C([H])([H])C([H])(n3nc(-c4c([H])c([H])c(Oc5c([H])c([H])c(F)c([H])c5F)c([H])c4[H])c(C(=O)N([H])[H])c3N([H])[H])C2([H])[H])C1([H])[H]

$$$$
53:0:0
     RDKit          3D

 93102  0  0  1  0  0  0  0  0999 V2000
  -28.4310  -21.8690   21.8870 C   0  0  0  0  0  2  0  0  0  0  0  0
  -27.8190  -22.4410   20.8530 C   0  0  0  0  0  3  0  0  0  0  0  0
  -30.1780  -24.3980   21.7220 C   0  0  0  0  0  2  0  0  0  0  0  0
  -30.7300  -22.9670   21.9650 C   0  0  0  0  0  2  0  0  0  0  0  0
  -29.0800  -22.8840   20.1440 C   0  0  0  0  0  3  0  0  0  0  0  0
  -29.4680  -24.3770   20.3500 C   0  0  0  0  0  3  0  0  0  0  0  0
  -29.8050  -22.0090   21.2090 C   0  0  2  0  0  0  0  0  0  0  0  0
  -26.1450  -22.1760   18.9820 C   0  0  0  0  0  1  0  0  0  0  0  0
  -26.3670  -22.5970   20.4410 C   0  0  0  0  0  2  0  0  0  0  0  0
  -28.2830  -25.3720   20.1790 C   0  0  0  0  0  2  0  0  0  0  0  0
  -28.5080  -26.8050   20.2160 O   0  0  0  0  0  0  0  0  0  0  0  0
  -24.6710  -32.0090   23.3110 C   0  0  0  0  0  0  0  0  0  0  0  0
  -27.3490  -27.5770   20.1970 C   0  0  0  0  0  0  0  0  0  0  0  0
  -23.4810  -30.6160   21.6560 C   0  0  0  0  0  3  0  0  0  0  0  0
  -24.9480  -29.1070   20.2210 C   0  0  0  0  0  0  0  0  0  0  0  0
  -26.0100  -30.9790   21.4750 C   0  0  0  0  0  2  0  0  0  0  0  0
  -26.1090  -29.6150   20.8180 C   0  0  0  0  0  0  0  0  0  0  0  0
  -27.3110  -28.8620   20.8020 C   0  0  0  0  0  3  0  0  0  0  0  0
  -26.1580  -27.1050   19.5870 C   0  0  0  0  0  3  0  0  0  0  0  0
  -24.9690  -27.8500   19.6060 C   0  0  0  0  0  3  0  0  0  0  0  0
  -23.7010  -29.9590   20.2710 C   0  0  0  0  0  2  0  0  0  0  0  0
  -24.7380  -31.2160   22.2050 N   0  0  0  0  0  0  0  0  0  0  0  0
  -23.5840  -32.2710   23.8470 O   0  0  0  0  0  0  0  0  0  0  0  0
  -22.8320  -29.5800   22.6020 C   0  0  0  0  0  0  0  0  0  0  0  0
  -21.5090  -29.3870   22.4610 N   0  0  0  0  0  0  0  0  0  0  0  0
  -23.5140  -28.9540   23.4180 O   0  0  0  0  0  0  0  0  0  0  0  0
  -21.0220  -29.9460   21.7760 H   0  0  0  0  0  0  0  0  0  0  0  0
  -18.1370  -28.1730   22.9390 C   0  0  0  0  0  0  0  0  0  0  0  0
  -20.6940  -28.4380   23.2170 C   0  0  0  0  0  3  0  0  0  0  0  0
  -20.8030  -27.0130   22.6260 C   0  0  0  0  0  2  0  0  0  0  0  0
  -19.7050  -26.6980   21.6050 C   0  0  0  0  0  2  0  0  0  0  0  0
  -18.3210  -26.8310   22.2480 C   0  0  0  0  0  2  0  0  0  0  0  0
  -19.2520  -28.9330   23.3800 C   0  0  0  0  0  0  0  0  0  0  0  0
  -19.0300  -30.1890   23.9850 C   0  0  0  0  0  3  0  0  0  0  0  0
  -17.7240  -30.6860   24.1520 C   0  0  0  0  0  3  0  0  0  0  0  0
  -16.6230  -29.9220   23.7300 C   0  0  0  0  0  3  0  0  0  0  0  0
  -16.8290  -28.6670   23.1280 C   0  0  0  0  0  3  0  0  0  0  0  0
  -25.9490  -32.6440   23.9410 C   0  0  0  0  0  3  0  0  0  0  0  0
  -25.6350  -34.0420   24.2600 N   0  0  0  0  0  0  0  0  0  0  0  0
  -25.9510  -35.0880   23.4840 C   0  0  0  0  0  0  0  0  0  0  0  0
  -26.6110  -34.9780   22.4470 O   0  0  0  0  0  0  0  0  0  0  0  0
  -25.0460  -34.2000   25.0640 H   0  0  0  0  0  0  0  0  0  0  0  0
  -24.1940  -36.8550   23.1440 C   0  0  0  0  0  1  0  0  0  0  0  0
  -25.4580  -36.4780   23.9300 C   0  0  0  0  0  3  0  0  0  0  0  0
  -27.6000  -37.4020   24.6980 C   0  0  0  0  0  1  0  0  0  0  0  0
  -26.4760  -37.5380   23.7750 N   0  0  0  0  0  0  0  0  0  0  0  0
  -26.0640  -38.4560   23.9180 H   0  0  0  0  0  0  0  0  0  0  0  0
  -26.4550  -31.8770   25.2250 C   0  0  1  0  0  0  0  0  0  0  0  0
  -25.3460  -31.6350   26.2790 C   0  0  0  0  0  1  0  0  0  0  0  0
  -27.0520  -30.5020   24.8430 C   0  0  0  0  0  1  0  0  0  0  0  0
  -27.5900  -32.6810   25.9000 C   0  0  0  0  0  1  0  0  0  0  0  0
  -30.4420  -20.6060   20.8910 C   0  0  0  0  0  3  0  0  0  0  0  0
  -29.4420  -19.4210   20.6850 C   0  0  0  0  0  3  0  0  0  0  0  0
  -29.9750  -18.0140   20.2580 C   0  0  0  0  0  2  0  0  0  0  0  0
  -30.5950  -17.0980   21.3570 C   0  0  0  0  0  2  0  0  0  0  0  0
  -30.9130  -14.6880   20.5650 C   0  0  0  0  0  0  0  0  0  0  0  0
  -30.6470  -12.5250   19.3900 C   0  0  0  0  0  2  0  0  0  0  0  0
  -29.7380  -12.7150   18.1580 C   0  0  0  0  0  2  0  0  0  0  0  0
  -28.2540  -12.5700   18.5460 C   0  0  0  0  0  2  0  0  0  0  0  0
  -27.8780  -13.4210   19.7880 C   0  0  0  0  0  3  0  0  0  0  0  0
  -28.8980  -13.2040   20.9300 C   0  0  0  0  0  2  0  0  0  0  0  0
  -30.2430  -13.5110   20.4080 N   0  0  0  0  0  0  0  0  0  0  0  0
  -32.0270  -14.8920   20.0760 O   0  0  0  0  0  0  0  0  0  0  0  0
  -30.2330  -15.6700   21.1940 N   0  0  0  0  0  0  0  0  0  0  0  0
  -29.3430  -15.3930   21.5820 H   0  0  0  0  0  0  0  0  0  0  0  0
  -25.4550  -14.0410   20.4000 C   0  0  0  0  0  0  0  0  0  0  0  0
  -24.3760  -13.2780   20.7480 C   0  0  0  0  0  0  0  0  0  0  0  0
  -24.8360  -11.9250   20.7590 C   0  0  0  0  0  0  0  0  0  0  0  0
  -26.5080  -13.1560   20.2230 N   0  0  0  0  0  0  0  0  0  0  0  0
  -26.1360  -11.8790   20.4950 N   0  0  0  0  0  0  0  0  0  0  0  0
  -24.1040  -10.6670   20.9510 C   0  0  0  0  0  0  0  0  0  0  0  0
  -24.4870   -9.7320   21.9390 C   0  0  0  0  0  3  0  0  0  0  0  0
  -23.7560   -8.5380   22.1160 C   0  0  0  0  0  3  0  0  0  0  0  0
  -22.6280   -8.2690   21.3060 C   0  0  0  0  0  0  0  0  0  0  0  0
  -22.2640   -9.1920   20.3100 C   0  0  0  0  0  3  0  0  0  0  0  0
  -22.9940  -10.3780   20.1310 C   0  0  0  0  0  3  0  0  0  0  0  0
  -21.8730   -7.1240   21.3900 O   0  0  0  0  0  0  0  0  0  0  0  0
  -21.7430   -6.4310   22.5670 C   0  0  0  0  0  0  0  0  0  0  0  0
  -21.2200   -7.0330   23.7300 C   0  0  0  0  0  3  0  0  0  0  0  0
  -21.0390   -6.2670   24.9000 C   0  0  0  0  0  3  0  0  0  0  0  0
  -21.3730   -4.8990   24.9040 C   0  0  0  0  0  0  0  0  0  0  0  0
  -21.8890   -4.2970   23.7430 C   0  0  0  0  0  3  0  0  0  0  0  0
  -22.0710   -5.0610   22.5770 C   0  0  0  0  0  0  0  0  0  0  0  0
  -22.5490   -4.4700   21.4550 F   0  0  0  0  0  0  0  0  0  0  0  0
  -21.1920   -4.1600   26.0240 F   0  0  0  0  0  0  0  0  0  0  0  0
  -22.9700  -13.7590   20.9670 C   0  0  0  0  0  0  0  0  0  0  0  0
  -22.2170  -13.0820   21.8270 N   0  0  0  0  0  0  0  0  0  0  0  0
  -22.5490  -14.7720   20.4100 O   0  0  0  0  0  0  0  0  0  0  0  0
  -22.5710  -12.2620   22.2970 H   0  0  0  0  0  0  0  0  0  0  0  0
  -21.2730  -13.3870   22.0160 H   0  0  0  0  0  0  0  0  0  0  0  0
  -25.6310  -15.4080   20.1980 N   0  0  0  0  0  0  0  0  0  0  0  0
  -24.8660  -16.0700   20.2620 H   0  0  0  0  0  0  0  0  0  0  0  0
  -26.4970  -15.8330   19.8960 H   0  0  0  0  0  0  0  0  0  0  0  0
  2  9  1  0
  2  1  1  0
  3  4  1  0
  5  6  1  0
  5  2  1  0
  5  7  1  0
  6  3  1  0
  7  1  1  0
  7  4  1  0
  8  9  1  0
 10 11  1  0
 10  6  1  0
 12 23  2  0
 12 38  1  0
 13 11  1  0
 13 18  1  0
 14 22  1  0
 14 24  1  0
 15 21  1  0
 15 17  1  0
 16 22  1  0
 17 16  1  0
 18 17  2  0
 19 20  1  0
 19 13  2  0
 20 15  2  0
 21 14  1  0
 22 12  1  0
 24 26  2  0
 25 24  1  0
 25 29  1  0
 27 25  1  0
 28 37  2  0
 28 33  1  0
 29 33  1  0
 30 29  1  0
 31 32  1  0
 31 30  1  0
 32 28  1  0
 33 34  2  0
 34 35  1  0
 36 35  2  0
 37 36  1  0
 38 39  1  0
 38 48  1  0
 39 42  1  0
 40 44  1  0
 40 39  1  0
 41 40  2  0
 43 44  1  0
 46 47  1  0
 46 44  1  0
 46 45  1  0
 48 51  1  1
 48 49  1  0
 50 48  1  0
  7 52  1  6
 53 52  2  0
 54 53  1  0
 54 55  1  0
 56 64  1  0
 57 62  1  0
 58 59  1  0
 58 57  1  0
 59 60  1  0
 60 69  1  0
 60 61  1  0
 62 56  1  0
 62 61  1  0
 63 56  2  0
 64 55  1  0
 64 65  1  0
 66 67  2  0
 67 68  1  0
 67 86  1  0
 68 71  1  0
 69 66  1  0
 69 70  1  0
 70 68  2  0
 71 72  1  0
 72 73  2  0
 74 77  1  0
 74 73  1  0
 75 74  2  0
 76 75  1  0
 76 71  2  0
 77 78  1  0
 78 83  2  0
 78 79  1  0
 79 80  2  0
 80 81  1  0
 81 85  1  0
 82 81  2  0
 83 82  1  0
 84 83  1  0
 86 87  1  0
 87 90  1  0
 87 89  1  0
 88 86  2  0
 91 92  1  0
 91 66  1  0
 93 91  1  0
M  ISO  4  10 101  11 101  56 100  64 100
M  END
>  <TORSDO>  (54) 
F 22

>  <SCORE>  (54) 
-13.052

>  <name>  (54) 
53

>  <ligand_id>  (54) 
53

>  <original_smiles>  (54) 
[H]C1=C(C([H])([H])C([H])([H])[H])C2([H])C([H])(C([H])([H])Oc3c([H])c([H])c4c(c3[H])C([H])([H])N(C(=O)C([H])(N([H])C(=O)C([H])(N([H])C([H])([H])[H])C([H])([H])[H])C(C([H])([H])[H])(C([H])([H])[H])C([H])([H])[H])C([H])(C(=O)N([H])C3([H])c5c([H])c([H])c([H])c([H])c5C([H])([H])C([H])([H])C3([H])[H])C4([H])[H])C([H])([H])C([H])([H])C12C([H])([H])C([H])([H])C([H])([H])C([H])([H])N([H])C(=O)N1C([H])([H])C([H])([H])C([H])([H])C([H])(n2nc(-c3c([H])c([H])c(Oc4c([H])c([H])c(F)c([H])c4F)c([H])c3[H])c(C(=O)N([H])[H])c2N([H])[H])C1([H])[H]

>  <smiles>  (54) 
[H]C1=C(C([H])([H])C([H])([H])[H])C2([H])C([H])(C([H])([H])Oc3c([H])c([H])c4c(c3[H])C([H])([H])N(C(=O)C([H])(N([H])C(=O)C([H])(N([H])C([H])([H])[H])C([H])([H])[H])C(C([H])([H])[H])(C([H])([H])[H])C([H])([H])[H])C([H])(C(=O)N([H])C3([H])c5c([H])c([H])c([H])c([H])c5C([H])([H])C([H])([H])C3([H])[H])C4([H])[H])C([H])([H])C([H])([H])C12C([H])([H])C([H])([H])C([H])([H])C([H])([H])N([H])C(=O)N1C([H])([H])C([H])([H])C([H])([H])C([H])(n2nc(-c3c([H])c([H])c(Oc4c([H])c([H])c(F)c([H])c4F)c([H])c3[H])c(C(=O)N([H])[H])c2N([H])[H])C1([H])[H]

$$$$
54:0:0
     RDKit          3D

 92 98  0  0  1  0  0  0  0  0999 V2000
  -26.5000  -17.8250   19.2590 N   0  0  0  0  0  4  0  0  0  0  0  0
  -27.3890  -17.6340   19.6880 H   0  0  0  0  0  0  0  0  0  0  0  0
  -25.8350  -17.7830   20.0170 H   0  0  0  0  0  0  0  0  0  0  0  0
  -26.1580  -16.4380   18.3810 C   0  0  0  0  0  2  0  0  0  0  0  0
  -26.0500  -13.2320   19.3300 C   0  0  0  0  0  2  0  0  0  0  0  0
  -27.0650  -13.3040   18.1380 C   0  0  0  0  0  3  0  0  0  0  0  0
  -26.6380  -14.7780   18.7650 C   0  0  0  0  0  3  0  0  0  0  0  0
  -28.3770  -12.2550   18.1320 C   0  0  0  0  0  2  0  0  0  0  0  0
  -29.3700  -11.4140   19.2440 C   0  0  0  0  0  2  0  0  0  0  0  0
  -31.2230  -13.2840   20.8750 C   0  0  0  0  0  3  0  0  0  0  0  0
  -32.2120  -12.6190   19.7990 C   0  0  0  0  0  1  0  0  0  0  0  0
  -31.1090  -13.3990   18.5360 C   0  0  0  0  0  1  0  0  0  0  0  0
  -29.6720  -14.2080   19.1750 C   0  0  0  0  0  2  0  0  0  0  0  0
  -28.9990  -14.0670   20.9010 C   0  0  0  0  0  3  0  0  0  0  0  0
  -30.0510  -13.3520   22.1420 C   0  0  0  0  0  2  0  0  0  0  0  0
  -31.4660  -12.5150   21.4730 N   0  0  0  0  0  0  0  0  0  0  0  0
  -32.0850  -14.1770   21.4200 O   0  0  0  0  0  1  0  0  0  0  0  0
  -30.2610  -11.9160   20.4750 N   0  0  0  0  0  0  0  0  0  0  0  0
  -30.4100  -11.1870   21.1560 H   0  0  0  0  0  0  0  0  0  0  0  0
  -26.1210  -14.4980   21.5750 C   0  0  0  0  0  0  0  0  0  0  0  0
  -24.7950  -13.3850   21.4720 C   0  0  0  0  0  3  0  0  0  0  0  0
  -25.4030  -11.7190   21.0590 C   0  0  0  0  0  3  0  0  0  0  0  0
  -27.6950  -13.5270   21.1940 N   0  0  0  0  0  2  0  0  0  0  0  0
  -27.1330  -11.7570   20.8990 N   0  0  0  0  0  1  0  0  0  0  0  0
  -24.7720  -10.4340   21.2450 C   0  0  0  0  0  0  0  0  0  0  0  0
  -25.1410   -9.5440   22.2850 C   0  0  0  0  0  3  0  0  0  0  0  0
  -24.4560   -8.3170   22.4330 C   0  0  0  0  0  3  0  0  0  0  0  0
  -23.4050   -7.9980   21.5390 C   0  0  0  0  0  0  0  0  0  0  0  0
  -23.0570   -8.8990   20.5210 C   0  0  0  0  0  3  0  0  0  0  0  0
  -23.7310  -10.1130   20.3760 C   0  0  0  0  0  3  0  0  0  0  0  0
  -22.7050   -6.8210   21.5400 O   0  0  0  0  0  0  0  0  0  0  0  0
  -22.3730   -6.1750   22.7000 C   0  0  0  0  0  0  0  0  0  0  0  0
  -21.6090   -6.7960   23.7100 C   0  0  0  0  0  3  0  0  0  0  0  0
  -21.2220   -6.0600   24.8470 C   0  0  0  0  0  3  0  0  0  0  0  0
  -21.5920   -4.7080   24.9700 C   0  0  0  0  0  0  0  0  0  0  0  0
  -22.3500   -4.0880   23.9600 C   0  0  0  0  0  3  0  0  0  0  0  0
  -22.7370   -4.8210   22.8260 C   0  0  0  0  0  0  0  0  0  0  0  0
  -23.4470   -4.2180   21.8420 F   0  0  0  0  0  0  0  0  0  0  0  0
  -21.2150   -3.9970   26.0580 F   0  0  0  0  0  0  0  0  0  0  0  0
  -23.3950  -13.6940   21.5890 C   0  0  0  0  0  0  0  0  0  0  0  0
  -22.6940  -12.8570   22.3340 N   0  0  0  0  0  0  0  0  0  0  0  0
  -22.9600  -14.6820   21.0210 O   0  0  0  0  0  0  0  0  0  0  0  0
  -23.1350  -12.0690   22.7850 H   0  0  0  0  0  0  0  0  0  0  0  0
  -21.7050  -13.0110   22.4710 H   0  0  0  0  0  0  0  0  0  0  0  0
  -26.2150  -15.8530   21.6450 N   0  0  0  0  0  4  0  0  0  0  0  0
  -27.0640  -16.1660   22.0990 H   0  0  0  0  0  0  0  0  0  0  0  0
  -25.4010  -16.2900   22.0650 H   0  0  0  0  0  0  0  0  0  0  0  0
  -26.6060  -19.4340   18.8210 C   0  0  0  0  0  3  0  0  0  0  0  0
  -26.8860  -20.9230   19.8150 C   0  0  0  0  0  3  0  0  0  0  0  0
  -27.3140  -22.6440   19.4420 C   0  0  0  0  0  3  0  0  0  0  0  0
  -27.3820  -24.1680   20.4060 C   0  0  0  0  0  3  0  0  0  0  0  0
  -28.0190  -25.7020   20.3170 O   0  0  0  0  0  0  0  0  0  0  0  0
  -24.7750  -31.8430   23.4000 C   0  0  0  0  0  0  0  0  0  0  0  0
  -27.2180  -26.9310   20.3500 C   0  0  0  0  0  0  0  0  0  0  0  0
  -23.6330  -30.4780   21.7200 C   0  0  0  0  0  3  0  0  0  0  0  0
  -25.0830  -28.9070   20.3060 C   0  0  0  0  0  0  0  0  0  0  0  0
  -26.2130  -30.6350   21.6780 C   0  0  0  0  0  2  0  0  0  0  0  0
  -26.2630  -29.2410   20.9830 C   0  0  0  0  0  0  0  0  0  0  0  0
  -27.3550  -28.2610   20.9920 C   0  0  0  0  0  3  0  0  0  0  0  0
  -26.0480  -26.7770   19.6150 C   0  0  0  0  0  3  0  0  0  0  0  0
  -25.0010  -27.7020   19.6080 C   0  0  0  0  0  3  0  0  0  0  0  0
  -23.8980  -29.8530   20.3330 C   0  0  0  0  0  2  0  0  0  0  0  0
  -24.8970  -31.0120   22.3180 N   0  0  0  0  0  0  0  0  0  0  0  0
  -23.6650  -32.1360   23.8760 O   0  0  0  0  0  0  0  0  0  0  0  0
  -22.9140  -29.4520   22.6330 C   0  0  0  0  0  0  0  0  0  0  0  0
  -21.5870  -29.3010   22.4710 N   0  0  0  0  0  0  0  0  0  0  0  0
  -23.5530  -28.8010   23.4640 O   0  0  0  0  0  0  0  0  0  0  0  0
  -21.1250  -29.8780   21.7810 H   0  0  0  0  0  0  0  0  0  0  0  0
  -18.1740  -28.1440   22.8850 C   0  0  0  0  0  0  0  0  0  0  0  0
  -20.7320  -28.3620   23.2050 C   0  0  0  0  0  3  0  0  0  0  0  0
  -20.8230  -26.9390   22.6060 C   0  0  0  0  0  2  0  0  0  0  0  0
  -19.7360  -26.6530   21.5650 C   0  0  0  0  0  2  0  0  0  0  0  0
  -18.3450  -26.8070   22.1840 C   0  0  0  0  0  2  0  0  0  0  0  0
  -19.2960  -28.8820   23.3500 C   0  0  0  0  0  0  0  0  0  0  0  0
  -19.0830  -30.1330   23.9690 C   0  0  0  0  0  3  0  0  0  0  0  0
  -17.7810  -30.6470   24.1220 C   0  0  0  0  0  3  0  0  0  0  0  0
  -16.6750  -29.9080   23.6710 C   0  0  0  0  0  3  0  0  0  0  0  0
  -16.8730  -28.6570   23.0580 C   0  0  0  0  0  3  0  0  0  0  0  0
  -26.0190  -32.4830   24.0830 C   0  0  0  0  0  3  0  0  0  0  0  0
  -25.7020  -33.8950   24.3630 N   0  0  0  0  0  0  0  0  0  0  0  0
  -26.0980  -34.9350   23.6190 C   0  0  0  0  0  0  0  0  0  0  0  0
  -26.8350  -34.8080   22.6380 O   0  0  0  0  0  0  0  0  0  0  0  0
  -25.0550  -34.0690   25.1180 H   0  0  0  0  0  0  0  0  0  0  0  0
  -24.4330  -36.7580   23.1200 C   0  0  0  0  0  1  0  0  0  0  0  0
  -25.6030  -36.3400   24.0240 C   0  0  0  0  0  3  0  0  0  0  0  0
  -27.6860  -37.2000   25.0020 C   0  0  0  0  0  1  0  0  0  0  0  0
  -26.6600  -37.3750   23.9770 N   0  0  0  0  0  0  0  0  0  0  0  0
  -26.2620  -38.3040   24.0820 H   0  0  0  0  0  0  0  0  0  0  0  0
  -26.4360  -31.7480   25.4160 C   0  0  1  0  0  0  0  0  0  0  0  0
  -25.2730  -31.5710   26.4220 C   0  0  0  0  0  1  0  0  0  0  0  0
  -27.0120  -30.3440   25.1210 C   0  0  0  0  0  1  0  0  0  0  0  0
  -27.5620  -32.5420   26.1190 C   0  0  0  0  0  1  0  0  0  0  0  0
  1  2  1  0
  1  3  1  0
  4  1  1  0
  6  8  1  0
  6  7  1  0
  6  5  1  0
  7  4  1  0
  7  5  1  0
  8  9  1  0
  9 18  1  0
 10 11  1  0
 10 17  1  0
 10 16  1  0
 12 13  1  0
 14 13  1  0
 14 23  1  0
 14 15  1  0
 16 15  1  0
 18 19  1  0
 18 16  1  0
 20 45  2  0
 21 20  1  0
 21 40  1  0
 22 24  1  0
 22 25  1  0
 22 21  1  0
 23 20  1  0
 25 26  1  0
 26 27  2  0
 28 31  1  0
 28 27  1  0
 29 28  2  0
 30 29  1  0
 30 25  2  0
 31 32  1  0
 32 37  2  0
 32 33  1  0
 33 34  2  0
 34 35  1  0
 35 39  1  0
 36 35  2  0
 37 36  1  0
 38 37  1  0
 40 41  1  0
 41 44  1  0
 41 43  1  0
 42 40  2  0
 45 47  1  0
 45 46  1  0
 48  1  1  0
 48 49  2  0
 50 49  1  0
 50 51  2  0
 52 54  1  0
 52 51  1  0
 53 64  2  0
 54 59  1  0
 55 63  1  0
 55 65  1  0
 56 62  1  0
 56 58  1  0
 57 63  1  0
 58 59  2  0
 58 57  1  0
 60 54  2  0
 61 60  1  0
 61 56  2  0
 62 55  1  0
 63 53  1  0
 65 67  2  0
 66 65  1  0
 68 66  1  0
 69 78  2  0
 69 74  1  0
 70 66  1  0
 70 74  1  0
 71 70  1  0
 72 73  1  0
 72 71  1  0
 73 69  1  0
 74 75  2  0
 75 76  1  0
 77 76  2  0
 78 77  1  0
 79 53  1  0
 79 80  1  0
 79 89  1  0
 80 83  1  0
 81 85  1  0
 81 80  1  0
 82 81  2  0
 85 84  1  0
 87 85  1  0
 87 88  1  0
 87 86  1  0
 89 92  1  1
 89 90  1  0
 91 89  1  0
M  ISO  4  10 100  18 100  51 101  52 101
M  END
>  <TORSDO>  (55) 
F 24

>  <SCORE>  (55) 
-7.536

>  <name>  (55) 
54

>  <ligand_id>  (55) 
54

>  <original_smiles>  (55) 
[H]c1c([H])c([H])c2c(c1[H])C([H])([H])C([H])([H])C([H])([H])C2([H])N([H])C(=O)C1([H])N(C(=O)C([H])(N([H])C(=O)C([H])(N([H])C([H])([H])[H])C([H])([H])[H])C(C([H])([H])[H])(C([H])([H])[H])C([H])([H])[H])C([H])([H])c2c([H])c(OC([H])([H])C([H])([H])C([H])([H])C([H])([H])[N+]([H])([H])C([H])([H])C3([H])C([H])([H])C3([H])C([H])([H])C([H])([H])N([H])C(=O)N3C([H])([H])C([H])([H])C([H])([H])C([H])(n4nc(-c5c([H])c([H])c(Oc6c([H])c([H])c(F)c([H])c6F)c([H])c5[H])c(C(=O)N([H])[H])c4N([H])[H])C3([H])[H])c([H])c([H])c2C1([H])[H]

>  <smiles>  (55) 
[H]c1c([H])c([H])c2c(c1[H])C([H])([H])C([H])([H])C([H])([H])C2([H])N([H])C(=O)C1([H])N(C(=O)C([H])(N([H])C(=O)C([H])(N([H])C([H])([H])[H])C([H])([H])[H])C(C([H])([H])[H])(C([H])([H])[H])C([H])([H])[H])C([H])([H])c2c([H])c(OC([H])([H])C([H])([H])C([H])([H])C([H])([H])[N+]([H])([H])C([H])([H])C3([H])C([H])([H])C3([H])C([H])([H])C([H])([H])N([H])C(=O)N3C([H])([H])C([H])([H])C([H])([H])C([H])(n4nc(-c5c([H])c([H])c(Oc6c([H])c([H])c(F)c([H])c6F)c([H])c5[H])c(C(=O)N([H])[H])c4N([H])[H])C3([H])[H])c([H])c([H])c2C1([H])[H]

$$$$
55:0:0
     RDKit          3D

 91100  0  0  1  0  0  0  0  0999 V2000
  -25.7150  -21.8980   20.2790 C   0  0  0  0  0  2  0  0  0  0  0  0
  -26.7470  -22.8980   20.8060 C   0  0  0  0  0  2  0  0  0  0  0  0
  -27.5020  -20.2660   19.8120 C   0  0  0  0  0  2  0  0  0  0  0  0
  -27.3810  -22.3230   18.6210 C   0  0  0  0  0  2  0  0  0  0  0  0
  -26.4930  -21.2100   19.1710 C   0  0  0  0  0  3  0  0  0  0  0  0
  -28.6100  -21.1840   20.3930 C   0  0  0  0  0  3  0  0  0  0  0  0
  -28.0470  -22.6780   19.9600 C   0  0  2  0  0  0  0  0  0  0  0  0
  -29.9680  -20.4200   20.0260 C   0  0  0  0  0  2  0  0  0  0  0  0
  -30.1380  -18.8910   20.5810 C   0  0  0  0  0  3  0  0  0  0  0  0
  -30.1340  -17.6120   19.6020 C   0  0  0  0  0  3  0  0  0  0  0  0
  -30.9020  -15.0870   19.9500 C   0  0  0  0  0  0  0  0  0  0  0  0
  -30.7440  -12.7610   19.0600 C   0  0  0  0  0  2  0  0  0  0  0  0
  -29.7790  -12.8050   17.8520 C   0  0  0  0  0  2  0  0  0  0  0  0
  -28.3190  -12.6480   18.3190 C   0  0  0  0  0  2  0  0  0  0  0  0
  -27.9680  -13.5700   19.5150 C   0  0  0  0  0  3  0  0  0  0  0  0
  -29.0480  -13.4890   20.6170 C   0  0  0  0  0  2  0  0  0  0  0  0
  -30.3330  -13.8360   19.9920 N   0  0  0  0  0  0  0  0  0  0  0  0
  -32.0550  -15.2240   19.5310 O   0  0  0  0  0  0  0  0  0  0  0  0
  -30.0700  -16.1760   20.1520 N   0  0  0  0  0  0  0  0  0  0  0  0
  -29.1390  -15.8920   20.4270 H   0  0  0  0  0  0  0  0  0  0  0  0
  -25.5990  -14.1980   20.2700 C   0  0  0  0  0  0  0  0  0  0  0  0
  -24.5260  -13.4400   20.6540 C   0  0  0  0  0  0  0  0  0  0  0  0
  -24.9730  -12.0840   20.6310 C   0  0  0  0  0  0  0  0  0  0  0  0
  -26.6270  -13.3040   20.0270 N   0  0  0  0  0  0  0  0  0  0  0  0
  -26.2590  -12.0260   20.3070 N   0  0  0  0  0  0  0  0  0  0  0  0
  -24.2350  -10.8310   20.8430 C   0  0  0  0  0  0  0  0  0  0  0  0
  -24.6160   -9.9060   21.8400 C   0  0  0  0  0  3  0  0  0  0  0  0
  -23.8800   -8.7190   22.0370 C   0  0  0  0  0  3  0  0  0  0  0  0
  -22.7440   -8.4450   21.2350 C   0  0  0  0  0  0  0  0  0  0  0  0
  -22.3820   -9.3590   20.2290 C   0  0  0  0  0  3  0  0  0  0  0  0
  -23.1210  -10.5380   20.0310 C   0  0  0  0  0  3  0  0  0  0  0  0
  -21.9840   -7.3060   21.3360 O   0  0  0  0  0  0  0  0  0  0  0  0
  -21.8120   -6.6600   22.5360 C   0  0  0  0  0  0  0  0  0  0  0  0
  -21.2340   -7.3030   23.6510 C   0  0  0  0  0  3  0  0  0  0  0  0
  -21.0130   -6.5840   24.8420 C   0  0  0  0  0  3  0  0  0  0  0  0
  -21.3590   -5.2210   24.9170 C   0  0  0  0  0  0  0  0  0  0  0  0
  -21.9300   -4.5780   23.8030 C   0  0  0  0  0  3  0  0  0  0  0  0
  -22.1540   -5.2960   22.6160 C   0  0  0  0  0  0  0  0  0  0  0  0
  -22.6840   -4.6650   21.5390 F   0  0  0  0  0  0  0  0  0  0  0  0
  -21.1400   -4.5260   26.0560 F   0  0  0  0  0  0  0  0  0  0  0  0
  -23.1380  -13.9380   20.9410 C   0  0  0  0  0  0  0  0  0  0  0  0
  -22.4160  -13.2670   21.8280 N   0  0  0  0  0  0  0  0  0  0  0  0
  -22.7000  -14.9580   20.4080 O   0  0  0  0  0  0  0  0  0  0  0  0
  -22.7760  -12.4390   22.2810 H   0  0  0  0  0  0  0  0  0  0  0  0
  -21.4880  -13.5900   22.0670 H   0  0  0  0  0  0  0  0  0  0  0  0
  -25.7860  -15.5660   20.0850 N   0  0  0  0  0  0  0  0  0  0  0  0
  -25.0450  -16.2430   20.2210 H   0  0  0  0  0  0  0  0  0  0  0  0
  -26.6510  -15.9860   19.7740 H   0  0  0  0  0  0  0  0  0  0  0  0
  -28.8870  -24.0750   19.8670 C   0  0  0  0  0  2  0  0  0  0  0  0
  -28.4640  -25.4410   20.6500 C   0  0  0  0  0  2  0  0  0  0  0  0
  -28.5370  -26.7950   20.0490 O   0  0  0  0  0  0  0  0  0  0  0  0
  -24.6290  -31.9130   23.3560 C   0  0  0  0  0  0  0  0  0  0  0  0
  -27.3930  -27.6030   20.0970 C   0  0  0  0  0  0  0  0  0  0  0  0
  -23.4770  -30.5750   21.6350 C   0  0  0  0  0  3  0  0  0  0  0  0
  -24.9810  -29.1390   20.1520 C   0  0  0  0  0  0  0  0  0  0  0  0
  -26.0060  -30.9850   21.4750 C   0  0  0  0  0  2  0  0  0  0  0  0
  -26.1390  -29.6440   20.7570 C   0  0  0  0  0  0  0  0  0  0  0  0
  -27.3580  -28.9010   20.6910 C   0  0  0  0  0  3  0  0  0  0  0  0
  -26.1980  -27.1160   19.5260 C   0  0  0  0  0  3  0  0  0  0  0  0
  -25.0100  -27.8700   19.5450 C   0  0  0  0  0  3  0  0  0  0  0  0
  -23.7290  -29.9920   20.2210 C   0  0  0  0  0  2  0  0  0  0  0  0
  -24.7260  -31.1750   22.2140 N   0  0  0  0  0  0  0  0  0  0  0  0
  -23.5360  -32.1280   23.8970 O   0  0  0  0  0  0  0  0  0  0  0  0
  -22.8400  -29.4900   22.5320 C   0  0  0  0  0  0  0  0  0  0  0  0
  -21.5260  -29.2670   22.3670 N   0  0  0  0  0  0  0  0  0  0  0  0
  -23.5280  -28.8530   23.3360 O   0  0  0  0  0  0  0  0  0  0  0  0
  -21.0270  -29.8710   21.7260 H   0  0  0  0  0  0  0  0  0  0  0  0
  -18.2030  -27.8620   22.6650 C   0  0  0  0  0  0  0  0  0  0  0  0
  -20.7270  -28.2590   23.0690 C   0  0  0  0  0  3  0  0  0  0  0  0
  -20.9490  -26.8400   22.4860 C   0  0  0  0  0  2  0  0  0  0  0  0
  -19.9120  -26.4300   21.4330 C   0  0  0  0  0  2  0  0  0  0  0  0
  -18.4840  -26.5430   21.9610 C   0  0  0  0  0  2  0  0  0  0  0  0
  -19.2530  -28.6730   23.1720 C   0  0  0  0  0  0  0  0  0  0  0  0
  -18.9280  -29.8970   23.7950 C   0  0  0  0  0  3  0  0  0  0  0  0
  -17.5870  -30.3040   23.9340 C   0  0  0  0  0  3  0  0  0  0  0  0
  -16.5530  -29.4920   23.4430 C   0  0  0  0  0  3  0  0  0  0  0  0
  -16.8630  -28.2760   22.8060 C   0  0  0  0  0  3  0  0  0  0  0  0
  -25.8920  -32.5500   24.0220 C   0  0  0  0  0  3  0  0  0  0  0  0
  -25.5520  -33.9410   24.3590 N   0  0  0  0  0  0  0  0  0  0  0  0
  -25.9030  -35.0060   23.6270 C   0  0  0  0  0  0  0  0  0  0  0  0
  -26.6130  -34.9210   22.6210 O   0  0  0  0  0  0  0  0  0  0  0  0
  -24.9210  -34.0780   25.1350 H   0  0  0  0  0  0  0  0  0  0  0  0
  -24.1770  -36.7930   23.2450 C   0  0  0  0  0  1  0  0  0  0  0  0
  -25.3930  -36.3850   24.0920 C   0  0  0  0  0  3  0  0  0  0  0  0
  -27.4900  -37.2720   25.0090 C   0  0  0  0  0  1  0  0  0  0  0  0
  -26.4210  -37.4480   24.0300 N   0  0  0  0  0  0  0  0  0  0  0  0
  -26.0020  -38.3620   24.1810 H   0  0  0  0  0  0  0  0  0  0  0  0
  -26.3790  -31.7720   25.3050 C   0  0  1  0  0  0  0  0  0  0  0  0
  -25.2600  -31.5130   26.3410 C   0  0  0  0  0  1  0  0  0  0  0  0
  -26.9770  -30.4000   24.9160 C   0  0  0  0  0  1  0  0  0  0  0  0
  -27.5040  -32.5670   26.0070 C   0  0  0  0  0  1  0  0  0  0  0  0
  1  2  1  0
  3  6  1  0
  4  7  1  0
  5  4  1  0
  5  3  1  0
  5  1  1  0
  6  8  1  0
  7 49  1  6
  7  6  1  0
  7  2  1  0
  8  9  1  0
 10 19  1  0
 10  9  2  0
 11 17  1  0
 11 19  1  0
 12 17  1  0
 13 14  1  0
 13 12  1  0
 15 14  1  0
 15 24  1  0
 15 16  1  0
 17 16  1  0
 18 11  2  0
 19 20  1  0
 21 22  2  0
 22 41  1  0
 23 22  1  0
 23 26  1  0
 24 21  1  0
 24 25  1  0
 25 23  2  0
 26 27  1  0
 27 28  2  0
 29 32  1  0
 29 28  1  0
 30 29  2  0
 31 30  1  0
 31 26  2  0
 32 33  1  0
 33 38  2  0
 33 34  1  0
 34 35  2  0
 35 36  1  0
 36 40  1  0
 37 36  2  0
 38 37  1  0
 39 38  1  0
 41 42  1  0
 42 45  1  0
 42 44  1  0
 43 41  2  0
 46 47  1  0
 46 21  1  0
 48 46  1  0
 49 50  1  0
 51 53  1  0
 51 50  1  0
 52 63  2  0
 53 58  1  0
 54 62  1  0
 54 64  1  0
 55 61  1  0
 55 57  1  0
 56 62  1  0
 57 56  1  0
 58 57  2  0
 59 60  1  0
 59 53  2  0
 60 55  2  0
 61 54  1  0
 62 52  1  0
 64 66  2  0
 65 64  1  0
 67 65  1  0
 68 77  2  0
 68 73  1  0
 69 65  1  0
 69 73  1  0
 70 69  1  0
 71 72  1  0
 71 70  1  0
 72 68  1  0
 73 74  2  0
 74 75  1  0
 76 75  2  0
 77 76  1  0
 78 52  1  0
 78 79  1  0
 78 88  1  0
 79 82  1  0
 80 84  1  0
 80 79  1  0
 81 80  2  0
 84 83  1  0
 86 84  1  0
 86 87  1  0
 86 85  1  0
 88 91  1  1
 88 89  1  0
 90 88  1  0
M  ISO  4  11 100  19 100  50 101  51 101
M  END
>  <TORSDO>  (56) 
F 21

>  <SCORE>  (56) 
-11.420

>  <name>  (56) 
55

>  <ligand_id>  (56) 
55

>  <original_smiles>  (56) 
[H]c1c([H])c([H])c2c(c1[H])C([H])([H])C([H])([H])C([H])([H])C2([H])N([H])C(=O)C1([H])N(C(=O)C([H])(N([H])C(=O)C([H])(N([H])C([H])([H])[H])C([H])([H])[H])C(C([H])([H])[H])(C([H])([H])[H])C([H])([H])[H])C([H])([H])c2c([H])c(OC([H])([H])C([H])([H])C34C([H])([H])C([H])([H])C([H])(C([H])([H])C3([H])C([H])([H])C([H])([H])C([H])([H])N([H])C(=O)N3C([H])([H])C([H])([H])C([H])([H])C([H])(n5nc(-c6c([H])c([H])c(Oc7c([H])c([H])c(F)c([H])c7F)c([H])c6[H])c(C(=O)N([H])[H])c5N([H])[H])C3([H])[H])C4([H])[H])c([H])c([H])c2C1([H])[H]

>  <smiles>  (56) 
[H]c1c([H])c([H])c2c(c1[H])C([H])([H])C([H])([H])C([H])([H])C2([H])N([H])C(=O)C1([H])N(C(=O)C([H])(N([H])C(=O)C([H])(N([H])C([H])([H])[H])C([H])([H])[H])C(C([H])([H])[H])(C([H])([H])[H])C([H])([H])[H])C([H])([H])c2c([H])c(OC([H])([H])C([H])([H])C34C([H])([H])C([H])([H])C([H])(C([H])([H])C3([H])C([H])([H])C([H])([H])C([H])([H])N([H])C(=O)N3C([H])([H])C([H])([H])C([H])([H])C([H])(n5nc(-c6c([H])c([H])c(Oc7c([H])c([H])c(F)c([H])c7F)c([H])c6[H])c(C(=O)N([H])[H])c5N([H])[H])C3([H])[H])C4([H])[H])c([H])c([H])c2C1([H])[H]

$$$$
56:0:0
     RDKit          3D

 96103  0  0  1  0  0  0  0  0999 V2000
  -29.5490  -21.7530   18.8070 C   0  0  0  0  0  2  0  0  0  0  0  0
  -30.3460  -22.7830   19.5210 N   0  0  0  0  0  4  0  0  0  0  0  0
  -29.8640  -23.0960   20.3480 H   0  0  0  0  0  0  0  0  0  0  0  0
  -31.2190  -22.3750   19.8200 H   0  0  0  0  0  0  0  0  0  0  0  0
  -30.6860  -23.9670   18.6950 C   0  0  0  0  0  2  0  0  0  0  0  0
  -30.3480  -25.3050   19.3800 C   0  0  0  0  0  2  0  0  0  0  0  0
  -28.8520  -25.6590   19.3440 C   0  0  0  0  0  2  0  0  0  0  0  0
  -28.6890  -26.9390   19.9410 O   0  0  0  0  0  0  0  0  0  0  0  0
  -24.5050  -31.6470   23.1880 C   0  0  0  0  0  0  0  0  0  0  0  0
  -27.4430  -27.5250   19.9470 C   0  0  0  0  0  0  0  0  0  0  0  0
  -23.3980  -30.2590   21.4640 C   0  0  0  0  0  3  0  0  0  0  0  0
  -24.9520  -28.8660   20.0000 C   0  0  0  0  0  0  0  0  0  0  0  0
  -25.9010  -30.7660   21.3230 C   0  0  0  0  0  2  0  0  0  0  0  0
  -26.0690  -29.4350   20.6250 C   0  0  0  0  0  0  0  0  0  0  0  0
  -27.3120  -28.7700   20.5960 C   0  0  0  0  0  3  0  0  0  0  0  0
  -26.3010  -26.9530   19.3340 C   0  0  0  0  0  3  0  0  0  0  0  0
  -25.0620  -27.6220   19.3570 C   0  0  0  0  0  3  0  0  0  0  0  0
  -23.6610  -29.6500   20.0610 C   0  0  0  0  0  2  0  0  0  0  0  0
  -24.6170  -30.9050   22.0500 N   0  0  0  0  0  0  0  0  0  0  0  0
  -23.4040  -31.8340   23.7240 O   0  0  0  0  0  0  0  0  0  0  0  0
  -22.7930  -29.1600   22.3670 C   0  0  0  0  0  0  0  0  0  0  0  0
  -21.4890  -28.8930   22.1900 N   0  0  0  0  0  0  0  0  0  0  0  0
  -23.4940  -28.5540   23.1800 O   0  0  0  0  0  0  0  0  0  0  0  0
  -20.9800  -29.4410   21.5080 H   0  0  0  0  0  0  0  0  0  0  0  0
  -18.1920  -27.4630   22.5380 C   0  0  0  0  0  0  0  0  0  0  0  0
  -20.7170  -27.8730   22.9000 C   0  0  0  0  0  3  0  0  0  0  0  0
  -20.9310  -26.4760   22.2720 C   0  0  0  0  0  2  0  0  0  0  0  0
  -19.8810  -26.1240   21.2130 C   0  0  0  0  0  2  0  0  0  0  0  0
  -18.4750  -26.1550   21.8190 C   0  0  0  0  0  2  0  0  0  0  0  0
  -19.2450  -28.2770   23.0320 C   0  0  0  0  0  0  0  0  0  0  0  0
  -18.9270  -29.5010   23.6600 C   0  0  0  0  0  3  0  0  0  0  0  0
  -17.5880  -29.9120   23.8030 C   0  0  0  0  0  3  0  0  0  0  0  0
  -16.5490  -29.0940   23.3280 C   0  0  0  0  0  3  0  0  0  0  0  0
  -16.8520  -27.8720   22.7000 C   0  0  0  0  0  3  0  0  0  0  0  0
  -25.7480  -32.3150   23.8550 C   0  0  0  0  0  3  0  0  0  0  0  0
  -25.3940  -33.7080   24.1510 N   0  0  0  0  0  0  0  0  0  0  0  0
  -25.7390  -34.7580   23.3920 C   0  0  0  0  0  0  0  0  0  0  0  0
  -26.4570  -34.6550   22.3930 O   0  0  0  0  0  0  0  0  0  0  0  0
  -24.7630  -33.8610   24.9240 H   0  0  0  0  0  0  0  0  0  0  0  0
  -24.0000  -36.5120   22.9170 C   0  0  0  0  0  1  0  0  0  0  0  0
  -25.1990  -36.1400   23.8050 C   0  0  0  0  0  3  0  0  0  0  0  0
  -27.2500  -37.0880   24.7650 C   0  0  0  0  0  1  0  0  0  0  0  0
  -26.2160  -37.2110   23.7410 N   0  0  0  0  0  0  0  0  0  0  0  0
  -25.7830  -38.1250   23.8410 H   0  0  0  0  0  0  0  0  0  0  0  0
  -26.2280  -31.5710   25.1620 C   0  0  1  0  0  0  0  0  0  0  0  0
  -25.0950  -31.3120   26.1820 C   0  0  0  0  0  1  0  0  0  0  0  0
  -26.8670  -30.2070   24.8110 C   0  0  0  0  0  1  0  0  0  0  0  0
  -27.3230  -32.4050   25.8670 C   0  0  0  0  0  1  0  0  0  0  0  0
  -29.3060  -20.4420   19.6080 C   0  0  0  0  0  3  0  0  0  0  0  0
  -30.6310  -19.6790   19.8620 C   0  0  0  0  0  2  0  0  0  0  0  0
  -30.4390  -18.2160   20.3140 C   0  0  0  0  0  2  0  0  0  0  0  0
  -31.7800  -17.5180   20.5800 C   0  0  0  0  0  2  0  0  0  0  0  0
  -31.6760  -16.3090   21.5300 C   0  0  0  0  0  2  0  0  0  0  0  0
  -31.1730  -14.3790   20.0410 C   0  0  0  0  0  0  0  0  0  0  0  0
  -30.7290  -12.1970   18.9840 C   0  0  0  0  0  2  0  0  0  0  0  0
  -29.7410  -12.3080   17.8110 C   0  0  0  0  0  2  0  0  0  0  0  0
  -28.2900  -12.2100   18.3150 C   0  0  0  0  0  2  0  0  0  0  0  0
  -28.0060  -13.1680   19.5010 C   0  0  0  0  0  3  0  0  0  0  0  0
  -29.0990  -13.0400   20.5860 C   0  0  0  0  0  2  0  0  0  0  0  0
  -30.4150  -13.2560   19.9540 N   0  0  0  0  0  0  0  0  0  0  0  0
  -32.1550  -14.5910   19.3260 O   0  0  0  0  0  0  0  0  0  0  0  0
  -30.8410  -15.2180   21.0280 N   0  0  0  0  0  0  0  0  0  0  0  0
  -30.0210  -14.9800   21.5670 H   0  0  0  0  0  0  0  0  0  0  0  0
  -25.6910  -13.8740   20.3840 C   0  0  0  0  0  0  0  0  0  0  0  0
  -24.6060  -13.1450   20.7890 C   0  0  0  0  0  0  0  0  0  0  0  0
  -24.9870  -11.7720   20.6730 C   0  0  0  0  0  0  0  0  0  0  0  0
  -26.6700  -12.9490   20.0520 N   0  0  0  0  0  0  0  0  0  0  0  0
  -26.2510  -11.6770   20.2810 N   0  0  0  0  0  0  0  0  0  0  0  0
  -24.2030  -10.5440   20.8570 C   0  0  0  0  0  0  0  0  0  0  0  0
  -24.5360   -9.5960   21.8490 C   0  0  0  0  0  3  0  0  0  0  0  0
  -23.7560   -8.4320   22.0170 C   0  0  0  0  0  3  0  0  0  0  0  0
  -22.6290   -8.2080   21.1920 C   0  0  0  0  0  0  0  0  0  0  0  0
  -22.3160   -9.1440   20.1900 C   0  0  0  0  0  3  0  0  0  0  0  0
  -23.0960  -10.2980   20.0200 C   0  0  0  0  0  3  0  0  0  0  0  0
  -21.8270   -7.0940   21.2670 O   0  0  0  0  0  0  0  0  0  0  0  0
  -21.5800   -6.4640   22.4600 C   0  0  0  0  0  0  0  0  0  0  0  0
  -20.9280   -7.1180   23.5270 C   0  0  0  0  0  3  0  0  0  0  0  0
  -20.6310   -6.4120   24.7100 C   0  0  0  0  0  3  0  0  0  0  0  0
  -20.9780   -5.0530   24.8260 C   0  0  0  0  0  0  0  0  0  0  0  0
  -21.6230   -4.3970   23.7610 C   0  0  0  0  0  3  0  0  0  0  0  0
  -21.9200   -5.1010   22.5810 C   0  0  0  0  0  0  0  0  0  0  0  0
  -22.5230   -4.4590   21.5510 F   0  0  0  0  0  0  0  0  0  0  0  0
  -20.6860   -4.3720   25.9580 F   0  0  0  0  0  0  0  0  0  0  0  0
  -23.2580  -13.6840   21.1710 C   0  0  0  0  0  0  0  0  0  0  0  0
  -22.5470  -12.9930   22.0570 N   0  0  0  0  0  0  0  0  0  0  0  0
  -22.8450  -14.7520   20.7200 O   0  0  0  0  0  0  0  0  0  0  0  0
  -22.8920  -12.1260   22.4420 H   0  0  0  0  0  0  0  0  0  0  0  0
  -21.6440  -13.3360   22.3520 H   0  0  0  0  0  0  0  0  0  0  0  0
  -25.9220  -15.2400   20.2500 N   0  0  0  0  0  0  0  0  0  0  0  0
  -25.1960  -15.9270   20.4180 H   0  0  0  0  0  0  0  0  0  0  0  0
  -26.7700  -15.6400   19.8700 H   0  0  0  0  0  0  0  0  0  0  0  0
  -28.4590  -20.6420   20.8990 C   0  0  0  0  0  2  0  0  0  0  0  0
  -27.0490  -20.9870   20.6300 N   0  0  0  0  0  4  0  0  0  0  0  0
  -26.5850  -20.2320   20.1560 H   0  0  0  0  0  0  0  0  0  0  0  0
  -26.9510  -21.8230   20.0830 H   0  0  0  0  0  0  0  0  0  0  0  0
  -26.5680  -21.1330   21.5010 H   0  0  0  0  0  0  0  0  0  0  0  0
  1  2  1  0
  2  4  1  0
  2  3  1  0
  5  6  1  0
  5  2  1  0
  7  6  1  0
  7  8  1  0
  8 10  1  0
  9 20  2  0
 10 15  1  0
 11 19  1  0
 11 21  1  0
 12 18  1  0
 12 14  1  0
 13 19  1  0
 14 13  1  0
 15 14  2  0
 16 17  1  0
 16 10  2  0
 17 12  2  0
 18 11  1  0
 19  9  1  0
 21 23  2  0
 22 21  1  0
 24 22  1  0
 25 34  2  0
 25 30  1  0
 26 22  1  0
 26 30  1  0
 27 26  1  0
 28 29  1  0
 28 27  1  0
 29 25  1  0
 30 31  2  0
 31 32  1  0
 33 32  2  0
 34 33  1  0
 35  9  1  0
 35 36  1  0
 35 45  1  0
 36 39  1  0
 37 41  1  0
 37 36  1  0
 38 37  2  0
 41 40  1  0
 43 41  1  0
 43 44  1  0
 43 42  1  0
 45 48  1  1
 45 46  1  0
 47 45  1  0
 49  1  1  0
 49 50  1  0
 49 92  1  0
 50 51  1  0
 51 52  1  0
 52 53  1  0
 54 62  1  0
 55 60  1  0
 56 57  1  0
 56 55  1  0
 58 57  1  0
 58 67  1  0
 58 59  1  0
 60 54  1  0
 60 59  1  0
 61 54  2  0
 62 53  1  0
 62 63  1  0
 64 65  2  0
 65 84  1  0
 66 65  1  0
 66 69  1  0
 67 68  1  0
 67 64  1  0
 68 66  2  0
 69 70  1  0
 70 71  2  0
 72 75  1  0
 72 71  1  0
 73 72  2  0
 74 73  1  0
 74 69  2  0
 75 76  1  0
 76 81  2  0
 76 77  1  0
 77 78  2  0
 78 79  1  0
 79 83  1  0
 80 79  2  0
 81 80  1  0
 82 81  1  0
 84 85  1  0
 85 88  1  0
 85 87  1  0
 86 84  2  0
 89 64  1  0
 89 90  1  0
 91 89  1  0
 93 92  1  0
 93 96  1  0
 94 93  1  0
 95 93  1  0
M  ISO  4   7 101   8 101  54 100  62 100
M  END
>  <TORSDO>  (57) 
F 27

>  <SCORE>  (57) 
-10.362

>  <name>  (57) 
56

>  <ligand_id>  (57) 
56

>  <original_smiles>  (57) 
[H]c1c([H])c([H])c2c(c1[H])C([H])([H])C([H])([H])C([H])([H])C2([H])N([H])C(=O)C1([H])N(C(=O)C([H])(N([H])C(=O)C([H])(N([H])C([H])([H])[H])C([H])([H])[H])C(C([H])([H])[H])(C([H])([H])[H])C([H])([H])[H])C([H])([H])c2c([H])c(OC([H])([H])C([H])([H])C([H])([H])[N+]([H])([H])C([H])([H])C([H])(C([H])([H])C([H])([H])C([H])([H])C([H])([H])N([H])C(=O)N3C([H])([H])C([H])([H])C([H])([H])C([H])(n4nc(-c5c([H])c([H])c(Oc6c([H])c([H])c(F)c([H])c6F)c([H])c5[H])c(C(=O)N([H])[H])c4N([H])[H])C3([H])[H])C([H])([H])[N+]([H])([H])[H])c([H])c([H])c2C1([H])[H]

>  <smiles>  (57) 
[H]c1c([H])c([H])c2c(c1[H])C([H])([H])C([H])([H])C([H])([H])C2([H])N([H])C(=O)C1([H])N(C(=O)C([H])(N([H])C(=O)C([H])(N([H])C([H])([H])[H])C([H])([H])[H])C(C([H])([H])[H])(C([H])([H])[H])C([H])([H])[H])C([H])([H])c2c([H])c(OC([H])([H])C([H])([H])C([H])([H])[N+]([H])([H])C([H])([H])C([H])(C([H])([H])C([H])([H])C([H])([H])C([H])([H])N([H])C(=O)N3C([H])([H])C([H])([H])C([H])([H])C([H])(n4nc(-c5c([H])c([H])c(Oc6c([H])c([H])c(F)c([H])c6F)c([H])c5[H])c(C(=O)N([H])[H])c4N([H])[H])C3([H])[H])C([H])([H])[N+]([H])([H])[H])c([H])c([H])c2C1([H])[H]

$$$$
57:0:0
     RDKit          3D

 96104  0  0  1  0  0  0  0  0999 V2000
  -29.4360  -22.2580   20.6380 C   0  0  0  0  0  3  0  0  0  0  0  0
  -29.6130  -23.6720   20.1990 N   0  0  0  0  0  4  0  0  0  0  0  0
  -30.0900  -24.1910   20.9200 H   0  0  0  0  0  0  0  0  0  0  0  0
  -30.2270  -23.6570   19.4000 H   0  0  0  0  0  0  0  0  0  0  0  0
  -28.3740  -24.3950   19.7810 C   0  0  0  0  0  2  0  0  0  0  0  0
  -28.6630  -25.7920   19.1720 C   0  0  0  0  0  2  0  0  0  0  0  0
  -28.4390  -26.8710   20.0890 O   0  0  0  0  0  0  0  0  0  0  0  0
  -24.5310  -31.8990   23.2550 C   0  0  0  0  0  0  0  0  0  0  0  0
  -27.2330  -27.5470   20.0840 C   0  0  0  0  0  0  0  0  0  0  0  0
  -23.3470  -30.5430   21.5570 C   0  0  0  0  0  3  0  0  0  0  0  0
  -24.8230  -29.0430   20.1130 C   0  0  0  0  0  0  0  0  0  0  0  0
  -25.8740  -30.9060   21.4060 C   0  0  0  0  0  2  0  0  0  0  0  0
  -25.9700  -29.5510   20.7340 C   0  0  0  0  0  0  0  0  0  0  0  0
  -27.1700  -28.8070   20.7230 C   0  0  0  0  0  3  0  0  0  0  0  0
  -26.0570  -27.0410   19.4770 C   0  0  0  0  0  3  0  0  0  0  0  0
  -24.8590  -27.7840   19.4890 C   0  0  0  0  0  3  0  0  0  0  0  0
  -23.5780  -29.9010   20.1630 C   0  0  0  0  0  2  0  0  0  0  0  0
  -24.6010  -31.1290   22.1320 N   0  0  0  0  0  0  0  0  0  0  0  0
  -23.4420  -32.1560   23.7880 O   0  0  0  0  0  0  0  0  0  0  0  0
  -22.6820  -29.4960   22.4790 C   0  0  0  0  0  0  0  0  0  0  0  0
  -21.3590  -29.3200   22.3290 N   0  0  0  0  0  0  0  0  0  0  0  0
  -23.3530  -28.8490   23.2870 O   0  0  0  0  0  0  0  0  0  0  0  0
  -20.8780  -29.8950   21.6510 H   0  0  0  0  0  0  0  0  0  0  0  0
  -17.9770  -28.1230   22.7590 C   0  0  0  0  0  0  0  0  0  0  0  0
  -20.5320  -28.3620   23.0630 C   0  0  0  0  0  3  0  0  0  0  0  0
  -20.6370  -26.9500   22.4430 C   0  0  0  0  0  2  0  0  0  0  0  0
  -19.5430  -26.6630   21.4090 C   0  0  0  0  0  2  0  0  0  0  0  0
  -18.1540  -26.7960   22.0410 C   0  0  0  0  0  2  0  0  0  0  0  0
  -19.0940  -28.8660   23.2240 C   0  0  0  0  0  0  0  0  0  0  0  0
  -18.8760  -30.1120   23.8520 C   0  0  0  0  0  3  0  0  0  0  0  0
  -17.5730  -30.6170   24.0150 C   0  0  0  0  0  3  0  0  0  0  0  0
  -16.4700  -29.8710   23.5650 C   0  0  0  0  0  3  0  0  0  0  0  0
  -16.6720  -28.6250   22.9450 C   0  0  0  0  0  3  0  0  0  0  0  0
  -25.8080  -32.5110   23.9100 C   0  0  0  0  0  3  0  0  0  0  0  0
  -25.5100  -33.9130   24.2310 N   0  0  0  0  0  0  0  0  0  0  0  0
  -25.8710  -34.9600   23.4770 C   0  0  0  0  0  0  0  0  0  0  0  0
  -26.5630  -34.8450   22.4610 O   0  0  0  0  0  0  0  0  0  0  0  0
  -24.8960  -34.0780   25.0170 H   0  0  0  0  0  0  0  0  0  0  0  0
  -24.1810  -36.7760   23.0730 C   0  0  0  0  0  1  0  0  0  0  0  0
  -25.3900  -36.3550   23.9210 C   0  0  0  0  0  3  0  0  0  0  0  0
  -27.5040  -37.2130   24.8270 C   0  0  0  0  0  1  0  0  0  0  0  0
  -26.4420  -37.3930   23.8420 N   0  0  0  0  0  0  0  0  0  0  0  0
  -26.0420  -38.3180   23.9730 H   0  0  0  0  0  0  0  0  0  0  0  0
  -26.2840  -31.7300   25.1960 C   0  0  1  0  0  0  0  0  0  0  0  0
  -25.1600  -31.4980   26.2320 C   0  0  0  0  0  1  0  0  0  0  0  0
  -26.8620  -30.3470   24.8120 C   0  0  0  0  0  1  0  0  0  0  0  0
  -27.4260  -32.5090   25.8890 C   0  0  0  0  0  1  0  0  0  0  0  0
  -28.5300  -23.0770   22.9390 C   0  0  0  0  0  1  0  0  0  0  0  0
  -29.4860  -22.1440   22.1800 C   0  0  0  0  0  2  0  0  0  0  0  0
  -30.5200  -21.3560   19.9750 C   0  0  0  0  0  2  0  0  0  0  0  0
  -31.1410  -19.1540   21.0830 C   0  0  0  0  0  3  0  0  0  0  0  0
  -31.0550  -17.7560   21.2380 C   0  0  0  0  0  3  0  0  0  0  0  0
  -30.3410  -19.8360   20.1380 C   0  0  0  0  0  0  0  0  0  0  0  0
  -29.4460  -19.0850   19.3280 C   0  0  0  0  0  0  0  0  0  0  0  0
  -29.3820  -17.6670   19.4620 C   0  0  0  0  0  0  0  0  0  0  0  0
  -30.1810  -17.0000   20.4310 C   0  0  0  0  0  0  0  0  0  0  0  0
  -28.5580  -19.7840   18.2980 C   0  0  0  0  0  1  0  0  0  0  0  0
  -28.4530  -16.8620   18.5590 C   0  0  0  0  0  1  0  0  0  0  0  0
  -30.7460  -14.6070   20.1260 C   0  0  0  0  0  0  0  0  0  0  0  0
  -30.4030  -12.4570   18.9680 C   0  0  0  0  0  2  0  0  0  0  0  0
  -29.3970  -12.6770   17.8190 C   0  0  0  0  0  2  0  0  0  0  0  0
  -27.9440  -12.5360   18.3220 C   0  0  0  0  0  2  0  0  0  0  0  0
  -27.6760  -13.3440   19.6200 C   0  0  0  0  0  3  0  0  0  0  0  0
  -28.7900  -13.1060   20.6660 C   0  0  0  0  0  2  0  0  0  0  0  0
  -30.0830  -13.4210   20.0320 N   0  0  0  0  0  0  0  0  0  0  0  0
  -31.8510  -14.8040   19.6140 O   0  0  0  0  0  0  0  0  0  0  0  0
  -30.0350  -15.6030   20.6890 N   0  0  0  0  0  0  0  0  0  0  0  0
  -29.1490  -15.3170   21.0770 H   0  0  0  0  0  0  0  0  0  0  0  0
  -25.3200  -13.9500   20.4640 C   0  0  0  0  0  0  0  0  0  0  0  0
  -24.2670  -13.1730   20.8660 C   0  0  0  0  0  0  0  0  0  0  0  0
  -24.7200  -11.8210   20.7780 C   0  0  0  0  0  0  0  0  0  0  0  0
  -26.3480  -13.0680   20.1600 N   0  0  0  0  0  0  0  0  0  0  0  0
  -25.9910  -11.7820   20.4040 N   0  0  0  0  0  0  0  0  0  0  0  0
  -23.9970  -10.5590   20.9760 C   0  0  0  0  0  0  0  0  0  0  0  0
  -24.4500   -9.5870   21.8950 C   0  0  0  0  0  3  0  0  0  0  0  0
  -23.7310   -8.3870   22.0800 C   0  0  0  0  0  3  0  0  0  0  0  0
  -22.5440   -8.1520   21.3470 C   0  0  0  0  0  0  0  0  0  0  0  0
  -22.1090   -9.1130   20.4170 C   0  0  0  0  0  3  0  0  0  0  0  0
  -22.8290  -10.3040   20.2300 C   0  0  0  0  0  3  0  0  0  0  0  0
  -21.7920   -7.0060   21.4430 O   0  0  0  0  0  0  0  0  0  0  0  0
  -21.7490   -6.2690   22.5990 C   0  0  0  0  0  0  0  0  0  0  0  0
  -21.2690   -6.8130   23.8110 C   0  0  0  0  0  3  0  0  0  0  0  0
  -21.1770   -6.0020   24.9600 C   0  0  0  0  0  3  0  0  0  0  0  0
  -21.5520   -4.6460   24.8950 C   0  0  0  0  0  0  0  0  0  0  0  0
  -22.0240   -4.1010   23.6890 C   0  0  0  0  0  3  0  0  0  0  0  0
  -22.1190   -4.9110   22.5430 C   0  0  0  0  0  0  0  0  0  0  0  0
  -22.5540   -4.3770   21.3760 F   0  0  0  0  0  0  0  0  0  0  0  0
  -21.4560   -3.8630   25.9950 F   0  0  0  0  0  0  0  0  0  0  0  0
  -22.8900  -13.6490   21.2240 C   0  0  0  0  0  0  0  0  0  0  0  0
  -22.2060  -12.9310   22.1070 N   0  0  0  0  0  0  0  0  0  0  0  0
  -22.4320  -14.6910   20.7580 O   0  0  0  0  0  0  0  0  0  0  0  0
  -22.5930  -12.0870   22.5020 H   0  0  0  0  0  0  0  0  0  0  0  0
  -21.2830  -13.2280   22.3930 H   0  0  0  0  0  0  0  0  0  0  0  0
  -25.4800  -15.3250   20.3200 N   0  0  0  0  0  0  0  0  0  0  0  0
  -24.7240  -15.9720   20.5120 H   0  0  0  0  0  0  0  0  0  0  0  0
  -26.3280  -15.7850   20.0140 H   0  0  0  0  0  0  0  0  0  0  0  0
  1 50  1  0
  1 49  1  0
  2  1  1  0
  2  3  1  0
  4  2  1  0
  5  2  1  0
  6  5  1  0
  6  7  1  0
  8 19  2  0
  9  7  1  0
  9 14  1  0
 10 18  1  0
 10 20  1  0
 11 17  1  0
 11 13  1  0
 12 18  1  0
 13 12  1  0
 14 13  2  0
 15 16  1  0
 15  9  2  0
 16 11  2  0
 17 10  1  0
 18  8  1  0
 20 22  2  0
 21 20  1  0
 23 21  1  0
 24 33  2  0
 24 29  1  0
 25 21  1  0
 25 29  1  0
 26 25  1  0
 27 28  1  0
 27 26  1  0
 28 24  1  0
 29 30  2  0
 30 31  1  0
 32 31  2  0
 33 32  1  0
 34  8  1  0
 34 35  1  0
 34 44  1  0
 35 38  1  0
 36 40  1  0
 36 35  1  0
 37 36  2  0
 40 39  1  0
 42 40  1  0
 42 43  1  0
 42 41  1  0
 44 47  1  1
 44 45  1  0
 46 44  1  0
 49 48  1  0
 50 53  1  0
 51 52  1  0
 53 51  2  0
 54 55  2  0
 54 53  1  0
 55 56  1  0
 56 67  1  0
 56 52  2  0
 57 54  1  0
 58 55  1  0
 59 67  1  0
 60 65  1  0
 61 62  1  0
 61 60  1  0
 63 62  1  0
 63 72  1  0
 63 64  1  0
 65 59  1  0
 65 64  1  0
 66 59  2  0
 67 68  1  0
 69 70  2  0
 70 89  1  0
 71 70  1  0
 71 74  1  0
 72 73  1  0
 72 69  1  0
 73 71  2  0
 74 75  1  0
 75 76  2  0
 77 80  1  0
 77 76  1  0
 78 77  2  0
 79 78  1  0
 79 74  2  0
 80 81  1  0
 81 82  1  0
 82 83  2  0
 84 83  1  0
 84 88  1  0
 85 84  2  0
 86 81  2  0
 86 85  1  0
 87 86  1  0
 89 90  1  0
 90 93  1  0
 90 92  1  0
 91 89  2  0
 94 69  1  0
 94 95  1  0
 96 94  1  0
M  ISO  4   6 101   7 101  59 100  67 100
M  END
>  <TORSDO>  (58) 
F 22

>  <SCORE>  (58) 
-12.843

>  <name>  (58) 
57

>  <ligand_id>  (58) 
57

>  <original_smiles>  (58) 
[H]c1c([H])c([H])c2c(c1[H])C([H])([H])C([H])([H])C([H])([H])C2([H])N([H])C(=O)C1([H])N(C(=O)C([H])(N([H])C(=O)C([H])(N([H])C([H])([H])[H])C([H])([H])[H])C(C([H])([H])[H])(C([H])([H])[H])C([H])([H])[H])C([H])([H])c2c([H])c(OC([H])([H])C([H])([H])[N+]([H])([H])C([H])(C([H])([H])c3c([H])c([H])c(N([H])C(=O)N4C([H])([H])C([H])([H])C([H])([H])C([H])(n5nc(-c6c([H])c([H])c(Oc7c([H])c([H])c(F)c([H])c7F)c([H])c6[H])c(C(=O)N([H])[H])c5N([H])[H])C4([H])[H])c(C([H])([H])[H])c3C([H])([H])[H])C([H])([H])C([H])([H])[H])c([H])c([H])c2C1([H])[H]

>  <smiles>  (58) 
[H]c1c([H])c([H])c2c(c1[H])C([H])([H])C([H])([H])C([H])([H])C2([H])N([H])C(=O)C1([H])N(C(=O)C([H])(N([H])C(=O)C([H])(N([H])C([H])([H])[H])C([H])([H])[H])C(C([H])([H])[H])(C([H])([H])[H])C([H])([H])[H])C([H])([H])c2c([H])c(OC([H])([H])C([H])([H])[N+]([H])([H])C([H])(C([H])([H])c3c([H])c([H])c(N([H])C(=O)N4C([H])([H])C([H])([H])C([H])([H])C([H])(n5nc(-c6c([H])c([H])c(Oc7c([H])c([H])c(F)c([H])c7F)c([H])c6[H])c(C(=O)N([H])[H])c5N([H])[H])C4([H])[H])c(C([H])([H])[H])c3C([H])([H])[H])C([H])([H])C([H])([H])[H])c([H])c([H])c2C1([H])[H]

$$$$
58:0:0
     RDKit          3D

 94102  0  0  1  0  0  0  0  0999 V2000
  -31.0770  -22.3070   19.3440 C   0  0  0  0  0  2  0  0  0  0  0  0
  -30.3480  -23.4790   20.0540 C   0  0  0  0  0  2  0  0  0  0  0  0
  -30.7690  -20.8910   19.9100 C   0  0  0  0  0  2  0  0  0  0  0  0
  -28.5090  -21.8100   20.5360 C   0  0  0  0  0  2  0  0  0  0  0  0
  -28.8130  -23.3610   19.9920 C   0  0  0  0  0  3  0  0  0  0  0  0
  -29.2750  -20.4780   19.8760 C   0  0  2  0  0  0  0  0  0  0  0  0
  -28.0420  -24.7280   20.5890 C   0  0  0  0  0  2  0  0  0  0  0  0
  -28.2840  -26.2170   20.2210 O   0  0  0  0  0  0  0  0  0  0  0  0
  -24.6460  -31.8730   23.2400 C   0  0  0  0  0  0  0  0  0  0  0  0
  -27.2150  -27.1740   20.2110 C   0  0  0  0  0  0  0  0  0  0  0  0
  -23.4400  -30.4690   21.6120 C   0  0  0  0  0  3  0  0  0  0  0  0
  -24.8830  -28.8960   20.1860 C   0  0  0  0  0  0  0  0  0  0  0  0
  -25.9920  -30.7460   21.4310 C   0  0  0  0  0  2  0  0  0  0  0  0
  -26.0640  -29.3530   20.7860 C   0  0  0  0  0  0  0  0  0  0  0  0
  -27.2340  -28.5080   20.7800 C   0  0  0  0  0  3  0  0  0  0  0  0
  -26.0120  -26.8140   19.5720 C   0  0  0  0  0  3  0  0  0  0  0  0
  -24.8670  -27.6390   19.5640 C   0  0  0  0  0  3  0  0  0  0  0  0
  -23.6550  -29.7880   20.2340 C   0  0  0  0  0  2  0  0  0  0  0  0
  -24.7130  -31.0520   22.1490 N   0  0  0  0  0  0  0  0  0  0  0  0
  -23.5620  -32.1560   23.7730 O   0  0  0  0  0  0  0  0  0  0  0  0
  -22.7700  -29.4630   22.5810 C   0  0  0  0  0  0  0  0  0  0  0  0
  -21.4440  -29.2820   22.4580 N   0  0  0  0  0  0  0  0  0  0  0  0
  -23.4480  -28.8460   23.4070 O   0  0  0  0  0  0  0  0  0  0  0  0
  -20.9540  -29.8320   21.7650 H   0  0  0  0  0  0  0  0  0  0  0  0
  -18.0720  -28.0590   22.9640 C   0  0  0  0  0  0  0  0  0  0  0  0
  -20.6270  -28.3460   23.2350 C   0  0  0  0  0  3  0  0  0  0  0  0
  -20.7440  -26.9090   22.6750 C   0  0  0  0  0  2  0  0  0  0  0  0
  -19.6470  -26.5670   21.6610 C   0  0  0  0  0  2  0  0  0  0  0  0
  -18.2620  -26.7060   22.3000 C   0  0  0  0  0  2  0  0  0  0  0  0
  -19.1820  -28.8360   23.3880 C   0  0  0  0  0  0  0  0  0  0  0  0
  -18.9490  -30.1010   23.9700 C   0  0  0  0  0  3  0  0  0  0  0  0
  -17.6390  -30.5900   24.1290 C   0  0  0  0  0  3  0  0  0  0  0  0
  -16.5430  -29.8100   23.7210 C   0  0  0  0  0  3  0  0  0  0  0  0
  -16.7610  -28.5470   23.1450 C   0  0  0  0  0  3  0  0  0  0  0  0
  -25.9270  -32.5140   23.8570 C   0  0  0  0  0  3  0  0  0  0  0  0
  -25.6130  -33.9130   24.1870 N   0  0  0  0  0  0  0  0  0  0  0  0
  -25.9370  -34.9690   23.4270 C   0  0  0  0  0  0  0  0  0  0  0  0
  -26.5970  -34.8660   22.3900 O   0  0  0  0  0  0  0  0  0  0  0  0
  -25.0270  -34.0660   24.9940 H   0  0  0  0  0  0  0  0  0  0  0  0
  -24.2040  -36.7630   23.0920 C   0  0  0  0  0  1  0  0  0  0  0  0
  -25.4530  -36.3580   23.8900 C   0  0  0  0  0  3  0  0  0  0  0  0
  -27.5940  -37.2470   24.7010 C   0  0  0  0  0  1  0  0  0  0  0  0
  -26.4840  -37.4120   23.7680 N   0  0  0  0  0  0  0  0  0  0  0  0
  -26.0780  -38.3320   23.9160 H   0  0  0  0  0  0  0  0  0  0  0  0
  -26.4470  -31.7510   25.1380 C   0  0  1  0  0  0  0  0  0  0  0  0
  -25.3560  -31.5180   26.2110 C   0  0  0  0  0  1  0  0  0  0  0  0
  -27.0290  -30.3710   24.7570 C   0  0  0  0  0  1  0  0  0  0  0  0
  -27.5990  -32.5500   25.7920 C   0  0  0  0  0  1  0  0  0  0  0  0
  -29.1170  -18.9250   20.5290 C   0  0  0  0  0  3  0  0  0  0  0  0
  -30.1260  -17.6070   20.2410 C   0  0  0  0  0  3  0  0  0  0  0  0
  -30.5260  -14.9170   20.3500 C   0  0  0  0  0  0  0  0  0  0  0  0
  -30.3810  -12.5910   19.3890 C   0  0  0  0  0  2  0  0  0  0  0  0
  -29.4600  -12.5940   18.1460 C   0  0  0  0  0  2  0  0  0  0  0  0
  -27.9890  -12.3990   18.5630 C   0  0  0  0  0  2  0  0  0  0  0  0
  -27.5840  -13.3010   19.7580 C   0  0  0  0  0  3  0  0  0  0  0  0
  -28.6310  -13.2790   20.8910 C   0  0  0  0  0  2  0  0  0  0  0  0
  -29.9140  -13.6730   20.2980 N   0  0  0  0  0  0  0  0  0  0  0  0
  -31.7250  -14.9830   20.0610 O   0  0  0  0  0  0  0  0  0  0  0  0
  -29.7590  -16.0990   20.4970 N   0  0  0  0  0  0  0  0  0  0  0  0
  -28.7870  -15.9240   20.7030 H   0  0  0  0  0  0  0  0  0  0  0  0
  -25.1920  -13.8740   20.4680 C   0  0  0  0  0  0  0  0  0  0  0  0
  -24.1280  -13.0970   20.8340 C   0  0  0  0  0  0  0  0  0  0  0  0
  -24.6010  -11.7480   20.8180 C   0  0  0  0  0  0  0  0  0  0  0  0
  -26.2420  -13.0000   20.2450 N   0  0  0  0  0  0  0  0  0  0  0  0
  -25.8940  -11.7150   20.5190 N   0  0  0  0  0  0  0  0  0  0  0  0
  -23.8770  -10.4840   21.0080 C   0  0  0  0  0  0  0  0  0  0  0  0
  -24.2950   -9.5270   21.9600 C   0  0  0  0  0  3  0  0  0  0  0  0
  -23.5690   -8.3290   22.1370 C   0  0  0  0  0  3  0  0  0  0  0  0
  -22.4110   -8.0790   21.3620 C   0  0  0  0  0  0  0  0  0  0  0  0
  -22.0130   -9.0240   20.4010 C   0  0  0  0  0  3  0  0  0  0  0  0
  -22.7390  -10.2130   20.2220 C   0  0  0  0  0  3  0  0  0  0  0  0
  -21.6580   -6.9330   21.4500 O   0  0  0  0  0  0  0  0  0  0  0  0
  -21.5840   -6.2060   22.6120 C   0  0  0  0  0  0  0  0  0  0  0  0
  -21.1160   -6.7750   23.8170 C   0  0  0  0  0  3  0  0  0  0  0  0
  -20.9900   -5.9740   24.9690 C   0  0  0  0  0  3  0  0  0  0  0  0
  -21.3210   -4.6070   24.9190 C   0  0  0  0  0  0  0  0  0  0  0  0
  -21.7810   -4.0380   23.7180 C   0  0  0  0  0  3  0  0  0  0  0  0
  -21.9090   -4.8360   22.5670 C   0  0  0  0  0  0  0  0  0  0  0  0
  -22.3320   -4.2780   21.4070 F   0  0  0  0  0  0  0  0  0  0  0  0
  -21.1920   -3.8360   26.0240 F   0  0  0  0  0  0  0  0  0  0  0  0
  -22.7250  -13.5700   21.0840 C   0  0  0  0  0  0  0  0  0  0  0  0
  -21.9890  -12.8760   21.9450 N   0  0  0  0  0  0  0  0  0  0  0  0
  -22.2930  -14.5910   20.5530 O   0  0  0  0  0  0  0  0  0  0  0  0
  -22.3520  -12.0490   22.3950 H   0  0  0  0  0  0  0  0  0  0  0  0
  -21.0480  -13.1760   22.1560 H   0  0  0  0  0  0  0  0  0  0  0  0
  -25.3490  -15.2440   20.2820 N   0  0  0  0  0  0  0  0  0  0  0  0
  -24.5710  -15.8890   20.3700 H   0  0  0  0  0  0  0  0  0  0  0  0
  -26.1910  -15.6850   19.9370 H   0  0  0  0  0  0  0  0  0  0  0  0
  -28.6970  -20.4290   18.4250 C   0  0  0  0  0  2  0  0  0  0  0  0
  -29.2140  -19.3640   17.4360 C   0  0  0  0  0  2  0  0  0  0  0  0
  -28.6120  -19.5300   16.1000 N   0  0  0  0  0  4  0  0  0  0  0  0
  -27.6120  -19.4320   16.1440 H   0  0  0  0  0  0  0  0  0  0  0  0
  -28.9630  -18.8310   15.4680 H   0  0  0  0  0  0  0  0  0  0  0  0
  -28.8290  -20.4310   15.7150 H   0  0  0  0  0  0  0  0  0  0  0  0
  1  3  1  0
  1  2  1  0
  5  2  1  0
  5  4  1  0
  5  7  1  0
  6 89  1  6
  6  3  1  0
  6 49  1  0
  6  4  1  0
  8  7  1  0
  9 20  2  0
 10  8  1  0
 10 15  1  0
 11 19  1  0
 11 21  1  0
 12 18  1  0
 12 14  1  0
 13 19  1  0
 14 13  1  0
 15 14  2  0
 16 10  2  0
 17 16  1  0
 17 12  2  0
 18 11  1  0
 19  9  1  0
 21 23  2  0
 22 21  1  0
 24 22  1  0
 25 34  2  0
 25 30  1  0
 26 22  1  0
 26 30  1  0
 27 26  1  0
 28 29  1  0
 28 27  1  0
 29 25  1  0
 30 31  2  0
 31 32  1  0
 33 32  2  0
 34 33  1  0
 35  9  1  0
 35 36  1  0
 35 45  1  0
 36 39  1  0
 37 41  1  0
 37 36  1  0
 38 37  2  0
 41 40  1  0
 43 41  1  0
 43 44  1  0
 43 42  1  0
 45 48  1  1
 45 46  1  0
 47 45  1  0
 50 59  1  0
 50 49  2  0
 51 59  1  0
 52 57  1  0
 53 54  1  0
 53 52  1  0
 55 54  1  0
 55 64  1  0
 55 56  1  0
 57 51  1  0
 57 56  1  0
 58 51  2  0
 59 60  1  0
 61 62  2  0
 62 81  1  0
 63 62  1  0
 63 66  1  0
 64 61  1  0
 64 65  1  0
 65 63  2  0
 66 67  1  0
 67 68  2  0
 69 72  1  0
 69 68  1  0
 70 69  2  0
 71 70  1  0
 71 66  2  0
 72 73  1  0
 73 74  1  0
 74 75  2  0
 76 75  1  0
 76 80  1  0
 77 76  2  0
 78 73  2  0
 78 77  1  0
 79 78  1  0
 81 82  1  0
 82 85  1  0
 82 84  1  0
 83 81  2  0
 86 87  1  0
 86 61  1  0
 88 86  1  0
 90 89  1  0
 91 92  1  0
 91 90  1  0
 93 91  1  0
 94 91  1  0
M  ISO  4   7 101   8 101  51 100  59 100
M  END
>  <TORSDO>  (59) 
F 22

>  <SCORE>  (59) 
-13.232

>  <name>  (59) 
58

>  <ligand_id>  (59) 
58

>  <original_smiles>  (59) 
[H]c1c([H])c([H])c2c(c1[H])C([H])([H])C([H])([H])C([H])([H])C2([H])N([H])C(=O)C1([H])N(C(=O)C([H])(N([H])C(=O)C([H])(N([H])C([H])([H])[H])C([H])([H])[H])C(C([H])([H])[H])(C([H])([H])[H])C([H])([H])[H])C([H])([H])c2c([H])c(OC([H])([H])C3([H])C([H])([H])C([H])([H])C([H])([H])C(C([H])([H])C([H])([H])N([H])C(=O)N4C([H])([H])C([H])([H])C([H])([H])C([H])(n5nc(-c6c([H])c([H])c(Oc7c([H])c([H])c(F)c([H])c7F)c([H])c6[H])c(C(=O)N([H])[H])c5N([H])[H])C4([H])[H])(C([H])([H])C([H])([H])[N+]([H])([H])[H])C3([H])[H])c([H])c([H])c2C1([H])[H]

>  <smiles>  (59) 
[H]c1c([H])c([H])c2c(c1[H])C([H])([H])C([H])([H])C([H])([H])C2([H])N([H])C(=O)C1([H])N(C(=O)C([H])(N([H])C(=O)C([H])(N([H])C([H])([H])[H])C([H])([H])[H])C(C([H])([H])[H])(C([H])([H])[H])C([H])([H])[H])C([H])([H])c2c([H])c(OC([H])([H])C3([H])C([H])([H])C([H])([H])C([H])([H])C(C([H])([H])C([H])([H])N([H])C(=O)N4C([H])([H])C([H])([H])C([H])([H])C([H])(n5nc(-c6c([H])c([H])c(Oc7c([H])c([H])c(F)c([H])c7F)c([H])c6[H])c(C(=O)N([H])[H])c5N([H])[H])C4([H])[H])(C([H])([H])C([H])([H])[N+]([H])([H])[H])C3([H])[H])c([H])c([H])c2C1([H])[H]

$$$$
59:0:0
     RDKit          3D

 97106  0  0  1  0  0  0  0  0999 V2000
  -29.7190  -24.9820   11.3690 C   0  0  0  0  0  3  0  0  0  0  0  0
  -28.9060  -25.1770   10.2340 C   0  0  0  0  0  3  0  0  0  0  0  0
  -30.8700  -25.0540    8.8180 C   0  0  0  0  0  3  0  0  0  0  0  0
  -31.1230  -24.8210   11.2550 C   0  0  0  0  0  0  0  0  0  0  0  0
  -29.4750  -25.2100    8.9460 C   0  0  0  0  0  0  0  0  0  0  0  0
  -31.6950  -24.8630    9.9520 C   0  0  0  0  0  0  0  0  0  0  0  0
  -33.1940  -24.7170    9.7240 C   0  0  0  0  0  1  0  0  0  0  0  0
  -34.3920  -22.1800   14.1390 C   0  0  0  0  0  0  0  0  0  0  0  0
  -35.0640  -20.1290   15.3510 C   0  0  0  0  0  2  0  0  0  0  0  0
  -34.0030  -19.0190   15.2050 C   0  0  0  0  0  2  0  0  0  0  0  0
  -32.8920  -19.1660   16.2610 C   0  0  0  0  0  2  0  0  0  0  0  0
  -32.3550  -20.6150   16.3730 C   0  0  0  0  0  3  0  0  0  0  0  0
  -33.5150  -21.6250   16.4590 C   0  0  0  0  0  2  0  0  0  0  0  0
  -34.3820  -21.4320   15.2820 N   0  0  0  0  0  0  0  0  0  0  0  0
  -35.1330  -21.9030   13.1880 O   0  0  0  0  0  0  0  0  0  0  0  0
  -31.3110  -25.0810   13.8370 C   0  0  0  0  0  2  0  0  0  0  0  0
  -33.6300  -24.3950   14.6840 C   0  0  0  0  0  2  0  0  0  0  0  0
  -31.9960  -24.6410   12.5230 C   0  0  0  0  0  3  0  0  0  0  0  0
  -32.2890  -25.0790   15.0380 C   0  0  0  0  0  3  0  0  0  0  0  0
  -32.6370  -23.2210   12.7180 C   0  0  0  0  0  3  0  0  0  0  0  0
  -33.4110  -23.1080   13.9990 N   0  0  0  0  0  0  0  0  0  0  0  0
  -31.5770  -20.3650   18.8150 C   0  0  0  0  0  0  0  0  0  0  0  0
  -30.4620  -20.8150   19.4680 C   0  0  0  0  0  0  0  0  0  0  0  0
  -29.6720  -21.4850   18.4840 C   0  0  0  0  0  0  0  0  0  0  0  0
  -31.4310  -20.7650   17.4950 N   0  0  0  0  0  0  0  0  0  0  0  0
  -30.2460  -21.3930   17.2930 N   0  0  0  0  0  0  0  0  0  0  0  0
  -28.4300  -22.2580   18.6180 C   0  0  0  0  0  0  0  0  0  0  0  0
  -27.1750  -21.7040   18.2760 C   0  0  0  0  0  3  0  0  0  0  0  0
  -25.9940  -22.4620   18.4280 C   0  0  0  0  0  3  0  0  0  0  0  0
  -26.0580  -23.7830   18.9330 C   0  0  0  0  0  0  0  0  0  0  0  0
  -27.3110  -24.3370   19.2480 C   0  0  0  0  0  3  0  0  0  0  0  0
  -28.4850  -23.5840   19.0890 C   0  0  0  0  0  3  0  0  0  0  0  0
  -24.9650  -24.5990   19.0910 O   0  0  0  0  0  0  0  0  0  0  0  0
  -24.9290  -25.8650   18.5640 C   0  0  0  0  0  0  0  0  0  0  0  0
  -25.1450  -26.1080   17.1900 C   0  0  0  0  0  3  0  0  0  0  0  0
  -25.0270  -27.4160   16.6790 C   0  0  0  0  0  3  0  0  0  0  0  0
  -24.6890  -28.4800   17.5360 C   0  0  0  0  0  0  0  0  0  0  0  0
  -24.4710  -28.2400   18.9040 C   0  0  0  0  0  3  0  0  0  0  0  0
  -24.5890  -26.9350   19.4150 C   0  0  0  0  0  0  0  0  0  0  0  0
  -24.3570  -26.7060   20.7300 F   0  0  0  0  0  0  0  0  0  0  0  0
  -24.5700  -29.7350   17.0450 F   0  0  0  0  0  0  0  0  0  0  0  0
  -30.1850  -20.7170   20.9410 C   0  0  0  0  0  0  0  0  0  0  0  0
  -29.8660  -19.5220   21.4290 N   0  0  0  0  0  0  0  0  0  0  0  0
  -30.2960  -21.6960   21.6770 O   0  0  0  0  0  0  0  0  0  0  0  0
  -29.7970  -18.7110   20.8320 H   0  0  0  0  0  0  0  0  0  0  0  0
  -29.6940  -19.4170   22.4180 H   0  0  0  0  0  0  0  0  0  0  0  0
  -32.7080  -19.6680   19.2300 N   0  0  0  0  0  0  0  0  0  0  0  0
  -32.8450  -19.3790   20.1930 H   0  0  0  0  0  0  0  0  0  0  0  0
  -33.4690  -19.4000   18.6210 H   0  0  0  0  0  0  0  0  0  0  0  0
  -31.3650  -27.4620   15.3450 C   0  0  0  0  0  1  0  0  0  0  0  0
  -32.5210  -26.4890   15.6190 C   0  0  0  0  0  2  0  0  0  0  0  0
  -31.7880  -21.1710   11.3570 C   0  0  0  0  0  1  0  0  0  0  0  0
  -31.6000  -22.0710   12.5880 C   0  0  0  0  0  2  0  0  0  0  0  0
  -28.5890  -25.3850    7.7120 C   0  0  0  0  0  2  0  0  0  0  0  0
  -27.9210  -26.7770    7.6100 C   0  0  0  0  0  2  0  0  0  0  0  0
  -28.8990  -27.9740    7.6240 C   0  0  0  0  0  2  0  0  0  0  0  0
  -29.4000  -28.3020    6.3200 O   0  0  0  0  0  0  0  0  0  0  0  0
  -36.0920  -30.5430    5.3510 C   0  0  0  0  0  0  0  0  0  0  0  0
  -30.2790  -29.3600    6.3210 C   0  0  0  0  0  0  0  0  0  0  0  0
  -34.5520  -32.1560    6.4240 C   0  0  0  0  0  3  0  0  0  0  0  0
  -32.0780  -31.5380    6.3580 C   0  0  0  0  0  0  0  0  0  0  0  0
  -33.6650  -30.3870    4.8060 C   0  0  0  0  0  2  0  0  0  0  0  0
  -32.3690  -30.4040    5.5900 C   0  0  0  0  0  0  0  0  0  0  0  0
  -31.4680  -29.3140    5.5600 C   0  0  0  0  0  3  0  0  0  0  0  0
  -29.9970  -30.5110    7.0880 C   0  0  0  0  0  3  0  0  0  0  0  0
  -30.8920  -31.5980    7.1110 C   0  0  0  0  0  3  0  0  0  0  0  0
  -33.0880  -32.6640    6.3290 C   0  0  0  0  0  2  0  0  0  0  0  0
  -34.8130  -30.9830    5.5280 N   0  0  0  0  0  0  0  0  0  0  0  0
  -37.0480  -31.1230    5.8840 O   0  0  0  0  0  0  0  0  0  0  0  0
  -34.8840  -31.8800    7.9080 C   0  0  0  0  0  0  0  0  0  0  0  0
  -35.9880  -32.4700    8.3950 N   0  0  0  0  0  0  0  0  0  0  0  0
  -34.1440  -31.1760    8.6000 O   0  0  0  0  0  0  0  0  0  0  0  0
  -36.5460  -33.0260    7.7620 H   0  0  0  0  0  0  0  0  0  0  0  0
  -38.9000  -31.7710   10.4160 C   0  0  0  0  0  0  0  0  0  0  0  0
  -36.4720  -32.3830    9.7710 C   0  0  0  0  0  3  0  0  0  0  0  0
  -36.7830  -33.7870   10.3410 C   0  0  0  0  0  2  0  0  0  0  0  0
  -38.2470  -34.2020   10.1560 C   0  0  0  0  0  2  0  0  0  0  0  0
  -39.1800  -33.2020   10.8440 C   0  0  0  0  0  2  0  0  0  0  0  0
  -37.6340  -31.3900    9.8980 C   0  0  0  0  0  0  0  0  0  0  0  0
  -37.4360  -30.0560    9.4830 C   0  0  0  0  0  3  0  0  0  0  0  0
  -38.4750  -29.1100    9.5800 C   0  0  0  0  0  3  0  0  0  0  0  0
  -39.7220  -29.4890   10.1070 C   0  0  0  0  0  3  0  0  0  0  0  0
  -39.9310  -30.8160   10.5270 C   0  0  0  0  0  3  0  0  0  0  0  0
  -36.4150  -29.3090    4.4530 C   0  0  0  0  0  3  0  0  0  0  0  0
  -37.8270  -29.4040    4.0630 N   0  0  0  0  0  0  0  0  0  0  0  0
  -38.8570  -29.3800    4.9210 C   0  0  0  0  0  0  0  0  0  0  0  0
  -38.7070  -29.3470    6.1450 O   0  0  0  0  0  0  0  0  0  0  0  0
  -38.0250  -29.3790    3.0730 H   0  0  0  0  0  0  0  0  0  0  0  0
  -40.4890  -30.6920    3.5290 C   0  0  0  0  0  1  0  0  0  0  0  0
  -40.2780  -29.3940    4.3260 C   0  0  0  0  0  3  0  0  0  0  0  0
  -40.7830  -28.5850    2.0630 C   0  0  0  0  0  1  0  0  0  0  0  0
  -40.5660  -28.2270    3.4630 N   0  0  0  0  0  0  0  0  0  0  0  0
  -39.8070  -27.5520    3.5040 H   0  0  0  0  0  0  0  0  0  0  0  0
  -36.1250  -27.9290    5.1630 C   0  0  1  0  0  0  0  0  0  0  0  0
  -36.1200  -28.0130    6.7060 C   0  0  0  0  0  1  0  0  0  0  0  0
  -34.7560  -27.3650    4.7140 C   0  0  0  0  0  1  0  0  0  0  0  0
  -37.1910  -26.8900    4.7440 C   0  0  0  0  0  1  0  0  0  0  0  0
  2  1  2  0
  3  5  2  0
  3  6  1  0
  4  1  1  0
  5  2  1  0
  6  4  2  0
  7  6  1  0
  8 14  1  0
 10  9  1  0
 10 11  1  0
 12 11  1  0
 12 13  1  0
 12 25  1  0
 14  9  1  0
 14 13  1  0
 15  8  2  0
 16 19  1  0
 17 19  1  0
 18  4  1  0
 18 20  1  0
 18 16  1  0
 19 51  1  0
 20 53  1  0
 20 21  1  0
 21  8  1  0
 21 17  1  0
 22 47  1  0
 22 23  2  0
 23 42  1  0
 24 27  1  0
 24 23  1  0
 25 22  1  0
 26 25  1  0
 26 24  2  0
 27 32  1  0
 28 29  1  0
 28 27  2  0
 29 30  2  0
 30 33  1  0
 30 31  1  0
 32 31  2  0
 34 33  1  0
 34 39  1  0
 35 34  2  0
 36 35  1  0
 36 37  2  0
 37 38  1  0
 38 39  2  0
 39 40  1  0
 41 37  1  0
 42 43  1  0
 42 44  2  0
 43 46  1  0
 45 43  1  0
 47 48  1  0
 49 47  1  0
 50 51  1  0
 52 53  1  0
 54  5  1  0
 55 56  1  0
 55 54  1  0
 57 59  1  0
 57 56  1  0
 58 68  1  0
 58 69  2  0
 59 65  1  0
 60 70  1  0
 61 66  1  0
 62 68  1  0
 62 63  1  0
 63 61  2  0
 64 63  1  0
 64 59  2  0
 65 66  2  0
 67 61  1  0
 67 60  1  0
 68 60  1  0
 70 71  1  0
 70 72  2  0
 73 71  1  0
 74 83  1  0
 74 78  1  0
 75 71  1  0
 75 79  1  0
 75 76  1  0
 77 76  1  0
 77 78  1  0
 79 74  2  0
 80 81  2  0
 80 79  1  0
 81 82  1  0
 82 83  2  0
 84 94  1  0
 84 58  1  0
 85 84  1  0
 85 86  1  0
 86 87  2  0
 88 85  1  0
 90 89  1  0
 90 86  1  0
 91 92  1  0
 92 93  1  0
 92 90  1  0
 94 95  1  1
 96 94  1  0
 97 94  1  0
M  ISO  4   8 100  21 100  56 101  57 101
M  END
>  <TORSDO>  (60) 
F 21

>  <SCORE>  (60) 
-3.323

>  <name>  (60) 
59

>  <ligand_id>  (60) 
59

>  <original_smiles>  (60) 
[H]c1c([H])c([H])c2c(c1[H])C([H])([H])C([H])([H])C([H])([H])C2([H])N([H])C(=O)C1([H])N(C(=O)C([H])(N([H])C(=O)C([H])(N([H])C([H])([H])[H])C([H])([H])[H])C(C([H])([H])[H])(C([H])([H])[H])C([H])([H])[H])C([H])([H])c2c([H])c(OC([H])([H])C([H])([H])C([H])([H])c3c([H])c([H])c(C4([H])C([H])([H])C([H])(C([H])([H])C([H])([H])[H])C([H])([H])N(C(=O)N5C([H])([H])C([H])([H])C([H])([H])C([H])(n6nc(-c7c([H])c([H])c(Oc8c([H])c([H])c(F)c([H])c8F)c([H])c7[H])c(C(=O)N([H])[H])c6N([H])[H])C5([H])[H])C4([H])C([H])([H])C([H])([H])[H])c(C([H])([H])[H])c3[H])c([H])c([H])c2C1([H])[H]

>  <smiles>  (60) 
[H]c1c([H])c([H])c2c(c1[H])C([H])([H])C([H])([H])C([H])([H])C2([H])N([H])C(=O)C1([H])N(C(=O)C([H])(N([H])C(=O)C([H])(N([H])C([H])([H])[H])C([H])([H])[H])C(C([H])([H])[H])(C([H])([H])[H])C([H])([H])[H])C([H])([H])c2c([H])c(OC([H])([H])C([H])([H])C([H])([H])c3c([H])c([H])c(C4([H])C([H])([H])C([H])(C([H])([H])C([H])([H])[H])C([H])([H])N(C(=O)N5C([H])([H])C([H])([H])C([H])([H])C([H])(n6nc(-c7c([H])c([H])c(Oc8c([H])c([H])c(F)c([H])c8F)c([H])c7[H])c(C(=O)N([H])[H])c6N([H])[H])C5([H])[H])C4([H])C([H])([H])C([H])([H])[H])c(C([H])([H])[H])c3[H])c([H])c([H])c2C1([H])[H]

$$$$
60:0:0
     RDKit          3D

 90 98  0  0  1  0  0  0  0  0999 V2000
  -28.4530  -19.5240   20.4010 C   0  0  0  0  0  2  0  0  0  0  0  0
  -30.7630  -14.6820   20.3810 C   0  0  0  0  0  0  0  0  0  0  0  0
  -30.3230  -12.4690   19.3460 C   0  0  0  0  0  2  0  0  0  0  0  0
  -29.4010  -12.5310   18.1210 C   0  0  0  0  0  2  0  0  0  0  0  0
  -27.9430  -12.3690   18.5750 C   0  0  0  0  0  2  0  0  0  0  0  0
  -27.5780  -13.2940   19.7690 C   0  0  0  0  0  3  0  0  0  0  0  0
  -28.6500  -13.2950   20.8800 C   0  0  0  0  0  2  0  0  0  0  0  0
  -29.9280  -13.5980   20.2290 N   0  0  0  0  0  0  0  0  0  0  0  0
  -31.9590  -14.4590   20.2380 O   0  0  0  0  0  0  0  0  0  0  0  0
  -30.7580  -18.4730   20.6080 C   0  0  0  0  0  2  0  0  0  0  0  0
  -29.0710  -16.7750   20.4250 C   0  0  0  0  0  2  0  0  0  0  0  0
  -29.3030  -18.2710   20.9300 C   0  0  0  0  0  3  0  0  0  0  0  0
  -31.4360  -17.0960   20.5490 C   0  0  0  0  0  3  0  0  0  0  0  0
  -30.3780  -16.0310   20.4350 N   0  0  0  0  0  0  0  0  0  0  0  0
  -25.2080  -13.8840   20.5250 C   0  0  0  0  0  0  0  0  0  0  0  0
  -24.1400  -13.1120   20.8930 C   0  0  0  0  0  0  0  0  0  0  0  0
  -24.5970  -11.7590   20.8570 C   0  0  0  0  0  0  0  0  0  0  0  0
  -26.2450  -13.0020   20.2820 N   0  0  0  0  0  0  0  0  0  0  0  0
  -25.8880  -11.7190   20.5480 N   0  0  0  0  0  0  0  0  0  0  0  0
  -23.8640  -10.4980   21.0440 C   0  0  0  0  0  0  0  0  0  0  0  0
  -24.2980   -9.5220   21.9680 C   0  0  0  0  0  3  0  0  0  0  0  0
  -23.5660   -8.3290   22.1470 C   0  0  0  0  0  3  0  0  0  0  0  0
  -22.3860   -8.1010   21.3990 C   0  0  0  0  0  0  0  0  0  0  0  0
  -21.9710   -9.0650   20.4620 C   0  0  0  0  0  3  0  0  0  0  0  0
  -22.7030  -10.2510   20.2840 C   0  0  0  0  0  3  0  0  0  0  0  0
  -21.6260   -6.9600   21.4840 O   0  0  0  0  0  0  0  0  0  0  0  0
  -21.5810   -6.2090   22.6310 C   0  0  0  0  0  0  0  0  0  0  0  0
  -21.1630   -6.7560   23.8640 C   0  0  0  0  0  3  0  0  0  0  0  0
  -21.0670   -5.9320   25.0020 C   0  0  0  0  0  3  0  0  0  0  0  0
  -21.3780   -4.5610   24.9080 C   0  0  0  0  0  0  0  0  0  0  0  0
  -21.7900   -4.0150   23.6800 C   0  0  0  0  0  3  0  0  0  0  0  0
  -21.8880   -4.8370   22.5440 C   0  0  0  0  0  0  0  0  0  0  0  0
  -22.2640   -4.3000   21.3580 F   0  0  0  0  0  0  0  0  0  0  0  0
  -21.2800   -3.7680   26.0010 F   0  0  0  0  0  0  0  0  0  0  0  0
  -22.7450  -13.5960   21.1630 C   0  0  0  0  0  0  0  0  0  0  0  0
  -22.0130  -12.9030   22.0290 N   0  0  0  0  0  0  0  0  0  0  0  0
  -22.3120  -14.6230   20.6410 O   0  0  0  0  0  0  0  0  0  0  0  0
  -22.3770  -12.0740   22.4740 H   0  0  0  0  0  0  0  0  0  0  0  0
  -21.0770  -13.2080   22.2510 H   0  0  0  0  0  0  0  0  0  0  0  0
  -25.3790  -15.2530   20.3480 N   0  0  0  0  0  0  0  0  0  0  0  0
  -24.6190  -15.9120   20.4700 H   0  0  0  0  0  0  0  0  0  0  0  0
  -26.2340  -15.6850   20.0210 H   0  0  0  0  0  0  0  0  0  0  0  0
  -32.0440  -17.0470   18.0110 C   0  0  0  0  0  1  0  0  0  0  0  0
  -33.5180  -18.3470   19.6330 C   0  0  0  0  0  1  0  0  0  0  0  0
  -32.5700  -17.1400   19.4580 C   0  0  0  0  0  3  0  0  0  0  0  0
  -28.9700  -20.9970   20.7910 C   0  0  0  0  0  3  0  0  0  0  0  0
  -28.1980  -22.2850   20.2520 C   0  0  0  0  0  3  0  0  0  0  0  0
  -28.7600  -23.7550   20.5780 C   0  0  0  0  0  3  0  0  0  0  0  0
  -27.8860  -24.9770   20.0480 C   0  0  0  0  0  3  0  0  0  0  0  0
  -28.2260  -26.4120   20.2840 O   0  0  0  0  0  0  0  0  0  0  0  0
  -24.6130  -31.9200   23.2470 C   0  0  0  0  0  0  0  0  0  0  0  0
  -27.1620  -27.3300   20.1860 C   0  0  0  0  0  0  0  0  0  0  0  0
  -23.3980  -30.5310   21.6110 C   0  0  0  0  0  3  0  0  0  0  0  0
  -24.8320  -28.9900   20.1700 C   0  0  0  0  0  0  0  0  0  0  0  0
  -25.9430  -30.8290   21.4290 C   0  0  0  0  0  2  0  0  0  0  0  0
  -26.0080  -29.4540   20.7750 C   0  0  0  0  0  0  0  0  0  0  0  0
  -27.1790  -28.6340   20.7780 C   0  0  0  0  0  3  0  0  0  0  0  0
  -25.9720  -26.9490   19.5220 C   0  0  0  0  0  3  0  0  0  0  0  0
  -24.8180  -27.7440   19.5320 C   0  0  0  0  0  3  0  0  0  0  0  0
  -23.6030  -29.8690   20.2260 C   0  0  0  0  0  2  0  0  0  0  0  0
  -24.6700  -31.1110   22.1510 N   0  0  0  0  0  0  0  0  0  0  0  0
  -23.5320  -32.2040   23.7850 O   0  0  0  0  0  0  0  0  0  0  0  0
  -22.7370  -29.5100   22.5700 C   0  0  0  0  0  0  0  0  0  0  0  0
  -21.4100  -29.3350   22.4480 N   0  0  0  0  0  0  0  0  0  0  0  0
  -23.4160  -28.8820   23.3860 O   0  0  0  0  0  0  0  0  0  0  0  0
  -20.9200  -29.8960   21.7640 H   0  0  0  0  0  0  0  0  0  0  0  0
  -18.0270  -28.1560   22.9590 C   0  0  0  0  0  0  0  0  0  0  0  0
  -20.5880  -28.4030   23.2230 C   0  0  0  0  0  3  0  0  0  0  0  0
  -20.6790  -26.9690   22.6500 C   0  0  0  0  0  2  0  0  0  0  0  0
  -19.5730  -26.6510   21.6390 C   0  0  0  0  0  2  0  0  0  0  0  0
  -18.1940  -26.8050   22.2840 C   0  0  0  0  0  2  0  0  0  0  0  0
  -19.1510  -28.9140   23.3850 C   0  0  0  0  0  0  0  0  0  0  0  0
  -18.9390  -30.1800   23.9740 C   0  0  0  0  0  3  0  0  0  0  0  0
  -17.6360  -30.6860   24.1440 C   0  0  0  0  0  3  0  0  0  0  0  0
  -16.5280  -29.9250   23.7370 C   0  0  0  0  0  3  0  0  0  0  0  0
  -16.7240  -28.6630   23.1490 C   0  0  0  0  0  3  0  0  0  0  0  0
  -25.9010  -32.5470   23.8640 C   0  0  0  0  0  3  0  0  0  0  0  0
  -25.5970  -33.9460   24.1990 N   0  0  0  0  0  0  0  0  0  0  0  0
  -25.9070  -34.9980   23.4320 C   0  0  0  0  0  0  0  0  0  0  0  0
  -26.5560  -34.8980   22.3860 O   0  0  0  0  0  0  0  0  0  0  0  0
  -25.0250  -34.1000   25.0170 H   0  0  0  0  0  0  0  0  0  0  0  0
  -24.1630  -36.7830   23.1200 C   0  0  0  0  0  1  0  0  0  0  0  0
  -25.4250  -36.3850   23.9000 C   0  0  0  0  0  3  0  0  0  0  0  0
  -27.5770  -37.2800   24.6720 C   0  0  0  0  0  1  0  0  0  0  0  0
  -26.4480  -37.4440   23.7610 N   0  0  0  0  0  0  0  0  0  0  0  0
  -26.0400  -38.3620   23.9230 H   0  0  0  0  0  0  0  0  0  0  0  0
  -26.4220  -31.7710   25.1360 C   0  0  1  0  0  0  0  0  0  0  0  0
  -25.3340  -31.5330   26.2090 C   0  0  0  0  0  1  0  0  0  0  0  0
  -26.9980  -30.3900   24.7430 C   0  0  0  0  0  1  0  0  0  0  0  0
  -27.5790  -32.5590   25.7920 C   0  0  0  0  0  1  0  0  0  0  0  0
  1 46  1  0
  2 14  1  0
  3  8  1  0
  4  5  1  0
  4  3  1  0
  6  5  1  0
  6 18  1  0
  6  7  1  0
  8  2  1  0
  8  7  1  0
  9  2  2  0
 10 12  1  0
 11 14  1  0
 11 12  1  0
 12  1  1  0
 13 45  1  0
 13 10  1  0
 14 13  1  0
 15 16  2  0
 16 35  1  0
 17 16  1  0
 17 20  1  0
 18 15  1  0
 18 19  1  0
 19 17  2  0
 20 21  1  0
 21 22  2  0
 23 26  1  0
 23 22  1  0
 24 23  2  0
 25 24  1  0
 25 20  2  0
 26 27  1  0
 27 28  1  0
 28 29  2  0
 30 29  1  0
 30 34  1  0
 31 30  2  0
 32 27  2  0
 32 31  1  0
 33 32  1  0
 35 36  1  0
 36 39  1  0
 36 38  1  0
 37 35  2  0
 40 41  1  0
 40 15  1  0
 42 40  1  0
 43 45  1  0
 45 44  1  0
 47 48  1  0
 47 46  2  0
 49 50  1  0
 49 48  2  0
 51 62  2  0
 52 50  1  0
 52 57  1  0
 53 61  1  0
 53 63  1  0
 54 60  1  0
 54 56  1  0
 55 61  1  0
 56 57  2  0
 56 55  1  0
 58 59  1  0
 58 52  2  0
 59 54  2  0
 60 53  1  0
 61 51  1  0
 63 65  2  0
 64 63  1  0
 66 64  1  0
 67 76  2  0
 67 72  1  0
 68 64  1  0
 68 72  1  0
 69 68  1  0
 70 71  1  0
 70 69  1  0
 71 67  1  0
 72 73  2  0
 73 74  1  0
 75 74  2  0
 76 75  1  0
 77 51  1  0
 77 78  1  0
 77 87  1  0
 78 81  1  0
 79 83  1  0
 79 78  1  0
 80 79  2  0
 83 82  1  0
 85 83  1  0
 85 86  1  0
 85 84  1  0
 87 90  1  1
 87 88  1  0
 89 87  1  0
M  ISO  4   2 100  14 100  49 101  50 101
M  END
>  <TORSDO>  (61) 
F 21

>  <SCORE>  (61) 
-13.647

>  <name>  (61) 
60

>  <ligand_id>  (61) 
60

>  <original_smiles>  (61) 
[H]c1c([H])c([H])c2c(c1[H])C([H])([H])C([H])([H])C([H])([H])C2([H])N([H])C(=O)C1([H])N(C(=O)C([H])(N([H])C(=O)C([H])(N([H])C([H])([H])[H])C([H])([H])[H])C(C([H])([H])[H])(C([H])([H])[H])C([H])([H])[H])C([H])([H])c2c([H])c(OC([H])([H])C([H])([H])C([H])([H])C([H])([H])C([H])([H])C3([H])C([H])([H])N(C(=O)N4C([H])([H])C([H])([H])C([H])([H])C([H])(n5nc(-c6c([H])c([H])c(Oc7c([H])c([H])c(F)c([H])c7F)c([H])c6[H])c(C(=O)N([H])[H])c5N([H])[H])C4([H])[H])C([H])(C([H])(C([H])([H])[H])C([H])([H])[H])C3([H])[H])c([H])c([H])c2C1([H])[H]

>  <smiles>  (61) 
[H]c1c([H])c([H])c2c(c1[H])C([H])([H])C([H])([H])C([H])([H])C2([H])N([H])C(=O)C1([H])N(C(=O)C([H])(N([H])C(=O)C([H])(N([H])C([H])([H])[H])C([H])([H])[H])C(C([H])([H])[H])(C([H])([H])[H])C([H])([H])[H])C([H])([H])c2c([H])c(OC([H])([H])C([H])([H])C([H])([H])C([H])([H])C([H])([H])C3([H])C([H])([H])N(C(=O)N4C([H])([H])C([H])([H])C([H])([H])C([H])(n5nc(-c6c([H])c([H])c(Oc7c([H])c([H])c(F)c([H])c7F)c([H])c6[H])c(C(=O)N([H])[H])c5N([H])[H])C4([H])[H])C([H])(C([H])(C([H])([H])[H])C([H])([H])[H])C3([H])[H])c([H])c([H])c2C1([H])[H]

$$$$
61:0:0
     RDKit          3D

 92101  0  0  1  0  0  0  0  0999 V2000
  -29.9650  -22.0350   20.6520 C   0  0  0  0  0  2  0  0  0  0  0  0
  -29.8920  -19.4760   21.6170 C   0  0  0  0  0  2  0  0  0  0  0  0
  -27.9680  -20.9270   19.7960 C   0  0  0  0  0  2  0  0  0  0  0  0
  -30.2460  -20.5130   20.5190 C   0  0  0  0  0  3  0  0  0  0  0  0
  -29.1300  -19.8750   19.7220 C   0  0  0  0  0  3  0  0  0  0  0  0
  -28.4350  -22.2610   20.5340 C   0  0  0  0  0  3  0  0  0  0  0  0
  -29.2920  -18.5200   20.5550 C   0  0  0  0  0  3  0  0  0  0  0  0
  -30.1860  -17.2880   20.0320 C   0  0  0  0  0  2  0  0  0  0  0  0
  -30.6200  -14.7350   20.1450 C   0  0  0  0  0  0  0  0  0  0  0  0
  -30.3600  -12.4990   19.0810 C   0  0  0  0  0  2  0  0  0  0  0  0
  -29.3870  -12.6410   17.8900 C   0  0  0  0  0  2  0  0  0  0  0  0
  -27.9310  -12.4690   18.3640 C   0  0  0  0  0  2  0  0  0  0  0  0
  -27.6060  -13.3230   19.6200 C   0  0  0  0  0  3  0  0  0  0  0  0
  -28.6990  -13.1790   20.7050 C   0  0  0  0  0  2  0  0  0  0  0  0
  -29.9830  -13.5200   20.0840 N   0  0  0  0  0  0  0  0  0  0  0  0
  -31.7820  -14.8490   19.7460 O   0  0  0  0  0  0  0  0  0  0  0  0
  -29.8620  -15.8550   20.4210 N   0  0  0  0  0  0  0  0  0  0  0  0
  -28.9200  -15.6780   20.7340 H   0  0  0  0  0  0  0  0  0  0  0  0
  -25.2350  -13.9080   20.4070 C   0  0  0  0  0  0  0  0  0  0  0  0
  -24.1830  -13.1310   20.8060 C   0  0  0  0  0  0  0  0  0  0  0  0
  -24.6500  -11.7810   20.7620 C   0  0  0  0  0  0  0  0  0  0  0  0
  -26.2760  -13.0330   20.1440 N   0  0  0  0  0  0  0  0  0  0  0  0
  -25.9320  -11.7490   20.4190 N   0  0  0  0  0  0  0  0  0  0  0  0
  -23.9350  -10.5150   20.9700 C   0  0  0  0  0  0  0  0  0  0  0  0
  -24.3900   -9.5530   21.8980 C   0  0  0  0  0  3  0  0  0  0  0  0
  -23.6740   -8.3530   22.0930 C   0  0  0  0  0  3  0  0  0  0  0  0
  -22.4900   -8.1060   21.3590 C   0  0  0  0  0  0  0  0  0  0  0  0
  -22.0540   -9.0570   20.4190 C   0  0  0  0  0  3  0  0  0  0  0  0
  -22.7710  -10.2490   20.2230 C   0  0  0  0  0  3  0  0  0  0  0  0
  -21.7420   -6.9580   21.4650 O   0  0  0  0  0  0  0  0  0  0  0  0
  -21.7090   -6.2230   22.6240 C   0  0  0  0  0  0  0  0  0  0  0  0
  -21.2830   -6.7810   23.8490 C   0  0  0  0  0  3  0  0  0  0  0  0
  -21.2010   -5.9720   25.0000 C   0  0  0  0  0  3  0  0  0  0  0  0
  -21.5350   -4.6070   24.9270 C   0  0  0  0  0  0  0  0  0  0  0  0
  -21.9520   -4.0480   23.7060 C   0  0  0  0  0  3  0  0  0  0  0  0
  -22.0380   -4.8540   22.5570 C   0  0  0  0  0  0  0  0  0  0  0  0
  -22.4220   -4.3070   21.3790 F   0  0  0  0  0  0  0  0  0  0  0  0
  -21.4470   -3.8270   26.0290 F   0  0  0  0  0  0  0  0  0  0  0  0
  -22.7920  -13.6010   21.1140 C   0  0  0  0  0  0  0  0  0  0  0  0
  -22.0890  -12.9020   21.9980 N   0  0  0  0  0  0  0  0  0  0  0  0
  -22.3360  -14.6260   20.6080 O   0  0  0  0  0  0  0  0  0  0  0  0
  -22.4700  -12.0700   22.4270 H   0  0  0  0  0  0  0  0  0  0  0  0
  -21.1560  -13.1980   22.2470 H   0  0  0  0  0  0  0  0  0  0  0  0
  -25.3890  -15.2800   20.2240 N   0  0  0  0  0  0  0  0  0  0  0  0
  -24.6180  -15.9270   20.3430 H   0  0  0  0  0  0  0  0  0  0  0  0
  -26.2200  -15.7210   19.8520 H   0  0  0  0  0  0  0  0  0  0  0  0
  -27.8810  -23.6970   19.9930 C   0  0  0  0  0  3  0  0  0  0  0  0
  -26.3300  -23.5710   19.9100 C   0  0  0  0  0  2  0  0  0  0  0  0
  -24.2400  -23.6370   18.4220 C   0  0  0  0  0  1  0  0  0  0  0  0
  -25.7620  -23.4340   18.4810 C   0  0  0  0  0  2  0  0  0  0  0  0
  -28.2610  -25.0610   20.7930 C   0  0  0  0  0  2  0  0  0  0  0  0
  -28.3360  -26.4410   20.2030 O   0  0  0  0  0  0  0  0  0  0  0  0
  -24.6260  -31.8970   23.2630 C   0  0  0  0  0  0  0  0  0  0  0  0
  -27.2340  -27.3110   20.2260 C   0  0  0  0  0  0  0  0  0  0  0  0
  -23.4310  -30.4960   21.6210 C   0  0  0  0  0  3  0  0  0  0  0  0
  -24.8860  -28.9480   20.2020 C   0  0  0  0  0  0  0  0  0  0  0  0
  -25.9720  -30.8100   21.4480 C   0  0  0  0  0  2  0  0  0  0  0  0
  -26.0550  -29.4270   20.8090 C   0  0  0  0  0  0  0  0  0  0  0  0
  -27.2360  -28.6190   20.8130 C   0  0  0  0  0  3  0  0  0  0  0  0
  -26.0580  -26.9120   19.5670 C   0  0  0  0  0  3  0  0  0  0  0  0
  -24.8900  -27.6950   19.5740 C   0  0  0  0  0  3  0  0  0  0  0  0
  -23.6500  -29.8250   20.2410 C   0  0  0  0  0  2  0  0  0  0  0  0
  -24.6950  -31.0850   22.1670 N   0  0  0  0  0  0  0  0  0  0  0  0
  -23.5400  -32.1720   23.7920 O   0  0  0  0  0  0  0  0  0  0  0  0
  -22.7670  -29.4750   22.5770 C   0  0  0  0  0  0  0  0  0  0  0  0
  -21.4440  -29.2930   22.4410 N   0  0  0  0  0  0  0  0  0  0  0  0
  -23.4430  -28.8520   23.4000 O   0  0  0  0  0  0  0  0  0  0  0  0
  -20.9590  -29.8510   21.7530 H   0  0  0  0  0  0  0  0  0  0  0  0
  -18.0640  -28.0940   22.9290 C   0  0  0  0  0  0  0  0  0  0  0  0
  -20.6210  -28.3530   23.2050 C   0  0  0  0  0  3  0  0  0  0  0  0
  -20.7260  -26.9220   22.6260 C   0  0  0  0  0  2  0  0  0  0  0  0
  -19.6260  -26.6020   21.6090 C   0  0  0  0  0  2  0  0  0  0  0  0
  -18.2420  -26.7450   22.2500 C   0  0  0  0  0  2  0  0  0  0  0  0
  -19.1810  -28.8560   23.3620 C   0  0  0  0  0  0  0  0  0  0  0  0
  -18.9610  -30.1180   23.9530 C   0  0  0  0  0  3  0  0  0  0  0  0
  -17.6560  -30.6170   24.1200 C   0  0  0  0  0  3  0  0  0  0  0  0
  -16.5520  -29.8520   23.7020 C   0  0  0  0  0  3  0  0  0  0  0  0
  -16.7570  -28.5940   23.1110 C   0  0  0  0  0  3  0  0  0  0  0  0
  -25.9050  -32.5330   23.8890 C   0  0  0  0  0  3  0  0  0  0  0  0
  -25.5930  -33.9340   24.2060 N   0  0  0  0  0  0  0  0  0  0  0  0
  -25.9300  -34.9800   23.4400 C   0  0  0  0  0  0  0  0  0  0  0  0
  -26.6050  -34.8670   22.4140 O   0  0  0  0  0  0  0  0  0  0  0  0
  -24.9990  -34.0950   25.0050 H   0  0  0  0  0  0  0  0  0  0  0  0
  -24.2060  -36.7750   23.0630 C   0  0  0  0  0  1  0  0  0  0  0  0
  -25.4420  -36.3740   23.8830 C   0  0  0  0  0  3  0  0  0  0  0  0
  -27.5710  -37.2640   24.7250 C   0  0  0  0  0  1  0  0  0  0  0  0
  -26.4780  -37.4250   23.7700 N   0  0  0  0  0  0  0  0  0  0  0  0
  -26.0710  -38.3450   23.9080 H   0  0  0  0  0  0  0  0  0  0  0  0
  -26.4060  -31.7720   25.1790 C   0  0  1  0  0  0  0  0  0  0  0  0
  -25.3040  -31.5440   26.2390 C   0  0  0  0  0  1  0  0  0  0  0  0
  -26.9950  -30.3920   24.8040 C   0  0  0  0  0  1  0  0  0  0  0  0
  -27.5500  -32.5720   25.8450 C   0  0  0  0  0  1  0  0  0  0  0  0
  3  6  1  0
  4  1  1  0
  4  2  1  0
  5  3  1  0
  5  4  1  0
  5  7  1  0
  6 47  1  0
  6  1  1  0
  7  8  1  0
  7  2  1  0
  8 17  1  0
  9 17  1  0
 10 15  1  0
 11 12  1  0
 11 10  1  0
 13 12  1  0
 13 22  1  0
 13 14  1  0
 15  9  1  0
 15 14  1  0
 16  9  2  0
 17 18  1  0
 19 20  2  0
 20 39  1  0
 21 20  1  0
 21 24  1  0
 22 19  1  0
 22 23  1  0
 23 21  2  0
 24 25  1  0
 25 26  2  0
 27 30  1  0
 27 26  1  0
 28 27  2  0
 29 28  1  0
 29 24  2  0
 30 31  1  0
 31 32  1  0
 32 33  2  0
 34 33  1  0
 34 38  1  0
 35 34  2  0
 36 31  2  0
 36 35  1  0
 37 36  1  0
 39 40  1  0
 40 43  1  0
 40 42  1  0
 41 39  2  0
 44 45  1  0
 44 19  1  0
 46 44  1  0
 47 48  1  0
 47 51  1  0
 49 50  1  0
 50 48  1  0
 52 54  1  0
 52 51  1  0
 53 64  2  0
 54 59  1  0
 55 63  1  0
 55 65  1  0
 56 62  1  0
 56 58  1  0
 57 63  1  0
 58 59  2  0
 58 57  1  0
 60 61  1  0
 60 54  2  0
 61 56  2  0
 62 55  1  0
 63 53  1  0
 65 67  2  0
 66 65  1  0
 68 66  1  0
 69 78  2  0
 69 74  1  0
 70 66  1  0
 70 74  1  0
 71 70  1  0
 72 73  1  0
 72 71  1  0
 73 69  1  0
 74 75  2  0
 75 76  1  0
 77 76  2  0
 78 77  1  0
 79 53  1  0
 79 80  1  0
 79 89  1  0
 80 83  1  0
 81 85  1  0
 81 80  1  0
 82 81  2  0
 85 84  1  0
 87 85  1  0
 87 88  1  0
 87 86  1  0
 89 92  1  1
 89 90  1  0
 91 89  1  0
M  ISO  4   9 100  17 100  51 101  52 101
M  END
>  <TORSDO>  (62) 
F 21

>  <SCORE>  (62) 
-13.358

>  <name>  (62) 
61

>  <ligand_id>  (62) 
61

>  <original_smiles>  (62) 
[H]c1c([H])c([H])c2c(c1[H])C([H])([H])C([H])([H])C([H])([H])C2([H])N([H])C(=O)C1([H])N(C(=O)C([H])(N([H])C(=O)C([H])(N([H])C([H])([H])[H])C([H])([H])[H])C(C([H])([H])[H])(C([H])([H])[H])C([H])([H])[H])C([H])([H])c2c([H])c(OC([H])([H])C([H])(C([H])([H])C([H])([H])C([H])([H])[H])C3([H])C([H])([H])C4([H])C([H])([H])C([H])(C([H])([H])N([H])C(=O)N5C([H])([H])C([H])([H])C([H])([H])C([H])(n6nc(-c7c([H])c([H])c(Oc8c([H])c([H])c(F)c([H])c8F)c([H])c7[H])c(C(=O)N([H])[H])c6N([H])[H])C5([H])[H])C4([H])C3([H])[H])c([H])c([H])c2C1([H])[H]

>  <smiles>  (62) 
[H]c1c([H])c([H])c2c(c1[H])C([H])([H])C([H])([H])C([H])([H])C2([H])N([H])C(=O)C1([H])N(C(=O)C([H])(N([H])C(=O)C([H])(N([H])C([H])([H])[H])C([H])([H])[H])C(C([H])([H])[H])(C([H])([H])[H])C([H])([H])[H])C([H])([H])c2c([H])c(OC([H])([H])C([H])(C([H])([H])C([H])([H])C([H])([H])[H])C3([H])C([H])([H])C4([H])C([H])([H])C([H])(C([H])([H])N([H])C(=O)N5C([H])([H])C([H])([H])C([H])([H])C([H])(n6nc(-c7c([H])c([H])c(Oc8c([H])c([H])c(F)c([H])c8F)c([H])c7[H])c(C(=O)N([H])[H])c6N([H])[H])C5([H])[H])C4([H])C3([H])[H])c([H])c([H])c2C1([H])[H]

$$$$
62:0:0
     RDKit          3D

101108  0  0  1  0  0  0  0  0999 V2000
  -28.5980  -17.9700   19.4170 C   0  0  0  0  0  3  0  0  0  0  0  0
  -27.7450  -16.8320   19.8150 N   0  0  0  0  0  4  0  0  0  0  0  0
  -27.6810  -16.7520   20.8140 H   0  0  0  0  0  0  0  0  0  0  0  0
  -28.1130  -15.9710   19.4510 H   0  0  0  0  0  0  0  0  0  0  0  0
  -26.8150  -16.9430   19.4480 H   0  0  0  0  0  0  0  0  0  0  0  0
  -30.0540  -17.7490   19.8900 C   0  0  0  0  0  2  0  0  0  0  0  0
  -31.0240  -17.3370   18.7660 C   0  0  0  0  0  2  0  0  0  0  0  0
  -31.6240  -15.9150   18.9420 C   0  0  0  0  0  3  0  0  0  0  0  0
  -32.5780  -15.2430   16.6790 C   0  0  0  0  0  0  0  0  0  0  0  0
  -32.7910  -16.0000   14.3460 C   0  0  0  0  0  2  0  0  0  0  0  0
  -34.0780  -16.8360   14.1950 C   0  0  0  0  0  2  0  0  0  0  0  0
  -33.8180  -18.3130   14.5470 C   0  0  0  0  0  2  0  0  0  0  0  0
  -33.0690  -18.4830   15.8960 C   0  0  0  0  0  3  0  0  0  0  0  0
  -31.8430  -17.5490   15.9470 C   0  0  0  0  0  2  0  0  0  0  0  0
  -32.3050  -16.1720   15.7230 N   0  0  0  0  0  0  0  0  0  0  0  0
  -33.0190  -14.1230   16.4220 O   0  0  0  0  0  0  0  0  0  0  0  0
  -32.6750  -15.6970   17.9360 N   0  0  0  0  0  0  0  0  0  0  0  0
  -33.4570  -15.2350   18.3780 H   0  0  0  0  0  0  0  0  0  0  0  0
  -32.8290  -20.6410   17.2800 C   0  0  0  0  0  0  0  0  0  0  0  0
  -32.3930  -21.8960   16.9500 C   0  0  0  0  0  0  0  0  0  0  0  0
  -32.0230  -21.8340   15.5720 C   0  0  0  0  0  0  0  0  0  0  0  0
  -32.6980  -19.8760   16.1300 N   0  0  0  0  0  0  0  0  0  0  0  0
  -32.1590  -20.5960   15.1130 N   0  0  0  0  0  0  0  0  0  0  0  0
  -31.5990  -22.8930   14.6480 C   0  0  0  0  0  0  0  0  0  0  0  0
  -30.2330  -23.1660   14.4170 C   0  0  0  0  0  3  0  0  0  0  0  0
  -29.8490  -24.1990   13.5360 C   0  0  0  0  0  3  0  0  0  0  0  0
  -30.8340  -24.9720   12.8780 C   0  0  0  0  0  0  0  0  0  0  0  0
  -32.1920  -24.6840   13.0950 C   0  0  0  0  0  3  0  0  0  0  0  0
  -32.5730  -23.6530   13.9690 C   0  0  0  0  0  3  0  0  0  0  0  0
  -30.5550  -25.9810   11.9870 O   0  0  0  0  0  0  0  0  0  0  0  0
  -29.8260  -27.0840   12.3530 C   0  0  0  0  0  0  0  0  0  0  0  0
  -30.3150  -28.0200   13.2910 C   0  0  0  0  0  3  0  0  0  0  0  0
  -29.5640  -29.1750   13.5870 C   0  0  0  0  0  3  0  0  0  0  0  0
  -28.3340  -29.4030   12.9410 C   0  0  0  0  0  0  0  0  0  0  0  0
  -27.8510  -28.4760   12.0010 C   0  0  0  0  0  3  0  0  0  0  0  0
  -28.5970  -27.3210   11.7070 C   0  0  0  0  0  0  0  0  0  0  0  0
  -28.1350  -26.4410   10.7860 F   0  0  0  0  0  0  0  0  0  0  0  0
  -27.6180  -30.5180   13.2190 F   0  0  0  0  0  0  0  0  0  0  0  0
  -32.4130  -23.1110   17.8340 C   0  0  0  0  0  0  0  0  0  0  0  0
  -31.3860  -23.9480   17.7470 N   0  0  0  0  0  0  0  0  0  0  0  0
  -33.3170  -23.2950   18.6480 O   0  0  0  0  0  0  0  0  0  0  0  0
  -30.6340  -23.7870   17.0940 H   0  0  0  0  0  0  0  0  0  0  0  0
  -31.3500  -24.7630   18.3430 H   0  0  0  0  0  0  0  0  0  0  0  0
  -33.3390  -20.0910   18.4520 N   0  0  0  0  0  0  0  0  0  0  0  0
  -33.6280  -20.6940   19.2130 H   0  0  0  0  0  0  0  0  0  0  0  0
  -33.8190  -19.2000   18.4510 H   0  0  0  0  0  0  0  0  0  0  0  0
  -30.5620  -14.7930   19.0490 C   0  0  0  0  0  2  0  0  0  0  0  0
  -31.1210  -13.5260   19.7210 C   0  0  0  0  0  2  0  0  0  0  0  0
  -30.8740  -12.2360   18.9420 C   0  0  0  0  0  0  0  0  0  0  0  0
  -31.0880  -10.9350   19.7000 C   0  0  0  0  0  1  0  0  0  0  0  0
  -30.5210  -12.2360   17.7610 O   0  0  0  0  0  0  0  0  0  0  0  0
  -28.0330  -19.3070   19.9550 C   0  0  0  0  0  2  0  0  0  0  0  0
  -28.6650  -20.5440   19.2830 C   0  0  0  0  0  2  0  0  0  0  0  0
  -28.6100  -21.8130   20.1490 C   0  0  0  0  0  2  0  0  0  0  0  0
  -28.5320  -23.0190   19.3030 N   0  0  0  0  0  4  0  0  0  0  0  0
  -27.7070  -22.9550   18.7280 H   0  0  0  0  0  0  0  0  0  0  0  0
  -29.3320  -23.0370   18.6920 H   0  0  0  0  0  0  0  0  0  0  0  0
  -28.5000  -24.2920   20.0470 C   0  0  0  0  0  2  0  0  0  0  0  0
  -27.6790  -25.3460   19.2920 C   0  0  0  0  0  2  0  0  0  0  0  0
  -27.6880  -26.7170   19.9790 C   0  0  0  0  0  2  0  0  0  0  0  0
  -26.4230  -27.3430   19.7790 O   0  0  0  0  0  0  0  0  0  0  0  0
  -26.5570  -31.9820   25.1420 C   0  0  0  0  0  0  0  0  0  0  0  0
  -25.8530  -27.7480   20.9550 C   0  0  0  0  0  0  0  0  0  0  0  0
  -25.1110  -30.0000   25.4670 C   0  0  0  0  0  3  0  0  0  0  0  0
  -24.7170  -28.5670   23.3960 C   0  0  0  0  0  0  0  0  0  0  0  0
  -25.5940  -30.8940   23.1230 C   0  0  0  0  0  2  0  0  0  0  0  0
  -25.4450  -29.4770   22.6200 C   0  0  0  0  0  0  0  0  0  0  0  0
  -26.0180  -29.0730   21.3980 C   0  0  0  0  0  3  0  0  0  0  0  0
  -25.1150  -26.8370   21.7350 C   0  0  0  0  0  3  0  0  0  0  0  0
  -24.5540  -27.2390   22.9610 C   0  0  0  0  0  3  0  0  0  0  0  0
  -24.1260  -29.0920   24.6830 C   0  0  0  0  0  2  0  0  0  0  0  0
  -25.8080  -30.9900   24.5850 N   0  0  0  0  0  0  0  0  0  0  0  0
  -26.6370  -32.1070   26.3720 O   0  0  0  0  0  0  0  0  0  0  0  0
  -26.0800  -29.1000   26.2660 C   0  0  0  0  0  0  0  0  0  0  0  0
  -25.7240  -28.8130   27.5290 N   0  0  0  0  0  0  0  0  0  0  0  0
  -27.1080  -28.6580   25.7430 O   0  0  0  0  0  0  0  0  0  0  0  0
  -24.8680  -29.2150   27.8820 H   0  0  0  0  0  0  0  0  0  0  0  0
  -25.9820  -27.8280   30.9930 C   0  0  0  0  0  0  0  0  0  0  0  0
  -26.4670  -27.9630   28.4580 C   0  0  0  0  0  3  0  0  0  0  0  0
  -25.9760  -26.4990   28.3900 C   0  0  0  0  0  2  0  0  0  0  0  0
  -24.8800  -26.1840   29.4120 C   0  0  0  0  0  2  0  0  0  0  0  0
  -25.3840  -26.4410   30.8360 C   0  0  0  0  0  2  0  0  0  0  0  0
  -26.4750  -28.5490   29.8720 C   0  0  0  0  0  0  0  0  0  0  0  0
  -26.9870  -29.8490   30.0660 C   0  0  0  0  0  3  0  0  0  0  0  0
  -27.0150  -30.4280   31.3500 C   0  0  0  0  0  3  0  0  0  0  0  0
  -26.5440  -29.7030   32.4580 C   0  0  0  0  0  3  0  0  0  0  0  0
  -26.0340  -28.4040   32.2790 C   0  0  0  0  0  3  0  0  0  0  0  0
  -27.3300  -33.0160   24.2650 C   0  0  0  0  0  3  0  0  0  0  0  0
  -26.7430  -34.3380   24.5190 N   0  0  0  0  0  0  0  0  0  0  0  0
  -26.1300  -35.0880   23.5930 C   0  0  0  0  0  0  0  0  0  0  0  0
  -26.0670  -34.7630   22.4030 O   0  0  0  0  0  0  0  0  0  0  0  0
  -26.7080  -34.6420   25.4810 H   0  0  0  0  0  0  0  0  0  0  0  0
  -24.1040  -36.5630   23.4080 C   0  0  0  0  0  1  0  0  0  0  0  0
  -25.4870  -36.4060   24.0600 C   0  0  0  0  0  3  0  0  0  0  0  0
  -27.6070  -37.5830   24.4420 C   0  0  0  0  0  1  0  0  0  0  0  0
  -26.3110  -37.5990   23.7680 N   0  0  0  0  0  0  0  0  0  0  0  0
  -25.8230  -38.4480   24.0370 H   0  0  0  0  0  0  0  0  0  0  0  0
  -28.8840  -33.0320   24.5420 C   0  0  1  0  0  0  0  0  0  0  0  0
  -29.2720  -33.7160   25.8730 C   0  0  0  0  0  1  0  0  0  0  0  0
  -29.4470  -31.5910   24.5670 C   0  0  0  0  0  1  0  0  0  0  0  0
  -29.6130  -33.7720   23.3950 C   0  0  0  0  0  1  0  0  0  0  0  0
  1  2  1  0
  1  6  1  0
  1 52  1  0
  2  3  1  0
  4  2  1  0
  5  2  1  0
  7  6  1  0
  8  7  1  0
  8 47  1  0
  9 17  1  0
 10 15  1  0
 11 10  1  0
 11 12  1  0
 13 12  1  0
 13 14  1  0
 13 22  1  0
 15 14  1  0
 15  9  1  0
 16  9  2  0
 17 18  1  0
 17  8  1  0
 19 44  1  0
 20 19  2  0
 20 39  1  0
 21 20  1  0
 22 19  1  0
 23 21  2  0
 23 22  1  0
 24 21  1  0
 25 24  1  0
 26 25  2  0
 27 28  2  0
 27 26  1  0
 28 29  1  0
 29 24  2  0
 30 31  1  0
 30 27  1  0
 31 32  1  0
 32 33  2  0
 34 38  1  0
 34 33  1  0
 35 34  2  0
 36 35  1  0
 36 31  2  0
 37 36  1  0
 39 41  2  0
 40 39  1  0
 40 43  1  0
 42 40  1  0
 44 45  1  0
 46 44  1  0
 47 48  1  0
 49 50  1  0
 49 48  1  0
 51 49  2  0
 53 52  1  0
 53 54  1  0
 55 58  1  0
 55 54  1  0
 56 55  1  0
 57 55  1  0
 59 60  1  0
 59 58  1  0
 61 60  1  0
 61 63  1  0
 62 73  2  0
 63 68  2  0
 63 69  1  0
 64 74  1  0
 65 71  1  0
 66 72  1  0
 67 66  1  0
 67 65  2  0
 68 67  1  0
 69 70  2  0
 70 65  1  0
 71 64  1  0
 72 62  1  0
 72 64  1  0
 74 75  1  0
 75 77  1  0
 76 74  2  0
 78 87  1  0
 79 75  1  0
 79 83  1  0
 80 79  1  0
 80 81  1  0
 81 82  1  0
 82 78  1  0
 83 84  1  0
 83 78  2  0
 84 85  2  0
 85 86  1  0
 87 86  2  0
 88 89  1  0
 88 98  1  0
 88 62  1  0
 89 92  1  0
 90 94  1  0
 90 89  1  0
 91 90  2  0
 94 93  1  0
 96 97  1  0
 96 94  1  0
 96 95  1  0
 98100  1  1
 98 99  1  0
101 98  1  0
M  ISO  4   9 100  17 100  60 101  61 101
M  END
>  <TORSDO>  (63) 
F 30

>  <SCORE>  (63) 
-5.876

>  <name>  (63) 
62

>  <ligand_id>  (63) 
62

>  <original_smiles>  (63) 
[H]c1c([H])c([H])c2c(c1[H])C([H])([H])C([H])([H])C([H])([H])C2([H])N([H])C(=O)C1([H])N(C(=O)C([H])(N([H])C(=O)C([H])(N([H])C([H])([H])[H])C([H])([H])[H])C(C([H])([H])[H])(C([H])([H])[H])C([H])([H])[H])C([H])([H])c2c([H])c(OC([H])([H])C([H])([H])C([H])([H])[N+]([H])([H])C([H])([H])C([H])([H])C([H])([H])C([H])(C([H])([H])C([H])([H])C([H])(N([H])C(=O)N3C([H])([H])C([H])([H])C([H])([H])C([H])(n4nc(-c5c([H])c([H])c(Oc6c([H])c([H])c(F)c([H])c6F)c([H])c5[H])c(C(=O)N([H])[H])c4N([H])[H])C3([H])[H])C([H])([H])C([H])([H])C(=O)C([H])([H])[H])[N+]([H])([H])[H])c([H])c([H])c2C1([H])[H]

>  <smiles>  (63) 
[H]c1c([H])c([H])c2c(c1[H])C([H])([H])C([H])([H])C([H])([H])C2([H])N([H])C(=O)C1([H])N(C(=O)C([H])(N([H])C(=O)C([H])(N([H])C([H])([H])[H])C([H])([H])[H])C(C([H])([H])[H])(C([H])([H])[H])C([H])([H])[H])C([H])([H])c2c([H])c(OC([H])([H])C([H])([H])C([H])([H])[N+]([H])([H])C([H])([H])C([H])([H])C([H])([H])C([H])(C([H])([H])C([H])([H])C([H])(N([H])C(=O)N3C([H])([H])C([H])([H])C([H])([H])C([H])(n4nc(-c5c([H])c([H])c(Oc6c([H])c([H])c(F)c([H])c6F)c([H])c5[H])c(C(=O)N([H])[H])c4N([H])[H])C3([H])[H])C([H])([H])C([H])([H])C(=O)C([H])([H])[H])[N+]([H])([H])[H])c([H])c([H])c2C1([H])[H]

$$$$
63:0:0
     RDKit          3D

 97106  0  0  1  0  0  0  0  0999 V2000
  -27.8200  -22.5820   20.1320 C   0  0  0  0  0  0  0  0  0  0  0  0
  -25.3450  -24.1350   21.6820 C   0  0  0  0  0  2  0  0  0  0  0  0
  -26.1190  -25.2190   20.9140 C   0  0  0  0  0  2  0  0  0  0  0  0
  -25.9860  -21.6290   21.3140 C   0  0  0  0  0  2  0  0  0  0  0  0
  -27.6940  -23.4430   21.3940 C   0  0  0  0  0  3  0  0  0  0  0  0
  -27.1350  -21.2500   20.3630 C   0  0  0  0  0  3  0  0  0  0  0  0
  -26.3440  -22.9860   21.9720 C   0  0  0  0  0  3  0  0  0  0  0  0
  -27.5940  -24.9790   21.2580 C   0  0  0  0  0  3  0  0  0  0  0  0
  -28.4440  -22.9030   19.1170 O   0  0  0  0  0  0  0  0  0  0  0  0
  -28.1420  -20.3810   21.0130 N   0  0  0  0  0  4  0  0  0  0  0  0
  -27.6750  -19.7330   21.6270 H   0  0  0  0  0  0  0  0  0  0  0  0
  -28.7470  -20.9640   21.5690 H   0  0  0  0  0  0  0  0  0  0  0  0
  -28.9580  -19.6020   20.0600 C   0  0  0  0  0  2  0  0  0  0  0  0
  -30.3590  -19.2880   20.6110 C   0  0  0  0  0  2  0  0  0  0  0  0
  -30.8430  -17.9390   20.0820 C   0  0  0  0  0  2  0  0  0  0  0  0
  -32.2370  -17.4990   20.5640 C   0  0  0  0  0  2  0  0  0  0  0  0
  -32.4560  -15.2180   19.6240 C   0  0  0  0  0  0  0  0  0  0  0  0
  -32.0260  -12.8870   18.9420 C   0  0  0  0  0  2  0  0  0  0  0  0
  -31.0460  -12.7520   17.7650 C   0  0  0  0  0  2  0  0  0  0  0  0
  -29.5850  -12.7790   18.2490 C   0  0  0  0  0  2  0  0  0  0  0  0
  -29.2960  -13.9700   19.1930 C   0  0  0  0  0  3  0  0  0  0  0  0
  -30.3570  -14.0320   20.3150 C   0  0  0  0  0  2  0  0  0  0  0  0
  -31.7060  -14.0970   19.7080 N   0  0  0  0  0  0  0  0  0  0  0  0
  -33.3280  -15.4240   18.7730 O   0  0  0  0  0  0  0  0  0  0  0  0
  -32.2280  -16.0510   20.6410 N   0  0  0  0  0  0  0  0  0  0  0  0
  -31.6590  -15.6580   21.3790 H   0  0  0  0  0  0  0  0  0  0  0  0
  -27.0580  -14.9220   20.0670 C   0  0  0  0  0  0  0  0  0  0  0  0
  -25.9020  -14.3080   20.4710 C   0  0  0  0  0  0  0  0  0  0  0  0
  -26.1440  -12.9050   20.3630 C   0  0  0  0  0  0  0  0  0  0  0  0
  -27.9390  -13.9020   19.7380 N   0  0  0  0  0  0  0  0  0  0  0  0
  -27.3890  -12.6810   19.9660 N   0  0  0  0  0  0  0  0  0  0  0  0
  -25.2460  -11.7590   20.5550 C   0  0  0  0  0  0  0  0  0  0  0  0
  -25.5090  -10.7610   21.5210 C   0  0  0  0  0  3  0  0  0  0  0  0
  -24.6160   -9.6810   21.6960 C   0  0  0  0  0  3  0  0  0  0  0  0
  -23.4460   -9.5920   20.9050 C   0  0  0  0  0  0  0  0  0  0  0  0
  -23.2010  -10.5770   19.9320 C   0  0  0  0  0  3  0  0  0  0  0  0
  -24.0920  -11.6470   19.7550 C   0  0  0  0  0  3  0  0  0  0  0  0
  -22.5390   -8.5650   20.9860 O   0  0  0  0  0  0  0  0  0  0  0  0
  -22.2550   -7.9490   22.1790 C   0  0  0  0  0  0  0  0  0  0  0  0
  -21.7530   -8.6680   23.2860 C   0  0  0  0  0  3  0  0  0  0  0  0
  -21.4100   -7.9850   24.4710 C   0  0  0  0  0  3  0  0  0  0  0  0
  -21.5560   -6.5870   24.5470 C   0  0  0  0  0  0  0  0  0  0  0  0
  -22.0520   -5.8710   23.4450 C   0  0  0  0  0  3  0  0  0  0  0  0
  -22.3960   -6.5490   22.2600 C   0  0  0  0  0  0  0  0  0  0  0  0
  -22.8500   -5.8510   21.1930 F   0  0  0  0  0  0  0  0  0  0  0  0
  -21.2220   -5.9310   25.6830 F   0  0  0  0  0  0  0  0  0  0  0  0
  -24.6100  -14.9820   20.8410 C   0  0  0  0  0  0  0  0  0  0  0  0
  -23.8340  -14.3770   21.7360 N   0  0  0  0  0  0  0  0  0  0  0  0
  -24.3030  -16.0760   20.3700 O   0  0  0  0  0  0  0  0  0  0  0  0
  -24.0960  -13.4880   22.1350 H   0  0  0  0  0  0  0  0  0  0  0  0
  -22.9690  -14.8140   22.0250 H   0  0  0  0  0  0  0  0  0  0  0  0
  -27.4260  -16.2580   19.9360 N   0  0  0  0  0  0  0  0  0  0  0  0
  -26.7810  -17.0110   20.1420 H   0  0  0  0  0  0  0  0  0  0  0  0
  -28.3010  -16.5760   19.5370 H   0  0  0  0  0  0  0  0  0  0  0  0
  -28.6450  -25.6410   20.3290 C   0  0  0  0  0  2  0  0  0  0  0  0
  -28.9210  -27.1400   20.5660 C   0  0  0  0  0  2  0  0  0  0  0  0
  -28.5640  -27.8950   19.4080 O   0  0  0  0  0  0  0  0  0  0  0  0
  -24.6090  -31.9990   23.6070 C   0  0  0  0  0  0  0  0  0  0  0  0
  -27.3810  -28.5570   19.5650 C   0  0  0  0  0  0  0  0  0  0  0  0
  -23.4240  -30.9260   21.7160 C   0  0  0  0  0  3  0  0  0  0  0  0
  -24.9090  -29.8380   19.9510 C   0  0  0  0  0  0  0  0  0  0  0  0
  -25.9090  -31.4890   21.5470 C   0  0  0  0  0  2  0  0  0  0  0  0
  -26.0490  -30.3050   20.6190 C   0  0  0  0  0  0  0  0  0  0  0  0
  -27.2930  -29.6720   20.4230 C   0  0  0  0  0  3  0  0  0  0  0  0
  -26.2370  -28.1030   18.8840 C   0  0  0  0  0  3  0  0  0  0  0  0
  -24.9950  -28.7340   19.0810 C   0  0  0  0  0  3  0  0  0  0  0  0
  -23.6210  -30.5840   20.2140 C   0  0  0  0  0  2  0  0  0  0  0  0
  -24.6660  -31.4740   22.3500 N   0  0  0  0  0  0  0  0  0  0  0  0
  -23.5350  -32.0750   24.2190 O   0  0  0  0  0  0  0  0  0  0  0  0
  -22.8670  -29.6780   22.4370 C   0  0  0  0  0  0  0  0  0  0  0  0
  -21.5610  -29.4180   22.2580 N   0  0  0  0  0  0  0  0  0  0  0  0
  -23.6040  -28.9560   23.1140 O   0  0  0  0  0  0  0  0  0  0  0  0
  -21.0240  -30.0620   21.6940 H   0  0  0  0  0  0  0  0  0  0  0  0
  -18.3140  -27.8450   22.3920 C   0  0  0  0  0  0  0  0  0  0  0  0
  -20.8280  -28.2800   22.8080 C   0  0  0  0  0  3  0  0  0  0  0  0
  -21.0830  -27.0000   21.9780 C   0  0  0  0  0  2  0  0  0  0  0  0
  -20.0390  -26.7800   20.8790 C   0  0  0  0  0  2  0  0  0  0  0  0
  -18.6360  -26.6720   21.4830 C   0  0  0  0  0  2  0  0  0  0  0  0
  -19.3440  -28.6100   23.0030 C   0  0  0  0  0  0  0  0  0  0  0  0
  -18.9900  -29.7120   23.8110 C   0  0  0  0  0  3  0  0  0  0  0  0
  -17.6390  -30.0510   24.0150 C   0  0  0  0  0  3  0  0  0  0  0  0
  -16.6230  -29.2830   23.4200 C   0  0  0  0  0  3  0  0  0  0  0  0
  -16.9620  -28.1810   22.6160 C   0  0  0  0  0  3  0  0  0  0  0  0
  -25.8810  -32.5520   24.3210 C   0  0  0  0  0  3  0  0  0  0  0  0
  -25.5600  -33.8980   24.8160 N   0  0  0  0  0  0  0  0  0  0  0  0
  -25.9240  -35.0360   24.2100 C   0  0  0  0  0  0  0  0  0  0  0  0
  -26.6380  -35.0600   23.2040 O   0  0  0  0  0  0  0  0  0  0  0  0
  -24.9320  -33.9520   25.6040 H   0  0  0  0  0  0  0  0  0  0  0  0
  -24.2150  -36.8670   24.0030 C   0  0  0  0  0  1  0  0  0  0  0  0
  -25.4160  -36.3570   24.8160 C   0  0  0  0  0  3  0  0  0  0  0  0
  -27.5130  -37.1100   25.8480 C   0  0  0  0  0  1  0  0  0  0  0  0
  -26.4540  -37.4080   24.8870 N   0  0  0  0  0  0  0  0  0  0  0  0
  -26.0440  -38.3050   25.1330 H   0  0  0  0  0  0  0  0  0  0  0  0
  -26.3850  -31.6290   25.4980 C   0  0  1  0  0  0  0  0  0  0  0  0
  -25.2780  -31.2440   26.5060 C   0  0  0  0  0  1  0  0  0  0  0  0
  -26.9890  -30.3200   24.9410 C   0  0  0  0  0  1  0  0  0  0  0  0
  -27.5160  -32.3400   26.2790 C   0  0  0  0  0  1  0  0  0  0  0  0
  1  6  1  0
  2  7  1  0
  3  8  1  0
  3  2  1  0
  5  1  1  0
  5  7  1  0
  6 10  1  0
  6  4  1  0
  7  4  1  0
  8 55  1  0
  8  5  1  0
  9  1  2  0
 10 12  1  0
 10 11  1  0
 13 14  1  0
 13 10  1  0
 15 16  1  0
 15 14  1  0
 16 25  1  0
 17 23  1  0
 17 25  1  0
 18 23  1  0
 19 20  1  0
 19 18  1  0
 21 20  1  0
 21 30  1  0
 21 22  1  0
 23 22  1  0
 24 17  2  0
 25 26  1  0
 27 28  2  0
 28 47  1  0
 29 28  1  0
 29 32  1  0
 30 31  1  0
 30 27  1  0
 31 29  2  0
 32 33  1  0
 33 34  2  0
 35 38  1  0
 35 34  1  0
 36 35  2  0
 37 36  1  0
 37 32  2  0
 38 39  1  0
 39 44  2  0
 39 40  1  0
 40 41  2  0
 41 42  1  0
 42 46  1  0
 43 42  2  0
 44 43  1  0
 45 44  1  0
 47 48  1  0
 48 51  1  0
 48 50  1  0
 49 47  2  0
 52 27  1  0
 52 53  1  0
 54 52  1  0
 55 56  1  0
 57 59  1  0
 57 56  1  0
 58 69  2  0
 59 64  1  0
 60 68  1  0
 60 70  1  0
 61 67  1  0
 61 63  1  0
 62 68  1  0
 63 62  1  0
 64 63  2  0
 65 66  1  0
 65 59  2  0
 66 61  2  0
 67 60  1  0
 68 58  1  0
 70 72  2  0
 71 70  1  0
 73 71  1  0
 74 83  2  0
 74 79  1  0
 75 71  1  0
 75 79  1  0
 76 75  1  0
 77 78  1  0
 77 76  1  0
 78 74  1  0
 79 80  2  0
 80 81  1  0
 82 81  2  0
 83 82  1  0
 84 58  1  0
 84 85  1  0
 84 94  1  0
 85 88  1  0
 86 85  1  0
 86 90  1  0
 87 86  2  0
 90 89  1  0
 90 92  1  0
 92 93  1  0
 92 91  1  0
 94 97  1  1
 94 95  1  0
 96 94  1  0
M  ISO  4  17 100  25 100  56 101  57 101
M  END
>  <TORSDO>  (64) 
F 23

>  <SCORE>  (64) 
-5.037

>  <name>  (64) 
63

>  <ligand_id>  (64) 
63

>  <original_smiles>  (64) 
[H]c1c([H])c([H])c2c(c1[H])C([H])([H])C([H])([H])C([H])([H])C2([H])N([H])C(=O)C1([H])N(C(=O)C([H])(N([H])C(=O)C([H])(N([H])C([H])([H])[H])C([H])([H])[H])C(C([H])([H])[H])(C([H])([H])[H])C([H])([H])[H])C([H])([H])c2c([H])c(OC([H])([H])C([H])([H])C3([H])C([H])([H])C([H])([H])C4([H])C([H])([H])C([H])([N+]([H])([H])C([H])([H])C([H])([H])C([H])([H])C([H])([H])N([H])C(=O)N5C([H])([H])C([H])([H])C([H])([H])C([H])(n6nc(-c7c([H])c([H])c(Oc8c([H])c([H])c(F)c([H])c8F)c([H])c7[H])c(C(=O)N([H])[H])c6N([H])[H])C5([H])[H])C(=O)C34[H])c([H])c([H])c2C1([H])[H]

>  <smiles>  (64) 
[H]c1c([H])c([H])c2c(c1[H])C([H])([H])C([H])([H])C([H])([H])C2([H])N([H])C(=O)C1([H])N(C(=O)C([H])(N([H])C(=O)C([H])(N([H])C([H])([H])[H])C([H])([H])[H])C(C([H])([H])[H])(C([H])([H])[H])C([H])([H])[H])C([H])([H])c2c([H])c(OC([H])([H])C([H])([H])C3([H])C([H])([H])C([H])([H])C4([H])C([H])([H])C([H])([N+]([H])([H])C([H])([H])C([H])([H])C([H])([H])C([H])([H])N([H])C(=O)N5C([H])([H])C([H])([H])C([H])([H])C([H])(n6nc(-c7c([H])c([H])c(Oc8c([H])c([H])c(F)c([H])c8F)c([H])c7[H])c(C(=O)N([H])[H])c6N([H])[H])C5([H])[H])C(=O)C34[H])c([H])c([H])c2C1([H])[H]

$$$$
64:0:0
     RDKit          3D

 95104  0  0  1  0  0  0  0  0999 V2000
  -29.3660  -22.7170   21.5630 C   0  0  0  0  0  2  0  0  0  0  0  0
  -26.8640  -23.0270   21.5420 C   0  0  0  0  0  2  0  0  0  0  0  0
  -29.0240  -22.8060   19.1720 C   0  0  0  0  0  2  0  0  0  0  0  0
  -28.2020  -23.8210   21.6930 C   0  0  0  0  0  3  0  0  0  0  0  0
  -27.7950  -23.8200   19.4180 C   0  0  0  0  0  3  0  0  0  0  0  0
  -29.2450  -21.7360   20.3310 C   0  0  0  0  0  3  0  0  0  0  0  0
  -26.5720  -23.0170   20.0040 C   0  0  0  0  0  3  0  0  0  0  0  0
  -27.9780  -24.9070   20.5440 C   0  0  0  0  0  3  0  0  0  0  0  0
  -28.3690  -26.3900   20.3730 O   0  0  0  0  0  0  0  0  0  0  0  0
  -24.7790  -31.9430   23.4310 C   0  0  0  0  0  0  0  0  0  0  0  0
  -27.3300  -27.3890   20.2710 C   0  0  0  0  0  0  0  0  0  0  0  0
  -23.5730  -30.6330   21.7250 C   0  0  0  0  0  3  0  0  0  0  0  0
  -25.0160  -29.1350   20.2290 C   0  0  0  0  0  0  0  0  0  0  0  0
  -26.1250  -30.9140   21.5750 C   0  0  0  0  0  2  0  0  0  0  0  0
  -26.1920  -29.5590   20.8650 C   0  0  0  0  0  0  0  0  0  0  0  0
  -27.3580  -28.7090   20.8540 C   0  0  0  0  0  3  0  0  0  0  0  0
  -26.1350  -27.0560   19.6000 C   0  0  0  0  0  3  0  0  0  0  0  0
  -24.9990  -27.8950   19.5770 C   0  0  0  0  0  3  0  0  0  0  0  0
  -23.7850  -30.0260   20.3110 C   0  0  0  0  0  2  0  0  0  0  0  0
  -24.8440  -31.1830   22.3000 N   0  0  0  0  0  0  0  0  0  0  0  0
  -23.6890  -32.2120   23.9560 O   0  0  0  0  0  0  0  0  0  0  0  0
  -22.8830  -29.5860   22.6390 C   0  0  0  0  0  0  0  0  0  0  0  0
  -21.5670  -29.3880   22.4680 N   0  0  0  0  0  0  0  0  0  0  0  0
  -23.5440  -28.9490   23.4650 O   0  0  0  0  0  0  0  0  0  0  0  0
  -21.1100  -29.8910   21.7210 H   0  0  0  0  0  0  0  0  0  0  0  0
  -18.1750  -28.2480   22.8290 C   0  0  0  0  0  0  0  0  0  0  0  0
  -20.7180  -28.4690   23.2230 C   0  0  0  0  0  3  0  0  0  0  0  0
  -20.7940  -27.0340   22.6740 C   0  0  0  0  0  2  0  0  0  0  0  0
  -19.8140  -26.8100   21.5210 C   0  0  0  0  0  2  0  0  0  0  0  0
  -18.3680  -26.9610   22.0420 C   0  0  0  0  0  2  0  0  0  0  0  0
  -19.2780  -28.9810   23.3450 C   0  0  0  0  0  0  0  0  0  0  0  0
  -19.0480  -30.2140   23.9890 C   0  0  0  0  0  3  0  0  0  0  0  0
  -17.7340  -30.7130   24.1500 C   0  0  0  0  0  3  0  0  0  0  0  0
  -16.6450  -29.9740   23.6530 C   0  0  0  0  0  3  0  0  0  0  0  0
  -16.8680  -28.7440   23.0040 C   0  0  0  0  0  3  0  0  0  0  0  0
  -26.0560  -32.5240   24.1060 C   0  0  0  0  0  3  0  0  0  0  0  0
  -25.7830  -33.9310   24.4420 N   0  0  0  0  0  0  0  0  0  0  0  0
  -26.1450  -34.9850   23.7030 C   0  0  0  0  0  0  0  0  0  0  0  0
  -26.8170  -34.8690   22.6730 O   0  0  0  0  0  0  0  0  0  0  0  0
  -25.1880  -34.0960   25.2380 H   0  0  0  0  0  0  0  0  0  0  0  0
  -24.4640  -36.8260   23.3790 C   0  0  0  0  0  1  0  0  0  0  0  0
  -25.7020  -36.3830   24.1730 C   0  0  0  0  0  3  0  0  0  0  0  0
  -27.8670  -37.2060   24.9890 C   0  0  0  0  0  1  0  0  0  0  0  0
  -26.7620  -37.4070   24.0550 N   0  0  0  0  0  0  0  0  0  0  0  0
  -26.3840  -38.3370   24.2080 H   0  0  0  0  0  0  0  0  0  0  0  0
  -26.5110  -31.7190   25.3830 C   0  0  1  0  0  0  0  0  0  0  0  0
  -25.3830  -31.4890   26.4140 C   0  0  0  0  0  1  0  0  0  0  0  0
  -27.0820  -30.3380   24.9810 C   0  0  0  0  0  1  0  0  0  0  0  0
  -27.6520  -32.4790   26.0920 C   0  0  0  0  0  1  0  0  0  0  0  0
  -30.2830  -20.4670   20.2020 C   0  0  0  0  0  2  0  0  0  0  0  0
  -29.7730  -18.9470   20.5730 C   0  0  0  0  0  3  0  0  0  0  0  0
  -30.5870  -17.5790   20.1690 C   0  0  0  0  0  3  0  0  0  0  0  0
  -30.8830  -14.9870   20.3320 C   0  0  0  0  0  0  0  0  0  0  0  0
  -30.6850  -12.6810   19.3680 C   0  0  0  0  0  2  0  0  0  0  0  0
  -29.7510  -12.7400   18.1370 C   0  0  0  0  0  2  0  0  0  0  0  0
  -28.2820  -12.5530   18.5670 C   0  0  0  0  0  2  0  0  0  0  0  0
  -27.9060  -13.4390   19.7840 C   0  0  0  0  0  3  0  0  0  0  0  0
  -28.9700  -13.3820   20.9040 C   0  0  0  0  0  2  0  0  0  0  0  0
  -30.2570  -13.7530   20.3060 N   0  0  0  0  0  0  0  0  0  0  0  0
  -32.0340  -15.0750   19.8930 O   0  0  0  0  0  0  0  0  0  0  0  0
  -30.1780  -16.1520   20.6140 N   0  0  0  0  0  0  0  0  0  0  0  0
  -29.2260  -16.0250   20.9470 H   0  0  0  0  0  0  0  0  0  0  0  0
  -25.5260  -14.0000   20.5500 C   0  0  0  0  0  0  0  0  0  0  0  0
  -24.4560  -13.2090   20.8810 C   0  0  0  0  0  0  0  0  0  0  0  0
  -24.9190  -11.8580   20.7960 C   0  0  0  0  0  0  0  0  0  0  0  0
  -26.5650  -13.1270   20.2720 N   0  0  0  0  0  0  0  0  0  0  0  0
  -26.2080  -11.8320   20.4840 N   0  0  0  0  0  0  0  0  0  0  0  0
  -24.1900  -10.5890   20.9410 C   0  0  0  0  0  0  0  0  0  0  0  0
  -24.5830   -9.6180   21.8870 C   0  0  0  0  0  3  0  0  0  0  0  0
  -23.8540   -8.4170   22.0280 C   0  0  0  0  0  3  0  0  0  0  0  0
  -22.7150   -8.1790   21.2220 C   0  0  0  0  0  0  0  0  0  0  0  0
  -22.3410   -9.1400   20.2700 C   0  0  0  0  0  3  0  0  0  0  0  0
  -23.0700  -10.3320   20.1270 C   0  0  0  0  0  3  0  0  0  0  0  0
  -21.9660   -7.0250   21.2690 O   0  0  0  0  0  0  0  0  0  0  0  0
  -21.8070   -6.3170   22.4320 C   0  0  0  0  0  0  0  0  0  0  0  0
  -21.2550   -6.9050   23.5930 C   0  0  0  0  0  3  0  0  0  0  0  0
  -21.0460   -6.1220   24.7460 C   0  0  0  0  0  3  0  0  0  0  0  0
  -21.3710   -4.7530   24.7350 C   0  0  0  0  0  0  0  0  0  0  0  0
  -21.9180   -4.1650   23.5830 C   0  0  0  0  0  3  0  0  0  0  0  0
  -22.1290   -4.9440   22.4300 C   0  0  0  0  0  0  0  0  0  0  0  0
  -22.6320   -4.3700   21.3120 F   0  0  0  0  0  0  0  0  0  0  0  0
  -21.1630   -3.9980   25.8410 F   0  0  0  0  0  0  0  0  0  0  0  0
  -23.0640  -13.6780   21.1800 C   0  0  0  0  0  0  0  0  0  0  0  0
  -22.3410  -12.9490   22.0300 N   0  0  0  0  0  0  0  0  0  0  0  0
  -22.6220  -14.7210   20.7060 O   0  0  0  0  0  0  0  0  0  0  0  0
  -22.7090  -12.1020   22.4340 H   0  0  0  0  0  0  0  0  0  0  0  0
  -21.4100  -13.2480   22.2770 H   0  0  0  0  0  0  0  0  0  0  0  0
  -25.6980  -15.3720   20.4360 N   0  0  0  0  0  0  0  0  0  0  0  0
  -24.9600  -16.0350   20.6460 H   0  0  0  0  0  0  0  0  0  0  0  0
  -26.5790  -15.8220   20.2200 H   0  0  0  0  0  0  0  0  0  0  0  0
  -25.1860  -23.6000   19.6190 C   0  0  0  0  0  2  0  0  0  0  0  0
  -24.1140  -22.5820   19.1540 C   0  0  0  0  0  2  0  0  0  0  0  0
  -22.9480  -23.2840   18.4510 C   0  0  0  0  0  0  0  0  0  0  0  0
  -22.6230  -22.8990   17.0110 C   0  0  0  0  0  1  0  0  0  0  0  0
  -22.3030  -24.1650   19.0200 O   0  0  0  0  0  0  0  0  0  0  0  0
  1  4  1  0
  3  6  1  0
  4  2  1  0
  5  3  1  0
  5  7  1  0
  5  8  1  0
  6 50  1  0
  6  1  1  0
  7 91  1  0
  7  2  1  0
  8  9  1  0
  8  4  1  0
 10 21  2  0
 11  9  1  0
 11 16  1  0
 12 20  1  0
 12 22  1  0
 13 19  1  0
 13 15  1  0
 14 20  1  0
 15 14  1  0
 16 15  2  0
 17 11  2  0
 18 17  1  0
 18 13  2  0
 19 12  1  0
 20 10  1  0
 22 24  2  0
 23 22  1  0
 25 23  1  0
 26 35  2  0
 26 31  1  0
 27 23  1  0
 27 31  1  0
 28 27  1  0
 29 30  1  0
 29 28  1  0
 30 26  1  0
 31 32  2  0
 32 33  1  0
 34 33  2  0
 35 34  1  0
 36 10  1  0
 36 37  1  0
 36 46  1  0
 37 40  1  0
 38 42  1  0
 38 37  1  0
 39 38  2  0
 42 41  1  0
 44 42  1  0
 44 45  1  0
 44 43  1  0
 46 49  1  1
 46 47  1  0
 48 46  1  0
 50 51  1  0
 52 51  2  0
 52 61  1  0
 53 61  1  0
 54 59  1  0
 55 56  1  0
 55 54  1  0
 57 56  1  0
 57 66  1  0
 57 58  1  0
 59 53  1  0
 59 58  1  0
 60 53  2  0
 61 62  1  0
 63 64  2  0
 64 83  1  0
 65 64  1  0
 65 68  1  0
 66 67  1  0
 66 63  1  0
 67 65  2  0
 68 69  1  0
 69 70  2  0
 71 74  1  0
 71 70  1  0
 72 71  2  0
 73 72  1  0
 73 68  2  0
 74 75  1  0
 75 76  1  0
 76 77  2  0
 78 77  1  0
 78 82  1  0
 79 78  2  0
 80 75  2  0
 80 79  1  0
 81 80  1  0
 83 84  1  0
 84 87  1  0
 84 86  1  0
 85 83  2  0
 88 63  1  0
 88 89  1  0
 90 88  1  0
 92 91  1  0
 93 95  2  0
 93 92  1  0
 94 93  1  0
M  ISO  4   8 101   9 101  53 100  61 100
M  END
>  <TORSDO>  (65) 
F 22

>  <SCORE>  (65) 
-12.975

>  <name>  (65) 
64

>  <ligand_id>  (65) 
64

>  <original_smiles>  (65) 
[H]c1c([H])c([H])c2c(c1[H])C([H])([H])C([H])([H])C([H])([H])C2([H])N([H])C(=O)C1([H])N(C(=O)C([H])(N([H])C(=O)C([H])(N([H])C([H])([H])[H])C([H])([H])[H])C(C([H])([H])[H])(C([H])([H])[H])C([H])([H])[H])C([H])([H])c2c([H])c(OC3([H])C4([H])C([H])([H])C([H])(C([H])([H])C([H])([H])C([H])([H])N([H])C(=O)N5C([H])([H])C([H])([H])C([H])([H])C([H])(n6nc(-c7c([H])c([H])c(Oc8c([H])c([H])c(F)c([H])c8F)c([H])c7[H])c(C(=O)N([H])[H])c6N([H])[H])C5([H])[H])C([H])([H])C3([H])C([H])(C([H])([H])C([H])([H])C(=O)C([H])([H])[H])C4([H])[H])c([H])c([H])c2C1([H])[H]

>  <smiles>  (65) 
[H]c1c([H])c([H])c2c(c1[H])C([H])([H])C([H])([H])C([H])([H])C2([H])N([H])C(=O)C1([H])N(C(=O)C([H])(N([H])C(=O)C([H])(N([H])C([H])([H])[H])C([H])([H])[H])C(C([H])([H])[H])(C([H])([H])[H])C([H])([H])[H])C([H])([H])c2c([H])c(OC3([H])C4([H])C([H])([H])C([H])(C([H])([H])C([H])([H])C([H])([H])N([H])C(=O)N5C([H])([H])C([H])([H])C([H])([H])C([H])(n6nc(-c7c([H])c([H])c(Oc8c([H])c([H])c(F)c([H])c8F)c([H])c7[H])c(C(=O)N([H])[H])c6N([H])[H])C5([H])[H])C([H])([H])C3([H])C([H])(C([H])([H])C([H])([H])C(=O)C([H])([H])[H])C4([H])[H])c([H])c([H])c2C1([H])[H]

$$$$
65:0:0
     RDKit          3D

 96104  0  0  1  0  0  0  0  0999 V2000
  -27.3560  -22.4800   19.4080 C   0  0  0  0  0  2  0  0  0  0  0  0
  -27.2790  -21.0750   20.0190 C   0  0  0  0  0  2  0  0  0  0  0  0
  -29.8410  -22.5190   20.0250 C   0  0  0  0  0  2  0  0  0  0  0  0
  -28.7800  -22.8290   18.9270 C   0  0  0  0  0  3  0  0  0  0  0  0
  -28.2660  -20.9400   21.2000 C   0  0  0  0  0  3  0  0  0  0  0  0
  -29.7610  -21.1160   20.7600 C   0  0  2  0  0  0  0  0  0  0  0  0
  -28.0120  -19.7160   21.9810 N   0  0  0  0  0  4  0  0  0  0  0  0
  -28.6080  -19.6870   22.7900 H   0  0  0  0  0  0  0  0  0  0  0  0
  -28.1750  -18.8930   21.4280 H   0  0  0  0  0  0  0  0  0  0  0  0
  -27.0600  -19.7030   22.3040 H   0  0  0  0  0  0  0  0  0  0  0  0
  -30.5850  -22.3850   22.9660 C   0  0  0  0  0  1  0  0  0  0  0  0
  -30.7050  -21.1810   22.0070 C   0  0  0  0  0  2  0  0  0  0  0  0
  -28.8400  -24.2740   18.3030 C   0  0  0  0  0  2  0  0  0  0  0  0
  -28.4360  -25.4950   19.1890 C   0  0  0  0  0  2  0  0  0  0  0  0
  -28.3490  -26.7510   18.4610 O   0  0  0  0  0  0  0  0  0  0  0  0
  -24.6720  -31.2880   22.5770 C   0  0  0  0  0  0  0  0  0  0  0  0
  -27.1830  -27.4770   18.6400 C   0  0  0  0  0  0  0  0  0  0  0  0
  -23.3800  -30.1080   20.8310 C   0  0  0  0  0  3  0  0  0  0  0  0
  -24.7590  -28.8840   19.0640 C   0  0  0  0  0  0  0  0  0  0  0  0
  -25.8700  -30.6020   20.4980 C   0  0  0  0  0  2  0  0  0  0  0  0
  -25.9470  -29.3540   19.6360 C   0  0  0  0  0  0  0  0  0  0  0  0
  -27.1640  -28.6620   19.4180 C   0  0  0  0  0  3  0  0  0  0  0  0
  -25.9770  -27.0390   18.0500 C   0  0  0  0  0  3  0  0  0  0  0  0
  -24.7690  -27.7280   18.2660 C   0  0  0  0  0  3  0  0  0  0  0  0
  -23.4960  -29.6690   19.3460 C   0  0  0  0  0  2  0  0  0  0  0  0
  -24.6640  -30.6730   21.3600 N   0  0  0  0  0  0  0  0  0  0  0  0
  -23.6320  -31.4200   23.2360 O   0  0  0  0  0  0  0  0  0  0  0  0
  -22.8470  -28.9180   21.6620 C   0  0  0  0  0  0  0  0  0  0  0  0
  -21.5250  -28.6950   21.6110 N   0  0  0  0  0  0  0  0  0  0  0  0
  -23.6180  -28.2040   22.3090 O   0  0  0  0  0  0  0  0  0  0  0  0
  -20.9610  -29.3280   21.0610 H   0  0  0  0  0  0  0  0  0  0  0  0
  -18.2510  -27.2550   22.1320 C   0  0  0  0  0  0  0  0  0  0  0  0
  -20.8070  -27.6110   22.2800 C   0  0  0  0  0  3  0  0  0  0  0  0
  -20.9350  -26.2890   21.4890 C   0  0  0  0  0  2  0  0  0  0  0  0
  -19.7800  -26.0590   20.5080 C   0  0  0  0  0  2  0  0  0  0  0  0
  -18.4410  -26.0300   21.2520 C   0  0  0  0  0  2  0  0  0  0  0  0
  -19.3620  -28.0050   22.6020 C   0  0  0  0  0  0  0  0  0  0  0  0
  -19.1280  -29.1540   23.3870 C   0  0  0  0  0  3  0  0  0  0  0  0
  -17.8170  -29.5530   23.7070 C   0  0  0  0  0  3  0  0  0  0  0  0
  -16.7220  -28.7980   23.2540 C   0  0  0  0  0  3  0  0  0  0  0  0
  -16.9400  -27.6510   22.4720 C   0  0  0  0  0  3  0  0  0  0  0  0
  -25.9840  -31.8730   23.1850 C   0  0  0  0  0  3  0  0  0  0  0  0
  -26.6950  -30.8870   24.1920 C   0  0  1  0  0  0  0  0  0  0  0  0
  -25.7560  -30.3390   25.2920 C   0  0  0  0  0  1  0  0  0  0  0  0
  -27.2970  -29.6780   23.4400 C   0  0  0  0  0  1  0  0  0  0  0  0
  -27.8740  -31.6070   24.8870 C   0  0  0  0  0  1  0  0  0  0  0  0
  -25.6370  -33.1350   23.8520 N   0  0  0  0  0  0  0  0  0  0  0  0
  -25.8550  -34.3510   23.3360 C   0  0  0  0  0  0  0  0  0  0  0  0
  -26.4420  -34.5290   22.2650 O   0  0  0  0  0  0  0  0  0  0  0  0
  -25.1030  -33.0630   24.7050 H   0  0  0  0  0  0  0  0  0  0  0  0
  -24.0270  -36.0700   23.5160 C   0  0  0  0  0  1  0  0  0  0  0  0
  -25.3400  -35.5630   24.1360 C   0  0  0  0  0  3  0  0  0  0  0  0
  -27.4860  -36.3560   25.0260 C   0  0  0  0  0  1  0  0  0  0  0  0
  -26.3140  -36.6740   24.2150 N   0  0  0  0  0  0  0  0  0  0  0  0
  -25.8780  -37.5080   24.5970 H   0  0  0  0  0  0  0  0  0  0  0  0
  -30.2950  -19.9410   19.8260 C   0  0  0  0  0  3  0  0  0  0  0  0
  -30.2300  -18.4470   20.3300 C   0  0  0  0  0  3  0  0  0  0  0  0
  -31.0210  -17.3840   19.5110 C   0  0  0  0  0  2  0  0  0  0  0  0
  -31.4590  -14.8990   19.5840 C   0  0  0  0  0  0  0  0  0  0  0  0
  -31.1020  -12.6100   18.7450 C   0  0  0  0  0  2  0  0  0  0  0  0
  -30.0760  -12.6790   17.5930 C   0  0  0  0  0  2  0  0  0  0  0  0
  -28.6350  -12.6010   18.1370 C   0  0  0  0  0  2  0  0  0  0  0  0
  -28.3880  -13.5820   19.3140 C   0  0  0  0  0  3  0  0  0  0  0  0
  -29.5200  -13.4870   20.3640 C   0  0  0  0  0  2  0  0  0  0  0  0
  -30.7990  -13.7110   19.6730 N   0  0  0  0  0  0  0  0  0  0  0  0
  -32.5620  -15.0110   19.0450 O   0  0  0  0  0  0  0  0  0  0  0  0
  -30.7370  -15.9900   19.9260 N   0  0  0  0  0  0  0  0  0  0  0  0
  -29.8440  -15.8090   20.3570 H   0  0  0  0  0  0  0  0  0  0  0  0
  -26.1320  -14.3160   20.3090 C   0  0  0  0  0  0  0  0  0  0  0  0
  -25.0480  -13.6020   20.7450 C   0  0  0  0  0  0  0  0  0  0  0  0
  -25.3920  -12.2250   20.5870 C   0  0  0  0  0  0  0  0  0  0  0  0
  -27.0730  -13.3760   19.9170 N   0  0  0  0  0  0  0  0  0  0  0  0
  -26.6370  -12.1100   20.1420 N   0  0  0  0  0  0  0  0  0  0  0  0
  -24.5870  -11.0110   20.7760 C   0  0  0  0  0  0  0  0  0  0  0  0
  -24.9760  -10.0020   21.6840 C   0  0  0  0  0  3  0  0  0  0  0  0
  -24.1780   -8.8500   21.8610 C   0  0  0  0  0  3  0  0  0  0  0  0
  -22.9750   -8.7020   21.1300 C   0  0  0  0  0  0  0  0  0  0  0  0
  -22.6030   -9.7000   20.2120 C   0  0  0  0  0  3  0  0  0  0  0  0
  -23.4010  -10.8420   20.0340 C   0  0  0  0  0  3  0  0  0  0  0  0
  -22.1490   -7.6080   21.2200 O   0  0  0  0  0  0  0  0  0  0  0  0
  -21.9890   -6.9220   22.3960 C   0  0  0  0  0  0  0  0  0  0  0  0
  -21.5570   -7.5600   23.5800 C   0  0  0  0  0  3  0  0  0  0  0  0
  -21.3400   -6.8020   24.7490 C   0  0  0  0  0  3  0  0  0  0  0  0
  -21.5450   -5.4090   24.7340 C   0  0  0  0  0  0  0  0  0  0  0  0
  -21.9700   -4.7720   23.5570 C   0  0  0  0  0  3  0  0  0  0  0  0
  -22.1890   -5.5270   22.3900 C   0  0  0  0  0  0  0  0  0  0  0  0
  -22.5790   -4.9040   21.2510 F   0  0  0  0  0  0  0  0  0  0  0  0
  -21.3290   -4.6810   25.8550 F   0  0  0  0  0  0  0  0  0  0  0  0
  -23.7310  -14.1660   21.1900 C   0  0  0  0  0  0  0  0  0  0  0  0
  -23.0560  -13.4920   22.1150 N   0  0  0  0  0  0  0  0  0  0  0  0
  -23.3120  -15.2360   20.7510 O   0  0  0  0  0  0  0  0  0  0  0  0
  -23.4100  -12.6260   22.4920 H   0  0  0  0  0  0  0  0  0  0  0  0
  -22.1770  -13.8530   22.4560 H   0  0  0  0  0  0  0  0  0  0  0  0
  -26.3850  -15.6800   20.1910 N   0  0  0  0  0  0  0  0  0  0  0  0
  -25.6240  -16.3400   20.3080 H   0  0  0  0  0  0  0  0  0  0  0  0
  -27.1420  -16.0400   19.6240 H   0  0  0  0  0  0  0  0  0  0  0  0
  1  2  1  0
  2  5  1  0
  3  6  1  0
  4 13  1  0
  4  1  1  0
  4  3  1  0
  5  7  1  0
  6 56  1  0
  6  5  1  0
  6 12  1  1
  7 10  1  0
  7  8  1  0
  9  7  1  0
 12 11  1  0
 13 14  1  0
 15 17  1  0
 15 14  1  0
 16 27  2  0
 17 22  1  0
 18 26  1  0
 18 28  1  0
 19 25  1  0
 19 21  1  0
 20 26  1  0
 21 20  1  0
 22 21  2  0
 23 24  1  0
 23 17  2  0
 24 19  2  0
 25 18  1  0
 26 16  1  0
 28 30  2  0
 29 28  1  0
 31 29  1  0
 32 41  2  0
 32 37  1  0
 33 29  1  0
 33 37  1  0
 34 33  1  0
 35 36  1  0
 35 34  1  0
 36 32  1  0
 37 38  2  0
 38 39  1  0
 40 39  2  0
 41 40  1  0
 42 16  1  0
 42 47  1  0
 42 43  1  0
 43 46  1  1
 43 44  1  0
 45 43  1  0
 47 50  1  0
 48 47  1  0
 48 52  1  0
 49 48  2  0
 52 51  1  0
 52 54  1  0
 54 55  1  0
 54 53  1  0
 56 57  2  0
 58 67  1  0
 58 57  1  0
 59 65  1  0
 59 67  1  0
 60 65  1  0
 61 62  1  0
 61 60  1  0
 63 62  1  0
 63 72  1  0
 63 64  1  0
 65 64  1  0
 66 59  2  0
 67 68  1  0
 69 70  2  0
 70 89  1  0
 71 70  1  0
 71 74  1  0
 72 73  1  0
 72 69  1  0
 73 71  2  0
 74 75  1  0
 75 76  2  0
 77 80  1  0
 77 76  1  0
 78 77  2  0
 79 78  1  0
 79 74  2  0
 80 81  1  0
 81 82  1  0
 82 83  2  0
 84 83  1  0
 84 88  1  0
 85 84  2  0
 86 81  2  0
 86 85  1  0
 87 86  1  0
 89 90  1  0
 90 93  1  0
 90 92  1  0
 91 89  2  0
 94 95  1  0
 94 69  1  0
 96 94  1  0
M  ISO  4  14 101  15 101  59 100  67 100
M  END
>  <TORSDO>  (66) 
F 23

>  <SCORE>  (66) 
-7.587

>  <name>  (66) 
65

>  <ligand_id>  (66) 
65

>  <original_smiles>  (66) 
[H]c1c([H])c([H])c2c(c1[H])C([H])([H])C([H])([H])C([H])([H])C2([H])N([H])C(=O)C1([H])N(C(=O)C([H])(N([H])C(=O)C([H])(N([H])C([H])([H])[H])C([H])([H])[H])C(C([H])([H])[H])(C([H])([H])[H])C([H])([H])[H])C([H])([H])c2c([H])c(OC([H])([H])C([H])([H])C3([H])C([H])([H])C([H])([H])C([H])([N+]([H])([H])[H])C(C([H])([H])C([H])([H])[H])(C([H])([H])C([H])([H])C([H])([H])N([H])C(=O)N4C([H])([H])C([H])([H])C([H])([H])C([H])(n5nc(-c6c([H])c([H])c(Oc7c([H])c([H])c(F)c([H])c7F)c([H])c6[H])c(C(=O)N([H])[H])c5N([H])[H])C4([H])[H])C3([H])[H])c([H])c([H])c2C1([H])[H]

>  <smiles>  (66) 
[H]c1c([H])c([H])c2c(c1[H])C([H])([H])C([H])([H])C([H])([H])C2([H])N([H])C(=O)C1([H])N(C(=O)C([H])(N([H])C(=O)C([H])(N([H])C([H])([H])[H])C([H])([H])[H])C(C([H])([H])[H])(C([H])([H])[H])C([H])([H])[H])C([H])([H])c2c([H])c(OC([H])([H])C([H])([H])C3([H])C([H])([H])C([H])([H])C([H])([N+]([H])([H])[H])C(C([H])([H])C([H])([H])[H])(C([H])([H])C([H])([H])C([H])([H])N([H])C(=O)N4C([H])([H])C([H])([H])C([H])([H])C([H])(n5nc(-c6c([H])c([H])c(Oc7c([H])c([H])c(F)c([H])c7F)c([H])c6[H])c(C(=O)N([H])[H])c5N([H])[H])C4([H])[H])C3([H])[H])c([H])c([H])c2C1([H])[H]

$$$$
66:0:0
     RDKit          3D

 96104  0  0  1  0  0  0  0  0999 V2000
  -27.5280  -21.4100   20.3760 C   0  0  0  0  0  2  0  0  0  0  0  0
  -29.7360  -22.2360   20.4410 C   0  0  0  0  0  2  0  0  0  0  0  0
  -27.4410  -23.0030   20.4190 C   0  0  0  0  0  3  0  0  0  0  0  0
  -28.8680  -20.9590   20.9720 C   0  0  0  0  0  3  0  0  0  0  0  0
  -28.8710  -23.6340   20.6100 C   0  0  0  0  0  3  0  0  0  0  0  0
  -26.4040  -23.5190   21.4430 C   0  0  0  0  0  0  0  0  0  0  0  0
  -26.6340  -23.5460   22.6540 O   0  0  0  0  0  0  0  0  0  0  0  0
  -25.0630  -24.0280   20.9070 C   0  0  0  0  0  2  0  0  0  0  0  0
  -23.8860  -23.6490   21.8350 C   0  0  0  0  0  2  0  0  0  0  0  0
  -22.5660  -23.8940   21.2050 N   0  0  0  0  0  4  0  0  0  0  0  0
  -22.5180  -24.8560   20.9080 H   0  0  0  0  0  0  0  0  0  0  0  0
  -22.4780  -23.3170   20.3850 H   0  0  0  0  0  0  0  0  0  0  0  0
  -20.0810  -23.6910   21.3320 C   0  0  0  0  0  1  0  0  0  0  0  0
  -21.4150  -23.6080   22.0860 C   0  0  0  0  0  2  0  0  0  0  0  0
  -29.1770  -19.3090   21.3210 C   0  0  0  0  0  3  0  0  0  0  0  0
  -29.4810  -17.9100   20.4400 C   0  0  0  0  0  3  0  0  0  0  0  0
  -30.3270  -15.2880   20.8960 C   0  0  0  0  0  0  0  0  0  0  0  0
  -30.3740  -12.9150   20.0130 C   0  0  0  0  0  2  0  0  0  0  0  0
  -29.5690  -12.8460   18.6940 C   0  0  0  0  0  2  0  0  0  0  0  0
  -28.0770  -12.5970   18.9830 C   0  0  0  0  0  2  0  0  0  0  0  0
  -27.5330  -13.5170   20.1080 C   0  0  0  0  0  3  0  0  0  0  0  0
  -28.4730  -13.5630   21.3330 C   0  0  0  0  0  2  0  0  0  0  0  0
  -29.7910  -14.0020   20.8540 N   0  0  0  0  0  0  0  0  0  0  0  0
  -31.5310  -15.4080   20.6450 O   0  0  0  0  0  0  0  0  0  0  0  0
  -29.4820  -16.4270   21.0120 N   0  0  0  0  0  0  0  0  0  0  0  0
  -28.5620  -16.1470   21.3180 H   0  0  0  0  0  0  0  0  0  0  0  0
  -25.0980  -14.0390   20.7020 C   0  0  0  0  0  0  0  0  0  0  0  0
  -24.0140  -13.2380   20.9300 C   0  0  0  0  0  0  0  0  0  0  0  0
  -24.4860  -11.8930   20.8300 C   0  0  0  0  0  0  0  0  0  0  0  0
  -26.1610  -13.1820   20.4760 N   0  0  0  0  0  0  0  0  0  0  0  0
  -25.7980  -11.8810   20.6180 N   0  0  0  0  0  0  0  0  0  0  0  0
  -23.7540  -10.6200   20.8660 C   0  0  0  0  0  0  0  0  0  0  0  0
  -24.1520   -9.5620   21.7130 C   0  0  0  0  0  3  0  0  0  0  0  0
  -23.4190   -8.3560   21.7450 C   0  0  0  0  0  3  0  0  0  0  0  0
  -22.2740   -8.1990   20.9280 C   0  0  0  0  0  0  0  0  0  0  0  0
  -21.8960   -9.2460   20.0690 C   0  0  0  0  0  3  0  0  0  0  0  0
  -22.6290  -10.4440   20.0350 C   0  0  0  0  0  3  0  0  0  0  0  0
  -21.5160   -7.0540   20.8740 O   0  0  0  0  0  0  0  0  0  0  0  0
  -21.4510   -6.1820   21.9320 C   0  0  0  0  0  0  0  0  0  0  0  0
  -21.0100   -6.5930   23.2090 C   0  0  0  0  0  3  0  0  0  0  0  0
  -20.8940   -5.6500   24.2500 C   0  0  0  0  0  3  0  0  0  0  0  0
  -21.2070   -4.2980   24.0150 C   0  0  0  0  0  0  0  0  0  0  0  0
  -21.6410   -3.8870   22.7430 C   0  0  0  0  0  3  0  0  0  0  0  0
  -21.7590   -4.8270   21.7030 C   0  0  0  0  0  0  0  0  0  0  0  0
  -22.1580   -4.4210   20.4730 F   0  0  0  0  0  0  0  0  0  0  0  0
  -21.0870   -3.3910   25.0120 F   0  0  0  0  0  0  0  0  0  0  0  0
  -22.5960  -13.6930   21.1280 C   0  0  0  0  0  0  0  0  0  0  0  0
  -21.8120  -12.9410   21.8920 N   0  0  0  0  0  0  0  0  0  0  0  0
  -22.1920  -14.7500   20.6430 O   0  0  0  0  0  0  0  0  0  0  0  0
  -22.1510  -12.0840   22.3050 H   0  0  0  0  0  0  0  0  0  0  0  0
  -20.8580  -13.2230   22.0650 H   0  0  0  0  0  0  0  0  0  0  0  0
  -25.2650  -15.4200   20.6400 N   0  0  0  0  0  0  0  0  0  0  0  0
  -24.4800  -16.0570   20.7110 H   0  0  0  0  0  0  0  0  0  0  0  0
  -26.1200  -15.8780   20.3570 H   0  0  0  0  0  0  0  0  0  0  0  0
  -29.1290  -25.1060   19.8050 C   0  0  0  0  0  2  0  0  0  0  0  0
  -29.1170  -26.5770   20.3350 O   0  0  0  0  0  0  0  0  0  0  0  0
  -25.1980  -31.8100   23.7090 C   0  0  0  0  0  0  0  0  0  0  0  0
  -28.0410  -27.5400   20.2730 C   0  0  0  0  0  0  0  0  0  0  0  0
  -24.1370  -30.6500   21.8110 C   0  0  0  0  0  3  0  0  0  0  0  0
  -25.7010  -29.2770   20.3000 C   0  0  0  0  0  0  0  0  0  0  0  0
  -26.6930  -30.9270   21.8800 C   0  0  0  0  0  2  0  0  0  0  0  0
  -26.8250  -29.6360   21.0530 C   0  0  0  0  0  0  0  0  0  0  0  0
  -27.9910  -28.7820   21.0270 C   0  0  0  0  0  3  0  0  0  0  0  0
  -26.8890  -27.2850   19.4950 C   0  0  0  0  0  3  0  0  0  0  0  0
  -25.7470  -28.1170   19.5110 C   0  0  0  0  0  3  0  0  0  0  0  0
  -24.4660  -30.1640   20.3740 C   0  0  0  0  0  2  0  0  0  0  0  0
  -25.3580  -31.1450   22.5240 N   0  0  0  0  0  0  0  0  0  0  0  0
  -24.0730  -32.0230   24.1860 O   0  0  0  0  0  0  0  0  0  0  0  0
  -23.3970  -29.5240   22.5760 C   0  0  0  0  0  0  0  0  0  0  0  0
  -22.0690  -29.4250   22.3880 N   0  0  0  0  0  0  0  0  0  0  0  0
  -24.0220  -28.7480   23.3030 O   0  0  0  0  0  0  0  0  0  0  0  0
  -21.6240  -30.1050   21.7880 H   0  0  0  0  0  0  0  0  0  0  0  0
  -18.6160  -28.3860   22.7450 C   0  0  0  0  0  0  0  0  0  0  0  0
  -21.1920  -28.4050   22.9710 C   0  0  0  0  0  3  0  0  0  0  0  0
  -21.1730  -27.1240   22.1050 C   0  0  0  0  0  2  0  0  0  0  0  0
  -20.0320  -27.1030   21.0840 C   0  0  0  0  0  2  0  0  0  0  0  0
  -18.6770  -27.2030   21.7910 C   0  0  0  0  0  2  0  0  0  0  0  0
  -19.7980  -28.9600   23.2860 C   0  0  0  0  0  0  0  0  0  0  0  0
  -19.6850  -30.0770   24.1410 C   0  0  0  0  0  3  0  0  0  0  0  0
  -18.4240  -30.6180   24.4570 C   0  0  0  0  0  3  0  0  0  0  0  0
  -17.2570  -30.0390   23.9290 C   0  0  0  0  0  3  0  0  0  0  0  0
  -17.3550  -28.9220   23.0800 C   0  0  0  0  0  3  0  0  0  0  0  0
  -26.4180  -32.3560   24.5120 C   0  0  0  0  0  3  0  0  0  0  0  0
  -26.1410  -33.7600   24.8520 N   0  0  0  0  0  0  0  0  0  0  0  0
  -26.6930  -34.8180   24.2420 C   0  0  0  0  0  0  0  0  0  0  0  0
  -27.5510  -34.7070   23.3620 O   0  0  0  0  0  0  0  0  0  0  0  0
  -25.4070  -33.9260   25.5240 H   0  0  0  0  0  0  0  0  0  0  0  0
  -25.2360  -36.7790   23.6360 C   0  0  0  0  0  1  0  0  0  0  0  0
  -26.2210  -36.2210   24.6750 C   0  0  0  0  0  3  0  0  0  0  0  0
  -28.1700  -36.8620   26.0250 C   0  0  0  0  0  1  0  0  0  0  0  0
  -27.3290  -37.1800   24.8740 N   0  0  0  0  0  0  0  0  0  0  0  0
  -26.9720  -38.1250   24.9930 H   0  0  0  0  0  0  0  0  0  0  0  0
  -26.7190  -31.5250   25.8200 C   0  0  1  0  0  0  0  0  0  0  0  0
  -25.4870  -31.3320   26.7350 C   0  0  0  0  0  1  0  0  0  0  0  0
  -27.2680  -30.1230   25.4680 C   0  0  0  0  0  1  0  0  0  0  0  0
  -27.8210  -32.2320   26.6450 C   0  0  0  0  0  1  0  0  0  0  0  0
  1  3  1  0
  1  4  1  0
  2  5  1  0
  2  4  1  0
  3  5  1  0
  3  6  1  0
  4 15  1  0
  5 55  1  0
  6  7  2  0
  8  6  1  0
  8  9  1  0
 10  9  1  0
 10 14  1  0
 11 10  1  0
 12 10  1  0
 13 14  1  0
 16 25  1  0
 16 15  2  0
 17 25  1  0
 18 23  1  0
 19 20  1  0
 19 18  1  0
 21 20  1  0
 21 30  1  0
 21 22  1  0
 23 17  1  0
 23 22  1  0
 24 17  2  0
 25 26  1  0
 27 28  2  0
 28 47  1  0
 29 32  1  0
 29 28  1  0
 30 31  1  0
 30 27  1  0
 31 29  2  0
 32 33  1  0
 33 34  2  0
 35 34  1  0
 36 35  2  0
 37 36  1  0
 37 32  2  0
 38 35  1  0
 38 39  1  0
 39 40  1  0
 40 41  2  0
 42 41  1  0
 42 46  1  0
 43 42  2  0
 44 39  2  0
 44 43  1  0
 45 44  1  0
 47 48  1  0
 48 51  1  0
 48 50  1  0
 49 47  2  0
 52 27  1  0
 52 53  1  0
 54 52  1  0
 55 56  1  0
 57 68  2  0
 58 56  1  0
 58 63  1  0
 59 67  1  0
 59 69  1  0
 60 66  1  0
 60 62  1  0
 61 67  1  0
 62 61  1  0
 63 62  2  0
 64 65  1  0
 64 58  2  0
 65 60  2  0
 66 59  1  0
 67 57  1  0
 69 71  2  0
 70 69  1  0
 72 70  1  0
 73 82  2  0
 73 78  1  0
 74 70  1  0
 74 78  1  0
 75 74  1  0
 76 77  1  0
 76 75  1  0
 77 73  1  0
 78 79  2  0
 79 80  1  0
 81 80  2  0
 82 81  1  0
 83 57  1  0
 83 84  1  0
 83 93  1  0
 84 87  1  0
 85 89  1  0
 85 84  1  0
 86 85  2  0
 89 88  1  0
 89 91  1  0
 91 92  1  0
 91 90  1  0
 93 96  1  1
 93 94  1  0
 95 93  1  0
M  ISO  4  17 100  25 100  55 101  56 101
M  END
>  <TORSDO>  (67) 
F 24

>  <SCORE>  (67) 
-9.421

>  <name>  (67) 
66

>  <ligand_id>  (67) 
66

>  <original_smiles>  (67) 
[H]c1c([H])c([H])c2c(c1[H])C([H])([H])C([H])([H])C([H])([H])C2([H])N([H])C(=O)C1([H])N(C(=O)C([H])(N([H])C(=O)C([H])(N([H])C([H])([H])[H])C([H])([H])[H])C(C([H])([H])[H])(C([H])([H])[H])C([H])([H])[H])C([H])([H])c2c([H])c(OC([H])([H])C3([H])C([H])([H])C([H])(C([H])([H])C([H])([H])N([H])C(=O)N4C([H])([H])C([H])([H])C([H])([H])C([H])(n5nc(-c6c([H])c([H])c(Oc7c([H])c([H])c(F)c([H])c7F)c([H])c6[H])c(C(=O)N([H])[H])c5N([H])[H])C4([H])[H])C([H])([H])C3([H])C(=O)C([H])([H])C([H])([H])[N+]([H])([H])C([H])([H])C([H])([H])[H])c([H])c([H])c2C1([H])[H]

>  <smiles>  (67) 
[H]c1c([H])c([H])c2c(c1[H])C([H])([H])C([H])([H])C([H])([H])C2([H])N([H])C(=O)C1([H])N(C(=O)C([H])(N([H])C(=O)C([H])(N([H])C([H])([H])[H])C([H])([H])[H])C(C([H])([H])[H])(C([H])([H])[H])C([H])([H])[H])C([H])([H])c2c([H])c(OC([H])([H])C3([H])C([H])([H])C([H])(C([H])([H])C([H])([H])N([H])C(=O)N4C([H])([H])C([H])([H])C([H])([H])C([H])(n5nc(-c6c([H])c([H])c(Oc7c([H])c([H])c(F)c([H])c7F)c([H])c6[H])c(C(=O)N([H])[H])c5N([H])[H])C4([H])[H])C([H])([H])C3([H])C(=O)C([H])([H])C([H])([H])[N+]([H])([H])C([H])([H])C([H])([H])[H])c([H])c([H])c2C1([H])[H]

$$$$
67:0:0
     RDKit          3D

 99106  0  0  1  0  0  0  0  0999 V2000
  -30.1040  -20.1710   22.6540 C   0  0  0  0  0  2  0  0  0  0  0  0
  -30.4600  -19.4930   23.9870 C   0  0  0  0  0  2  0  0  0  0  0  0
  -29.6600  -18.1970   24.2810 C   0  0  0  0  0  3  0  0  0  0  0  0
  -29.8830  -17.0890   23.2230 C   0  0  0  0  0  2  0  0  0  0  0  0
  -31.3130  -17.0540   22.6410 C   0  0  0  0  0  2  0  0  0  0  0  0
  -31.7280  -15.6930   22.0780 C   0  0  0  0  0  2  0  0  0  0  0  0
  -30.6540  -14.4910   20.1790 C   0  0  0  0  0  0  0  0  0  0  0  0
  -30.3790  -12.2170   19.2950 C   0  0  0  0  0  2  0  0  0  0  0  0
  -29.4070  -12.0410   18.1220 C   0  0  0  0  0  2  0  0  0  0  0  0
  -27.9700  -11.8630   18.6380 C   0  0  0  0  0  2  0  0  0  0  0  0
  -27.5610  -12.9740   19.6360 C   0  0  0  0  0  3  0  0  0  0  0  0
  -28.6210  -13.1420   20.7430 C   0  0  0  0  0  2  0  0  0  0  0  0
  -29.9400  -13.3490   20.1160 N   0  0  0  0  0  0  0  0  0  0  0  0
  -31.4820  -14.8470   19.3340 O   0  0  0  0  0  0  0  0  0  0  0  0
  -30.6300  -14.9980   21.4160 N   0  0  0  0  0  0  0  0  0  0  0  0
  -29.9430  -14.5780   22.0240 H   0  0  0  0  0  0  0  0  0  0  0  0
  -25.2590  -13.6170   20.5940 C   0  0  0  0  0  0  0  0  0  0  0  0
  -24.1830  -12.8610   20.9690 C   0  0  0  0  0  0  0  0  0  0  0  0
  -24.5680  -11.4990   20.7730 C   0  0  0  0  0  0  0  0  0  0  0  0
  -26.2360  -12.7190   20.1960 N   0  0  0  0  0  0  0  0  0  0  0  0
  -25.8270  -11.4330   20.3600 N   0  0  0  0  0  0  0  0  0  0  0  0
  -23.7950  -10.2570   20.8960 C   0  0  0  0  0  0  0  0  0  0  0  0
  -24.1610   -9.2480   21.8130 C   0  0  0  0  0  3  0  0  0  0  0  0
  -23.3910   -8.0710   21.9260 C   0  0  0  0  0  3  0  0  0  0  0  0
  -22.2410   -7.8950   21.1190 C   0  0  0  0  0  0  0  0  0  0  0  0
  -21.8950   -8.8950   20.1920 C   0  0  0  0  0  3  0  0  0  0  0  0
  -22.6650  -10.0630   20.0780 C   0  0  0  0  0  3  0  0  0  0  0  0
  -21.4470   -6.7740   21.1420 O   0  0  0  0  0  0  0  0  0  0  0  0
  -21.2500   -6.0550   22.2940 C   0  0  0  0  0  0  0  0  0  0  0  0
  -20.6930   -6.6390   23.4530 C   0  0  0  0  0  3  0  0  0  0  0  0
  -20.4440   -5.8470   24.5900 C   0  0  0  0  0  3  0  0  0  0  0  0
  -20.7420   -4.4710   24.5710 C   0  0  0  0  0  0  0  0  0  0  0  0
  -21.2920   -3.8860   23.4160 C   0  0  0  0  0  3  0  0  0  0  0  0
  -21.5430   -4.6760   22.2800 C   0  0  0  0  0  0  0  0  0  0  0  0
  -22.0520   -4.1030   21.1630 F   0  0  0  0  0  0  0  0  0  0  0  0
  -20.4970   -3.7070   25.6610 F   0  0  0  0  0  0  0  0  0  0  0  0
  -22.8370  -13.3690   21.3990 C   0  0  0  0  0  0  0  0  0  0  0  0
  -22.1580  -12.6420   22.2780 N   0  0  0  0  0  0  0  0  0  0  0  0
  -22.3970  -14.4440   20.9890 O   0  0  0  0  0  0  0  0  0  0  0  0
  -22.5260  -11.7690   22.6290 H   0  0  0  0  0  0  0  0  0  0  0  0
  -21.2580  -12.9620   22.6070 H   0  0  0  0  0  0  0  0  0  0  0  0
  -25.4840  -14.9910   20.5370 N   0  0  0  0  0  0  0  0  0  0  0  0
  -24.7690  -15.6700   20.7760 H   0  0  0  0  0  0  0  0  0  0  0  0
  -26.3370  -15.4170   20.1990 H   0  0  0  0  0  0  0  0  0  0  0  0
  -29.9360  -17.6430   25.7020 C   0  0  0  0  0  2  0  0  0  0  0  0
  -28.9180  -18.0760   26.7640 C   0  0  0  0  0  0  0  0  0  0  0  0
  -29.3880  -18.4020   27.9620 N   0  0  0  0  0  0  0  0  0  0  0  0
  -27.7160  -18.1220   26.5130 O   0  0  0  0  0  0  0  0  0  0  0  0
  -30.3800  -18.3460   28.1500 H   0  0  0  0  0  0  0  0  0  0  0  0
  -28.7620  -18.7150   28.6920 H   0  0  0  0  0  0  0  0  0  0  0  0
  -30.8360  -21.5090   22.4880 C   0  0  0  0  0  2  0  0  0  0  0  0
  -30.5430  -22.1690   21.1350 C   0  0  0  0  0  2  0  0  0  0  0  0
  -31.0150  -23.5680   21.0940 N   0  0  0  0  0  4  0  0  0  0  0  0
  -32.0210  -23.5830   21.0350 H   0  0  0  0  0  0  0  0  0  0  0  0
  -30.7560  -24.0110   21.9610 H   0  0  0  0  0  0  0  0  0  0  0  0
  -30.4460  -24.3470   19.9760 C   0  0  0  0  0  2  0  0  0  0  0  0
  -30.5000  -25.8620   20.2400 C   0  0  0  0  0  2  0  0  0  0  0  0
  -29.4560  -26.6090   19.4120 C   0  0  0  0  0  2  0  0  0  0  0  0
  -29.2250  -27.8840   19.9990 O   0  0  0  0  0  0  0  0  0  0  0  0
  -24.5100  -32.0070   23.3370 C   0  0  0  0  0  0  0  0  0  0  0  0
  -27.9330  -28.3600   20.0040 C   0  0  0  0  0  0  0  0  0  0  0  0
  -23.6010  -30.5860   21.5300 C   0  0  0  0  0  3  0  0  0  0  0  0
  -25.3240  -29.4390   20.0520 C   0  0  0  0  0  0  0  0  0  0  0  0
  -26.0380  -31.3590   21.4820 C   0  0  0  0  0  2  0  0  0  0  0  0
  -26.3610  -30.0840   20.7350 C   0  0  0  0  0  0  0  0  0  0  0  0
  -27.6650  -29.5470   20.7170 C   0  0  0  0  0  3  0  0  0  0  0  0
  -26.8710  -27.7220   19.3150 C   0  0  0  0  0  3  0  0  0  0  0  0
  -25.5710  -28.2520   19.3440 C   0  0  0  0  0  3  0  0  0  0  0  0
  -23.9600  -30.0840   20.1080 C   0  0  0  0  0  2  0  0  0  0  0  0
  -24.7310  -31.3270   22.1780 N   0  0  0  0  0  0  0  0  0  0  0  0
  -23.3800  -32.0570   23.8440 O   0  0  0  0  0  0  0  0  0  0  0  0
  -23.0970  -29.3900   22.3670 C   0  0  0  0  0  0  0  0  0  0  0  0
  -21.8210  -29.0190   22.1710 N   0  0  0  0  0  0  0  0  0  0  0  0
  -23.8490  -28.8040   23.1500 O   0  0  0  0  0  0  0  0  0  0  0  0
  -21.2680  -29.5600   21.5230 H   0  0  0  0  0  0  0  0  0  0  0  0
  -18.6470  -27.3190   22.4490 C   0  0  0  0  0  0  0  0  0  0  0  0
  -21.1380  -27.9010   22.8200 C   0  0  0  0  0  3  0  0  0  0  0  0
  -21.4520  -26.5670   22.1050 C   0  0  0  0  0  2  0  0  0  0  0  0
  -20.4210  -26.1990   21.0320 C   0  0  0  0  0  2  0  0  0  0  0  0
  -19.0240  -26.0840   21.6490 C   0  0  0  0  0  2  0  0  0  0  0  0
  -19.6400  -28.1810   22.9850 C   0  0  0  0  0  0  0  0  0  0  0  0
  -19.2360  -29.3370   23.6900 C   0  0  0  0  0  3  0  0  0  0  0  0
  -17.8700  -29.6310   23.8670 C   0  0  0  0  0  3  0  0  0  0  0  0
  -16.8910  -28.7650   23.3490 C   0  0  0  0  0  3  0  0  0  0  0  0
  -17.2810  -27.6110   22.6450 C   0  0  0  0  0  3  0  0  0  0  0  0
  -25.6570  -32.7730   24.0690 C   0  0  0  0  0  3  0  0  0  0  0  0
  -25.1730  -34.1290   24.3520 N   0  0  0  0  0  0  0  0  0  0  0  0
  -25.4840  -35.2130   23.6280 C   0  0  0  0  0  0  0  0  0  0  0  0
  -26.2780  -35.1830   22.6840 O   0  0  0  0  0  0  0  0  0  0  0  0
  -24.4820  -34.2220   25.0830 H   0  0  0  0  0  0  0  0  0  0  0  0
  -23.6350  -36.8130   23.0570 C   0  0  0  0  0  1  0  0  0  0  0  0
  -24.8060  -36.5380   24.0130 C   0  0  0  0  0  3  0  0  0  0  0  0
  -26.7410  -37.6190   25.0700 C   0  0  0  0  0  1  0  0  0  0  0  0
  -25.7310  -37.6930   24.0170 N   0  0  0  0  0  0  0  0  0  0  0  0
  -25.2190  -38.5650   24.1310 H   0  0  0  0  0  0  0  0  0  0  0  0
  -26.1370  -32.0610   25.3930 C   0  0  1  0  0  0  0  0  0  0  0  0
  -24.9790  -31.6580   26.3380 C   0  0  0  0  0  1  0  0  0  0  0  0
  -26.9420  -30.7830   25.0610 C   0  0  0  0  0  1  0  0  0  0  0  0
  -27.0950  -32.9930   26.1710 C   0  0  0  0  0  1  0  0  0  0  0  0
  1  2  1  0
  2  3  1  0
  3  4  1  0
  3 45  1  0
  5  4  1  0
  6  5  1  0
  7 15  1  0
  8 13  1  0
  9 10  1  0
  9  8  1  0
 11 10  1  0
 11 20  1  0
 11 12  1  0
 13  7  1  0
 13 12  1  0
 14  7  2  0
 15 16  1  0
 15  6  1  0
 17 18  2  0
 18 37  1  0
 19 22  1  0
 19 18  1  0
 20 21  1  0
 20 17  1  0
 21 19  2  0
 22 23  1  0
 23 24  2  0
 25 28  1  0
 25 24  1  0
 26 25  2  0
 27 26  1  0
 27 22  2  0
 28 29  1  0
 29 30  1  0
 30 31  2  0
 32 31  1  0
 32 36  1  0
 33 32  2  0
 34 29  2  0
 34 33  1  0
 35 34  1  0
 37 38  1  0
 38 41  1  0
 38 40  1  0
 39 37  2  0
 42 17  1  0
 42 43  1  0
 44 42  1  0
 45 46  1  0
 46 47  1  0
 47 49  1  0
 47 50  1  0
 48 46  2  0
 51  1  1  0
 52 51  1  0
 53 52  1  0
 53 55  1  0
 54 53  1  0
 56 57  1  0
 56 53  1  0
 58 59  1  0
 58 57  1  0
 59 61  1  0
 60 71  2  0
 61 66  1  0
 62 70  1  0
 62 72  1  0
 63 69  1  0
 63 65  1  0
 64 70  1  0
 65 64  1  0
 66 65  2  0
 67 68  1  0
 67 61  2  0
 68 63  2  0
 69 62  1  0
 70 60  1  0
 72 74  2  0
 73 72  1  0
 75 73  1  0
 76 85  2  0
 76 81  1  0
 77 73  1  0
 77 81  1  0
 78 77  1  0
 79 80  1  0
 79 78  1  0
 80 76  1  0
 81 82  2  0
 82 83  1  0
 84 83  2  0
 85 84  1  0
 86 60  1  0
 86 87  1  0
 86 96  1  0
 87 90  1  0
 88 92  1  0
 88 87  1  0
 89 88  2  0
 92 91  1  0
 92 94  1  0
 94 95  1  0
 94 93  1  0
 96 99  1  1
 96 97  1  0
 98 96  1  0
M  ISO  4   7 100  15 100  58 101  59 101
M  END
>  <TORSDO>  (68) 
F 29

>  <SCORE>  (68) 
3.996

>  <name>  (68) 
67

>  <ligand_id>  (68) 
67

>  <original_smiles>  (68) 
[H]c1c([H])c([H])c2c(c1[H])C([H])([H])C([H])([H])C([H])([H])C2([H])N([H])C(=O)C1([H])N(C(=O)C([H])(N([H])C(=O)C([H])(N([H])C([H])([H])[H])C([H])([H])[H])C(C([H])([H])[H])(C([H])([H])[H])C([H])([H])[H])C([H])([H])c2c([H])c(OC([H])([H])C([H])([H])C([H])([H])[N+]([H])([H])C([H])([H])C([H])([H])C([H])([H])C([H])([H])C([H])(C([H])([H])C(=O)N([H])[H])C([H])([H])C([H])([H])C([H])([H])N([H])C(=O)N3C([H])([H])C([H])([H])C([H])([H])C([H])(n4nc(-c5c([H])c([H])c(Oc6c([H])c([H])c(F)c([H])c6F)c([H])c5[H])c(C(=O)N([H])[H])c4N([H])[H])C3([H])[H])c([H])c([H])c2C1([H])[H]

>  <smiles>  (68) 
[H]c1c([H])c([H])c2c(c1[H])C([H])([H])C([H])([H])C([H])([H])C2([H])N([H])C(=O)C1([H])N(C(=O)C([H])(N([H])C(=O)C([H])(N([H])C([H])([H])[H])C([H])([H])[H])C(C([H])([H])[H])(C([H])([H])[H])C([H])([H])[H])C([H])([H])c2c([H])c(OC([H])([H])C([H])([H])C([H])([H])[N+]([H])([H])C([H])([H])C([H])([H])C([H])([H])C([H])([H])C([H])(C([H])([H])C(=O)N([H])[H])C([H])([H])C([H])([H])C([H])([H])N([H])C(=O)N3C([H])([H])C([H])([H])C([H])([H])C([H])(n4nc(-c5c([H])c([H])c(Oc6c([H])c([H])c(F)c([H])c6F)c([H])c5[H])c(C(=O)N([H])[H])c4N([H])[H])C3([H])[H])c([H])c([H])c2C1([H])[H]

$$$$
68:0:0
     RDKit          3D

 97105  0  0  1  0  0  0  0  0999 V2000
  -31.8730  -19.9180   19.6610 C   0  0  0  0  0  3  0  0  0  0  0  0
  -29.5960  -20.7730   19.6520 C   0  0  0  0  0  3  0  0  0  0  0  0
  -30.5990  -19.9740   20.2450 C   0  0  0  0  0  0  0  0  0  0  0  0
  -32.1410  -20.5660   18.4420 C   0  0  0  0  0  0  0  0  0  0  0  0
  -29.8510  -21.4610   18.4400 C   0  0  0  0  0  0  0  0  0  0  0  0
  -31.1120  -21.3000   17.7950 C   0  0  0  0  0  0  0  0  0  0  0  0
  -31.3560  -21.8880   16.4060 C   0  0  0  0  0  1  0  0  0  0  0  0
  -34.3780  -21.7150   18.0060 C   0  0  0  0  0  1  0  0  0  0  0  0
  -33.5510  -20.4290   17.8700 C   0  0  0  0  0  2  0  0  0  0  0  0
  -30.3240  -19.0830   21.4450 C   0  0  0  0  0  2  0  0  0  0  0  0
  -30.0550  -17.6420   20.9650 C   0  0  0  0  0  2  0  0  0  0  0  0
  -30.5670  -16.5380   21.9090 C   0  0  0  0  0  2  0  0  0  0  0  0
  -30.7370  -14.4210   20.5750 C   0  0  0  0  0  0  0  0  0  0  0  0
  -30.4470  -12.3710   19.2410 C   0  0  0  0  0  2  0  0  0  0  0  0
  -29.4870  -12.6390   18.0620 C   0  0  0  0  0  2  0  0  0  0  0  0
  -28.0090  -12.5010   18.4900 C   0  0  0  0  0  2  0  0  0  0  0  0
  -27.6840  -13.2770   19.7940 C   0  0  0  0  0  3  0  0  0  0  0  0
  -28.7290  -12.9270   20.8710 C   0  0  0  0  0  2  0  0  0  0  0  0
  -30.0640  -13.2670   20.3370 N   0  0  0  0  0  0  0  0  0  0  0  0
  -31.7980  -14.7230   20.0200 O   0  0  0  0  0  0  0  0  0  0  0  0
  -30.1270  -15.2290   21.4510 N   0  0  0  0  0  0  0  0  0  0  0  0
  -29.2430  -14.8990   21.8060 H   0  0  0  0  0  0  0  0  0  0  0  0
  -25.2650  -13.8870   20.4470 C   0  0  0  0  0  0  0  0  0  0  0  0
  -24.1910  -13.1190   20.8040 C   0  0  0  0  0  0  0  0  0  0  0  0
  -24.6550  -11.7670   20.7910 C   0  0  0  0  0  0  0  0  0  0  0  0
  -26.3180  -13.0090   20.2450 N   0  0  0  0  0  0  0  0  0  0  0  0
  -25.9490  -11.7270   20.5010 N   0  0  0  0  0  0  0  0  0  0  0  0
  -23.9260  -10.5070   20.9870 C   0  0  0  0  0  0  0  0  0  0  0  0
  -24.3460   -9.5500   21.9370 C   0  0  0  0  0  3  0  0  0  0  0  0
  -23.6170   -8.3550   22.1190 C   0  0  0  0  0  3  0  0  0  0  0  0
  -22.4530   -8.1080   21.3500 C   0  0  0  0  0  0  0  0  0  0  0  0
  -22.0570   -9.0520   20.3870 C   0  0  0  0  0  3  0  0  0  0  0  0
  -22.7870  -10.2380   20.2020 C   0  0  0  0  0  3  0  0  0  0  0  0
  -21.7010   -6.9620   21.4370 O   0  0  0  0  0  0  0  0  0  0  0  0
  -21.6320   -6.2330   22.5980 C   0  0  0  0  0  0  0  0  0  0  0  0
  -21.1880   -6.8070   23.8090 C   0  0  0  0  0  3  0  0  0  0  0  0
  -21.0690   -6.0080   24.9640 C   0  0  0  0  0  3  0  0  0  0  0  0
  -21.3770   -4.6360   24.9050 C   0  0  0  0  0  0  0  0  0  0  0  0
  -21.8170   -4.0630   23.7010 C   0  0  0  0  0  3  0  0  0  0  0  0
  -21.9400   -4.8600   22.5480 C   0  0  0  0  0  0  0  0  0  0  0  0
  -22.3420   -4.2990   21.3830 F   0  0  0  0  0  0  0  0  0  0  0  0
  -21.2580   -3.8650   26.0130 F   0  0  0  0  0  0  0  0  0  0  0  0
  -22.7900  -13.5960   21.0560 C   0  0  0  0  0  0  0  0  0  0  0  0
  -22.0580  -12.9030   21.9200 N   0  0  0  0  0  0  0  0  0  0  0  0
  -22.3550  -14.6180   20.5250 O   0  0  0  0  0  0  0  0  0  0  0  0
  -22.4320  -12.0820   22.3720 H   0  0  0  0  0  0  0  0  0  0  0  0
  -21.1180  -13.1990   22.1400 H   0  0  0  0  0  0  0  0  0  0  0  0
  -25.4280  -15.2590   20.2710 N   0  0  0  0  0  0  0  0  0  0  0  0
  -24.6600  -15.9130   20.3690 H   0  0  0  0  0  0  0  0  0  0  0  0
  -26.2910  -15.7000   19.9870 H   0  0  0  0  0  0  0  0  0  0  0  0
  -28.7500  -22.3410   17.8370 C   0  0  0  0  0  2  0  0  0  0  0  0
  -28.6700  -24.4710   16.4320 C   0  0  0  0  0  1  0  0  0  0  0  0
  -29.1140  -23.8600   17.7780 C   0  0  0  0  0  3  0  0  0  0  0  0
  -28.5770  -24.6970   18.9650 C   0  0  0  0  0  0  0  0  0  0  0  0
  -27.9050  -24.1870   19.8660 O   0  0  0  0  0  0  0  0  0  0  0  0
  -28.9210  -26.2000   18.9850 C   0  0  0  0  0  2  0  0  0  0  0  0
  -28.5110  -26.8480   20.1970 O   0  0  0  0  0  0  0  0  0  0  0  0
  -24.5870  -31.9440   23.2520 C   0  0  0  0  0  0  0  0  0  0  0  0
  -27.3120  -27.5290   20.1900 C   0  0  0  0  0  0  0  0  0  0  0  0
  -23.4080  -30.5250   21.6050 C   0  0  0  0  0  3  0  0  0  0  0  0
  -24.8890  -28.9930   20.2030 C   0  0  0  0  0  0  0  0  0  0  0  0
  -25.9320  -30.9000   21.4350 C   0  0  0  0  0  2  0  0  0  0  0  0
  -26.0340  -29.5280   20.8030 C   0  0  0  0  0  0  0  0  0  0  0  0
  -27.2420  -28.7940   20.8140 C   0  0  0  0  0  3  0  0  0  0  0  0
  -26.1420  -26.9980   19.5980 C   0  0  0  0  0  3  0  0  0  0  0  0
  -24.9340  -27.7200   19.6120 C   0  0  0  0  0  3  0  0  0  0  0  0
  -23.6330  -29.8360   20.2330 C   0  0  0  0  0  2  0  0  0  0  0  0
  -24.6600  -31.1360   22.1560 N   0  0  0  0  0  0  0  0  0  0  0  0
  -23.4980  -32.2170   23.7760 O   0  0  0  0  0  0  0  0  0  0  0  0
  -22.7590  -29.5040   22.5620 C   0  0  0  0  0  0  0  0  0  0  0  0
  -21.4360  -29.3160   22.4250 N   0  0  0  0  0  0  0  0  0  0  0  0
  -23.4400  -28.8870   23.3860 O   0  0  0  0  0  0  0  0  0  0  0  0
  -20.9550  -29.8570   21.7210 H   0  0  0  0  0  0  0  0  0  0  0  0
  -18.0580  -28.1360   22.9060 C   0  0  0  0  0  0  0  0  0  0  0  0
  -20.6150  -28.3790   23.1870 C   0  0  0  0  0  3  0  0  0  0  0  0
  -20.7150  -26.9520   22.6010 C   0  0  0  0  0  2  0  0  0  0  0  0
  -19.6130  -26.6400   21.5850 C   0  0  0  0  0  2  0  0  0  0  0  0
  -18.2300  -26.7910   22.2230 C   0  0  0  0  0  2  0  0  0  0  0  0
  -19.1780  -28.8900   23.3430 C   0  0  0  0  0  0  0  0  0  0  0  0
  -18.9630  -30.1540   23.9350 C   0  0  0  0  0  3  0  0  0  0  0  0
  -17.6600  -30.6610   24.0970 C   0  0  0  0  0  3  0  0  0  0  0  0
  -16.5540  -29.9010   23.6820 C   0  0  0  0  0  3  0  0  0  0  0  0
  -16.7540  -28.6410   23.0910 C   0  0  0  0  0  3  0  0  0  0  0  0
  -25.8650  -32.5840   23.8780 C   0  0  0  0  0  3  0  0  0  0  0  0
  -25.5490  -33.9830   24.1940 N   0  0  0  0  0  0  0  0  0  0  0  0
  -25.8890  -35.0310   23.4320 C   0  0  0  0  0  0  0  0  0  0  0  0
  -26.5760  -34.9220   22.4130 O   0  0  0  0  0  0  0  0  0  0  0  0
  -24.9410  -34.1390   24.9850 H   0  0  0  0  0  0  0  0  0  0  0  0
  -24.1600  -36.8090   23.0340 C   0  0  0  0  0  1  0  0  0  0  0  0
  -25.3870  -36.4180   23.8700 C   0  0  0  0  0  3  0  0  0  0  0  0
  -27.5050  -37.3150   24.7330 C   0  0  0  0  0  1  0  0  0  0  0  0
  -26.4180  -37.4760   23.7700 N   0  0  0  0  0  0  0  0  0  0  0  0
  -26.0070  -38.3950   23.9060 H   0  0  0  0  0  0  0  0  0  0  0  0
  -26.3760  -31.8240   25.1640 C   0  0  1  0  0  0  0  0  0  0  0  0
  -25.2720  -31.5870   26.2200 C   0  0  0  0  0  1  0  0  0  0  0  0
  -26.9780  -30.4500   24.7870 C   0  0  0  0  0  1  0  0  0  0  0  0
  -27.5090  -32.6370   25.8360 C   0  0  0  0  0  1  0  0  0  0  0  0
  1  3  1  0
  2  3  2  0
  3 10  1  0
  4  1  2  0
  5  2  1  0
  6  5  2  0
  6  4  1  0
  7  6  1  0
  9  8  1  0
  9  4  1  0
 11 10  1  0
 11 12  1  0
 13 21  1  0
 14 19  1  0
 15 16  1  0
 15 14  1  0
 17 16  1  0
 17 26  1  0
 17 18  1  0
 19 13  1  0
 19 18  1  0
 20 13  2  0
 21 22  1  0
 21 12  1  0
 23 24  2  0
 24 43  1  0
 25 24  1  0
 25 28  1  0
 26 23  1  0
 26 27  1  0
 27 25  2  0
 28 29  1  0
 29 30  2  0
 31 34  1  0
 31 30  1  0
 32 31  2  0
 33 32  1  0
 33 28  2  0
 34 35  1  0
 35 36  1  0
 36 37  2  0
 38 37  1  0
 38 42  1  0
 39 38  2  0
 40 35  2  0
 40 39  1  0
 41 40  1  0
 43 44  1  0
 44 47  1  0
 44 46  1  0
 45 43  2  0
 48 49  1  0
 48 23  1  0
 50 48  1  0
 51  5  1  0
 53 52  1  0
 53 51  1  0
 53 54  1  0
 54 56  1  0
 54 55  2  0
 56 57  1  0
 58 69  2  0
 59 57  1  0
 59 64  1  0
 60 68  1  0
 60 70  1  0
 61 67  1  0
 61 63  1  0
 62 68  1  0
 63 64  2  0
 63 62  1  0
 65 66  1  0
 65 59  2  0
 66 61  2  0
 67 60  1  0
 68 58  1  0
 70 72  2  0
 71 70  1  0
 73 71  1  0
 74 83  2  0
 74 79  1  0
 75 71  1  0
 75 79  1  0
 76 75  1  0
 77 78  1  0
 77 76  1  0
 78 74  1  0
 79 80  2  0
 80 81  1  0
 82 81  2  0
 83 82  1  0
 84 58  1  0
 84 85  1  0
 84 94  1  0
 85 88  1  0
 86 90  1  0
 86 85  1  0
 87 86  2  0
 90 89  1  0
 92 90  1  0
 92 93  1  0
 92 91  1  0
 94 97  1  1
 94 95  1  0
 96 94  1  0
M  ISO  4  13 100  21 100  56 101  57 101
M  END
>  <TORSDO>  (69) 
F 24

>  <SCORE>  (69) 
-12.578

>  <name>  (69) 
68

>  <ligand_id>  (69) 
68

>  <original_smiles>  (69) 
[H]c1c([H])c([H])c2c(c1[H])C([H])([H])C([H])([H])C([H])([H])C2([H])N([H])C(=O)C1([H])N(C(=O)C([H])(N([H])C(=O)C([H])(N([H])C([H])([H])[H])C([H])([H])[H])C(C([H])([H])[H])(C([H])([H])[H])C([H])([H])[H])C([H])([H])c2c([H])c(OC([H])([H])C(=O)C([H])(C([H])([H])[H])C([H])([H])c3c([H])c(C([H])([H])C([H])([H])C([H])([H])N([H])C(=O)N4C([H])([H])C([H])([H])C([H])([H])C([H])(n5nc(-c6c([H])c([H])c(Oc7c([H])c([H])c(F)c([H])c7F)c([H])c6[H])c(C(=O)N([H])[H])c5N([H])[H])C4([H])[H])c([H])c(C([H])([H])C([H])([H])[H])c3C([H])([H])[H])c([H])c([H])c2C1([H])[H]

>  <smiles>  (69) 
[H]c1c([H])c([H])c2c(c1[H])C([H])([H])C([H])([H])C([H])([H])C2([H])N([H])C(=O)C1([H])N(C(=O)C([H])(N([H])C(=O)C([H])(N([H])C([H])([H])[H])C([H])([H])[H])C(C([H])([H])[H])(C([H])([H])[H])C([H])([H])[H])C([H])([H])c2c([H])c(OC([H])([H])C(=O)C([H])(C([H])([H])[H])C([H])([H])c3c([H])c(C([H])([H])C([H])([H])C([H])([H])N([H])C(=O)N4C([H])([H])C([H])([H])C([H])([H])C([H])(n5nc(-c6c([H])c([H])c(Oc7c([H])c([H])c(F)c([H])c7F)c([H])c6[H])c(C(=O)N([H])[H])c5N([H])[H])C4([H])[H])c([H])c(C([H])([H])C([H])([H])[H])c3C([H])([H])[H])c([H])c([H])c2C1([H])[H]

$$$$
69:0:0
     RDKit          3D

 92101  0  0  1  0  0  0  0  0999 V2000
  -29.5020  -20.6280   21.4860 C   0  0  0  0  0  2  0  0  0  0  0  0
  -27.8760  -20.1990   19.8140 C   0  0  0  0  0  2  0  0  0  0  0  0
  -28.7910  -21.9760   21.2030 C   0  0  0  0  0  3  0  0  0  0  0  0
  -27.7710  -21.6890   20.1550 C   0  0  0  0  0  3  0  0  0  0  0  0
  -28.7930  -22.8020   19.9040 C   0  0  0  0  0  3  0  0  0  0  0  0
  -29.2430  -19.6180   20.3070 C   0  0  1  0  0  0  0  0  0  0  0  0
  -30.2850  -19.7430   19.1670 C   0  0  0  0  0  0  0  0  0  0  0  0
  -31.6940  -20.2100   19.5030 C   0  0  0  0  0  1  0  0  0  0  0  0
  -30.0250  -19.3700   18.0230 O   0  0  0  0  0  0  0  0  0  0  0  0
  -28.2280  -24.2510   19.7350 C   0  0  0  0  0  2  0  0  0  0  0  0
  -28.9040  -25.4170   20.5290 C   0  0  0  0  0  2  0  0  0  0  0  0
  -28.7650  -26.7900   20.0500 O   0  0  0  0  0  0  0  0  0  0  0  0
  -24.6390  -31.7620   23.1960 C   0  0  0  0  0  0  0  0  0  0  0  0
  -27.5520  -27.4590   20.1180 C   0  0  0  0  0  0  0  0  0  0  0  0
  -23.5460  -30.3650   21.4780 C   0  0  0  0  0  3  0  0  0  0  0  0
  -25.1050  -28.9030   20.0830 C   0  0  0  0  0  0  0  0  0  0  0  0
  -26.0670  -30.8120   21.3750 C   0  0  0  0  0  2  0  0  0  0  0  0
  -26.2280  -29.4520   20.7160 C   0  0  0  0  0  0  0  0  0  0  0  0
  -27.4570  -28.7420   20.7200 C   0  0  0  0  0  3  0  0  0  0  0  0
  -26.4080  -26.9330   19.4860 C   0  0  0  0  0  3  0  0  0  0  0  0
  -25.1890  -27.6400   19.4720 C   0  0  0  0  0  3  0  0  0  0  0  0
  -23.8380  -29.7320   20.0900 C   0  0  0  0  0  2  0  0  0  0  0  0
  -24.7680  -30.9950   22.0760 N   0  0  0  0  0  0  0  0  0  0  0  0
  -23.5300  -31.9780   23.7060 O   0  0  0  0  0  0  0  0  0  0  0  0
  -22.8950  -29.2990   22.3880 C   0  0  0  0  0  0  0  0  0  0  0  0
  -21.5780  -29.0870   22.2250 N   0  0  0  0  0  0  0  0  0  0  0  0
  -23.5740  -28.6650   23.1990 O   0  0  0  0  0  0  0  0  0  0  0  0
  -21.0870  -29.6580   21.5520 H   0  0  0  0  0  0  0  0  0  0  0  0
  -18.2170  -27.8230   22.6440 C   0  0  0  0  0  0  0  0  0  0  0  0
  -20.7720  -28.1000   22.9400 C   0  0  0  0  0  3  0  0  0  0  0  0
  -20.8980  -26.7020   22.2920 C   0  0  0  0  0  2  0  0  0  0  0  0
  -19.8020  -26.4140   21.2610 C   0  0  0  0  0  2  0  0  0  0  0  0
  -18.4150  -26.5110   21.9020 C   0  0  0  0  0  2  0  0  0  0  0  0
  -19.3250  -28.5750   23.1180 C   0  0  0  0  0  0  0  0  0  0  0  0
  -19.0870  -29.8050   23.7720 C   0  0  0  0  0  3  0  0  0  0  0  0
  -17.7760  -30.2800   23.9600 C   0  0  0  0  0  3  0  0  0  0  0  0
  -16.6830  -29.5220   23.5060 C   0  0  0  0  0  3  0  0  0  0  0  0
  -16.9040  -28.2980   22.8500 C   0  0  0  0  0  3  0  0  0  0  0  0
  -25.8770  -32.4270   23.8760 C   0  0  0  0  0  3  0  0  0  0  0  0
  -25.5190  -33.8170   24.1900 N   0  0  0  0  0  0  0  0  0  0  0  0
  -25.8540  -34.8750   23.4390 C   0  0  0  0  0  0  0  0  0  0  0  0
  -26.5660  -34.7850   22.4350 O   0  0  0  0  0  0  0  0  0  0  0  0
  -24.8920  -33.9620   24.9700 H   0  0  0  0  0  0  0  0  0  0  0  0
  -24.1000  -36.6230   23.0100 C   0  0  0  0  0  1  0  0  0  0  0  0
  -25.3160  -36.2530   23.8720 C   0  0  0  0  0  3  0  0  0  0  0  0
  -27.3900  -37.2000   24.7870 C   0  0  0  0  0  1  0  0  0  0  0  0
  -26.3270  -37.3310   23.7950 N   0  0  0  0  0  0  0  0  0  0  0  0
  -25.8900  -38.2410   23.9180 H   0  0  0  0  0  0  0  0  0  0  0  0
  -26.3530  -31.6650   25.1740 C   0  0  1  0  0  0  0  0  0  0  0  0
  -25.2200  -31.3840   26.1860 C   0  0  0  0  0  1  0  0  0  0  0  0
  -26.9920  -30.3060   24.8020 C   0  0  0  0  0  1  0  0  0  0  0  0
  -27.4440  -32.4860   25.8960 C   0  0  0  0  0  1  0  0  0  0  0  0
  -29.1220  -18.0590   20.6810 C   0  0  0  0  0  3  0  0  0  0  0  0
  -30.3990  -17.1100   20.7070 C   0  0  0  0  0  3  0  0  0  0  0  0
  -30.9180  -14.6220   20.3790 C   0  0  0  0  0  0  0  0  0  0  0  0
  -30.7010  -12.3970   19.2830 C   0  0  0  0  0  2  0  0  0  0  0  0
  -29.7830  -12.5760   18.0570 C   0  0  0  0  0  2  0  0  0  0  0  0
  -28.3030  -12.4210   18.4630 C   0  0  0  0  0  2  0  0  0  0  0  0
  -27.9450  -13.2880   19.7040 C   0  0  0  0  0  3  0  0  0  0  0  0
  -28.9770  -13.0880   20.8350 C   0  0  0  0  0  2  0  0  0  0  0  0
  -30.3020  -13.4070   20.2840 N   0  0  0  0  0  0  0  0  0  0  0  0
  -32.0530  -14.8150   19.9340 O   0  0  0  0  0  0  0  0  0  0  0  0
  -30.1310  -15.6450   20.8250 N   0  0  0  0  0  0  0  0  0  0  0  0
  -29.2160  -15.3790   21.1570 H   0  0  0  0  0  0  0  0  0  0  0  0
  -25.5610  -13.9330   20.4070 C   0  0  0  0  0  0  0  0  0  0  0  0
  -24.4840  -13.1790   20.7740 C   0  0  0  0  0  0  0  0  0  0  0  0
  -24.9240  -11.8190   20.7450 C   0  0  0  0  0  0  0  0  0  0  0  0
  -26.5900  -13.0340   20.1750 N   0  0  0  0  0  0  0  0  0  0  0  0
  -26.2100  -11.7570   20.4350 N   0  0  0  0  0  0  0  0  0  0  0  0
  -24.1770  -10.5700   20.9390 C   0  0  0  0  0  0  0  0  0  0  0  0
  -24.5670   -9.6200   21.9100 C   0  0  0  0  0  3  0  0  0  0  0  0
  -23.8190   -8.4350   22.0890 C   0  0  0  0  0  3  0  0  0  0  0  0
  -22.6700   -8.1930   21.2990 C   0  0  0  0  0  0  0  0  0  0  0  0
  -22.3040   -9.1300   20.3190 C   0  0  0  0  0  3  0  0  0  0  0  0
  -23.0500  -10.3050   20.1370 C   0  0  0  0  0  3  0  0  0  0  0  0
  -21.8980   -7.0610   21.3850 O   0  0  0  0  0  0  0  0  0  0  0  0
  -21.7620   -6.3730   22.5620 C   0  0  0  0  0  0  0  0  0  0  0  0
  -21.2200   -6.9720   23.7210 C   0  0  0  0  0  3  0  0  0  0  0  0
  -21.0380   -6.2080   24.8900 C   0  0  0  0  0  3  0  0  0  0  0  0
  -21.3810   -4.8420   24.9010 C   0  0  0  0  0  0  0  0  0  0  0  0
  -21.9140   -4.2430   23.7460 C   0  0  0  0  0  3  0  0  0  0  0  0
  -22.1030   -5.0070   22.5800 C   0  0  0  0  0  0  0  0  0  0  0  0
  -22.5970   -4.4190   21.4650 F   0  0  0  0  0  0  0  0  0  0  0  0
  -21.1980   -4.1060   26.0220 F   0  0  0  0  0  0  0  0  0  0  0  0
  -23.0940  -13.6770   21.0460 C   0  0  0  0  0  0  0  0  0  0  0  0
  -22.3620  -13.0010   21.9210 N   0  0  0  0  0  0  0  0  0  0  0  0
  -22.6720  -14.7060   20.5170 O   0  0  0  0  0  0  0  0  0  0  0  0
  -22.7140  -12.1660   22.3670 H   0  0  0  0  0  0  0  0  0  0  0  0
  -21.4300  -13.3170   22.1470 H   0  0  0  0  0  0  0  0  0  0  0  0
  -25.7480  -15.3040   20.2310 N   0  0  0  0  0  0  0  0  0  0  0  0
  -24.9750  -15.9550   20.2910 H   0  0  0  0  0  0  0  0  0  0  0  0
  -26.6030  -15.7360   19.9030 H   0  0  0  0  0  0  0  0  0  0  0  0
  2  6  1  0
  3  1  1  0
  4  2  1  0
  4  3  1  0
  5 10  1  0
  5  4  1  0
  5  3  1  0
  6 53  1  1
  6  1  1  0
  7  8  1  0
  7  6  1  0
  9  7  2  0
 10 11  1  0
 12 14  1  0
 12 11  1  0
 13 24  2  0
 14 19  1  0
 15 23  1  0
 15 25  1  0
 16 22  1  0
 16 18  1  0
 17 23  1  0
 18 19  2  0
 18 17  1  0
 20 14  2  0
 21 20  1  0
 21 16  2  0
 22 15  1  0
 23 13  1  0
 25 27  2  0
 26 25  1  0
 28 26  1  0
 29 38  2  0
 29 34  1  0
 30 26  1  0
 30 34  1  0
 31 30  1  0
 32 33  1  0
 32 31  1  0
 33 29  1  0
 34 35  2  0
 35 36  1  0
 37 36  2  0
 38 37  1  0
 39 13  1  0
 39 40  1  0
 39 49  1  0
 40 43  1  0
 41 45  1  0
 41 40  1  0
 42 41  2  0
 45 44  1  0
 47 45  1  0
 47 48  1  0
 47 46  1  0
 49 52  1  1
 49 50  1  0
 51 49  1  0
 53 54  2  0
 54 63  1  0
 55 63  1  0
 56 61  1  0
 57 58  1  0
 57 56  1  0
 59 58  1  0
 59 68  1  0
 59 60  1  0
 61 55  1  0
 61 60  1  0
 62 55  2  0
 63 64  1  0
 65 66  2  0
 66 85  1  0
 67 66  1  0
 67 70  1  0
 68 65  1  0
 68 69  1  0
 69 67  2  0
 70 71  1  0
 71 72  2  0
 73 76  1  0
 73 72  1  0
 74 73  2  0
 75 74  1  0
 75 70  2  0
 76 77  1  0
 77 82  2  0
 77 78  1  0
 78 79  2  0
 79 80  1  0
 80 84  1  0
 81 80  2  0
 82 81  1  0
 83 82  1  0
 85 86  1  0
 86 89  1  0
 86 88  1  0
 87 85  2  0
 90 91  1  0
 90 65  1  0
 92 90  1  0
M  ISO  4  11 101  12 101  55 100  63 100
M  END
>  <TORSDO>  (70) 
F 21

>  <SCORE>  (70) 
-13.308

>  <name>  (70) 
69

>  <ligand_id>  (70) 
69

>  <original_smiles>  (70) 
[H]c1c([H])c([H])c2c(c1[H])C([H])([H])C([H])([H])C([H])([H])C2([H])N([H])C(=O)C1([H])N(C(=O)C([H])(N([H])C(=O)C([H])(N([H])C([H])([H])[H])C([H])([H])[H])C(C([H])([H])[H])(C([H])([H])[H])C([H])([H])[H])C([H])([H])c2c([H])c(OC([H])([H])C([H])([H])C3([H])C4([H])C([H])([H])C(C(=O)C([H])([H])[H])(C([H])([H])C([H])([H])N([H])C(=O)N5C([H])([H])C([H])([H])C([H])([H])C([H])(n6nc(-c7c([H])c([H])c(Oc8c([H])c([H])c(F)c([H])c8F)c([H])c7[H])c(C(=O)N([H])[H])c6N([H])[H])C5([H])[H])C([H])([H])C34[H])c([H])c([H])c2C1([H])[H]

>  <smiles>  (70) 
[H]c1c([H])c([H])c2c(c1[H])C([H])([H])C([H])([H])C([H])([H])C2([H])N([H])C(=O)C1([H])N(C(=O)C([H])(N([H])C(=O)C([H])(N([H])C([H])([H])[H])C([H])([H])[H])C(C([H])([H])[H])(C([H])([H])[H])C([H])([H])[H])C([H])([H])c2c([H])c(OC([H])([H])C([H])([H])C3([H])C4([H])C([H])([H])C(C(=O)C([H])([H])[H])(C([H])([H])C([H])([H])N([H])C(=O)N5C([H])([H])C([H])([H])C([H])([H])C([H])(n6nc(-c7c([H])c([H])c(Oc8c([H])c([H])c(F)c([H])c8F)c([H])c7[H])c(C(=O)N([H])[H])c6N([H])[H])C5([H])[H])C([H])([H])C34[H])c([H])c([H])c2C1([H])[H]

$$$$
70:0:0
     RDKit          3D

 94103  0  0  1  0  0  0  0  0999 V2000
  -31.9020  -21.0830   21.7560 C   0  0  0  0  0  2  0  0  0  0  0  0
  -30.8450  -18.9970   23.8650 C   0  0  0  0  0  2  0  0  0  0  0  0
  -31.7680  -18.1770   22.9630 C   0  0  0  0  0  2  0  0  0  0  0  0
  -29.5850  -18.4170   21.8000 C   0  0  0  0  0  2  0  0  0  0  0  0
  -29.9510  -19.5520   22.7740 C   0  0  0  0  0  3  0  0  0  0  0  0
  -30.7990  -20.0340   21.5780 C   0  0  0  0  0  3  0  0  0  0  0  0
  -31.1160  -18.5150   21.6180 C   0  0  1  0  0  0  0  0  0  0  0  0
  -31.7890  -17.8550   20.4130 C   0  0  0  0  0  2  0  0  0  0  0  0
  -31.3430  -16.4050   20.1330 C   0  0  0  0  0  2  0  0  0  0  0  0
  -32.6570  -14.3720   19.7930 C   0  0  0  0  0  0  0  0  0  0  0  0
  -32.0030  -12.1690   18.9070 C   0  0  0  0  0  2  0  0  0  0  0  0
  -31.0260  -12.3150   17.7260 C   0  0  0  0  0  2  0  0  0  0  0  0
  -29.5760  -12.3680   18.2380 C   0  0  0  0  0  2  0  0  0  0  0  0
  -29.3950  -13.4220   19.3620 C   0  0  0  0  0  3  0  0  0  0  0  0
  -30.4790  -13.2650   20.4550 C   0  0  0  0  0  2  0  0  0  0  0  0
  -31.8020  -13.3150   19.8070 N   0  0  0  0  0  0  0  0  0  0  0  0
  -33.7150  -14.3790   19.1650 O   0  0  0  0  0  0  0  0  0  0  0  0
  -32.3460  -15.4260   20.5560 N   0  0  0  0  0  0  0  0  0  0  0  0
  -33.1880  -15.8900   20.8640 H   0  0  0  0  0  0  0  0  0  0  0  0
  -27.1990  -14.4370   20.2390 C   0  0  0  0  0  0  0  0  0  0  0  0
  -26.0300  -13.8580   20.6550 C   0  0  0  0  0  0  0  0  0  0  0  0
  -26.2310  -12.4480   20.5530 C   0  0  0  0  0  0  0  0  0  0  0  0
  -28.0480  -13.3870   19.9190 N   0  0  0  0  0  0  0  0  0  0  0  0
  -27.4700  -12.1840   20.1620 N   0  0  0  0  0  0  0  0  0  0  0  0
  -25.2970  -11.3320   20.7470 C   0  0  0  0  0  0  0  0  0  0  0  0
  -25.5530  -10.3180   21.6950 C   0  0  0  0  0  3  0  0  0  0  0  0
  -24.6340   -9.2620   21.8790 C   0  0  0  0  0  3  0  0  0  0  0  0
  -23.4440   -9.2170   21.1140 C   0  0  0  0  0  0  0  0  0  0  0  0
  -23.2060  -10.2170   20.1540 C   0  0  0  0  0  3  0  0  0  0  0  0
  -24.1240  -11.2650   19.9700 C   0  0  0  0  0  3  0  0  0  0  0  0
  -22.5050   -8.2170   21.2080 O   0  0  0  0  0  0  0  0  0  0  0  0
  -22.2250   -7.6020   22.3990 C   0  0  0  0  0  0  0  0  0  0  0  0
  -21.7690   -8.3250   23.5240 C   0  0  0  0  0  3  0  0  0  0  0  0
  -21.4280   -7.6420   24.7080 C   0  0  0  0  0  3  0  0  0  0  0  0
  -21.5290   -6.2400   24.7670 C   0  0  0  0  0  0  0  0  0  0  0  0
  -21.9770   -5.5170   23.6470 C   0  0  0  0  0  3  0  0  0  0  0  0
  -22.3210   -6.1960   22.4650 C   0  0  0  0  0  0  0  0  0  0  0  0
  -22.7310   -5.4940   21.3820 F   0  0  0  0  0  0  0  0  0  0  0  0
  -21.1930   -5.5830   25.9020 F   0  0  0  0  0  0  0  0  0  0  0  0
  -24.7630  -14.5700   21.0320 C   0  0  0  0  0  0  0  0  0  0  0  0
  -23.9800  -13.9920   21.9380 N   0  0  0  0  0  0  0  0  0  0  0  0
  -24.4840  -15.6710   20.5590 O   0  0  0  0  0  0  0  0  0  0  0  0
  -24.2230  -13.1030   22.3490 H   0  0  0  0  0  0  0  0  0  0  0  0
  -23.1250  -14.4480   22.2260 H   0  0  0  0  0  0  0  0  0  0  0  0
  -27.5980  -15.7600   20.0910 N   0  0  0  0  0  0  0  0  0  0  0  0
  -26.9590  -16.5290   20.2570 H   0  0  0  0  0  0  0  0  0  0  0  0
  -28.4910  -16.0610   19.7240 H   0  0  0  0  0  0  0  0  0  0  0  0
  -32.8090  -21.1960   20.5130 C   0  0  0  0  0  2  0  0  0  0  0  0
  -33.2450  -22.6300   20.1470 C   0  0  0  0  0  2  0  0  0  0  0  0
  -32.2210  -23.4420   19.3160 C   0  0  0  0  0  2  0  0  0  0  0  0
  -31.0100  -23.9750   20.1080 C   0  0  0  0  0  2  0  0  0  0  0  0
  -30.1880  -25.0120   19.3290 C   0  0  0  0  0  2  0  0  0  0  0  0
  -29.0090  -25.5860   20.1420 C   0  0  0  0  0  2  0  0  0  0  0  0
  -28.8620  -26.9570   19.7920 O   0  0  0  0  0  0  0  0  0  0  0  0
  -24.6310  -31.5660   23.1470 C   0  0  0  0  0  0  0  0  0  0  0  0
  -27.6110  -27.5190   19.8760 C   0  0  0  0  0  0  0  0  0  0  0  0
  -23.5320  -30.1630   21.4300 C   0  0  0  0  0  3  0  0  0  0  0  0
  -25.1000  -28.8120   19.9420 C   0  0  0  0  0  0  0  0  0  0  0  0
  -26.0200  -30.7270   21.2610 C   0  0  0  0  0  2  0  0  0  0  0  0
  -26.2100  -29.4030   20.5570 C   0  0  0  0  0  0  0  0  0  0  0  0
  -27.4680  -28.7680   20.5150 C   0  0  0  0  0  3  0  0  0  0  0  0
  -26.4840  -26.9270   19.2660 C   0  0  0  0  0  3  0  0  0  0  0  0
  -25.2310  -27.5720   19.2920 C   0  0  0  0  0  3  0  0  0  0  0  0
  -23.7910  -29.5670   20.0200 C   0  0  0  0  0  2  0  0  0  0  0  0
  -24.7440  -30.8290   22.0060 N   0  0  0  0  0  0  0  0  0  0  0  0
  -23.5320  -31.7290   23.6960 O   0  0  0  0  0  0  0  0  0  0  0  0
  -22.9630  -29.0470   22.3370 C   0  0  0  0  0  0  0  0  0  0  0  0
  -21.6600  -28.7630   22.1820 N   0  0  0  0  0  0  0  0  0  0  0  0
  -23.6890  -28.4410   23.1300 O   0  0  0  0  0  0  0  0  0  0  0  0
  -21.1310  -29.3060   21.5120 H   0  0  0  0  0  0  0  0  0  0  0  0
  -18.3920  -27.2830   22.5760 C   0  0  0  0  0  0  0  0  0  0  0  0
  -20.9150  -27.7310   22.9020 C   0  0  0  0  0  3  0  0  0  0  0  0
  -21.1420  -26.3390   22.2680 C   0  0  0  0  0  2  0  0  0  0  0  0
  -20.0830  -25.9740   21.2240 C   0  0  0  0  0  2  0  0  0  0  0  0
  -18.6850  -25.9820   21.8500 C   0  0  0  0  0  2  0  0  0  0  0  0
  -19.4400  -28.1110   23.0590 C   0  0  0  0  0  0  0  0  0  0  0  0
  -19.1120  -29.3270   23.6940 C   0  0  0  0  0  3  0  0  0  0  0  0
  -17.7690  -29.7170   23.8580 C   0  0  0  0  0  3  0  0  0  0  0  0
  -16.7360  -28.8840   23.3940 C   0  0  0  0  0  3  0  0  0  0  0  0
  -17.0480  -27.6700   22.7570 C   0  0  0  0  0  3  0  0  0  0  0  0
  -25.8670  -32.2550   23.8040 C   0  0  0  0  0  3  0  0  0  0  0  0
  -26.3940  -31.5020   25.0880 C   0  0  1  0  0  0  0  0  0  0  0  0
  -25.2890  -31.2010   26.1240 C   0  0  0  0  0  1  0  0  0  0  0  0
  -27.0570  -30.1600   24.6990 C   0  0  0  0  0  1  0  0  0  0  0  0
  -27.4830  -32.3530   25.7860 C   0  0  0  0  0  1  0  0  0  0  0  0
  -25.4820  -33.6340   24.1300 N   0  0  0  0  0  0  0  0  0  0  0  0
  -25.7950  -34.7060   23.3910 C   0  0  0  0  0  0  0  0  0  0  0  0
  -26.5150  -34.6430   22.3900 O   0  0  0  0  0  0  0  0  0  0  0  0
  -24.8490  -33.7560   24.9070 H   0  0  0  0  0  0  0  0  0  0  0  0
  -23.9980  -36.4090   22.9740 C   0  0  0  0  0  1  0  0  0  0  0  0
  -25.2210  -36.0630   23.8360 C   0  0  0  0  0  3  0  0  0  0  0  0
  -27.2700  -37.0440   24.7650 C   0  0  0  0  0  1  0  0  0  0  0  0
  -26.2040  -37.1670   23.7750 N   0  0  0  0  0  0  0  0  0  0  0  0
  -25.7460  -38.0640   23.9120 H   0  0  0  0  0  0  0  0  0  0  0  0
  3  2  1  0
  5  4  1  0
  5  2  1  0
  6  7  1  0
  6  1  1  0
  6  5  1  0
  7  8  1  6
  7  4  1  0
  7  3  1  0
  9  8  1  0
  9 18  1  0
 10 16  1  0
 10 18  1  0
 11 16  1  0
 12 13  1  0
 12 11  1  0
 14 13  1  0
 14 23  1  0
 14 15  1  0
 16 15  1  0
 17 10  2  0
 18 19  1  0
 20 21  2  0
 21 40  1  0
 22 21  1  0
 22 25  1  0
 23 24  1  0
 23 20  1  0
 24 22  2  0
 25 26  1  0
 26 27  2  0
 28 31  1  0
 28 27  1  0
 29 28  2  0
 30 29  1  0
 30 25  2  0
 31 32  1  0
 32 37  2  0
 32 33  1  0
 33 34  2  0
 34 35  1  0
 35 39  1  0
 36 35  2  0
 37 36  1  0
 38 37  1  0
 40 41  1  0
 41 44  1  0
 41 43  1  0
 42 40  2  0
 45 20  1  0
 45 46  1  0
 47 45  1  0
 48  1  1  0
 49 48  1  0
 50 51  1  0
 50 49  1  0
 52 51  1  0
 52 53  1  0
 54 56  1  0
 54 53  1  0
 55 66  2  0
 56 61  1  0
 57 65  1  0
 57 67  1  0
 58 64  1  0
 58 60  1  0
 59 65  1  0
 60 59  1  0
 61 60  2  0
 62 63  1  0
 62 56  2  0
 63 58  2  0
 64 57  1  0
 65 55  1  0
 67 69  2  0
 68 67  1  0
 70 68  1  0
 71 80  2  0
 71 76  1  0
 72 68  1  0
 72 76  1  0
 73 72  1  0
 74 75  1  0
 74 73  1  0
 75 71  1  0
 76 77  2  0
 77 78  1  0
 79 78  2  0
 80 79  1  0
 81 55  1  0
 81 86  1  0
 81 82  1  0
 82 85  1  1
 82 83  1  0
 84 82  1  0
 86 89  1  0
 87 91  1  0
 87 86  1  0
 88 87  2  0
 91 90  1  0
 93 91  1  0
 93 94  1  0
 93 92  1  0
M  ISO  4  10 100  18 100  53 101  54 101
M  END
>  <TORSDO>  (71) 
F 25

>  <SCORE>  (71) 
-7.383

>  <name>  (71) 
70

>  <ligand_id>  (71) 
70

>  <original_smiles>  (71) 
[H]c1c([H])c([H])c2c(c1[H])C([H])([H])C([H])([H])C([H])([H])C2([H])N([H])C(=O)C1([H])N(C(=O)C([H])(N([H])C(=O)C([H])(N([H])C([H])([H])[H])C([H])([H])[H])C(C([H])([H])[H])(C([H])([H])[H])C([H])([H])[H])C([H])([H])c2c([H])c(OC([H])([H])C([H])([H])C([H])([H])C([H])([H])C([H])([H])C([H])([H])C([H])([H])C3([H])C4([H])C([H])([H])C([H])([H])C3(C([H])([H])C([H])([H])N([H])C(=O)N3C([H])([H])C([H])([H])C([H])([H])C([H])(n5nc(-c6c([H])c([H])c(Oc7c([H])c([H])c(F)c([H])c7F)c([H])c6[H])c(C(=O)N([H])[H])c5N([H])[H])C3([H])[H])C4([H])[H])c([H])c([H])c2C1([H])[H]

>  <smiles>  (71) 
[H]c1c([H])c([H])c2c(c1[H])C([H])([H])C([H])([H])C([H])([H])C2([H])N([H])C(=O)C1([H])N(C(=O)C([H])(N([H])C(=O)C([H])(N([H])C([H])([H])[H])C([H])([H])[H])C(C([H])([H])[H])(C([H])([H])[H])C([H])([H])[H])C([H])([H])c2c([H])c(OC([H])([H])C([H])([H])C([H])([H])C([H])([H])C([H])([H])C([H])([H])C([H])([H])C3([H])C4([H])C([H])([H])C([H])([H])C3(C([H])([H])C([H])([H])N([H])C(=O)N3C([H])([H])C([H])([H])C([H])([H])C([H])(n5nc(-c6c([H])c([H])c(Oc7c([H])c([H])c(F)c([H])c7F)c([H])c6[H])c(C(=O)N([H])[H])c5N([H])[H])C3([H])[H])C4([H])[H])c([H])c([H])c2C1([H])[H]

$$$$
71:0:0
     RDKit          3D

 92101  0  0  1  0  0  0  0  0999 V2000
  -27.9550  -20.1830   20.7230 C   0  0  0  0  0  2  0  0  0  0  0  0
  -27.6910  -21.7650   20.9450 C   0  0  0  0  0  2  0  0  0  0  0  0
  -29.5240  -21.4200   19.5440 C   0  0  0  0  0  3  0  0  0  0  0  0
  -29.4110  -19.8600   20.2690 C   0  0  0  0  0  3  0  0  0  0  0  0
  -28.7570  -22.7470   20.3140 C   0  0  0  0  0  3  0  0  0  0  0  0
  -33.6320  -22.4810   18.5970 C   0  0  0  0  0  3  0  0  0  0  0  0
  -32.6490  -22.4860   17.5870 C   0  0  0  0  0  3  0  0  0  0  0  0
  -33.2820  -22.1260   19.9140 C   0  0  0  0  0  3  0  0  0  0  0  0
  -31.3200  -22.1320   17.8940 C   0  0  0  0  0  3  0  0  0  0  0  0
  -31.9520  -21.7770   20.2220 C   0  0  0  0  0  3  0  0  0  0  0  0
  -30.9650  -21.7730   19.2130 C   0  0  0  0  0  0  0  0  0  0  0  0
  -29.9150  -18.2370   19.6390 C   0  0  0  0  0  2  0  0  0  0  0  0
  -30.5070  -15.3670   19.9230 C   0  0  0  0  0  0  0  0  0  0  0  0
  -30.4320  -12.9210   19.0650 C   0  0  0  0  0  2  0  0  0  0  0  0
  -29.4550  -12.7310   17.8760 C   0  0  0  0  0  2  0  0  0  0  0  0
  -28.0280  -12.4670   18.3810 C   0  0  0  0  0  2  0  0  0  0  0  0
  -27.6350  -13.4250   19.5320 C   0  0  0  0  0  3  0  0  0  0  0  0
  -28.7340  -13.5620   20.6090 C   0  0  0  0  0  2  0  0  0  0  0  0
  -29.9390  -14.0600   19.9270 N   0  0  0  0  0  0  0  0  0  0  0  0
  -31.6950  -15.3700   19.5730 O   0  0  0  0  0  0  0  0  0  0  0  0
  -29.7640  -16.6390   20.1060 N   0  0  0  0  0  0  0  0  0  0  0  0
  -28.8360  -16.4470   20.4550 H   0  0  0  0  0  0  0  0  0  0  0  0
  -25.3060  -13.9840   20.4070 C   0  0  0  0  0  0  0  0  0  0  0  0
  -24.2600  -13.2080   20.8190 C   0  0  0  0  0  0  0  0  0  0  0  0
  -24.7180  -11.8560   20.7480 C   0  0  0  0  0  0  0  0  0  0  0  0
  -26.3310  -13.1080   20.1010 N   0  0  0  0  0  0  0  0  0  0  0  0
  -25.9930  -11.8210   20.3730 N   0  0  0  0  0  0  0  0  0  0  0  0
  -23.9950  -10.5940   20.9580 C   0  0  0  0  0  0  0  0  0  0  0  0
  -24.4490   -9.6250   21.8790 C   0  0  0  0  0  3  0  0  0  0  0  0
  -23.7220   -8.4300   22.0780 C   0  0  0  0  0  3  0  0  0  0  0  0
  -22.5270   -8.1970   21.3570 C   0  0  0  0  0  0  0  0  0  0  0  0
  -22.0920   -9.1560   20.4250 C   0  0  0  0  0  3  0  0  0  0  0  0
  -22.8200  -10.3420   20.2230 C   0  0  0  0  0  3  0  0  0  0  0  0
  -21.7700   -7.0560   21.4660 O   0  0  0  0  0  0  0  0  0  0  0  0
  -21.7400   -6.3210   22.6240 C   0  0  0  0  0  0  0  0  0  0  0  0
  -21.3040   -6.8750   23.8480 C   0  0  0  0  0  3  0  0  0  0  0  0
  -21.2210   -6.0650   24.9980 C   0  0  0  0  0  3  0  0  0  0  0  0
  -21.5650   -4.7020   24.9270 C   0  0  0  0  0  0  0  0  0  0  0  0
  -21.9950   -4.1470   23.7080 C   0  0  0  0  0  3  0  0  0  0  0  0
  -22.0780   -4.9550   22.5600 C   0  0  0  0  0  0  0  0  0  0  0  0
  -22.4730   -4.4090   21.3840 F   0  0  0  0  0  0  0  0  0  0  0  0
  -21.4790   -3.9220   26.0290 F   0  0  0  0  0  0  0  0  0  0  0  0
  -22.8790  -13.6870   21.1580 C   0  0  0  0  0  0  0  0  0  0  0  0
  -22.1870  -12.9840   22.0490 N   0  0  0  0  0  0  0  0  0  0  0  0
  -22.4260  -14.7220   20.6720 O   0  0  0  0  0  0  0  0  0  0  0  0
  -22.5700  -12.1490   22.4640 H   0  0  0  0  0  0  0  0  0  0  0  0
  -21.2630  -13.2880   22.3170 H   0  0  0  0  0  0  0  0  0  0  0  0
  -25.4660  -15.3570   20.2400 N   0  0  0  0  0  0  0  0  0  0  0  0
  -24.7080  -16.0120   20.4050 H   0  0  0  0  0  0  0  0  0  0  0  0
  -26.2910  -15.7980   19.8540 H   0  0  0  0  0  0  0  0  0  0  0  0
  -28.1500  -24.3570   19.7400 C   0  0  0  0  0  2  0  0  0  0  0  0
  -28.2700  -25.9490   20.1600 O   0  0  0  0  0  0  0  0  0  0  0  0
  -24.6960  -31.8630   23.1640 C   0  0  0  0  0  0  0  0  0  0  0  0
  -27.2570  -27.0410   20.0700 C   0  0  0  0  0  0  0  0  0  0  0  0
  -23.4970  -30.4820   21.5140 C   0  0  0  0  0  3  0  0  0  0  0  0
  -24.9470  -28.9060   20.0590 C   0  0  0  0  0  0  0  0  0  0  0  0
  -26.0610  -30.7090   21.3560 C   0  0  0  0  0  2  0  0  0  0  0  0
  -26.1330  -29.3090   20.6820 C   0  0  0  0  0  0  0  0  0  0  0  0
  -27.2800  -28.3950   20.6680 C   0  0  0  0  0  3  0  0  0  0  0  0
  -26.0440  -26.7960   19.3860 C   0  0  0  0  0  3  0  0  0  0  0  0
  -24.9270  -27.6720   19.3900 C   0  0  0  0  0  3  0  0  0  0  0  0
  -23.7220  -29.8180   20.1280 C   0  0  0  0  0  2  0  0  0  0  0  0
  -24.7730  -31.0450   22.0650 N   0  0  0  0  0  0  0  0  0  0  0  0
  -23.6080  -32.1410   23.6950 O   0  0  0  0  0  0  0  0  0  0  0  0
  -22.8150  -29.4700   22.4710 C   0  0  0  0  0  0  0  0  0  0  0  0
  -21.4830  -29.3080   22.3590 N   0  0  0  0  0  0  0  0  0  0  0  0
  -23.4900  -28.8320   23.2840 O   0  0  0  0  0  0  0  0  0  0  0  0
  -20.9930  -29.8740   21.6810 H   0  0  0  0  0  0  0  0  0  0  0  0
  -18.1040  -28.1020   22.8940 C   0  0  0  0  0  0  0  0  0  0  0  0
  -20.6680  -28.3600   23.1240 C   0  0  0  0  0  3  0  0  0  0  0  0
  -20.7580  -26.9380   22.5220 C   0  0  0  0  0  2  0  0  0  0  0  0
  -19.6410  -26.6370   21.5180 C   0  0  0  0  0  2  0  0  0  0  0  0
  -18.2690  -26.7680   22.1860 C   0  0  0  0  0  2  0  0  0  0  0  0
  -19.2300  -28.8570   23.3200 C   0  0  0  0  0  0  0  0  0  0  0  0
  -19.0190  -30.1040   23.9480 C   0  0  0  0  0  3  0  0  0  0  0  0
  -17.7170  -30.5970   24.1500 C   0  0  0  0  0  3  0  0  0  0  0  0
  -16.6070  -29.8410   23.7360 C   0  0  0  0  0  3  0  0  0  0  0  0
  -16.8010  -28.5940   23.1150 C   0  0  0  0  0  3  0  0  0  0  0  0
  -25.9670  -32.5040   23.7970 C   0  0  0  0  0  3  0  0  0  0  0  0
  -26.4730  -31.7360   25.0810 C   0  0  1  0  0  0  0  0  0  0  0  0
  -25.3720  -31.5040   26.1430 C   0  0  0  0  0  1  0  0  0  0  0  0
  -27.0560  -30.3560   24.7040 C   0  0  0  0  0  1  0  0  0  0  0  0
  -27.6210  -32.5290   25.7480 C   0  0  0  0  0  1  0  0  0  0  0  0
  -25.6490  -33.9030   24.1390 N   0  0  0  0  0  0  0  0  0  0  0  0
  -25.9700  -34.9670   23.3910 C   0  0  0  0  0  0  0  0  0  0  0  0
  -26.6300  -34.8760   22.3530 O   0  0  0  0  0  0  0  0  0  0  0  0
  -25.0630  -34.0450   24.9470 H   0  0  0  0  0  0  0  0  0  0  0  0
  -24.2370  -36.7660   23.0770 C   0  0  0  0  0  1  0  0  0  0  0  0
  -25.4870  -36.3520   23.8700 C   0  0  0  0  0  3  0  0  0  0  0  0
  -27.6250  -37.2390   24.6940 C   0  0  0  0  0  1  0  0  0  0  0  0
  -26.5170  -37.4100   23.7570 N   0  0  0  0  0  0  0  0  0  0  0  0
  -26.1090  -38.3270   23.9140 H   0  0  0  0  0  0  0  0  0  0  0  0
  1  2  1  0
  3 11  1  0
  3  4  1  0
  3  5  1  0
  4 12  1  0
  4  1  1  0
  5 51  1  0
  5  2  1  0
  6  8  1  0
  7  9  1  0
  7  6  2  0
  8 10  2  0
  9 11  2  0
 11 10  1  0
 12 21  1  0
 13 19  1  0
 13 21  1  0
 14 19  1  0
 15 16  1  0
 15 14  1  0
 17 16  1  0
 17 26  1  0
 17 18  1  0
 19 18  1  0
 20 13  2  0
 21 22  1  0
 23 24  2  0
 24 43  1  0
 25 24  1  0
 25 28  1  0
 26 27  1  0
 26 23  1  0
 27 25  2  0
 28 29  1  0
 29 30  2  0
 31 34  1  0
 31 30  1  0
 32 31  2  0
 33 32  1  0
 33 28  2  0
 34 35  1  0
 35 36  1  0
 36 37  2  0
 38 37  1  0
 38 42  1  0
 39 38  2  0
 40 35  2  0
 40 39  1  0
 41 40  1  0
 43 44  1  0
 44 47  1  0
 44 46  1  0
 45 43  2  0
 48 49  1  0
 48 23  1  0
 50 48  1  0
 51 52  1  0
 53 64  2  0
 54 52  1  0
 54 59  1  0
 55 63  1  0
 55 65  1  0
 56 62  1  0
 56 58  1  0
 57 63  1  0
 58 57  1  0
 59 58  2  0
 60 61  1  0
 60 54  2  0
 61 56  2  0
 62 55  1  0
 63 53  1  0
 65 67  2  0
 66 65  1  0
 68 66  1  0
 69 78  2  0
 69 74  1  0
 70 66  1  0
 70 74  1  0
 71 70  1  0
 72 73  1  0
 72 71  1  0
 73 69  1  0
 74 75  2  0
 75 76  1  0
 77 76  2  0
 78 77  1  0
 79 53  1  0
 79 84  1  0
 79 80  1  0
 80 83  1  1
 80 81  1  0
 82 80  1  0
 84 87  1  0
 85 89  1  0
 85 84  1  0
 86 85  2  0
 89 88  1  0
 91 89  1  0
 91 92  1  0
 91 90  1  0
M  ISO  4  13 100  21 100  51 101  52 101
M  END
>  <TORSDO>  (72) 
F 19

>  <SCORE>  (72) 
-15.822

>  <name>  (72) 
71

>  <ligand_id>  (72) 
71

>  <original_smiles>  (72) 
[H]c1c([H])c([H])c(C2([H])C([H])(C([H])([H])Oc3c([H])c([H])c4c(c3[H])C([H])([H])N(C(=O)C([H])(N([H])C(=O)C([H])(N([H])C([H])([H])[H])C([H])([H])[H])C(C([H])([H])[H])(C([H])([H])[H])C([H])([H])[H])C([H])(C(=O)N([H])C3([H])c5c([H])c([H])c([H])c([H])c5C([H])([H])C([H])([H])C3([H])[H])C4([H])[H])C([H])([H])C([H])([H])C2([H])C([H])([H])N([H])C(=O)N2C([H])([H])C([H])([H])C([H])([H])C([H])(n3nc(-c4c([H])c([H])c(Oc5c([H])c([H])c(F)c([H])c5F)c([H])c4[H])c(C(=O)N([H])[H])c3N([H])[H])C2([H])[H])c([H])c1[H]

>  <smiles>  (72) 
[H]c1c([H])c([H])c(C2([H])C([H])(C([H])([H])Oc3c([H])c([H])c4c(c3[H])C([H])([H])N(C(=O)C([H])(N([H])C(=O)C([H])(N([H])C([H])([H])[H])C([H])([H])[H])C(C([H])([H])[H])(C([H])([H])[H])C([H])([H])[H])C([H])(C(=O)N([H])C3([H])c5c([H])c([H])c([H])c([H])c5C([H])([H])C([H])([H])C3([H])[H])C4([H])[H])C([H])([H])C([H])([H])C2([H])C([H])([H])N([H])C(=O)N2C([H])([H])C([H])([H])C([H])([H])C([H])(n3nc(-c4c([H])c([H])c(Oc5c([H])c([H])c(F)c([H])c5F)c([H])c4[H])c(C(=O)N([H])[H])c3N([H])[H])C2([H])[H])c([H])c1[H]

$$$$
72:0:0
     RDKit          3D

 98105  0  0  1  0  0  0  0  0999 V2000
  -28.5570  -19.6970   20.6130 N   0  0  0  0  0  4  0  0  0  0  0  0
  -27.7500  -19.1060   20.7370 H   0  0  0  0  0  0  0  0  0  0  0  0
  -29.1230  -19.5690   21.4380 H   0  0  0  0  0  0  0  0  0  0  0  0
  -29.3410  -19.2310   19.4360 C   0  0  0  0  0  3  0  0  0  0  0  0
  -29.8930  -17.8020   19.6800 C   0  0  0  0  0  2  0  0  0  0  0  0
  -31.0700  -17.7840   20.6810 C   0  0  0  0  0  2  0  0  0  0  0  0
  -32.0460  -16.5980   20.5590 C   0  0  0  0  0  2  0  0  0  0  0  0
  -32.0390  -14.1280   20.3880 C   0  0  0  0  0  0  0  0  0  0  0  0
  -31.5110  -11.9420   19.3910 C   0  0  0  0  0  2  0  0  0  0  0  0
  -30.6460  -12.1740   18.1350 C   0  0  0  0  0  2  0  0  0  0  0  0
  -29.1550  -12.2570   18.5150 C   0  0  0  0  0  2  0  0  0  0  0  0
  -28.8860  -13.2260   19.6990 C   0  0  0  0  0  3  0  0  0  0  0  0
  -29.8620  -12.9610   20.8670 C   0  0  0  0  0  2  0  0  0  0  0  0
  -31.2300  -13.0390   20.3300 N   0  0  0  0  0  0  0  0  0  0  0  0
  -33.2030  -14.1280   19.9760 O   0  0  0  0  0  0  0  0  0  0  0  0
  -31.4380  -15.2750   20.7490 N   0  0  0  0  0  0  0  0  0  0  0  0
  -30.4720  -15.2250   21.0380 H   0  0  0  0  0  0  0  0  0  0  0  0
  -26.5860  -14.1850   20.3360 C   0  0  0  0  0  0  0  0  0  0  0  0
  -25.4030  -13.5820   20.6690 C   0  0  0  0  0  0  0  0  0  0  0  0
  -25.6570  -12.1770   20.6390 C   0  0  0  0  0  0  0  0  0  0  0  0
  -27.4930  -13.1580   20.1330 N   0  0  0  0  0  0  0  0  0  0  0  0
  -26.9340  -11.9440   20.3700 N   0  0  0  0  0  0  0  0  0  0  0  0
  -24.7450  -11.0360   20.7890 C   0  0  0  0  0  0  0  0  0  0  0  0
  -25.0100   -9.9920   21.7050 C   0  0  0  0  0  3  0  0  0  0  0  0
  -24.1050   -8.9190   21.8460 C   0  0  0  0  0  3  0  0  0  0  0  0
  -22.9220   -8.8780   21.0710 C   0  0  0  0  0  0  0  0  0  0  0  0
  -22.6770   -9.9050   20.1420 C   0  0  0  0  0  3  0  0  0  0  0  0
  -23.5800  -10.9720   19.9990 C   0  0  0  0  0  3  0  0  0  0  0  0
  -21.9990   -7.8620   21.1260 O   0  0  0  0  0  0  0  0  0  0  0  0
  -21.7970   -7.1360   22.2720 C   0  0  0  0  0  0  0  0  0  0  0  0
  -21.4070   -7.7470   23.4840 C   0  0  0  0  0  3  0  0  0  0  0  0
  -21.1400   -6.9550   24.6190 C   0  0  0  0  0  3  0  0  0  0  0  0
  -21.2570   -5.5540   24.5430 C   0  0  0  0  0  0  0  0  0  0  0  0
  -21.6410   -4.9440   23.3360 C   0  0  0  0  0  3  0  0  0  0  0  0
  -21.9080   -5.7330   22.2040 C   0  0  0  0  0  0  0  0  0  0  0  0
  -22.2570   -5.1390   21.0380 F   0  0  0  0  0  0  0  0  0  0  0  0
  -20.9980   -4.7900   25.6310 F   0  0  0  0  0  0  0  0  0  0  0  0
  -24.0870  -14.2600   20.9020 C   0  0  0  0  0  0  0  0  0  0  0  0
  -23.2450  -13.6910   21.7600 N   0  0  0  0  0  0  0  0  0  0  0  0
  -23.8100  -15.3270   20.3550 O   0  0  0  0  0  0  0  0  0  0  0  0
  -23.4750  -12.8190   22.2180 H   0  0  0  0  0  0  0  0  0  0  0  0
  -22.3550  -14.1260   21.9520 H   0  0  0  0  0  0  0  0  0  0  0  0
  -26.9570  -15.5110   20.1580 N   0  0  0  0  0  0  0  0  0  0  0  0
  -26.2220  -16.2020   20.0810 H   0  0  0  0  0  0  0  0  0  0  0  0
  -27.8050  -15.7580   19.6650 H   0  0  0  0  0  0  0  0  0  0  0  0
  -28.6040  -19.3930   18.0770 C   0  0  0  0  0  2  0  0  0  0  0  0
  -27.8600  -18.1450   17.5530 C   0  0  0  0  0  2  0  0  0  0  0  0
  -27.3430  -18.3260   16.1850 N   0  0  0  0  0  4  0  0  0  0  0  0
  -26.6440  -19.0470   16.1500 H   0  0  0  0  0  0  0  0  0  0  0  0
  -26.9230  -17.4700   15.8600 H   0  0  0  0  0  0  0  0  0  0  0  0
  -28.0810  -18.5610   15.5460 H   0  0  0  0  0  0  0  0  0  0  0  0
  -28.0880  -21.1030   20.6230 C   0  0  0  0  0  2  0  0  0  0  0  0
  -28.8910  -22.0410   19.6860 C   0  0  0  0  0  2  0  0  0  0  0  0
  -28.1950  -23.3790   19.3490 C   0  0  0  0  0  2  0  0  0  0  0  0
  -28.2910  -23.7980   17.8670 C   0  0  0  0  0  2  0  0  0  0  0  0
  -27.8460  -25.2550   17.6690 C   0  0  0  0  0  2  0  0  0  0  0  0
  -27.9320  -25.7630   16.2150 C   0  0  0  0  0  2  0  0  0  0  0  0
  -27.6980  -27.1720   16.1310 O   0  0  0  0  0  0  0  0  0  0  0  0
  -25.0310  -30.0230   22.0490 C   0  0  0  0  0  0  0  0  0  0  0  0
  -26.5710  -27.6960   16.7260 C   0  0  0  0  0  0  0  0  0  0  0  0
  -23.3720  -29.4380   20.3090 C   0  0  0  0  0  3  0  0  0  0  0  0
  -24.3300  -28.8240   18.0260 C   0  0  0  0  0  0  0  0  0  0  0  0
  -25.7740  -30.0360   19.6700 C   0  0  0  0  0  2  0  0  0  0  0  0
  -25.6220  -29.1170   18.4780 C   0  0  0  0  0  0  0  0  0  0  0  0
  -26.7420  -28.5600   17.8280 C   0  0  0  0  0  3  0  0  0  0  0  0
  -25.2640  -27.4110   16.2750 C   0  0  0  0  0  3  0  0  0  0  0  0
  -24.1450  -27.9690   16.9230 C   0  0  0  0  0  3  0  0  0  0  0  0
  -23.1840  -29.4740   18.7680 C   0  0  0  0  0  2  0  0  0  0  0  0
  -24.7590  -29.8200   20.7290 N   0  0  0  0  0  0  0  0  0  0  0  0
  -24.1410  -29.9410   22.9060 O   0  0  0  0  0  0  0  0  0  0  0  0
  -22.9360  -28.0470   20.8240 C   0  0  0  0  0  0  0  0  0  0  0  0
  -21.6150  -27.8110   20.8600 N   0  0  0  0  0  0  0  0  0  0  0  0
  -23.7710  -27.2030   21.1560 O   0  0  0  0  0  0  0  0  0  0  0  0
  -20.9920  -28.5620   20.5890 H   0  0  0  0  0  0  0  0  0  0  0  0
  -18.4230  -26.1620   21.2130 C   0  0  0  0  0  0  0  0  0  0  0  0
  -20.9750  -26.5580   21.2620 C   0  0  0  0  0  3  0  0  0  0  0  0
  -21.0560  -25.5000   20.1360 C   0  0  0  0  0  2  0  0  0  0  0  0
  -19.8320  -25.5030   19.2160 C   0  0  0  0  0  2  0  0  0  0  0  0
  -18.5590  -25.2270   20.0210 C   0  0  0  0  0  2  0  0  0  0  0  0
  -19.5570  -26.8010   21.7850 C   0  0  0  0  0  0  0  0  0  0  0  0
  -19.3710  -27.6950   22.8620 C   0  0  0  0  0  3  0  0  0  0  0  0
  -18.0840  -27.9490   23.3700 C   0  0  0  0  0  3  0  0  0  0  0  0
  -16.9670  -27.3010   22.8110 C   0  0  0  0  0  3  0  0  0  0  0  0
  -17.1390  -26.4050   21.7410 C   0  0  0  0  0  3  0  0  0  0  0  0
  -26.4650  -30.3900   22.5400 C   0  0  0  0  0  3  0  0  0  0  0  0
  -26.3340  -31.5030   23.4890 N   0  0  0  0  0  0  0  0  0  0  0  0
  -26.6410  -32.7770   23.2120 C   0  0  0  0  0  0  0  0  0  0  0  0
  -27.1340  -33.1310   22.1380 O   0  0  0  0  0  0  0  0  0  0  0  0
  -25.8820  -31.2950   24.3670 H   0  0  0  0  0  0  0  0  0  0  0  0
  -25.0840  -34.6200   23.9270 C   0  0  0  0  0  1  0  0  0  0  0  0
  -26.3490  -33.8290   24.2990 C   0  0  0  0  0  3  0  0  0  0  0  0
  -28.6310  -34.1350   25.1520 C   0  0  0  0  0  1  0  0  0  0  0  0
  -27.4720  -34.7660   24.5270 N   0  0  0  0  0  0  0  0  0  0  0  0
  -27.1800  -35.5440   25.1130 H   0  0  0  0  0  0  0  0  0  0  0  0
  -27.2250  -29.1760   23.2030 C   0  0  1  0  0  0  0  0  0  0  0  0
  -26.4070  -28.4620   24.3060 C   0  0  0  0  0  1  0  0  0  0  0  0
  -27.6070  -28.1220   22.1380 C   0  0  0  0  0  1  0  0  0  0  0  0
  -28.5520  -29.6650   23.8290 C   0  0  0  0  0  1  0  0  0  0  0  0
  1 52  1  0
  1  2  1  0
  1  3  1  0
  4 46  1  0
  4  5  1  0
  4  1  1  0
  5  6  1  0
  7  6  1  0
  7 16  1  0
  8 16  1  0
  9 14  1  0
 10 11  1  0
 10  9  1  0
 12 11  1  0
 12 21  1  0
 12 13  1  0
 14  8  1  0
 14 13  1  0
 15  8  2  0
 16 17  1  0
 18 19  2  0
 19 38  1  0
 20 19  1  0
 20 23  1  0
 21 18  1  0
 21 22  1  0
 22 20  2  0
 23 24  1  0
 24 25  2  0
 26 29  1  0
 26 25  1  0
 27 26  2  0
 28 27  1  0
 28 23  2  0
 29 30  1  0
 30 31  1  0
 31 32  2  0
 33 32  1  0
 33 37  1  0
 34 33  2  0
 35 30  2  0
 35 34  1  0
 36 35  1  0
 38 39  1  0
 39 42  1  0
 39 41  1  0
 40 38  2  0
 43 18  1  0
 44 43  1  0
 45 43  1  0
 47 46  1  0
 48 47  1  0
 49 48  1  0
 50 48  1  0
 51 48  1  0
 53 52  1  0
 54 53  1  0
 55 54  1  0
 56 55  1  0
 57 56  1  0
 58 57  1  0
 58 60  1  0
 59 70  2  0
 60 65  1  0
 61 69  1  0
 61 71  1  0
 62 64  1  0
 62 68  1  0
 63 69  1  0
 64 63  1  0
 65 64  2  0
 66 60  2  0
 66 67  1  0
 67 62  2  0
 68 61  1  0
 69 59  1  0
 71 72  1  0
 71 73  2  0
 74 72  1  0
 75 84  2  0
 75 80  1  0
 76 72  1  0
 76 80  1  0
 77 76  1  0
 78 79  1  0
 78 77  1  0
 79 75  1  0
 80 81  2  0
 81 82  1  0
 83 82  2  0
 84 83  1  0
 85 59  1  0
 85 95  1  0
 85 86  1  0
 86 89  1  0
 87 86  1  0
 87 91  1  0
 88 87  2  0
 91 90  1  0
 91 93  1  0
 93 94  1  0
 93 92  1  0
 95 98  1  1
 95 96  1  0
 97 95  1  0
M  ISO  4   8 100  16 100  57 101  58 101
M  END
>  <TORSDO>  (73) 
F 29

>  <SCORE>  (73) 
-6.484

>  <name>  (73) 
72

>  <ligand_id>  (73) 
72

>  <original_smiles>  (73) 
[H]c1c([H])c([H])c2c(c1[H])C([H])([H])C([H])([H])C([H])([H])C2([H])N([H])C(=O)C1([H])N(C(=O)C([H])(N([H])C(=O)C([H])(N([H])C([H])([H])[H])C([H])([H])[H])C(C([H])([H])[H])(C([H])([H])[H])C([H])([H])[H])C([H])([H])c2c([H])c(OC([H])([H])C([H])([H])C([H])([H])C([H])([H])C([H])([H])C([H])([H])[N+]([H])([H])C([H])(C([H])([H])C([H])([H])C([H])([H])N([H])C(=O)N3C([H])([H])C([H])([H])C([H])([H])C([H])(n4nc(-c5c([H])c([H])c(Oc6c([H])c([H])c(F)c([H])c6F)c([H])c5[H])c(C(=O)N([H])[H])c4N([H])[H])C3([H])[H])C([H])([H])C([H])([H])[N+]([H])([H])[H])c([H])c([H])c2C1([H])[H]

>  <smiles>  (73) 
[H]c1c([H])c([H])c2c(c1[H])C([H])([H])C([H])([H])C([H])([H])C2([H])N([H])C(=O)C1([H])N(C(=O)C([H])(N([H])C(=O)C([H])(N([H])C([H])([H])[H])C([H])([H])[H])C(C([H])([H])[H])(C([H])([H])[H])C([H])([H])[H])C([H])([H])c2c([H])c(OC([H])([H])C([H])([H])C([H])([H])C([H])([H])C([H])([H])C([H])([H])[N+]([H])([H])C([H])(C([H])([H])C([H])([H])C([H])([H])N([H])C(=O)N3C([H])([H])C([H])([H])C([H])([H])C([H])(n4nc(-c5c([H])c([H])c(Oc6c([H])c([H])c(F)c([H])c6F)c([H])c5[H])c(C(=O)N([H])[H])c4N([H])[H])C3([H])[H])C([H])([H])C([H])([H])[N+]([H])([H])[H])c([H])c([H])c2C1([H])[H]

$$$$
73:0:0
     RDKit          3D

 94103  0  0  1  0  0  0  0  0999 V2000
  -31.1470  -14.9650   20.5410 C   0  0  0  0  0  0  0  0  0  0  0  0
  -30.6600  -13.2100   18.8460 C   0  0  0  0  0  2  0  0  0  0  0  0
  -29.6900  -13.8040   17.8000 C   0  0  0  0  0  2  0  0  0  0  0  0
  -28.2290  -13.6280   18.2530 C   0  0  0  0  0  2  0  0  0  0  0  0
  -28.0050  -14.0520   19.7300 C   0  0  0  0  0  3  0  0  0  0  0  0
  -29.0880  -13.4740   20.6640 C   0  0  0  0  0  2  0  0  0  0  0  0
  -30.3890  -13.8940   20.1290 N   0  0  0  0  0  0  0  0  0  0  0  0
  -32.3060  -15.0860   20.1290 O   0  0  0  0  0  0  0  0  0  0  0  0
  -30.5200  -17.5550   23.0640 C   0  0  0  0  0  2  0  0  0  0  0  0
  -30.2650  -16.1010   22.5830 C   0  0  0  0  0  2  0  0  0  0  0  0
  -30.6420  -17.4800   20.7000 C   0  0  0  0  0  3  0  0  0  0  0  0
  -30.1650  -18.4410   21.8730 C   0  0  0  0  0  3  0  0  0  0  0  0
  -30.4990  -16.0420   21.1300 N   0  0  0  0  0  0  0  0  0  0  0  0
  -27.7500  -17.8460   18.1870 C   0  0  0  0  0  3  0  0  0  0  0  0
  -28.4250  -18.1160   16.9860 C   0  0  0  0  0  3  0  0  0  0  0  0
  -28.4840  -17.6690   19.3730 C   0  0  0  0  0  3  0  0  0  0  0  0
  -29.8290  -18.2090   16.9780 C   0  0  0  0  0  3  0  0  0  0  0  0
  -29.8960  -17.7460   19.3850 C   0  0  0  0  0  0  0  0  0  0  0  0
  -30.5720  -18.0280   18.1670 C   0  0  0  0  0  0  0  0  0  0  0  0
  -32.0860  -18.1320   18.0890 C   0  0  0  0  0  1  0  0  0  0  0  0
  -25.6080  -14.6000   20.4670 C   0  0  0  0  0  0  0  0  0  0  0  0
  -24.5400  -13.8050   20.7820 C   0  0  0  0  0  0  0  0  0  0  0  0
  -25.0100  -12.4590   20.6790 C   0  0  0  0  0  0  0  0  0  0  0  0
  -26.6560  -13.7390   20.1880 N   0  0  0  0  0  0  0  0  0  0  0  0
  -26.3010  -12.4410   20.3760 N   0  0  0  0  0  0  0  0  0  0  0  0
  -24.2860  -11.1880   20.7960 C   0  0  0  0  0  0  0  0  0  0  0  0
  -24.7220  -10.1690   21.6710 C   0  0  0  0  0  3  0  0  0  0  0  0
  -23.9980   -8.9620   21.7810 C   0  0  0  0  0  3  0  0  0  0  0  0
  -22.8240   -8.7670   21.0140 C   0  0  0  0  0  0  0  0  0  0  0  0
  -22.4060   -9.7770   20.1300 C   0  0  0  0  0  3  0  0  0  0  0  0
  -23.1300  -10.9750   20.0180 C   0  0  0  0  0  3  0  0  0  0  0  0
  -22.0740   -7.6170   21.0340 O   0  0  0  0  0  0  0  0  0  0  0  0
  -22.0280   -6.8070   22.1400 C   0  0  0  0  0  0  0  0  0  0  0  0
  -21.6490   -7.2990   23.4090 C   0  0  0  0  0  3  0  0  0  0  0  0
  -21.5510   -6.4180   24.5040 C   0  0  0  0  0  3  0  0  0  0  0  0
  -21.8190   -5.0480   24.3330 C   0  0  0  0  0  0  0  0  0  0  0  0
  -22.1920   -4.5550   23.0690 C   0  0  0  0  0  3  0  0  0  0  0  0
  -22.2940   -5.4330   21.9760 C   0  0  0  0  0  0  0  0  0  0  0  0
  -22.6320   -4.9500   20.7560 F   0  0  0  0  0  0  0  0  0  0  0  0
  -21.7180   -4.1990   25.3830 F   0  0  0  0  0  0  0  0  0  0  0  0
  -23.1420  -14.2660   21.0720 C   0  0  0  0  0  0  0  0  0  0  0  0
  -22.4230  -13.5440   21.9240 N   0  0  0  0  0  0  0  0  0  0  0  0
  -22.6950  -15.3030   20.5810 O   0  0  0  0  0  0  0  0  0  0  0  0
  -22.7930  -12.7010   22.3380 H   0  0  0  0  0  0  0  0  0  0  0  0
  -21.4850  -13.8370   22.1610 H   0  0  0  0  0  0  0  0  0  0  0  0
  -25.7660  -15.9770   20.3790 N   0  0  0  0  0  0  0  0  0  0  0  0
  -25.0040  -16.6260   20.5410 H   0  0  0  0  0  0  0  0  0  0  0  0
  -26.6300  -16.4290   20.1130 H   0  0  0  0  0  0  0  0  0  0  0  0
  -30.6660  -19.9660   21.8910 C   0  0  0  0  0  2  0  0  0  0  0  0
  -29.9770  -21.0600   22.8400 C   0  0  0  0  0  2  0  0  0  0  0  0
  -29.9860  -22.5970   22.3700 C   0  0  0  0  0  3  0  0  0  0  0  0
  -29.6170  -23.7840   23.3900 C   0  0  0  0  0  3  0  0  0  0  0  0
  -29.2620  -25.2210   22.7730 C   0  0  0  0  0  2  0  0  0  0  0  0
  -29.6180  -26.4860   23.4640 O   0  0  0  0  0  0  0  0  0  0  0  0
  -28.7110  -32.5680   27.2120 C   0  0  0  0  0  0  0  0  0  0  0  0
  -28.7030  -27.3330   24.1130 C   0  0  0  0  0  0  0  0  0  0  0  0
  -26.8340  -30.9610   27.2720 C   0  0  0  0  0  3  0  0  0  0  0  0
  -26.9280  -29.0620   25.5540 C   0  0  0  0  0  0  0  0  0  0  0  0
  -28.3890  -31.0620   25.2360 C   0  0  0  0  0  2  0  0  0  0  0  0
  -28.1040  -29.5830   25.0040 C   0  0  0  0  0  0  0  0  0  0  0  0
  -28.9830  -28.7260   24.2770 C   0  0  0  0  0  3  0  0  0  0  0  0
  -27.4950  -26.8540   24.6660 C   0  0  0  0  0  3  0  0  0  0  0  0
  -26.6180  -27.7030   25.3760 C   0  0  0  0  0  3  0  0  0  0  0  0
  -26.0390  -30.0100   26.3370 C   0  0  0  0  0  2  0  0  0  0  0  0
  -28.0300  -31.5590   26.5930 N   0  0  0  0  0  0  0  0  0  0  0  0
  -28.3410  -33.0180   28.3070 O   0  0  0  0  0  0  0  0  0  0  0  0
  -27.1850  -30.2020   28.5730 C   0  0  0  0  0  0  0  0  0  0  0  0
  -26.2810  -30.2540   29.5650 N   0  0  0  0  0  0  0  0  0  0  0  0
  -28.2360  -29.5620   28.6640 O   0  0  0  0  0  0  0  0  0  0  0  0
  -25.4480  -30.8060   29.4180 H   0  0  0  0  0  0  0  0  0  0  0  0
  -24.7190  -29.9010   32.8080 C   0  0  0  0  0  0  0  0  0  0  0  0
  -26.3850  -29.5760   30.8580 C   0  0  0  0  0  3  0  0  0  0  0  0
  -25.8450  -28.1290   30.7740 C   0  0  0  0  0  2  0  0  0  0  0  0
  -24.3670  -28.0120   31.1590 C   0  0  0  0  0  2  0  0  0  0  0  0
  -24.1430  -28.5120   32.5890 C   0  0  0  0  0  2  0  0  0  0  0  0
  -25.7600  -30.4070   31.9840 C   0  0  0  0  0  0  0  0  0  0  0  0
  -26.2320  -31.7190   32.2080 C   0  0  0  0  0  3  0  0  0  0  0  0
  -25.6870  -32.5160   33.2320 C   0  0  0  0  0  3  0  0  0  0  0  0
  -24.6690  -32.0030   34.0550 C   0  0  0  0  0  3  0  0  0  0  0  0
  -24.1890  -30.6980   33.8440 C   0  0  0  0  0  3  0  0  0  0  0  0
  -29.9730  -33.2190   26.5670 C   0  0  0  0  0  3  0  0  0  0  0  0
  -29.8530  -34.6760   26.7260 N   0  0  0  0  0  0  0  0  0  0  0  0
  -29.4880  -35.5220   25.7540 C   0  0  0  0  0  0  0  0  0  0  0  0
  -29.2840  -35.1580   24.5930 O   0  0  0  0  0  0  0  0  0  0  0  0
  -29.9590  -35.0380   27.6630 H   0  0  0  0  0  0  0  0  0  0  0  0
  -27.8340  -37.3390   26.2940 C   0  0  0  0  0  1  0  0  0  0  0  0
  -29.3270  -37.0080   26.1280 C   0  0  0  0  0  3  0  0  0  0  0  0
  -31.3920  -37.8690   25.1150 C   0  0  0  0  0  1  0  0  0  0  0  0
  -29.9330  -37.9330   25.1440 N   0  0  0  0  0  0  0  0  0  0  0  0
  -29.6610  -38.8930   25.3360 H   0  0  0  0  0  0  0  0  0  0  0  0
  -31.3280  -32.7040   27.1910 C   0  0  1  0  0  0  0  0  0  0  0  0
  -31.3520  -32.7350   28.7370 C   0  0  0  0  0  1  0  0  0  0  0  0
  -31.6200  -31.2530   26.7460 C   0  0  0  0  0  1  0  0  0  0  0  0
  -32.5040  -33.5670   26.6760 C   0  0  0  0  0  1  0  0  0  0  0  0
  1 13  1  0
  2  7  1  0
  3  4  1  0
  3  2  1  0
  5  4  1  0
  5 24  1  0
  5  6  1  0
  7  1  1  0
  7  6  1  0
  8  1  2  0
 10  9  1  0
 11 18  1  0
 11 13  1  0
 11 12  1  0
 12 49  1  0
 12  9  1  0
 13 10  1  0
 14 16  1  0
 15 14  2  0
 16 18  2  0
 17 15  1  0
 17 19  2  0
 19 18  1  0
 20 19  1  0
 21 22  2  0
 22 41  1  0
 23 22  1  0
 23 26  1  0
 24 25  1  0
 24 21  1  0
 25 23  2  0
 26 27  1  0
 27 28  2  0
 29 32  1  0
 29 28  1  0
 30 29  2  0
 31 30  1  0
 31 26  2  0
 32 33  1  0
 33 34  1  0
 34 35  2  0
 36 35  1  0
 36 40  1  0
 37 36  2  0
 38 33  2  0
 38 37  1  0
 39 38  1  0
 41 42  1  0
 42 45  1  0
 42 44  1  0
 43 41  2  0
 46 21  1  0
 46 47  1  0
 48 46  1  0
 49 50  1  0
 51 50  1  0
 51 52  2  0
 53 52  1  0
 53 54  1  0
 54 56  1  0
 55 66  2  0
 56 61  2  0
 56 62  1  0
 57 67  1  0
 58 64  1  0
 59 65  1  0
 60 59  1  0
 60 58  2  0
 61 60  1  0
 62 63  2  0
 63 58  1  0
 64 57  1  0
 65 55  1  0
 65 57  1  0
 67 69  2  0
 67 68  1  0
 70 68  1  0
 71 80  1  0
 72 68  1  0
 72 76  1  0
 73 72  1  0
 73 74  1  0
 74 75  1  0
 75 71  1  0
 76 77  1  0
 76 71  2  0
 77 78  2  0
 78 79  1  0
 80 79  2  0
 81 82  1  0
 81 91  1  0
 81 55  1  0
 82 85  1  0
 83 87  1  0
 83 82  1  0
 84 83  2  0
 87 86  1  0
 88 89  1  0
 89 90  1  0
 89 87  1  0
 91 92  1  1
 93 91  1  0
 94 91  1  0
M  ISO  4   1 100  13 100  53 101  54 101
M  END
>  <TORSDO>  (74) 
F 21

>  <SCORE>  (74) 
-6.400

>  <name>  (74) 
73

>  <ligand_id>  (74) 
73

>  <original_smiles>  (74) 
[H]c1c([H])c([H])c(C2([H])N(C(=O)N3C([H])([H])C([H])([H])C([H])([H])C([H])(n4nc(-c5c([H])c([H])c(Oc6c([H])c([H])c(F)c([H])c6F)c([H])c5[H])c(C(=O)N([H])[H])c4N([H])[H])C3([H])[H])C([H])([H])C([H])([H])C2([H])C([H])([H])C([H])([H])C([H])([H])C([H])([H])C([H])([H])Oc2c([H])c([H])c3c(c2[H])C([H])([H])N(C(=O)C([H])(N([H])C(=O)C([H])(N([H])C([H])([H])[H])C([H])([H])[H])C(C([H])([H])[H])(C([H])([H])[H])C([H])([H])[H])C([H])(C(=O)N([H])C2([H])c4c([H])c([H])c([H])c([H])c4C([H])([H])C([H])([H])C2([H])[H])C3([H])[H])c(C([H])([H])[H])c1[H]

>  <smiles>  (74) 
[H]c1c([H])c([H])c(C2([H])N(C(=O)N3C([H])([H])C([H])([H])C([H])([H])C([H])(n4nc(-c5c([H])c([H])c(Oc6c([H])c([H])c(F)c([H])c6F)c([H])c5[H])c(C(=O)N([H])[H])c4N([H])[H])C3([H])[H])C([H])([H])C([H])([H])C2([H])C([H])([H])C([H])([H])C([H])([H])C([H])([H])C([H])([H])Oc2c([H])c([H])c3c(c2[H])C([H])([H])N(C(=O)C([H])(N([H])C(=O)C([H])(N([H])C([H])([H])[H])C([H])([H])[H])C(C([H])([H])[H])(C([H])([H])[H])C([H])([H])[H])C([H])(C(=O)N([H])C2([H])c4c([H])c([H])c([H])c([H])c4C([H])([H])C([H])([H])C2([H])[H])C3([H])[H])c(C([H])([H])[H])c1[H]

$$$$
74:0:0
     RDKit          3D

104109  0  0  1  0  0  0  0  0999 V2000
  -25.1190  -14.7560   23.7940 C   0  0  0  0  0  2  0  0  0  0  0  0
  -26.0090  -15.8310   23.2780 N   0  0  0  0  0  4  0  0  0  0  0  0
  -25.6770  -16.6820   23.7030 H   0  0  0  0  0  0  0  0  0  0  0  0
  -26.9670  -15.7060   23.5600 H   0  0  0  0  0  0  0  0  0  0  0  0
  -25.9580  -16.1090   21.8200 C   0  0  0  0  0  2  0  0  0  0  0  0
  -26.7900  -17.3600   21.4640 C   0  0  0  0  0  2  0  0  0  0  0  0
  -27.8400  -17.1960   20.3420 C   0  0  0  0  0  2  0  0  0  0  0  0
  -27.9900  -18.5000   19.5190 C   0  0  0  0  0  2  0  0  0  0  0  0
  -29.4030  -18.8710   19.0170 C   0  0  0  0  0  2  0  0  0  0  0  0
  -29.4580  -20.3390   18.5150 C   0  0  0  0  0  2  0  0  0  0  0  0
  -30.8730  -20.9600   18.3600 C   0  0  0  0  0  2  0  0  0  0  0  0
  -31.0450  -22.3360   19.0630 C   0  0  0  0  0  2  0  0  0  0  0  0
  -31.2450  -23.4340   18.1550 O   0  0  0  0  0  0  0  0  0  0  0  0
  -27.1670  -27.7050   22.0370 C   0  0  0  0  0  0  0  0  0  0  0  0
  -30.1570  -24.2700   18.1420 C   0  0  0  0  0  0  0  0  0  0  0  0
  -26.1690  -26.8700   19.9340 C   0  0  0  0  0  3  0  0  0  0  0  0
  -27.7980  -25.7970   18.2850 C   0  0  0  0  0  0  0  0  0  0  0  0
  -28.7000  -27.2130   20.1400 C   0  0  0  0  0  2  0  0  0  0  0  0
  -28.8740  -26.0940   19.1330 C   0  0  0  0  0  0  0  0  0  0  0  0
  -30.0610  -25.3400   19.0600 C   0  0  0  0  0  3  0  0  0  0  0  0
  -29.0830  -23.9900   17.2760 C   0  0  0  0  0  3  0  0  0  0  0  0
  -27.9020  -24.7540   17.3490 C   0  0  0  0  0  3  0  0  0  0  0  0
  -26.5410  -26.6220   18.4480 C   0  0  0  0  0  2  0  0  0  0  0  0
  -27.3570  -27.2580   20.7640 N   0  0  0  0  0  0  0  0  0  0  0  0
  -26.0250  -27.8380   22.5010 O   0  0  0  0  0  0  0  0  0  0  0  0
  -25.4180  -25.6290   20.4730 C   0  0  0  0  0  0  0  0  0  0  0  0
  -24.1130  -25.5380   20.1620 N   0  0  0  0  0  0  0  0  0  0  0  0
  -26.0110  -24.7660   21.1260 O   0  0  0  0  0  0  0  0  0  0  0  0
  -23.7040  -26.2940   19.6290 H   0  0  0  0  0  0  0  0  0  0  0  0
  -20.6890  -24.3930   19.9590 C   0  0  0  0  0  0  0  0  0  0  0  0
  -23.2110  -24.4450   20.5300 C   0  0  0  0  0  3  0  0  0  0  0  0
  -23.3580  -23.2550   19.5520 C   0  0  0  0  0  2  0  0  0  0  0  0
  -22.3590  -23.3040   18.3940 C   0  0  0  0  0  2  0  0  0  0  0  0
  -20.9210  -23.3050   18.9230 C   0  0  0  0  0  2  0  0  0  0  0  0
  -21.7700  -24.9380   20.7010 C   0  0  0  0  0  0  0  0  0  0  0  0
  -21.5110  -25.9710   21.6280 C   0  0  0  0  0  3  0  0  0  0  0  0
  -20.2020  -26.4510   21.8230 C   0  0  0  0  0  3  0  0  0  0  0  0
  -19.1330  -25.8920   21.1020 C   0  0  0  0  0  3  0  0  0  0  0  0
  -19.3770  -24.8660   20.1730 C   0  0  0  0  0  3  0  0  0  0  0  0
  -28.3640  -28.0920   22.9590 C   0  0  0  0  0  3  0  0  0  0  0  0
  -27.9700  -29.2830   23.7270 N   0  0  0  0  0  0  0  0  0  0  0  0
  -28.3360  -30.5380   23.4320 C   0  0  0  0  0  0  0  0  0  0  0  0
  -29.1130  -30.8090   22.5120 O   0  0  0  0  0  0  0  0  0  0  0  0
  -27.2950  -29.1410   24.4650 H   0  0  0  0  0  0  0  0  0  0  0  0
  -26.5800  -32.3330   23.5430 C   0  0  0  0  0  1  0  0  0  0  0  0
  -27.7460  -31.6740   24.2950 C   0  0  0  0  0  3  0  0  0  0  0  0
  -29.7470  -32.2010   25.6170 C   0  0  0  0  0  1  0  0  0  0  0  0
  -28.7420  -32.6970   24.6790 N   0  0  0  0  0  0  0  0  0  0  0  0
  -28.2870  -33.5010   25.1020 H   0  0  0  0  0  0  0  0  0  0  0  0
  -28.8110  -26.9300   23.9260 C   0  0  1  0  0  0  0  0  0  0  0  0
  -27.6460  -26.3190   24.7390 C   0  0  0  0  0  1  0  0  0  0  0  0
  -29.4790  -25.7870   23.1300 C   0  0  0  0  0  1  0  0  0  0  0  0
  -29.8760  -27.4490   24.9190 C   0  0  0  0  0  1  0  0  0  0  0  0
  -25.0690  -13.4730   22.9230 C   0  0  0  0  0  2  0  0  0  0  0  0
  -26.4420  -12.8820   22.4350 C   0  0  0  0  0  3  0  0  0  0  0  0
  -26.5290  -12.1720   20.9650 C   0  0  0  0  0  3  0  0  0  0  0  0
  -27.9960  -12.8760   18.5470 C   0  0  0  0  0  2  0  0  0  0  0  0
  -29.7490  -13.6210   18.5160 C   0  0  0  0  0  2  0  0  0  0  0  0
  -32.1370  -12.8900   20.3150 C   0  0  0  0  0  0  0  0  0  0  0  0
  -32.4050  -10.6320   19.6010 C   0  0  0  0  0  2  0  0  0  0  0  0
  -31.6700  -10.9100   18.2930 C   0  0  0  0  0  2  0  0  0  0  0  0
  -30.1860  -10.9210   18.6690 C   0  0  0  0  0  2  0  0  0  0  0  0
  -29.8400  -11.5420   20.1700 C   0  0  0  0  0  0  0  0  0  0  0  0
  -30.6800  -11.1360   21.2290 C   0  0  0  0  0  2  0  0  0  0  0  0
  -31.8710  -11.5840   20.5690 N   0  0  0  0  0  0  0  0  0  0  0  0
  -33.2640  -13.2100   20.7330 O   0  0  0  0  0  0  0  0  0  0  0  0
  -31.2220  -13.6570   19.4170 N   0  0  0  0  0  0  0  0  0  0  0  0
  -31.6360  -14.5690   19.2900 H   0  0  0  0  0  0  0  0  0  0  0  0
  -27.2120  -13.5080   19.7050 C   0  0  1  0  0  0  0  0  0  0  0  0
  -25.5590  -12.5450   19.3220 C   0  0  0  0  0  3  0  0  0  0  0  0
  -25.7980  -10.5330   19.6750 C   0  0  0  0  0  1  0  0  0  0  0  0
  -28.6670  -11.9370   20.4610 N   0  0  0  0  0  2  0  0  0  0  0  0
  -27.6370  -10.1450   20.3110 N   0  0  0  0  0 15  0  0  0  0  0  0
  -24.9440   -9.6080   20.2800 C   0  0  0  0  0  0  0  0  0  0  0  0
  -25.2360   -8.9890   21.5260 C   0  0  0  0  0  3  0  0  0  0  0  0
  -24.3750   -8.0070   22.0150 C   0  0  0  0  0  3  0  0  0  0  0  0
  -23.2640   -7.6620   21.2200 C   0  0  0  0  0  0  0  0  0  0  0  0
  -23.0110   -8.2980   19.9940 C   0  0  0  0  0  3  0  0  0  0  0  0
  -23.8330   -9.3060   19.5330 C   0  0  0  0  0  3  0  0  0  0  0  0
  -22.4090   -6.6490   21.5110 O   0  0  0  0  0  0  0  0  0  0  0  0
  -22.1360   -6.3200   22.7960 C   0  0  0  0  0  0  0  0  0  0  0  0
  -21.6740   -7.2660   23.7370 C   0  0  0  0  0  3  0  0  0  0  0  0
  -21.2960   -6.8340   25.0220 C   0  0  0  0  0  3  0  0  0  0  0  0
  -21.3770   -5.4710   25.3540 C   0  0  0  0  0  0  0  0  0  0  0  0
  -21.8590   -4.5360   24.4200 C   0  0  0  0  0  3  0  0  0  0  0  0
  -22.2380   -4.9620   23.1390 C   0  0  0  0  0  0  0  0  0  0  0  0
  -22.6790   -4.0690   22.2220 F   0  0  0  0  0  0  0  0  0  0  0  0
  -20.9900   -5.0510   26.5820 F   0  0  0  0  0  0  0  0  0  0  0  0
  -24.2240  -13.1210   19.3500 C   0  0  0  0  0  0  0  0  0  0  0  0
  -23.4230  -12.6960   20.3220 N   0  0  0  0  0  0  0  0  0  0  0  0
  -23.9450  -14.0050   18.5680 O   0  0  0  0  0  0  0  0  0  0  0  0
  -23.7220  -11.9740   20.9510 H   0  0  0  0  0  0  0  0  0  0  0  0
  -22.5070  -13.1050   20.4390 H   0  0  0  0  0  0  0  0  0  0  0  0
  -27.6050  -14.7050   19.1830 N   0  0  0  0  0  0  0  0  0  0  0  0
  -27.0330  -15.1550   18.4760 H   0  0  0  0  0  0  0  0  0  0  0  0
  -28.5830  -14.9420   19.1010 H   0  0  0  0  0  0  0  0  0  0  0  0
  -26.8010  -11.7970   23.4830 C   0  0  0  0  0  2  0  0  0  0  0  0
  -27.8320  -10.8140   22.9430 C   0  0  0  0  0  2  0  0  0  0  0  0
  -27.9580   -9.5590   23.8000 C   0  0  0  0  0  2  0  0  0  0  0  0
  -28.6280   -8.4030   23.0320 C   0  0  0  0  0  2  0  0  0  0  0  0
  -29.9510   -8.7510   22.4750 N   0  0  0  0  0  4  0  0  0  0  0  0
  -29.9790   -9.6580   22.0440 H   0  0  0  0  0  0  0  0  0  0  0  0
  -30.1870   -8.0820   21.7680 H   0  0  0  0  0  0  0  0  0  0  0  0
  -30.6600   -8.7080   23.1850 H   0  0  0  0  0  0  0  0  0  0  0  0
  2  4  1  0
  2  3  1  0
  2  1  1  0
  5  2  1  0
  6  5  1  0
  7  6  1  0
  8  7  1  0
  9  8  1  0
 10  9  1  0
 11 10  1  0
 11 12  1  0
 13 12  1  0
 14 25  2  0
 15 13  1  0
 15 20  1  0
 16 26  1  0
 16 24  1  0
 17 23  1  0
 17 19  1  0
 18 24  1  0
 19 18  1  0
 20 19  2  0
 21 22  1  0
 21 15  2  0
 22 17  2  0
 23 16  1  0
 24 14  1  0
 26 28  2  0
 27 26  1  0
 29 27  1  0
 30 39  2  0
 30 35  1  0
 31 27  1  0
 31 35  1  0
 32 31  1  0
 33 34  1  0
 33 32  1  0
 34 30  1  0
 35 36  2  0
 36 37  1  0
 38 37  2  0
 39 38  1  0
 40 14  1  0
 40 41  1  0
 40 50  1  0
 41 44  1  0
 42 41  1  0
 42 46  1  0
 43 42  2  0
 46 45  1  0
 46 48  1  0
 48 49  1  0
 48 47  1  0
 50 51  1  1
 50 53  1  0
 52 50  1  0
 54  1  1  0
 55 54  1  0
 55 97  1  0
 56 55  1  0
 58 57  1  0
 58 67  1  0
 59 65  1  0
 59 66  2  0
 60 65  1  0
 61 62  1  0
 61 60  1  0
 62 63  1  0
 63 72  2  0
 63 64  1  0
 65 64  1  0
 67 59  1  0
 68 67  1  0
 69 57  1  6
 69 56  1  0
 70 89  1  0
 70 69  1  0
 70 56  1  0
 71 74  1  0
 74 75  1  0
 75 76  2  0
 77 80  1  0
 77 76  1  0
 78 77  2  0
 79 78  1  0
 79 74  2  0
 80 81  1  0
 81 86  2  0
 81 82  1  0
 82 83  2  0
 83 84  1  0
 84 88  1  0
 85 84  2  0
 86 85  1  0
 87 86  1  0
 89 90  1  0
 90 93  1  0
 90 92  1  0
 91 89  2  0
 94 69  1  0
 95 94  1  0
 96 94  1  0
 98 97  1  0
 98 99  1  0
100 99  1  0
101100  1  0
101104  1  0
102101  1  0
103101  1  0
M  ISO  4  12 101  13 101  59 100  67 100
M  END
>  <TORSDO>  (75) 
F 35

>  <SCORE>  (75) 
11.864

>  <name>  (75) 
74

>  <ligand_id>  (75) 
74

>  <original_smiles>  (75) 
[H]c1c([H])c([H])c2c(c1[H])C([H])([H])C([H])([H])C([H])([H])C2([H])N([H])C(=O)C1([H])N(C(=O)C([H])(N([H])C(=O)C([H])(N([H])C([H])([H])[H])C([H])([H])[H])C(C([H])([H])[H])(C([H])([H])[H])C([H])([H])[H])C([H])([H])c2c([H])c(OC([H])([H])C([H])([H])C([H])([H])C([H])([H])C([H])([H])C([H])([H])C([H])([H])C([H])([H])[N+]([H])([H])C([H])([H])C([H])([H])C([H])(C([H])([H])C([H])([H])C([H])([H])N([H])C(=O)N3C([H])([H])C([H])([H])C([H])([H])C([H])(n4nc(-c5c([H])c([H])c(Oc6c([H])c([H])c(F)c([H])c6F)c([H])c5[H])c(C(=O)N([H])[H])c4N([H])[H])C3([H])[H])C([H])([H])C([H])([H])C([H])([H])C([H])([H])[N+]([H])([H])[H])c([H])c([H])c2C1([H])[H]

>  <smiles>  (75) 
[H]c1c([H])c([H])c2c(c1[H])C([H])([H])C([H])([H])C([H])([H])C2([H])N([H])C(=O)C1([H])N(C(=O)C([H])(N([H])C(=O)C([H])(N([H])C([H])([H])[H])C([H])([H])[H])C(C([H])([H])[H])(C([H])([H])[H])C([H])([H])[H])C([H])([H])c2c([H])c(OC([H])([H])C([H])([H])C([H])([H])C([H])([H])C([H])([H])C([H])([H])C([H])([H])C([H])([H])[N+]([H])([H])C([H])([H])C([H])([H])C([H])(C([H])([H])C([H])([H])C([H])([H])N([H])C(=O)N3C([H])([H])C([H])([H])C([H])([H])C([H])(n4nc(-c5c([H])c([H])c(Oc6c([H])c([H])c(F)c([H])c6F)c([H])c5[H])c(C(=O)N([H])[H])c4N([H])[H])C3([H])[H])C([H])([H])C([H])([H])C([H])([H])C([H])([H])[N+]([H])([H])[H])c([H])c([H])c2C1([H])[H]

$$$$
75:0:0
     RDKit          3D

 91100  0  0  1  0  0  0  0  0999 V2000
  -30.5890  -18.9710   21.4880 C   0  0  0  0  0  2  0  0  0  0  0  0
  -30.3330  -20.5610   21.4870 C   0  0  0  0  0  2  0  0  0  0  0  0
  -30.2480  -21.4380   19.0260 C   0  0  0  0  0  2  0  0  0  0  0  0
  -28.8270  -19.5310   20.0460 C   0  0  0  0  0  2  0  0  0  0  0  0
  -29.2530  -22.5440   18.6270 C   0  0  0  0  0  3  0  0  0  0  0  0
  -29.1120  -22.8960   20.1050 C   0  0  0  0  0  3  0  0  0  0  0  0
  -29.9220  -18.2270   20.2900 C   0  0  0  0  0  3  0  0  0  0  0  0
  -29.4520  -21.1040   20.3130 C   0  0  1  0  0  0  0  0  0  0  0  0
  -30.4440  -15.3130   20.2380 C   0  0  0  0  0  0  0  0  0  0  0  0
  -30.3900  -12.8940   19.3050 C   0  0  0  0  0  2  0  0  0  0  0  0
  -29.4460  -12.7360   18.0860 C   0  0  0  0  0  2  0  0  0  0  0  0
  -28.0050  -12.4550   18.5460 C   0  0  0  0  0  2  0  0  0  0  0  0
  -27.5810  -13.3900   19.7080 C   0  0  0  0  0  3  0  0  0  0  0  0
  -28.6500  -13.5010   20.8160 C   0  0  0  0  0  2  0  0  0  0  0  0
  -29.8730  -14.0120   20.1760 N   0  0  0  0  0  0  0  0  0  0  0  0
  -31.6520  -15.3240   19.9580 O   0  0  0  0  0  0  0  0  0  0  0  0
  -29.6860  -16.5750   20.4110 N   0  0  0  0  0  0  0  0  0  0  0  0
  -28.7190  -16.3640   20.6130 H   0  0  0  0  0  0  0  0  0  0  0  0
  -25.2200  -13.9300   20.5090 C   0  0  0  0  0  0  0  0  0  0  0  0
  -24.1690  -13.1440   20.8900 C   0  0  0  0  0  0  0  0  0  0  0  0
  -24.6430  -11.7960   20.8350 C   0  0  0  0  0  0  0  0  0  0  0  0
  -26.2630  -13.0620   20.2370 N   0  0  0  0  0  0  0  0  0  0  0  0
  -25.9280  -11.7720   20.5000 N   0  0  0  0  0  0  0  0  0  0  0  0
  -23.9240  -10.5280   21.0200 C   0  0  0  0  0  0  0  0  0  0  0  0
  -24.3600   -9.5600   21.9520 C   0  0  0  0  0  3  0  0  0  0  0  0
  -23.6380   -8.3590   22.1280 C   0  0  0  0  0  3  0  0  0  0  0  0
  -22.4670   -8.1170   21.3720 C   0  0  0  0  0  0  0  0  0  0  0  0
  -22.0500   -9.0730   20.4290 C   0  0  0  0  0  3  0  0  0  0  0  0
  -22.7730  -10.2660   20.2520 C   0  0  0  0  0  3  0  0  0  0  0  0
  -21.7160   -6.9690   21.4570 O   0  0  0  0  0  0  0  0  0  0  0  0
  -21.6480   -6.2380   22.6140 C   0  0  0  0  0  0  0  0  0  0  0  0
  -21.1700   -6.7940   23.8210 C   0  0  0  0  0  3  0  0  0  0  0  0
  -21.0530   -5.9870   24.9710 C   0  0  0  0  0  3  0  0  0  0  0  0
  -21.4040   -4.6250   24.9140 C   0  0  0  0  0  0  0  0  0  0  0  0
  -21.8750   -4.0680   23.7120 C   0  0  0  0  0  3  0  0  0  0  0  0
  -21.9930   -4.8720   22.5650 C   0  0  0  0  0  0  0  0  0  0  0  0
  -22.4270   -4.3250   21.4030 F   0  0  0  0  0  0  0  0  0  0  0  0
  -21.2850   -3.8480   26.0170 F   0  0  0  0  0  0  0  0  0  0  0  0
  -22.7750  -13.6110   21.1850 C   0  0  0  0  0  0  0  0  0  0  0  0
  -22.0620  -12.9010   22.0530 N   0  0  0  0  0  0  0  0  0  0  0  0
  -22.3260  -14.6410   20.6840 O   0  0  0  0  0  0  0  0  0  0  0  0
  -22.4400  -12.0700   22.4840 H   0  0  0  0  0  0  0  0  0  0  0  0
  -21.1250  -13.1930   22.2910 H   0  0  0  0  0  0  0  0  0  0  0  0
  -25.3720  -15.3040   20.3400 N   0  0  0  0  0  0  0  0  0  0  0  0
  -24.5980  -15.9480   20.4580 H   0  0  0  0  0  0  0  0  0  0  0  0
  -26.1960  -15.7450   19.9530 H   0  0  0  0  0  0  0  0  0  0  0  0
  -29.6780  -23.6060   17.6180 C   0  0  0  0  0  2  0  0  0  0  0  0
  -30.1730  -24.0880   15.1540 C   0  0  0  0  0  1  0  0  0  0  0  0
  -29.8270  -23.0260   16.2020 C   0  0  0  0  0  2  0  0  0  0  0  0
  -28.0510  -24.2990   20.4550 C   0  0  0  0  0  2  0  0  0  0  0  0
  -28.2690  -25.9310   20.3170 O   0  0  0  0  0  0  0  0  0  0  0  0
  -24.6680  -31.8930   23.2600 C   0  0  0  0  0  0  0  0  0  0  0  0
  -27.2390  -27.0080   20.2830 C   0  0  0  0  0  0  0  0  0  0  0  0
  -23.4800  -30.4840   21.6280 C   0  0  0  0  0  3  0  0  0  0  0  0
  -24.9340  -28.8750   20.2200 C   0  0  0  0  0  0  0  0  0  0  0  0
  -26.0460  -30.7040   21.4840 C   0  0  0  0  0  2  0  0  0  0  0  0
  -26.1200  -29.2900   20.8380 C   0  0  0  0  0  0  0  0  0  0  0  0
  -27.2700  -28.3790   20.8400 C   0  0  0  0  0  3  0  0  0  0  0  0
  -26.0200  -26.7420   19.6200 C   0  0  0  0  0  3  0  0  0  0  0  0
  -24.9080  -27.6220   19.5900 C   0  0  0  0  0  3  0  0  0  0  0  0
  -23.7130  -29.7940   20.2560 C   0  0  0  0  0  2  0  0  0  0  0  0
  -24.7530  -31.0540   22.1770 N   0  0  0  0  0  0  0  0  0  0  0  0
  -23.5770  -32.1820   23.7780 O   0  0  0  0  0  0  0  0  0  0  0  0
  -22.7870  -29.4920   22.5980 C   0  0  0  0  0  0  0  0  0  0  0  0
  -21.4590  -29.3180   22.4660 N   0  0  0  0  0  0  0  0  0  0  0  0
  -23.4520  -28.8790   23.4370 O   0  0  0  0  0  0  0  0  0  0  0  0
  -20.9770  -29.8600   21.7650 H   0  0  0  0  0  0  0  0  0  0  0  0
  -18.0800  -28.0970   22.9700 C   0  0  0  0  0  0  0  0  0  0  0  0
  -20.6370  -28.3810   23.2410 C   0  0  0  0  0  3  0  0  0  0  0  0
  -20.7510  -26.9450   22.6770 C   0  0  0  0  0  2  0  0  0  0  0  0
  -19.6540  -26.6080   21.6620 C   0  0  0  0  0  2  0  0  0  0  0  0
  -18.2690  -26.7450   22.3000 C   0  0  0  0  0  2  0  0  0  0  0  0
  -19.1910  -28.8710   23.3970 C   0  0  0  0  0  0  0  0  0  0  0  0
  -18.9590  -30.1310   23.9870 C   0  0  0  0  0  3  0  0  0  0  0  0
  -17.6490  -30.6200   24.1520 C   0  0  0  0  0  3  0  0  0  0  0  0
  -16.5530  -29.8440   23.7400 C   0  0  0  0  0  3  0  0  0  0  0  0
  -16.7680  -28.5830   23.1540 C   0  0  0  0  0  3  0  0  0  0  0  0
  -25.9360  -32.5430   23.8920 C   0  0  0  0  0  3  0  0  0  0  0  0
  -26.4410  -31.7860   25.1830 C   0  0  1  0  0  0  0  0  0  0  0  0
  -25.3350  -31.5460   26.2370 C   0  0  0  0  0  1  0  0  0  0  0  0
  -27.0430  -30.4100   24.8170 C   0  0  0  0  0  1  0  0  0  0  0  0
  -27.5750  -32.5960   25.8540 C   0  0  0  0  0  1  0  0  0  0  0  0
  -25.6130  -33.9430   24.2200 N   0  0  0  0  0  0  0  0  0  0  0  0
  -25.9300  -35.0020   23.4640 C   0  0  0  0  0  0  0  0  0  0  0  0
  -26.5880  -34.9040   22.4260 O   0  0  0  0  0  0  0  0  0  0  0  0
  -25.0210  -34.0900   25.0250 H   0  0  0  0  0  0  0  0  0  0  0  0
  -24.1850  -36.7890   23.1450 C   0  0  0  0  0  1  0  0  0  0  0  0
  -25.4440  -36.3900   23.9310 C   0  0  0  0  0  3  0  0  0  0  0  0
  -27.5850  -37.2950   24.7270 C   0  0  0  0  0  1  0  0  0  0  0  0
  -26.4670  -37.4510   23.8000 N   0  0  0  0  0  0  0  0  0  0  0  0
  -26.0570  -38.3690   23.9490 H   0  0  0  0  0  0  0  0  0  0  0  0
  2  1  1  0
  4  7  1  0
  8  4  1  6
  5 47  1  0
  5  3  1  0
  5  6  1  0
  6  8  1  0
  6 50  1  0
  7 17  1  0
  7  1  1  0
  8  3  1  0
  8  2  1  0
  9 17  1  0
 10 15  1  0
 11 12  1  0
 11 10  1  0
 13 12  1  0
 13 22  1  0
 13 14  1  0
 15  9  1  0
 15 14  1  0
 16  9  2  0
 17 18  1  0
 19 20  2  0
 20 39  1  0
 21 20  1  0
 21 24  1  0
 22 23  1  0
 22 19  1  0
 23 21  2  0
 24 25  1  0
 25 26  2  0
 27 30  1  0
 27 26  1  0
 28 27  2  0
 29 28  1  0
 29 24  2  0
 30 31  1  0
 31 32  1  0
 32 33  2  0
 34 33  1  0
 34 38  1  0
 35 34  2  0
 36 31  2  0
 36 35  1  0
 37 36  1  0
 39 40  1  0
 40 43  1  0
 40 42  1  0
 41 39  2  0
 44 45  1  0
 44 19  1  0
 46 44  1  0
 48 49  1  0
 49 47  1  0
 51 50  1  0
 52 63  2  0
 53 51  1  0
 53 58  1  0
 54 62  1  0
 54 64  1  0
 55 61  1  0
 55 57  1  0
 56 62  1  0
 57 58  2  0
 57 56  1  0
 59 53  2  0
 60 59  1  0
 60 55  2  0
 61 54  1  0
 62 52  1  0
 64 66  2  0
 65 64  1  0
 67 65  1  0
 68 77  2  0
 68 73  1  0
 69 65  1  0
 69 73  1  0
 70 69  1  0
 71 72  1  0
 71 70  1  0
 72 68  1  0
 73 74  2  0
 74 75  1  0
 76 75  2  0
 77 76  1  0
 78 52  1  0
 78 83  1  0
 78 79  1  0
 79 82  1  1
 79 80  1  0
 81 79  1  0
 83 86  1  0
 84 88  1  0
 84 83  1  0
 85 84  2  0
 88 87  1  0
 90 88  1  0
 90 91  1  0
 90 89  1  0
M  ISO  4   9 100  17 100  50 101  51 101
M  END
>  <TORSDO>  (76) 
F 19

>  <SCORE>  (76) 
-15.771

>  <name>  (76) 
75

>  <ligand_id>  (76) 
75

>  <original_smiles>  (76) 
[H]c1c([H])c([H])c2c(c1[H])C([H])([H])C([H])([H])C([H])([H])C2([H])N([H])C(=O)C1([H])N(C(=O)C([H])(N([H])C(=O)C([H])(N([H])C([H])([H])[H])C([H])([H])[H])C(C([H])([H])[H])(C([H])([H])[H])C([H])([H])[H])C([H])([H])c2c([H])c(OC([H])([H])C3([H])C([H])(C([H])([H])C([H])([H])C([H])([H])[H])C([H])([H])C34C([H])([H])C([H])([H])C([H])(N([H])C(=O)N3C([H])([H])C([H])([H])C([H])([H])C([H])(n5nc(-c6c([H])c([H])c(Oc7c([H])c([H])c(F)c([H])c7F)c([H])c6[H])c(C(=O)N([H])[H])c5N([H])[H])C3([H])[H])C4([H])[H])c([H])c([H])c2C1([H])[H]

>  <smiles>  (76) 
[H]c1c([H])c([H])c2c(c1[H])C([H])([H])C([H])([H])C([H])([H])C2([H])N([H])C(=O)C1([H])N(C(=O)C([H])(N([H])C(=O)C([H])(N([H])C([H])([H])[H])C([H])([H])[H])C(C([H])([H])[H])(C([H])([H])[H])C([H])([H])[H])C([H])([H])c2c([H])c(OC([H])([H])C3([H])C([H])(C([H])([H])C([H])([H])C([H])([H])[H])C([H])([H])C34C([H])([H])C([H])([H])C([H])(N([H])C(=O)N3C([H])([H])C([H])([H])C([H])([H])C([H])(n5nc(-c6c([H])c([H])c(Oc7c([H])c([H])c(F)c([H])c7F)c([H])c6[H])c(C(=O)N([H])[H])c5N([H])[H])C3([H])[H])C4([H])[H])c([H])c([H])c2C1([H])[H]

$$$$
76:0:0
     RDKit          3D

 99106  0  0  1  0  0  0  0  0999 V2000
  -25.9770  -22.4900   19.5310 N   0  0  0  0  0  4  0  0  0  0  0  0
  -26.4580  -22.3080   20.3970 H   0  0  0  0  0  0  0  0  0  0  0  0
  -25.0700  -22.0570   19.6020 H   0  0  0  0  0  0  0  0  0  0  0  0
  -25.7500  -23.9440   19.3660 C   0  0  0  0  0  2  0  0  0  0  0  0
  -26.5680  -24.8090   20.3490 C   0  0  0  0  0  2  0  0  0  0  0  0
  -26.5020  -24.2720   21.7830 C   0  0  0  0  0  2  0  0  0  0  0  0
  -25.6820  -25.1540   22.7460 C   0  0  0  0  0  2  0  0  0  0  0  0
  -26.4470  -26.4090   23.2310 C   0  0  0  0  0  3  0  0  0  0  0  0
  -25.2450  -28.5190   24.1770 C   0  0  0  0  0  0  0  0  0  0  0  0
  -24.1610  -30.4240   23.0520 C   0  0  0  0  0  2  0  0  0  0  0  0
  -22.8210  -29.9720   22.4330 C   0  0  0  0  0  2  0  0  0  0  0  0
  -23.0220  -29.3510   21.0340 C   0  0  0  0  0  2  0  0  0  0  0  0
  -24.1770  -28.3160   21.0000 C   0  0  0  0  0  3  0  0  0  0  0  0
  -25.4280  -28.9310   21.6630 C   0  0  0  0  0  2  0  0  0  0  0  0
  -25.0710  -29.2640   23.0480 N   0  0  0  0  0  0  0  0  0  0  0  0
  -24.8930  -28.9260   25.2870 O   0  0  0  0  0  0  0  0  0  0  0  0
  -25.5490  -27.2060   24.0840 N   0  0  0  0  0  0  0  0  0  0  0  0
  -25.3230  -26.7320   24.9470 H   0  0  0  0  0  0  0  0  0  0  0  0
  -23.6310  -27.1510   18.7680 C   0  0  0  0  0  0  0  0  0  0  0  0
  -24.3400  -27.0350   17.6050 C   0  0  0  0  0  0  0  0  0  0  0  0
  -25.5860  -27.6970   17.8330 C   0  0  0  0  0  0  0  0  0  0  0  0
  -24.4480  -27.8550   19.6410 N   0  0  0  0  0  0  0  0  0  0  0  0
  -25.6500  -28.1390   19.0810 N   0  0  0  0  0  0  0  0  0  0  0  0
  -26.6960  -27.9900   16.9170 C   0  0  0  0  0  0  0  0  0  0  0  0
  -27.9320  -27.3140   17.0200 C   0  0  0  0  0  3  0  0  0  0  0  0
  -28.9810  -27.5970   16.1200 C   0  0  0  0  0  3  0  0  0  0  0  0
  -28.8000  -28.5640   15.1030 C   0  0  0  0  0  0  0  0  0  0  0  0
  -27.5770  -29.2530   15.0210 C   0  0  0  0  0  3  0  0  0  0  0  0
  -26.5350  -28.9730   15.9200 C   0  0  0  0  0  3  0  0  0  0  0  0
  -29.7700  -28.9230   14.2000 O   0  0  0  0  0  0  0  0  0  0  0  0
  -30.4260  -27.9880   13.4390 C   0  0  0  0  0  0  0  0  0  0  0  0
  -29.7590  -27.2180   12.4630 C   0  0  0  0  0  3  0  0  0  0  0  0
  -30.4850  -26.3210   11.6560 C   0  0  0  0  0  3  0  0  0  0  0  0
  -31.8790  -26.1960   11.8170 C   0  0  0  0  0  0  0  0  0  0  0  0
  -32.5460  -26.9670   12.7850 C   0  0  0  0  0  3  0  0  0  0  0  0
  -31.8220  -27.8630   13.5910 C   0  0  0  0  0  0  0  0  0  0  0  0
  -32.4720  -28.6170   14.5080 F   0  0  0  0  0  0  0  0  0  0  0  0
  -32.5810  -25.3410   11.0380 F   0  0  0  0  0  0  0  0  0  0  0  0
  -23.8630  -26.4220   16.3190 C   0  0  0  0  0  0  0  0  0  0  0  0
  -24.7290  -25.6890   15.6290 N   0  0  0  0  0  0  0  0  0  0  0  0
  -22.7010  -26.5630   15.9400 O   0  0  0  0  0  0  0  0  0  0  0  0
  -25.6790  -25.5670   15.9470 H   0  0  0  0  0  0  0  0  0  0  0  0
  -24.4460  -25.2540   14.7630 H   0  0  0  0  0  0  0  0  0  0  0  0
  -22.3580  -26.7320   19.1520 N   0  0  0  0  0  0  0  0  0  0  0  0
  -21.7330  -26.2380   18.5260 H   0  0  0  0  0  0  0  0  0  0  0  0
  -21.9410  -26.9330   20.0520 H   0  0  0  0  0  0  0  0  0  0  0  0
  -27.7810  -26.0630   23.9590 C   0  0  0  0  0  2  0  0  0  0  0  0
  -28.7830  -27.2250   24.0730 C   0  0  0  0  0  0  0  0  0  0  0  0
  -30.0530  -26.9790   23.7780 N   0  0  0  0  0  0  0  0  0  0  0  0
  -28.4250  -28.3470   24.4220 O   0  0  0  0  0  0  0  0  0  0  0  0
  -30.3480  -26.0530   23.4990 H   0  0  0  0  0  0  0  0  0  0  0  0
  -30.7400  -27.7200   23.8330 H   0  0  0  0  0  0  0  0  0  0  0  0
  -26.6910  -21.8300   18.4210 C   0  0  0  0  0  2  0  0  0  0  0  0
  -28.2190  -22.0200   18.5100 C   0  0  0  0  0  2  0  0  0  0  0  0
  -28.9210  -21.4100   17.3000 C   0  0  0  0  0  2  0  0  0  0  0  0
  -30.4490  -21.5240   17.3360 C   0  0  0  0  0  2  0  0  0  0  0  0
  -31.0450  -20.3880   16.4960 C   0  0  0  0  0  2  0  0  0  0  0  0
  -32.3990  -19.8590   16.9870 C   0  0  0  0  0  2  0  0  0  0  0  0
  -32.3850  -18.4330   16.9210 O   0  0  0  0  0  0  0  0  0  0  0  0
  -32.2980  -12.4410   20.7580 C   0  0  0  0  0  0  0  0  0  0  0  0
  -31.7340  -17.7170   17.9080 C   0  0  0  0  0  0  0  0  0  0  0  0
  -30.3420  -13.9270   21.0540 C   0  0  0  0  0  3  0  0  0  0  0  0
  -30.5430  -16.2400   20.0060 C   0  0  0  0  0  0  0  0  0  0  0  0
  -32.6110  -14.8800   20.3570 C   0  0  0  0  0  2  0  0  0  0  0  0
  -31.8600  -15.9660   19.6180 C   0  0  0  0  0  0  0  0  0  0  0  0
  -32.4590  -16.7040   18.5750 C   0  0  0  0  0  3  0  0  0  0  0  0
  -30.3950  -17.9610   18.2980 C   0  0  0  0  0  3  0  0  0  0  0  0
  -29.8010  -17.2300   19.3390 C   0  0  0  0  0  3  0  0  0  0  0  0
  -29.9840  -15.4320   21.1530 C   0  0  0  0  0  2  0  0  0  0  0  0
  -31.7800  -13.7010   20.6970 N   0  0  0  0  0  0  0  0  0  0  0  0
  -31.6140  -11.4870   21.1480 O   0  0  0  0  0  0  0  0  0  0  0  0
  -29.3550  -13.2540   20.0740 C   0  0  0  0  0  0  0  0  0  0  0  0
  -28.1960  -12.8250   20.5990 N   0  0  0  0  0  0  0  0  0  0  0  0
  -29.6220  -13.1510   18.8740 O   0  0  0  0  0  0  0  0  0  0  0  0
  -28.0570  -12.9360   21.5950 H   0  0  0  0  0  0  0  0  0  0  0  0
  -25.3890  -10.5740   20.9200 C   0  0  0  0  0  0  0  0  0  0  0  0
  -27.0990  -12.1970   19.8630 C   0  0  0  0  0  3  0  0  0  0  0  0
  -25.9130  -13.1730   19.6890 C   0  0  0  0  0  2  0  0  0  0  0  0
  -24.8590  -13.0480   20.7930 C   0  0  0  0  0  2  0  0  0  0  0  0
  -24.2940  -11.6240   20.8330 C   0  0  0  0  0  2  0  0  0  0  0  0
  -26.7100  -10.8490   20.4790 C   0  0  0  0  0  0  0  0  0  0  0  0
  -27.6990   -9.8510   20.6150 C   0  0  0  0  0  3  0  0  0  0  0  0
  -27.3850   -8.5990   21.1780 C   0  0  0  0  0  3  0  0  0  0  0  0
  -26.0730   -8.3270   21.5980 C   0  0  0  0  0  3  0  0  0  0  0  0
  -25.0770   -9.3110   21.4660 C   0  0  0  0  0  3  0  0  0  0  0  0
  -33.7800  -12.1460   20.3680 C   0  0  0  0  0  3  0  0  0  0  0  0
  -34.2700  -11.0870   21.2580 N   0  0  0  0  0  0  0  0  0  0  0  0
  -34.9470  -11.3010   22.3950 C   0  0  0  0  0  0  0  0  0  0  0  0
  -35.2940  -12.4260   22.7650 O   0  0  0  0  0  0  0  0  0  0  0  0
  -33.9800  -10.1440   21.0440 H   0  0  0  0  0  0  0  0  0  0  0  0
  -34.2420   -9.9060   24.3620 C   0  0  0  0  0  1  0  0  0  0  0  0
  -35.2960  -10.0730   23.2550 C   0  0  0  0  0  3  0  0  0  0  0  0
  -37.7160   -9.8560   22.9040 C   0  0  0  0  0  1  0  0  0  0  0  0
  -36.6460  -10.1390   23.8570 N   0  0  0  0  0  0  0  0  0  0  0  0
  -36.7280   -9.4840   24.6310 H   0  0  0  0  0  0  0  0  0  0  0  0
  -33.9560  -11.7290   18.8570 C   0  0  1  0  0  0  0  0  0  0  0  0
  -33.8990  -10.2010   18.6250 C   0  0  0  0  0  1  0  0  0  0  0  0
  -32.8610  -12.3820   17.9810 C   0  0  0  0  0  1  0  0  0  0  0  0
  -35.3130  -12.2460   18.3240 C   0  0  0  0  0  1  0  0  0  0  0  0
  1  3  1  0
  1  2  1  0
  4  1  1  0
  4  5  1  0
  5  6  1  0
  6  7  1  0
  8  7  1  0
  8 47  1  0
  8 17  1  0
  9 16  2  0
 11 10  1  0
 12 11  1  0
 13 22  1  0
 13 12  1  0
 13 14  1  0
 14 15  1  0
 15 10  1  0
 15  9  1  0
 17  9  1  0
 17 18  1  0
 19 44  1  0
 19 22  1  0
 20 21  1  0
 20 19  2  0
 21 23  2  0
 23 22  1  0
 24 25  1  0
 24 21  1  0
 26 25  2  0
 27 26  1  0
 28 27  2  0
 28 29  1  0
 29 24  2  0
 30 27  1  0
 31 36  1  0
 31 30  1  0
 32 31  2  0
 33 34  2  0
 33 32  1  0
 34 35  1  0
 35 36  2  0
 36 37  1  0
 38 34  1  0
 39 20  1  0
 40 42  1  0
 40 39  1  0
 41 39  2  0
 43 40  1  0
 44 46  1  0
 45 44  1  0
 47 48  1  0
 48 50  2  0
 49 52  1  0
 49 48  1  0
 51 49  1  0
 53 54  1  0
 53  1  1  0
 55 56  1  0
 55 54  1  0
 57 58  1  0
 57 56  1  0
 59 58  1  0
 59 61  1  0
 60 71  2  0
 61 67  2  0
 61 66  1  0
 62 72  1  0
 62 69  1  0
 63 69  1  0
 64 70  1  0
 65 63  1  0
 65 64  1  0
 66 65  2  0
 67 68  1  0
 68 63  2  0
 70 60  1  0
 70 62  1  0
 72 73  1  0
 73 75  1  0
 74 72  2  0
 76 85  1  0
 77 81  1  0
 77 73  1  0
 78 77  1  0
 78 79  1  0
 79 80  1  0
 80 76  1  0
 81 82  1  0
 81 76  2  0
 82 83  2  0
 83 84  1  0
 85 84  2  0
 86 60  1  0
 86 87  1  0
 87 88  1  0
 88 89  2  0
 88 92  1  0
 90 87  1  0
 92 94  1  0
 92 91  1  0
 93 94  1  0
 94 95  1  0
 96 86  1  0
 96 97  1  1
 98 96  1  0
 99 96  1  0
M  ISO  4   9 100  17 100  58 101  59 101
M  END
>  <TORSDO>  (77) 
F 29

>  <SCORE>  (77) 
-6.457

>  <name>  (77) 
76

>  <ligand_id>  (77) 
76

>  <original_smiles>  (77) 
[H]c1c([H])c([H])c2c(c1[H])C([H])([H])C([H])([H])C([H])([H])C2([H])N([H])C(=O)C1([H])N(C(=O)C([H])(N([H])C(=O)C([H])(N([H])C([H])([H])[H])C([H])([H])[H])C(C([H])([H])[H])(C([H])([H])[H])C([H])([H])[H])C([H])([H])c2c([H])c(OC([H])([H])C([H])([H])C([H])([H])C([H])([H])C([H])([H])C([H])([H])[N+]([H])([H])C([H])([H])C([H])([H])C([H])([H])C([H])([H])C([H])(N([H])C(=O)N3C([H])([H])C([H])([H])C([H])([H])C([H])(n4nc(-c5c([H])c([H])c(Oc6c([H])c([H])c(F)c([H])c6F)c([H])c5[H])c(C(=O)N([H])[H])c4N([H])[H])C3([H])[H])C([H])([H])C(=O)N([H])[H])c([H])c([H])c2C1([H])[H]

>  <smiles>  (77) 
[H]c1c([H])c([H])c2c(c1[H])C([H])([H])C([H])([H])C([H])([H])C2([H])N([H])C(=O)C1([H])N(C(=O)C([H])(N([H])C(=O)C([H])(N([H])C([H])([H])[H])C([H])([H])[H])C(C([H])([H])[H])(C([H])([H])[H])C([H])([H])[H])C([H])([H])c2c([H])c(OC([H])([H])C([H])([H])C([H])([H])C([H])([H])C([H])([H])C([H])([H])[N+]([H])([H])C([H])([H])C([H])([H])C([H])([H])C([H])([H])C([H])(N([H])C(=O)N3C([H])([H])C([H])([H])C([H])([H])C([H])(n4nc(-c5c([H])c([H])c(Oc6c([H])c([H])c(F)c([H])c6F)c([H])c5[H])c(C(=O)N([H])[H])c4N([H])[H])C3([H])[H])C([H])([H])C(=O)N([H])[H])c([H])c([H])c2C1([H])[H]

$$$$
77:0:0
     RDKit          3D

 94103  0  0  1  0  0  0  0  0999 V2000
  -29.5270  -21.2270   21.1690 N   0  0  0  0  0  4  0  0  0  0  0  0
  -28.9100  -21.2630   20.3740 H   0  0  0  0  0  0  0  0  0  0  0  0
  -30.4700  -21.2140   20.8150 H   0  0  0  0  0  0  0  0  0  0  0  0
  -30.0210  -22.4210   23.3510 C   0  0  0  0  0  1  0  0  0  0  0  0
  -29.3260  -22.4770   21.9690 C   0  0  0  0  0  3  0  0  0  0  0  0
  -29.8020  -23.7540   21.2130 C   0  0  0  0  0  2  0  0  0  0  0  0
  -28.7010  -24.6260   20.5630 C   0  0  0  0  0  2  0  0  0  0  0  0
  -29.1550  -26.0950   20.3770 C   0  0  0  0  0  2  0  0  0  0  0  0
  -28.5560  -26.7220   19.2450 O   0  0  0  0  0  0  0  0  0  0  0  0
  -24.7360  -31.5020   22.9500 C   0  0  0  0  0  0  0  0  0  0  0  0
  -27.3710  -27.3780   19.4580 C   0  0  0  0  0  0  0  0  0  0  0  0
  -23.4900  -30.1330   21.3100 C   0  0  0  0  0  3  0  0  0  0  0  0
  -24.9140  -28.7480   19.7100 C   0  0  0  0  0  0  0  0  0  0  0  0
  -25.9750  -30.6310   20.9700 C   0  0  0  0  0  2  0  0  0  0  0  0
  -26.0830  -29.2980   20.2580 C   0  0  0  0  0  0  0  0  0  0  0  0
  -27.3150  -28.6170   20.1370 C   0  0  0  0  0  3  0  0  0  0  0  0
  -26.1920  -26.8400   18.9070 C   0  0  0  0  0  3  0  0  0  0  0  0
  -24.9630  -27.5140   19.0370 C   0  0  0  0  0  3  0  0  0  0  0  0
  -23.6370  -29.5400   19.8830 C   0  0  0  0  0  2  0  0  0  0  0  0
  -24.7540  -30.7670   21.8020 N   0  0  0  0  0  0  0  0  0  0  0  0
  -23.6830  -31.6910   23.5740 O   0  0  0  0  0  0  0  0  0  0  0  0
  -22.9510  -29.0300   22.2500 C   0  0  0  0  0  0  0  0  0  0  0  0
  -21.6410  -28.7510   22.1530 N   0  0  0  0  0  0  0  0  0  0  0  0
  -23.7060  -28.4300   23.0170 O   0  0  0  0  0  0  0  0  0  0  0  0
  -21.0880  -29.2920   21.5040 H   0  0  0  0  0  0  0  0  0  0  0  0
  -18.3990  -27.2320   22.6440 C   0  0  0  0  0  0  0  0  0  0  0  0
  -20.9220  -27.7240   22.9080 C   0  0  0  0  0  3  0  0  0  0  0  0
  -21.1560  -26.3220   22.3010 C   0  0  0  0  0  2  0  0  0  0  0  0
  -20.0830  -25.9180   21.2850 C   0  0  0  0  0  2  0  0  0  0  0  0
  -18.6970  -25.9190   21.9400 C   0  0  0  0  0  2  0  0  0  0  0  0
  -19.4440  -28.0860   23.0830 C   0  0  0  0  0  0  0  0  0  0  0  0
  -19.1150  -29.3130   23.7000 C   0  0  0  0  0  3  0  0  0  0  0  0
  -17.7710  -29.6880   23.8820 C   0  0  0  0  0  3  0  0  0  0  0  0
  -16.7390  -28.8320   23.4610 C   0  0  0  0  0  3  0  0  0  0  0  0
  -17.0530  -27.6050   22.8480 C   0  0  0  0  0  3  0  0  0  0  0  0
  -26.0340  -32.1600   23.5200 C   0  0  0  0  0  3  0  0  0  0  0  0
  -26.6830  -31.3310   24.6950 C   0  0  1  0  0  0  0  0  0  0  0  0
  -25.6840  -30.9530   25.8150 C   0  0  0  0  0  1  0  0  0  0  0  0
  -27.3080  -30.0230   24.1560 C   0  0  0  0  0  1  0  0  0  0  0  0
  -27.8360  -32.1400   25.3300 C   0  0  0  0  0  1  0  0  0  0  0  0
  -25.6800  -33.5110   23.9730 N   0  0  0  0  0  0  0  0  0  0  0  0
  -25.9330  -34.6320   23.2830 C   0  0  0  0  0  0  0  0  0  0  0  0
  -26.5610  -34.6380   22.2200 O   0  0  0  0  0  0  0  0  0  0  0  0
  -25.1120  -33.5750   24.8040 H   0  0  0  0  0  0  0  0  0  0  0  0
  -24.1250  -36.3700   23.1240 C   0  0  0  0  0  1  0  0  0  0  0  0
  -25.4070  -35.9570   23.8650 C   0  0  0  0  0  3  0  0  0  0  0  0
  -27.5300  -36.8600   24.7010 C   0  0  0  0  0  1  0  0  0  0  0  0
  -26.3940  -37.0590   23.8060 N   0  0  0  0  0  0  0  0  0  0  0  0
  -25.9580  -37.9480   24.0420 H   0  0  0  0  0  0  0  0  0  0  0  0
  -29.2950  -19.9450   21.8910 C   0  0  0  0  0  2  0  0  0  0  0  0
  -31.4050  -14.6100   19.8170 C   0  0  0  0  0  0  0  0  0  0  0  0
  -30.9480  -12.4490   18.7100 C   0  0  0  0  0  2  0  0  0  0  0  0
  -29.9000  -12.6360   17.5930 C   0  0  0  0  0  2  0  0  0  0  0  0
  -28.4670  -12.5270   18.1520 C   0  0  0  0  0  2  0  0  0  0  0  0
  -28.2620  -13.3700   19.4380 C   0  0  0  0  0  3  0  0  0  0  0  0
  -29.4110  -13.1100   20.4330 C   0  0  0  0  0  2  0  0  0  0  0  0
  -30.6670  -13.4580   19.7510 N   0  0  0  0  0  0  0  0  0  0  0  0
  -32.4980  -14.6740   19.2440 O   0  0  0  0  0  0  0  0  0  0  0  0
  -29.9120  -16.0040   21.3680 C   0  0  0  0  0  2  0  0  0  0  0  0
  -30.0170  -17.4340   21.8540 C   0  0  0  0  0  3  0  0  0  0  0  0
  -31.0020  -18.1180   20.9640 C   0  0  0  0  0  3  0  0  0  0  0  0
  -29.5990  -18.6800   21.0830 C   0  0  0  0  0  3  0  0  0  0  0  0
  -31.4350  -17.0940   19.9280 C   0  0  0  0  0  3  0  0  0  0  0  0
  -30.8210  -15.7790   20.2340 N   0  0  0  0  0  0  0  0  0  0  0  0
  -25.9830  -14.0280   20.4340 C   0  0  0  0  0  0  0  0  0  0  0  0
  -24.9250  -13.2770   20.8690 C   0  0  0  0  0  0  0  0  0  0  0  0
  -25.3160  -11.9120   20.7070 C   0  0  0  0  0  0  0  0  0  0  0  0
  -26.9560  -13.1210   20.0410 N   0  0  0  0  0  0  0  0  0  0  0  0
  -26.5630  -11.8400   20.2590 N   0  0  0  0  0  0  0  0  0  0  0  0
  -24.5570  -10.6700   20.8970 C   0  0  0  0  0  0  0  0  0  0  0  0
  -24.9510   -9.7000   21.8440 C   0  0  0  0  0  3  0  0  0  0  0  0
  -24.1940   -8.5220   22.0210 C   0  0  0  0  0  3  0  0  0  0  0  0
  -23.0260   -8.3070   21.2510 C   0  0  0  0  0  0  0  0  0  0  0  0
  -22.6510   -9.2640   20.2920 C   0  0  0  0  0  3  0  0  0  0  0  0
  -23.4090  -10.4340   20.1130 C   0  0  0  0  0  3  0  0  0  0  0  0
  -22.2430   -7.1810   21.3350 O   0  0  0  0  0  0  0  0  0  0  0  0
  -22.0460   -6.5310   22.5270 C   0  0  0  0  0  0  0  0  0  0  0  0
  -21.4910   -7.1840   23.6490 C   0  0  0  0  0  3  0  0  0  0  0  0
  -21.2410   -6.4600   24.8320 C   0  0  0  0  0  3  0  0  0  0  0  0
  -21.5350   -5.0840   24.8930 C   0  0  0  0  0  0  0  0  0  0  0  0
  -22.0820   -4.4310   23.7740 C   0  0  0  0  0  3  0  0  0  0  0  0
  -22.3340   -5.1530   22.5940 C   0  0  0  0  0  0  0  0  0  0  0  0
  -22.8410   -4.5150   21.5120 F   0  0  0  0  0  0  0  0  0  0  0  0
  -21.2860   -4.3870   26.0260 F   0  0  0  0  0  0  0  0  0  0  0  0
  -23.5870  -13.7900   21.3200 C   0  0  0  0  0  0  0  0  0  0  0  0
  -22.9410  -13.0870   22.2430 N   0  0  0  0  0  0  0  0  0  0  0  0
  -23.1320  -14.8480   20.8890 O   0  0  0  0  0  0  0  0  0  0  0  0
  -23.3260  -12.2290   22.6090 H   0  0  0  0  0  0  0  0  0  0  0  0
  -22.0480  -13.4100   22.5870 H   0  0  0  0  0  0  0  0  0  0  0  0
  -26.1900  -15.4000   20.3170 N   0  0  0  0  0  0  0  0  0  0  0  0
  -25.4690  -16.0750   20.5430 H   0  0  0  0  0  0  0  0  0  0  0  0
  -27.0150  -15.8210   19.9120 H   0  0  0  0  0  0  0  0  0  0  0  0
  -31.8410  -18.8290   18.0700 C   0  0  0  0  0  1  0  0  0  0  0  0
  -31.1240  -17.5370   18.4800 C   0  0  0  0  0  2  0  0  0  0  0  0
  1 50  1  0
  1  5  1  0
  2  1  1  0
  3  1  1  0
  5  4  1  0
  6  5  1  0
  7  6  1  0
  8  7  1  0
  9 11  1  0
  9  8  1  0
 10 21  2  0
 11 16  1  0
 12 20  1  0
 12 22  1  0
 13 19  1  0
 13 15  1  0
 14 20  1  0
 15 14  1  0
 16 15  2  0
 17 18  1  0
 17 11  2  0
 18 13  2  0
 19 12  1  0
 20 10  1  0
 22 24  2  0
 23 22  1  0
 25 23  1  0
 26 35  2  0
 26 31  1  0
 27 23  1  0
 27 31  1  0
 28 27  1  0
 29 30  1  0
 29 28  1  0
 30 26  1  0
 31 32  2  0
 32 33  1  0
 34 33  2  0
 35 34  1  0
 36 10  1  0
 36 41  1  0
 36 37  1  0
 37 40  1  1
 37 38  1  0
 39 37  1  0
 41 44  1  0
 42 46  1  0
 42 41  1  0
 43 42  2  0
 46 45  1  0
 48 46  1  0
 48 49  1  0
 48 47  1  0
 51 64  1  0
 52 57  1  0
 53 54  1  0
 53 52  1  0
 55 54  1  0
 55 68  1  0
 55 56  1  0
 57 51  1  0
 57 56  1  0
 58 51  2  0
 60 59  1  0
 61 62  1  0
 61 60  1  0
 62 60  1  0
 62 50  1  0
 63 64  1  0
 63 61  1  0
 64 59  1  0
 65 66  2  0
 66 85  1  0
 67 66  1  0
 67 70  1  0
 68 69  1  0
 68 65  1  0
 69 67  2  0
 70 71  1  0
 71 72  2  0
 73 76  1  0
 73 72  1  0
 74 73  2  0
 75 74  1  0
 75 70  2  0
 76 77  1  0
 77 82  2  0
 77 78  1  0
 78 79  2  0
 79 80  1  0
 80 84  1  0
 81 80  2  0
 82 81  1  0
 83 82  1  0
 85 86  1  0
 86 89  1  0
 86 88  1  0
 87 85  2  0
 90 65  1  0
 90 91  1  0
 92 90  1  0
 93 94  1  0
 94 63  1  0
M  ISO  4   8 101   9 101  51 100  64 100
M  END
>  <TORSDO>  (78) 
F 22

>  <SCORE>  (78) 
-10.488

>  <name>  (78) 
77

>  <ligand_id>  (78) 
77

>  <original_smiles>  (78) 
[H]c1c([H])c([H])c2c(c1[H])C([H])([H])C([H])([H])C([H])([H])C2([H])N([H])C(=O)C1([H])N(C(=O)C([H])(N([H])C(=O)C([H])(N([H])C([H])([H])[H])C([H])([H])[H])C(C([H])([H])[H])(C([H])([H])[H])C([H])([H])[H])C([H])([H])c2c([H])c(OC([H])([H])C([H])([H])C([H])([H])C([H])(C([H])([H])[H])[N+]([H])([H])C([H])([H])C3([H])C4([H])C([H])([H])N(C(=O)N5C([H])([H])C([H])([H])C([H])([H])C([H])(n6nc(-c7c([H])c([H])c(Oc8c([H])c([H])c(F)c([H])c8F)c([H])c7[H])c(C(=O)N([H])[H])c6N([H])[H])C5([H])[H])C([H])(C([H])([H])C([H])([H])[H])C43[H])c([H])c([H])c2C1([H])[H]

>  <smiles>  (78) 
[H]c1c([H])c([H])c2c(c1[H])C([H])([H])C([H])([H])C([H])([H])C2([H])N([H])C(=O)C1([H])N(C(=O)C([H])(N([H])C(=O)C([H])(N([H])C([H])([H])[H])C([H])([H])[H])C(C([H])([H])[H])(C([H])([H])[H])C([H])([H])[H])C([H])([H])c2c([H])c(OC([H])([H])C([H])([H])C([H])([H])C([H])(C([H])([H])[H])[N+]([H])([H])C([H])([H])C3([H])C4([H])C([H])([H])N(C(=O)N5C([H])([H])C([H])([H])C([H])([H])C([H])(n6nc(-c7c([H])c([H])c(Oc8c([H])c([H])c(F)c([H])c8F)c([H])c7[H])c(C(=O)N([H])[H])c6N([H])[H])C5([H])[H])C([H])(C([H])([H])C([H])([H])[H])C43[H])c([H])c([H])c2C1([H])[H]

$$$$
78:0:0
     RDKit          3D

 91100  0  0  1  0  0  0  0  0999 V2000
  -27.7080  -20.6600   18.7290 C   0  0  0  0  0  2  0  0  0  0  0  0
  -28.1050  -19.5110   19.7620 C   0  0  0  0  0  2  0  0  0  0  0  0
  -27.4720  -23.4970   19.1930 C   0  0  0  0  0  2  0  0  0  0  0  0
  -29.6990  -23.7790   19.8610 C   0  0  0  0  0  2  0  0  0  0  0  0
  -30.0900  -20.9330   20.3900 C   0  0  0  0  0  2  0  0  0  0  0  0
  -28.2670  -22.1400   18.8130 C   0  0  0  0  0  3  0  0  0  0  0  0
  -29.6680  -22.2020   19.4110 C   0  0  0  0  0  3  0  0  0  0  0  0
  -28.5410  -24.6850   19.1560 C   0  0  0  0  0  3  0  0  0  0  0  0
  -29.5770  -19.3390   20.3450 C   0  0  1  0  0  0  0  0  0  0  0  0
  -30.7110  -18.8540   22.6830 C   0  0  0  0  0  1  0  0  0  0  0  0
  -29.4090  -18.9300   21.8510 C   0  0  0  0  0  2  0  0  0  0  0  0
  -28.4180  -26.2410   19.4510 O   0  0  0  0  0  0  0  0  0  0  0  0
  -24.8060  -31.6340   22.9520 C   0  0  0  0  0  0  0  0  0  0  0  0
  -27.3190  -27.1890   19.4390 C   0  0  0  0  0  0  0  0  0  0  0  0
  -23.5530  -30.3320   21.2750 C   0  0  0  0  0  3  0  0  0  0  0  0
  -24.9550  -28.8950   19.6550 C   0  0  0  0  0  0  0  0  0  0  0  0
  -26.0870  -30.6650   20.9970 C   0  0  0  0  0  2  0  0  0  0  0  0
  -26.1540  -29.3220   20.2380 C   0  0  0  0  0  0  0  0  0  0  0  0
  -27.3300  -28.4850   20.1100 C   0  0  0  0  0  3  0  0  0  0  0  0
  -26.0910  -26.8680   18.8280 C   0  0  0  0  0  3  0  0  0  0  0  0
  -24.9350  -27.6830   18.9390 C   0  0  0  0  0  3  0  0  0  0  0  0
  -23.7130  -29.7600   19.8380 C   0  0  0  0  0  2  0  0  0  0  0  0
  -24.8400  -30.8980   21.7970 N   0  0  0  0  0  0  0  0  0  0  0  0
  -23.7420  -31.8470   23.5550 O   0  0  0  0  0  0  0  0  0  0  0  0
  -22.9490  -29.2420   22.1950 C   0  0  0  0  0  0  0  0  0  0  0  0
  -21.6220  -29.0330   22.1150 N   0  0  0  0  0  0  0  0  0  0  0  0
  -23.6770  -28.5850   22.9430 O   0  0  0  0  0  0  0  0  0  0  0  0
  -21.0870  -29.6180   21.4890 H   0  0  0  0  0  0  0  0  0  0  0  0
  -18.3150  -27.6590   22.6460 C   0  0  0  0  0  0  0  0  0  0  0  0
  -20.8680  -28.0170   22.8540 C   0  0  0  0  0  3  0  0  0  0  0  0
  -21.0110  -26.6260   22.1900 C   0  0  0  0  0  2  0  0  0  0  0  0
  -19.8920  -26.3160   21.1920 C   0  0  0  0  0  2  0  0  0  0  0  0
  -18.5260  -26.3640   21.8800 C   0  0  0  0  0  2  0  0  0  0  0  0
  -19.4130  -28.4420   23.0880 C   0  0  0  0  0  0  0  0  0  0  0  0
  -19.1580  -29.6560   23.7610 C   0  0  0  0  0  3  0  0  0  0  0  0
  -17.8370  -30.0860   23.9990 C   0  0  0  0  0  3  0  0  0  0  0  0
  -16.7550  -29.2990   23.5700 C   0  0  0  0  0  3  0  0  0  0  0  0
  -16.9950  -28.0880   22.8980 C   0  0  0  0  0  3  0  0  0  0  0  0
  -26.0990  -32.2580   23.5610 C   0  0  0  0  0  3  0  0  0  0  0  0
  -25.7680  -33.6080   24.0410 N   0  0  0  0  0  0  0  0  0  0  0  0
  -25.9910  -34.7400   23.3600 C   0  0  0  0  0  0  0  0  0  0  0  0
  -26.5650  -34.7580   22.2670 O   0  0  0  0  0  0  0  0  0  0  0  0
  -25.2540  -33.6680   24.9080 H   0  0  0  0  0  0  0  0  0  0  0  0
  -24.1580  -36.4620   23.3540 C   0  0  0  0  0  1  0  0  0  0  0  0
  -25.5000  -36.0590   23.9870 C   0  0  0  0  0  3  0  0  0  0  0  0
  -27.6740  -36.9890   24.6490 C   0  0  0  0  0  1  0  0  0  0  0  0
  -26.4650  -37.1710   23.8530 N   0  0  0  0  0  0  0  0  0  0  0  0
  -26.0360  -38.0510   24.1270 H   0  0  0  0  0  0  0  0  0  0  0  0
  -26.7060  -31.3970   24.7370 C   0  0  1  0  0  0  0  0  0  0  0  0
  -25.6870  -31.0480   25.8450 C   0  0  0  0  0  1  0  0  0  0  0  0
  -27.2920  -30.0740   24.1960 C   0  0  0  0  0  1  0  0  0  0  0  0
  -27.8790  -32.1620   25.3950 C   0  0  0  0  0  1  0  0  0  0  0  0
  -30.5050  -18.0100   19.7550 C   0  0  0  0  0  2  0  0  0  0  0  0
  -31.0140  -15.2470   19.8000 C   0  0  0  0  0  0  0  0  0  0  0  0
  -30.8790  -12.8600   18.9140 C   0  0  0  0  0  2  0  0  0  0  0  0
  -29.8700  -12.7510   17.7460 C   0  0  0  0  0  2  0  0  0  0  0  0
  -28.4390  -12.5420   18.2750 C   0  0  0  0  0  2  0  0  0  0  0  0
  -28.1000  -13.4940   19.4500 C   0  0  0  0  0  3  0  0  0  0  0  0
  -29.2200  -13.5390   20.5110 C   0  0  0  0  0  2  0  0  0  0  0  0
  -30.4370  -13.9710   19.8140 N   0  0  0  0  0  0  0  0  0  0  0  0
  -32.1950  -15.3060   19.4420 O   0  0  0  0  0  0  0  0  0  0  0  0
  -30.2320  -16.4430   19.9840 N   0  0  0  0  0  0  0  0  0  0  0  0
  -29.2850  -16.2380   20.2620 H   0  0  0  0  0  0  0  0  0  0  0  0
  -25.8010  -14.0880   20.4000 C   0  0  0  0  0  0  0  0  0  0  0  0
  -24.7450  -13.3230   20.8070 C   0  0  0  0  0  0  0  0  0  0  0  0
  -25.1640  -11.9630   20.6660 C   0  0  0  0  0  0  0  0  0  0  0  0
  -26.7960  -13.1990   20.0340 N   0  0  0  0  0  0  0  0  0  0  0  0
  -26.4280  -11.9110   20.2590 N   0  0  0  0  0  0  0  0  0  0  0  0
  -24.4160  -10.7120   20.8370 C   0  0  0  0  0  0  0  0  0  0  0  0
  -24.8270   -9.7270   21.7630 C   0  0  0  0  0  3  0  0  0  0  0  0
  -24.0790   -8.5410   21.9250 C   0  0  0  0  0  3  0  0  0  0  0  0
  -22.9060   -8.3310   21.1620 C   0  0  0  0  0  0  0  0  0  0  0  0
  -22.5130   -9.3040   20.2260 C   0  0  0  0  0  3  0  0  0  0  0  0
  -23.2610  -10.4820   20.0610 C   0  0  0  0  0  3  0  0  0  0  0  0
  -22.1290   -7.2000   21.2340 O   0  0  0  0  0  0  0  0  0  0  0  0
  -21.9590   -6.5180   22.4120 C   0  0  0  0  0  0  0  0  0  0  0  0
  -21.4410   -7.1440   23.5680 C   0  0  0  0  0  3  0  0  0  0  0  0
  -21.2190   -6.3900   24.7370 C   0  0  0  0  0  3  0  0  0  0  0  0
  -21.5030   -5.0110   24.7510 C   0  0  0  0  0  0  0  0  0  0  0  0
  -22.0140   -4.3840   23.6010 C   0  0  0  0  0  3  0  0  0  0  0  0
  -22.2380   -5.1360   22.4340 C   0  0  0  0  0  0  0  0  0  0  0  0
  -22.7100   -4.5250   21.3200 F   0  0  0  0  0  0  0  0  0  0  0  0
  -21.2840   -4.2840   25.8710 F   0  0  0  0  0  0  0  0  0  0  0  0
  -23.3880  -13.8180   21.2050 C   0  0  0  0  0  0  0  0  0  0  0  0
  -22.7130  -13.1060   22.1000 N   0  0  0  0  0  0  0  0  0  0  0  0
  -22.9360  -14.8730   20.7610 O   0  0  0  0  0  0  0  0  0  0  0  0
  -23.0950  -12.2500   22.4790 H   0  0  0  0  0  0  0  0  0  0  0  0
  -21.8040  -13.4170   22.4130 H   0  0  0  0  0  0  0  0  0  0  0  0
  -25.9940  -15.4630   20.2770 N   0  0  0  0  0  0  0  0  0  0  0  0
  -25.2510  -16.1270   20.4590 H   0  0  0  0  0  0  0  0  0  0  0  0
  -26.7970  -15.8810   19.8260 H   0  0  0  0  0  0  0  0  0  0  0  0
  1  2  1  0
  2  9  1  0
  6  1  1  0
  6  3  1  0
  6  7  1  0
  7  4  1  0
  7  5  1  0
  8  3  1  0
  8 12  1  0
  8  4  1  0
  9 53  1  6
  9  5  1  0
  9 11  1  0
 11 10  1  0
 13 24  2  0
 14 12  1  0
 14 19  1  0
 15 23  1  0
 15 25  1  0
 16 22  1  0
 16 18  1  0
 17 23  1  0
 18 17  1  0
 19 18  2  0
 20 21  1  0
 20 14  2  0
 21 16  2  0
 22 15  1  0
 23 13  1  0
 25 27  2  0
 26 25  1  0
 28 26  1  0
 29 38  2  0
 29 34  1  0
 30 26  1  0
 30 34  1  0
 31 30  1  0
 32 33  1  0
 32 31  1  0
 33 29  1  0
 34 35  2  0
 35 36  1  0
 37 36  2  0
 38 37  1  0
 39 13  1  0
 39 40  1  0
 39 49  1  0
 40 43  1  0
 41 45  1  0
 41 40  1  0
 42 41  2  0
 45 44  1  0
 47 45  1  0
 47 48  1  0
 47 46  1  0
 49 52  1  1
 49 50  1  0
 51 49  1  0
 53 62  1  0
 54 60  1  0
 54 62  1  0
 55 60  1  0
 56 57  1  0
 56 55  1  0
 58 57  1  0
 58 67  1  0
 58 59  1  0
 60 59  1  0
 61 54  2  0
 62 63  1  0
 64 65  2  0
 65 84  1  0
 66 65  1  0
 66 69  1  0
 67 68  1  0
 67 64  1  0
 68 66  2  0
 69 70  1  0
 70 71  2  0
 72 75  1  0
 72 71  1  0
 73 72  2  0
 74 73  1  0
 74 69  2  0
 75 76  1  0
 76 81  2  0
 76 77  1  0
 77 78  2  0
 78 79  1  0
 79 83  1  0
 80 79  2  0
 81 80  1  0
 82 81  1  0
 84 85  1  0
 85 88  1  0
 85 87  1  0
 86 84  2  0
 89 64  1  0
 89 90  1  0
 91 89  1  0
M  ISO  4   8 101  12 101  54 100  62 100
M  END
>  <TORSDO>  (79) 
F 18

>  <SCORE>  (79) 
-12.500

>  <name>  (79) 
78

>  <ligand_id>  (79) 
78

>  <original_smiles>  (79) 
[H]c1c([H])c([H])c2c(c1[H])C([H])([H])C([H])([H])C([H])([H])C2([H])N([H])C(=O)C1([H])N(C(=O)C([H])(N([H])C(=O)C([H])(N([H])C([H])([H])[H])C([H])([H])[H])C(C([H])([H])[H])(C([H])([H])[H])C([H])([H])[H])C([H])([H])c2c([H])c(OC3([H])C([H])([H])C4([H])C([H])([H])C([H])([H])C(C([H])([H])N([H])C(=O)N5C([H])([H])C([H])([H])C([H])([H])C([H])(n6nc(-c7c([H])c([H])c(Oc8c([H])c([H])c(F)c([H])c8F)c([H])c7[H])c(C(=O)N([H])[H])c6N([H])[H])C5([H])[H])(C([H])([H])C([H])([H])[H])C([H])([H])C4([H])C3([H])[H])c([H])c([H])c2C1([H])[H]

>  <smiles>  (79) 
[H]c1c([H])c([H])c2c(c1[H])C([H])([H])C([H])([H])C([H])([H])C2([H])N([H])C(=O)C1([H])N(C(=O)C([H])(N([H])C(=O)C([H])(N([H])C([H])([H])[H])C([H])([H])[H])C(C([H])([H])[H])(C([H])([H])[H])C([H])([H])[H])C([H])([H])c2c([H])c(OC3([H])C([H])([H])C4([H])C([H])([H])C([H])([H])C(C([H])([H])N([H])C(=O)N5C([H])([H])C([H])([H])C([H])([H])C([H])(n6nc(-c7c([H])c([H])c(Oc8c([H])c([H])c(F)c([H])c8F)c([H])c7[H])c(C(=O)N([H])[H])c6N([H])[H])C5([H])[H])(C([H])([H])C([H])([H])[H])C([H])([H])C4([H])C3([H])[H])c([H])c([H])c2C1([H])[H]

$$$$
79:0:0
     RDKit          3D

 97106  0  0  1  0  0  0  0  0999 V2000
  -27.0790  -21.9320   19.9720 C   0  0  0  0  0  2  0  0  0  0  0  0
  -27.4450  -19.6500   18.5900 C   0  0  0  0  0  2  0  0  0  0  0  0
  -27.3130  -21.1690   18.6610 C   0  0  0  0  0  3  0  0  0  0  0  0
  -28.8240  -21.3110   18.8510 C   0  0  0  0  0  3  0  0  0  0  0  0
  -28.4990  -22.5010   19.8740 C   0  0  0  0  0  3  0  0  0  0  0  0
  -28.9690  -19.6790   18.8550 C   0  0  1  0  0  0  0  0  0  0  0  0
  -28.6510  -24.0330   19.4010 C   0  0  0  0  0  3  0  0  0  0  0  0
  -27.9940  -25.2170   20.2470 C   0  0  0  0  0  3  0  0  0  0  0  0
  -28.1710  -26.6330   19.8090 O   0  0  0  0  0  0  0  0  0  0  0  0
  -24.5400  -31.9110   23.1540 C   0  0  0  0  0  0  0  0  0  0  0  0
  -27.0590  -27.4870   19.8500 C   0  0  0  0  0  0  0  0  0  0  0  0
  -23.2840  -30.5730   21.5030 C   0  0  0  0  0  3  0  0  0  0  0  0
  -24.6900  -29.0860   19.9690 C   0  0  0  0  0  0  0  0  0  0  0  0
  -25.8120  -30.9180   21.2340 C   0  0  0  0  0  2  0  0  0  0  0  0
  -25.8750  -29.5620   20.5410 C   0  0  0  0  0  0  0  0  0  0  0  0
  -27.0640  -28.7750   20.4720 C   0  0  0  0  0  3  0  0  0  0  0  0
  -25.8540  -27.0690   19.2460 C   0  0  0  0  0  3  0  0  0  0  0  0
  -24.6810  -27.8460   19.3090 C   0  0  0  0  0  3  0  0  0  0  0  0
  -23.4490  -29.9490   20.0920 C   0  0  0  0  0  2  0  0  0  0  0  0
  -24.5670  -31.1470   22.0220 N   0  0  0  0  0  0  0  0  0  0  0  0
  -23.4750  -32.1570   23.7380 O   0  0  0  0  0  0  0  0  0  0  0  0
  -22.6620  -29.5140   22.4450 C   0  0  0  0  0  0  0  0  0  0  0  0
  -21.3330  -29.3320   22.3580 N   0  0  0  0  0  0  0  0  0  0  0  0
  -23.3740  -28.8600   23.2110 O   0  0  0  0  0  0  0  0  0  0  0  0
  -20.8160  -29.9120   21.7110 H   0  0  0  0  0  0  0  0  0  0  0  0
  -17.9840  -28.0970   22.9340 C   0  0  0  0  0  0  0  0  0  0  0  0
  -20.5490  -28.3590   23.1220 C   0  0  0  0  0  3  0  0  0  0  0  0
  -20.6360  -26.9520   22.4860 C   0  0  0  0  0  2  0  0  0  0  0  0
  -19.5000  -26.6650   21.5000 C   0  0  0  0  0  2  0  0  0  0  0  0
  -18.1420  -26.7770   22.1980 C   0  0  0  0  0  2  0  0  0  0  0  0
  -19.1130  -28.8470   23.3540 C   0  0  0  0  0  0  0  0  0  0  0  0
  -18.9110  -30.0840   24.0030 C   0  0  0  0  0  3  0  0  0  0  0  0
  -17.6110  -30.5700   24.2360 C   0  0  0  0  0  3  0  0  0  0  0  0
  -16.4960  -29.8150   23.8320 C   0  0  0  0  0  3  0  0  0  0  0  0
  -16.6830  -28.5800   23.1870 C   0  0  0  0  0  3  0  0  0  0  0  0
  -25.8400  -32.5260   23.7550 C   0  0  0  0  0  3  0  0  0  0  0  0
  -26.4100  -31.7040   24.9750 C   0  0  1  0  0  0  0  0  0  0  0  0
  -25.3600  -31.4030   26.0710 C   0  0  0  0  0  1  0  0  0  0  0  0
  -26.9900  -30.3530   24.4950 C   0  0  0  0  0  1  0  0  0  0  0  0
  -27.5790  -32.4780   25.6290 C   0  0  0  0  0  1  0  0  0  0  0  0
  -25.5360  -33.9060   24.1630 N   0  0  0  0  0  0  0  0  0  0  0  0
  -25.8180  -34.9950   23.4360 C   0  0  0  0  0  0  0  0  0  0  0  0
  -26.4390  -34.9450   22.3700 O   0  0  0  0  0  0  0  0  0  0  0  0
  -24.9790  -34.0190   24.9970 H   0  0  0  0  0  0  0  0  0  0  0  0
  -24.0670  -36.7910   23.2300 C   0  0  0  0  0  1  0  0  0  0  0  0
  -25.3380  -36.3570   23.9770 C   0  0  0  0  0  3  0  0  0  0  0  0
  -27.4850  -37.2250   24.7880 C   0  0  0  0  0  1  0  0  0  0  0  0
  -26.3590  -37.4250   23.8810 N   0  0  0  0  0  0  0  0  0  0  0  0
  -25.9470  -38.3330   24.0810 H   0  0  0  0  0  0  0  0  0  0  0  0
  -29.3790  -18.7370   20.0940 C   0  0  0  0  0  2  0  0  0  0  0  0
  -30.3730  -17.4330   19.9970 C   0  0  0  0  0  3  0  0  0  0  0  0
  -30.5960  -14.8710   19.6200 C   0  0  0  0  0  0  0  0  0  0  0  0
  -30.4270  -12.5170   18.8100 C   0  0  0  0  0  2  0  0  0  0  0  0
  -29.4030  -12.4370   17.6580 C   0  0  0  0  0  2  0  0  0  0  0  0
  -27.9800  -12.2250   18.2110 C   0  0  0  0  0  2  0  0  0  0  0  0
  -27.6460  -13.1960   19.3770 C   0  0  0  0  0  3  0  0  0  0  0  0
  -28.7860  -13.2690   20.4160 C   0  0  0  0  0  2  0  0  0  0  0  0
  -30.0100  -13.6300   19.6920 N   0  0  0  0  0  0  0  0  0  0  0  0
  -31.7290  -14.9860   19.1450 O   0  0  0  0  0  0  0  0  0  0  0  0
  -29.8550  -15.9990   19.9260 N   0  0  0  0  0  0  0  0  0  0  0  0
  -28.9100  -15.8420   20.2410 H   0  0  0  0  0  0  0  0  0  0  0  0
  -25.3480  -13.7410   20.3730 C   0  0  0  0  0  0  0  0  0  0  0  0
  -24.3270  -12.9450   20.8180 C   0  0  0  0  0  0  0  0  0  0  0  0
  -24.7860  -11.5980   20.6790 C   0  0  0  0  0  0  0  0  0  0  0  0
  -26.3620  -12.8780   19.9910 N   0  0  0  0  0  0  0  0  0  0  0  0
  -26.0370  -11.5820   20.2350 N   0  0  0  0  0  0  0  0  0  0  0  0
  -24.0860  -10.3240   20.8880 C   0  0  0  0  0  0  0  0  0  0  0  0
  -24.5200   -9.3930   21.8550 C   0  0  0  0  0  3  0  0  0  0  0  0
  -23.8160   -8.1840   22.0530 C   0  0  0  0  0  3  0  0  0  0  0  0
  -22.6660   -7.8990   21.2820 C   0  0  0  0  0  0  0  0  0  0  0  0
  -22.2500   -8.8190   20.3040 C   0  0  0  0  0  3  0  0  0  0  0  0
  -22.9540  -10.0180   20.1050 C   0  0  0  0  0  3  0  0  0  0  0  0
  -21.9350   -6.7390   21.3860 O   0  0  0  0  0  0  0  0  0  0  0  0
  -21.7730   -6.0980   22.5880 C   0  0  0  0  0  0  0  0  0  0  0  0
  -21.1290   -6.7140   23.6820 C   0  0  0  0  0  3  0  0  0  0  0  0
  -20.9220   -5.9920   24.8750 C   0  0  0  0  0  3  0  0  0  0  0  0
  -21.3500   -4.6540   24.9730 C   0  0  0  0  0  0  0  0  0  0  0  0
  -21.9870   -4.0380   23.8820 C   0  0  0  0  0  3  0  0  0  0  0  0
  -22.1950   -4.7570   22.6920 C   0  0  0  0  0  0  0  0  0  0  0  0
  -22.7910   -4.1510   21.6360 F   0  0  0  0  0  0  0  0  0  0  0  0
  -21.1450   -3.9590   26.1160 F   0  0  0  0  0  0  0  0  0  0  0  0
  -22.9670  -13.4010   21.2570 C   0  0  0  0  0  0  0  0  0  0  0  0
  -22.3380  -12.6620   22.1640 N   0  0  0  0  0  0  0  0  0  0  0  0
  -22.4750  -14.4450   20.8320 O   0  0  0  0  0  0  0  0  0  0  0  0
  -22.7530  -11.8160   22.5260 H   0  0  0  0  0  0  0  0  0  0  0  0
  -21.4290  -12.9450   22.5020 H   0  0  0  0  0  0  0  0  0  0  0  0
  -25.4920  -15.1190   20.2390 N   0  0  0  0  0  0  0  0  0  0  0  0
  -24.7440  -15.7660   20.4610 H   0  0  0  0  0  0  0  0  0  0  0  0
  -26.3010  -15.5750   19.8390 H   0  0  0  0  0  0  0  0  0  0  0  0
  -31.3610  -17.5120   21.1930 C   0  0  0  0  0  2  0  0  0  0  0  0
  -31.3270  -18.5560   23.5400 C   0  0  0  0  0  1  0  0  0  0  0  0
  -30.6910  -17.5320   22.5850 C   0  0  0  0  0  2  0  0  0  0  0  0
  -29.8170  -19.2570   17.6310 C   0  0  0  0  0  2  0  0  0  0  0  0
  -31.2190  -19.7150   17.7290 N   0  0  0  0  0  4  0  0  0  0  0  0
  -31.2600  -20.7120   17.8430 H   0  0  0  0  0  0  0  0  0  0  0  0
  -31.7150  -19.4860   16.8860 H   0  0  0  0  0  0  0  0  0  0  0  0
  -31.6980  -19.2910   18.5000 H   0  0  0  0  0  0  0  0  0  0  0  0
  2  6  1  0
  3  2  1  0
  3  4  1  0
  3  1  1  0
  4  6  1  0
  4  5  1  0
  5  1  1  0
  6 50  1  1
  7  5  1  0
  7  8  2  0
  9 11  1  0
  9  8  1  0
 10 21  2  0
 10 36  1  0
 11 16  1  0
 12 20  1  0
 12 22  1  0
 13 19  1  0
 13 15  1  0
 14 20  1  0
 15 14  1  0
 16 15  2  0
 17 18  1  0
 17 11  2  0
 18 13  2  0
 19 12  1  0
 20 10  1  0
 22 24  2  0
 23 22  1  0
 23 27  1  0
 25 23  1  0
 26 35  2  0
 26 31  1  0
 27 31  1  0
 28 27  1  0
 29 30  1  0
 29 28  1  0
 30 26  1  0
 31 32  2  0
 32 33  1  0
 34 33  2  0
 35 34  1  0
 36 41  1  0
 36 37  1  0
 37 40  1  1
 37 38  1  0
 39 37  1  0
 41 44  1  0
 42 46  1  0
 42 41  1  0
 43 42  2  0
 45 46  1  0
 48 46  1  0
 48 49  1  0
 48 47  1  0
 51 50  1  0
 51 90  1  0
 52 58  1  0
 52 60  1  0
 53 58  1  0
 54 55  1  0
 54 53  1  0
 55 56  1  0
 56 65  1  0
 56 57  1  0
 58 57  1  0
 59 52  2  0
 60 51  1  0
 60 61  1  0
 62 63  2  0
 63 82  1  0
 64 63  1  0
 64 67  1  0
 65 66  1  0
 65 62  1  0
 66 64  2  0
 67 68  1  0
 68 69  2  0
 70 73  1  0
 70 69  1  0
 71 70  2  0
 72 71  1  0
 72 67  2  0
 73 74  1  0
 74 79  2  0
 74 75  1  0
 75 76  2  0
 76 77  1  0
 77 81  1  0
 78 77  2  0
 79 78  1  0
 80 79  1  0
 82 83  1  0
 83 86  1  0
 83 85  1  0
 84 82  2  0
 87 62  1  0
 87 88  1  0
 89 87  1  0
 90 92  1  0
 92 91  1  0
 93 94  1  0
 93  6  1  0
 94 95  1  0
 94 97  1  0
 96 94  1  0
M  ISO  4   8 101   9 101  52 100  60 100
M  END
>  <TORSDO>  (80) 
F 24

>  <SCORE>  (80) 
-11.718

>  <name>  (80) 
79

>  <ligand_id>  (80) 
79

>  <original_smiles>  (80) 
[H]c1c([H])c([H])c2c(c1[H])C([H])([H])C([H])([H])C([H])([H])C2([H])N([H])C(=O)C1([H])N(C(=O)C([H])(N([H])C(=O)C([H])(N([H])C([H])([H])[H])C([H])([H])[H])C(C([H])([H])[H])(C([H])([H])[H])C([H])([H])[H])C([H])([H])c2c([H])c(OC([H])([H])C([H])([H])C3([H])C([H])([H])C4([H])C([H])([H])C(C([H])([H])C([H])(N([H])C(=O)N5C([H])([H])C([H])([H])C([H])([H])C([H])(n6nc(-c7c([H])c([H])c(Oc8c([H])c([H])c(F)c([H])c8F)c([H])c7[H])c(C(=O)N([H])[H])c6N([H])[H])C5([H])[H])C([H])([H])C([H])([H])C([H])([H])[H])(C([H])([H])[N+]([H])([H])[H])C34[H])c([H])c([H])c2C1([H])[H]

>  <smiles>  (80) 
[H]c1c([H])c([H])c2c(c1[H])C([H])([H])C([H])([H])C([H])([H])C2([H])N([H])C(=O)C1([H])N(C(=O)C([H])(N([H])C(=O)C([H])(N([H])C([H])([H])[H])C([H])([H])[H])C(C([H])([H])[H])(C([H])([H])[H])C([H])([H])[H])C([H])([H])c2c([H])c(OC([H])([H])C([H])([H])C3([H])C([H])([H])C4([H])C([H])([H])C(C([H])([H])C([H])(N([H])C(=O)N5C([H])([H])C([H])([H])C([H])([H])C([H])(n6nc(-c7c([H])c([H])c(Oc8c([H])c([H])c(F)c([H])c8F)c([H])c7[H])c(C(=O)N([H])[H])c6N([H])[H])C5([H])[H])C([H])([H])C([H])([H])C([H])([H])[H])(C([H])([H])[N+]([H])([H])[H])C34[H])c([H])c([H])c2C1([H])[H]

$$$$
80:0:0
     RDKit          3D

 94103  0  0  1  0  0  0  0  0999 V2000
  -32.1690  -21.5400   20.9460 C   0  0  0  0  0  2  0  0  0  0  0  0
  -31.1040  -22.1950   21.8340 C   0  0  0  0  0  2  0  0  0  0  0  0
  -28.5790  -22.2110   19.0400 C   0  0  0  0  0  2  0  0  0  0  0  0
  -28.8460  -20.7110   19.2930 C   0  0  0  0  0  2  0  0  0  0  0  0
  -31.4380  -20.6100   19.9460 C   0  0  0  0  0  3  0  0  0  0  0  0
  -29.7610  -21.9350   21.1490 C   0  0  0  0  0  3  0  0  0  0  0  0
  -29.3970  -22.9970   20.0770 C   0  0  0  0  0  3  0  0  0  0  0  0
  -29.9350  -20.5940   20.3890 C   0  0  1  0  0  0  0  0  0  0  0  0
  -31.7240  -20.9290   18.4650 C   0  0  0  0  0  3  0  0  0  0  0  0
  -32.0490  -22.0540   18.0740 O   0  0  0  0  0  0  0  0  0  0  0  0
  -28.7330  -24.3110   20.5980 C   0  0  0  0  0  2  0  0  0  0  0  0
  -28.6250  -25.4470   19.5410 C   0  0  0  0  0  2  0  0  0  0  0  0
  -28.4470  -26.7490   20.1340 O   0  0  0  0  0  0  0  0  0  0  0  0
  -24.5990  -31.8690   23.2300 C   0  0  0  0  0  0  0  0  0  0  0  0
  -27.2380  -27.4260   20.1210 C   0  0  0  0  0  0  0  0  0  0  0  0
  -23.3850  -30.4730   21.5900 C   0  0  0  0  0  3  0  0  0  0  0  0
  -24.8320  -28.9370   20.1540 C   0  0  0  0  0  0  0  0  0  0  0  0
  -25.9110  -30.8280   21.3810 C   0  0  0  0  0  2  0  0  0  0  0  0
  -25.9920  -29.4580   20.7370 C   0  0  0  0  0  0  0  0  0  0  0  0
  -27.1910  -28.7100   20.7170 C   0  0  0  0  0  3  0  0  0  0  0  0
  -26.0490  -26.9160   19.5440 C   0  0  0  0  0  3  0  0  0  0  0  0
  -24.8560  -27.6660   19.5570 C   0  0  0  0  0  3  0  0  0  0  0  0
  -23.5860  -29.7940   20.2090 C   0  0  0  0  0  2  0  0  0  0  0  0
  -24.6500  -31.0720   22.1260 N   0  0  0  0  0  0  0  0  0  0  0  0
  -23.5180  -32.1420   23.7730 O   0  0  0  0  0  0  0  0  0  0  0  0
  -22.7360  -29.4530   22.5520 C   0  0  0  0  0  0  0  0  0  0  0  0
  -21.4120  -29.2690   22.4230 N   0  0  0  0  0  0  0  0  0  0  0  0
  -23.4190  -28.8250   23.3640 O   0  0  0  0  0  0  0  0  0  0  0  0
  -20.9230  -29.8260   21.7370 H   0  0  0  0  0  0  0  0  0  0  0  0
  -18.0370  -28.0760   22.9160 C   0  0  0  0  0  0  0  0  0  0  0  0
  -20.5950  -28.3290   23.1900 C   0  0  0  0  0  3  0  0  0  0  0  0
  -20.6970  -26.9020   22.6080 C   0  0  0  0  0  2  0  0  0  0  0  0
  -19.5940  -26.5840   21.5940 C   0  0  0  0  0  2  0  0  0  0  0  0
  -18.2120  -26.7280   22.2370 C   0  0  0  0  0  2  0  0  0  0  0  0
  -19.1560  -28.8340   23.3480 C   0  0  0  0  0  0  0  0  0  0  0  0
  -18.9410  -30.0970   23.9410 C   0  0  0  0  0  3  0  0  0  0  0  0
  -17.6380  -30.5990   24.1130 C   0  0  0  0  0  3  0  0  0  0  0  0
  -16.5310  -29.8360   23.6980 C   0  0  0  0  0  3  0  0  0  0  0  0
  -16.7320  -28.5790   23.1020 C   0  0  0  0  0  3  0  0  0  0  0  0
  -25.8860  -32.4960   23.8480 C   0  0  0  0  0  3  0  0  0  0  0  0
  -25.5810  -33.8940   24.1770 N   0  0  0  0  0  0  0  0  0  0  0  0
  -25.9220  -34.9470   23.4200 C   0  0  0  0  0  0  0  0  0  0  0  0
  -26.5970  -34.8420   22.3930 O   0  0  0  0  0  0  0  0  0  0  0  0
  -24.9800  -34.0520   24.9710 H   0  0  0  0  0  0  0  0  0  0  0  0
  -24.2010  -36.7470   23.0620 C   0  0  0  0  0  1  0  0  0  0  0  0
  -25.4370  -36.3350   23.8770 C   0  0  0  0  0  3  0  0  0  0  0  0
  -27.5710  -37.2090   24.7200 C   0  0  0  0  0  1  0  0  0  0  0  0
  -26.4740  -37.3860   23.7720 N   0  0  0  0  0  0  0  0  0  0  0  0
  -26.0700  -38.3060   23.9250 H   0  0  0  0  0  0  0  0  0  0  0  0
  -26.4040  -31.7220   25.1230 C   0  0  1  0  0  0  0  0  0  0  0  0
  -25.3120  -31.4900   26.1930 C   0  0  0  0  0  1  0  0  0  0  0  0
  -26.9850  -30.3440   24.7290 C   0  0  0  0  0  1  0  0  0  0  0  0
  -27.5570  -32.5150   25.7810 C   0  0  0  0  0  1  0  0  0  0  0  0
  -29.7100  -19.3340   21.2900 C   0  0  0  0  0  2  0  0  0  0  0  0
  -29.7270  -17.9450   20.5750 C   0  0  0  0  0  2  0  0  0  0  0  0
  -30.3540  -16.8070   21.4310 C   0  0  0  0  0  2  0  0  0  0  0  0
  -30.6410  -14.4920   20.4040 C   0  0  0  0  0  0  0  0  0  0  0  0
  -30.3570  -12.3520   19.1950 C   0  0  0  0  0  2  0  0  0  0  0  0
  -29.3910  -12.5590   18.0080 C   0  0  0  0  0  2  0  0  0  0  0  0
  -27.9220  -12.4110   18.4570 C   0  0  0  0  0  2  0  0  0  0  0  0
  -27.6040  -13.2340   19.7330 C   0  0  0  0  0  3  0  0  0  0  0  0
  -28.6680  -12.9820   20.8220 C   0  0  0  0  0  2  0  0  0  0  0  0
  -29.9850  -13.3100   20.2460 N   0  0  0  0  0  0  0  0  0  0  0  0
  -31.7530  -14.7150   19.9120 O   0  0  0  0  0  0  0  0  0  0  0  0
  -29.9400  -15.4460   21.0490 N   0  0  0  0  0  0  0  0  0  0  0  0
  -29.0330  -15.1520   21.3820 H   0  0  0  0  0  0  0  0  0  0  0  0
  -25.2120  -13.8490   20.4580 C   0  0  0  0  0  0  0  0  0  0  0  0
  -24.1470  -13.0790   20.8400 C   0  0  0  0  0  0  0  0  0  0  0  0
  -24.6070  -11.7260   20.8130 C   0  0  0  0  0  0  0  0  0  0  0  0
  -26.2540  -12.9650   20.2230 N   0  0  0  0  0  0  0  0  0  0  0  0
  -25.8940  -11.6850   20.4920 N   0  0  0  0  0  0  0  0  0  0  0  0
  -23.8830  -10.4650   21.0130 C   0  0  0  0  0  0  0  0  0  0  0  0
  -24.3310   -9.4980   21.9410 C   0  0  0  0  0  3  0  0  0  0  0  0
  -23.6090   -8.3020   22.1310 C   0  0  0  0  0  3  0  0  0  0  0  0
  -22.4240   -8.0620   21.3930 C   0  0  0  0  0  0  0  0  0  0  0  0
  -21.9950   -9.0180   20.4560 C   0  0  0  0  0  3  0  0  0  0  0  0
  -22.7190  -10.2070   20.2640 C   0  0  0  0  0  3  0  0  0  0  0  0
  -21.6720   -6.9170   21.4930 O   0  0  0  0  0  0  0  0  0  0  0  0
  -21.6470   -6.1680   22.6410 C   0  0  0  0  0  0  0  0  0  0  0  0
  -21.2520   -6.7200   23.8800 C   0  0  0  0  0  3  0  0  0  0  0  0
  -21.1750   -5.8990   25.0230 C   0  0  0  0  0  3  0  0  0  0  0  0
  -21.4820   -4.5280   24.9290 C   0  0  0  0  0  0  0  0  0  0  0  0
  -21.8710   -3.9770   23.6940 C   0  0  0  0  0  3  0  0  0  0  0  0
  -21.9490   -4.7960   22.5540 C   0  0  0  0  0  0  0  0  0  0  0  0
  -22.3040   -4.2540   21.3630 F   0  0  0  0  0  0  0  0  0  0  0  0
  -21.4010   -3.7370   26.0240 F   0  0  0  0  0  0  0  0  0  0  0  0
  -22.7530  -13.5580   21.1250 C   0  0  0  0  0  0  0  0  0  0  0  0
  -22.0350  -12.8630   22.0010 N   0  0  0  0  0  0  0  0  0  0  0  0
  -22.3090  -14.5810   20.6070 O   0  0  0  0  0  0  0  0  0  0  0  0
  -22.4070  -12.0340   22.4420 H   0  0  0  0  0  0  0  0  0  0  0  0
  -21.0990  -13.1630   22.2360 H   0  0  0  0  0  0  0  0  0  0  0  0
  -25.3750  -15.2190   20.2730 N   0  0  0  0  0  0  0  0  0  0  0  0
  -24.6090  -15.8750   20.3870 H   0  0  0  0  0  0  0  0  0  0  0  0
  -26.2220  -15.6580   19.9310 H   0  0  0  0  0  0  0  0  0  0  0  0
  1  2  1  0
  3  4  1  0
  3  7  1  0
  4  8  1  0
  5  9  1  0
  5  8  1  0
  5  1  1  0
  6  2  1  0
  7 11  1  0
  7  6  1  0
  8  6  1  0
  8 54  1  1
 10  9  2  0
 12 13  1  0
 12 11  1  0
 14 25  2  0
 15 13  1  0
 15 20  1  0
 16 24  1  0
 16 26  1  0
 17 23  1  0
 17 19  1  0
 18 24  1  0
 19 18  1  0
 20 19  2  0
 21 22  1  0
 21 15  2  0
 22 17  2  0
 23 16  1  0
 24 14  1  0
 26 28  2  0
 27 26  1  0
 29 27  1  0
 30 39  2  0
 30 35  1  0
 31 27  1  0
 31 35  1  0
 32 31  1  0
 33 34  1  0
 33 32  1  0
 34 30  1  0
 35 36  2  0
 36 37  1  0
 38 37  2  0
 39 38  1  0
 40 14  1  0
 40 41  1  0
 40 50  1  0
 41 44  1  0
 42 46  1  0
 42 41  1  0
 43 42  2  0
 46 45  1  0
 48 46  1  0
 48 49  1  0
 48 47  1  0
 50 53  1  1
 50 51  1  0
 52 50  1  0
 55 54  1  0
 55 56  1  0
 57 65  1  0
 58 63  1  0
 59 60  1  0
 59 58  1  0
 61 60  1  0
 61 70  1  0
 61 62  1  0
 63 57  1  0
 63 62  1  0
 64 57  2  0
 65 66  1  0
 65 56  1  0
 67 68  2  0
 68 87  1  0
 69 68  1  0
 69 72  1  0
 70 67  1  0
 70 71  1  0
 71 69  2  0
 72 73  1  0
 73 74  2  0
 75 78  1  0
 75 74  1  0
 76 75  2  0
 77 76  1  0
 77 72  2  0
 78 79  1  0
 79 80  1  0
 80 81  2  0
 82 81  1  0
 82 86  1  0
 83 82  2  0
 84 79  2  0
 84 83  1  0
 85 84  1  0
 87 88  1  0
 88 91  1  0
 88 90  1  0
 89 87  2  0
 92 93  1  0
 92 67  1  0
 94 92  1  0
M  ISO  4  12 101  13 101  57 100  65 100
M  END
>  <TORSDO>  (81) 
F 22

>  <SCORE>  (81) 
-13.183

>  <name>  (81) 
80

>  <ligand_id>  (81) 
80

>  <original_smiles>  (81) 
[H]C(=O)C1([H])C([H])([H])C([H])([H])C2([H])C([H])(C([H])([H])C([H])([H])Oc3c([H])c([H])c4c(c3[H])C([H])([H])N(C(=O)C([H])(N([H])C(=O)C([H])(N([H])C([H])([H])[H])C([H])([H])[H])C(C([H])([H])[H])(C([H])([H])[H])C([H])([H])[H])C([H])(C(=O)N([H])C3([H])c5c([H])c([H])c([H])c([H])c5C([H])([H])C([H])([H])C3([H])[H])C4([H])[H])C([H])([H])C([H])([H])C12C([H])([H])C([H])([H])C([H])([H])N([H])C(=O)N1C([H])([H])C([H])([H])C([H])([H])C([H])(n2nc(-c3c([H])c([H])c(Oc4c([H])c([H])c(F)c([H])c4F)c([H])c3[H])c(C(=O)N([H])[H])c2N([H])[H])C1([H])[H]

>  <smiles>  (81) 
[H]C(=O)C1([H])C([H])([H])C([H])([H])C2([H])C([H])(C([H])([H])C([H])([H])Oc3c([H])c([H])c4c(c3[H])C([H])([H])N(C(=O)C([H])(N([H])C(=O)C([H])(N([H])C([H])([H])[H])C([H])([H])[H])C(C([H])([H])[H])(C([H])([H])[H])C([H])([H])[H])C([H])(C(=O)N([H])C3([H])c5c([H])c([H])c([H])c([H])c5C([H])([H])C([H])([H])C3([H])[H])C4([H])[H])C([H])([H])C([H])([H])C12C([H])([H])C([H])([H])C([H])([H])N([H])C(=O)N1C([H])([H])C([H])([H])C([H])([H])C([H])(n2nc(-c3c([H])c([H])c(Oc4c([H])c([H])c(F)c([H])c4F)c([H])c3[H])c(C(=O)N([H])[H])c2N([H])[H])C1([H])[H]

$$$$
81:0:0
     RDKit          3D

 98105  0  0  1  0  0  0  0  0999 V2000
  -28.1850  -21.4560   21.4500 N   0  0  0  0  0  4  0  0  0  0  0  0
  -28.3710  -21.0210   22.3430 H   0  0  0  0  0  0  0  0  0  0  0  0
  -29.0920  -21.6790   21.0790 H   0  0  0  0  0  0  0  0  0  0  0  0
  -27.4320  -22.6920   21.6480 C   0  0  0  0  0  2  0  0  0  0  0  0
  -27.0540  -23.4190   20.3340 C   0  0  0  0  0  2  0  0  0  0  0  0
  -28.0990  -23.3940   19.1870 C   0  0  0  0  0  2  0  0  0  0  0  0
  -29.5220  -23.9010   19.4990 C   0  0  0  0  0  2  0  0  0  0  0  0
  -29.5480  -25.2200   20.2840 C   0  0  0  0  0  2  0  0  0  0  0  0
  -30.1030  -26.4130   19.5090 C   0  0  0  0  0  2  0  0  0  0  0  0
  -29.6840  -27.5890   20.1800 O   0  0  0  0  0  0  0  0  0  0  0  0
  -24.8560  -31.6650   23.3860 C   0  0  0  0  0  0  0  0  0  0  0  0
  -28.3580  -27.9680   20.1840 C   0  0  0  0  0  0  0  0  0  0  0  0
  -23.9680  -30.1790   21.6170 C   0  0  0  0  0  3  0  0  0  0  0  0
  -25.7190  -28.9810   20.1950 C   0  0  0  0  0  0  0  0  0  0  0  0
  -26.3940  -30.9680   21.5580 C   0  0  0  0  0  2  0  0  0  0  0  0
  -26.7370  -29.6690   20.8650 C   0  0  0  0  0  0  0  0  0  0  0  0
  -28.0500  -29.1610   20.8670 C   0  0  0  0  0  3  0  0  0  0  0  0
  -27.3140  -27.2660   19.5330 C   0  0  0  0  0  3  0  0  0  0  0  0
  -26.0000  -27.7710   19.5340 C   0  0  0  0  0  3  0  0  0  0  0  0
  -24.3430  -29.6090   20.2220 C   0  0  0  0  0  2  0  0  0  0  0  0
  -25.0860  -30.9560   22.2450 N   0  0  0  0  0  0  0  0  0  0  0  0
  -23.7250  -31.7180   23.8920 O   0  0  0  0  0  0  0  0  0  0  0  0
  -23.4610  -29.0130   22.4980 C   0  0  0  0  0  0  0  0  0  0  0  0
  -22.2220  -28.5640   22.2330 N   0  0  0  0  0  0  0  0  0  0  0  0
  -24.1810  -28.5150   23.3680 O   0  0  0  0  0  0  0  0  0  0  0  0
  -21.6880  -29.0440   21.5190 H   0  0  0  0  0  0  0  0  0  0  0  0
  -19.1850  -26.6040   22.3000 C   0  0  0  0  0  0  0  0  0  0  0  0
  -21.5580  -27.4390   22.8910 C   0  0  0  0  0  3  0  0  0  0  0  0
  -22.0670  -26.0890   22.3370 C   0  0  0  0  0  2  0  0  0  0  0  0
  -21.1960  -25.5310   21.2060 C   0  0  0  0  0  2  0  0  0  0  0  0
  -19.7540  -25.3380   21.6850 C   0  0  0  0  0  2  0  0  0  0  0  0
  -20.0330  -27.5960   22.8590 C   0  0  0  0  0  0  0  0  0  0  0  0
  -19.4540  -28.7660   23.4000 C   0  0  0  0  0  3  0  0  0  0  0  0
  -18.0590  -28.9520   23.3850 C   0  0  0  0  0  3  0  0  0  0  0  0
  -17.2230  -27.9580   22.8440 C   0  0  0  0  0  3  0  0  0  0  0  0
  -17.7860  -26.7870   22.3090 C   0  0  0  0  0  3  0  0  0  0  0  0
  -25.9940  -32.4570   24.0990 C   0  0  0  0  0  3  0  0  0  0  0  0
  -25.4960  -33.8180   24.3420 N   0  0  0  0  0  0  0  0  0  0  0  0
  -25.7850  -34.8840   23.5820 C   0  0  0  0  0  0  0  0  0  0  0  0
  -26.5630  -34.8300   22.6270 O   0  0  0  0  0  0  0  0  0  0  0  0
  -24.8010  -33.9200   25.0680 H   0  0  0  0  0  0  0  0  0  0  0  0
  -23.9070  -36.4500   22.9900 C   0  0  0  0  0  1  0  0  0  0  0  0
  -25.0980  -36.2160   23.9350 C   0  0  0  0  0  3  0  0  0  0  0  0
  -27.0250  -37.3700   24.9280 C   0  0  0  0  0  1  0  0  0  0  0  0
  -26.0100  -37.3820   23.8780 N   0  0  0  0  0  0  0  0  0  0  0  0
  -25.4920  -38.2540   23.9430 H   0  0  0  0  0  0  0  0  0  0  0  0
  -26.4760  -31.7870   25.4440 C   0  0  1  0  0  0  0  0  0  0  0  0
  -25.3200  -31.4340   26.4100 C   0  0  0  0  0  1  0  0  0  0  0  0
  -27.2630  -30.4860   25.1530 C   0  0  0  0  0  1  0  0  0  0  0  0
  -27.4450  -32.7330   26.1870 C   0  0  0  0  0  1  0  0  0  0  0  0
  -27.5470  -20.4790   20.5740 C   0  0  0  0  0  2  0  0  0  0  0  0
  -28.5620  -20.0400   19.5080 C   0  0  0  0  0  2  0  0  0  0  0  0
  -29.9150  -19.5680   20.0600 C   0  0  0  0  0  2  0  0  0  0  0  0
  -30.5650  -18.5390   19.1140 C   0  0  0  0  0  2  0  0  0  0  0  0
  -31.8740  -17.8380   19.5830 C   0  0  0  0  0  3  0  0  0  0  0  0
  -32.0010  -15.3860   19.1400 C   0  0  0  0  0  0  0  0  0  0  0  0
  -31.7920  -12.9430   18.8900 C   0  0  0  0  0  2  0  0  0  0  0  0
  -30.8030  -12.5420   17.7790 C   0  0  0  0  0  2  0  0  0  0  0  0
  -29.3640  -12.5070   18.3240 C   0  0  0  0  0  2  0  0  0  0  0  0
  -28.9790  -13.7970   19.0890 C   0  0  0  0  0  3  0  0  0  0  0  0
  -30.0580  -14.1390   20.1390 C   0  0  0  0  0  2  0  0  0  0  0  0
  -31.3690  -14.2290   19.4600 N   0  0  0  0  0  0  0  0  0  0  0  0
  -32.9130  -15.4630   18.3110 O   0  0  0  0  0  0  0  0  0  0  0  0
  -31.5820  -16.4400   19.8410 N   0  0  0  0  0  0  0  0  0  0  0  0
  -30.9320  -16.2690   20.5950 H   0  0  0  0  0  0  0  0  0  0  0  0
  -26.7850  -14.6700   20.1300 C   0  0  0  0  0  0  0  0  0  0  0  0
  -25.6590  -14.0250   20.5650 C   0  0  0  0  0  0  0  0  0  0  0  0
  -25.9060  -12.6300   20.3740 C   0  0  0  0  0  0  0  0  0  0  0  0
  -27.6580  -13.6780   19.7070 N   0  0  0  0  0  0  0  0  0  0  0  0
  -27.1330  -12.4390   19.9090 N   0  0  0  0  0  0  0  0  0  0  0  0
  -25.0260  -11.4700   20.5580 C   0  0  0  0  0  0  0  0  0  0  0  0
  -25.3390  -10.4450   21.4780 C   0  0  0  0  0  3  0  0  0  0  0  0
  -24.4680   -9.3480   21.6500 C   0  0  0  0  0  3  0  0  0  0  0  0
  -23.2710   -9.2660   20.8980 C   0  0  0  0  0  0  0  0  0  0  0  0
  -22.9770  -10.2800   19.9690 C   0  0  0  0  0  3  0  0  0  0  0  0
  -23.8470  -11.3680   19.7950 C   0  0  0  0  0  3  0  0  0  0  0  0
  -22.3770   -8.2260   20.9800 O   0  0  0  0  0  0  0  0  0  0  0  0
  -22.1310   -7.5780   22.1650 C   0  0  0  0  0  0  0  0  0  0  0  0
  -21.6560   -8.2650   23.3040 C   0  0  0  0  0  3  0  0  0  0  0  0
  -21.3500   -7.5530   24.4800 C   0  0  0  0  0  3  0  0  0  0  0  0
  -21.5070   -6.1560   24.5190 C   0  0  0  0  0  0  0  0  0  0  0  0
  -21.9750   -5.4670   23.3850 C   0  0  0  0  0  3  0  0  0  0  0  0
  -22.2840   -6.1770   22.2110 C   0  0  0  0  0  0  0  0  0  0  0  0
  -22.7120   -5.5070   21.1150 F   0  0  0  0  0  0  0  0  0  0  0  0
  -21.2070   -5.4700   25.6460 F   0  0  0  0  0  0  0  0  0  0  0  0
  -24.3860  -14.6600   21.0460 C   0  0  0  0  0  0  0  0  0  0  0  0
  -23.6940  -14.0130   21.9750 N   0  0  0  0  0  0  0  0  0  0  0  0
  -24.0270  -15.7640   20.6350 O   0  0  0  0  0  0  0  0  0  0  0  0
  -23.9980  -13.1150   22.3190 H   0  0  0  0  0  0  0  0  0  0  0  0
  -22.8460  -14.4160   22.3470 H   0  0  0  0  0  0  0  0  0  0  0  0
  -27.1410  -16.0160   20.0510 N   0  0  0  0  0  0  0  0  0  0  0  0
  -26.5220  -16.7660   20.3380 H   0  0  0  0  0  0  0  0  0  0  0  0
  -28.0430  -16.3440   19.7320 H   0  0  0  0  0  0  0  0  0  0  0  0
  -32.5800  -18.4060   20.8220 C   0  0  0  0  0  0  0  0  0  0  0  0
  -33.3900  -19.4430   20.6560 N   0  0  0  0  0  0  0  0  0  0  0  0
  -32.3870  -17.9190   21.9350 O   0  0  0  0  0  0  0  0  0  0  0  0
  -33.5520  -19.8230   19.7330 H   0  0  0  0  0  0  0  0  0  0  0  0
  -33.8710  -19.8510   21.4450 H   0  0  0  0  0  0  0  0  0  0  0  0
  1  4  1  0
  1  2  1  0
  3  1  1  0
  5  4  1  0
  6  7  1  0
  6  5  1  0
  7  8  1  0
  9 10  1  0
  9  8  1  0
 10 12  1  0
 11 22  2  0
 12 17  1  0
 13 21  1  0
 13 23  1  0
 14 20  1  0
 14 16  1  0
 15 21  1  0
 16 17  2  0
 16 15  1  0
 18 19  1  0
 18 12  2  0
 19 14  2  0
 20 13  1  0
 21 11  1  0
 23 25  2  0
 24 23  1  0
 26 24  1  0
 27 36  2  0
 27 32  1  0
 28 24  1  0
 29 28  1  0
 30 31  1  0
 30 29  1  0
 31 27  1  0
 32 28  1  0
 32 33  2  0
 34 33  1  0
 35 34  2  0
 36 35  1  0
 37 11  1  0
 37 38  1  0
 37 47  1  0
 38 41  1  0
 39 43  1  0
 39 38  1  0
 40 39  2  0
 43 42  1  0
 45 43  1  0
 45 46  1  0
 45 44  1  0
 47 50  1  1
 47 48  1  0
 49 47  1  0
 51  1  1  0
 52 53  1  0
 52 51  1  0
 54 53  1  0
 55 54  1  0
 55 64  1  0
 55 94  1  0
 56 62  1  0
 56 64  1  0
 57 62  1  0
 58 59  1  0
 58 57  1  0
 60 59  1  0
 60 69  1  0
 60 61  1  0
 62 61  1  0
 63 56  2  0
 64 65  1  0
 66 67  2  0
 67 86  1  0
 68 71  1  0
 68 67  1  0
 69 70  1  0
 69 66  1  0
 70 68  2  0
 71 72  1  0
 72 73  2  0
 74 77  1  0
 74 73  1  0
 75 74  2  0
 76 75  1  0
 76 71  2  0
 77 78  1  0
 78 83  2  0
 78 79  1  0
 79 80  2  0
 80 81  1  0
 81 85  1  0
 82 81  2  0
 83 82  1  0
 84 83  1  0
 86 87  1  0
 87 89  1  0
 87 90  1  0
 88 86  2  0
 91 66  1  0
 91 92  1  0
 93 91  1  0
 94 96  2  0
 95 94  1  0
 95 98  1  0
 97 95  1  0
M  ISO  4   9 101  10 101  56 100  64 100
M  END
>  <TORSDO>  (82) 
F 28

>  <SCORE>  (82) 
-7.794

>  <name>  (82) 
81

>  <ligand_id>  (82) 
81

>  <original_smiles>  (82) 
[H]c1c([H])c([H])c2c(c1[H])C([H])([H])C([H])([H])C([H])([H])C2([H])N([H])C(=O)C1([H])N(C(=O)C([H])(N([H])C(=O)C([H])(N([H])C([H])([H])[H])C([H])([H])[H])C(C([H])([H])[H])(C([H])([H])[H])C([H])([H])[H])C([H])([H])c2c([H])c(OC([H])([H])C([H])([H])C([H])([H])C([H])([H])C([H])([H])C([H])([H])[N+]([H])([H])C([H])([H])C([H])([H])C([H])([H])C([H])([H])C([H])(C(=O)N([H])[H])N([H])C(=O)N3C([H])([H])C([H])([H])C([H])([H])C([H])(n4nc(-c5c([H])c([H])c(Oc6c([H])c([H])c(F)c([H])c6F)c([H])c5[H])c(C(=O)N([H])[H])c4N([H])[H])C3([H])[H])c([H])c([H])c2C1([H])[H]

>  <smiles>  (82) 
[H]c1c([H])c([H])c2c(c1[H])C([H])([H])C([H])([H])C([H])([H])C2([H])N([H])C(=O)C1([H])N(C(=O)C([H])(N([H])C(=O)C([H])(N([H])C([H])([H])[H])C([H])([H])[H])C(C([H])([H])[H])(C([H])([H])[H])C([H])([H])[H])C([H])([H])c2c([H])c(OC([H])([H])C([H])([H])C([H])([H])C([H])([H])C([H])([H])C([H])([H])[N+]([H])([H])C([H])([H])C([H])([H])C([H])([H])C([H])([H])C([H])(C(=O)N([H])[H])N([H])C(=O)N3C([H])([H])C([H])([H])C([H])([H])C([H])(n4nc(-c5c([H])c([H])c(Oc6c([H])c([H])c(F)c([H])c6F)c([H])c5[H])c(C(=O)N([H])[H])c4N([H])[H])C3([H])[H])c([H])c([H])c2C1([H])[H]

$$$$
82:0:0
     RDKit          3D

 96105  0  0  1  0  0  0  0  0999 V2000
  -28.0260  -20.7900   21.8960 C   0  0  0  0  0  2  0  0  0  0  0  0
  -27.9780  -22.2560   22.1100 N   0  0  0  0  0  4  0  0  0  0  0  0
  -28.2480  -22.4630   23.0600 H   0  0  0  0  0  0  0  0  0  0  0  0
  -27.0180  -22.5540   22.0130 H   0  0  0  0  0  0  0  0  0  0  0  0
  -28.8140  -23.0650   21.1970 C   0  0  0  0  0  2  0  0  0  0  0  0
  -28.3830  -24.5460   21.1350 C   0  0  0  0  0  2  0  0  0  0  0  0
  -29.6000  -25.4480   20.8440 C   0  0  0  0  0  2  0  0  0  0  0  0
  -29.2720  -26.9240   20.6390 C   0  0  0  0  0  2  0  0  0  0  0  0
  -28.5210  -27.0120   19.4350 O   0  0  0  0  0  0  0  0  0  0  0  0
  -24.7410  -31.7150   23.1460 C   0  0  0  0  0  0  0  0  0  0  0  0
  -27.3590  -27.7130   19.5610 C   0  0  0  0  0  0  0  0  0  0  0  0
  -23.4920  -30.4210   21.4420 C   0  0  0  0  0  3  0  0  0  0  0  0
  -24.9160  -29.0710   19.8190 C   0  0  0  0  0  0  0  0  0  0  0  0
  -25.9760  -30.9170   21.1400 C   0  0  0  0  0  2  0  0  0  0  0  0
  -26.0750  -29.6070   20.3910 C   0  0  0  0  0  0  0  0  0  0  0  0
  -27.3000  -28.9360   20.2620 C   0  0  0  0  0  3  0  0  0  0  0  0
  -26.1930  -27.1830   18.9770 C   0  0  0  0  0  3  0  0  0  0  0  0
  -24.9640  -27.8530   19.1100 C   0  0  0  0  0  3  0  0  0  0  0  0
  -23.6460  -29.8650   19.9990 C   0  0  0  0  0  2  0  0  0  0  0  0
  -24.7590  -31.0220   21.9730 N   0  0  0  0  0  0  0  0  0  0  0  0
  -23.6810  -31.8970   23.7610 O   0  0  0  0  0  0  0  0  0  0  0  0
  -22.9240  -29.2980   22.3380 C   0  0  0  0  0  0  0  0  0  0  0  0
  -21.6020  -29.0840   22.2510 N   0  0  0  0  0  0  0  0  0  0  0  0
  -23.6640  -28.6280   23.0630 O   0  0  0  0  0  0  0  0  0  0  0  0
  -21.0660  -29.6830   21.6390 H   0  0  0  0  0  0  0  0  0  0  0  0
  -18.2930  -27.7280   22.7560 C   0  0  0  0  0  0  0  0  0  0  0  0
  -20.8480  -28.0560   22.9670 C   0  0  0  0  0  3  0  0  0  0  0  0
  -20.9800  -26.6830   22.2700 C   0  0  0  0  0  2  0  0  0  0  0  0
  -19.8550  -26.4030   21.2690 C   0  0  0  0  0  2  0  0  0  0  0  0
  -18.4920  -26.4450   21.9670 C   0  0  0  0  0  2  0  0  0  0  0  0
  -19.3990  -28.4940   23.2120 C   0  0  0  0  0  0  0  0  0  0  0  0
  -19.1600  -29.6970   23.9100 C   0  0  0  0  0  3  0  0  0  0  0  0
  -17.8450  -30.1360   24.1590 C   0  0  0  0  0  3  0  0  0  0  0  0
  -16.7530  -29.3680   23.7170 C   0  0  0  0  0  3  0  0  0  0  0  0
  -16.9790  -28.1650   23.0230 C   0  0  0  0  0  3  0  0  0  0  0  0
  -26.0390  -32.3270   23.7610 C   0  0  0  0  0  3  0  0  0  0  0  0
  -26.6220  -31.4790   24.9560 C   0  0  1  0  0  0  0  0  0  0  0  0
  -25.5810  -31.1420   26.0480 C   0  0  0  0  0  1  0  0  0  0  0  0
  -27.2070  -30.1470   24.4280 C   0  0  0  0  0  1  0  0  0  0  0  0
  -27.7870  -32.2450   25.6260 C   0  0  0  0  0  1  0  0  0  0  0  0
  -25.7210  -33.6910   24.1960 N   0  0  0  0  0  0  0  0  0  0  0  0
  -26.0150  -34.7970   23.4980 C   0  0  0  0  0  0  0  0  0  0  0  0
  -26.6550  -34.7760   22.4440 O   0  0  0  0  0  0  0  0  0  0  0  0
  -25.1550  -33.7830   25.0270 H   0  0  0  0  0  0  0  0  0  0  0  0
  -24.2460  -36.5720   23.3130 C   0  0  0  0  0  1  0  0  0  0  0  0
  -25.5190  -36.1430   24.0610 C   0  0  0  0  0  3  0  0  0  0  0  0
  -27.6620  -37.0110   24.8860 C   0  0  0  0  0  1  0  0  0  0  0  0
  -26.5290  -37.2220   23.9870 N   0  0  0  0  0  0  0  0  0  0  0  0
  -26.1120  -38.1210   24.2110 H   0  0  0  0  0  0  0  0  0  0  0  0
  -29.3980  -20.1380   22.1940 C   0  0  0  0  0  2  0  0  0  0  0  0
  -30.9870  -14.6990   19.8390 C   0  0  0  0  0  0  0  0  0  0  0  0
  -30.5340  -12.5530   18.7100 C   0  0  0  0  0  2  0  0  0  0  0  0
  -29.5100  -12.7300   17.5730 C   0  0  0  0  0  2  0  0  0  0  0  0
  -28.0810  -12.5680   18.1230 C   0  0  0  0  0  2  0  0  0  0  0  0
  -27.8290  -13.4260   19.3840 C   0  0  0  0  0  3  0  0  0  0  0  0
  -28.9730  -13.2490   20.4180 C   0  0  0  0  0  2  0  0  0  0  0  0
  -30.2540  -13.5510   19.7560 N   0  0  0  0  0  0  0  0  0  0  0  0
  -31.9990  -14.8740   19.1510 O   0  0  0  0  0  0  0  0  0  0  0  0
  -32.5370  -20.1980   19.9560 C   0  0  0  0  0  2  0  0  0  0  0  0
  -31.6800  -20.7590   21.0920 C   0  0  0  0  0  2  0  0  0  0  0  0
  -31.9050  -18.8510   19.5650 C   0  0  0  0  0  2  0  0  0  0  0  0
  -31.4370  -17.7920   21.8330 C   0  0  0  0  0  2  0  0  0  0  0  0
  -29.6210  -17.7290   20.0400 C   0  0  0  0  0  2  0  0  0  0  0  0
  -31.7380  -16.3060   21.5400 C   0  0  0  0  0  2  0  0  0  0  0  0
  -29.4110  -16.3800   20.7550 C   0  0  0  0  0  2  0  0  0  0  0  0
  -30.3550  -19.9920   20.9780 C   0  0  0  0  0  3  0  0  0  0  0  0
  -30.8070  -18.5500   20.6200 C   0  0  2  0  0  0  0  0  0  0  0  0
  -30.6620  -15.6030   20.8010 N   0  0  0  0  0  0  0  0  0  0  0  0
  -25.5290  -14.0540   20.3510 C   0  0  0  0  0  0  0  0  0  0  0  0
  -24.4870  -13.2850   20.7960 C   0  0  0  0  0  0  0  0  0  0  0  0
  -24.9100  -11.9300   20.6600 C   0  0  0  0  0  0  0  0  0  0  0  0
  -26.5240  -13.1610   19.9810 N   0  0  0  0  0  0  0  0  0  0  0  0
  -26.1630  -11.8770   20.2300 N   0  0  0  0  0  0  0  0  0  0  0  0
  -24.1780  -10.6720   20.8530 C   0  0  0  0  0  0  0  0  0  0  0  0
  -24.6090   -9.7080   21.7920 C   0  0  0  0  0  3  0  0  0  0  0  0
  -23.8900   -8.5080   21.9660 C   0  0  0  0  0  3  0  0  0  0  0  0
  -22.7190   -8.2690   21.2110 C   0  0  0  0  0  0  0  0  0  0  0  0
  -22.3090   -9.2150   20.2580 C   0  0  0  0  0  3  0  0  0  0  0  0
  -23.0300  -10.4090   20.0780 C   0  0  0  0  0  3  0  0  0  0  0  0
  -21.9590   -7.1290   21.3060 O   0  0  0  0  0  0  0  0  0  0  0  0
  -21.8180   -6.4510   22.4910 C   0  0  0  0  0  0  0  0  0  0  0  0
  -21.2880   -7.0700   23.6440 C   0  0  0  0  0  3  0  0  0  0  0  0
  -21.0960   -6.3200   24.8210 C   0  0  0  0  0  3  0  0  0  0  0  0
  -21.4250   -4.9490   24.8450 C   0  0  0  0  0  0  0  0  0  0  0  0
  -21.9520   -4.3340   23.6940 C   0  0  0  0  0  3  0  0  0  0  0  0
  -22.1450   -5.0830   22.5220 C   0  0  0  0  0  0  0  0  0  0  0  0
  -22.6330   -4.4780   21.4110 F   0  0  0  0  0  0  0  0  0  0  0  0
  -21.2320   -4.2250   25.9690 F   0  0  0  0  0  0  0  0  0  0  0  0
  -23.1330  -13.7690   21.2250 C   0  0  0  0  0  0  0  0  0  0  0  0
  -22.4800  -13.0490   22.1300 N   0  0  0  0  0  0  0  0  0  0  0  0
  -22.6680  -14.8280   20.7980 O   0  0  0  0  0  0  0  0  0  0  0  0
  -22.8590  -12.1880   22.4960 H   0  0  0  0  0  0  0  0  0  0  0  0
  -21.5770  -13.3630   22.4570 H   0  0  0  0  0  0  0  0  0  0  0  0
  -25.7000  -15.4290   20.2110 N   0  0  0  0  0  0  0  0  0  0  0  0
  -24.9140  -16.0570   20.3290 H   0  0  0  0  0  0  0  0  0  0  0  0
  -26.4530  -15.8470   19.6840 H   0  0  0  0  0  0  0  0  0  0  0  0
  1  2  1  0
  1 50  1  0
  2  3  1  0
  4  2  1  0
  5  2  1  0
  6  5  1  0
  7  6  1  0
  8  7  1  0
  9 11  1  0
  9  8  1  0
 10 21  2  0
 11 16  1  0
 12 20  1  0
 12 22  1  0
 13 19  1  0
 13 15  1  0
 14 20  1  0
 15 14  1  0
 16 15  2  0
 17 18  1  0
 17 11  2  0
 18 13  2  0
 19 12  1  0
 20 10  1  0
 22 24  2  0
 23 22  1  0
 25 23  1  0
 26 35  2  0
 26 31  1  0
 27 23  1  0
 27 31  1  0
 28 27  1  0
 29 30  1  0
 29 28  1  0
 30 26  1  0
 31 32  2  0
 32 33  1  0
 34 33  2  0
 35 34  1  0
 36 10  1  0
 36 41  1  0
 36 37  1  0
 37 40  1  1
 37 38  1  0
 39 37  1  0
 41 44  1  0
 42 46  1  0
 42 41  1  0
 43 42  2  0
 46 45  1  0
 48 46  1  0
 48 49  1  0
 48 47  1  0
 51 68  1  0
 52 57  1  0
 53 54  1  0
 53 52  1  0
 55 54  1  0
 55 72  1  0
 55 56  1  0
 57 51  1  0
 57 56  1  0
 58 51  2  0
 59 60  1  0
 61 59  1  0
 67 63  1  6
 63 65  1  0
 64 62  1  0
 65 68  1  0
 66 60  1  0
 66 50  1  0
 67 61  1  0
 67 66  1  0
 67 62  1  0
 68 64  1  0
 69 70  2  0
 70 89  1  0
 71 70  1  0
 71 74  1  0
 72 73  1  0
 72 69  1  0
 73 71  2  0
 74 75  1  0
 75 76  2  0
 77 80  1  0
 77 76  1  0
 78 77  2  0
 79 78  1  0
 79 74  2  0
 80 81  1  0
 81 86  2  0
 81 82  1  0
 82 83  2  0
 83 84  1  0
 84 88  1  0
 85 84  2  0
 86 85  1  0
 87 86  1  0
 89 90  1  0
 90 93  1  0
 90 92  1  0
 91 89  2  0
 94 95  1  0
 94 69  1  0
 96 94  1  0
M  ISO  4   8 101   9 101  51 100  68 100
M  END
>  <TORSDO>  (83) 
F 22

>  <SCORE>  (83) 
-9.932

>  <name>  (83) 
82

>  <ligand_id>  (83) 
82

>  <original_smiles>  (83) 
[H]c1c([H])c([H])c2c(c1[H])C([H])([H])C([H])([H])C([H])([H])C2([H])N([H])C(=O)C1([H])N(C(=O)C([H])(N([H])C(=O)C([H])(N([H])C([H])([H])[H])C([H])([H])[H])C(C([H])([H])[H])(C([H])([H])[H])C([H])([H])[H])C([H])([H])c2c([H])c(OC([H])([H])C([H])([H])C([H])([H])C([H])([H])[N+]([H])([H])C([H])([H])C([H])([H])C3([H])C([H])([H])C([H])([H])C([H])([H])C34C([H])([H])C([H])([H])N(C(=O)N3C([H])([H])C([H])([H])C([H])([H])C([H])(n5nc(-c6c([H])c([H])c(Oc7c([H])c([H])c(F)c([H])c7F)c([H])c6[H])c(C(=O)N([H])[H])c5N([H])[H])C3([H])[H])C([H])([H])C4([H])[H])c([H])c([H])c2C1([H])[H]

>  <smiles>  (83) 
[H]c1c([H])c([H])c2c(c1[H])C([H])([H])C([H])([H])C([H])([H])C2([H])N([H])C(=O)C1([H])N(C(=O)C([H])(N([H])C(=O)C([H])(N([H])C([H])([H])[H])C([H])([H])[H])C(C([H])([H])[H])(C([H])([H])[H])C([H])([H])[H])C([H])([H])c2c([H])c(OC([H])([H])C([H])([H])C([H])([H])C([H])([H])[N+]([H])([H])C([H])([H])C([H])([H])C3([H])C([H])([H])C([H])([H])C([H])([H])C34C([H])([H])C([H])([H])N(C(=O)N3C([H])([H])C([H])([H])C([H])([H])C([H])(n5nc(-c6c([H])c([H])c(Oc7c([H])c([H])c(F)c([H])c7F)c([H])c6[H])c(C(=O)N([H])[H])c5N([H])[H])C3([H])[H])C([H])([H])C4([H])[H])c([H])c([H])c2C1([H])[H]

$$$$
83:0:0
     RDKit          3D

 92101  0  0  1  0  0  0  0  0999 V2000
  -29.0720  -19.3930   19.1090 C   0  0  0  0  0  0  0  0  0  0  0  0
  -28.1630  -18.9320   18.4140 O   0  0  0  0  0  0  0  0  0  0  0  0
  -30.4970  -15.7720   19.6290 C   0  0  0  0  0  0  0  0  0  0  0  0
  -30.5490  -13.3200   18.8770 C   0  0  0  0  0  2  0  0  0  0  0  0
  -29.5650  -12.9520   17.7350 C   0  0  0  0  0  2  0  0  0  0  0  0
  -28.1840  -12.5940   18.3090 C   0  0  0  0  0  2  0  0  0  0  0  0
  -27.7030  -13.6700   19.3010 C   0  0  0  0  0  3  0  0  0  0  0  0
  -28.7720  -13.9730   20.3510 C   0  0  0  0  0  2  0  0  0  0  0  0
  -29.9920  -14.4590   19.6790 N   0  0  0  0  0  0  0  0  0  0  0  0
  -31.5520  -15.9290   19.0070 O   0  0  0  0  0  0  0  0  0  0  0  0
  -30.5560  -19.1140   21.0060 C   0  0  0  0  0  3  0  0  0  0  0  0
  -29.9270  -18.3870   20.0360 C   0  0  0  0  0  0  0  0  0  0  0  0
  -31.7240  -20.2710   23.6170 C   0  0  0  0  0  2  0  0  0  0  0  0
  -32.4620  -19.3440   22.6420 C   0  0  0  0  0  2  0  0  0  0  0  0
  -30.5190  -19.3370   23.5430 C   0  0  0  0  0  2  0  0  0  0  0  0
  -31.0810  -17.1010   22.3840 C   0  0  0  0  0  2  0  0  0  0  0  0
  -29.7900  -16.6140   21.7240 C   0  0  0  0  0  2  0  0  0  0  0  0
  -31.1450  -18.6120   22.3260 C   0  0  1  0  0  0  0  0  0  0  0  0
  -29.8220  -16.8760   20.2600 N   0  0  0  0  0  0  0  0  0  0  0  0
  -25.4390  -14.2020   20.3830 C   0  0  0  0  0  0  0  0  0  0  0  0
  -24.4270  -13.4010   20.8310 C   0  0  0  0  0  0  0  0  0  0  0  0
  -24.8820  -12.0580   20.6570 C   0  0  0  0  0  0  0  0  0  0  0  0
  -26.4340  -13.3440   19.9370 N   0  0  0  0  0  0  0  0  0  0  0  0
  -26.1230  -12.0470   20.1850 N   0  0  0  0  0  0  0  0  0  0  0  0
  -24.1850  -10.7820   20.8530 C   0  0  0  0  0  0  0  0  0  0  0  0
  -24.6510   -9.8240   21.7820 C   0  0  0  0  0  3  0  0  0  0  0  0
  -23.9570   -8.6100   21.9650 C   0  0  0  0  0  3  0  0  0  0  0  0
  -22.7840   -8.3460   21.2210 C   0  0  0  0  0  0  0  0  0  0  0  0
  -22.3370   -9.2930   20.2800 C   0  0  0  0  0  3  0  0  0  0  0  0
  -23.0320  -10.5000   20.0930 C   0  0  0  0  0  3  0  0  0  0  0  0
  -22.0620   -7.1830   21.3100 O   0  0  0  0  0  0  0  0  0  0  0  0
  -21.8840   -6.5310   22.5050 C   0  0  0  0  0  0  0  0  0  0  0  0
  -21.2380   -7.1470   23.6020 C   0  0  0  0  0  3  0  0  0  0  0  0
  -21.0140   -6.4180   24.7860 C   0  0  0  0  0  3  0  0  0  0  0  0
  -21.4300   -5.0760   24.8750 C   0  0  0  0  0  0  0  0  0  0  0  0
  -22.0660   -4.4610   23.7830 C   0  0  0  0  0  3  0  0  0  0  0  0
  -22.2910   -5.1860   22.6020 C   0  0  0  0  0  0  0  0  0  0  0  0
  -22.8890   -4.5830   21.5430 F   0  0  0  0  0  0  0  0  0  0  0  0
  -21.2070   -4.3710   26.0090 F   0  0  0  0  0  0  0  0  0  0  0  0
  -23.0700  -13.8560   21.2900 C   0  0  0  0  0  0  0  0  0  0  0  0
  -22.4700  -13.1410   22.2340 N   0  0  0  0  0  0  0  0  0  0  0  0
  -22.5520  -14.8790   20.8440 O   0  0  0  0  0  0  0  0  0  0  0  0
  -22.9060  -12.3190   22.6220 H   0  0  0  0  0  0  0  0  0  0  0  0
  -21.5620  -13.4310   22.5730 H   0  0  0  0  0  0  0  0  0  0  0  0
  -25.5780  -15.5840   20.2960 N   0  0  0  0  0  0  0  0  0  0  0  0
  -24.8390  -16.2120   20.5960 H   0  0  0  0  0  0  0  0  0  0  0  0
  -26.3870  -16.0730   19.9360 H   0  0  0  0  0  0  0  0  0  0  0  0
  -29.2740  -21.0580   19.0150 C   0  0  0  0  0  3  0  0  0  0  0  0
  -28.1410  -22.2590   18.6410 C   0  0  0  0  0  3  0  0  0  0  0  0
  -28.4350  -23.9260   18.5040 C   0  0  0  0  0  3  0  0  0  0  0  0
  -27.2810  -25.1620   18.5460 C   0  0  0  0  0  3  0  0  0  0  0  0
  -27.5030  -26.7050   18.5550 O   0  0  0  0  0  0  0  0  0  0  0  0
  -24.5160  -31.6020   23.1590 C   0  0  0  0  0  0  0  0  0  0  0  0
  -26.4450  -27.6340   18.8680 C   0  0  0  0  0  0  0  0  0  0  0  0
  -23.0110  -30.4880   21.5570 C   0  0  0  0  0  3  0  0  0  0  0  0
  -24.1450  -29.2540   19.6110 C   0  0  0  0  0  0  0  0  0  0  0  0
  -25.4700  -30.8900   20.9340 C   0  0  0  0  0  2  0  0  0  0  0  0
  -25.4220  -29.6360   20.0460 C   0  0  0  0  0  0  0  0  0  0  0  0
  -26.5670  -28.8430   19.6660 C   0  0  0  0  0  3  0  0  0  0  0  0
  -25.1340  -27.3580   18.4150 C   0  0  0  0  0  3  0  0  0  0  0  0
  -24.0100  -28.1290   18.7830 C   0  0  0  0  0  3  0  0  0  0  0  0
  -22.9490  -30.0780   20.0610 C   0  0  0  0  0  2  0  0  0  0  0  0
  -24.3650  -31.0020   21.9400 N   0  0  0  0  0  0  0  0  0  0  0  0
  -23.5610  -31.7390   23.9380 O   0  0  0  0  0  0  0  0  0  0  0  0
  -22.5440  -29.2970   22.4290 C   0  0  0  0  0  0  0  0  0  0  0  0
  -21.2540  -28.9320   22.3240 N   0  0  0  0  0  0  0  0  0  0  0  0
  -23.3400  -28.7100   23.1670 O   0  0  0  0  0  0  0  0  0  0  0  0
  -20.6600  -29.4660   21.7050 H   0  0  0  0  0  0  0  0  0  0  0  0
  -18.2700  -26.8850   22.4650 C   0  0  0  0  0  0  0  0  0  0  0  0
  -20.6230  -27.8040   23.0160 C   0  0  0  0  0  3  0  0  0  0  0  0
  -21.1630  -26.4580   22.4860 C   0  0  0  0  0  2  0  0  0  0  0  0
  -20.3070  -25.8660   21.3620 C   0  0  0  0  0  2  0  0  0  0  0  0
  -18.8710  -25.6380   21.8380 C   0  0  0  0  0  2  0  0  0  0  0  0
  -19.0940  -27.9080   23.0040 C   0  0  0  0  0  0  0  0  0  0  0  0
  -18.4850  -29.0610   23.5460 C   0  0  0  0  0  3  0  0  0  0  0  0
  -17.0850  -29.1980   23.5590 C   0  0  0  0  0  3  0  0  0  0  0  0
  -16.2740  -28.1760   23.0370 C   0  0  0  0  0  3  0  0  0  0  0  0
  -16.8660  -27.0220   22.4940 C   0  0  0  0  0  3  0  0  0  0  0  0
  -25.8940  -32.1620   23.6290 C   0  0  0  0  0  3  0  0  0  0  0  0
  -26.5590  -31.2930   24.7670 C   0  0  1  0  0  0  0  0  0  0  0  0
  -25.6350  -31.0490   25.9840 C   0  0  0  0  0  1  0  0  0  0  0  0
  -26.9950  -29.9160   24.2150 C   0  0  0  0  0  1  0  0  0  0  0  0
  -27.8410  -31.9900   25.2770 C   0  0  0  0  0  1  0  0  0  0  0  0
  -25.6870  -33.5400   24.1000 N   0  0  0  0  0  0  0  0  0  0  0  0
  -26.0330  -34.6410   23.4190 C   0  0  0  0  0  0  0  0  0  0  0  0
  -26.6300  -34.5980   22.3400 O   0  0  0  0  0  0  0  0  0  0  0  0
  -25.1660  -33.6520   24.9560 H   0  0  0  0  0  0  0  0  0  0  0  0
  -24.4160  -36.5680   23.3100 C   0  0  0  0  0  1  0  0  0  0  0  0
  -25.6560  -36.0060   24.0270 C   0  0  0  0  0  3  0  0  0  0  0  0
  -27.8690  -36.6780   24.8550 C   0  0  0  0  0  1  0  0  0  0  0  0
  -26.7500  -37.0020   23.9720 N   0  0  0  0  0  0  0  0  0  0  0  0
  -26.4090  -37.9260   24.2180 H   0  0  0  0  0  0  0  0  0  0  0  0
  1 12  1  0
  2  1  2  0
  3  9  1  0
  3 19  1  0
  4  9  1  0
  5  6  1  0
  5  4  1  0
  7  6  1  0
  7 23  1  0
  7  8  1  0
  9  8  1  0
 10  3  2  0
 11 18  1  0
 12 19  1  0
 12 11  2  0
 14 13  1  0
 15 13  1  0
 17 16  1  0
 18 16  1  1
 18 14  1  0
 18 15  1  0
 19 17  1  0
 20 21  2  0
 21 40  1  0
 22 21  1  0
 22 25  1  0
 23 24  1  0
 23 20  1  0
 24 22  2  0
 25 26  1  0
 26 27  2  0
 28 31  1  0
 28 27  1  0
 29 28  2  0
 30 29  1  0
 30 25  2  0
 31 32  1  0
 32 37  2  0
 32 33  1  0
 33 34  2  0
 34 35  1  0
 35 39  1  0
 36 35  2  0
 37 36  1  0
 38 37  1  0
 40 41  1  0
 41 44  1  0
 41 43  1  0
 42 40  2  0
 45 20  1  0
 45 46  1  0
 47 45  1  0
 48  1  1  0
 49 48  2  0
 50 51  2  0
 50 49  1  0
 51 52  1  0
 52 54  1  0
 53 64  2  0
 54 59  1  0
 55 63  1  0
 55 65  1  0
 56 58  1  0
 56 62  1  0
 57 63  1  0
 58 57  1  0
 59 58  2  0
 60 61  1  0
 60 54  2  0
 61 56  2  0
 62 55  1  0
 63 53  1  0
 65 67  2  0
 66 65  1  0
 68 66  1  0
 69 78  2  0
 69 74  1  0
 70 66  1  0
 71 70  1  0
 72 73  1  0
 72 71  1  0
 73 69  1  0
 74 70  1  0
 74 75  2  0
 75 76  1  0
 77 76  2  0
 78 77  1  0
 79 53  1  0
 79 84  1  0
 79 80  1  0
 80 83  1  1
 80 81  1  0
 82 80  1  0
 84 87  1  0
 85 89  1  0
 85 84  1  0
 86 85  2  0
 89 88  1  0
 91 89  1  0
 91 92  1  0
 91 90  1  0
M  ISO  4   3 100  19 100  51 101  52 101
M  END
>  <TORSDO>  (84) 
F 20

>  <SCORE>  (84) 
-12.096

>  <name>  (84) 
83

>  <ligand_id>  (84) 
83

>  <original_smiles>  (84) 
[H]C1=C(C(=O)C([H])([H])C([H])([H])C([H])([H])C([H])([H])Oc2c([H])c([H])c3c(c2[H])C([H])([H])N(C(=O)C([H])(N([H])C(=O)C([H])(N([H])C([H])([H])[H])C([H])([H])[H])C(C([H])([H])[H])(C([H])([H])[H])C([H])([H])[H])C([H])(C(=O)N([H])C2([H])c4c([H])c([H])c([H])c([H])c4C([H])([H])C([H])([H])C2([H])[H])C3([H])[H])N(C(=O)N2C([H])([H])C([H])([H])C([H])([H])C([H])(n3nc(-c4c([H])c([H])c(Oc5c([H])c([H])c(F)c([H])c5F)c([H])c4[H])c(C(=O)N([H])[H])c3N([H])[H])C2([H])[H])C([H])([H])C([H])([H])C12C([H])([H])C([H])([H])C2([H])[H]

>  <smiles>  (84) 
[H]C1=C(C(=O)C([H])([H])C([H])([H])C([H])([H])C([H])([H])Oc2c([H])c([H])c3c(c2[H])C([H])([H])N(C(=O)C([H])(N([H])C(=O)C([H])(N([H])C([H])([H])[H])C([H])([H])[H])C(C([H])([H])[H])(C([H])([H])[H])C([H])([H])[H])C([H])(C(=O)N([H])C2([H])c4c([H])c([H])c([H])c([H])c4C([H])([H])C([H])([H])C2([H])[H])C3([H])[H])N(C(=O)N2C([H])([H])C([H])([H])C([H])([H])C([H])(n3nc(-c4c([H])c([H])c(Oc5c([H])c([H])c(F)c([H])c5F)c([H])c4[H])c(C(=O)N([H])[H])c3N([H])[H])C2([H])[H])C([H])([H])C([H])([H])C12C([H])([H])C([H])([H])C2([H])[H]

$$$$
84:0:0
     RDKit          3D

 96104  0  0  1  0  0  0  0  0999 V2000
  -32.2720  -24.7090   20.0290 C   0  0  0  0  0  3  0  0  0  0  0  0
  -30.9900  -25.1830   20.3420 C   0  0  0  0  0  3  0  0  0  0  0  0
  -31.3940  -22.4490   19.9440 C   0  0  0  0  0  3  0  0  0  0  0  0
  -32.4790  -23.3370   19.8240 C   0  0  0  0  0  0  0  0  0  0  0  0
  -29.8770  -24.3110   20.4510 C   0  0  0  0  0  0  0  0  0  0  0  0
  -30.0830  -22.8970   20.2430 C   0  0  0  0  0  0  0  0  0  0  0  0
  -33.8570  -22.8230   19.4410 C   0  0  0  0  0  2  0  0  0  0  0  0
  -36.1710  -22.1300   20.2600 C   0  0  0  0  0  1  0  0  0  0  0  0
  -34.8130  -22.7350   20.6390 C   0  0  0  0  0  2  0  0  0  0  0  0
  -28.9430  -21.8430   20.2530 C   0  0  0  0  0  2  0  0  0  0  0  0
  -29.2080  -20.5460   20.9710 N   0  0  0  0  0  4  0  0  0  0  0  0
  -28.3240  -20.2870   21.3770 H   0  0  0  0  0  0  0  0  0  0  0  0
  -29.8350  -20.7200   21.7400 H   0  0  0  0  0  0  0  0  0  0  0  0
  -29.6600  -19.3640   20.1570 C   0  0  0  0  0  2  0  0  0  0  0  0
  -29.6420  -17.9760   20.9030 C   0  0  0  0  0  2  0  0  0  0  0  0
  -30.3260  -16.8030   20.1160 C   0  0  0  0  0  2  0  0  0  0  0  0
  -30.7840  -14.3310   20.2350 C   0  0  0  0  0  0  0  0  0  0  0  0
  -30.4160  -12.1810   19.0860 C   0  0  0  0  0  2  0  0  0  0  0  0
  -29.4390  -12.4360   17.9170 C   0  0  0  0  0  2  0  0  0  0  0  0
  -27.9790  -12.3170   18.3980 C   0  0  0  0  0  2  0  0  0  0  0  0
  -27.7050  -13.1220   19.6970 C   0  0  0  0  0  3  0  0  0  0  0  0
  -28.7970  -12.8640   20.7600 C   0  0  0  0  0  2  0  0  0  0  0  0
  -30.1010  -13.1550   20.1470 N   0  0  0  0  0  0  0  0  0  0  0  0
  -31.9240  -14.4650   19.7820 O   0  0  0  0  0  0  0  0  0  0  0  0
  -30.0560  -15.4190   20.5960 N   0  0  0  0  0  0  0  0  0  0  0  0
  -29.1400  -15.2300   20.9740 H   0  0  0  0  0  0  0  0  0  0  0  0
  -25.3600  -13.7620   20.5310 C   0  0  0  0  0  0  0  0  0  0  0  0
  -24.2850  -13.0050   20.9070 C   0  0  0  0  0  0  0  0  0  0  0  0
  -24.7020  -11.6420   20.7960 C   0  0  0  0  0  0  0  0  0  0  0  0
  -26.3660  -12.8620   20.2180 N   0  0  0  0  0  0  0  0  0  0  0  0
  -25.9770  -11.5790   20.4350 N   0  0  0  0  0  0  0  0  0  0  0  0
  -23.9440  -10.3950   20.9560 C   0  0  0  0  0  0  0  0  0  0  0  0
  -24.3400   -9.4040   21.8830 C   0  0  0  0  0  3  0  0  0  0  0  0
  -23.5850   -8.2200   22.0320 C   0  0  0  0  0  3  0  0  0  0  0  0
  -22.4200   -8.0200   21.2520 C   0  0  0  0  0  0  0  0  0  0  0  0
  -22.0450   -8.9970   20.3130 C   0  0  0  0  0  3  0  0  0  0  0  0
  -22.8010  -10.1720   20.1640 C   0  0  0  0  0  3  0  0  0  0  0  0
  -21.6390   -6.8910   21.3110 O   0  0  0  0  0  0  0  0  0  0  0  0
  -21.5120   -6.1620   22.4660 C   0  0  0  0  0  0  0  0  0  0  0  0
  -20.9900   -6.7260   23.6500 C   0  0  0  0  0  3  0  0  0  0  0  0
  -20.8140   -5.9230   24.7940 C   0  0  0  0  0  3  0  0  0  0  0  0
  -21.1490   -4.5560   24.7550 C   0  0  0  0  0  0  0  0  0  0  0  0
  -21.6650   -3.9910   23.5740 C   0  0  0  0  0  3  0  0  0  0  0  0
  -21.8430   -4.7920   22.4320 C   0  0  0  0  0  0  0  0  0  0  0  0
  -22.3210   -4.2380   21.2920 F   0  0  0  0  0  0  0  0  0  0  0  0
  -20.9720   -3.7820   25.8500 F   0  0  0  0  0  0  0  0  0  0  0  0
  -22.9140  -13.5080   21.2580 C   0  0  0  0  0  0  0  0  0  0  0  0
  -22.2000  -12.7910   22.1180 N   0  0  0  0  0  0  0  0  0  0  0  0
  -22.4870  -14.5690   20.8040 O   0  0  0  0  0  0  0  0  0  0  0  0
  -22.5620  -11.9320   22.5060 H   0  0  0  0  0  0  0  0  0  0  0  0
  -21.2810  -13.1050   22.3940 H   0  0  0  0  0  0  0  0  0  0  0  0
  -25.5610  -15.1340   20.4070 N   0  0  0  0  0  0  0  0  0  0  0  0
  -24.8180  -15.8070   20.5640 H   0  0  0  0  0  0  0  0  0  0  0  0
  -26.4020  -15.5540   20.0330 H   0  0  0  0  0  0  0  0  0  0  0  0
  -28.5120  -24.9730   20.7430 C   0  0  0  0  0  2  0  0  0  0  0  0
  -28.5770  -26.4230   20.8390 O   0  0  0  0  0  0  0  0  0  0  0  0
  -24.7470  -31.8480   23.4640 C   0  0  0  0  0  0  0  0  0  0  0  0
  -27.4170  -27.1750   20.7300 C   0  0  0  0  0  0  0  0  0  0  0  0
  -23.5840  -30.3930   21.8380 C   0  0  0  0  0  3  0  0  0  0  0  0
  -25.0640  -28.7560   20.5540 C   0  0  0  0  0  0  0  0  0  0  0  0
  -26.1270  -30.6830   21.7400 C   0  0  0  0  0  2  0  0  0  0  0  0
  -26.2080  -29.2790   21.1680 C   0  0  0  0  0  0  0  0  0  0  0  0
  -27.3880  -28.4980   21.2450 C   0  0  0  0  0  3  0  0  0  0  0  0
  -26.2510  -26.6740   20.1100 C   0  0  0  0  0  3  0  0  0  0  0  0
  -25.0810  -27.4550   20.0220 C   0  0  0  0  0  3  0  0  0  0  0  0
  -23.8400  -29.6440   20.5030 C   0  0  0  0  0  2  0  0  0  0  0  0
  -24.8350  -30.9930   22.4060 N   0  0  0  0  0  0  0  0  0  0  0  0
  -23.6490  -32.1670   23.9410 O   0  0  0  0  0  0  0  0  0  0  0  0
  -22.8670  -29.4340   22.8150 C   0  0  0  0  0  0  0  0  0  0  0  0
  -21.5630  -29.2040   22.5830 N   0  0  0  0  0  0  0  0  0  0  0  0
  -23.4840  -28.8950   23.7370 O   0  0  0  0  0  0  0  0  0  0  0  0
  -21.1280  -29.6910   21.8110 H   0  0  0  0  0  0  0  0  0  0  0  0
  -18.2070  -27.8860   22.8030 C   0  0  0  0  0  0  0  0  0  0  0  0
  -20.6980  -28.3080   23.3480 C   0  0  0  0  0  3  0  0  0  0  0  0
  -20.9310  -26.8330   22.9450 C   0  0  0  0  0  2  0  0  0  0  0  0
  -19.9760  -26.3500   21.8480 C   0  0  0  0  0  2  0  0  0  0  0  0
  -18.5200  -26.4850   22.3040 C   0  0  0  0  0  2  0  0  0  0  0  0
  -19.2310  -28.7470   23.2790 C   0  0  0  0  0  0  0  0  0  0  0  0
  -18.8890  -30.0510   23.6980 C   0  0  0  0  0  3  0  0  0  0  0  0
  -17.5540  -30.4950   23.6530 C   0  0  0  0  0  3  0  0  0  0  0  0
  -16.5430  -29.6330   23.1970 C   0  0  0  0  0  3  0  0  0  0  0  0
  -16.8690  -28.3320   22.7760 C   0  0  0  0  0  3  0  0  0  0  0  0
  -26.0180  -32.4820   24.1130 C   0  0  0  0  0  3  0  0  0  0  0  0
  -25.7140  -33.8920   24.3920 N   0  0  0  0  0  0  0  0  0  0  0  0
  -26.0450  -34.9140   23.5930 C   0  0  0  0  0  0  0  0  0  0  0  0
  -26.7090  -34.7700   22.5620 O   0  0  0  0  0  0  0  0  0  0  0  0
  -25.1250  -34.0770   25.1900 H   0  0  0  0  0  0  0  0  0  0  0  0
  -24.3030  -36.6840   23.2000 C   0  0  0  0  0  1  0  0  0  0  0  0
  -25.5640  -36.3190   23.9990 C   0  0  0  0  0  3  0  0  0  0  0  0
  -27.7050  -37.2550   24.7520 C   0  0  0  0  0  1  0  0  0  0  0  0
  -26.5890  -37.3690   23.8170 N   0  0  0  0  0  0  0  0  0  0  0  0
  -26.1810  -38.2940   23.9210 H   0  0  0  0  0  0  0  0  0  0  0  0
  -26.4810  -31.7390   25.4250 C   0  0  1  0  0  0  0  0  0  0  0  0
  -25.3430  -31.5180   26.4490 C   0  0  0  0  0  1  0  0  0  0  0  0
  -27.0880  -30.3580   25.0860 C   0  0  0  0  0  1  0  0  0  0  0  0
  -27.5970  -32.5530   26.1220 C   0  0  0  0  0  1  0  0  0  0  0  0
  1  2  1  0
  2  5  2  0
  3  6  2  0
  4  3  1  0
  4  1  2  0
  5 55  1  0
  6 10  1  0
  6  5  1  0
  7  4  1  0
  7  9  1  0
  8  9  1  0
 10 11  1  0
 11 12  1  0
 11 13  1  0
 14 15  1  0
 14 11  1  0
 16 25  1  0
 16 15  1  0
 17 25  1  0
 18 23  1  0
 19 20  1  0
 19 18  1  0
 21 20  1  0
 21 30  1  0
 21 22  1  0
 23 17  1  0
 23 22  1  0
 24 17  2  0
 25 26  1  0
 27 28  2  0
 28 47  1  0
 29 28  1  0
 29 32  1  0
 30 31  1  0
 30 27  1  0
 31 29  2  0
 32 33  1  0
 33 34  2  0
 35 38  1  0
 35 34  1  0
 36 35  2  0
 37 36  1  0
 37 32  2  0
 38 39  1  0
 39 40  1  0
 40 41  2  0
 42 41  1  0
 42 46  1  0
 43 42  2  0
 44 39  2  0
 44 43  1  0
 45 44  1  0
 47 48  1  0
 48 51  1  0
 48 50  1  0
 49 47  2  0
 52 27  1  0
 52 53  1  0
 54 52  1  0
 55 56  1  0
 57 68  2  0
 58 56  1  0
 58 63  1  0
 59 67  1  0
 59 69  1  0
 60 62  1  0
 61 67  1  0
 62 63  2  0
 62 61  1  0
 64 58  2  0
 65 64  1  0
 65 60  2  0
 66 60  1  0
 66 59  1  0
 67 57  1  0
 69 71  2  0
 70 69  1  0
 72 70  1  0
 73 78  1  0
 74 70  1  0
 75 74  1  0
 76 77  1  0
 76 75  1  0
 77 73  1  0
 78 74  1  0
 78 79  2  0
 80 79  1  0
 81 80  2  0
 82 73  2  0
 82 81  1  0
 83 57  1  0
 83 84  1  0
 83 93  1  0
 84 87  1  0
 85 89  1  0
 85 84  1  0
 86 85  2  0
 89 88  1  0
 91 92  1  0
 91 89  1  0
 91 90  1  0
 93 96  1  1
 93 94  1  0
 95 93  1  0
M  ISO  4  17 100  25 100  55 101  56 101
M  END
>  <TORSDO>  (85) 
F 24

>  <SCORE>  (85) 
-11.728

>  <name>  (85) 
84

>  <ligand_id>  (85) 
84

>  <original_smiles>  (85) 
[H]c1c([H])c([H])c2c(c1[H])C([H])([H])C([H])([H])C([H])([H])C2([H])N([H])C(=O)C1([H])N(C(=O)C([H])(N([H])C(=O)C([H])(N([H])C([H])([H])[H])C([H])([H])[H])C(C([H])([H])[H])(C([H])([H])[H])C([H])([H])[H])C([H])([H])c2c([H])c(OC([H])([H])c3c([H])c([H])c(C([H])([H])C([H])([H])C([H])([H])[H])c([H])c3C([H])([H])[N+]([H])([H])C([H])([H])C([H])([H])C([H])([H])N([H])C(=O)N3C([H])([H])C([H])([H])C([H])([H])C([H])(n4nc(-c5c([H])c([H])c(Oc6c([H])c([H])c(F)c([H])c6F)c([H])c5[H])c(C(=O)N([H])[H])c4N([H])[H])C3([H])[H])c([H])c([H])c2C1([H])[H]

>  <smiles>  (85) 
[H]c1c([H])c([H])c2c(c1[H])C([H])([H])C([H])([H])C([H])([H])C2([H])N([H])C(=O)C1([H])N(C(=O)C([H])(N([H])C(=O)C([H])(N([H])C([H])([H])[H])C([H])([H])[H])C(C([H])([H])[H])(C([H])([H])[H])C([H])([H])[H])C([H])([H])c2c([H])c(OC([H])([H])c3c([H])c([H])c(C([H])([H])C([H])([H])C([H])([H])[H])c([H])c3C([H])([H])[N+]([H])([H])C([H])([H])C([H])([H])C([H])([H])N([H])C(=O)N3C([H])([H])C([H])([H])C([H])([H])C([H])(n4nc(-c5c([H])c([H])c(Oc6c([H])c([H])c(F)c([H])c6F)c([H])c5[H])c(C(=O)N([H])[H])c4N([H])[H])C3([H])[H])c([H])c([H])c2C1([H])[H]

$$$$
85:0:0
     RDKit          3D

 97106  0  0  1  0  0  0  0  0999 V2000
  -30.5610  -23.4300   22.2020 C   0  0  0  0  0  2  0  0  0  0  0  0
  -31.3110  -21.2850   21.0350 C   0  0  0  0  0  2  0  0  0  0  0  0
  -29.9520  -21.1850   23.1710 C   0  0  0  0  0  2  0  0  0  0  0  0
  -29.5710  -17.7720   20.0790 C   0  0  0  0  0  2  0  0  0  0  0  0
  -31.6440  -19.7960   21.2100 C   0  0  0  0  0  2  0  0  0  0  0  0
  -30.2820  -19.6880   23.3130 C   0  0  0  0  0  2  0  0  0  0  0  0
  -29.2530  -18.8700   21.0980 C   0  0  0  0  0  2  0  0  0  0  0  0
  -30.9210  -17.5320   22.1110 C   0  0  0  0  0  2  0  0  0  0  0  0
  -31.0240  -21.9710   22.3830 C   0  0  0  0  0  3  0  0  0  0  0  0
  -30.6650  -16.9090   20.7320 C   0  0  0  0  0  3  0  0  0  0  0  0
  -30.5280  -19.0100   21.9490 C   0  0  1  0  0  0  0  0  0  0  0  0
  -30.8230  -14.5470   20.0490 C   0  0  0  0  0  0  0  0  0  0  0  0
  -30.4540  -12.4010   18.9200 C   0  0  0  0  0  2  0  0  0  0  0  0
  -29.4430  -12.5910   17.7720 C   0  0  0  0  0  2  0  0  0  0  0  0
  -28.0010  -12.4300   18.2880 C   0  0  0  0  0  2  0  0  0  0  0  0
  -27.7220  -13.2680   19.5640 C   0  0  0  0  0  3  0  0  0  0  0  0
  -28.8450  -13.0800   20.6120 C   0  0  0  0  0  2  0  0  0  0  0  0
  -30.1350  -13.3810   19.9670 N   0  0  0  0  0  0  0  0  0  0  0  0
  -31.8520  -14.7700   19.4070 O   0  0  0  0  0  0  0  0  0  0  0  0
  -30.2620  -15.5050   20.7980 N   0  0  0  0  0  0  0  0  0  0  0  0
  -29.4150  -15.2710   21.2930 H   0  0  0  0  0  0  0  0  0  0  0  0
  -25.3580  -13.8190   20.4250 C   0  0  0  0  0  0  0  0  0  0  0  0
  -24.3290  -13.0200   20.8510 C   0  0  0  0  0  0  0  0  0  0  0  0
  -24.8140  -11.6800   20.7740 C   0  0  0  0  0  0  0  0  0  0  0  0
  -26.4050  -12.9620   20.1220 N   0  0  0  0  0  0  0  0  0  0  0  0
  -26.0830  -11.6690   20.3860 N   0  0  0  0  0  0  0  0  0  0  0  0
  -24.1270  -10.4000   20.9940 C   0  0  0  0  0  0  0  0  0  0  0  0
  -24.5370   -9.5050   22.0070 C   0  0  0  0  0  3  0  0  0  0  0  0
  -23.8490   -8.2900   22.2120 C   0  0  0  0  0  3  0  0  0  0  0  0
  -22.7350   -7.9590   21.4020 C   0  0  0  0  0  0  0  0  0  0  0  0
  -22.3460   -8.8430   20.3790 C   0  0  0  0  0  3  0  0  0  0  0  0
  -23.0360  -10.0490   20.1740 C   0  0  0  0  0  3  0  0  0  0  0  0
  -22.0220   -6.7910   21.5110 O   0  0  0  0  0  0  0  0  0  0  0  0
  -21.7850   -6.2030   22.7280 C   0  0  0  0  0  0  0  0  0  0  0  0
  -21.0930   -6.8750   23.7580 C   0  0  0  0  0  3  0  0  0  0  0  0
  -20.8100   -6.2100   24.9680 C   0  0  0  0  0  3  0  0  0  0  0  0
  -21.2090   -4.8720   25.1450 C   0  0  0  0  0  0  0  0  0  0  0  0
  -21.8930   -4.1990   24.1180 C   0  0  0  0  0  3  0  0  0  0  0  0
  -22.1770   -4.8620   22.9120 C   0  0  0  0  0  0  0  0  0  0  0  0
  -22.8180   -4.2010   21.9160 F   0  0  0  0  0  0  0  0  0  0  0  0
  -20.9310   -4.2290   26.3050 F   0  0  0  0  0  0  0  0  0  0  0  0
  -22.9430  -13.4650   21.2180 C   0  0  0  0  0  0  0  0  0  0  0  0
  -22.2930  -12.7540   22.1330 N   0  0  0  0  0  0  0  0  0  0  0  0
  -22.4450  -14.4780   20.7280 O   0  0  0  0  0  0  0  0  0  0  0  0
  -22.7110  -11.9370   22.5530 H   0  0  0  0  0  0  0  0  0  0  0  0
  -21.3640  -13.0320   22.4190 H   0  0  0  0  0  0  0  0  0  0  0  0
  -25.4840  -15.1930   20.2540 N   0  0  0  0  0  0  0  0  0  0  0  0
  -24.7140  -15.8330   20.4180 H   0  0  0  0  0  0  0  0  0  0  0  0
  -26.3130  -15.6540   19.9000 H   0  0  0  0  0  0  0  0  0  0  0  0
  -31.5570  -24.3790   21.4950 C   0  0  0  0  0  2  0  0  0  0  0  0
  -31.0740  -24.8560   20.1020 C   0  0  0  0  0  2  0  0  0  0  0  0
  -31.1420  -26.3830   19.8450 C   0  0  0  0  0  3  0  0  0  0  0  0
  -33.4630  -26.3680   18.7120 C   0  0  0  0  0  1  0  0  0  0  0  0
  -32.5890  -26.9210   19.8460 C   0  0  0  0  0  2  0  0  0  0  0  0
  -30.2660  -27.2300   20.8030 C   0  0  0  0  0  2  0  0  0  0  0  0
  -28.8240  -26.7440   21.0450 C   0  0  0  0  0  2  0  0  0  0  0  0
  -28.0230  -26.8130   19.8640 O   0  0  0  0  0  0  0  0  0  0  0  0
  -24.4270  -31.9610   23.2340 C   0  0  0  0  0  0  0  0  0  0  0  0
  -26.8820  -27.5750   19.9600 C   0  0  0  0  0  0  0  0  0  0  0  0
  -23.1280  -30.6100   21.6160 C   0  0  0  0  0  3  0  0  0  0  0  0
  -24.4970  -29.0810   20.1020 C   0  0  0  0  0  0  0  0  0  0  0  0
  -25.6420  -30.9490   21.3120 C   0  0  0  0  0  2  0  0  0  0  0  0
  -25.6810  -29.5920   20.6450 C   0  0  0  0  0  0  0  0  0  0  0  0
  -26.8760  -28.8490   20.5710 C   0  0  0  0  0  3  0  0  0  0  0  0
  -25.6850  -27.0710   19.4110 C   0  0  0  0  0  3  0  0  0  0  0  0
  -24.4920  -27.8170   19.4820 C   0  0  0  0  0  3  0  0  0  0  0  0
  -23.2640  -29.9500   20.2170 C   0  0  0  0  0  2  0  0  0  0  0  0
  -24.4200  -31.1850   22.1130 N   0  0  0  0  0  0  0  0  0  0  0  0
  -23.3760  -32.2390   23.8250 O   0  0  0  0  0  0  0  0  0  0  0  0
  -22.5010  -29.5830   22.5840 C   0  0  0  0  0  0  0  0  0  0  0  0
  -21.1770  -29.3870   22.4710 N   0  0  0  0  0  0  0  0  0  0  0  0
  -23.2020  -28.9640   23.3900 O   0  0  0  0  0  0  0  0  0  0  0  0
  -20.6750  -29.9390   21.7900 H   0  0  0  0  0  0  0  0  0  0  0  0
  -17.8280  -28.1340   22.9680 C   0  0  0  0  0  0  0  0  0  0  0  0
  -20.3790  -28.4430   23.2490 C   0  0  0  0  0  3  0  0  0  0  0  0
  -20.5120  -27.0090   22.6860 C   0  0  0  0  0  2  0  0  0  0  0  0
  -19.4220  -26.6540   21.6700 C   0  0  0  0  0  2  0  0  0  0  0  0
  -18.0350  -26.7810   22.3070 C   0  0  0  0  0  2  0  0  0  0  0  0
  -18.9310  -28.9210   23.3960 C   0  0  0  0  0  0  0  0  0  0  0  0
  -18.6870  -30.1870   23.9710 C   0  0  0  0  0  3  0  0  0  0  0  0
  -17.3730  -30.6670   24.1240 C   0  0  0  0  0  3  0  0  0  0  0  0
  -16.2850  -29.8780   23.7140 C   0  0  0  0  0  3  0  0  0  0  0  0
  -16.5140  -28.6130   23.1420 C   0  0  0  0  0  3  0  0  0  0  0  0
  -25.7500  -32.5560   23.8100 C   0  0  0  0  0  3  0  0  0  0  0  0
  -25.4890  -33.9600   24.1560 N   0  0  0  0  0  0  0  0  0  0  0  0
  -25.8460  -35.0080   23.4010 C   0  0  0  0  0  0  0  0  0  0  0  0
  -26.5010  -34.8930   22.3610 O   0  0  0  0  0  0  0  0  0  0  0  0
  -24.9080  -34.1270   24.9640 H   0  0  0  0  0  0  0  0  0  0  0  0
  -24.1810  -36.8600   23.0660 C   0  0  0  0  0  1  0  0  0  0  0  0
  -25.4050  -36.4050   23.8750 C   0  0  0  0  0  3  0  0  0  0  0  0
  -27.5640  -37.2060   24.7270 C   0  0  0  0  0  1  0  0  0  0  0  0
  -26.4730  -37.4230   23.7800 N   0  0  0  0  0  0  0  0  0  0  0  0
  -26.0990  -38.3550   23.9380 H   0  0  0  0  0  0  0  0  0  0  0  0
  -26.2960  -31.7640   25.0610 C   0  0  1  0  0  0  0  0  0  0  0  0
  -25.2370  -31.5430   26.1650 C   0  0  0  0  0  1  0  0  0  0  0  0
  -26.8330  -30.3780   24.6320 C   0  0  0  0  0  1  0  0  0  0  0  0
  -27.4850  -32.5310   25.6890 C   0  0  0  0  0  1  0  0  0  0  0  0
  2  5  1  0
  2  9  1  0
  3  6  1  0
  4 10  1  0
  4  7  1  0
 11  5  1  6
  9  1  1  0
  9  3  1  0
 10 20  1  0
 10  8  1  0
 11  7  1  0
 11  8  1  0
 11  6  1  0
 12 20  1  0
 13 18  1  0
 14 15  1  0
 14 13  1  0
 16 15  1  0
 16 25  1  0
 16 17  1  0
 18 12  1  0
 18 17  1  0
 19 12  2  0
 20 21  1  0
 22 23  2  0
 23 42  1  0
 24 23  1  0
 24 27  1  0
 25 26  1  0
 25 22  1  0
 26 24  2  0
 27 28  1  0
 28 29  2  0
 30 33  1  0
 30 29  1  0
 31 30  2  0
 32 31  1  0
 32 27  2  0
 33 34  1  0
 34 39  2  0
 34 35  1  0
 35 36  2  0
 36 37  1  0
 37 41  1  0
 38 37  2  0
 39 38  1  0
 40 39  1  0
 42 43  1  0
 43 46  1  0
 43 45  1  0
 44 42  2  0
 47 48  1  0
 47 22  1  0
 49 47  1  0
 50  1  1  0
 51 50  1  0
 52 54  1  0
 52 51  1  0
 52 55  1  0
 53 54  1  0
 55 56  1  0
 57 59  1  0
 57 56  1  0
 58 69  2  0
 59 64  1  0
 60 68  1  0
 60 70  1  0
 61 67  1  0
 61 63  1  0
 62 68  1  0
 63 62  1  0
 64 63  2  0
 65 66  1  0
 65 59  2  0
 66 61  2  0
 67 60  1  0
 68 58  1  0
 70 72  2  0
 71 70  1  0
 73 71  1  0
 74 83  2  0
 74 79  1  0
 75 71  1  0
 75 79  1  0
 76 75  1  0
 77 78  1  0
 77 76  1  0
 78 74  1  0
 79 80  2  0
 80 81  1  0
 82 81  2  0
 83 82  1  0
 84 58  1  0
 84 85  1  0
 84 94  1  0
 85 88  1  0
 86 90  1  0
 86 85  1  0
 87 86  2  0
 90 89  1  0
 92 90  1  0
 92 93  1  0
 92 91  1  0
 94 97  1  1
 94 95  1  0
 96 94  1  0
M  ISO  4  12 100  20 100  56 101  57 101
M  END
>  <TORSDO>  (86) 
F 23

>  <SCORE>  (86) 
-10.627

>  <name>  (86) 
85

>  <ligand_id>  (86) 
85

>  <original_smiles>  (86) 
[H]c1c([H])c([H])c2c(c1[H])C([H])([H])C([H])([H])C([H])([H])C2([H])N([H])C(=O)C1([H])N(C(=O)C([H])(N([H])C(=O)C([H])(N([H])C([H])([H])[H])C([H])([H])[H])C(C([H])([H])[H])(C([H])([H])[H])C([H])([H])[H])C([H])([H])c2c([H])c(OC([H])([H])C([H])([H])C([H])(C([H])([H])C([H])([H])[H])C([H])([H])C([H])([H])C([H])([H])C3([H])C([H])([H])C([H])([H])C4(C([H])([H])C([H])([H])C([H])(N([H])C(=O)N5C([H])([H])C([H])([H])C([H])([H])C([H])(n6nc(-c7c([H])c([H])c(Oc8c([H])c([H])c(F)c([H])c8F)c([H])c7[H])c(C(=O)N([H])[H])c6N([H])[H])C5([H])[H])C4([H])[H])C([H])([H])C3([H])[H])c([H])c([H])c2C1([H])[H]

>  <smiles>  (86) 
[H]c1c([H])c([H])c2c(c1[H])C([H])([H])C([H])([H])C([H])([H])C2([H])N([H])C(=O)C1([H])N(C(=O)C([H])(N([H])C(=O)C([H])(N([H])C([H])([H])[H])C([H])([H])[H])C(C([H])([H])[H])(C([H])([H])[H])C([H])([H])[H])C([H])([H])c2c([H])c(OC([H])([H])C([H])([H])C([H])(C([H])([H])C([H])([H])[H])C([H])([H])C([H])([H])C([H])([H])C3([H])C([H])([H])C([H])([H])C4(C([H])([H])C([H])([H])C([H])(N([H])C(=O)N5C([H])([H])C([H])([H])C([H])([H])C([H])(n6nc(-c7c([H])c([H])c(Oc8c([H])c([H])c(F)c([H])c8F)c([H])c7[H])c(C(=O)N([H])[H])c6N([H])[H])C5([H])[H])C4([H])[H])C([H])([H])C3([H])[H])c([H])c([H])c2C1([H])[H]

$$$$
86:0:0
     RDKit          3D

 97107  0  0  1  0  0  0  0  0999 V2000
  -31.1110  -20.6900   18.6680 C   0  0  0  0  0  2  0  0  0  0  0  0
  -30.0290  -22.8290   18.4900 C   0  0  0  0  0  3  0  0  0  0  0  0
  -31.1070  -21.9650   17.7790 C   0  0  0  0  0  3  0  0  0  0  0  0
  -29.6670  -20.5590   19.2410 C   0  0  0  0  0  3  0  0  0  0  0  0
  -29.2350  -21.9630   19.3900 N   0  0  0  0  0  4  0  0  0  0  0  0
  -28.2540  -22.0660   19.1870 H   0  0  0  0  0  0  0  0  0  0  0  0
  -29.4040  -22.2830   20.3300 H   0  0  0  0  0  0  0  0  0  0  0  0
  -27.5630  -25.0640   15.6790 C   0  0  0  0  0  3  0  0  0  0  0  0
  -28.2870  -25.7390   16.6800 C   0  0  0  0  0  3  0  0  0  0  0  0
  -27.6160  -23.6590   15.6010 C   0  0  0  0  0  3  0  0  0  0  0  0
  -29.0720  -25.0110   17.5960 C   0  0  0  0  0  3  0  0  0  0  0  0
  -28.3980  -22.9300   16.5190 C   0  0  0  0  0  3  0  0  0  0  0  0
  -29.1400  -23.6030   17.5190 C   0  0  0  0  0  0  0  0  0  0  0  0
  -32.4660  -22.7370   17.6210 C   0  0  0  0  0  2  0  0  0  0  0  0
  -33.7170  -22.3190   18.4670 C   0  0  0  0  0  2  0  0  0  0  0  0
  -34.0710  -23.2170   19.6950 C   0  0  0  0  0  2  0  0  0  0  0  0
  -34.4970  -24.5540   19.3210 O   0  0  0  0  0  0  0  0  0  0  0  0
  -34.7940  -27.5280   12.8170 C   0  0  0  0  0  3  0  0  0  0  0  0
  -35.1700  -24.6750   18.1160 C   0  0  0  0  0  0  0  0  0  0  0  0
  -36.3410  -25.6420   13.2230 C   0  0  0  0  0  3  0  0  0  0  0  0
  -36.5670  -24.8980   15.6550 C   0  0  0  0  0  0  0  0  0  0  0  0
  -35.5670  -27.1330   15.1570 C   0  0  0  0  0  2  0  0  0  0  0  0
  -35.7180  -25.9320   16.0720 C   0  0  0  0  0  0  0  0  0  0  0  0
  -35.0310  -25.8320   17.3080 C   0  0  0  0  0  3  0  0  0  0  0  0
  -36.0450  -23.6550   17.6830 C   0  0  0  0  0  3  0  0  0  0  0  0
  -36.7360  -23.7580   16.4600 C   0  0  0  0  0  3  0  0  0  0  0  0
  -37.2710  -25.0710   14.3260 C   0  0  0  0  0  2  0  0  0  0  0  0
  -35.5130  -26.7930   13.7120 N   0  0  0  0  0  0  0  0  0  0  0  0
  -34.8420  -27.2860   11.6020 O   0  0  0  0  0  0  0  0  0  0  0  0
  -35.4970  -24.4850   12.6400 C   0  0  0  0  0  0  0  0  0  0  0  0
  -36.1450  -23.6010   11.8640 N   0  0  0  0  0  0  0  0  0  0  0  0
  -34.2970  -24.3820   12.9090 O   0  0  0  0  0  0  0  0  0  0  0  0
  -37.1260  -23.7610   11.6840 H   0  0  0  0  0  0  0  0  0  0  0  0
  -36.8980  -20.7150    9.8240 C   0  0  0  0  0  0  0  0  0  0  0  0
  -35.5620  -22.4110   11.2440 C   0  0  0  0  0  3  0  0  0  0  0  0
  -35.4010  -21.2680   12.2730 C   0  0  0  0  0  2  0  0  0  0  0  0
  -36.5980  -20.3130   12.3050 C   0  0  0  0  0  2  0  0  0  0  0  0
  -36.8120  -19.6750   10.9290 C   0  0  0  0  0  2  0  0  0  0  0  0
  -36.3260  -22.0040    9.9790 C   0  0  0  0  0  0  0  0  0  0  0  0
  -36.4670  -22.9470    8.9360 C   0  0  0  0  0  3  0  0  0  0  0  0
  -37.1580  -22.6150    7.7560 C   0  0  0  0  0  3  0  0  0  0  0  0
  -37.7090  -21.3320    7.6010 C   0  0  0  0  0  3  0  0  0  0  0  0
  -37.5760  -20.3840    8.6320 C   0  0  0  0  0  3  0  0  0  0  0  0
  -33.8960  -28.7210   13.2710 C   0  0  0  0  0  3  0  0  0  0  0  0
  -32.6660  -28.6790   12.4680 N   0  0  0  0  0  0  0  0  0  0  0  0
  -32.5490  -28.0480   11.2910 C   0  0  0  0  0  3  0  0  0  0  0  0
  -33.4970  -27.4920   10.7330 O   0  0  0  0  0  0  0  0  0  0  0  0
  -31.8360  -29.0680   12.8900 H   0  0  0  0  0  0  0  0  0  0  0  0
  -30.0690  -28.1000   11.7160 C   0  0  0  0  0  1  0  0  0  0  0  0
  -31.1560  -28.0310   10.6310 C   0  0  0  0  0  3  0  0  0  0  0  0
  -29.9870  -27.1000    8.6820 C   0  0  0  0  0  1  0  0  0  0  0  0
  -30.9270  -26.8490    9.7710 N   0  0  0  0  0  0  0  0  0  0  0  0
  -30.5780  -26.0680   10.3190 H   0  0  0  0  0  0  0  0  0  0  0  0
  -33.5560  -28.6910   14.8130 C   0  0  1  0  0  0  0  0  0  0  0  0
  -33.0380  -27.3210   15.3100 C   0  0  0  0  0  1  0  0  0  0  0  0
  -34.8020  -29.0580   15.6540 C   0  0  0  0  0  1  0  0  0  0  0  0
  -32.4820  -29.7570   15.1310 C   0  0  0  0  0  1  0  0  0  0  0  0
  -29.5250  -19.6640   20.5410 C   0  0  0  0  0  2  0  0  0  0  0  0
  -30.6030  -19.7270   21.6880 C   0  0  0  0  0  2  0  0  0  0  0  0
  -31.1790  -20.9790   23.8420 C   0  0  0  0  0  0  0  0  0  0  0  0
  -31.3410  -22.4750   25.8120 C   0  0  0  0  0  2  0  0  0  0  0  0
  -29.9240  -22.8570   26.2900 C   0  0  0  0  0  2  0  0  0  0  0  0
  -29.3950  -24.0820   25.5160 C   0  0  0  0  0  2  0  0  0  0  0  0
  -29.5760  -23.9440   23.9810 C   0  0  0  0  0  3  0  0  0  0  0  0
  -31.0100  -23.4890   23.6330 C   0  0  0  0  0  2  0  0  0  0  0  0
  -31.2690  -22.2360   24.3610 N   0  0  0  0  0  0  0  0  0  0  0  0
  -31.5000  -19.9730   24.4800 O   0  0  0  0  0  0  0  0  0  0  0  0
  -30.6010  -20.8830   22.6200 N   0  0  0  0  0  0  0  0  0  0  0  0
  -30.3090  -21.7660   22.2270 H   0  0  0  0  0  0  0  0  0  0  0  0
  -29.5060  -25.5670   21.9870 C   0  0  0  0  0  0  0  0  0  0  0  0
  -28.8690  -26.7650   21.8030 C   0  0  0  0  0  0  0  0  0  0  0  0
  -28.1940  -27.0450   23.0300 C   0  0  0  0  0  0  0  0  0  0  0  0
  -29.2110  -25.1750   23.2830 N   0  0  0  0  0  0  0  0  0  0  0  0
  -28.4590  -26.1040   23.9280 N   0  0  0  0  0  0  0  0  0  0  0  0
  -27.2650  -28.1260   23.3850 C   0  0  0  0  0  0  0  0  0  0  0  0
  -25.8780  -28.0150   23.1470 C   0  0  0  0  0  3  0  0  0  0  0  0
  -25.0020  -29.0600   23.5110 C   0  0  0  0  0  3  0  0  0  0  0  0
  -25.5110  -30.2300   24.1240 C   0  0  0  0  0  0  0  0  0  0  0  0
  -26.8960  -30.3460   24.3380 C   0  0  0  0  0  3  0  0  0  0  0  0
  -27.7660  -29.3060   23.9690 C   0  0  0  0  0  3  0  0  0  0  0  0
  -24.7400  -31.3070   24.4900 O   0  0  0  0  0  0  0  0  0  0  0  0
  -24.9460  -32.5540   23.9580 C   0  0  0  0  0  0  0  0  0  0  0  0
  -26.1820  -33.2230   24.0850 C   0  0  0  0  0  3  0  0  0  0  0  0
  -26.3750  -34.4730   23.4630 C   0  0  0  0  0  3  0  0  0  0  0  0
  -25.3380  -35.0500   22.7060 C   0  0  0  0  0  0  0  0  0  0  0  0
  -24.1070  -34.3830   22.5730 C   0  0  0  0  0  3  0  0  0  0  0  0
  -23.9140  -33.1370   23.1950 C   0  0  0  0  0  0  0  0  0  0  0  0
  -22.7340  -32.4880   23.0470 F   0  0  0  0  0  0  0  0  0  0  0  0
  -25.5250  -36.2470   22.1020 F   0  0  0  0  0  0  0  0  0  0  0  0
  -28.8070  -27.5590   20.5300 C   0  0  0  0  0  0  0  0  0  0  0  0
  -28.4880  -28.8460   20.6260 N   0  0  0  0  0  0  0  0  0  0  0  0
  -29.0910  -27.0530   19.4460 O   0  0  0  0  0  0  0  0  0  0  0  0
  -28.2740  -29.2660   21.5180 H   0  0  0  0  0  0  0  0  0  0  0  0
  -28.4570  -29.4180   19.7950 H   0  0  0  0  0  0  0  0  0  0  0  0
  -30.2900  -24.7720   21.1580 N   0  0  0  0  0  0  0  0  0  0  0  0
  -30.4520  -25.0060   20.1850 H   0  0  0  0  0  0  0  0  0  0  0  0
  -30.6340  -23.8530   21.4060 H   0  0  0  0  0  0  0  0  0  0  0  0
  1  4  1  0
  2 13  1  0
  2  5  1  0
  3 14  1  0
  3  2  1  0
  3  1  1  0
  4  5  1  0
  4 58  1  0
  5  7  1  0
  6  5  1  0
  8  9  1  0
  9 11  2  0
 10  8  2  0
 10 12  1  0
 12 13  2  0
 13 11  1  0
 14 15  1  0
 15 16  1  0
 17 16  1  0
 18 29  1  0
 18 44  1  0
 18 28  1  0
 19 17  1  0
 20 30  1  0
 20 28  1  0
 20 27  1  0
 21 23  2  0
 21 26  1  0
 22 23  1  0
 23 24  1  0
 24 19  2  0
 25 19  1  0
 26 25  2  0
 27 21  1  0
 28 22  1  0
 30 32  2  0
 31 30  1  0
 33 31  1  0
 34 39  1  0
 34 38  1  0
 35 31  1  0
 35 36  1  0
 36 37  1  0
 38 37  1  0
 39 35  1  0
 40 39  2  0
 41 40  1  0
 42 41  2  0
 42 43  1  0
 43 34  2  0
 44 54  1  0
 45 48  1  0
 45 44  1  0
 46 50  1  0
 46 45  1  0
 47 46  1  0
 47 29  1  0
 50 49  1  0
 51 52  1  0
 52 53  1  0
 52 50  1  0
 54 57  1  6
 54 55  1  0
 54 56  1  0
 58 59  1  0
 59 68  1  0
 60 66  1  0
 60 67  2  0
 61 62  1  0
 63 62  1  0
 64 73  1  0
 64 63  1  0
 65 64  1  0
 65 66  1  0
 66 61  1  0
 68 60  1  0
 69 68  1  0
 70 73  1  0
 71 70  2  0
 71 72  1  0
 72 75  1  0
 72 74  2  0
 73 74  1  0
 75 80  1  0
 76 75  2  0
 76 77  1  0
 77 78  2  0
 78 79  1  0
 78 81  1  0
 80 79  2  0
 82 83  1  0
 82 81  1  0
 84 83  2  0
 85 84  1  0
 86 85  2  0
 86 87  1  0
 87 82  2  0
 88 87  1  0
 89 85  1  0
 90 91  1  0
 90 71  1  0
 91 93  1  0
 92 90  2  0
 94 91  1  0
 95 97  1  0
 95 70  1  0
 96 95  1  0
M  ISO  4  16 101  17 101  60 100  68 100
M  END
>  <TORSDO>  (87) 
F 22

>  <SCORE>  (87) 
9.427

>  <name>  (87) 
86

>  <ligand_id>  (87) 
86

>  <original_smiles>  (87) 
[H]c1c([H])c([H])c(C2([H])C([H])(C([H])([H])C([H])([H])C([H])([H])Oc3c([H])c([H])c4c(c3[H])C([H])([H])N(C(=O)C([H])(N([H])C(=O)C([H])(N([H])C([H])([H])[H])C([H])([H])[H])C(C([H])([H])[H])(C([H])([H])[H])C([H])([H])[H])C([H])(C(=O)N([H])C3([H])c5c([H])c([H])c([H])c([H])c5C([H])([H])C([H])([H])C3([H])[H])C4([H])[H])C([H])([H])C([H])(C([H])([H])C([H])([H])N([H])C(=O)N3C([H])([H])C([H])([H])C([H])([H])C([H])(n4nc(-c5c([H])c([H])c(Oc6c([H])c([H])c(F)c([H])c6F)c([H])c5[H])c(C(=O)N([H])[H])c4N([H])[H])C3([H])[H])[N+]2([H])[H])c([H])c1[H]

>  <smiles>  (87) 
[H]c1c([H])c([H])c(C2([H])C([H])(C([H])([H])C([H])([H])C([H])([H])Oc3c([H])c([H])c4c(c3[H])C([H])([H])N(C(=O)C([H])(N([H])C(=O)C([H])(N([H])C([H])([H])[H])C([H])([H])[H])C(C([H])([H])[H])(C([H])([H])[H])C([H])([H])[H])C([H])(C(=O)N([H])C3([H])c5c([H])c([H])c([H])c([H])c5C([H])([H])C([H])([H])C3([H])[H])C4([H])[H])C([H])([H])C([H])(C([H])([H])C([H])([H])N([H])C(=O)N3C([H])([H])C([H])([H])C([H])([H])C([H])(n4nc(-c5c([H])c([H])c(Oc6c([H])c([H])c(F)c([H])c6F)c([H])c5[H])c(C(=O)N([H])[H])c4N([H])[H])C3([H])[H])[N+]2([H])[H])c([H])c1[H]

$$$$
87:0:0
     RDKit          3D

104113  0  0  1  0  0  0  0  0999 V2000
  -29.8500  -21.0370   18.1740 C   0  0  0  0  0  3  0  0  0  0  0  0
  -29.4230  -22.3720   18.1560 C   0  0  0  0  0  3  0  0  0  0  0  0
  -28.5820  -20.6380   20.1830 C   0  0  0  0  0  3  0  0  0  0  0  0
  -29.6610  -20.2760   19.3610 C   0  0  0  0  0  0  0  0  0  0  0  0
  -28.7030  -22.8850   19.2450 C   0  0  0  0  0  0  0  0  0  0  0  0
  -28.1140  -21.9700   20.1600 C   0  0  0  0  0  0  0  0  0  0  0  0
  -27.0610  -22.3710   21.1810 C   0  0  0  0  0  1  0  0  0  0  0  0
  -32.6980  -17.8990   19.0500 C   0  0  0  0  0  2  0  0  0  0  0  0
  -33.2350  -19.8310   20.5700 C   0  0  0  0  0  2  0  0  0  0  0  0
  -30.8010  -19.3660   19.8910 C   0  0  0  0  0  3  0  0  0  0  0  0
  -31.1240  -18.0250   19.1820 C   0  0  0  0  0  3  0  0  0  0  0  0
  -33.5830  -19.1570   19.1810 C   0  0  2  0  0  0  0  0  0  0  0  0
  -31.7370  -19.7330   21.1230 C   0  0  2  0  0  0  0  0  0  0  0  0
  -31.0450  -15.6080   19.8420 C   0  0  0  0  0  0  0  0  0  0  0  0
  -30.8450  -13.1850   19.6450 C   0  0  0  0  0  2  0  0  0  0  0  0
  -30.0790  -12.8770   18.3530 C   0  0  0  0  0  2  0  0  0  0  0  0
  -28.5800  -12.7680   18.6700 C   0  0  0  0  0  2  0  0  0  0  0  0
  -28.0430  -13.9460   19.5320 C   0  0  0  0  0  3  0  0  0  0  0  0
  -28.9900  -14.3400   20.6920 C   0  0  0  0  0  2  0  0  0  0  0  0
  -30.3430  -14.4800   20.1470 N   0  0  0  0  0  0  0  0  0  0  0  0
  -32.1960  -15.4980   19.4450 O   0  0  0  0  0  0  0  0  0  0  0  0
  -30.4600  -16.8210   19.7940 N   0  0  0  0  0  0  0  0  0  0  0  0
  -29.4910  -16.9000   20.0680 H   0  0  0  0  0  0  0  0  0  0  0  0
  -25.6510  -14.5480   20.2590 C   0  0  0  0  0  0  0  0  0  0  0  0
  -24.5740  -13.7770   20.6160 C   0  0  0  0  0  0  0  0  0  0  0  0
  -25.0210  -12.4240   20.5590 C   0  0  0  0  0  0  0  0  0  0  0  0
  -26.6900  -13.6630   20.0130 N   0  0  0  0  0  0  0  0  0  0  0  0
  -26.3130  -12.3790   20.2500 N   0  0  0  0  0  0  0  0  0  0  0  0
  -24.2770  -11.1650   20.7200 C   0  0  0  0  0  0  0  0  0  0  0  0
  -24.6490  -10.2000   21.6820 C   0  0  0  0  0  3  0  0  0  0  0  0
  -23.9010   -9.0130   21.8310 C   0  0  0  0  0  3  0  0  0  0  0  0
  -22.7680   -8.7810   21.0180 C   0  0  0  0  0  0  0  0  0  0  0  0
  -22.4130   -9.7340   20.0480 C   0  0  0  0  0  3  0  0  0  0  0  0
  -23.1630  -10.9120   19.8950 C   0  0  0  0  0  3  0  0  0  0  0  0
  -21.9970   -7.6430   21.0780 O   0  0  0  0  0  0  0  0  0  0  0  0
  -21.8000   -6.9630   22.2530 C   0  0  0  0  0  0  0  0  0  0  0  0
  -21.2160   -7.5780   23.3820 C   0  0  0  0  0  3  0  0  0  0  0  0
  -20.9690   -6.8250   24.5480 C   0  0  0  0  0  3  0  0  0  0  0  0
  -21.3000   -5.4570   24.5850 C   0  0  0  0  0  0  0  0  0  0  0  0
  -21.8810   -4.8420   23.4620 C   0  0  0  0  0  3  0  0  0  0  0  0
  -22.1260   -5.5930   22.2990 C   0  0  0  0  0  0  0  0  0  0  0  0
  -22.6630   -4.9870   21.2110 F   0  0  0  0  0  0  0  0  0  0  0  0
  -21.0580   -4.7320   25.7020 F   0  0  0  0  0  0  0  0  0  0  0  0
  -23.1820  -14.2690   20.8880 C   0  0  0  0  0  0  0  0  0  0  0  0
  -22.4540  -13.5940   21.7760 N   0  0  0  0  0  0  0  0  0  0  0  0
  -22.7470  -15.2890   20.3570 O   0  0  0  0  0  0  0  0  0  0  0  0
  -22.8130  -12.7720   22.2350 H   0  0  0  0  0  0  0  0  0  0  0  0
  -21.5180  -13.9050   21.9980 H   0  0  0  0  0  0  0  0  0  0  0  0
  -25.8330  -15.9160   20.1080 N   0  0  0  0  0  0  0  0  0  0  0  0
  -25.0770  -16.5820   20.2260 H   0  0  0  0  0  0  0  0  0  0  0  0
  -26.6920  -16.3490   19.7940 H   0  0  0  0  0  0  0  0  0  0  0  0
  -30.5430  -21.1000   23.1090 C   0  0  0  0  0  1  0  0  0  0  0  0
  -31.3840  -21.1120   21.8030 C   0  0  0  0  0  2  0  0  0  0  0  0
  -32.1070  -19.0080   23.6250 C   0  0  0  0  0  1  0  0  0  0  0  0
  -31.6490  -18.6110   22.2050 C   0  0  0  0  0  2  0  0  0  0  0  0
  -33.2730  -21.5660   18.0590 C   0  0  0  0  0  1  0  0  0  0  0  0
  -33.3870  -20.0390   17.8890 C   0  0  0  0  0  2  0  0  0  0  0  0
  -36.1300  -19.7600   19.2690 C   0  0  0  0  0  1  0  0  0  0  0  0
  -35.0570  -18.6610   19.1730 C   0  0  0  0  0  2  0  0  0  0  0  0
  -28.7530  -24.4010   19.4450 C   0  0  0  0  0  2  0  0  0  0  0  0
  -26.2970  -24.4770   18.9810 C   0  0  0  0  0  1  0  0  0  0  0  0
  -27.6330  -25.2170   18.7810 C   0  0  0  0  0  3  0  0  0  0  0  0
  -27.6560  -26.6690   19.3200 C   0  0  0  0  0  2  0  0  0  0  0  0
  -27.1240  -27.6190   18.4000 O   0  0  0  0  0  0  0  0  0  0  0  0
  -24.3810  -31.7430   23.5410 C   0  0  0  0  0  0  0  0  0  0  0  0
  -26.0600  -28.3380   18.8780 C   0  0  0  0  0  0  0  0  0  0  0  0
  -22.7910  -30.8820   21.8500 C   0  0  0  0  0  3  0  0  0  0  0  0
  -23.8310  -29.8010   19.7910 C   0  0  0  0  0  0  0  0  0  0  0  0
  -25.2550  -31.2340   21.2630 C   0  0  0  0  0  2  0  0  0  0  0  0
  -25.1120  -30.0950   20.2790 C   0  0  0  0  0  0  0  0  0  0  0  0
  -26.2310  -29.3580   19.8370 C   0  0  0  0  0  3  0  0  0  0  0  0
  -24.7760  -28.0970   18.3540 C   0  0  0  0  0  3  0  0  0  0  0  0
  -23.6550  -28.7950   18.8260 C   0  0  0  0  0  3  0  0  0  0  0  0
  -22.6860  -30.6270   20.3210 C   0  0  0  0  0  2  0  0  0  0  0  0
  -24.1740  -31.2860   22.2750 N   0  0  0  0  0  0  0  0  0  0  0  0
  -23.4360  -31.8750   24.3310 O   0  0  0  0  0  0  0  0  0  0  0  0
  -22.2650  -29.6380   22.6000 C   0  0  0  0  0  0  0  0  0  0  0  0
  -20.9410  -29.4250   22.5410 N   0  0  0  0  0  0  0  0  0  0  0  0
  -23.0370  -28.8860   23.2000 O   0  0  0  0  0  0  0  0  0  0  0  0
  -20.3830  -30.0980   22.0350 H   0  0  0  0  0  0  0  0  0  0  0  0
  -17.6950  -27.8480   22.7960 C   0  0  0  0  0  0  0  0  0  0  0  0
  -20.2170  -28.3020   23.1390 C   0  0  0  0  0  3  0  0  0  0  0  0
  -20.4560  -27.0030   22.3350 C   0  0  0  0  0  2  0  0  0  0  0  0
  -19.3830  -26.7440   21.2710 C   0  0  0  0  0  2  0  0  0  0  0  0
  -17.9980  -26.6480   21.9150 C   0  0  0  0  0  2  0  0  0  0  0  0
  -18.7380  -28.6330   23.3560 C   0  0  0  0  0  0  0  0  0  0  0  0
  -18.4010  -29.7580   24.1390 C   0  0  0  0  0  3  0  0  0  0  0  0
  -17.0560  -30.0970   24.3740 C   0  0  0  0  0  3  0  0  0  0  0  0
  -16.0280  -29.3080   23.8260 C   0  0  0  0  0  3  0  0  0  0  0  0
  -16.3480  -28.1850   23.0420 C   0  0  0  0  0  3  0  0  0  0  0  0
  -25.8000  -32.1480   24.0490 C   0  0  0  0  0  3  0  0  0  0  0  0
  -25.7510  -33.5700   24.4200 N   0  0  0  0  0  0  0  0  0  0  0  0
  -26.2470  -34.5700   23.6780 C   0  0  0  0  0  0  0  0  0  0  0  0
  -26.8680  -34.3770   22.6290 O   0  0  0  0  0  0  0  0  0  0  0  0
  -25.2120  -33.8070   25.2420 H   0  0  0  0  0  0  0  0  0  0  0  0
  -24.8730  -36.6540   23.3770 C   0  0  0  0  0  1  0  0  0  0  0  0
  -26.0160  -36.0090   24.1780 C   0  0  0  0  0  3  0  0  0  0  0  0
  -28.2770  -36.4500   25.0280 C   0  0  0  0  0  1  0  0  0  0  0  0
  -27.2240  -36.8610   24.0990 N   0  0  0  0  0  0  0  0  0  0  0  0
  -26.9940  -37.8360   24.2790 H   0  0  0  0  0  0  0  0  0  0  0  0
  -26.3070  -31.2700   25.2580 C   0  0  1  0  0  0  0  0  0  0  0  0
  -25.2970  -31.1730   26.4250 C   0  0  0  0  0  1  0  0  0  0  0  0
  -26.6260  -29.8340   24.7900 C   0  0  0  0  0  1  0  0  0  0  0  0
  -27.6300  -31.8520   25.8070 C   0  0  0  0  0  1  0  0  0  0  0  0
  1  4  1  0
  2  1  2  0
  2  5  1  0
  4  3  2  0
  5 60  1  0
  5  6  2  0
  6  3  1  0
  6  7  1  0
  8 12  1  0
  8 11  1  0
  9 13  1  0
 10  4  1  0
 10 13  1  0
 11 22  1  0
 11 10  1  0
 12  9  1  0
 13 53  1  1
 13 55  1  0
 14 20  1  0
 15 20  1  0
 16 17  1  0
 16 15  1  0
 18 17  1  0
 18 27  1  0
 18 19  1  0
 20 19  1  0
 21 14  2  0
 22 14  1  0
 22 23  1  0
 24 25  2  0
 25 44  1  0
 26 25  1  0
 26 29  1  0
 27 28  1  0
 27 24  1  0
 28 26  2  0
 29 30  1  0
 30 31  2  0
 32 35  1  0
 32 31  1  0
 33 32  2  0
 34 33  1  0
 34 29  2  0
 35 36  1  0
 36 41  2  0
 36 37  1  0
 37 38  2  0
 38 39  1  0
 39 43  1  0
 40 39  2  0
 41 40  1  0
 42 41  1  0
 44 45  1  0
 45 48  1  0
 45 47  1  0
 46 44  2  0
 49 50  1  0
 49 24  1  0
 51 49  1  0
 53 52  1  0
 55 54  1  0
 57 56  1  0
 12 57  1  6
 59 12  1  0
 59 58  1  0
 62 61  1  0
 62 63  1  0
 62 60  1  0
 64 66  1  0
 64 63  1  0
 65 76  2  0
 66 71  1  0
 67 75  1  0
 67 77  1  0
 68 70  1  0
 68 74  1  0
 69 75  1  0
 70 69  1  0
 71 70  2  0
 72 73  1  0
 72 66  2  0
 73 68  2  0
 74 67  1  0
 75 65  1  0
 77 79  2  0
 78 77  1  0
 80 78  1  0
 81 90  2  0
 81 86  1  0
 82 78  1  0
 82 86  1  0
 83 82  1  0
 84 85  1  0
 84 83  1  0
 85 81  1  0
 86 87  2  0
 87 88  1  0
 89 88  2  0
 90 89  1  0
 91 65  1  0
 91 92  1  0
 91101  1  0
 92 95  1  0
 93 97  1  0
 93 92  1  0
 94 93  2  0
 97 96  1  0
 99 97  1  0
 99100  1  0
 99 98  1  0
101104  1  1
101102  1  0
103101  1  0
M  ISO  4  14 100  22 100  63 101  64 101
M  END
>  <TORSDO>  (88) 
F 24

>  <SCORE>  (88) 
-9.323

>  <name>  (88) 
87

>  <ligand_id>  (88) 
87

>  <original_smiles>  (88) 
[H]c1c([H])c([H])c2c(c1[H])C([H])([H])C([H])([H])C([H])([H])C2([H])N([H])C(=O)C1([H])N(C(=O)C([H])(N([H])C(=O)C([H])(N([H])C([H])([H])[H])C([H])([H])[H])C(C([H])([H])[H])(C([H])([H])[H])C([H])([H])[H])C([H])([H])c2c([H])c(OC([H])([H])C([H])(C([H])([H])[H])C([H])([H])c3c([H])c([H])c(C4([H])C([H])(N([H])C(=O)N5C([H])([H])C([H])([H])C([H])([H])C([H])(n6nc(-c7c([H])c([H])c(Oc8c([H])c([H])c(F)c([H])c8F)c([H])c7[H])c(C(=O)N([H])[H])c6N([H])[H])C5([H])[H])C([H])([H])C(C([H])([H])C([H])([H])[H])(C([H])([H])C([H])([H])[H])C([H])([H])C4(C([H])([H])C([H])([H])[H])C([H])([H])C([H])([H])[H])c([H])c3C([H])([H])[H])c([H])c([H])c2C1([H])[H]

>  <smiles>  (88) 
[H]c1c([H])c([H])c2c(c1[H])C([H])([H])C([H])([H])C([H])([H])C2([H])N([H])C(=O)C1([H])N(C(=O)C([H])(N([H])C(=O)C([H])(N([H])C([H])([H])[H])C([H])([H])[H])C(C([H])([H])[H])(C([H])([H])[H])C([H])([H])[H])C([H])([H])c2c([H])c(OC([H])([H])C([H])(C([H])([H])[H])C([H])([H])c3c([H])c([H])c(C4([H])C([H])(N([H])C(=O)N5C([H])([H])C([H])([H])C([H])([H])C([H])(n6nc(-c7c([H])c([H])c(Oc8c([H])c([H])c(F)c([H])c8F)c([H])c7[H])c(C(=O)N([H])[H])c6N([H])[H])C5([H])[H])C([H])([H])C(C([H])([H])C([H])([H])[H])(C([H])([H])C([H])([H])[H])C([H])([H])C4(C([H])([H])C([H])([H])[H])C([H])([H])C([H])([H])[H])c([H])c3C([H])([H])[H])c([H])c([H])c2C1([H])[H]

$$$$
88:0:0
     RDKit          3D

 92101  0  0  1  0  0  0  0  0999 V2000
  -31.5260  -21.2610   18.1120 C   0  0  0  0  0  2  0  0  0  0  0  0
  -30.9440  -19.9390   18.6100 C   0  0  0  0  0  2  0  0  0  0  0  0
  -30.4120  -22.1830   17.6000 C   0  0  0  0  0  2  0  0  0  0  0  0
  -28.8030  -21.1810   19.2100 C   0  0  0  0  0  2  0  0  0  0  0  0
  -29.7510  -23.5820   19.7150 C   0  0  0  0  0  2  0  0  0  0  0  0
  -28.2790  -23.5040   18.1900 C   0  0  0  0  0  2  0  0  0  0  0  0
  -29.8630  -20.1550   19.6890 C   0  0  0  0  0  3  0  0  0  0  0  0
  -28.5440  -24.4630   19.3500 C   0  0  0  0  0  3  0  0  0  0  0  0
  -29.3580  -22.5140   18.6690 C   0  0  1  0  0  0  0  0  0  0  0  0
  -29.1590  -18.8290   20.0530 C   0  0  0  0  0  2  0  0  0  0  0  0
  -30.0430  -17.7130   20.6490 C   0  0  0  0  0  2  0  0  0  0  0  0
  -29.2280  -16.4170   20.7460 C   0  0  0  0  0  2  0  0  0  0  0  0
  -30.6140  -14.4060   20.4810 C   0  0  0  0  0  0  0  0  0  0  0  0
  -30.3260  -12.3250   19.1920 C   0  0  0  0  0  2  0  0  0  0  0  0
  -29.3510  -12.6230   18.0320 C   0  0  0  0  0  2  0  0  0  0  0  0
  -27.8810  -12.4810   18.4810 C   0  0  0  0  0  2  0  0  0  0  0  0
  -27.5910  -13.2350   19.8050 C   0  0  0  0  0  3  0  0  0  0  0  0
  -28.6600  -12.8720   20.8640 C   0  0  0  0  0  2  0  0  0  0  0  0
  -29.9880  -13.2110   20.3160 N   0  0  0  0  0  0  0  0  0  0  0  0
  -31.6420  -14.7380   19.8780 O   0  0  0  0  0  0  0  0  0  0  0  0
  -29.9400  -15.2520   21.2750 N   0  0  0  0  0  0  0  0  0  0  0  0
  -29.3780  -14.7520   21.9470 H   0  0  0  0  0  0  0  0  0  0  0  0
  -25.1980  -13.8650   20.5260 C   0  0  0  0  0  0  0  0  0  0  0  0
  -24.1320  -13.0960   20.9120 C   0  0  0  0  0  0  0  0  0  0  0  0
  -24.5870  -11.7420   20.8680 C   0  0  0  0  0  0  0  0  0  0  0  0
  -26.2380  -12.9770   20.2870 N   0  0  0  0  0  0  0  0  0  0  0  0
  -25.8710  -11.6970   20.5420 N   0  0  0  0  0  0  0  0  0  0  0  0
  -23.8600  -10.4840   21.0630 C   0  0  0  0  0  0  0  0  0  0  0  0
  -24.3090   -9.5080   21.9790 C   0  0  0  0  0  3  0  0  0  0  0  0
  -23.5850   -8.3100   22.1600 C   0  0  0  0  0  3  0  0  0  0  0  0
  -22.3990   -8.0810   21.4230 C   0  0  0  0  0  0  0  0  0  0  0  0
  -21.9680   -9.0450   20.4950 C   0  0  0  0  0  3  0  0  0  0  0  0
  -22.6930  -10.2340   20.3120 C   0  0  0  0  0  3  0  0  0  0  0  0
  -21.6430   -6.9360   21.5160 O   0  0  0  0  0  0  0  0  0  0  0  0
  -21.6210   -6.1800   22.6590 C   0  0  0  0  0  0  0  0  0  0  0  0
  -21.2170   -6.7190   23.9010 C   0  0  0  0  0  3  0  0  0  0  0  0
  -21.1410   -5.8890   25.0380 C   0  0  0  0  0  3  0  0  0  0  0  0
  -21.4600   -4.5210   24.9340 C   0  0  0  0  0  0  0  0  0  0  0  0
  -21.8570   -3.9830   23.6970 C   0  0  0  0  0  3  0  0  0  0  0  0
  -21.9350   -4.8100   22.5640 C   0  0  0  0  0  0  0  0  0  0  0  0
  -22.2990   -4.2820   21.3700 F   0  0  0  0  0  0  0  0  0  0  0  0
  -21.3790   -3.7210   26.0230 F   0  0  0  0  0  0  0  0  0  0  0  0
  -22.7410  -13.5760   21.2110 C   0  0  0  0  0  0  0  0  0  0  0  0
  -22.0240  -12.8760   22.0830 N   0  0  0  0  0  0  0  0  0  0  0  0
  -22.3010  -14.6090   20.7070 O   0  0  0  0  0  0  0  0  0  0  0  0
  -22.3930  -12.0410   22.5130 H   0  0  0  0  0  0  0  0  0  0  0  0
  -21.0910  -13.1820   22.3230 H   0  0  0  0  0  0  0  0  0  0  0  0
  -25.3590  -15.2340   20.3450 N   0  0  0  0  0  0  0  0  0  0  0  0
  -24.5800  -15.8770   20.4420 H   0  0  0  0  0  0  0  0  0  0  0  0
  -26.1900  -15.6710   19.9700 H   0  0  0  0  0  0  0  0  0  0  0  0
  -28.7420  -25.9460   19.0140 C   0  0  0  0  0  2  0  0  0  0  0  0
  -28.4810  -26.8060   20.1270 O   0  0  0  0  0  0  0  0  0  0  0  0
  -24.6200  -31.9070   23.2570 C   0  0  0  0  0  0  0  0  0  0  0  0
  -27.2760  -27.4800   20.1590 C   0  0  0  0  0  0  0  0  0  0  0  0
  -23.4100  -30.5030   21.6180 C   0  0  0  0  0  3  0  0  0  0  0  0
  -24.8620  -28.9600   20.1970 C   0  0  0  0  0  0  0  0  0  0  0  0
  -25.9320  -30.8650   21.4120 C   0  0  0  0  0  2  0  0  0  0  0  0
  -26.0190  -29.4890   20.7840 C   0  0  0  0  0  0  0  0  0  0  0  0
  -27.2210  -28.7490   20.7770 C   0  0  0  0  0  3  0  0  0  0  0  0
  -26.0920  -26.9490   19.5970 C   0  0  0  0  0  3  0  0  0  0  0  0
  -24.8910  -27.6820   19.6140 C   0  0  0  0  0  3  0  0  0  0  0  0
  -23.6180  -29.8200   20.2370 C   0  0  0  0  0  2  0  0  0  0  0  0
  -24.6730  -31.1060   22.1550 N   0  0  0  0  0  0  0  0  0  0  0  0
  -23.5410  -32.1810   23.7990 O   0  0  0  0  0  0  0  0  0  0  0  0
  -22.7630  -29.4810   22.5790 C   0  0  0  0  0  0  0  0  0  0  0  0
  -21.4420  -29.2910   22.4490 N   0  0  0  0  0  0  0  0  0  0  0  0
  -23.4500  -28.8600   23.3940 O   0  0  0  0  0  0  0  0  0  0  0  0
  -20.9480  -29.8550   21.7700 H   0  0  0  0  0  0  0  0  0  0  0  0
  -18.0720  -28.0920   22.9570 C   0  0  0  0  0  0  0  0  0  0  0  0
  -20.6300  -28.3500   23.2210 C   0  0  0  0  0  3  0  0  0  0  0  0
  -20.7310  -26.9200   22.6450 C   0  0  0  0  0  2  0  0  0  0  0  0
  -19.6280  -26.5980   21.6320 C   0  0  0  0  0  2  0  0  0  0  0  0
  -18.2470  -26.7430   22.2790 C   0  0  0  0  0  2  0  0  0  0  0  0
  -19.1920  -28.8520   23.3840 C   0  0  0  0  0  0  0  0  0  0  0  0
  -18.9770  -30.1180   23.9750 C   0  0  0  0  0  3  0  0  0  0  0  0
  -17.6730  -30.6220   24.1410 C   0  0  0  0  0  3  0  0  0  0  0  0
  -16.5680  -29.8590   23.7290 C   0  0  0  0  0  3  0  0  0  0  0  0
  -16.7680  -28.5940   23.1460 C   0  0  0  0  0  3  0  0  0  0  0  0
  -25.9080  -32.5400   23.8730 C   0  0  0  0  0  3  0  0  0  0  0  0
  -26.4300  -31.7710   25.1480 C   0  0  1  0  0  0  0  0  0  0  0  0
  -25.3420  -31.5260   26.2200 C   0  0  0  0  0  1  0  0  0  0  0  0
  -27.0200  -30.3990   24.7510 C   0  0  0  0  0  1  0  0  0  0  0  0
  -27.5790  -32.5700   25.8070 C   0  0  0  0  0  1  0  0  0  0  0  0
  -25.6000  -33.9380   24.1970 N   0  0  0  0  0  0  0  0  0  0  0  0
  -25.9290  -34.9850   23.4290 C   0  0  0  0  0  0  0  0  0  0  0  0
  -26.5970  -34.8760   22.3960 O   0  0  0  0  0  0  0  0  0  0  0  0
  -25.0110  -34.0960   25.0010 H   0  0  0  0  0  0  0  0  0  0  0  0
  -24.1990  -36.7730   23.0640 C   0  0  0  0  0  1  0  0  0  0  0  0
  -25.4390  -36.3740   23.8800 C   0  0  0  0  0  3  0  0  0  0  0  0
  -27.5700  -37.2620   24.7090 C   0  0  0  0  0  1  0  0  0  0  0  0
  -26.4670  -37.4300   23.7660 N   0  0  0  0  0  0  0  0  0  0  0  0
  -26.0590  -38.3470   23.9190 H   0  0  0  0  0  0  0  0  0  0  0  0
  1  2  1  0
  2  7  1  0
  3  1  1  0
  4  7  1  0
  9  6  1  6
  6  8  1  0
  7 10  1  0
  8 51  1  0
  8  5  1  0
  9  3  1  0
  9  4  1  0
  9  5  1  0
 10 11  1  0
 11 12  1  0
 12 21  1  0
 13 21  1  0
 14 19  1  0
 15 16  1  0
 15 14  1  0
 17 16  1  0
 17 26  1  0
 17 18  1  0
 19 13  1  0
 19 18  1  0
 20 13  2  0
 21 22  1  0
 23 24  2  0
 24 43  1  0
 25 24  1  0
 25 28  1  0
 26 23  1  0
 26 27  1  0
 27 25  2  0
 28 29  1  0
 29 30  2  0
 31 34  1  0
 31 30  1  0
 32 31  2  0
 33 32  1  0
 33 28  2  0
 34 35  1  0
 35 36  1  0
 36 37  2  0
 38 37  1  0
 38 42  1  0
 39 38  2  0
 40 35  2  0
 40 39  1  0
 41 40  1  0
 43 44  1  0
 44 47  1  0
 44 46  1  0
 45 43  2  0
 48 49  1  0
 48 23  1  0
 50 48  1  0
 51 52  1  0
 52 54  1  0
 53 64  2  0
 54 59  1  0
 55 63  1  0
 55 65  1  0
 56 62  1  0
 56 58  1  0
 57 63  1  0
 58 57  1  0
 59 58  2  0
 60 61  1  0
 60 54  2  0
 61 56  2  0
 62 55  1  0
 63 53  1  0
 65 67  2  0
 66 65  1  0
 68 66  1  0
 69 78  2  0
 69 74  1  0
 70 66  1  0
 70 74  1  0
 71 70  1  0
 72 73  1  0
 72 71  1  0
 73 69  1  0
 74 75  2  0
 75 76  1  0
 77 76  2  0
 78 77  1  0
 79 53  1  0
 79 84  1  0
 79 80  1  0
 80 83  1  1
 80 81  1  0
 82 80  1  0
 84 87  1  0
 85 89  1  0
 85 84  1  0
 86 85  2  0
 89 88  1  0
 91 89  1  0
 91 92  1  0
 91 90  1  0
M  ISO  4  13 100  21 100  51 101  52 101
M  END
>  <TORSDO>  (89) 
F 20

>  <SCORE>  (89) 
-13.910

>  <name>  (89) 
88

>  <ligand_id>  (89) 
88

>  <original_smiles>  (89) 
[H]c1c([H])c([H])c2c(c1[H])C([H])([H])C([H])([H])C([H])([H])C2([H])N([H])C(=O)C1([H])N(C(=O)C([H])(N([H])C(=O)C([H])(N([H])C([H])([H])[H])C([H])([H])[H])C(C([H])([H])[H])(C([H])([H])[H])C([H])([H])[H])C([H])([H])c2c([H])c(OC([H])([H])C3([H])C([H])([H])C4(C([H])([H])C([H])([H])C([H])([H])C([H])(C([H])([H])C([H])([H])C([H])([H])N([H])C(=O)N5C([H])([H])C([H])([H])C([H])([H])C([H])(n6nc(-c7c([H])c([H])c(Oc8c([H])c([H])c(F)c([H])c8F)c([H])c7[H])c(C(=O)N([H])[H])c6N([H])[H])C5([H])[H])C4([H])[H])C3([H])[H])c([H])c([H])c2C1([H])[H]

>  <smiles>  (89) 
[H]c1c([H])c([H])c2c(c1[H])C([H])([H])C([H])([H])C([H])([H])C2([H])N([H])C(=O)C1([H])N(C(=O)C([H])(N([H])C(=O)C([H])(N([H])C([H])([H])[H])C([H])([H])[H])C(C([H])([H])[H])(C([H])([H])[H])C([H])([H])[H])C([H])([H])c2c([H])c(OC([H])([H])C3([H])C([H])([H])C4(C([H])([H])C([H])([H])C([H])([H])C([H])(C([H])([H])C([H])([H])C([H])([H])N([H])C(=O)N5C([H])([H])C([H])([H])C([H])([H])C([H])(n6nc(-c7c([H])c([H])c(Oc8c([H])c([H])c(F)c([H])c8F)c([H])c7[H])c(C(=O)N([H])[H])c6N([H])[H])C5([H])[H])C4([H])[H])C3([H])[H])c([H])c([H])c2C1([H])[H]

$$$$
89:0:0
     RDKit          3D

 97 98  0  0  1  0  0  0  0  0999 V2000
  -26.2300  -22.5740   20.3010 C   0  0  0  0  0  3  0  0  0  0  0  0
  -25.5080  -23.8170   20.5060 C   0  0  0  0  0  3  0  0  0  0  0  0
  -25.2740  -23.0130   18.1630 C   0  0  0  0  0  2  0  0  0  0  0  0
  -24.2620  -24.5700   18.2720 C   0  0  0  0  0  2  0  0  0  0  0  0
  -26.4700  -21.9110   19.0690 C   0  0  0  0  0  2  0  0  0  0  0  0
  -25.0330  -24.8470   19.5770 C   0  0  0  0  0  3  0  0  0  0  0  0
  -20.7280  -25.2990   17.4460 C   0  0  0  0  0  1  0  0  0  0  0  0
  -19.6300  -25.4180   15.7860 C   0  0  0  0  0 15  0  0  0  0  0  0
  -22.0280  -27.4000   14.6360 C   0  0  0  0  0 15  0  0  0  0  0  0
  -22.5550  -26.0000   17.4370 C   0  0  0  0  0  1  0  0  0  0  0  0
  -20.2840  -26.4580   14.1750 C   0  0  0  0  0  2  0  0  0  0  0  0
  -18.7900  -24.7210   12.7730 C   0  0  0  0  0  1  0  0  0  0  0  0
  -20.2080  -25.2270   13.1400 C   0  0  0  0  0  2  0  0  0  0  0  0
  -19.9250  -27.6330   11.7750 C   0  0  0  0  0  1  0  0  0  0  0  0
  -19.5000  -27.4980   13.2560 C   0  0  0  0  0  2  0  0  0  0  0  0
  -25.7580  -26.1910   20.1290 C   0  0  0  0  0  3  0  0  0  0  0  0
  -27.4130  -26.1590   20.5020 C   0  0  0  0  0  3  0  0  0  0  0  0
  -28.3860  -27.2510   20.9590 O   0  0  0  0  0  0  0  0  0  0  0  0
  -26.0940  -32.1420   25.1550 C   0  0  0  0  0  0  0  0  0  0  0  0
  -27.8690  -28.4880   20.8070 C   0  0  0  0  0  0  0  0  0  0  0  0
  -24.7320  -31.4970   23.2400 C   0  0  0  0  0  3  0  0  0  0  0  0
  -25.9080  -30.3660   21.2880 C   0  0  0  0  0  0  0  0  0  0  0  0
  -27.2620  -31.5650   23.0140 C   0  0  0  0  0  2  0  0  0  0  0  0
  -27.1300  -30.4670   21.9730 C   0  0  0  0  0  0  0  0  0  0  0  0
  -28.1440  -29.5190   21.7340 C   0  0  0  0  0  3  0  0  0  0  0  0
  -26.7630  -28.5440   19.9570 C   0  0  0  0  0  3  0  0  0  0  0  0
  -25.7310  -29.4330   20.2590 C   0  0  0  0  0  3  0  0  0  0  0  0
  -24.8150  -31.3180   21.7010 C   0  0  0  0  0  2  0  0  0  0  0  0
  -26.0570  -31.7470   23.8550 N   0  0  0  0  0  0  0  0  0  0  0  0
  -25.0540  -32.3280   25.8050 O   0  0  0  0  0  0  0  0  0  0  0  0
  -24.0940  -30.2600   23.8640 C   0  0  0  0  0  0  0  0  0  0  0  0
  -22.8870  -29.9630   23.4220 N   0  0  0  0  0  0  0  0  0  0  0  0
  -24.7020  -29.5460   24.6690 O   0  0  0  0  0  0  0  0  0  0  0  0
  -22.3940  -30.5940   22.8060 H   0  0  0  0  0  0  0  0  0  0  0  0
  -20.3660  -27.2030   23.0510 C   0  0  0  0  0  3  0  0  0  0  0  0
  -22.4750  -28.5920   23.4730 C   0  0  0  0  0  3  0  0  0  0  0  0
  -23.4960  -27.8810   22.2890 C   0  0  0  0  0  2  0  0  0  0  0  0
  -23.2620  -26.5610   21.1200 C   0  0  0  0  0  2  0  0  0  0  0  0
  -21.6750  -25.7470   21.2720 C   0  0  0  0  0  1  0  0  0  0  0  0
  -20.9210  -28.4910   23.6100 C   0  0  0  0  0  0  0  0  0  0  0  0
  -20.2350  -29.7540   24.0010 C   0  0  0  0  0  3  0  0  0  0  0  0
  -18.8870  -30.0710   23.7720 C   0  0  0  0  0  3  0  0  0  0  0  0
  -18.1960  -28.9880   23.2600 C   0  0  0  0  0  3  0  0  0  0  0  0
  -18.8800  -27.7050   23.0410 C   0  0  0  0  0  3  0  0  0  0  0  0
  -27.4420  -32.4000   25.8770 C   0  0  0  0  0  3  0  0  0  0  0  0
  -27.4480  -33.8120   26.2710 N   0  0  0  0  0  0  0  0  0  0  0  0
  -28.0680  -34.7790   25.5850 C   0  0  0  0  0  0  0  0  0  0  0  0
  -28.7710  -34.5520   24.5970 O   0  0  0  0  0  0  0  0  0  0  0  0
  -26.8530  -34.0730   27.0430 H   0  0  0  0  0  0  0  0  0  0  0  0
  -26.9200  -36.9720   25.1470 C   0  0  0  0  0  1  0  0  0  0  0  0
  -27.8870  -36.2260   26.0800 C   0  0  0  0  0  3  0  0  0  0  0  0
  -30.0320  -36.4740   27.2460 C   0  0  0  0  0  1  0  0  0  0  0  0
  -29.1590  -36.9720   26.1860 N   0  0  0  0  0  0  0  0  0  0  0  0
  -28.9860  -37.9610   26.3570 H   0  0  0  0  0  0  0  0  0  0  0  0
  -27.6640  -31.4650   27.1260 C   0  0  1  0  0  0  0  0  0  0  0  0
  -26.4450  -31.3840   28.0770 C   0  0  0  0  0  1  0  0  0  0  0  0
  -28.0070  -30.0280   26.6710 C   0  0  0  0  0  1  0  0  0  0  0  0
  -28.8770  -31.9760   27.9370 C   0  0  0  0  0  1  0  0  0  0  0  0
  -27.8890  -20.1290   19.2110 C   0  0  0  0  0 15  0  0  0  0  0  0
  -30.8400  -17.7370   20.4030 C   0  0  0  0  0  0  0  0  0  0  0  0
  -32.2930  -15.1870   20.6730 C   0  0  0  0  0  2  0  0  0  0  0  0
  -32.1230  -13.8740   19.7840 C   0  0  0  0  0  2  0  0  0  0  0  0
  -30.7580  -13.2230   20.0120 C   0  0  0  0  0  2  0  0  0  0  0  0
  -29.7870  -14.3680   20.3070 C   0  0  0  0  0  3  0  0  0  0  0  0
  -30.1800  -15.3030   21.4480 C   0  0  0  0  0  2  0  0  0  0  0  0
  -31.0410  -16.2260   20.7420 N   0  0  0  0  0  0  0  0  0  0  0  0
  -32.1220  -17.9000   20.5530 O   0  0  0  0  0  0  0  0  0  0  0  0
  -29.6160  -19.0210   19.9230 N   0  0  0  0  0  2  0  0  0  0  0  0
  -30.2480  -19.8050   20.0350 H   0  0  0  0  0  0  0  0  0  0  0  0
  -27.4170  -14.9610   20.5350 C   0  0  0  0  0  0  0  0  0  0  0  0
  -26.3090  -14.2120   20.7550 C   0  0  0  0  0  0  0  0  0  0  0  0
  -26.7620  -12.8620   20.8910 C   0  0  0  0  0  0  0  0  0  0  0  0
  -28.4410  -14.0440   20.5120 N   0  0  0  0  0  0  0  0  0  0  0  0
  -28.0790  -12.7870   20.8150 N   0  0  0  0  0  0  0  0  0  0  0  0
  -26.0110  -11.6220   21.0080 C   0  0  0  0  0  0  0  0  0  0  0  0
  -26.1670  -10.7650   22.1180 C   0  0  0  0  0  3  0  0  0  0  0  0
  -25.4110   -9.5790   22.2040 C   0  0  0  0  0  3  0  0  0  0  0  0
  -24.4930   -9.2510   21.1780 C   0  0  0  0  0  0  0  0  0  0  0  0
  -24.3670  -10.0970   20.0630 C   0  0  0  0  0  3  0  0  0  0  0  0
  -25.1220  -11.2740   19.9750 C   0  0  0  0  0  3  0  0  0  0  0  0
  -23.7260   -8.1140   21.1690 O   0  0  0  0  0  0  0  0  0  0  0  0
  -23.0130   -7.7240   22.2710 C   0  0  0  0  0  0  0  0  0  0  0  0
  -22.1880   -8.6210   22.9830 C   0  0  0  0  0  3  0  0  0  0  0  0
  -21.4180   -8.1570   24.0670 C   0  0  0  0  0  3  0  0  0  0  0  0
  -21.4640   -6.7990   24.4340 C   0  0  0  0  0  0  0  0  0  0  0  0
  -22.2830   -5.9030   23.7230 C   0  0  0  0  0  3  0  0  0  0  0  0
  -23.0540   -6.3660   22.6420 C   0  0  0  0  0  0  0  0  0  0  0  0
  -23.8270   -5.4970   21.9460 F   0  0  0  0  0  0  0  0  0  0  0  0
  -20.7180   -6.3500   25.4690 F   0  0  0  0  0  0  0  0  0  0  0  0
  -24.9070  -14.7210   20.7240 C   0  0  0  0  0  0  0  0  0  0  0  0
  -24.0180  -14.0910   21.4770 N   0  0  0  0  0  0  0  0  0  0  0  0
  -24.6090  -15.7170   20.0660 O   0  0  0  0  0  0  0  0  0  0  0  0
  -24.2760  -13.2860   22.0290 H   0  0  0  0  0  0  0  0  0  0  0  0
  -23.0610  -14.4150   21.5000 H   0  0  0  0  0  0  0  0  0  0  0  0
  -27.6420  -16.3230   20.3290 N   0  0  0  0  0  0  0  0  0  0  0  0
  -26.8720  -16.9770   20.2480 H   0  0  0  0  0  0  0  0  0  0  0  0
  -28.5320  -16.7290   20.0750 H   0  0  0  0  0  0  0  0  0  0  0  0
  1  2  2  0
  3  4  1  0
  3  5  1  0
  4  6  1  0
  5  1  1  0
  6 16  1  0
  6  2  1  0
 10  7  1  0
 12 13  1  0
 13 11  1  0
 14 15  1  0
 15 11  1  0
 16 17  2  0
 17 18  1  0
 19 30  2  0
 20 18  1  0
 20 25  1  0
 21 29  1  0
 21 31  1  0
 22 28  1  0
 22 24  1  0
 23 29  1  0
 24 23  1  0
 25 24  2  0
 26 27  1  0
 26 20  2  0
 27 22  2  0
 28 21  1  0
 29 19  1  0
 31 33  2  0
 32 36  1  0
 32 31  1  0
 34 32  1  0
 35 40  1  0
 36 37  1  0
 36 40  1  0
 38 39  1  0
 38 37  1  0
 40 41  2  0
 42 41  1  0
 43 42  2  0
 44 35  2  0
 44 43  1  0
 45 19  1  0
 45 46  1  0
 45 55  1  0
 46 49  1  0
 47 51  1  0
 47 46  1  0
 48 47  2  0
 51 50  1  0
 51 53  1  0
 53 54  1  0
 53 52  1  0
 55 58  1  1
 55 56  1  0
 57 55  1  0
 60 67  2  0
 60 66  1  0
 61 66  1  0
 62 63  1  0
 62 61  1  0
 64 63  1  0
 64 73  1  0
 64 65  1  0
 66 65  1  0
 68 69  1  0
 68 60  1  0
 70 71  2  0
 71 72  1  0
 72 75  1  0
 73 70  1  0
 73 74  1  0
 74 72  2  0
 75 76  1  0
 76 77  2  0
 78 77  1  0
 79 78  2  0
 80 79  1  0
 80 75  2  0
 81 78  1  0
 81 82  1  0
 82 87  2  0
 82 83  1  0
 83 84  2  0
 84 85  1  0
 85 89  1  0
 86 85  2  0
 87 86  1  0
 88 87  1  0
 90 71  1  0
 90 91  1  0
 91 94  1  0
 91 93  1  0
 92 90  2  0
 95 70  1  0
 96 95  1  0
 97 95  1  0
M  ISO  4  17 101  18 101  60 100  68 100
M  END
>  <TORSDO>  (90) 
F 22

>  <SCORE>  (90) 
-8.389

>  <name>  (90) 
89

>  <ligand_id>  (90) 
89

>  <original_smiles>  (90) 
[H]c1c([H])c([H])c2c(c1[H])C([H])([H])C([H])([H])C([H])([H])C2([H])N([H])C(=O)C1([H])N(C(=O)C([H])(N([H])C(=O)C([H])(N([H])C([H])([H])[H])C([H])([H])[H])C(C([H])([H])[H])(C([H])([H])[H])C([H])([H])[H])C([H])([H])c2c([H])c(OC([H])([H])C([H])([H])c3c([H])c([H])c(C([H])([H])N([H])C(=O)N4C([H])([H])C([H])([H])C([H])([H])C([H])(n5nc(-c6c([H])c([H])c(Oc7c([H])c([H])c(F)c([H])c7F)c([H])c6[H])c(C(=O)N([H])[H])c5N([H])[H])C4([H])[H])c([H])c3C3([H])C([H])([H])C([H])([H])C(C([H])([H])C([H])([H])[H])(C([H])([H])C([H])([H])[H])C3([H])[H])c([H])c([H])c2C1([H])[H]

>  <smiles>  (90) 
[H]c1c([H])c([H])c2c(c1[H])C([H])([H])C([H])([H])C([H])([H])C2([H])N([H])C(=O)C1([H])N(C(=O)C([H])(N([H])C(=O)C([H])(N([H])C([H])([H])[H])C([H])([H])[H])C(C([H])([H])[H])(C([H])([H])[H])C([H])([H])[H])C([H])([H])c2c([H])c(OC([H])([H])C([H])([H])c3c([H])c([H])c(C([H])([H])N([H])C(=O)N4C([H])([H])C([H])([H])C([H])([H])C([H])(n5nc(-c6c([H])c([H])c(Oc7c([H])c([H])c(F)c([H])c7F)c([H])c6[H])c(C(=O)N([H])[H])c5N([H])[H])C4([H])[H])c([H])c3C3([H])C([H])([H])C([H])([H])C(C([H])([H])C([H])([H])[H])(C([H])([H])C([H])([H])[H])C3([H])[H])c([H])c([H])c2C1([H])[H]

$$$$
90:0:0
     RDKit          3D

 98105  0  0  1  0  0  0  0  0999 V2000
  -33.4790  -23.6540   21.4930 C   0  0  0  0  0  2  0  0  0  0  0  0
  -32.8580  -25.0510   21.3240 C   0  0  0  0  0  2  0  0  0  0  0  0
  -33.4540  -25.8340   20.1350 C   0  0  0  0  0  2  0  0  0  0  0  0
  -32.9060  -27.2040   19.9940 N   0  0  0  0  0  4  0  0  0  0  0  0
  -33.3950  -27.6160   19.2130 H   0  0  0  0  0  0  0  0  0  0  0  0
  -33.1450  -27.7580   20.8000 H   0  0  0  0  0  0  0  0  0  0  0  0
  -31.4540  -27.2920   19.6980 C   0  0  0  0  0  2  0  0  0  0  0  0
  -30.5970  -27.6960   20.9240 C   0  0  0  0  0  2  0  0  0  0  0  0
  -29.3520  -26.8100   21.1620 C   0  0  0  0  0  2  0  0  0  0  0  0
  -28.4430  -26.7470   20.0540 O   0  0  0  0  0  0  0  0  0  0  0  0
  -24.6090  -31.8700   23.2080 C   0  0  0  0  0  0  0  0  0  0  0  0
  -27.2850  -27.4920   20.1130 C   0  0  0  0  0  0  0  0  0  0  0  0
  -23.3970  -30.4800   21.5480 C   0  0  0  0  0  3  0  0  0  0  0  0
  -24.8580  -28.9490   20.1150 C   0  0  0  0  0  0  0  0  0  0  0  0
  -25.9030  -30.8670   21.3250 C   0  0  0  0  0  2  0  0  0  0  0  0
  -26.0010  -29.4860   20.7170 C   0  0  0  0  0  0  0  0  0  0  0  0
  -27.2100  -28.7600   20.7340 C   0  0  0  0  0  3  0  0  0  0  0  0
  -26.1320  -26.9720   19.4880 C   0  0  0  0  0  3  0  0  0  0  0  0
  -24.9170  -27.6840   19.4990 C   0  0  0  0  0  3  0  0  0  0  0  0
  -23.6030  -29.7960   20.1650 C   0  0  0  0  0  2  0  0  0  0  0  0
  -24.6570  -31.0860   22.0910 N   0  0  0  0  0  0  0  0  0  0  0  0
  -23.5310  -32.1390   23.7530 O   0  0  0  0  0  0  0  0  0  0  0  0
  -22.7430  -29.4620   22.5060 C   0  0  0  0  0  0  0  0  0  0  0  0
  -21.4160  -29.2940   22.3810 N   0  0  0  0  0  0  0  0  0  0  0  0
  -23.4220  -28.8200   23.3120 O   0  0  0  0  0  0  0  0  0  0  0  0
  -20.9350  -29.8660   21.7000 H   0  0  0  0  0  0  0  0  0  0  0  0
  -18.0310  -28.1260   22.8450 C   0  0  0  0  0  0  0  0  0  0  0  0
  -20.5870  -28.3560   23.1360 C   0  0  0  0  0  3  0  0  0  0  0  0
  -20.6800  -26.9320   22.5400 C   0  0  0  0  0  2  0  0  0  0  0  0
  -19.5820  -26.6340   21.5150 C   0  0  0  0  0  2  0  0  0  0  0  0
  -18.1980  -26.7830   22.1530 C   0  0  0  0  0  2  0  0  0  0  0  0
  -19.1530  -28.8730   23.2890 C   0  0  0  0  0  0  0  0  0  0  0  0
  -18.9460  -30.1340   23.8880 C   0  0  0  0  0  3  0  0  0  0  0  0
  -17.6460  -30.6480   24.0490 C   0  0  0  0  0  3  0  0  0  0  0  0
  -16.5370  -29.8970   23.6240 C   0  0  0  0  0  3  0  0  0  0  0  0
  -16.7300  -28.6380   23.0280 C   0  0  0  0  0  3  0  0  0  0  0  0
  -25.9010  -32.4840   23.8390 C   0  0  0  0  0  3  0  0  0  0  0  0
  -25.5940  -33.8620   24.2400 N   0  0  0  0  0  0  0  0  0  0  0  0
  -25.9010  -34.9480   23.5170 C   0  0  0  0  0  0  0  0  0  0  0  0
  -26.5500  -34.8960   22.4690 O   0  0  0  0  0  0  0  0  0  0  0  0
  -25.0370  -33.9800   25.0720 H   0  0  0  0  0  0  0  0  0  0  0  0
  -24.1480  -36.7300   23.2640 C   0  0  0  0  0  1  0  0  0  0  0  0
  -25.4060  -36.3100   24.0390 C   0  0  0  0  0  3  0  0  0  0  0  0
  -27.5530  -37.1820   24.8490 C   0  0  0  0  0  1  0  0  0  0  0  0
  -26.4220  -37.3800   23.9470 N   0  0  0  0  0  0  0  0  0  0  0  0
  -26.0110  -38.2870   24.1460 H   0  0  0  0  0  0  0  0  0  0  0  0
  -26.4480  -31.6520   25.0620 C   0  0  1  0  0  0  0  0  0  0  0  0
  -25.3800  -31.3490   26.1410 C   0  0  0  0  0  1  0  0  0  0  0  0
  -27.0250  -30.3070   24.5630 C   0  0  0  0  0  1  0  0  0  0  0  0
  -27.6130  -32.4120   25.7410 C   0  0  0  0  0  1  0  0  0  0  0  0
  -32.7820  -22.8390   22.5900 C   0  0  0  0  0  2  0  0  0  0  0  0
  -33.3960  -21.4470   22.7920 C   0  0  0  0  0  2  0  0  0  0  0  0
  -32.5820  -20.6130   23.7960 C   0  0  0  0  0  2  0  0  0  0  0  0
  -33.0780  -19.2280   23.9010 N   0  0  0  0  0  4  0  0  0  0  0  0
  -34.0530  -19.2410   24.1540 H   0  0  0  0  0  0  0  0  0  0  0  0
  -33.0030  -18.8000   22.9930 H   0  0  0  0  0  0  0  0  0  0  0  0
  -32.3500  -18.3980   24.8840 C   0  0  0  0  0  2  0  0  0  0  0  0
  -32.4930  -16.9020   24.5630 C   0  0  0  0  0  2  0  0  0  0  0  0
  -31.5410  -16.4330   23.4460 C   0  0  0  0  0  2  0  0  0  0  0  0
  -31.8560  -15.0030   22.9840 C   0  0  0  0  0  2  0  0  0  0  0  0
  -30.8630  -14.2200   20.8160 C   0  0  0  0  0  0  0  0  0  0  0  0
  -30.4160  -12.2960   19.3480 C   0  0  0  0  0  2  0  0  0  0  0  0
  -29.4680  -12.5450   18.1670 C   0  0  0  0  0  2  0  0  0  0  0  0
  -28.0050  -12.3700   18.6040 C   0  0  0  0  0  2  0  0  0  0  0  0
  -27.6690  -13.1990   19.8710 C   0  0  0  0  0  3  0  0  0  0  0  0
  -28.7090  -12.9450   20.9850 C   0  0  0  0  0  2  0  0  0  0  0  0
  -30.0590  -13.1970   20.4500 N   0  0  0  0  0  0  0  0  0  0  0  0
  -31.7530  -14.6940   20.1010 O   0  0  0  0  0  0  0  0  0  0  0  0
  -30.8050  -14.4500   22.1340 N   0  0  0  0  0  0  0  0  0  0  0  0
  -30.0730  -13.9470   22.6150 H   0  0  0  0  0  0  0  0  0  0  0  0
  -25.2650  -13.8160   20.5660 C   0  0  0  0  0  0  0  0  0  0  0  0
  -24.1880  -13.0440   20.9150 C   0  0  0  0  0  0  0  0  0  0  0  0
  -24.6420  -11.6910   20.8730 C   0  0  0  0  0  0  0  0  0  0  0  0
  -26.3080  -12.9310   20.3340 N   0  0  0  0  0  0  0  0  0  0  0  0
  -25.9330  -11.6470   20.5740 N   0  0  0  0  0  0  0  0  0  0  0  0
  -23.9090  -10.4300   21.0410 C   0  0  0  0  0  0  0  0  0  0  0  0
  -24.3630   -9.4210   21.9190 C   0  0  0  0  0  3  0  0  0  0  0  0
  -23.6290   -8.2260   22.0770 C   0  0  0  0  0  3  0  0  0  0  0  0
  -22.4270   -8.0290   21.3550 C   0  0  0  0  0  0  0  0  0  0  0  0
  -21.9920   -9.0270   20.4650 C   0  0  0  0  0  3  0  0  0  0  0  0
  -22.7270  -10.2140   20.3040 C   0  0  0  0  0  3  0  0  0  0  0  0
  -21.6620   -6.8900   21.4240 O   0  0  0  0  0  0  0  0  0  0  0  0
  -21.6840   -6.0750   22.5280 C   0  0  0  0  0  0  0  0  0  0  0  0
  -21.4010   -6.5650   23.8220 C   0  0  0  0  0  3  0  0  0  0  0  0
  -21.3650   -5.6800   24.9180 C   0  0  0  0  0  3  0  0  0  0  0  0
  -21.6040   -4.3060   24.7240 C   0  0  0  0  0  0  0  0  0  0  0  0
  -21.8810   -3.8160   23.4350 C   0  0  0  0  0  3  0  0  0  0  0  0
  -21.9190   -4.6980   22.3410 C   0  0  0  0  0  0  0  0  0  0  0  0
  -22.1660   -4.2170   21.0980 F   0  0  0  0  0  0  0  0  0  0  0  0
  -21.5630   -3.4540   25.7740 F   0  0  0  0  0  0  0  0  0  0  0  0
  -22.7910  -13.5250   21.1800 C   0  0  0  0  0  0  0  0  0  0  0  0
  -22.0520  -12.8250   22.0340 N   0  0  0  0  0  0  0  0  0  0  0  0
  -22.3600  -14.5560   20.6660 O   0  0  0  0  0  0  0  0  0  0  0  0
  -22.4090  -11.9870   22.4700 H   0  0  0  0  0  0  0  0  0  0  0  0
  -21.1130  -13.1290   22.2510 H   0  0  0  0  0  0  0  0  0  0  0  0
  -25.4390  -15.1880   20.4080 N   0  0  0  0  0  0  0  0  0  0  0  0
  -24.6790  -15.8490   20.5260 H   0  0  0  0  0  0  0  0  0  0  0  0
  -26.3030  -15.6250   20.1100 H   0  0  0  0  0  0  0  0  0  0  0  0
  1 51  1  0
  2  1  1  0
  3  2  1  0
  4  3  1  0
  4  6  1  0
  5  4  1  0
  7  4  1  0
  7  8  1  0
  8  9  1  0
 10 12  1  0
 10  9  1  0
 11 22  2  0
 12 17  1  0
 13 21  1  0
 13 23  1  0
 14 20  1  0
 14 16  1  0
 15 21  1  0
 16 17  2  0
 16 15  1  0
 18 19  1  0
 18 12  2  0
 19 14  2  0
 20 13  1  0
 21 11  1  0
 23 25  2  0
 24 23  1  0
 26 24  1  0
 27 36  2  0
 27 32  1  0
 28 24  1  0
 28 32  1  0
 29 28  1  0
 30 31  1  0
 30 29  1  0
 31 27  1  0
 32 33  2  0
 33 34  1  0
 35 34  2  0
 36 35  1  0
 37 11  1  0
 37 38  1  0
 37 47  1  0
 38 41  1  0
 39 43  1  0
 39 38  1  0
 40 39  2  0
 43 42  1  0
 45 43  1  0
 45 46  1  0
 45 44  1  0
 47 50  1  1
 47 48  1  0
 49 47  1  0
 51 52  1  0
 52 53  1  0
 53 54  1  0
 54 55  1  0
 54 57  1  0
 56 54  1  0
 58 57  1  0
 59 58  1  0
 60 59  1  0
 61 69  1  0
 62 67  1  0
 63 64  1  0
 63 62  1  0
 65 64  1  0
 65 74  1  0
 65 66  1  0
 67 61  1  0
 67 66  1  0
 68 61  2  0
 69 70  1  0
 69 60  1  0
 71 72  2  0
 72 91  1  0
 73 72  1  0
 73 76  1  0
 74 71  1  0
 74 75  1  0
 75 73  2  0
 76 77  1  0
 77 78  2  0
 79 82  1  0
 79 78  1  0
 80 79  2  0
 81 80  1  0
 81 76  2  0
 82 83  1  0
 83 84  1  0
 84 85  2  0
 86 85  1  0
 86 90  1  0
 87 86  2  0
 88 83  2  0
 88 87  1  0
 89 88  1  0
 91 92  1  0
 92 95  1  0
 92 94  1  0
 93 91  2  0
 96 97  1  0
 96 71  1  0
 98 96  1  0
M  ISO  4   9 101  10 101  61 100  69 100
M  END
>  <TORSDO>  (91) 
F 30

>  <SCORE>  (91) 
10.067

>  <name>  (91) 
90

>  <ligand_id>  (91) 
90

>  <original_smiles>  (91) 
[H]c1c([H])c([H])c2c(c1[H])C([H])([H])C([H])([H])C([H])([H])C2([H])N([H])C(=O)C1([H])N(C(=O)C([H])(N([H])C(=O)C([H])(N([H])C([H])([H])[H])C([H])([H])[H])C(C([H])([H])[H])(C([H])([H])[H])C([H])([H])[H])C([H])([H])c2c([H])c(OC([H])([H])C([H])([H])C([H])([H])[N+]([H])([H])C([H])([H])C([H])([H])C([H])([H])C([H])([H])C([H])([H])C([H])([H])[N+]([H])([H])C([H])([H])C([H])([H])C([H])([H])C([H])([H])N([H])C(=O)N3C([H])([H])C([H])([H])C([H])([H])C([H])(n4nc(-c5c([H])c([H])c(Oc6c([H])c([H])c(F)c([H])c6F)c([H])c5[H])c(C(=O)N([H])[H])c4N([H])[H])C3([H])[H])c([H])c([H])c2C1([H])[H]

>  <smiles>  (91) 
[H]c1c([H])c([H])c2c(c1[H])C([H])([H])C([H])([H])C([H])([H])C2([H])N([H])C(=O)C1([H])N(C(=O)C([H])(N([H])C(=O)C([H])(N([H])C([H])([H])[H])C([H])([H])[H])C(C([H])([H])[H])(C([H])([H])[H])C([H])([H])[H])C([H])([H])c2c([H])c(OC([H])([H])C([H])([H])C([H])([H])[N+]([H])([H])C([H])([H])C([H])([H])C([H])([H])C([H])([H])C([H])([H])C([H])([H])[N+]([H])([H])C([H])([H])C([H])([H])C([H])([H])C([H])([H])N([H])C(=O)N3C([H])([H])C([H])([H])C([H])([H])C([H])(n4nc(-c5c([H])c([H])c(Oc6c([H])c([H])c(F)c([H])c6F)c([H])c5[H])c(C(=O)N([H])[H])c4N([H])[H])C3([H])[H])c([H])c([H])c2C1([H])[H]

$$$$
91:0:0
     RDKit          3D

 96 95  0  0  1  0  0  0  0  0999 V2000
  -21.6280  -28.2210   24.3820 C   0  0  0  0  0 15  0  0  0  0  0  0
  -22.7440  -26.4790   24.5400 C   0  0  0  0  0 15  0  0  0  0  0  0
  -20.1450  -28.5740   22.4160 C   0  0  0  0  0 15  0  0  0  0  0  0
  -20.1160  -24.8800   23.3130 C   0  0  0  0  0  2  0  0  0  0  0  0
  -23.0120  -24.6110   23.8510 C   0  0  0  0  0  1  0  0  0  0  0  0
  -21.4360  -24.1770   24.0430 C   0  0  0  0  0  3  0  0  0  0  0  0
  -20.2910  -26.0290   22.2820 N   0  0  0  0  0  0  0  0  0  0  0  0
  -20.8930  -26.3060   23.0430 H   0  0  0  0  0  0  0  0  0  0  0  0
  -19.9590  -23.1810   25.9840 C   0  0  0  0  0  1  0  0  0  0  0  0
  -21.1170  -24.0970   25.5680 C   0  0  0  0  0  2  0  0  0  0  0  0
  -24.3340  -22.9840   23.5810 C   0  0  0  0  0 15  0  0  0  0  0  0
  -25.3060  -21.5090   22.4730 C   0  0  0  0  0 15  0  0  0  0  0  0
  -26.4590  -19.7730   22.4980 C   0  0  0  0  0 15  0  0  0  0  0  0
  -27.6710  -18.4440   21.4430 C   0  0  0  0  0  1  0  0  0  0  0  0
  -29.5850  -15.6650   20.8520 C   0  0  0  0  0  0  0  0  0  0  0  0
  -30.3140  -13.2390   19.7500 C   0  0  0  0  0  2  0  0  0  0  0  0
  -29.5520  -12.7410   18.4690 C   0  0  0  0  0  2  0  0  0  0  0  0
  -28.1210  -12.2970   18.8110 C   0  0  0  0  0  2  0  0  0  0  0  0
  -27.5320  -13.2430   19.8750 C   0  0  0  0  0  3  0  0  0  0  0  0
  -28.4180  -13.3770   21.1060 C   0  0  0  0  0  2  0  0  0  0  0  0
  -29.4810  -14.2180   20.6330 N   0  0  0  0  0  0  0  0  0  0  0  0
  -30.7860  -15.8990   20.5140 O   0  0  0  0  0  0  0  0  0  0  0  0
  -28.4120  -16.7110   21.3130 N   0  0  0  0  0  0  0  0  0  0  0  0
  -27.6190  -16.1070   21.4660 H   0  0  0  0  0  0  0  0  0  0  0  0
  -25.1950  -13.8140   20.5740 C   0  0  0  0  0  0  0  0  0  0  0  0
  -24.1350  -13.0350   20.9240 C   0  0  0  0  0  0  0  0  0  0  0  0
  -24.5990  -11.6840   20.8740 C   0  0  0  0  0  0  0  0  0  0  0  0
  -26.2080  -12.9220   20.2970 N   0  0  0  0  0  0  0  0  0  0  0  0
  -25.8820  -11.6390   20.5560 N   0  0  0  0  0  0  0  0  0  0  0  0
  -23.8820  -10.4230   21.0450 C   0  0  0  0  0  0  0  0  0  0  0  0
  -24.3480   -9.4190   21.9220 C   0  0  0  0  0  3  0  0  0  0  0  0
  -23.6230   -8.2200   22.0760 C   0  0  0  0  0  3  0  0  0  0  0  0
  -22.4210   -8.0210   21.3540 C   0  0  0  0  0  0  0  0  0  0  0  0
  -21.9790   -9.0150   20.4640 C   0  0  0  0  0  3  0  0  0  0  0  0
  -22.7040  -10.2060   20.3060 C   0  0  0  0  0  3  0  0  0  0  0  0
  -21.6600   -6.8810   21.4240 O   0  0  0  0  0  0  0  0  0  0  0  0
  -21.6840   -6.0690   22.5280 C   0  0  0  0  0  0  0  0  0  0  0  0
  -21.3990   -6.5620   23.8200 C   0  0  0  0  0  3  0  0  0  0  0  0
  -21.3650   -5.6800   24.9180 C   0  0  0  0  0  3  0  0  0  0  0  0
  -21.6040   -4.3060   24.7250 C   0  0  0  0  0  0  0  0  0  0  0  0
  -21.8820   -3.8130   23.4370 C   0  0  0  0  0  3  0  0  0  0  0  0
  -21.9180   -4.6930   22.3420 C   0  0  0  0  0  0  0  0  0  0  0  0
  -22.1660   -4.2120   21.1000 F   0  0  0  0  0  0  0  0  0  0  0  0
  -21.5630   -3.4530   25.7760 F   0  0  0  0  0  0  0  0  0  0  0  0
  -22.7460  -13.5190   21.1950 C   0  0  0  0  0  0  0  0  0  0  0  0
  -22.0130  -12.8210   22.0520 N   0  0  0  0  0  0  0  0  0  0  0  0
  -22.3220  -14.5530   20.6800 O   0  0  0  0  0  0  0  0  0  0  0  0
  -22.3700  -11.9860   22.4900 H   0  0  0  0  0  0  0  0  0  0  0  0
  -21.0760  -13.1300   22.2690 H   0  0  0  0  0  0  0  0  0  0  0  0
  -25.3910  -15.1920   20.4520 N   0  0  0  0  0  0  0  0  0  0  0  0
  -24.6410  -15.8580   20.6020 H   0  0  0  0  0  0  0  0  0  0  0  0
  -26.2420  -15.6250   20.1210 H   0  0  0  0  0  0  0  0  0  0  0  0
  -21.5570  -25.1100   21.4010 C   0  0  0  0  0  2  0  0  0  0  0  0
  -23.3380  -25.3960   20.8460 C   0  0  0  0  0  3  0  0  0  0  0  0
  -24.9590  -25.8520   21.4830 C   0  0  0  0  0  3  0  0  0  0  0  0
  -26.4830  -26.0690   20.9010 O   0  0  0  0  0  0  0  0  0  0  0  0
  -24.7170  -31.9770   23.1960 C   0  0  0  0  0  0  0  0  0  0  0  0
  -26.7460  -27.2300   20.2210 C   0  0  0  0  0  0  0  0  0  0  0  0
  -23.5940  -30.6600   21.5280 C   0  0  0  0  0  3  0  0  0  0  0  0
  -24.9030  -29.2070   19.9240 C   0  0  0  0  0  0  0  0  0  0  0  0
  -26.0940  -30.8500   21.4030 C   0  0  0  0  0  2  0  0  0  0  0  0
  -26.0420  -29.4980   20.6880 C   0  0  0  0  0  0  0  0  0  0  0  0
  -27.0020  -28.4770   20.8680 C   0  0  0  0  0  3  0  0  0  0  0  0
  -25.8910  -27.1440   19.1430 C   0  0  0  0  0  3  0  0  0  0  0  0
  -24.8370  -28.0530   19.1250 C   0  0  0  0  0  3  0  0  0  0  0  0
  -23.7640  -30.1810   20.0470 C   0  0  0  0  0  2  0  0  0  0  0  0
  -24.8210  -31.2520   22.0510 N   0  0  0  0  0  0  0  0  0  0  0  0
  -23.6170  -32.2130   23.7280 O   0  0  0  0  0  0  0  0  0  0  0  0
  -23.3630  -29.4640   22.4230 C   0  0  0  0  0  0  0  0  0  0  0  0
  -22.5220  -28.7000   21.9020 N   0  0  0  0  0  0  0  0  0  0  0  0
  -24.0020  -29.1090   23.4020 O   0  0  0  0  0  0  0  0  0  0  0  0
  -22.2290  -29.0110   20.9880 H   0  0  0  0  0  0  0  0  0  0  0  0
  -18.1410  -27.3140   23.1460 C   0  0  0  0  0  3  0  0  0  0  0  0
  -21.9300  -27.4460   22.3240 C   0  0  0  0  0  2  0  0  0  0  0  0
  -21.1600  -27.4610   20.5930 C   0  0  0  0  0  3  0  0  0  0  0  0
  -19.3920  -27.2430   20.3920 C   0  0  0  0  0  3  0  0  0  0  0  0
  -18.1260  -26.9130   21.5470 C   0  0  0  0  0  2  0  0  0  0  0  0
  -19.4930  -27.3620   24.0240 C   0  0  0  0  0  2  0  0  0  0  0  0
  -19.0640  -28.7380   24.7240 C   0  0  0  0  0  2  0  0  0  0  0  0
  -18.0280  -29.7530   24.4890 C   0  0  0  0  0  2  0  0  0  0  0  0
  -16.8840  -29.4240   23.7820 C   0  0  0  0  0  2  0  0  0  0  0  0
  -16.9370  -28.1400   23.2360 C   0  0  0  0  0  2  0  0  0  0  0  0
  -25.9890  -32.5290   23.8680 C   0  0  0  0  0  3  0  0  0  0  0  0
  -25.6630  -33.8980   24.2670 N   0  0  0  0  0  0  0  0  0  0  0  0
  -25.9200  -34.9720   23.5150 C   0  0  0  0  0  0  0  0  0  0  0  0
  -26.5460  -34.9110   22.4530 O   0  0  0  0  0  0  0  0  0  0  0  0
  -25.1150  -34.0130   25.1060 H   0  0  0  0  0  0  0  0  0  0  0  0
  -24.1530  -36.7390   23.2580 C   0  0  0  0  0  1  0  0  0  0  0  0
  -25.4160  -36.3290   24.0320 C   0  0  0  0  0  3  0  0  0  0  0  0
  -27.5620  -37.1930   24.8460 C   0  0  0  0  0  1  0  0  0  0  0  0
  -26.4320  -37.3980   23.9430 N   0  0  0  0  0  0  0  0  0  0  0  0
  -26.0190  -38.3040   24.1520 H   0  0  0  0  0  0  0  0  0  0  0  0
  -26.4750  -31.6720   25.0970 C   0  0  1  0  0  0  0  0  0  0  0  0
  -25.3720  -31.3760   26.1390 C   0  0  0  0  0  1  0  0  0  0  0  0
  -27.0640  -30.3140   24.6450 C   0  0  0  0  0  1  0  0  0  0  0  0
  -27.6220  -32.4280   25.8030 C   0  0  0  0  0  1  0  0  0  0  0  0
  4  6  1  0
  6  5  1  0
  6 10  1  0
  7  8  1  0
  7  4  1  0
 10  9  1  0
 15 23  1  0
 16 21  1  0
 17 18  1  0
 17 16  1  0
 19 18  1  0
 19 28  1  0
 19 20  1  0
 21 15  1  0
 21 20  1  0
 22 15  2  0
 23 14  1  0
 23 24  1  0
 25 26  2  0
 26 45  1  0
 27 26  1  0
 27 30  1  0
 28 29  1  0
 28 25  1  0
 29 27  2  0
 30 31  1  0
 31 32  2  0
 33 36  1  0
 33 32  1  0
 34 33  2  0
 35 34  1  0
 35 30  2  0
 36 37  1  0
 37 38  1  0
 38 39  2  0
 40 39  1  0
 40 44  1  0
 41 40  2  0
 42 37  2  0
 42 41  1  0
 43 42  1  0
 45 46  1  0
 46 49  1  0
 46 48  1  0
 47 45  2  0
 50 25  1  0
 50 51  1  0
 52 50  1  0
 53  7  1  0
 54 53  1  0
 54 55  2  0
 56 55  1  0
 57 68  2  0
 58 63  1  0
 58 56  1  0
 59 67  1  0
 59 69  1  0
 60 66  1  0
 60 62  1  0
 61 67  1  0
 62 63  2  0
 62 61  1  0
 64 58  2  0
 65 64  1  0
 65 60  2  0
 66 59  1  0
 67 57  1  0
 69 71  2  0
 70 74  1  0
 70 69  1  0
 72 70  1  0
 73 82  1  0
 73 78  1  0
 75 74  1  0
 76 75  2  0
 76 77  1  0
 77 73  1  0
 78 79  1  0
 80 79  1  0
 81 80  1  0
 82 81  1  0
 83 57  1  0
 83 84  1  0
 83 93  1  0
 84 87  1  0
 85 89  1  0
 85 84  1  0
 86 85  2  0
 89 88  1  0
 91 89  1  0
 91 92  1  0
 91 90  1  0
 93 96  1  1
 93 94  1  0
 95 93  1  0
M  ISO  4  15 100  23 100  55 101  56 101
M  END
>  <TORSDO>  (92) 
F 24

>  <SCORE>  (92) 
45.662

>  <name>  (92) 
91

>  <ligand_id>  (92) 
91

>  <original_smiles>  (92) 
[H]c1c([H])c([H])c2c(c1[H])C([H])([H])C([H])([H])C([H])([H])C2([H])N([H])C(=O)C1([H])N(C(=O)C([H])(N([H])C(=O)C([H])(N([H])C([H])([H])[H])C([H])([H])[H])C(C([H])([H])[H])(C([H])([H])[H])C([H])([H])[H])C([H])([H])c2c([H])c(OC([H])([H])C([H])([H])C([H])([H])[N+]3([H])C([H])([H])C([H])([H])C([H])([H])C([H])(C([H])([H])C([H])([H])C([H])([H])C([H])([H])N([H])C(=O)N4C([H])([H])C([H])([H])C([H])([H])C([H])(n5nc(-c6c([H])c([H])c(Oc7c([H])c([H])c(F)c([H])c7F)c([H])c6[H])c(C(=O)N([H])[H])c5N([H])[H])C4([H])[H])C([H])(C([H])([H])C([H])([H])[H])C3([H])[H])c([H])c([H])c2C1([H])[H]

>  <smiles>  (92) 
[H]c1c([H])c([H])c2c(c1[H])C([H])([H])C([H])([H])C([H])([H])C2([H])N([H])C(=O)C1([H])N(C(=O)C([H])(N([H])C(=O)C([H])(N([H])C([H])([H])[H])C([H])([H])[H])C(C([H])([H])[H])(C([H])([H])[H])C([H])([H])[H])C([H])([H])c2c([H])c(OC([H])([H])C([H])([H])C([H])([H])[N+]3([H])C([H])([H])C([H])([H])C([H])([H])C([H])(C([H])([H])C([H])([H])C([H])([H])C([H])([H])N([H])C(=O)N4C([H])([H])C([H])([H])C([H])([H])C([H])(n5nc(-c6c([H])c([H])c(Oc7c([H])c([H])c(F)c([H])c7F)c([H])c6[H])c(C(=O)N([H])[H])c5N([H])[H])C4([H])[H])C([H])(C([H])([H])C([H])([H])[H])C3([H])[H])c([H])c([H])c2C1([H])[H]

$$$$
92:0:0
     RDKit          3D

 93100  0  0  1  0  0  0  0  0999 V2000
  -29.8950  -20.4980   19.7870 C   0  0  0  0  0  3  0  0  0  0  0  0
  -29.9960  -19.9730   18.3310 C   0  0  0  0  0  2  0  0  0  0  0  0
  -31.2560  -19.1170   18.0740 C   0  0  0  0  0  2  0  0  0  0  0  0
  -31.3620  -18.5510   16.6680 C   0  0  0  0  0  0  0  0  0  0  0  0
  -32.1280  -17.2510   16.5710 C   0  0  0  0  0  1  0  0  0  0  0  0
  -30.8730  -19.1250   15.6510 N   0  0  0  0  0  0  0  0  0  0  0  0
  -31.0450  -18.6140   14.7910 H   0  0  0  0  0  0  0  0  0  0  0  0
  -29.1500  -19.4920   20.7500 C   0  0  0  0  0  2  0  0  0  0  0  0
  -29.1270  -17.9300   20.4840 C   0  0  0  0  0  2  0  0  0  0  0  0
  -30.2180  -16.9900   21.1040 C   0  0  0  0  0  2  0  0  0  0  0  0
  -30.6320  -14.5380   20.4290 C   0  0  0  0  0  0  0  0  0  0  0  0
  -30.3640  -12.3650   19.2660 C   0  0  0  0  0  2  0  0  0  0  0  0
  -29.4060  -12.5550   18.0680 C   0  0  0  0  0  2  0  0  0  0  0  0
  -27.9370  -12.4070   18.5090 C   0  0  0  0  0  2  0  0  0  0  0  0
  -27.6050  -13.2410   19.7740 C   0  0  0  0  0  3  0  0  0  0  0  0
  -28.6680  -13.0180   20.8720 C   0  0  0  0  0  2  0  0  0  0  0  0
  -29.9820  -13.3460   20.2950 N   0  0  0  0  0  0  0  0  0  0  0  0
  -31.7660  -14.7310   19.9810 O   0  0  0  0  0  0  0  0  0  0  0  0
  -29.8880  -15.5470   20.9430 N   0  0  0  0  0  0  0  0  0  0  0  0
  -28.9630  -15.2710   21.2380 H   0  0  0  0  0  0  0  0  0  0  0  0
  -25.2080  -13.8510   20.4820 C   0  0  0  0  0  0  0  0  0  0  0  0
  -24.1410  -13.0810   20.8540 C   0  0  0  0  0  0  0  0  0  0  0  0
  -24.6000  -11.7290   20.8290 C   0  0  0  0  0  0  0  0  0  0  0  0
  -26.2530  -12.9700   20.2570 N   0  0  0  0  0  0  0  0  0  0  0  0
  -25.8900  -11.6870   20.5210 N   0  0  0  0  0  0  0  0  0  0  0  0
  -23.8730  -10.4690   21.0240 C   0  0  0  0  0  0  0  0  0  0  0  0
  -24.3070   -9.5010   21.9550 C   0  0  0  0  0  3  0  0  0  0  0  0
  -23.5790   -8.3050   22.1390 C   0  0  0  0  0  3  0  0  0  0  0  0
  -22.4010   -8.0700   21.3900 C   0  0  0  0  0  0  0  0  0  0  0  0
  -21.9850   -9.0270   20.4470 C   0  0  0  0  0  3  0  0  0  0  0  0
  -22.7160  -10.2120   20.2630 C   0  0  0  0  0  3  0  0  0  0  0  0
  -21.6450   -6.9280   21.4860 O   0  0  0  0  0  0  0  0  0  0  0  0
  -21.6050   -6.1830   22.6380 C   0  0  0  0  0  0  0  0  0  0  0  0
  -21.1930   -6.7380   23.8700 C   0  0  0  0  0  3  0  0  0  0  0  0
  -21.1010   -5.9200   25.0130 C   0  0  0  0  0  3  0  0  0  0  0  0
  -21.4080   -4.5500   24.9260 C   0  0  0  0  0  0  0  0  0  0  0  0
  -21.8120   -3.9950   23.6990 C   0  0  0  0  0  3  0  0  0  0  0  0
  -21.9060   -4.8100   22.5580 C   0  0  0  0  0  0  0  0  0  0  0  0
  -22.2750   -4.2670   21.3730 F   0  0  0  0  0  0  0  0  0  0  0  0
  -21.3110   -3.7600   26.0210 F   0  0  0  0  0  0  0  0  0  0  0  0
  -22.7430  -13.5590   21.1260 C   0  0  0  0  0  0  0  0  0  0  0  0
  -22.0190  -12.8650   21.9960 N   0  0  0  0  0  0  0  0  0  0  0  0
  -22.3040  -14.5830   20.6030 O   0  0  0  0  0  0  0  0  0  0  0  0
  -22.3910  -12.0370   22.4390 H   0  0  0  0  0  0  0  0  0  0  0  0
  -21.0820  -13.1660   22.2280 H   0  0  0  0  0  0  0  0  0  0  0  0
  -25.3680  -15.2220   20.2950 N   0  0  0  0  0  0  0  0  0  0  0  0
  -24.5850  -15.8620   20.3780 H   0  0  0  0  0  0  0  0  0  0  0  0
  -26.2030  -15.6630   19.9350 H   0  0  0  0  0  0  0  0  0  0  0  0
  -29.2900  -21.9600   19.7340 C   0  0  0  0  0  2  0  0  0  0  0  0
  -29.4890  -22.9060   20.9520 C   0  0  0  0  0  2  0  0  0  0  0  0
  -29.5210  -24.4540   20.6640 C   0  0  0  0  0  2  0  0  0  0  0  0
  -28.2160  -25.1740   20.2120 C   0  0  0  0  0  2  0  0  0  0  0  0
  -28.3540  -26.6220   20.2090 O   0  0  0  0  0  0  0  0  0  0  0  0
  -24.5830  -31.8760   23.2420 C   0  0  0  0  0  0  0  0  0  0  0  0
  -27.1930  -27.3850   20.1730 C   0  0  0  0  0  0  0  0  0  0  0  0
  -23.3670  -30.4840   21.6020 C   0  0  0  0  0  3  0  0  0  0  0  0
  -24.8100  -28.9360   20.1770 C   0  0  0  0  0  0  0  0  0  0  0  0
  -25.8980  -30.8230   21.3990 C   0  0  0  0  0  2  0  0  0  0  0  0
  -25.9760  -29.4490   20.7560 C   0  0  0  0  0  0  0  0  0  0  0  0
  -27.1720  -28.6870   20.7410 C   0  0  0  0  0  3  0  0  0  0  0  0
  -26.0020  -26.8980   19.5870 C   0  0  0  0  0  3  0  0  0  0  0  0
  -24.8180  -27.6610   19.5890 C   0  0  0  0  0  3  0  0  0  0  0  0
  -23.5740  -29.8070   20.2210 C   0  0  0  0  0  2  0  0  0  0  0  0
  -24.6350  -31.0760   22.1390 N   0  0  0  0  0  0  0  0  0  0  0  0
  -23.5050  -32.1500   23.7870 O   0  0  0  0  0  0  0  0  0  0  0  0
  -22.7130  -29.4630   22.5620 C   0  0  0  0  0  0  0  0  0  0  0  0
  -21.3860  -29.2870   22.4440 N   0  0  0  0  0  0  0  0  0  0  0  0
  -23.3970  -28.8330   23.3730 O   0  0  0  0  0  0  0  0  0  0  0  0
  -20.8910  -29.8560   21.7700 H   0  0  0  0  0  0  0  0  0  0  0  0
  -18.0120  -28.0940   22.9560 C   0  0  0  0  0  0  0  0  0  0  0  0
  -20.5700  -28.3500   23.2170 C   0  0  0  0  0  3  0  0  0  0  0  0
  -20.6670  -26.9160   22.6460 C   0  0  0  0  0  2  0  0  0  0  0  0
  -19.5630  -26.5920   21.6350 C   0  0  0  0  0  2  0  0  0  0  0  0
  -18.1830  -26.7430   22.2840 C   0  0  0  0  0  2  0  0  0  0  0  0
  -19.1330  -28.8540   23.3820 C   0  0  0  0  0  0  0  0  0  0  0  0
  -18.9200  -30.1180   23.9750 C   0  0  0  0  0  3  0  0  0  0  0  0
  -17.6160  -30.6240   24.1420 C   0  0  0  0  0  3  0  0  0  0  0  0
  -16.5090  -29.8610   23.7320 C   0  0  0  0  0  3  0  0  0  0  0  0
  -16.7080  -28.5980   23.1460 C   0  0  0  0  0  3  0  0  0  0  0  0
  -25.8720  -32.5070   23.8570 C   0  0  0  0  0  3  0  0  0  0  0  0
  -26.3930  -31.7370   25.1330 C   0  0  1  0  0  0  0  0  0  0  0  0
  -25.3050  -31.5060   26.2080 C   0  0  0  0  0  1  0  0  0  0  0  0
  -26.9710  -30.3560   24.7430 C   0  0  0  0  0  1  0  0  0  0  0  0
  -27.5480  -32.5280   25.7900 C   0  0  0  0  0  1  0  0  0  0  0  0
  -25.5670  -33.9060   24.1850 N   0  0  0  0  0  0  0  0  0  0  0  0
  -25.9020  -34.9560   23.4210 C   0  0  0  0  0  0  0  0  0  0  0  0
  -26.5710  -34.8460   22.3900 O   0  0  0  0  0  0  0  0  0  0  0  0
  -24.9770  -34.0640   24.9880 H   0  0  0  0  0  0  0  0  0  0  0  0
  -24.1850  -36.7570   23.0570 C   0  0  0  0  0  1  0  0  0  0  0  0
  -25.4200  -36.3470   23.8750 C   0  0  0  0  0  3  0  0  0  0  0  0
  -27.5560  -37.2220   24.7120 C   0  0  0  0  0  1  0  0  0  0  0  0
  -26.4580  -37.3950   23.7660 N   0  0  0  0  0  0  0  0  0  0  0  0
  -26.0550  -38.3160   23.9130 H   0  0  0  0  0  0  0  0  0  0  0  0
  1  2  1  0
  1  8  1  0
  3  2  1  0
  4  3  1  0
  5  4  1  0
  6  4  2  0
  7  6  1  0
  9  8  1  0
  9 10  1  0
 11 19  1  0
 12 17  1  0
 13 14  1  0
 13 12  1  0
 15 14  1  0
 15 24  1  0
 15 16  1  0
 17 11  1  0
 17 16  1  0
 18 11  2  0
 19 10  1  0
 19 20  1  0
 21 22  2  0
 22 41  1  0
 23 22  1  0
 23 26  1  0
 24 21  1  0
 24 25  1  0
 25 23  2  0
 26 27  1  0
 27 28  2  0
 29 32  1  0
 29 28  1  0
 30 29  2  0
 31 30  1  0
 31 26  2  0
 32 33  1  0
 33 34  1  0
 34 35  2  0
 36 35  1  0
 36 40  1  0
 37 36  2  0
 38 33  2  0
 38 37  1  0
 39 38  1  0
 41 42  1  0
 42 45  1  0
 42 44  1  0
 43 41  2  0
 46 47  1  0
 46 21  1  0
 48 46  1  0
 49  1  1  0
 49 50  1  0
 51 50  1  0
 52 51  1  0
 53 52  1  0
 54 65  2  0
 55 53  1  0
 55 60  1  0
 56 64  1  0
 56 66  1  0
 57 63  1  0
 57 59  1  0
 58 64  1  0
 59 58  1  0
 60 59  2  0
 61 62  1  0
 61 55  2  0
 62 57  2  0
 63 56  1  0
 64 54  1  0
 66 68  2  0
 67 66  1  0
 69 67  1  0
 70 79  2  0
 70 75  1  0
 71 67  1  0
 71 75  1  0
 72 71  1  0
 73 74  1  0
 73 72  1  0
 74 70  1  0
 75 76  2  0
 76 77  1  0
 78 77  2  0
 79 78  1  0
 80 54  1  0
 80 85  1  0
 80 81  1  0
 81 84  1  1
 81 82  1  0
 83 81  1  0
 85 88  1  0
 86 90  1  0
 86 85  1  0
 87 86  2  0
 90 89  1  0
 92 90  1  0
 92 93  1  0
 92 91  1  0
M  ISO  4  11 100  19 100  52 101  53 101
M  END
>  <TORSDO>  (93) 
F 26

>  <SCORE>  (93) 
-11.954

>  <name>  (93) 
92

>  <ligand_id>  (93) 
92

>  <original_smiles>  (93) 
[H]N=C(C([H])([H])[H])C([H])([H])C([H])([H])C([H])(C([H])([H])C([H])([H])C([H])([H])N([H])C(=O)N1C([H])([H])C([H])([H])C([H])([H])C([H])(n2nc(-c3c([H])c([H])c(Oc4c([H])c([H])c(F)c([H])c4F)c([H])c3[H])c(C(=O)N([H])[H])c2N([H])[H])C1([H])[H])C([H])([H])C([H])([H])C([H])([H])C([H])([H])Oc1c([H])c([H])c2c(c1[H])C([H])([H])N(C(=O)C([H])(N([H])C(=O)C([H])(N([H])C([H])([H])[H])C([H])([H])[H])C(C([H])([H])[H])(C([H])([H])[H])C([H])([H])[H])C([H])(C(=O)N([H])C1([H])c3c([H])c([H])c([H])c([H])c3C([H])([H])C([H])([H])C1([H])[H])C2([H])[H]

>  <smiles>  (93) 
[H]N=C(C([H])([H])[H])C([H])([H])C([H])([H])C([H])(C([H])([H])C([H])([H])C([H])([H])N([H])C(=O)N1C([H])([H])C([H])([H])C([H])([H])C([H])(n2nc(-c3c([H])c([H])c(Oc4c([H])c([H])c(F)c([H])c4F)c([H])c3[H])c(C(=O)N([H])[H])c2N([H])[H])C1([H])[H])C([H])([H])C([H])([H])C([H])([H])C([H])([H])Oc1c([H])c([H])c2c(c1[H])C([H])([H])N(C(=O)C([H])(N([H])C(=O)C([H])(N([H])C([H])([H])[H])C([H])([H])[H])C(C([H])([H])[H])(C([H])([H])[H])C([H])([H])[H])C([H])(C(=O)N([H])C1([H])c3c([H])c([H])c([H])c([H])c3C([H])([H])C([H])([H])C1([H])[H])C2([H])[H]

$$$$
93:0:0
     RDKit          3D

104113  0  0  1  0  0  0  0  0999 V2000
  -32.8450  -22.8430   21.5440 C   0  0  0  0  0  3  0  0  0  0  0  0
  -33.7110  -21.7790   21.8230 C   0  0  0  0  0  3  0  0  0  0  0  0
  -31.4840  -22.7840   21.9170 C   0  0  0  0  0  0  0  0  0  0  0  0
  -33.2290  -20.6150   22.4480 C   0  0  0  0  0  0  0  0  0  0  0  0
  -31.0190  -21.6670   22.6750 C   0  0  0  0  0  0  0  0  0  0  0  0
  -31.9010  -20.5830   22.9390 C   0  0  0  0  0  0  0  0  0  0  0  0
  -29.5670  -21.6220   23.1550 C   0  0  0  0  0  1  0  0  0  0  0  0
  -29.8150  -23.2730   20.1270 C   0  0  0  0  0  2  0  0  0  0  0  0
  -31.1940  -25.1990   21.0130 C   0  0  0  0  0  2  0  0  0  0  0  0
  -28.8050  -24.2590   19.5310 C   0  0  0  0  0  2  0  0  0  0  0  0
  -30.2060  -26.1820   20.3490 C   0  0  0  0  0  2  0  0  0  0  0  0
  -30.5240  -23.8490   21.3660 C   0  0  0  0  0  3  0  0  0  0  0  0
  -29.5000  -25.5710   19.1080 C   0  0  0  0  0  3  0  0  0  0  0  0
  -28.5610  -26.5990   18.4170 C   0  0  0  0  0  2  0  0  0  0  0  0
  -27.1240  -26.1180   18.0140 C   0  0  0  0  0  3  0  0  0  0  0  0
  -26.4180  -25.9930   20.5780 C   0  0  0  0  0  1  0  0  0  0  0  0
  -26.0940  -26.4180   19.1420 C   0  0  0  0  0  2  0  0  0  0  0  0
  -26.6970  -26.6940   16.6100 C   0  0  0  0  0  2  0  0  0  0  0  0
  -25.3010  -26.6070   16.2110 O   0  0  0  0  0  0  0  0  0  0  0  0
  -24.1570  -28.4160   22.9410 C   0  0  0  0  0  0  0  0  0  0  0  0
  -24.4260  -27.2170   17.0810 C   0  0  0  0  0  0  0  0  0  0  0  0
  -22.1390  -28.1530   21.5280 C   0  0  0  0  0  3  0  0  0  0  0  0
  -22.5500  -28.0720   19.0030 C   0  0  0  0  0  0  0  0  0  0  0  0
  -24.3490  -28.9380   20.5120 C   0  0  0  0  0  2  0  0  0  0  0  0
  -23.9180  -28.2790   19.2200 C   0  0  0  0  0  0  0  0  0  0  0  0
  -24.8630  -27.8470   18.2660 C   0  0  0  0  0  3  0  0  0  0  0  0
  -23.0450  -27.1140   16.8260 C   0  0  0  0  0  3  0  0  0  0  0  0
  -22.1040  -27.5000   17.7990 C   0  0  0  0  0  3  0  0  0  0  0  0
  -21.6130  -28.5040   20.1070 C   0  0  0  0  0  2  0  0  0  0  0  0
  -23.5930  -28.4780   21.7000 N   0  0  0  0  0  0  0  0  0  0  0  0
  -23.4800  -28.1320   23.9390 O   0  0  0  0  0  0  0  0  0  0  0  0
  -21.8050  -26.6730   21.8280 C   0  0  0  0  0  0  0  0  0  0  0  0
  -20.6080  -26.2320   21.4070 N   0  0  0  0  0  0  0  0  0  0  0  0
  -22.6200  -25.9430   22.3990 O   0  0  0  0  0  0  0  0  0  0  0  0
  -19.9860  -26.8970   20.9670 H   0  0  0  0  0  0  0  0  0  0  0  0
  -18.4210  -23.7770   19.9040 C   0  0  0  0  0  0  0  0  0  0  0  0
  -20.0970  -24.8660   21.5450 C   0  0  0  0  0  3  0  0  0  0  0  0
  -21.1180  -23.8250   21.0290 C   0  0  0  0  0  2  0  0  0  0  0  0
  -20.9070  -23.4520   19.5570 C   0  0  0  0  0  2  0  0  0  0  0  0
  -19.5050  -22.8680   19.3500 C   0  0  0  0  0  2  0  0  0  0  0  0
  -18.7040  -24.7260   20.9210 C   0  0  0  0  0  0  0  0  0  0  0  0
  -17.6670  -25.5690   21.3760 C   0  0  0  0  0  3  0  0  0  0  0  0
  -16.3720  -25.4760   20.8320 C   0  0  0  0  0  3  0  0  0  0  0  0
  -16.0950  -24.5220   19.8370 C   0  0  0  0  0  3  0  0  0  0  0  0
  -17.1160  -23.6710   19.3790 C   0  0  0  0  0  3  0  0  0  0  0  0
  -25.6710  -28.7210   23.1680 C   0  0  0  0  0  3  0  0  0  0  0  0
  -26.3490  -27.7510   24.2120 C   0  0  1  0  0  0  0  0  0  0  0  0
  -25.6140  -27.6860   25.5700 C   0  0  0  0  0  1  0  0  0  0  0  0
  -26.4290  -26.3130   23.6500 C   0  0  0  0  0  1  0  0  0  0  0  0
  -27.8030  -28.2070   24.4800 C   0  0  0  0  0  1  0  0  0  0  0  0
  -25.7820  -30.1180   23.6010 N   0  0  0  0  0  0  0  0  0  0  0  0
  -26.3420  -31.0980   22.8770 C   0  0  0  0  0  0  0  0  0  0  0  0
  -26.8840  -30.9010   21.7860 O   0  0  0  0  0  0  0  0  0  0  0  0
  -25.3030  -30.3670   24.4560 H   0  0  0  0  0  0  0  0  0  0  0  0
  -25.1760  -33.3250   22.7440 C   0  0  0  0  0  1  0  0  0  0  0  0
  -26.2850  -32.5260   23.4490 C   0  0  0  0  0  3  0  0  0  0  0  0
  -28.6260  -32.6800   24.1720 C   0  0  0  0  0  1  0  0  0  0  0  0
  -27.5690  -33.2540   23.3430 N   0  0  0  0  0  0  0  0  0  0  0  0
  -27.4550  -34.2290   23.6060 H   0  0  0  0  0  0  0  0  0  0  0  0
  -31.4750  -19.4670   23.6620 N   0  0  0  0  0  0  0  0  0  0  0  0
  -32.2020  -18.8940   24.0780 H   0  0  0  0  0  0  0  0  0  0  0  0
  -30.6790  -19.5820   24.2800 H   0  0  0  0  0  0  0  0  0  0  0  0
  -34.1440  -19.3970   22.5000 C   0  0  0  0  0  2  0  0  0  0  0  0
  -34.0370  -18.5030   21.2320 C   0  0  0  0  0  2  0  0  0  0  0  0
  -33.3060  -19.1700   20.0400 C   0  0  0  0  0  2  0  0  0  0  0  0
  -33.1210  -18.3140   18.7720 C   0  0  0  0  0  2  0  0  0  0  0  0
  -32.5900  -15.9710   18.1960 C   0  0  0  0  0  0  0  0  0  0  0  0
  -32.6670  -13.5080   18.2630 C   0  0  0  0  0  2  0  0  0  0  0  0
  -31.6190  -12.8230   17.3710 C   0  0  0  0  0  2  0  0  0  0  0  0
  -30.3050  -12.6390   18.1460 C   0  0  0  0  0  2  0  0  0  0  0  0
  -29.8220  -13.9610   18.7930 C   0  0  0  0  0  3  0  0  0  0  0  0
  -30.9560  -14.6520   19.5850 C   0  0  0  0  0  2  0  0  0  0  0  0
  -32.1370  -14.8030   18.7160 N   0  0  0  0  0  0  0  0  0  0  0  0
  -33.2880  -16.0320   17.1760 O   0  0  0  0  0  0  0  0  0  0  0  0
  -32.4120  -17.0480   18.9790 N   0  0  0  0  0  0  0  0  0  0  0  0
  -31.8800  -16.9250   19.8290 H   0  0  0  0  0  0  0  0  0  0  0  0
  -27.8730  -14.6640   20.3230 C   0  0  0  0  0  0  0  0  0  0  0  0
  -26.8400  -13.9510   20.8780 C   0  0  0  0  0  0  0  0  0  0  0  0
  -27.0320  -12.5980   20.4680 C   0  0  0  0  0  0  0  0  0  0  0  0
  -28.6360  -13.7440   19.6240 N   0  0  0  0  0  0  0  0  0  0  0  0
  -28.1480  -12.4830   19.7590 N   0  0  0  0  0  0  0  0  0  0  0  0
  -26.1860  -11.4090   20.6620 C   0  0  0  0  0  0  0  0  0  0  0  0
  -26.4090  -10.5090   21.7260 C   0  0  0  0  0  3  0  0  0  0  0  0
  -25.5710   -9.3880   21.9020 C   0  0  0  0  0  3  0  0  0  0  0  0
  -24.4960   -9.1570   21.0120 C   0  0  0  0  0  0  0  0  0  0  0  0
  -24.2930  -10.0440   19.9390 C   0  0  0  0  0  3  0  0  0  0  0  0
  -25.1320  -11.1570   19.7620 C   0  0  0  0  0  3  0  0  0  0  0  0
  -23.6490   -8.0800   21.0880 O   0  0  0  0  0  0  0  0  0  0  0  0
  -22.8980   -7.8330   22.2090 C   0  0  0  0  0  0  0  0  0  0  0  0
  -21.9460   -8.7590   22.6850 C   0  0  0  0  0  3  0  0  0  0  0  0
  -21.1470   -8.4360   23.8010 C   0  0  0  0  0  3  0  0  0  0  0  0
  -21.2890   -7.1860   24.4330 C   0  0  0  0  0  0  0  0  0  0  0  0
  -22.2330   -6.2600   23.9560 C   0  0  0  0  0  3  0  0  0  0  0  0
  -23.0320   -6.5810   22.8440 C   0  0  0  0  0  0  0  0  0  0  0  0
  -23.9250   -5.6770   22.3750 F   0  0  0  0  0  0  0  0  0  0  0  0
  -20.5170   -6.8720   25.4990 F   0  0  0  0  0  0  0  0  0  0  0  0
  -25.6910  -14.5100   21.6650 C   0  0  0  0  0  0  0  0  0  0  0  0
  -25.1990  -13.7580   22.6470 N   0  0  0  0  0  0  0  0  0  0  0  0
  -25.2510  -15.6360   21.4460 O   0  0  0  0  0  0  0  0  0  0  0  0
  -25.5730  -12.8410   22.8410 H   0  0  0  0  0  0  0  0  0  0  0  0
  -24.4410  -14.1110   23.2140 H   0  0  0  0  0  0  0  0  0  0  0  0
  -28.2090  -16.0110   20.3440 N   0  0  0  0  0  0  0  0  0  0  0  0
  -27.6310  -16.7080   20.8030 H   0  0  0  0  0  0  0  0  0  0  0  0
  -29.0070  -16.4140   19.8680 H   0  0  0  0  0  0  0  0  0  0  0  0
  1  2  2  0
  1  3  1  0
  2  4  1  0
  3  5  2  0
  4 63  1  0
  4  6  2  0
  5  6  1  0
  5  7  1  0
  6 60  1  0
  8 12  1  0
  9 12  1  0
 10  8  1  0
 11  9  1  0
 12  3  1  0
 13 14  1  0
 13 10  1  0
 13 11  1  0
 15 18  1  0
 15 14  1  0
 15 17  1  0
 17 16  1  0
 19 18  1  0
 19 21  1  0
 20 31  2  0
 21 26  1  0
 22 30  1  0
 22 32  1  0
 23 25  1  0
 23 29  1  0
 24 30  1  0
 25 24  1  0
 26 25  2  0
 27 21  2  0
 27 28  1  0
 28 23  2  0
 29 22  1  0
 30 20  1  0
 32 34  2  0
 33 32  1  0
 35 33  1  0
 36 41  1  0
 37 33  1  0
 38 37  1  0
 39 38  1  0
 40 39  1  0
 40 36  1  0
 41 42  2  0
 41 37  1  0
 43 42  1  0
 44 43  2  0
 45 44  1  0
 45 36  2  0
 46 20  1  0
 46 51  1  0
 46 47  1  0
 47 50  1  1
 47 48  1  0
 49 47  1  0
 51 54  1  0
 52 56  1  0
 52 51  1  0
 53 52  2  0
 56 55  1  0
 58 56  1  0
 58 59  1  0
 58 57  1  0
 60 61  1  0
 60 62  1  0
 64 63  1  0
 65 64  1  0
 66 75  1  0
 66 65  1  0
 67 73  1  0
 67 75  1  0
 68 73  1  0
 69 70  1  0
 69 68  1  0
 71 70  1  0
 71 72  1  0
 71 80  1  0
 73 72  1  0
 74 67  2  0
 75 76  1  0
 77102  1  0
 77 78  2  0
 78 97  1  0
 79 82  1  0
 79 78  1  0
 80 81  1  0
 80 77  1  0
 81 79  2  0
 82 83  1  0
 83 84  2  0
 85 88  1  0
 85 84  1  0
 86 85  2  0
 87 86  1  0
 87 82  2  0
 88 89  1  0
 89 90  2  0
 89 94  1  0
 90 91  1  0
 91 92  2  0
 92 96  1  0
 93 92  1  0
 94 93  2  0
 95 94  1  0
 97 98  1  0
 98100  1  0
 98101  1  0
 99 97  2  0
102103  1  0
104102  1  0
M  ISO  4  18 101  19 101  67 100  75 100
M  END
>  <TORSDO>  (94) 
F 26

>  <SCORE>  (94) 
-2.580

>  <name>  (94) 
93

>  <ligand_id>  (94) 
93

>  <original_smiles>  (94) 
[H]c1c([H])c([H])c2c(c1[H])C([H])([H])C([H])([H])C([H])([H])C2([H])N([H])C(=O)C1([H])N(C(=O)C([H])(N([H])C(=O)C([H])(N([H])C([H])([H])[H])C([H])([H])[H])C(C([H])([H])[H])(C([H])([H])[H])C([H])([H])[H])C([H])([H])c2c([H])c(OC([H])([H])C([H])(C([H])([H])C([H])([H])[H])C([H])([H])C3([H])C([H])([H])C([H])([H])C([H])(c4c([H])c([H])c(C([H])([H])C([H])([H])C([H])([H])C([H])([H])N([H])C(=O)N5C([H])([H])C([H])([H])C([H])([H])C([H])(n6nc(-c7c([H])c([H])c(Oc8c([H])c([H])c(F)c([H])c8F)c([H])c7[H])c(C(=O)N([H])[H])c6N([H])[H])C5([H])[H])c(N([H])[H])c4C([H])([H])[H])C([H])([H])C3([H])[H])c([H])c([H])c2C1([H])[H]

>  <smiles>  (94) 
[H]c1c([H])c([H])c2c(c1[H])C([H])([H])C([H])([H])C([H])([H])C2([H])N([H])C(=O)C1([H])N(C(=O)C([H])(N([H])C(=O)C([H])(N([H])C([H])([H])[H])C([H])([H])[H])C(C([H])([H])[H])(C([H])([H])[H])C([H])([H])[H])C([H])([H])c2c([H])c(OC([H])([H])C([H])(C([H])([H])C([H])([H])[H])C([H])([H])C3([H])C([H])([H])C([H])([H])C([H])(c4c([H])c([H])c(C([H])([H])C([H])([H])C([H])([H])C([H])([H])N([H])C(=O)N5C([H])([H])C([H])([H])C([H])([H])C([H])(n6nc(-c7c([H])c([H])c(Oc8c([H])c([H])c(F)c([H])c8F)c([H])c7[H])c(C(=O)N([H])[H])c6N([H])[H])C5([H])[H])c(N([H])[H])c4C([H])([H])[H])C([H])([H])C3([H])[H])c([H])c([H])c2C1([H])[H]

$$$$
94:0:0
     RDKit          3D

 88 97  0  0  1  0  0  0  0  0999 V2000
  -29.4000  -22.9990   18.8960 C   0  0  0  0  0  3  0  0  0  0  0  0
  -28.7710  -23.1150   20.0770 C   0  0  0  0  0  0  0  0  0  0  0  0
  -30.0990  -21.6530   18.6140 C   0  0  0  0  0  2  0  0  0  0  0  0
  -28.2220  -20.2810   20.7230 C   0  0  0  0  0  2  0  0  0  0  0  0
  -29.0440  -21.6610   20.8280 C   0  0  0  0  0  3  0  0  0  0  0  0
  -30.0380  -20.8310   19.9230 C   0  0  0  0  0  3  0  0  0  0  0  0
  -29.3430  -19.3540   20.0230 C   0  0  0  0  0  3  0  0  0  0  0  0
  -27.9920  -24.5190   20.6040 C   0  0  0  0  0  2  0  0  0  0  0  0
  -28.2750  -26.0430   20.2310 O   0  0  0  0  0  0  0  0  0  0  0  0
  -24.6680  -31.8690   23.2070 C   0  0  0  0  0  0  0  0  0  0  0  0
  -27.2370  -27.0730   20.2150 C   0  0  0  0  0  0  0  0  0  0  0  0
  -23.4700  -30.4640   21.5750 C   0  0  0  0  0  3  0  0  0  0  0  0
  -24.9190  -28.8700   20.1630 C   0  0  0  0  0  0  0  0  0  0  0  0
  -26.0290  -30.7100   21.4150 C   0  0  0  0  0  2  0  0  0  0  0  0
  -26.1040  -29.3050   20.7710 C   0  0  0  0  0  0  0  0  0  0  0  0
  -27.2640  -28.4280   20.7720 C   0  0  0  0  0  3  0  0  0  0  0  0
  -26.0250  -26.7590   19.5630 C   0  0  0  0  0  3  0  0  0  0  0  0
  -24.8980  -27.6120   19.5400 C   0  0  0  0  0  3  0  0  0  0  0  0
  -23.6960  -29.7770   20.2020 C   0  0  0  0  0  2  0  0  0  0  0  0
  -24.7430  -31.0380   22.1190 N   0  0  0  0  0  0  0  0  0  0  0  0
  -23.5800  -32.1570   23.7310 O   0  0  0  0  0  0  0  0  0  0  0  0
  -22.7860  -29.4660   22.5440 C   0  0  0  0  0  0  0  0  0  0  0  0
  -21.4550  -29.3050   22.4270 N   0  0  0  0  0  0  0  0  0  0  0  0
  -23.4570  -28.8370   23.3670 O   0  0  0  0  0  0  0  0  0  0  0  0
  -20.9690  -29.8610   21.7390 H   0  0  0  0  0  0  0  0  0  0  0  0
  -18.0710  -28.1180   22.9540 C   0  0  0  0  0  0  0  0  0  0  0  0
  -20.6330  -28.3730   23.2050 C   0  0  0  0  0  3  0  0  0  0  0  0
  -20.7260  -26.9390   22.6330 C   0  0  0  0  0  2  0  0  0  0  0  0
  -19.6160  -26.6180   21.6260 C   0  0  0  0  0  2  0  0  0  0  0  0
  -18.2390  -26.7680   22.2780 C   0  0  0  0  0  2  0  0  0  0  0  0
  -19.1950  -28.8790   23.3760 C   0  0  0  0  0  0  0  0  0  0  0  0
  -18.9810  -30.1410   23.9700 C   0  0  0  0  0  3  0  0  0  0  0  0
  -17.6790  -30.6440   24.1470 C   0  0  0  0  0  3  0  0  0  0  0  0
  -16.5700  -29.8820   23.7410 C   0  0  0  0  0  3  0  0  0  0  0  0
  -16.7670  -28.6210   23.1500 C   0  0  0  0  0  3  0  0  0  0  0  0
  -25.9420  -32.5110   23.8320 C   0  0  0  0  0  3  0  0  0  0  0  0
  -25.6220  -33.9080   24.1730 N   0  0  0  0  0  0  0  0  0  0  0  0
  -25.9410  -34.9720   23.4250 C   0  0  0  0  0  0  0  0  0  0  0  0
  -26.6030  -34.8820   22.3880 O   0  0  0  0  0  0  0  0  0  0  0  0
  -25.0320  -34.0500   24.9800 H   0  0  0  0  0  0  0  0  0  0  0  0
  -24.2000  -36.7620   23.1100 C   0  0  0  0  0  1  0  0  0  0  0  0
  -25.4540  -36.3560   23.9010 C   0  0  0  0  0  3  0  0  0  0  0  0
  -27.5940  -37.2470   24.7130 C   0  0  0  0  0  1  0  0  0  0  0  0
  -26.4790  -37.4150   23.7840 N   0  0  0  0  0  0  0  0  0  0  0  0
  -26.0710  -38.3320   23.9430 H   0  0  0  0  0  0  0  0  0  0  0  0
  -26.4590  -31.7420   25.1110 C   0  0  1  0  0  0  0  0  0  0  0  0
  -25.3670  -31.5050   26.1800 C   0  0  0  0  0  1  0  0  0  0  0  0
  -27.0450  -30.3640   24.7250 C   0  0  0  0  0  1  0  0  0  0  0  0
  -27.6090  -32.5400   25.7710 C   0  0  0  0  0  1  0  0  0  0  0  0
  -30.1180  -17.8920   20.5580 C   0  0  0  0  0  2  0  0  0  0  0  0
  -30.4940  -15.1000   20.2630 C   0  0  0  0  0  0  0  0  0  0  0  0
  -30.3980  -12.7130   19.3380 C   0  0  0  0  0  2  0  0  0  0  0  0
  -29.4560  -12.5990   18.1150 C   0  0  0  0  0  2  0  0  0  0  0  0
  -28.0040  -12.3630   18.5680 C   0  0  0  0  0  2  0  0  0  0  0  0
  -27.5890  -13.3050   19.7270 C   0  0  0  0  0  3  0  0  0  0  0  0
  -28.6540  -13.3790   20.8410 C   0  0  0  0  0  2  0  0  0  0  0  0
  -29.8980  -13.8290   20.2020 N   0  0  0  0  0  0  0  0  0  0  0  0
  -31.7110  -15.1230   20.0380 O   0  0  0  0  0  0  0  0  0  0  0  0
  -29.7360  -16.3300   20.3780 N   0  0  0  0  0  0  0  0  0  0  0  0
  -28.7450  -16.1570   20.4550 H   0  0  0  0  0  0  0  0  0  0  0  0
  -25.2200  -13.8710   20.4960 C   0  0  0  0  0  0  0  0  0  0  0  0
  -24.1610  -13.0930   20.8750 C   0  0  0  0  0  0  0  0  0  0  0  0
  -24.6300  -11.7440   20.8410 C   0  0  0  0  0  0  0  0  0  0  0  0
  -26.2620  -12.9960   20.2450 N   0  0  0  0  0  0  0  0  0  0  0  0
  -25.9180  -11.7100   20.5200 N   0  0  0  0  0  0  0  0  0  0  0  0
  -23.9070  -10.4790   21.0350 C   0  0  0  0  0  0  0  0  0  0  0  0
  -24.3520   -9.5070   21.9560 C   0  0  0  0  0  3  0  0  0  0  0  0
  -23.6260   -8.3090   22.1400 C   0  0  0  0  0  3  0  0  0  0  0  0
  -22.4420   -8.0760   21.4010 C   0  0  0  0  0  0  0  0  0  0  0  0
  -22.0160   -9.0370   20.4680 C   0  0  0  0  0  3  0  0  0  0  0  0
  -22.7420  -10.2260   20.2820 C   0  0  0  0  0  3  0  0  0  0  0  0
  -21.6860   -6.9320   21.4950 O   0  0  0  0  0  0  0  0  0  0  0  0
  -21.6600   -6.1800   22.6420 C   0  0  0  0  0  0  0  0  0  0  0  0
  -21.2620   -6.7260   23.8820 C   0  0  0  0  0  3  0  0  0  0  0  0
  -21.1820   -5.9000   25.0210 C   0  0  0  0  0  3  0  0  0  0  0  0
  -21.4890   -4.5290   24.9220 C   0  0  0  0  0  0  0  0  0  0  0  0
  -21.8790   -3.9830   23.6860 C   0  0  0  0  0  3  0  0  0  0  0  0
  -21.9610   -4.8060   22.5490 C   0  0  0  0  0  0  0  0  0  0  0  0
  -22.3170   -4.2700   21.3570 F   0  0  0  0  0  0  0  0  0  0  0  0
  -21.4040   -3.7340   26.0140 F   0  0  0  0  0  0  0  0  0  0  0  0
  -22.7650  -13.5670   21.1530 C   0  0  0  0  0  0  0  0  0  0  0  0
  -22.0430  -12.8710   22.0240 N   0  0  0  0  0  0  0  0  0  0  0  0
  -22.3240  -14.5910   20.6320 O   0  0  0  0  0  0  0  0  0  0  0  0
  -22.4140  -12.0440   22.4670 H   0  0  0  0  0  0  0  0  0  0  0  0
  -21.1060  -13.1710   22.2520 H   0  0  0  0  0  0  0  0  0  0  0  0
  -25.3760  -15.2420   20.3160 N   0  0  0  0  0  0  0  0  0  0  0  0
  -24.6030  -15.8890   20.4290 H   0  0  0  0  0  0  0  0  0  0  0  0
  -26.2070  -15.6830   19.9450 H   0  0  0  0  0  0  0  0  0  0  0  0
  1  2  2  0
  2  8  1  0
  2  5  1  0
  3  1  1  0
  5  4  1  0
  6  3  1  0
  6  7  1  0
  6  5  1  0
  7 50  1  0
  7  4  1  0
  9  8  1  0
 10 21  2  0
 11  9  1  0
 11 16  1  0
 12 20  1  0
 12 22  1  0
 13 19  1  0
 13 15  1  0
 14 20  1  0
 15 16  2  0
 15 14  1  0
 17 11  2  0
 18 17  1  0
 18 13  2  0
 19 12  1  0
 20 10  1  0
 22 24  2  0
 23 22  1  0
 25 23  1  0
 26 35  2  0
 26 31  1  0
 27 23  1  0
 27 31  1  0
 28 27  1  0
 29 30  1  0
 29 28  1  0
 30 26  1  0
 31 32  2  0
 32 33  1  0
 34 33  2  0
 35 34  1  0
 36 10  1  0
 36 37  1  0
 36 46  1  0
 37 40  1  0
 38 42  1  0
 38 37  1  0
 39 38  2  0
 42 41  1  0
 44 42  1  0
 44 45  1  0
 44 43  1  0
 46 49  1  1
 46 47  1  0
 48 46  1  0
 51 59  1  0
 52 57  1  0
 53 54  1  0
 53 52  1  0
 55 54  1  0
 55 64  1  0
 55 56  1  0
 57 51  1  0
 57 56  1  0
 58 51  2  0
 59 60  1  0
 59 50  1  0
 61 62  2  0
 62 81  1  0
 63 62  1  0
 63 66  1  0
 64 61  1  0
 64 65  1  0
 65 63  2  0
 66 67  1  0
 67 68  2  0
 69 72  1  0
 69 68  1  0
 70 69  2  0
 71 70  1  0
 71 66  2  0
 72 73  1  0
 73 74  1  0
 74 75  2  0
 76 75  1  0
 76 80  1  0
 77 76  2  0
 78 73  2  0
 78 77  1  0
 79 78  1  0
 81 82  1  0
 82 85  1  0
 82 84  1  0
 83 81  2  0
 86 87  1  0
 86 61  1  0
 88 86  1  0
M  ISO  4   8 101   9 101  51 100  59 100
M  END
>  <TORSDO>  (95) 
F 18

>  <SCORE>  (95) 
-15.080

>  <name>  (95) 
94

>  <ligand_id>  (95) 
94

>  <original_smiles>  (95) 
[H]C1=C(C([H])([H])Oc2c([H])c([H])c3c(c2[H])C([H])([H])N(C(=O)C([H])(N([H])C(=O)C([H])(N([H])C([H])([H])[H])C([H])([H])[H])C(C([H])([H])[H])(C([H])([H])[H])C([H])([H])[H])C([H])(C(=O)N([H])C2([H])c4c([H])c([H])c([H])c([H])c4C([H])([H])C([H])([H])C2([H])[H])C3([H])[H])C2([H])C([H])([H])C([H])(C([H])([H])N([H])C(=O)N3C([H])([H])C([H])([H])C([H])([H])C([H])(n4nc(-c5c([H])c([H])c(Oc6c([H])c([H])c(F)c([H])c6F)c([H])c5[H])c(C(=O)N([H])[H])c4N([H])[H])C3([H])[H])C2([H])C1([H])[H]

>  <smiles>  (95) 
[H]C1=C(C([H])([H])Oc2c([H])c([H])c3c(c2[H])C([H])([H])N(C(=O)C([H])(N([H])C(=O)C([H])(N([H])C([H])([H])[H])C([H])([H])[H])C(C([H])([H])[H])(C([H])([H])[H])C([H])([H])[H])C([H])(C(=O)N([H])C2([H])c4c([H])c([H])c([H])c([H])c4C([H])([H])C([H])([H])C2([H])[H])C3([H])[H])C2([H])C([H])([H])C([H])(C([H])([H])N([H])C(=O)N3C([H])([H])C([H])([H])C([H])([H])C([H])(n4nc(-c5c([H])c([H])c(Oc6c([H])c([H])c(F)c([H])c6F)c([H])c5[H])c(C(=O)N([H])[H])c4N([H])[H])C3([H])[H])C2([H])C1([H])[H]

$$$$
95:0:0
     RDKit          3D

 89 99  0  0  1  0  0  0  0  0999 V2000
  -27.8320  -19.6120   21.1940 C   0  0  0  0  0  2  0  0  0  0  0  0
  -28.0110  -19.3750   19.2000 C   0  0  0  0  0  2  0  0  0  0  0  0
  -28.3690  -20.5590   20.1130 C   0  0  1  0  0  0  0  0  0  0  0  0
  -28.6970  -18.6420   20.3680 C   0  0  2  0  0  0  0  0  0  0  0  0
  -29.8760  -20.6890   20.2540 C   0  0  0  0  0  3  0  0  0  0  0  0
  -30.1790  -19.0100   20.4310 C   0  0  0  0  0  3  0  0  0  0  0  0
  -30.4700  -22.0260   19.4470 C   0  0  0  0  0  2  0  0  0  0  0  0
  -29.7360  -23.5340   19.1330 C   0  0  0  0  0  2  0  0  0  0  0  0
  -29.5350  -24.9170   20.0670 C   0  0  0  0  0  2  0  0  0  0  0  0
  -29.3890  -26.4040   19.6360 O   0  0  0  0  0  0  0  0  0  0  0  0
  -24.9820  -31.2340   23.0610 C   0  0  0  0  0  0  0  0  0  0  0  0
  -28.1960  -27.2000   19.7110 C   0  0  0  0  0  0  0  0  0  0  0  0
  -24.0230  -29.9430   21.1900 C   0  0  0  0  0  3  0  0  0  0  0  0
  -25.7030  -28.6890   19.7050 C   0  0  0  0  0  0  0  0  0  0  0  0
  -26.5370  -30.4730   21.2310 C   0  0  0  0  0  2  0  0  0  0  0  0
  -26.7930  -29.1820   20.4340 C   0  0  0  0  0  0  0  0  0  0  0  0
  -28.0420  -28.4610   20.4100 C   0  0  0  0  0  3  0  0  0  0  0  0
  -27.0700  -26.7870   18.9660 C   0  0  0  0  0  3  0  0  0  0  0  0
  -25.8530  -27.5070   18.9570 C   0  0  0  0  0  3  0  0  0  0  0  0
  -24.3910  -29.4550   19.7630 C   0  0  0  0  0  2  0  0  0  0  0  0
  -25.1960  -30.5680   21.8850 N   0  0  0  0  0  0  0  0  0  0  0  0
  -23.8470  -31.3490   23.5420 O   0  0  0  0  0  0  0  0  0  0  0  0
  -23.3960  -28.7700   21.9830 C   0  0  0  0  0  0  0  0  0  0  0  0
  -22.0910  -28.5240   21.7790 N   0  0  0  0  0  0  0  0  0  0  0  0
  -24.0870  -28.0860   22.7410 O   0  0  0  0  0  0  0  0  0  0  0  0
  -21.5860  -29.1330   21.1500 H   0  0  0  0  0  0  0  0  0  0  0  0
  -18.7820  -27.0710   22.0320 C   0  0  0  0  0  0  0  0  0  0  0  0
  -21.3190  -27.4350   22.3830 C   0  0  0  0  0  3  0  0  0  0  0  0
  -21.5100  -26.1170   21.6000 C   0  0  0  0  0  2  0  0  0  0  0  0
  -20.4380  -25.8870   20.5330 C   0  0  0  0  0  2  0  0  0  0  0  0
  -19.0450  -25.8530   21.1650 C   0  0  0  0  0  2  0  0  0  0  0  0
  -19.8510  -27.8230   22.5940 C   0  0  0  0  0  0  0  0  0  0  0  0
  -19.5500  -28.9630   23.3680 C   0  0  0  0  0  3  0  0  0  0  0  0
  -18.2170  -29.3560   23.5860 C   0  0  0  0  0  3  0  0  0  0  0  0
  -17.1640  -28.6010   23.0410 C   0  0  0  0  0  3  0  0  0  0  0  0
  -17.4480  -27.4590   22.2720 C   0  0  0  0  0  3  0  0  0  0  0  0
  -26.1550  -31.9030   23.8440 C   0  0  0  0  0  3  0  0  0  0  0  0
  -26.5980  -31.0810   25.1180 C   0  0  1  0  0  0  0  0  0  0  0  0
  -25.4280  -30.7160   26.0610 C   0  0  0  0  0  1  0  0  0  0  0  0
  -27.2960  -29.7640   24.7090 C   0  0  0  0  0  1  0  0  0  0  0  0
  -27.6320  -31.8960   25.9320 C   0  0  0  0  0  1  0  0  0  0  0  0
  -25.7210  -33.2530   24.2310 N   0  0  0  0  0  0  0  0  0  0  0  0
  -26.0540  -34.3780   23.5840 C   0  0  0  0  0  0  0  0  0  0  0  0
  -26.8270  -34.3890   22.6210 O   0  0  0  0  0  0  0  0  0  0  0  0
  -25.0410  -33.3150   24.9750 H   0  0  0  0  0  0  0  0  0  0  0  0
  -24.2520  -36.0880   23.1860 C   0  0  0  0  0  1  0  0  0  0  0  0
  -25.4380  -35.6990   24.0830 C   0  0  0  0  0  3  0  0  0  0  0  0
  -27.4150  -36.6530   25.1830 C   0  0  0  0  0  1  0  0  0  0  0  0
  -26.4050  -36.8180   24.1410 N   0  0  0  0  0  0  0  0  0  0  0  0
  -25.9240  -37.7010   24.3000 H   0  0  0  0  0  0  0  0  0  0  0  0
  -31.0690  -17.7800   19.7090 C   0  0  0  0  0  2  0  0  0  0  0  0
  -31.6640  -15.0740   19.8400 C   0  0  0  0  0  0  0  0  0  0  0  0
  -31.4410  -12.7180   18.9380 C   0  0  0  0  0  2  0  0  0  0  0  0
  -30.4430  -12.7180   17.7550 C   0  0  0  0  0  2  0  0  0  0  0  0
  -28.9940  -12.5700   18.2550 C   0  0  0  0  0  2  0  0  0  0  0  0
  -28.6850  -13.4920   19.4630 C   0  0  0  0  0  3  0  0  0  0  0  0
  -29.7980  -13.4470   20.5320 C   0  0  0  0  0  2  0  0  0  0  0  0
  -31.0540  -13.8210   19.8660 N   0  0  0  0  0  0  0  0  0  0  0  0
  -32.8140  -15.1420   19.3940 O   0  0  0  0  0  0  0  0  0  0  0  0
  -30.9270  -16.2530   20.1280 N   0  0  0  0  0  0  0  0  0  0  0  0
  -30.0430  -16.0470   20.5670 H   0  0  0  0  0  0  0  0  0  0  0  0
  -26.3850  -14.1500   20.3680 C   0  0  0  0  0  0  0  0  0  0  0  0
  -25.3100  -13.4110   20.7740 C   0  0  0  0  0  0  0  0  0  0  0  0
  -25.6990  -12.0440   20.6490 C   0  0  0  0  0  0  0  0  0  0  0  0
  -27.3650  -13.2330   20.0270 N   0  0  0  0  0  0  0  0  0  0  0  0
  -26.9630  -11.9550   20.2520 N   0  0  0  0  0  0  0  0  0  0  0  0
  -24.9180  -10.8120   20.8270 C   0  0  0  0  0  0  0  0  0  0  0  0
  -25.2560   -9.8590   21.8120 C   0  0  0  0  0  3  0  0  0  0  0  0
  -24.4800   -8.6920   21.9770 C   0  0  0  0  0  3  0  0  0  0  0  0
  -23.3500   -8.4690   21.1560 C   0  0  0  0  0  0  0  0  0  0  0  0
  -23.0320   -9.4090   20.1590 C   0  0  0  0  0  3  0  0  0  0  0  0
  -23.8080  -10.5660   19.9930 C   0  0  0  0  0  3  0  0  0  0  0  0
  -22.5490   -7.3550   21.2300 O   0  0  0  0  0  0  0  0  0  0  0  0
  -22.2420   -6.7670   22.4300 C   0  0  0  0  0  0  0  0  0  0  0  0
  -21.5570   -7.4660   23.4490 C   0  0  0  0  0  3  0  0  0  0  0  0
  -21.1980   -6.8010   24.6380 C   0  0  0  0  0  3  0  0  0  0  0  0
  -21.5140   -5.4410   24.8100 C   0  0  0  0  0  0  0  0  0  0  0  0
  -22.1910   -4.7420   23.7940 C   0  0  0  0  0  3  0  0  0  0  0  0
  -22.5510   -5.4040   22.6070 C   0  0  0  0  0  0  0  0  0  0  0  0
  -23.1840   -4.7190   21.6240 F   0  0  0  0  0  0  0  0  0  0  0  0
  -21.1630   -4.8010   25.9500 F   0  0  0  0  0  0  0  0  0  0  0  0
  -23.9620  -13.9440   21.1620 C   0  0  0  0  0  0  0  0  0  0  0  0
  -23.2680  -13.2560   22.0610 N   0  0  0  0  0  0  0  0  0  0  0  0
  -23.5400  -15.0050   20.7070 O   0  0  0  0  0  0  0  0  0  0  0  0
  -23.6280  -12.3980   22.4520 H   0  0  0  0  0  0  0  0  0  0  0  0
  -22.3640  -13.5930   22.3610 H   0  0  0  0  0  0  0  0  0  0  0  0
  -26.6070  -15.5180   20.2350 N   0  0  0  0  0  0  0  0  0  0  0  0
  -25.8670  -16.1960   20.3860 H   0  0  0  0  0  0  0  0  0  0  0  0
  -27.4220  -15.9200   19.7900 H   0  0  0  0  0  0  0  0  0  0  0  0
  3  2  1  6
  3  5  1  0
  3  4  1  0
  3  1  1  0
  4  2  1  6
  4  6  1  0
  4  1  1  0
  5  7  1  0
  5  6  1  0
  6 51  1  0
  8  7  1  0
  8  9  1  0
 10 12  1  0
 10  9  1  0
 11 22  2  0
 12 17  1  0
 13 21  1  0
 13 23  1  0
 14 20  1  0
 14 16  1  0
 15 21  1  0
 16 15  1  0
 17 16  2  0
 18 12  2  0
 19 18  1  0
 19 14  2  0
 20 13  1  0
 21 11  1  0
 23 25  2  0
 24 23  1  0
 26 24  1  0
 27 36  2  0
 27 32  1  0
 28 24  1  0
 28 32  1  0
 29 28  1  0
 30 31  1  0
 30 29  1  0
 31 27  1  0
 32 33  2  0
 33 34  1  0
 35 34  2  0
 36 35  1  0
 37 11  1  0
 37 42  1  0
 37 38  1  0
 38 41  1  1
 38 39  1  0
 40 38  1  0
 42 45  1  0
 43 47  1  0
 43 42  1  0
 44 43  2  0
 47 46  1  0
 47 49  1  0
 49 50  1  0
 49 48  1  0
 51 60  1  0
 52 58  1  0
 52 60  1  0
 53 58  1  0
 54 55  1  0
 54 53  1  0
 56 55  1  0
 56 65  1  0
 56 57  1  0
 58 57  1  0
 59 52  2  0
 60 61  1  0
 62 63  2  0
 63 82  1  0
 64 63  1  0
 64 67  1  0
 65 66  1  0
 65 62  1  0
 66 64  2  0
 67 68  1  0
 68 69  2  0
 70 73  1  0
 70 69  1  0
 71 70  2  0
 72 71  1  0
 72 67  2  0
 73 74  1  0
 74 79  2  0
 74 75  1  0
 75 76  2  0
 76 77  1  0
 77 81  1  0
 78 77  2  0
 79 78  1  0
 80 79  1  0
 82 83  1  0
 83 86  1  0
 83 85  1  0
 84 82  2  0
 87 62  1  0
 87 88  1  0
 89 87  1  0
M  ISO  4   9 101  10 101  52 100  60 100
M  END
>  <TORSDO>  (96) 
F 20

>  <SCORE>  (96) 
-9.847

>  <name>  (96) 
95

>  <ligand_id>  (96) 
95

>  <original_smiles>  (96) 
[H]c1c([H])c([H])c2c(c1[H])C([H])([H])C([H])([H])C([H])([H])C2([H])N([H])C(=O)C1([H])N(C(=O)C([H])(N([H])C(=O)C([H])(N([H])C([H])([H])[H])C([H])([H])[H])C(C([H])([H])[H])(C([H])([H])[H])C([H])([H])[H])C([H])([H])c2c([H])c(OC([H])([H])C([H])([H])C([H])([H])C3([H])C4([H])C([H])([H])C([H])(C4([H])[H])C3([H])C([H])([H])N([H])C(=O)N3C([H])([H])C([H])([H])C([H])([H])C([H])(n4nc(-c5c([H])c([H])c(Oc6c([H])c([H])c(F)c([H])c6F)c([H])c5[H])c(C(=O)N([H])[H])c4N([H])[H])C3([H])[H])c([H])c([H])c2C1([H])[H]

>  <smiles>  (96) 
[H]c1c([H])c([H])c2c(c1[H])C([H])([H])C([H])([H])C([H])([H])C2([H])N([H])C(=O)C1([H])N(C(=O)C([H])(N([H])C(=O)C([H])(N([H])C([H])([H])[H])C([H])([H])[H])C(C([H])([H])[H])(C([H])([H])[H])C([H])([H])[H])C([H])([H])c2c([H])c(OC([H])([H])C([H])([H])C([H])([H])C3([H])C4([H])C([H])([H])C([H])(C4([H])[H])C3([H])C([H])([H])N([H])C(=O)N3C([H])([H])C([H])([H])C([H])([H])C([H])(n4nc(-c5c([H])c([H])c(Oc6c([H])c([H])c(F)c([H])c6F)c([H])c5[H])c(C(=O)N([H])[H])c4N([H])[H])C3([H])[H])c([H])c([H])c2C1([H])[H]

$$$$
96:0:0
     RDKit          3D

 91 99  0  0  1  0  0  0  0  0999 V2000
  -26.9220  -22.4930   21.6960 C   0  0  0  0  0  2  0  0  0  0  0  0
  -27.0630  -21.4860   20.5450 C   0  0  0  0  0  2  0  0  0  0  0  0
  -27.4020  -23.8960   21.2880 C   0  0  0  0  0  2  0  0  0  0  0  0
  -29.4360  -22.4930   20.5790 C   0  0  0  0  0  2  0  0  0  0  0  0
  -28.4510  -21.5320   19.8610 C   0  0  0  0  0  3  0  0  0  0  0  0
  -28.8440  -23.9290   20.7110 C   0  0  0  0  0  3  0  0  0  0  0  0
  -29.0090  -20.1240   19.5240 C   0  0  0  0  0  2  0  0  0  0  0  0
  -29.4080  -19.2460   20.7060 C   0  0  0  0  0  3  0  0  0  0  0  0
  -30.3470  -18.2790   20.5880 C   0  0  0  0  0  3  0  0  0  0  0  0
  -31.3020  -17.2570   21.2220 C   0  0  0  0  0  2  0  0  0  0  0  0
  -31.5090  -14.8450   20.5430 C   0  0  0  0  0  0  0  0  0  0  0  0
  -31.1900  -12.6860   19.4030 C   0  0  0  0  0  2  0  0  0  0  0  0
  -30.2960  -12.9030   18.1670 C   0  0  0  0  0  2  0  0  0  0  0  0
  -28.8070  -12.8100   18.5530 C   0  0  0  0  0  2  0  0  0  0  0  0
  -28.4490  -13.6660   19.7980 C   0  0  0  0  0  3  0  0  0  0  0  0
  -29.4620  -13.4290   20.9390 C   0  0  0  0  0  2  0  0  0  0  0  0
  -30.8110  -13.6880   20.4090 N   0  0  0  0  0  0  0  0  0  0  0  0
  -32.6430  -15.0070   20.0840 O   0  0  0  0  0  0  0  0  0  0  0  0
  -30.8310  -15.8670   21.0970 N   0  0  0  0  0  0  0  0  0  0  0  0
  -29.9020  -15.6600   21.4320 H   0  0  0  0  0  0  0  0  0  0  0  0
  -26.0460  -14.3300   20.4280 C   0  0  0  0  0  0  0  0  0  0  0  0
  -24.9450  -13.5860   20.7590 C   0  0  0  0  0  0  0  0  0  0  0  0
  -25.3710  -12.2220   20.7310 C   0  0  0  0  0  0  0  0  0  0  0  0
  -27.0740  -13.4240   20.2290 N   0  0  0  0  0  0  0  0  0  0  0  0
  -26.6690  -12.1520   20.4660 N   0  0  0  0  0  0  0  0  0  0  0  0
  -24.6050  -10.9790   20.8860 C   0  0  0  0  0  0  0  0  0  0  0  0
  -24.9330  -10.0300   21.8780 C   0  0  0  0  0  3  0  0  0  0  0  0
  -24.1730   -8.8500   22.0190 C   0  0  0  0  0  3  0  0  0  0  0  0
  -23.0710   -8.6080   21.1660 C   0  0  0  0  0  0  0  0  0  0  0  0
  -22.7620   -9.5470   20.1660 C   0  0  0  0  0  3  0  0  0  0  0  0
  -23.5220  -10.7200   20.0240 C   0  0  0  0  0  3  0  0  0  0  0  0
  -22.2920   -7.4770   21.2120 O   0  0  0  0  0  0  0  0  0  0  0  0
  -22.0470   -6.8210   22.3900 C   0  0  0  0  0  0  0  0  0  0  0  0
  -21.4210   -7.4590   23.4830 C   0  0  0  0  0  3  0  0  0  0  0  0
  -21.1260   -6.7280   24.6510 C   0  0  0  0  0  3  0  0  0  0  0  0
  -21.4470   -5.3600   24.7260 C   0  0  0  0  0  0  0  0  0  0  0  0
  -22.0660   -4.7210   23.6370 C   0  0  0  0  0  3  0  0  0  0  0  0
  -22.3620   -5.4490   22.4730 C   0  0  0  0  0  0  0  0  0  0  0  0
  -22.9390   -4.8240   21.4170 F   0  0  0  0  0  0  0  0  0  0  0  0
  -21.1560   -4.6550   25.8450 F   0  0  0  0  0  0  0  0  0  0  0  0
  -23.5540  -14.0980   20.9910 C   0  0  0  0  0  0  0  0  0  0  0  0
  -22.7860  -13.4270   21.8450 N   0  0  0  0  0  0  0  0  0  0  0  0
  -23.1550  -15.1310   20.4550 O   0  0  0  0  0  0  0  0  0  0  0  0
  -23.1160  -12.5840   22.2920 H   0  0  0  0  0  0  0  0  0  0  0  0
  -21.8570  -13.7640   22.0530 H   0  0  0  0  0  0  0  0  0  0  0  0
  -26.2550  -15.6960   20.2570 N   0  0  0  0  0  0  0  0  0  0  0  0
  -25.5020  -16.3690   20.3160 H   0  0  0  0  0  0  0  0  0  0  0  0
  -27.1150  -16.0940   19.9010 H   0  0  0  0  0  0  0  0  0  0  0  0
  -29.7950  -24.8870   21.4810 C   0  0  0  0  0  2  0  0  0  0  0  0
  -29.3380  -26.3590   21.6700 C   0  0  0  0  0  2  0  0  0  0  0  0
  -29.0810  -27.0180   20.4290 O   0  0  0  0  0  0  0  0  0  0  0  0
  -24.8310  -31.9080   23.4310 C   0  0  0  0  0  0  0  0  0  0  0  0
  -27.8990  -27.7200   20.4000 C   0  0  0  0  0  0  0  0  0  0  0  0
  -23.8060  -30.4900   21.6810 C   0  0  0  0  0  3  0  0  0  0  0  0
  -25.4290  -29.0790   20.3070 C   0  0  0  0  0  0  0  0  0  0  0  0
  -26.3150  -30.9940   21.6480 C   0  0  0  0  0  2  0  0  0  0  0  0
  -26.5140  -29.6490   20.9840 C   0  0  0  0  0  0  0  0  0  0  0  0
  -27.7540  -28.9730   21.0370 C   0  0  0  0  0  3  0  0  0  0  0  0
  -26.8050  -27.1610   19.7140 C   0  0  0  0  0  3  0  0  0  0  0  0
  -25.5660  -27.8320   19.6710 C   0  0  0  0  0  3  0  0  0  0  0  0
  -24.1350  -29.8640   20.2990 C   0  0  0  0  0  2  0  0  0  0  0  0
  -24.9980  -31.1470   22.3110 N   0  0  0  0  0  0  0  0  0  0  0  0
  -23.7070  -32.1030   23.9110 O   0  0  0  0  0  0  0  0  0  0  0  0
  -23.1640  -29.4030   22.5740 C   0  0  0  0  0  0  0  0  0  0  0  0
  -21.8540  -29.1720   22.3890 N   0  0  0  0  0  0  0  0  0  0  0  0
  -23.8420  -28.7730   23.3900 O   0  0  0  0  0  0  0  0  0  0  0  0
  -21.3680  -29.7370   21.7060 H   0  0  0  0  0  0  0  0  0  0  0  0
  -18.5020  -27.8760   22.7520 C   0  0  0  0  0  0  0  0  0  0  0  0
  -21.0480  -28.1700   23.0840 C   0  0  0  0  0  3  0  0  0  0  0  0
  -21.1920  -26.7800   22.4230 C   0  0  0  0  0  2  0  0  0  0  0  0
  -20.1140  -26.4950   21.3730 C   0  0  0  0  0  2  0  0  0  0  0  0
  -18.7180  -26.5730   22.0000 C   0  0  0  0  0  2  0  0  0  0  0  0
  -19.5950  -28.6320   23.2480 C   0  0  0  0  0  0  0  0  0  0  0  0
  -19.3400  -29.8550   23.9070 C   0  0  0  0  0  3  0  0  0  0  0  0
  -18.0220  -30.3170   24.0790 C   0  0  0  0  0  3  0  0  0  0  0  0
  -16.9420  -29.5550   23.6000 C   0  0  0  0  0  3  0  0  0  0  0  0
  -17.1830  -28.3350   22.9430 C   0  0  0  0  0  3  0  0  0  0  0  0
  -26.0410  -32.5900   24.1440 C   0  0  0  0  0  3  0  0  0  0  0  0
  -25.6800  -33.9930   24.3790 N   0  0  0  0  0  0  0  0  0  0  0  0
  -26.0610  -35.0180   23.6030 C   0  0  0  0  0  0  0  0  0  0  0  0
  -26.8220  -34.8820   22.6410 O   0  0  0  0  0  0  0  0  0  0  0  0
  -25.0140  -34.1710   25.1170 H   0  0  0  0  0  0  0  0  0  0  0  0
  -24.3270  -36.7430   23.0190 C   0  0  0  0  0  1  0  0  0  0  0  0
  -25.5070  -36.4130   23.9480 C   0  0  0  0  0  3  0  0  0  0  0  0
  -27.5440  -37.3960   24.9020 C   0  0  0  0  0  1  0  0  0  0  0  0
  -26.5220  -37.4850   23.8620 N   0  0  0  0  0  0  0  0  0  0  0  0
  -26.0860  -38.4010   23.9210 H   0  0  0  0  0  0  0  0  0  0  0  0
  -26.4450  -31.8830   25.4960 C   0  0  1  0  0  0  0  0  0  0  0  0
  -25.2490  -31.6190   26.4420 C   0  0  0  0  0  1  0  0  0  0  0  0
  -27.1350  -30.5290   25.2180 C   0  0  0  0  0  1  0  0  0  0  0  0
  -27.4760  -32.7540   26.2520 C   0  0  0  0  0  1  0  0  0  0  0  0
  2  1  1  0
  3  1  1  0
  4  6  1  0
  5  7  1  0
  5  2  1  0
  5  4  1  0
  6  3  1  0
  6 49  1  0
  7  8  1  0
  9  8  2  0
  9 10  1  0
 11 19  1  0
 12 17  1  0
 13 14  1  0
 13 12  1  0
 15 14  1  0
 15 24  1  0
 15 16  1  0
 17 11  1  0
 17 16  1  0
 18 11  2  0
 19 10  1  0
 19 20  1  0
 21 22  2  0
 22 41  1  0
 23 22  1  0
 23 26  1  0
 24 21  1  0
 24 25  1  0
 25 23  2  0
 26 27  1  0
 27 28  2  0
 29 32  1  0
 29 28  1  0
 30 29  2  0
 31 30  1  0
 31 26  2  0
 32 33  1  0
 33 38  2  0
 33 34  1  0
 34 35  2  0
 35 36  1  0
 36 40  1  0
 37 36  2  0
 38 37  1  0
 39 38  1  0
 41 42  1  0
 42 45  1  0
 42 44  1  0
 43 41  2  0
 46 47  1  0
 46 21  1  0
 48 46  1  0
 49 50  1  0
 51 50  1  0
 52 63  2  0
 53 51  1  0
 53 58  1  0
 54 62  1  0
 54 64  1  0
 55 57  1  0
 56 62  1  0
 57 58  2  0
 57 56  1  0
 59 53  2  0
 60 59  1  0
 60 55  2  0
 61 55  1  0
 61 54  1  0
 62 52  1  0
 64 66  2  0
 65 64  1  0
 67 65  1  0
 68 77  2  0
 68 73  1  0
 69 65  1  0
 69 73  1  0
 70 69  1  0
 71 72  1  0
 71 70  1  0
 72 68  1  0
 73 74  2  0
 74 75  1  0
 76 75  2  0
 77 76  1  0
 78 52  1  0
 78 79  1  0
 78 88  1  0
 79 82  1  0
 80 84  1  0
 80 79  1  0
 81 80  2  0
 84 83  1  0
 86 87  1  0
 86 84  1  0
 86 85  1  0
 88 91  1  1
 88 89  1  0
 90 88  1  0
M  ISO  4  11 100  19 100  50 101  51 101
M  END
>  <TORSDO>  (97) 
F 21

>  <SCORE>  (97) 
-11.567

>  <name>  (97) 
96

>  <ligand_id>  (97) 
96

>  <original_smiles>  (97) 
[H]C(=C([H])C([H])([H])C1([H])C([H])([H])C([H])([H])C([H])([H])C([H])(C([H])([H])C([H])([H])Oc2c([H])c([H])c3c(c2[H])C([H])([H])N(C(=O)C([H])(N([H])C(=O)C([H])(N([H])C([H])([H])[H])C([H])([H])[H])C(C([H])([H])[H])(C([H])([H])[H])C([H])([H])[H])C([H])(C(=O)N([H])C2([H])c4c([H])c([H])c([H])c([H])c4C([H])([H])C([H])([H])C2([H])[H])C3([H])[H])C1([H])[H])C([H])([H])N([H])C(=O)N1C([H])([H])C([H])([H])C([H])([H])C([H])(n2nc(-c3c([H])c([H])c(Oc4c([H])c([H])c(F)c([H])c4F)c([H])c3[H])c(C(=O)N([H])[H])c2N([H])[H])C1([H])[H]

>  <smiles>  (97) 
[H]C(=C([H])C([H])([H])C1([H])C([H])([H])C([H])([H])C([H])([H])C([H])(C([H])([H])C([H])([H])Oc2c([H])c([H])c3c(c2[H])C([H])([H])N(C(=O)C([H])(N([H])C(=O)C([H])(N([H])C([H])([H])[H])C([H])([H])[H])C(C([H])([H])[H])(C([H])([H])[H])C([H])([H])[H])C([H])(C(=O)N([H])C2([H])c4c([H])c([H])c([H])c([H])c4C([H])([H])C([H])([H])C2([H])[H])C3([H])[H])C1([H])[H])C([H])([H])N([H])C(=O)N1C([H])([H])C([H])([H])C([H])([H])C([H])(n2nc(-c3c([H])c([H])c(Oc4c([H])c([H])c(F)c([H])c4F)c([H])c3[H])c(C(=O)N([H])[H])c2N([H])[H])C1([H])[H]

$$$$
97:0:0
     RDKit          3D

 93101  0  0  1  0  0  0  0  0999 V2000
  -29.3720  -18.5420   20.9680 C   0  0  0  0  0  3  0  0  0  0  0  0
  -27.8510  -18.4700   17.4110 C   0  0  0  0  0  3  0  0  0  0  0  0
  -28.7960  -18.4900   18.4580 C   0  0  0  0  0  3  0  0  0  0  0  0
  -26.4720  -18.5090   17.6970 C   0  0  0  0  0  3  0  0  0  0  0  0
  -26.9830  -18.5590   20.0800 C   0  0  0  0  0  3  0  0  0  0  0  0
  -28.3720  -18.5300   19.8060 C   0  0  0  0  0  0  0  0  0  0  0  0
  -26.0380  -18.5580   19.0340 C   0  0  0  0  0  0  0  0  0  0  0  0
  -24.7140  -18.5940   19.3160 F   0  0  0  0  0  0  0  0  0  0  0  0
  -29.8920  -20.0170   21.3390 C   0  0  0  0  0  3  0  0  0  0  0  0
  -29.1300  -21.3520   20.8800 C   0  0  0  0  0  3  0  0  0  0  0  0
  -29.5300  -22.7510   21.5440 C   0  0  0  0  0  2  0  0  0  0  0  0
  -29.1980  -24.1250   20.7910 C   0  0  0  0  0  3  0  0  0  0  0  0
  -29.0930  -25.4520   21.6710 C   0  0  0  0  0  3  0  0  0  0  0  0
  -29.1540  -26.7910   21.0540 O   0  0  0  0  0  0  0  0  0  0  0  0
  -24.8030  -32.0280   23.4600 C   0  0  0  0  0  0  0  0  0  0  0  0
  -27.9750  -27.5310   20.9260 C   0  0  0  0  0  0  0  0  0  0  0  0
  -23.8570  -30.4930   21.7700 C   0  0  0  0  0  3  0  0  0  0  0  0
  -25.5350  -28.9690   20.5860 C   0  0  0  0  0  0  0  0  0  0  0  0
  -26.3780  -30.9630   21.8300 C   0  0  0  0  0  2  0  0  0  0  0  0
  -26.6020  -29.5640   21.2710 C   0  0  0  0  0  0  0  0  0  0  0  0
  -27.8290  -28.8570   21.4270 C   0  0  0  0  0  3  0  0  0  0  0  0
  -26.8910  -26.9690   20.2230 C   0  0  0  0  0  3  0  0  0  0  0  0
  -25.6820  -27.6750   20.0500 C   0  0  0  0  0  3  0  0  0  0  0  0
  -24.2550  -29.7710   20.4570 C   0  0  0  0  0  2  0  0  0  0  0  0
  -25.0240  -31.1840   22.4110 N   0  0  0  0  0  0  0  0  0  0  0  0
  -23.6570  -32.2640   23.8670 O   0  0  0  0  0  0  0  0  0  0  0  0
  -23.1550  -29.4810   22.7060 C   0  0  0  0  0  0  0  0  0  0  0  0
  -21.8560  -29.2320   22.4660 N   0  0  0  0  0  0  0  0  0  0  0  0
  -23.7810  -28.9180   23.6080 O   0  0  0  0  0  0  0  0  0  0  0  0
  -21.4080  -29.7400   21.7170 H   0  0  0  0  0  0  0  0  0  0  0  0
  -18.4940  -27.9320   22.7270 C   0  0  0  0  0  0  0  0  0  0  0  0
  -21.0130  -28.2830   23.1940 C   0  0  0  0  0  3  0  0  0  0  0  0
  -21.2060  -26.8440   22.6630 C   0  0  0  0  0  2  0  0  0  0  0  0
  -20.2010  -26.4650   21.5720 C   0  0  0  0  0  2  0  0  0  0  0  0
  -18.7670  -26.5760   22.0990 C   0  0  0  0  0  2  0  0  0  0  0  0
  -19.5500  -28.7400   23.2260 C   0  0  0  0  0  0  0  0  0  0  0  0
  -19.2420  -30.0080   23.7650 C   0  0  0  0  0  3  0  0  0  0  0  0
  -17.9120  -30.4660   23.8170 C   0  0  0  0  0  3  0  0  0  0  0  0
  -16.8700  -29.6550   23.3380 C   0  0  0  0  0  3  0  0  0  0  0  0
  -17.1620  -28.3910   22.7950 C   0  0  0  0  0  3  0  0  0  0  0  0
  -25.9770  -32.7590   24.1810 C   0  0  0  0  0  3  0  0  0  0  0  0
  -25.5800  -34.1610   24.3710 N   0  0  0  0  0  0  0  0  0  0  0  0
  -25.9440  -35.1730   23.5690 C   0  0  0  0  0  0  0  0  0  0  0  0
  -26.7210  -35.0270   22.6220 O   0  0  0  0  0  0  0  0  0  0  0  0
  -24.9010  -34.3440   25.0950 H   0  0  0  0  0  0  0  0  0  0  0  0
  -24.1830  -36.8440   22.9150 C   0  0  0  0  0  1  0  0  0  0  0  0
  -25.3530  -36.5630   23.8710 C   0  0  0  0  0  3  0  0  0  0  0  0
  -27.3580  -37.6150   24.8250 C   0  0  0  0  0  1  0  0  0  0  0  0
  -26.3430  -37.6570   23.7740 N   0  0  0  0  0  0  0  0  0  0  0  0
  -25.8820  -38.5610   23.8150 H   0  0  0  0  0  0  0  0  0  0  0  0
  -26.3610  -32.1010   25.5640 C   0  0  1  0  0  0  0  0  0  0  0  0
  -25.1530  -31.8620   26.4980 C   0  0  0  0  0  1  0  0  0  0  0  0
  -27.0680  -30.7440   25.3430 C   0  0  0  0  0  1  0  0  0  0  0  0
  -27.3660  -33.0080   26.3150 C   0  0  0  0  0  1  0  0  0  0  0  0
  -30.5080  -17.4070   20.8760 C   0  0  0  0  0  2  0  0  0  0  0  0
  -30.8950  -14.8710   20.5140 C   0  0  0  0  0  0  0  0  0  0  0  0
  -30.6750  -12.7030   19.3170 C   0  0  0  0  0  2  0  0  0  0  0  0
  -29.7630  -12.9430   18.0940 C   0  0  0  0  0  2  0  0  0  0  0  0
  -28.2790  -12.7820   18.4820 C   0  0  0  0  0  2  0  0  0  0  0  0
  -27.9110  -13.5610   19.7730 C   0  0  0  0  0  3  0  0  0  0  0  0
  -28.9420  -13.3200   20.8970 C   0  0  0  0  0  2  0  0  0  0  0  0
  -30.2610  -13.6660   20.3570 N   0  0  0  0  0  0  0  0  0  0  0  0
  -32.0760  -15.0150   20.1880 O   0  0  0  0  0  0  0  0  0  0  0  0
  -30.1110  -15.9500   20.8410 N   0  0  0  0  0  0  0  0  0  0  0  0
  -29.1450  -15.7500   21.0470 H   0  0  0  0  0  0  0  0  0  0  0  0
  -25.4860  -14.1420   20.3810 C   0  0  0  0  0  0  0  0  0  0  0  0
  -24.4180  -13.3660   20.7400 C   0  0  0  0  0  0  0  0  0  0  0  0
  -24.9000  -12.0220   20.7740 C   0  0  0  0  0  0  0  0  0  0  0  0
  -26.5500  -13.2710   20.2140 N   0  0  0  0  0  0  0  0  0  0  0  0
  -26.2020  -11.9930   20.5150 N   0  0  0  0  0  0  0  0  0  0  0  0
  -24.1870  -10.7570   20.9830 C   0  0  0  0  0  0  0  0  0  0  0  0
  -24.5660   -9.8530   22.0010 C   0  0  0  0  0  3  0  0  0  0  0  0
  -23.8490   -8.6530   22.1930 C   0  0  0  0  0  3  0  0  0  0  0  0
  -22.7390   -8.3480   21.3700 C   0  0  0  0  0  0  0  0  0  0  0  0
  -22.3800   -9.2410   20.3450 C   0  0  0  0  0  3  0  0  0  0  0  0
  -23.0970  -10.4330   20.1500 C   0  0  0  0  0  3  0  0  0  0  0  0
  -21.9980   -7.1940   21.4680 O   0  0  0  0  0  0  0  0  0  0  0  0
  -21.8490   -6.5350   22.6620 C   0  0  0  0  0  0  0  0  0  0  0  0
  -21.2800   -7.1610   23.7940 C   0  0  0  0  0  3  0  0  0  0  0  0
  -21.0770   -6.4240   24.9770 C   0  0  0  0  0  3  0  0  0  0  0  0
  -21.4360   -5.0630   25.0330 C   0  0  0  0  0  0  0  0  0  0  0  0
  -21.9980   -4.4390   23.9040 C   0  0  0  0  0  3  0  0  0  0  0  0
  -22.2030   -5.1720   22.7240 C   0  0  0  0  0  0  0  0  0  0  0  0
  -22.7240   -4.5590   21.6340 F   0  0  0  0  0  0  0  0  0  0  0  0
  -21.2360   -4.3540   26.1680 F   0  0  0  0  0  0  0  0  0  0  0  0
  -23.0050  -13.8350   20.9390 C   0  0  0  0  0  0  0  0  0  0  0  0
  -22.2530  -13.1680   21.8050 N   0  0  0  0  0  0  0  0  0  0  0  0
  -22.5730  -14.8290   20.3560 O   0  0  0  0  0  0  0  0  0  0  0  0
  -22.6120  -12.3640   22.2990 H   0  0  0  0  0  0  0  0  0  0  0  0
  -21.3060  -13.4720   21.9830 H   0  0  0  0  0  0  0  0  0  0  0  0
  -25.6360  -15.5040   20.1610 N   0  0  0  0  0  0  0  0  0  0  0  0
  -24.8350  -16.1260   20.1770 H   0  0  0  0  0  0  0  0  0  0  0  0
  -26.4610  -15.9360   19.7640 H   0  0  0  0  0  0  0  0  0  0  0  0
  1 55  1  0
  1  9  1  0
  2  4  2  0
  2  3  1  0
  3  6  2  0
  4  7  1  0
  6  5  1  0
  6  1  1  0
  7  8  1  0
  7  5  2  0
 10  9  2  0
 10 11  1  0
 12 11  1  0
 12 13  2  0
 14 13  1  0
 15 26  2  0
 16 14  1  0
 16 21  1  0
 17 25  1  0
 17 27  1  0
 18 20  1  0
 19 25  1  0
 20 21  2  0
 20 19  1  0
 22 16  2  0
 23 22  1  0
 23 18  2  0
 24 18  1  0
 24 17  1  0
 25 15  1  0
 27 29  2  0
 28 27  1  0
 30 28  1  0
 31 40  2  0
 31 36  1  0
 32 28  1  0
 32 36  1  0
 33 32  1  0
 34 35  1  0
 34 33  1  0
 35 31  1  0
 36 37  2  0
 37 38  1  0
 39 38  2  0
 40 39  1  0
 41 15  1  0
 41 42  1  0
 41 51  1  0
 42 45  1  0
 43 47  1  0
 43 42  1  0
 44 43  2  0
 47 46  1  0
 49 50  1  0
 49 47  1  0
 49 48  1  0
 51 54  1  1
 51 52  1  0
 53 51  1  0
 56 64  1  0
 57 62  1  0
 58 59  1  0
 58 57  1  0
 60 59  1  0
 60 69  1  0
 60 61  1  0
 62 56  1  0
 62 61  1  0
 63 56  2  0
 64 55  1  0
 64 65  1  0
 66 67  2  0
 67 68  1  0
 67 86  1  0
 68 71  1  0
 69 66  1  0
 69 70  1  0
 70 68  2  0
 71 72  1  0
 72 73  2  0
 74 77  1  0
 74 73  1  0
 75 74  2  0
 76 75  1  0
 76 71  2  0
 77 78  1  0
 78 83  2  0
 78 79  1  0
 79 80  2  0
 80 81  1  0
 81 85  1  0
 82 81  2  0
 83 82  1  0
 84 83  1  0
 86 87  1  0
 87 90  1  0
 87 89  1  0
 88 86  2  0
 91 92  1  0
 91 66  1  0
 93 91  1  0
M  ISO  4  13 101  14 101  56 100  64 100
M  END
>  <TORSDO>  (98) 
F 23

>  <SCORE>  (98) 
-10.417

>  <name>  (98) 
97

>  <ligand_id>  (98) 
97

>  <original_smiles>  (98) 
[H]c1c([H])c([H])c2c(c1[H])C([H])([H])C([H])([H])C([H])([H])C2([H])N([H])C(=O)C1([H])N(C(=O)C([H])(N([H])C(=O)C([H])(N([H])C([H])([H])[H])C([H])([H])[H])C(C([H])([H])[H])(C([H])([H])[H])C([H])([H])[H])C([H])([H])c2c([H])c(OC([H])([H])C([H])([H])C([H])([H])C([H])([H])C([H])([H])C([H])(c3c([H])c([H])c([H])c(F)c3[H])C([H])([H])N([H])C(=O)N3C([H])([H])C([H])([H])C([H])([H])C([H])(n4nc(-c5c([H])c([H])c(Oc6c([H])c([H])c(F)c([H])c6F)c([H])c5[H])c(C(=O)N([H])[H])c4N([H])[H])C3([H])[H])c([H])c([H])c2C1([H])[H]

>  <smiles>  (98) 
[H]c1c([H])c([H])c2c(c1[H])C([H])([H])C([H])([H])C([H])([H])C2([H])N([H])C(=O)C1([H])N(C(=O)C([H])(N([H])C(=O)C([H])(N([H])C([H])([H])[H])C([H])([H])[H])C(C([H])([H])[H])(C([H])([H])[H])C([H])([H])[H])C([H])([H])c2c([H])c(OC([H])([H])C([H])([H])C([H])([H])C([H])([H])C([H])([H])C([H])(c3c([H])c([H])c([H])c(F)c3[H])C([H])([H])N([H])C(=O)N3C([H])([H])C([H])([H])C([H])([H])C([H])(n4nc(-c5c([H])c([H])c(Oc6c([H])c([H])c(F)c([H])c6F)c([H])c5[H])c(C(=O)N([H])[H])c4N([H])[H])C3([H])[H])c([H])c([H])c2C1([H])[H]

$$$$
98:0:0
     RDKit          3D

 92 99  0  0  1  0  0  0  0  0999 V2000
  -29.5450  -19.7490   20.9280 C   0  0  0  0  0  3  0  0  0  0  0  0
  -30.5480  -20.4320   21.8950 C   0  0  0  0  0  2  0  0  0  0  0  0
  -31.6380  -19.5000   22.4400 C   0  0  0  0  0  0  0  0  0  0  0  0
  -32.9050  -19.8600   22.2710 N   0  0  0  0  0  0  0  0  0  0  0  0
  -31.3460  -18.4570   23.0200 O   0  0  0  0  0  0  0  0  0  0  0  0
  -33.1390  -20.7210   21.7950 H   0  0  0  0  0  0  0  0  0  0  0  0
  -33.6530  -19.2760   22.6180 H   0  0  0  0  0  0  0  0  0  0  0  0
  -28.5860  -20.8790   20.2640 C   0  0  0  0  0  2  0  0  0  0  0  0
  -29.0160  -22.3950   19.8870 C   0  0  0  0  0  2  0  0  0  0  0  0
  -28.1560  -23.6900   20.3560 C   0  0  0  0  0  2  0  0  0  0  0  0
  -28.1470  -25.0320   19.4540 C   0  0  0  0  0  2  0  0  0  0  0  0
  -28.0700  -26.4160   20.0080 O   0  0  0  0  0  0  0  0  0  0  0  0
  -24.5410  -31.8640   23.1600 C   0  0  0  0  0  0  0  0  0  0  0  0
  -26.9390  -27.2550   19.9760 C   0  0  0  0  0  0  0  0  0  0  0  0
  -23.2420  -30.4950   21.5670 C   0  0  0  0  0  3  0  0  0  0  0  0
  -24.5990  -28.9170   20.0720 C   0  0  0  0  0  0  0  0  0  0  0  0
  -25.7760  -30.7630   21.2750 C   0  0  0  0  0  2  0  0  0  0  0  0
  -25.7990  -29.3820   20.6210 C   0  0  0  0  0  0  0  0  0  0  0  0
  -26.9660  -28.5620   20.5660 C   0  0  0  0  0  3  0  0  0  0  0  0
  -25.7150  -26.8390   19.4090 C   0  0  0  0  0  3  0  0  0  0  0  0
  -24.5600  -27.6520   19.4570 C   0  0  0  0  0  3  0  0  0  0  0  0
  -23.3830  -29.8160   20.1770 C   0  0  0  0  0  2  0  0  0  0  0  0
  -24.5420  -31.0600   22.0570 N   0  0  0  0  0  0  0  0  0  0  0  0
  -23.4880  -32.1590   23.7430 O   0  0  0  0  0  0  0  0  0  0  0  0
  -22.6020  -29.4910   22.5560 C   0  0  0  0  0  0  0  0  0  0  0  0
  -21.2770  -29.2940   22.4440 N   0  0  0  0  0  0  0  0  0  0  0  0
  -23.2960  -28.8900   23.3790 O   0  0  0  0  0  0  0  0  0  0  0  0
  -20.7750  -29.8320   21.7510 H   0  0  0  0  0  0  0  0  0  0  0  0
  -17.9340  -28.0020   22.9410 C   0  0  0  0  0  0  0  0  0  0  0  0
  -20.4780  -28.3600   23.2390 C   0  0  0  0  0  3  0  0  0  0  0  0
  -20.6360  -26.9120   22.7200 C   0  0  0  0  0  2  0  0  0  0  0  0
  -19.5630  -26.5130   21.7030 C   0  0  0  0  0  2  0  0  0  0  0  0
  -18.1670  -26.6350   22.3200 C   0  0  0  0  0  2  0  0  0  0  0  0
  -19.0190  -28.8180   23.3580 C   0  0  0  0  0  0  0  0  0  0  0  0
  -18.7480  -30.0940   23.8980 C   0  0  0  0  0  3  0  0  0  0  0  0
  -17.4250  -30.5560   24.0260 C   0  0  0  0  0  3  0  0  0  0  0  0
  -16.3540  -29.7390   23.6250 C   0  0  0  0  0  3  0  0  0  0  0  0
  -16.6090  -28.4640   23.0890 C   0  0  0  0  0  3  0  0  0  0  0  0
  -25.8620  -32.4690   23.7310 C   0  0  0  0  0  3  0  0  0  0  0  0
  -25.5860  -33.8620   24.1140 N   0  0  0  0  0  0  0  0  0  0  0  0
  -25.9020  -34.9340   23.3760 C   0  0  0  0  0  0  0  0  0  0  0  0
  -26.5290  -34.8560   22.3170 O   0  0  0  0  0  0  0  0  0  0  0  0
  -25.0300  -34.0000   24.9450 H   0  0  0  0  0  0  0  0  0  0  0  0
  -24.1870  -36.7600   23.1490 C   0  0  0  0  0  1  0  0  0  0  0  0
  -25.4520  -36.3140   23.8970 C   0  0  0  0  0  3  0  0  0  0  0  0
  -27.6320  -37.1430   24.6680 C   0  0  0  0  0  1  0  0  0  0  0  0
  -26.4940  -37.3570   23.7770 N   0  0  0  0  0  0  0  0  0  0  0  0
  -26.1070  -38.2760   23.9740 H   0  0  0  0  0  0  0  0  0  0  0  0
  -26.4370  -31.6620   24.9600 C   0  0  1  0  0  0  0  0  0  0  0  0
  -25.4000  -31.4080   26.0790 C   0  0  0  0  0  1  0  0  0  0  0  0
  -26.9820  -30.2890   24.5030 C   0  0  0  0  0  1  0  0  0  0  0  0
  -27.6310  -32.4260   25.5780 C   0  0  0  0  0  1  0  0  0  0  0  0
  -30.2650  -18.5840   20.0620 C   0  0  0  0  0  2  0  0  0  0  0  0
  -29.5530  -17.1930   19.6700 C   0  0  0  0  0  2  0  0  0  0  0  0
  -30.5100  -14.8130   20.2090 C   0  0  0  0  0  0  0  0  0  0  0  0
  -30.3510  -12.5130   19.2660 C   0  0  0  0  0  2  0  0  0  0  0  0
  -29.4020  -12.5720   18.0460 C   0  0  0  0  0  2  0  0  0  0  0  0
  -27.9370  -12.3920   18.4870 C   0  0  0  0  0  2  0  0  0  0  0  0
  -27.5640  -13.2890   19.6980 C   0  0  0  0  0  3  0  0  0  0  0  0
  -28.6320  -13.2150   20.8150 C   0  0  0  0  0  2  0  0  0  0  0  0
  -29.9270  -13.5670   20.2180 N   0  0  0  0  0  0  0  0  0  0  0  0
  -31.6540  -14.9650   19.7730 O   0  0  0  0  0  0  0  0  0  0  0  0
  -29.6980  -15.9000   20.4640 N   0  0  0  0  0  0  0  0  0  0  0  0
  -28.8530  -15.6370   20.9510 H   0  0  0  0  0  0  0  0  0  0  0  0
  -25.1780  -13.8610   20.4540 C   0  0  0  0  0  0  0  0  0  0  0  0
  -24.1210  -13.0780   20.8340 C   0  0  0  0  0  0  0  0  0  0  0  0
  -24.5920  -11.7300   20.7850 C   0  0  0  0  0  0  0  0  0  0  0  0
  -26.2250  -12.9910   20.2000 N   0  0  0  0  0  0  0  0  0  0  0  0
  -25.8800  -11.7040   20.4580 N   0  0  0  0  0  0  0  0  0  0  0  0
  -23.8760  -10.4610   20.9720 C   0  0  0  0  0  0  0  0  0  0  0  0
  -24.3050   -9.5060   21.9200 C   0  0  0  0  0  3  0  0  0  0  0  0
  -23.5890   -8.3030   22.0970 C   0  0  0  0  0  3  0  0  0  0  0  0
  -22.4300   -8.0460   21.3250 C   0  0  0  0  0  0  0  0  0  0  0  0
  -22.0220   -8.9900   20.3680 C   0  0  0  0  0  3  0  0  0  0  0  0
  -22.7380  -10.1850   20.1890 C   0  0  0  0  0  3  0  0  0  0  0  0
  -21.6860   -6.8940   21.4110 O   0  0  0  0  0  0  0  0  0  0  0  0
  -21.5970   -6.1790   22.5790 C   0  0  0  0  0  0  0  0  0  0  0  0
  -21.1110   -6.7570   23.7720 C   0  0  0  0  0  3  0  0  0  0  0  0
  -20.9720   -5.9680   24.9310 C   0  0  0  0  0  3  0  0  0  0  0  0
  -21.3070   -4.6020   24.8980 C   0  0  0  0  0  0  0  0  0  0  0  0
  -21.7860   -4.0230   23.7090 C   0  0  0  0  0  3  0  0  0  0  0  0
  -21.9280   -4.8100   22.5530 C   0  0  0  0  0  0  0  0  0  0  0  0
  -22.3690   -4.2410   21.4040 F   0  0  0  0  0  0  0  0  0  0  0  0
  -21.1660   -3.8410   26.0080 F   0  0  0  0  0  0  0  0  0  0  0  0
  -22.7250  -13.5440   21.1270 C   0  0  0  0  0  0  0  0  0  0  0  0
  -22.0150  -12.8380   21.9990 N   0  0  0  0  0  0  0  0  0  0  0  0
  -22.2730  -14.5700   20.6190 O   0  0  0  0  0  0  0  0  0  0  0  0
  -22.3940  -12.0070   22.4300 H   0  0  0  0  0  0  0  0  0  0  0  0
  -21.0780  -13.1300   22.2380 H   0  0  0  0  0  0  0  0  0  0  0  0
  -25.3300  -15.2340   20.2830 N   0  0  0  0  0  0  0  0  0  0  0  0
  -24.5580  -15.8800   20.3990 H   0  0  0  0  0  0  0  0  0  0  0  0
  -26.1670  -15.6790   19.9270 H   0  0  0  0  0  0  0  0  0  0  0  0
  1 53  1  0
  1  2  1  0
  2  3  1  0
  3  5  2  0
  4  3  1  0
  4  7  1  0
  6  4  1  0
  8  1  1  0
  9  8  1  0
  9 10  1  0
 11 12  1  0
 11 10  1  0
 13 24  2  0
 14 12  1  0
 14 19  1  0
 15 23  1  0
 15 25  1  0
 16 22  1  0
 16 18  1  0
 17 23  1  0
 18 17  1  0
 19 18  2  0
 20 21  1  0
 20 14  2  0
 21 16  2  0
 22 15  1  0
 23 13  1  0
 25 27  2  0
 26 25  1  0
 28 26  1  0
 29 38  2  0
 29 34  1  0
 30 26  1  0
 30 34  1  0
 31 30  1  0
 32 33  1  0
 32 31  1  0
 33 29  1  0
 34 35  2  0
 35 36  1  0
 37 36  2  0
 38 37  1  0
 39 13  1  0
 39 40  1  0
 39 49  1  0
 40 43  1  0
 41 45  1  0
 41 40  1  0
 42 41  2  0
 45 44  1  0
 47 45  1  0
 47 48  1  0
 47 46  1  0
 49 52  1  1
 49 50  1  0
 51 49  1  0
 54 53  1  0
 54 63  1  0
 55 61  1  0
 55 63  1  0
 56 61  1  0
 57 58  1  0
 57 56  1  0
 59 58  1  0
 59 68  1  0
 59 60  1  0
 61 60  1  0
 62 55  2  0
 63 64  1  0
 65 66  2  0
 66 85  1  0
 67 66  1  0
 67 70  1  0
 68 65  1  0
 68 69  1  0
 69 67  2  0
 70 71  1  0
 71 72  2  0
 73 76  1  0
 73 72  1  0
 74 73  2  0
 75 74  1  0
 75 70  2  0
 76 77  1  0
 77 78  1  0
 78 79  2  0
 80 79  1  0
 80 84  1  0
 81 80  2  0
 82 77  2  0
 82 81  1  0
 83 82  1  0
 85 86  1  0
 86 89  1  0
 86 88  1  0
 87 85  2  0
 90 91  1  0
 90 65  1  0
 92 90  1  0
M  ISO  4  11 101  12 101  55 100  63 100
M  END
>  <TORSDO>  (99) 
F 24

>  <SCORE>  (99) 
-12.227

>  <name>  (99) 
98

>  <ligand_id>  (99) 
98

>  <original_smiles>  (99) 
[H]c1c([H])c([H])c2c(c1[H])C([H])([H])C([H])([H])C([H])([H])C2([H])N([H])C(=O)C1([H])N(C(=O)C([H])(N([H])C(=O)C([H])(N([H])C([H])([H])[H])C([H])([H])[H])C(C([H])([H])[H])(C([H])([H])[H])C([H])([H])[H])C([H])([H])c2c([H])c(OC([H])([H])C([H])([H])C([H])([H])C([H])([H])C([H])(C([H])([H])C(=O)N([H])[H])C([H])([H])C([H])([H])N([H])C(=O)N3C([H])([H])C([H])([H])C([H])([H])C([H])(n4nc(-c5c([H])c([H])c(Oc6c([H])c([H])c(F)c([H])c6F)c([H])c5[H])c(C(=O)N([H])[H])c4N([H])[H])C3([H])[H])c([H])c([H])c2C1([H])[H]

>  <smiles>  (99) 
[H]c1c([H])c([H])c2c(c1[H])C([H])([H])C([H])([H])C([H])([H])C2([H])N([H])C(=O)C1([H])N(C(=O)C([H])(N([H])C(=O)C([H])(N([H])C([H])([H])[H])C([H])([H])[H])C(C([H])([H])[H])(C([H])([H])[H])C([H])([H])[H])C([H])([H])c2c([H])c(OC([H])([H])C([H])([H])C([H])([H])C([H])([H])C([H])(C([H])([H])C(=O)N([H])[H])C([H])([H])C([H])([H])N([H])C(=O)N3C([H])([H])C([H])([H])C([H])([H])C([H])(n4nc(-c5c([H])c([H])c(Oc6c([H])c([H])c(F)c([H])c6F)c([H])c5[H])c(C(=O)N([H])[H])c4N([H])[H])C3([H])[H])c([H])c([H])c2C1([H])[H]

$$$$
99:0:0
     RDKit          3D

 95104  0  0  1  0  0  0  0  0999 V2000
  -31.2740  -19.5400   22.0110 C   0  0  0  0  0  3  0  0  0  0  0  0
  -31.1880  -20.7580   21.3160 C   0  0  0  0  0  3  0  0  0  0  0  0
  -29.5060  -19.7950   19.8470 C   0  0  0  0  0  3  0  0  0  0  0  0
  -30.4760  -18.4320   21.6410 C   0  0  0  0  0  0  0  0  0  0  0  0
  -30.3010  -20.8910   20.2330 C   0  0  0  0  0  0  0  0  0  0  0  0
  -29.5850  -18.5680   20.5420 C   0  0  0  0  0  0  0  0  0  0  0  0
  -28.7010  -17.4210   20.0800 C   0  0  0  0  0  1  0  0  0  0  0  0
  -31.5190  -16.9690   23.6410 C   0  0  0  0  0  2  0  0  0  0  0  0
  -31.6910  -15.4990   23.2600 C   0  0  0  0  0  2  0  0  0  0  0  0
  -30.5790  -17.1210   22.4240 C   0  0  0  0  0  3  0  0  0  0  0  0
  -31.3270  -15.9130   21.8280 C   0  0  0  0  0  3  0  0  0  0  0  0
  -30.5820  -14.4770   19.9370 C   0  0  0  0  0  0  0  0  0  0  0  0
  -30.0040  -12.5890   18.4620 C   0  0  0  0  0  2  0  0  0  0  0  0
  -28.9330  -12.9390   17.4160 C   0  0  0  0  0  2  0  0  0  0  0  0
  -27.5220  -12.7470   17.9980 C   0  0  0  0  0  2  0  0  0  0  0  0
  -27.3470  -13.4550   19.3660 C   0  0  0  0  0  3  0  0  0  0  0  0
  -28.5070  -13.1020   20.3210 C   0  0  0  0  0  2  0  0  0  0  0  0
  -29.7860  -13.4170   19.6560 N   0  0  0  0  0  0  0  0  0  0  0  0
  -31.4490  -14.9050   19.1680 O   0  0  0  0  0  0  0  0  0  0  0  0
  -30.4580  -14.9340   21.1870 N   0  0  0  0  0  0  0  0  0  0  0  0
  -29.7530  -14.4900   21.7570 H   0  0  0  0  0  0  0  0  0  0  0  0
  -25.0150  -14.0020   20.3170 C   0  0  0  0  0  0  0  0  0  0  0  0
  -23.9980  -13.2000   20.7620 C   0  0  0  0  0  0  0  0  0  0  0  0
  -24.4730  -11.8590   20.6420 C   0  0  0  0  0  0  0  0  0  0  0  0
  -26.0470  -13.1460   19.9610 N   0  0  0  0  0  0  0  0  0  0  0  0
  -25.7270  -11.8500   20.2100 N   0  0  0  0  0  0  0  0  0  0  0  0
  -23.7870  -10.5770   20.8610 C   0  0  0  0  0  0  0  0  0  0  0  0
  -24.2880   -9.6160   21.7660 C   0  0  0  0  0  3  0  0  0  0  0  0
  -23.6010   -8.4010   21.9720 C   0  0  0  0  0  3  0  0  0  0  0  0
  -22.3990   -8.1370   21.2720 C   0  0  0  0  0  0  0  0  0  0  0  0
  -21.9180   -9.0880   20.3550 C   0  0  0  0  0  3  0  0  0  0  0  0
  -22.6060  -10.2950   20.1480 C   0  0  0  0  0  3  0  0  0  0  0  0
  -21.6790   -6.9740   21.3890 O   0  0  0  0  0  0  0  0  0  0  0  0
  -21.6750   -6.2420   22.5500 C   0  0  0  0  0  0  0  0  0  0  0  0
  -21.2660   -6.8000   23.7810 C   0  0  0  0  0  3  0  0  0  0  0  0
  -21.2120   -5.9930   24.9350 C   0  0  0  0  0  3  0  0  0  0  0  0
  -21.5550   -4.6310   24.8590 C   0  0  0  0  0  0  0  0  0  0  0  0
  -21.9580   -4.0720   23.6330 C   0  0  0  0  0  3  0  0  0  0  0  0
  -22.0140   -4.8760   22.4810 C   0  0  0  0  0  0  0  0  0  0  0  0
  -22.3820   -4.3280   21.2980 F   0  0  0  0  0  0  0  0  0  0  0  0
  -21.4960   -3.8540   25.9660 F   0  0  0  0  0  0  0  0  0  0  0  0
  -22.6270  -13.6430   21.1850 C   0  0  0  0  0  0  0  0  0  0  0  0
  -22.0070  -12.9200   22.1100 N   0  0  0  0  0  0  0  0  0  0  0  0
  -22.1160  -14.6660   20.7290 O   0  0  0  0  0  0  0  0  0  0  0  0
  -22.4340  -12.0920   22.4980 H   0  0  0  0  0  0  0  0  0  0  0  0
  -21.0920  -13.1980   22.4360 H   0  0  0  0  0  0  0  0  0  0  0  0
  -25.1420  -15.3780   20.1670 N   0  0  0  0  0  0  0  0  0  0  0  0
  -24.3800  -16.0170   20.3630 H   0  0  0  0  0  0  0  0  0  0  0  0
  -25.9500  -15.8350   19.7640 H   0  0  0  0  0  0  0  0  0  0  0  0
  -30.1840  -22.2210   19.5120 C   0  0  0  0  0  2  0  0  0  0  0  0
  -29.2740  -23.1860   20.2880 C   0  0  0  0  0  2  0  0  0  0  0  0
  -29.1690  -24.5850   19.6820 C   0  0  0  0  0  0  0  0  0  0  0  0
  -29.7730  -24.9020   18.6500 O   0  0  0  0  0  0  0  0  0  0  0  0
  -28.2670  -25.5650   20.4330 C   0  0  0  0  0  2  0  0  0  0  0  0
  -28.3360  -26.8660   19.8510 O   0  0  0  0  0  0  0  0  0  0  0  0
  -24.5290  -31.8640   23.1580 C   0  0  0  0  0  0  0  0  0  0  0  0
  -27.1570  -27.5630   19.9070 C   0  0  0  0  0  0  0  0  0  0  0  0
  -23.3070  -30.5090   21.4860 C   0  0  0  0  0  3  0  0  0  0  0  0
  -24.7490  -29.0240   19.9990 C   0  0  0  0  0  0  0  0  0  0  0  0
  -25.8240  -30.8950   21.2660 C   0  0  0  0  0  2  0  0  0  0  0  0
  -25.9090  -29.5470   20.5860 C   0  0  0  0  0  0  0  0  0  0  0  0
  -27.1190  -28.8230   20.5350 C   0  0  0  0  0  3  0  0  0  0  0  0
  -25.9830  -27.0430   19.3190 C   0  0  0  0  0  3  0  0  0  0  0  0
  -24.7790  -27.7690   19.3650 C   0  0  0  0  0  3  0  0  0  0  0  0
  -23.5010  -29.8710   20.0850 C   0  0  0  0  0  2  0  0  0  0  0  0
  -24.5720  -31.1010   22.0290 N   0  0  0  0  0  0  0  0  0  0  0  0
  -23.4550  -32.1140   23.7210 O   0  0  0  0  0  0  0  0  0  0  0  0
  -22.6730  -29.4560   22.4220 C   0  0  0  0  0  0  0  0  0  0  0  0
  -21.3450  -29.2820   22.3140 N   0  0  0  0  0  0  0  0  0  0  0  0
  -23.3700  -28.7980   23.1990 O   0  0  0  0  0  0  0  0  0  0  0  0
  -20.8440  -29.8670   21.6580 H   0  0  0  0  0  0  0  0  0  0  0  0
  -17.9730  -28.1020   22.8420 C   0  0  0  0  0  0  0  0  0  0  0  0
  -20.5380  -28.3210   23.0640 C   0  0  0  0  0  3  0  0  0  0  0  0
  -20.6110  -26.9150   22.4250 C   0  0  0  0  0  2  0  0  0  0  0  0
  -19.4830  -26.6470   21.4250 C   0  0  0  0  0  2  0  0  0  0  0  0
  -18.1180  -26.7800   22.1080 C   0  0  0  0  0  2  0  0  0  0  0  0
  -19.1090  -28.8340   23.2770 C   0  0  0  0  0  0  0  0  0  0  0  0
  -18.9210  -30.0750   23.9220 C   0  0  0  0  0  3  0  0  0  0  0  0
  -17.6260  -30.5830   24.1400 C   0  0  0  0  0  3  0  0  0  0  0  0
  -16.5030  -29.8470   23.7220 C   0  0  0  0  0  3  0  0  0  0  0  0
  -16.6780  -28.6090   23.0790 C   0  0  0  0  0  3  0  0  0  0  0  0
  -25.8220  -32.4770   23.7830 C   0  0  0  0  0  3  0  0  0  0  0  0
  -25.5220  -33.8690   24.1410 N   0  0  0  0  0  0  0  0  0  0  0  0
  -25.8590  -34.9330   23.4000 C   0  0  0  0  0  0  0  0  0  0  0  0
  -26.5280  -34.8470   22.3670 O   0  0  0  0  0  0  0  0  0  0  0  0
  -24.9300  -34.0120   24.9460 H   0  0  0  0  0  0  0  0  0  0  0  0
  -24.1410  -36.7400   23.0750 C   0  0  0  0  0  1  0  0  0  0  0  0
  -25.3770  -36.3150   23.8830 C   0  0  0  0  0  3  0  0  0  0  0  0
  -27.5140  -37.1700   24.7380 C   0  0  0  0  0  1  0  0  0  0  0  0
  -26.4150  -37.3640   23.7950 N   0  0  0  0  0  0  0  0  0  0  0  0
  -26.0140  -38.2830   23.9630 H   0  0  0  0  0  0  0  0  0  0  0  0
  -26.3470  -31.6770   25.0370 C   0  0  1  0  0  0  0  0  0  0  0  0
  -25.2590  -31.4020   26.1000 C   0  0  0  0  0  1  0  0  0  0  0  0
  -26.9410  -30.3160   24.6050 C   0  0  0  0  0  1  0  0  0  0  0  0
  -27.4930  -32.4630   25.7180 C   0  0  0  0  0  1  0  0  0  0  0  0
  2  1  2  0
  3  5  2  0
  3  6  1  0
  4  1  1  0
  5  2  1  0
  6  4  2  0
  7  6  1  0
  9  8  1  0
 10  4  1  0
 10  8  1  0
 11 20  1  0
 11 10  1  0
 11  9  1  0
 12 20  1  0
 13 18  1  0
 14 15  1  0
 14 13  1  0
 16 15  1  0
 16 25  1  0
 16 17  1  0
 18 12  1  0
 18 17  1  0
 19 12  2  0
 20 21  1  0
 22 23  2  0
 23 42  1  0
 24 23  1  0
 24 27  1  0
 25 26  1  0
 25 22  1  0
 26 24  2  0
 27 28  1  0
 28 29  2  0
 30 33  1  0
 30 29  1  0
 31 30  2  0
 32 31  1  0
 32 27  2  0
 33 34  1  0
 34 35  1  0
 35 36  2  0
 37 36  1  0
 37 41  1  0
 38 37  2  0
 39 34  2  0
 39 38  1  0
 40 39  1  0
 42 43  1  0
 43 46  1  0
 43 45  1  0
 44 42  2  0
 47 22  1  0
 47 48  1  0
 49 47  1  0
 50  5  1  0
 50 51  1  0
 52 51  1  0
 52 54  1  0
 53 52  2  0
 55 57  1  0
 55 54  1  0
 56 67  2  0
 57 62  1  0
 58 66  1  0
 58 68  1  0
 59 65  1  0
 59 61  1  0
 60 66  1  0
 61 60  1  0
 62 61  2  0
 63 64  1  0
 63 57  2  0
 64 59  2  0
 65 58  1  0
 66 56  1  0
 68 70  2  0
 69 68  1  0
 71 69  1  0
 72 81  2  0
 72 77  1  0
 73 69  1  0
 73 77  1  0
 74 73  1  0
 75 76  1  0
 75 74  1  0
 76 72  1  0
 77 78  2  0
 78 79  1  0
 80 79  2  0
 81 80  1  0
 82 56  1  0
 82 83  1  0
 82 92  1  0
 83 86  1  0
 84 88  1  0
 84 83  1  0
 85 84  2  0
 88 87  1  0
 90 88  1  0
 90 91  1  0
 90 89  1  0
 92 95  1  1
 92 93  1  0
 94 92  1  0
M  ISO  4  12 100  20 100  54 101  55 101
M  END
>  <TORSDO>  (100) 
F 21

>  <SCORE>  (100) 
-8.701

>  <name>  (100) 
99

>  <ligand_id>  (100) 
99

>  <original_smiles>  (100) 
[H]c1c([H])c([H])c2c(c1[H])C([H])([H])C([H])([H])C([H])([H])C2([H])N([H])C(=O)C1([H])N(C(=O)C([H])(N([H])C(=O)C([H])(N([H])C([H])([H])[H])C([H])([H])[H])C(C([H])([H])[H])(C([H])([H])[H])C([H])([H])[H])C([H])([H])c2c([H])c(OC([H])([H])C(=O)C([H])([H])C([H])([H])c3c([H])c([H])c(C4([H])C([H])([H])C([H])([H])C4([H])N([H])C(=O)N4C([H])([H])C([H])([H])C([H])([H])C([H])(n5nc(-c6c([H])c([H])c(Oc7c([H])c([H])c(F)c([H])c7F)c([H])c6[H])c(C(=O)N([H])[H])c5N([H])[H])C4([H])[H])c(C([H])([H])[H])c3[H])c([H])c([H])c2C1([H])[H]

>  <smiles>  (100) 
[H]c1c([H])c([H])c2c(c1[H])C([H])([H])C([H])([H])C([H])([H])C2([H])N([H])C(=O)C1([H])N(C(=O)C([H])(N([H])C(=O)C([H])(N([H])C([H])([H])[H])C([H])([H])[H])C(C([H])([H])[H])(C([H])([H])[H])C([H])([H])[H])C([H])([H])c2c([H])c(OC([H])([H])C(=O)C([H])([H])C([H])([H])c3c([H])c([H])c(C4([H])C([H])([H])C([H])([H])C4([H])N([H])C(=O)N4C([H])([H])C([H])([H])C([H])([H])C([H])(n5nc(-c6c([H])c([H])c(Oc7c([H])c([H])c(F)c([H])c7F)c([H])c6[H])c(C(=O)N([H])[H])c5N([H])[H])C4([H])[H])c(C([H])([H])[H])c3[H])c([H])c([H])c2C1([H])[H]

$$$$
