0:0:0
     RDKit          3D

 87 96  0  0  1  0  0  0  0  0999 V2000
  -27.6160  -21.1610   20.8080 C   0  0  0  0  0  2  0  0  0  0  0  0
  -27.8530  -22.1590   18.6630 C   0  0  0  0  0  2  0  0  0  0  0  0
  -27.2300  -22.5490   20.0240 C   0  0  0  0  0  3  0  0  0  0  0  0
  -29.0770  -20.6930   20.3760 C   0  0  0  0  0  3  0  0  0  0  0  0
  -28.1690  -23.8830   19.8470 C   0  0  0  0  0  3  0  0  0  0  0  0
  -29.1100  -22.3120   19.5600 C   0  0  2  0  0  0  0  0  0  0  0  0
  -30.4540  -22.4480   18.8640 C   0  0  0  0  0  1  0  0  0  0  0  0
  -28.1620  -25.5870   20.3160 O   0  0  0  0  0  0  0  0  0  0  0  0
  -24.6480  -31.8880   23.1740 C   0  0  0  0  0  0  0  0  0  0  0  0
  -27.2000  -26.8060   20.1970 C   0  0  0  0  0  0  0  0  0  0  0  0
  -23.4670  -30.4770   21.5400 C   0  0  0  0  0  3  0  0  0  0  0  0
  -24.9220  -28.8310   20.1310 C   0  0  0  0  0  0  0  0  0  0  0  0
  -26.0470  -30.6290   21.4230 C   0  0  0  0  0  2  0  0  0  0  0  0
  -26.1140  -29.1950   20.7690 C   0  0  0  0  0  0  0  0  0  0  0  0
  -27.2350  -28.2080   20.7730 C   0  0  0  0  0  3  0  0  0  0  0  0
  -25.9740  -26.6540   19.5000 C   0  0  0  0  0  3  0  0  0  0  0  0
  -24.8910  -27.5870   19.4750 C   0  0  0  0  0  3  0  0  0  0  0  0
  -23.7070  -29.7720   20.1730 C   0  0  0  0  0  2  0  0  0  0  0  0
  -24.7450  -31.0320   22.0970 N   0  0  0  0  0  0  0  0  0  0  0  0
  -23.5520  -32.1870   23.6790 O   0  0  0  0  0  0  0  0  0  0  0  0
  -22.7550  -29.5020   22.5160 C   0  0  0  0  0  0  0  0  0  0  0  0
  -21.4220  -29.3500   22.4010 N   0  0  0  0  0  0  0  0  0  0  0  0
  -23.4140  -28.8790   23.3510 O   0  0  0  0  0  0  0  0  0  0  0  0
  -20.9370  -29.9010   21.7050 H   0  0  0  0  0  0  0  0  0  0  0  0
  -18.0380  -28.1440   22.9360 C   0  0  0  0  0  0  0  0  0  0  0  0
  -20.5980  -28.4150   23.1780 C   0  0  0  0  0  3  0  0  0  0  0  0
  -20.6940  -26.9790   22.6070 C   0  0  0  0  0  2  0  0  0  0  0  0
  -19.5850  -26.6510   21.6030 C   0  0  0  0  0  2  0  0  0  0  0  0
  -18.2100  -26.7950   22.2630 C   0  0  0  0  0  2  0  0  0  0  0  0
  -19.1570  -28.9110   23.3540 C   0  0  0  0  0  0  0  0  0  0  0  0
  -18.9360  -30.1690   23.9570 C   0  0  0  0  0  3  0  0  0  0  0  0
  -17.6290  -30.6570   24.1450 C   0  0  0  0  0  3  0  0  0  0  0  0
  -16.5240  -29.8870   23.7390 C   0  0  0  0  0  3  0  0  0  0  0  0
  -16.7300  -28.6310   23.1400 C   0  0  0  0  0  3  0  0  0  0  0  0
  -25.9050  -32.5500   23.8140 C   0  0  0  0  0  3  0  0  0  0  0  0
  -25.5730  -33.9530   24.1400 N   0  0  0  0  0  0  0  0  0  0  0  0
  -25.9050  -35.0170   23.3990 C   0  0  0  0  0  0  0  0  0  0  0  0
  -26.5780  -34.9250   22.3690 O   0  0  0  0  0  0  0  0  0  0  0  0
  -24.9730  -34.0990   24.9380 H   0  0  0  0  0  0  0  0  0  0  0  0
  -24.1760  -36.8200   23.0650 C   0  0  0  0  0  1  0  0  0  0  0  0
  -25.4190  -36.4050   23.8690 C   0  0  0  0  0  3  0  0  0  0  0  0
  -27.5510  -37.2940   24.7090 C   0  0  0  0  0  1  0  0  0  0  0  0
  -26.4490  -37.4620   23.7640 N   0  0  0  0  0  0  0  0  0  0  0  0
  -26.0390  -38.3800   23.9140 H   0  0  0  0  0  0  0  0  0  0  0  0
  -26.4010  -31.8040   25.1150 C   0  0  1  0  0  0  0  0  0  0  0  0
  -25.2910  -31.5870   26.1720 C   0  0  0  0  0  1  0  0  0  0  0  0
  -26.9890  -30.4190   24.7710 C   0  0  0  0  0  1  0  0  0  0  0  0
  -27.5430  -32.6120   25.7790 C   0  0  0  0  0  1  0  0  0  0  0  0
  -29.6190  -18.8920   19.8170 C   0  0  0  0  0  2  0  0  0  0  0  0
  -30.3560  -15.7850   20.1020 C   0  0  0  0  0  0  0  0  0  0  0  0
  -30.4520  -13.2380   19.2940 C   0  0  0  0  0  2  0  0  0  0  0  0
  -29.5440  -12.8460   18.0930 C   0  0  0  0  0  2  0  0  0  0  0  0
  -28.1280  -12.4890   18.5680 C   0  0  0  0  0  2  0  0  0  0  0  0
  -27.6340  -13.4820   19.6450 C   0  0  0  0  0  3  0  0  0  0  0  0
  -28.6790  -13.7840   20.7420 C   0  0  0  0  0  2  0  0  0  0  0  0
  -29.8430  -14.4120   20.0750 N   0  0  0  0  0  0  0  0  0  0  0  0
  -31.5730  -15.7290   19.8350 O   0  0  0  0  0  0  0  0  0  0  0  0
  -29.6000  -17.1490   20.2390 N   0  0  0  0  0  0  0  0  0  0  0  0
  -28.6640  -16.9200   20.5470 H   0  0  0  0  0  0  0  0  0  0  0  0
  -25.2830  -13.9990   20.4530 C   0  0  0  0  0  0  0  0  0  0  0  0
  -24.2340  -13.2120   20.8370 C   0  0  0  0  0  0  0  0  0  0  0  0
  -24.7100  -11.8660   20.7910 C   0  0  0  0  0  0  0  0  0  0  0  0
  -26.3270  -13.1340   20.1840 N   0  0  0  0  0  0  0  0  0  0  0  0
  -25.9980  -11.8430   20.4560 N   0  0  0  0  0  0  0  0  0  0  0  0
  -23.9920  -10.5980   20.9850 C   0  0  0  0  0  0  0  0  0  0  0  0
  -24.4310   -9.6320   21.9170 C   0  0  0  0  0  3  0  0  0  0  0  0
  -23.7080   -8.4330   22.1000 C   0  0  0  0  0  3  0  0  0  0  0  0
  -22.5290   -8.1930   21.3540 C   0  0  0  0  0  0  0  0  0  0  0  0
  -22.1100   -9.1470   20.4100 C   0  0  0  0  0  3  0  0  0  0  0  0
  -22.8340  -10.3370   20.2240 C   0  0  0  0  0  3  0  0  0  0  0  0
  -21.7760   -7.0480   21.4490 O   0  0  0  0  0  0  0  0  0  0  0  0
  -21.7240   -6.3140   22.6080 C   0  0  0  0  0  0  0  0  0  0  0  0
  -21.2740   -6.8730   23.8250 C   0  0  0  0  0  3  0  0  0  0  0  0
  -21.1710   -6.0650   24.9750 C   0  0  0  0  0  3  0  0  0  0  0  0
  -21.5070   -4.6990   24.9100 C   0  0  0  0  0  0  0  0  0  0  0  0
  -21.9480   -4.1390   23.6970 C   0  0  0  0  0  3  0  0  0  0  0  0
  -22.0540   -4.9450   22.5490 C   0  0  0  0  0  0  0  0  0  0  0  0
  -22.4600   -4.3960   21.3790 F   0  0  0  0  0  0  0  0  0  0  0  0
  -21.4010   -3.9200   26.0110 F   0  0  0  0  0  0  0  0  0  0  0  0
  -22.8390  -13.6810   21.1260 C   0  0  0  0  0  0  0  0  0  0  0  0
  -22.1250  -12.9790   21.9990 N   0  0  0  0  0  0  0  0  0  0  0  0
  -22.3920  -14.7070   20.6150 O   0  0  0  0  0  0  0  0  0  0  0  0
  -22.5030  -12.1520   22.4370 H   0  0  0  0  0  0  0  0  0  0  0  0
  -21.1880  -13.2720   22.2330 H   0  0  0  0  0  0  0  0  0  0  0  0
  -25.4280  -15.3720   20.2750 N   0  0  0  0  0  0  0  0  0  0  0  0
  -24.6480  -16.0100   20.3890 H   0  0  0  0  0  0  0  0  0  0  0  0
  -26.2460  -15.8120   19.8720 H   0  0  0  0  0  0  0  0  0  0  0  0
  2  6  1  0
  3  2  1  0
  3  1  1  0
  4 49  1  0
  4  1  1  0
  5  3  1  0
  5  8  1  0
  6  7  1  6
  6  5  1  0
  6  4  1  0
  9 20  2  0
 10  8  1  0
 10 15  1  0
 11 19  1  0
 11 21  1  0
 12 18  1  0
 12 14  1  0
 13 19  1  0
 14 15  2  0
 14 13  1  0
 16 10  2  0
 17 16  1  0
 17 12  2  0
 18 11  1  0
 19  9  1  0
 21 23  2  0
 22 21  1  0
 24 22  1  0
 25 34  2  0
 25 30  1  0
 26 22  1  0
 26 30  1  0
 27 26  1  0
 28 29  1  0
 28 27  1  0
 29 25  1  0
 30 31  2  0
 31 32  1  0
 33 32  2  0
 34 33  1  0
 35  9  1  0
 35 36  1  0
 35 45  1  0
 36 39  1  0
 37 41  1  0
 37 36  1  0
 38 37  2  0
 41 40  1  0
 43 41  1  0
 43 44  1  0
 43 42  1  0
 45 48  1  1
 45 46  1  0
 47 45  1  0
 49 58  1  0
 50 58  1  0
 51 56  1  0
 52 53  1  0
 52 51  1  0
 54 53  1  0
 54 63  1  0
 54 55  1  0
 56 50  1  0
 56 55  1  0
 57 50  2  0
 58 59  1  0
 60 61  2  0
 61 80  1  0
 62 61  1  0
 62 65  1  0
 63 60  1  0
 63 64  1  0
 64 62  2  0
 65 66  1  0
 66 67  2  0
 68 71  1  0
 68 67  1  0
 69 68  2  0
 70 69  1  0
 70 65  2  0
 71 72  1  0
 72 73  1  0
 73 74  2  0
 75 74  1  0
 75 79  1  0
 76 75  2  0
 77 72  2  0
 77 76  1  0
 78 77  1  0
 80 81  1  0
 81 84  1  0
 81 83  1  0
 82 80  2  0
 85 86  1  0
 85 60  1  0
 87 85  1  0
M  ISO  4   5 101   8 101  50 100  58 100
M  END
>  <TORSDO>  (1) 
F 17

>  <SCORE>  (1) 
-16.248

>  <name>  (1) 
0

>  <ligand_id>  (1) 
0

>  <original_smiles>  (1) 
[H]c1c([H])c([H])c2c(c1[H])C([H])([H])C([H])([H])C([H])([H])C2([H])N([H])C(=O)C1([H])N(C(=O)C([H])(N([H])C(=O)C([H])(N([H])C([H])([H])[H])C([H])([H])[H])C(C([H])([H])[H])(C([H])([H])[H])C([H])([H])[H])C([H])([H])c2c([H])c(OC3([H])C4([H])C([H])([H])C([H])(C([H])([H])N([H])C(=O)N5C([H])([H])C([H])([H])C([H])([H])C([H])(n6nc(-c7c([H])c([H])c(Oc8c([H])c([H])c(F)c([H])c8F)c([H])c7[H])c(C(=O)N([H])[H])c6N([H])[H])C5([H])[H])C3(C([H])([H])[H])C4([H])[H])c([H])c([H])c2C1([H])[H]

>  <smiles>  (1) 
[H]c1c([H])c([H])c2c(c1[H])C([H])([H])C([H])([H])C([H])([H])C2([H])N([H])C(=O)C1([H])N(C(=O)C([H])(N([H])C(=O)C([H])(N([H])C([H])([H])[H])C([H])([H])[H])C(C([H])([H])[H])(C([H])([H])[H])C([H])([H])[H])C([H])([H])c2c([H])c(OC3([H])C4([H])C([H])([H])C([H])(C([H])([H])N([H])C(=O)N5C([H])([H])C([H])([H])C([H])([H])C([H])(n6nc(-c7c([H])c([H])c(Oc8c([H])c([H])c(F)c([H])c8F)c([H])c7[H])c(C(=O)N([H])[H])c6N([H])[H])C5([H])[H])C3(C([H])([H])[H])C4([H])[H])c([H])c([H])c2C1([H])[H]

$$$$
1:0:0
     RDKit          3D

 88 97  0  0  1  0  0  0  0  0999 V2000
  -30.3110  -21.4530   19.4070 C   0  0  0  0  0  2  0  0  0  0  0  0
  -30.3590  -23.7280   20.8430 C   0  0  0  0  0  2  0  0  0  0  0  0
  -28.3670  -21.9230   20.6980 C   0  0  0  0  0  2  0  0  0  0  0  0
  -30.1420  -22.9980   19.5370 C   0  0  0  0  0  3  0  0  0  0  0  0
  -29.4840  -20.7280   20.5090 C   0  0  0  0  0  3  0  0  0  0  0  0
  -28.9490  -23.3980   20.3910 C   0  0  2  0  0  0  0  0  0  0  0  0
  -29.1390  -19.0740   20.3090 C   0  0  0  0  0  3  0  0  0  0  0  0
  -30.1910  -17.7590   20.4940 C   0  0  0  0  0  3  0  0  0  0  0  0
  -30.5230  -15.0180   20.3170 C   0  0  0  0  0  0  0  0  0  0  0  0
  -30.3770  -12.6740   19.3540 C   0  0  0  0  0  2  0  0  0  0  0  0
  -29.4160  -12.5890   18.1460 C   0  0  0  0  0  2  0  0  0  0  0  0
  -27.9740  -12.3530   18.6200 C   0  0  0  0  0  2  0  0  0  0  0  0
  -27.5700  -13.3030   19.7730 C   0  0  0  0  0  3  0  0  0  0  0  0
  -28.6430  -13.3520   20.8820 C   0  0  0  0  0  2  0  0  0  0  0  0
  -29.9040  -13.7700   20.2510 N   0  0  0  0  0  0  0  0  0  0  0  0
  -31.7250  -15.0620   20.0340 O   0  0  0  0  0  0  0  0  0  0  0  0
  -29.7800  -16.2240   20.4920 N   0  0  0  0  0  0  0  0  0  0  0  0
  -28.8010  -16.0610   20.6740 H   0  0  0  0  0  0  0  0  0  0  0  0
  -25.1960  -13.8660   20.5560 C   0  0  0  0  0  0  0  0  0  0  0  0
  -24.1400  -13.0790   20.9300 C   0  0  0  0  0  0  0  0  0  0  0  0
  -24.6130  -11.7340   20.8850 C   0  0  0  0  0  0  0  0  0  0  0  0
  -26.2410  -12.9960   20.2960 N   0  0  0  0  0  0  0  0  0  0  0  0
  -25.9010  -11.7090   20.5620 N   0  0  0  0  0  0  0  0  0  0  0  0
  -23.8960  -10.4640   21.0720 C   0  0  0  0  0  0  0  0  0  0  0  0
  -24.3440   -9.4910   21.9930 C   0  0  0  0  0  3  0  0  0  0  0  0
  -23.6270   -8.2880   22.1690 C   0  0  0  0  0  3  0  0  0  0  0  0
  -22.4500   -8.0490   21.4230 C   0  0  0  0  0  0  0  0  0  0  0  0
  -22.0200   -9.0100   20.4890 C   0  0  0  0  0  3  0  0  0  0  0  0
  -22.7380  -10.2050   20.3120 C   0  0  0  0  0  3  0  0  0  0  0  0
  -21.7050   -6.8990   21.5100 O   0  0  0  0  0  0  0  0  0  0  0  0
  -21.6690   -6.1450   22.6560 C   0  0  0  0  0  0  0  0  0  0  0  0
  -21.2280   -6.6810   23.8860 C   0  0  0  0  0  3  0  0  0  0  0  0
  -21.1470   -5.8550   25.0240 C   0  0  0  0  0  3  0  0  0  0  0  0
  -21.4940   -4.4930   24.9350 C   0  0  0  0  0  0  0  0  0  0  0  0
  -21.9270   -3.9560   23.7090 C   0  0  0  0  0  3  0  0  0  0  0  0
  -22.0130   -4.7810   22.5730 C   0  0  0  0  0  0  0  0  0  0  0  0
  -22.4120   -4.2550   21.3910 F   0  0  0  0  0  0  0  0  0  0  0  0
  -21.4070   -3.6970   26.0260 F   0  0  0  0  0  0  0  0  0  0  0  0
  -22.7430  -13.5450   21.2190 C   0  0  0  0  0  0  0  0  0  0  0  0
  -22.0300  -12.8390   22.0900 N   0  0  0  0  0  0  0  0  0  0  0  0
  -22.2920  -14.5710   20.7090 O   0  0  0  0  0  0  0  0  0  0  0  0
  -22.4090  -12.0120   22.5240 H   0  0  0  0  0  0  0  0  0  0  0  0
  -21.0940  -13.1340   22.3290 H   0  0  0  0  0  0  0  0  0  0  0  0
  -25.3480  -15.2380   20.3860 N   0  0  0  0  0  0  0  0  0  0  0  0
  -24.5750  -15.8850   20.4990 H   0  0  0  0  0  0  0  0  0  0  0  0
  -26.1830  -15.6810   20.0240 H   0  0  0  0  0  0  0  0  0  0  0  0
  -27.9700  -24.7110   20.1060 C   0  0  0  0  0  2  0  0  0  0  0  0
  -28.2570  -26.2240   20.2950 O   0  0  0  0  0  0  0  0  0  0  0  0
  -24.6320  -31.9080   23.2580 C   0  0  0  0  0  0  0  0  0  0  0  0
  -27.2000  -27.2000   20.2230 C   0  0  0  0  0  0  0  0  0  0  0  0
  -23.4300  -30.5220   21.6100 C   0  0  0  0  0  3  0  0  0  0  0  0
  -24.8780  -28.9450   20.1870 C   0  0  0  0  0  0  0  0  0  0  0  0
  -25.9870  -30.7740   21.4620 C   0  0  0  0  0  2  0  0  0  0  0  0
  -26.0550  -29.3860   20.8030 C   0  0  0  0  0  0  0  0  0  0  0  0
  -27.2170  -28.5280   20.8090 C   0  0  0  0  0  3  0  0  0  0  0  0
  -25.9940  -26.8580   19.5680 C   0  0  0  0  0  3  0  0  0  0  0  0
  -24.8610  -27.6960   19.5490 C   0  0  0  0  0  3  0  0  0  0  0  0
  -23.6540  -29.8450   20.2330 C   0  0  0  0  0  2  0  0  0  0  0  0
  -24.7020  -31.0900   22.1640 N   0  0  0  0  0  0  0  0  0  0  0  0
  -23.5480  -32.2010   23.7820 O   0  0  0  0  0  0  0  0  0  0  0  0
  -22.7440  -29.5160   22.5680 C   0  0  0  0  0  0  0  0  0  0  0  0
  -21.4160  -29.3550   22.4420 N   0  0  0  0  0  0  0  0  0  0  0  0
  -23.4120  -28.8810   23.3880 O   0  0  0  0  0  0  0  0  0  0  0  0
  -20.9370  -29.9250   21.7600 H   0  0  0  0  0  0  0  0  0  0  0  0
  -18.0220  -28.1830   22.9360 C   0  0  0  0  0  0  0  0  0  0  0  0
  -20.5830  -28.4210   23.2080 C   0  0  0  0  0  3  0  0  0  0  0  0
  -20.6700  -26.9890   22.6290 C   0  0  0  0  0  2  0  0  0  0  0  0
  -19.5660  -26.6820   21.6130 C   0  0  0  0  0  2  0  0  0  0  0  0
  -18.1850  -26.8360   22.2540 C   0  0  0  0  0  2  0  0  0  0  0  0
  -19.1470  -28.9350   23.3670 C   0  0  0  0  0  0  0  0  0  0  0  0
  -18.9350  -30.1960   23.9640 C   0  0  0  0  0  3  0  0  0  0  0  0
  -17.6330  -30.7070   24.1340 C   0  0  0  0  0  3  0  0  0  0  0  0
  -16.5230  -29.9510   23.7180 C   0  0  0  0  0  3  0  0  0  0  0  0
  -16.7200  -28.6930   23.1240 C   0  0  0  0  0  3  0  0  0  0  0  0
  -25.9130  -32.5380   23.8880 C   0  0  0  0  0  3  0  0  0  0  0  0
  -26.4170  -31.7670   25.1690 C   0  0  1  0  0  0  0  0  0  0  0  0
  -25.3140  -31.5320   26.2320 C   0  0  0  0  0  1  0  0  0  0  0  0
  -26.9990  -30.3870   24.7890 C   0  0  0  0  0  1  0  0  0  0  0  0
  -27.5690  -32.5600   25.8350 C   0  0  0  0  0  1  0  0  0  0  0  0
  -25.6070  -33.9350   24.2230 N   0  0  0  0  0  0  0  0  0  0  0  0
  -25.9180  -34.9900   23.4570 C   0  0  0  0  0  0  0  0  0  0  0  0
  -26.5580  -34.8880   22.4080 O   0  0  0  0  0  0  0  0  0  0  0  0
  -25.0280  -34.0880   25.0360 H   0  0  0  0  0  0  0  0  0  0  0  0
  -24.1660  -36.7750   23.1780 C   0  0  0  0  0  1  0  0  0  0  0  0
  -25.4440  -36.3800   23.9310 C   0  0  0  0  0  3  0  0  0  0  0  0
  -27.6080  -37.2800   24.6620 C   0  0  0  0  0  1  0  0  0  0  0  0
  -26.4640  -37.4390   23.7680 N   0  0  0  0  0  0  0  0  0  0  0  0
  -26.0580  -38.3560   23.9390 H   0  0  0  0  0  0  0  0  0  0  0  0
  1  5  1  0
  4  1  1  0
  4  6  1  0
  4  2  1  0
  5  7  1  0
  5  3  1  0
  6 47  1  6
  6  3  1  0
  6  2  1  0
  7  8  2  0
  9 17  1  0
 10 15  1  0
 11 12  1  0
 11 10  1  0
 13 12  1  0
 13 22  1  0
 13 14  1  0
 15  9  1  0
 15 14  1  0
 16  9  2  0
 17  8  1  0
 17 18  1  0
 19 20  2  0
 20 39  1  0
 21 20  1  0
 21 24  1  0
 22 19  1  0
 22 23  1  0
 23 21  2  0
 24 25  1  0
 25 26  2  0
 27 30  1  0
 27 26  1  0
 28 27  2  0
 29 28  1  0
 29 24  2  0
 30 31  1  0
 31 32  1  0
 32 33  2  0
 34 33  1  0
 34 38  1  0
 35 34  2  0
 36 31  2  0
 36 35  1  0
 37 36  1  0
 39 40  1  0
 40 43  1  0
 40 42  1  0
 41 39  2  0
 44 45  1  0
 44 19  1  0
 46 44  1  0
 47 48  1  0
 49 60  2  0
 50 48  1  0
 50 55  1  0
 51 59  1  0
 51 61  1  0
 52 58  1  0
 52 54  1  0
 53 59  1  0
 54 55  2  0
 54 53  1  0
 56 50  2  0
 57 56  1  0
 57 52  2  0
 58 51  1  0
 59 49  1  0
 61 63  2  0
 62 61  1  0
 64 62  1  0
 65 74  2  0
 65 70  1  0
 66 62  1  0
 66 70  1  0
 67 66  1  0
 68 69  1  0
 68 67  1  0
 69 65  1  0
 70 71  2  0
 71 72  1  0
 73 72  2  0
 74 73  1  0
 75 49  1  0
 75 80  1  0
 75 76  1  0
 76 79  1  1
 76 77  1  0
 78 76  1  0
 80 83  1  0
 81 85  1  0
 81 80  1  0
 82 81  2  0
 85 84  1  0
 87 85  1  0
 87 88  1  0
 87 86  1  0
M  ISO  4   9 100  17 100  47 101  48 101
M  END
>  <TORSDO>  (2) 
F 19

>  <SCORE>  (2) 
-14.755

>  <name>  (2) 
1

>  <ligand_id>  (2) 
1

>  <original_smiles>  (2) 
[H]c1c([H])c([H])c2c(c1[H])C([H])([H])C([H])([H])C([H])([H])C2([H])N([H])C(=O)C1([H])N(C(=O)C([H])(N([H])C(=O)C([H])(N([H])C([H])([H])[H])C([H])([H])[H])C(C([H])([H])[H])(C([H])([H])[H])C([H])([H])[H])C([H])([H])c2c([H])c(OC([H])([H])C34C([H])([H])C([H])(C([H])([H])C([H])([H])N([H])C(=O)N5C([H])([H])C([H])([H])C([H])([H])C([H])(n6nc(-c7c([H])c([H])c(Oc8c([H])c([H])c(F)c([H])c8F)c([H])c7[H])c(C(=O)N([H])[H])c6N([H])[H])C5([H])[H])C([H])([H])C3([H])C4([H])[H])c([H])c([H])c2C1([H])[H]

>  <smiles>  (2) 
[H]c1c([H])c([H])c2c(c1[H])C([H])([H])C([H])([H])C([H])([H])C2([H])N([H])C(=O)C1([H])N(C(=O)C([H])(N([H])C(=O)C([H])(N([H])C([H])([H])[H])C([H])([H])[H])C(C([H])([H])[H])(C([H])([H])[H])C([H])([H])[H])C([H])([H])c2c([H])c(OC([H])([H])C34C([H])([H])C([H])(C([H])([H])C([H])([H])N([H])C(=O)N5C([H])([H])C([H])([H])C([H])([H])C([H])(n6nc(-c7c([H])c([H])c(Oc8c([H])c([H])c(F)c([H])c8F)c([H])c7[H])c(C(=O)N([H])[H])c6N([H])[H])C5([H])[H])C([H])([H])C3([H])C4([H])[H])c([H])c([H])c2C1([H])[H]

$$$$
2:0:0
     RDKit          3D

 91100  0  0  1  0  0  0  0  0999 V2000
  -29.0650  -22.8130   21.7870 C   0  0  0  0  0  2  0  0  0  0  0  0
  -29.2790  -20.0960   21.7350 C   0  0  0  0  0  2  0  0  0  0  0  0
  -29.8340  -21.5280   21.5060 C   0  0  0  0  0  3  0  0  0  0  0  0
  -29.4950  -21.4260   19.9840 C   0  0  0  0  0  3  0  0  0  0  0  0
  -28.5230  -22.8820   20.3690 C   0  0  0  0  0  3  0  0  0  0  0  0
  -29.8530  -19.6920   20.3720 C   0  0  1  0  0  0  0  0  0  0  0  0
  -31.3380  -19.5700   20.4530 N   0  0  0  0  0  4  0  0  0  0  0  0
  -31.7440  -20.3120   20.9950 H   0  0  0  0  0  0  0  0  0  0  0  0
  -31.7470  -19.6020   19.5360 H   0  0  0  0  0  0  0  0  0  0  0  0
  -31.5960  -18.6930   20.8690 H   0  0  0  0  0  0  0  0  0  0  0  0
  -28.3510  -24.5250   19.7010 C   0  0  0  0  0  2  0  0  0  0  0  0
  -28.2430  -26.0440   20.2780 O   0  0  0  0  0  0  0  0  0  0  0  0
  -24.6390  -31.9170   23.1750 C   0  0  0  0  0  0  0  0  0  0  0  0
  -27.2020  -27.0880   20.1530 C   0  0  0  0  0  0  0  0  0  0  0  0
  -23.4340  -30.5060   21.5540 C   0  0  0  0  0  3  0  0  0  0  0  0
  -24.8780  -28.9130   20.1170 C   0  0  0  0  0  0  0  0  0  0  0  0
  -25.9900  -30.7500   21.3750 C   0  0  0  0  0  2  0  0  0  0  0  0
  -26.0620  -29.3410   20.7290 C   0  0  0  0  0  0  0  0  0  0  0  0
  -27.2120  -28.4420   20.7310 C   0  0  0  0  0  3  0  0  0  0  0  0
  -25.9880  -26.7980   19.4890 C   0  0  0  0  0  3  0  0  0  0  0  0
  -24.8640  -27.6620   19.4780 C   0  0  0  0  0  3  0  0  0  0  0  0
  -23.6510  -29.8190   20.1760 C   0  0  0  0  0  2  0  0  0  0  0  0
  -24.7090  -31.0860   22.0870 N   0  0  0  0  0  0  0  0  0  0  0  0
  -23.5550  -32.1980   23.7130 O   0  0  0  0  0  0  0  0  0  0  0  0
  -22.7630  -29.5080   22.5330 C   0  0  0  0  0  0  0  0  0  0  0  0
  -21.4350  -29.3220   22.4190 N   0  0  0  0  0  0  0  0  0  0  0  0
  -23.4450  -28.9000   23.3640 O   0  0  0  0  0  0  0  0  0  0  0  0
  -20.9390  -29.8630   21.7240 H   0  0  0  0  0  0  0  0  0  0  0  0
  -18.0740  -28.0810   22.9670 C   0  0  0  0  0  0  0  0  0  0  0  0
  -20.6300  -28.3830   23.2070 C   0  0  0  0  0  3  0  0  0  0  0  0
  -20.7470  -26.9460   22.6480 C   0  0  0  0  0  2  0  0  0  0  0  0
  -19.6420  -26.6000   21.6450 C   0  0  0  0  0  2  0  0  0  0  0  0
  -18.2630  -26.7290   22.2980 C   0  0  0  0  0  2  0  0  0  0  0  0
  -19.1840  -28.8650   23.3790 C   0  0  0  0  0  0  0  0  0  0  0  0
  -18.9480  -30.1260   23.9680 C   0  0  0  0  0  3  0  0  0  0  0  0
  -17.6370  -30.6060   24.1440 C   0  0  0  0  0  3  0  0  0  0  0  0
  -16.5400  -29.8210   23.7440 C   0  0  0  0  0  3  0  0  0  0  0  0
  -16.7610  -28.5600   23.1610 C   0  0  0  0  0  3  0  0  0  0  0  0
  -25.9150  -32.5720   23.7870 C   0  0  0  0  0  3  0  0  0  0  0  0
  -26.4570  -31.8010   25.0540 C   0  0  1  0  0  0  0  0  0  0  0  0
  -25.3790  -31.5420   26.1340 C   0  0  0  0  0  1  0  0  0  0  0  0
  -27.0580  -30.4330   24.6580 C   0  0  0  0  0  1  0  0  0  0  0  0
  -27.6020  -32.6100   25.7080 C   0  0  0  0  0  1  0  0  0  0  0  0
  -25.5850  -33.9630   24.1400 N   0  0  0  0  0  0  0  0  0  0  0  0
  -25.9010  -35.0370   23.4010 C   0  0  0  0  0  0  0  0  0  0  0  0
  -26.5620  -34.9580   22.3620 O   0  0  0  0  0  0  0  0  0  0  0  0
  -24.9920  -34.0940   24.9460 H   0  0  0  0  0  0  0  0  0  0  0  0
  -24.1680  -36.8360   23.0860 C   0  0  0  0  0  1  0  0  0  0  0  0
  -25.4080  -36.4130   23.8900 C   0  0  0  0  0  3  0  0  0  0  0  0
  -27.5310  -37.2980   24.7550 C   0  0  0  0  0  1  0  0  0  0  0  0
  -26.4360  -37.4740   23.8050 N   0  0  0  0  0  0  0  0  0  0  0  0
  -26.0230  -38.3880   23.9640 H   0  0  0  0  0  0  0  0  0  0  0  0
  -29.5520  -18.0870   19.7070 C   0  0  0  0  0  2  0  0  0  0  0  0
  -30.6080  -15.3390   20.0250 C   0  0  0  0  0  0  0  0  0  0  0  0
  -30.5890  -12.9070   19.1700 C   0  0  0  0  0  2  0  0  0  0  0  0
  -29.6390  -12.7530   17.9570 C   0  0  0  0  0  2  0  0  0  0  0  0
  -28.1910  -12.5020   18.4130 C   0  0  0  0  0  2  0  0  0  0  0  0
  -27.7770  -13.4350   19.5790 C   0  0  0  0  0  3  0  0  0  0  0  0
  -28.8530  -13.5290   20.6850 C   0  0  0  0  0  2  0  0  0  0  0  0
  -30.0830  -14.0220   20.0460 N   0  0  0  0  0  0  0  0  0  0  0  0
  -31.7840  -15.4040   19.6400 O   0  0  0  0  0  0  0  0  0  0  0  0
  -29.8080  -16.5450   20.2640 N   0  0  0  0  0  0  0  0  0  0  0  0
  -28.9680  -16.2470   20.7380 H   0  0  0  0  0  0  0  0  0  0  0  0
  -25.4160  -13.9730   20.3880 C   0  0  0  0  0  0  0  0  0  0  0  0
  -24.3690  -13.1870   20.7780 C   0  0  0  0  0  0  0  0  0  0  0  0
  -24.8420  -11.8400   20.7230 C   0  0  0  0  0  0  0  0  0  0  0  0
  -26.4590  -13.1070   20.1110 N   0  0  0  0  0  0  0  0  0  0  0  0
  -26.1270  -11.8170   20.3810 N   0  0  0  0  0  0  0  0  0  0  0  0
  -24.1270  -10.5720   20.9180 C   0  0  0  0  0  0  0  0  0  0  0  0
  -24.5450   -9.6280   21.8830 C   0  0  0  0  0  3  0  0  0  0  0  0
  -23.8280   -8.4270   22.0660 C   0  0  0  0  0  3  0  0  0  0  0  0
  -22.6770   -8.1590   21.2860 C   0  0  0  0  0  0  0  0  0  0  0  0
  -22.2770   -9.0910   20.3120 C   0  0  0  0  0  3  0  0  0  0  0  0
  -22.9960  -10.2840   20.1270 C   0  0  0  0  0  3  0  0  0  0  0  0
  -21.9320   -7.0070   21.3790 O   0  0  0  0  0  0  0  0  0  0  0  0
  -21.8100   -6.3210   22.5600 C   0  0  0  0  0  0  0  0  0  0  0  0
  -21.2480   -6.9130   23.7120 C   0  0  0  0  0  3  0  0  0  0  0  0
  -21.0770   -6.1490   24.8840 C   0  0  0  0  0  3  0  0  0  0  0  0
  -21.4610   -4.7940   24.9050 C   0  0  0  0  0  0  0  0  0  0  0  0
  -22.0170   -4.2030   23.7580 C   0  0  0  0  0  3  0  0  0  0  0  0
  -22.1890   -4.9630   22.5880 C   0  0  0  0  0  0  0  0  0  0  0  0
  -22.7050   -4.3820   21.4790 F   0  0  0  0  0  0  0  0  0  0  0  0
  -21.2910   -4.0580   26.0280 F   0  0  0  0  0  0  0  0  0  0  0  0
  -22.9750  -13.6540   21.0840 C   0  0  0  0  0  0  0  0  0  0  0  0
  -22.2680  -12.9450   21.9560 N   0  0  0  0  0  0  0  0  0  0  0  0
  -22.5230  -14.6820   20.5820 O   0  0  0  0  0  0  0  0  0  0  0  0
  -22.6460  -12.1160   22.3880 H   0  0  0  0  0  0  0  0  0  0  0  0
  -21.3320  -13.2390   22.1990 H   0  0  0  0  0  0  0  0  0  0  0  0
  -25.5620  -15.3480   20.2190 N   0  0  0  0  0  0  0  0  0  0  0  0
  -24.7850  -15.9860   20.3510 H   0  0  0  0  0  0  0  0  0  0  0  0
  -26.3810  -15.7970   19.8300 H   0  0  0  0  0  0  0  0  0  0  0  0
  3  2  1  0
  3  1  1  0
  4  5  1  0
  4  6  1  0
  4  3  1  0
  5  1  1  0
  6  7  1  0
  6  2  1  0
  7 10  1  0
  7  8  1  0
  9  7  1  0
 11 12  1  0
 11  5  1  0
 13 24  2  0
 13 39  1  0
 14 12  1  0
 14 19  1  0
 15 23  1  0
 15 25  1  0
 16 22  1  0
 16 18  1  0
 17 23  1  0
 18 19  2  0
 18 17  1  0
 20 14  2  0
 21 20  1  0
 21 16  2  0
 22 15  1  0
 23 13  1  0
 25 27  2  0
 26 25  1  0
 26 30  1  0
 28 26  1  0
 29 38  2  0
 29 34  1  0
 30 34  1  0
 31 30  1  0
 32 33  1  0
 32 31  1  0
 33 29  1  0
 34 35  2  0
 35 36  1  0
 37 36  2  0
 38 37  1  0
 39 44  1  0
 39 40  1  0
 40 43  1  1
 40 41  1  0
 42 40  1  0
 44 47  1  0
 45 49  1  0
 45 44  1  0
 46 45  2  0
 48 49  1  0
 51 49  1  0
 51 52  1  0
 51 50  1  0
 53 62  1  0
  6 53  1  6
 54 60  1  0
 54 62  1  0
 55 60  1  0
 56 57  1  0
 56 55  1  0
 57 58  1  0
 58 67  1  0
 58 59  1  0
 60 59  1  0
 61 54  2  0
 62 63  1  0
 64 65  2  0
 65 84  1  0
 66 65  1  0
 66 69  1  0
 67 68  1  0
 67 64  1  0
 68 66  2  0
 69 70  1  0
 70 71  2  0
 72 75  1  0
 72 71  1  0
 73 72  2  0
 74 73  1  0
 74 69  2  0
 75 76  1  0
 76 81  2  0
 76 77  1  0
 77 78  2  0
 78 79  1  0
 79 83  1  0
 80 79  2  0
 81 80  1  0
 82 81  1  0
 84 85  1  0
 85 88  1  0
 85 87  1  0
 86 84  2  0
 89 90  1  0
 89 64  1  0
 91 89  1  0
M  ISO  4  11 101  12 101  54 100  62 100
M  END
>  <TORSDO>  (3) 
F 19

>  <SCORE>  (3) 
-15.030

>  <name>  (3) 
2

>  <ligand_id>  (3) 
2

>  <original_smiles>  (3) 
[H]c1c([H])c([H])c2c(c1[H])C([H])([H])C([H])([H])C([H])([H])C2([H])N([H])C(=O)C1([H])N(C(=O)C([H])(N([H])C(=O)C([H])(N([H])C([H])([H])[H])C([H])([H])[H])C(C([H])([H])[H])(C([H])([H])[H])C([H])([H])[H])C([H])([H])c2c([H])c(OC([H])([H])C3([H])C([H])([H])C4([H])C([H])([H])C(C([H])([H])N([H])C(=O)N5C([H])([H])C([H])([H])C([H])([H])C([H])(n6nc(-c7c([H])c([H])c(Oc8c([H])c([H])c(F)c([H])c8F)c([H])c7[H])c(C(=O)N([H])[H])c6N([H])[H])C5([H])[H])([N+]([H])([H])[H])C34[H])c([H])c([H])c2C1([H])[H]

>  <smiles>  (3) 
[H]c1c([H])c([H])c2c(c1[H])C([H])([H])C([H])([H])C([H])([H])C2([H])N([H])C(=O)C1([H])N(C(=O)C([H])(N([H])C(=O)C([H])(N([H])C([H])([H])[H])C([H])([H])[H])C(C([H])([H])[H])(C([H])([H])[H])C([H])([H])[H])C([H])([H])c2c([H])c(OC([H])([H])C3([H])C([H])([H])C4([H])C([H])([H])C(C([H])([H])N([H])C(=O)N5C([H])([H])C([H])([H])C([H])([H])C([H])(n6nc(-c7c([H])c([H])c(Oc8c([H])c([H])c(F)c([H])c8F)c([H])c7[H])c(C(=O)N([H])[H])c6N([H])[H])C5([H])[H])([N+]([H])([H])[H])C34[H])c([H])c([H])c2C1([H])[H]

$$$$
3:0:0
     RDKit          3D

 87 95  0  0  1  0  0  0  0  0999 V2000
  -30.2680  -15.8640   20.2910 C   0  0  0  0  0  0  0  0  0  0  0  0
  -30.3840  -13.2660   19.5200 C   0  0  0  0  0  2  0  0  0  0  0  0
  -29.5490  -12.7370   18.3150 C   0  0  0  0  0  2  0  0  0  0  0  0
  -28.1310  -12.3530   18.7540 C   0  0  0  0  0  2  0  0  0  0  0  0
  -27.5690  -13.3870   19.7550 C   0  0  0  0  0  3  0  0  0  0  0  0
  -28.5600  -13.8180   20.8680 C   0  0  0  0  0  2  0  0  0  0  0  0
  -29.7080  -14.4890   20.1940 N   0  0  0  0  0  0  0  0  0  0  0  0
  -31.5030  -15.6840   20.1850 O   0  0  0  0  0  0  0  0  0  0  0  0
  -28.4430  -18.3110   20.6310 C   0  0  0  0  0  2  0  0  0  0  0  0
  -30.3880  -18.7950   19.8890 C   0  0  0  0  0  3  0  0  0  0  0  0
  -28.2500  -20.0390   20.1970 C   0  0  0  0  0  3  0  0  0  0  0  0
  -29.5170  -20.3080   19.5820 C   0  0  0  0  0  3  0  0  0  0  0  0
  -28.8350  -21.7050   20.3960 C   0  0  0  0  0  2  0  0  0  0  0  0
  -29.6920  -17.3730   20.2250 N   0  0  0  0  0  0  0  0  0  0  0  0
  -25.1960  -13.9030   20.4680 C   0  0  0  0  0  0  0  0  0  0  0  0
  -24.1330  -13.1220   20.8190 C   0  0  0  0  0  0  0  0  0  0  0  0
  -24.6120  -11.7740   20.8180 C   0  0  0  0  0  0  0  0  0  0  0  0
  -26.2500  -13.0370   20.2600 N   0  0  0  0  0  0  0  0  0  0  0  0
  -25.9130  -11.7490   20.5370 N   0  0  0  0  0  0  0  0  0  0  0  0
  -23.8840  -10.5120   21.0070 C   0  0  0  0  0  0  0  0  0  0  0  0
  -24.2960   -9.5560   21.9610 C   0  0  0  0  0  3  0  0  0  0  0  0
  -23.5620   -8.3620   22.1430 C   0  0  0  0  0  3  0  0  0  0  0  0
  -22.4040   -8.1150   21.3690 C   0  0  0  0  0  0  0  0  0  0  0  0
  -22.0120   -9.0600   20.4030 C   0  0  0  0  0  3  0  0  0  0  0  0
  -22.7450  -10.2440   20.2210 C   0  0  0  0  0  3  0  0  0  0  0  0
  -21.6460   -6.9720   21.4560 O   0  0  0  0  0  0  0  0  0  0  0  0
  -21.5760   -6.2420   22.6160 C   0  0  0  0  0  0  0  0  0  0  0  0
  -21.1260   -6.8090   23.8290 C   0  0  0  0  0  3  0  0  0  0  0  0
  -21.0040   -6.0060   24.9800 C   0  0  0  0  0  3  0  0  0  0  0  0
  -21.3210   -4.6350   24.9180 C   0  0  0  0  0  0  0  0  0  0  0  0
  -21.7630   -4.0670   23.7120 C   0  0  0  0  0  3  0  0  0  0  0  0
  -21.8870   -4.8680   22.5620 C   0  0  0  0  0  0  0  0  0  0  0  0
  -22.2940   -4.3120   21.3960 F   0  0  0  0  0  0  0  0  0  0  0  0
  -21.1980   -3.8600   26.0220 F   0  0  0  0  0  0  0  0  0  0  0  0
  -22.7270  -13.5960   21.0360 C   0  0  0  0  0  0  0  0  0  0  0  0
  -21.9790  -12.9220   21.9000 N   0  0  0  0  0  0  0  0  0  0  0  0
  -22.3000  -14.6040   20.4730 O   0  0  0  0  0  0  0  0  0  0  0  0
  -22.3390  -12.1100   22.3810 H   0  0  0  0  0  0  0  0  0  0  0  0
  -21.0340  -13.2240   22.0870 H   0  0  0  0  0  0  0  0  0  0  0  0
  -25.3520  -15.2730   20.2740 N   0  0  0  0  0  0  0  0  0  0  0  0
  -24.5770  -15.9210   20.3610 H   0  0  0  0  0  0  0  0  0  0  0  0
  -26.2060  -15.7110   19.9590 H   0  0  0  0  0  0  0  0  0  0  0  0
  -31.4170  -18.5770   18.7700 C   0  0  0  0  0  0  0  0  0  0  0  0
  -32.8480  -19.0390   19.0120 C   0  0  0  0  0  1  0  0  0  0  0  0
  -31.1250  -18.0450   17.6950 O   0  0  0  0  0  0  0  0  0  0  0  0
  -28.1130  -23.5210   19.9430 C   0  0  0  0  0  1  0  0  0  0  0  0
  -28.1880  -25.3330   20.2180 O   0  0  0  0  0  0  0  0  0  0  0  0
  -24.6590  -31.7800   23.0950 C   0  0  0  0  0  0  0  0  0  0  0  0
  -27.2310  -26.6060   20.1310 C   0  0  0  0  0  0  0  0  0  0  0  0
  -23.4990  -30.3750   21.4460 C   0  0  0  0  0  3  0  0  0  0  0  0
  -24.9690  -28.7130   20.0500 C   0  0  0  0  0  0  0  0  0  0  0  0
  -26.0840  -30.4930   21.3640 C   0  0  0  0  0  2  0  0  0  0  0  0
  -26.1580  -29.0480   20.7060 C   0  0  0  0  0  0  0  0  0  0  0  0
  -27.2650  -28.0260   20.7110 C   0  0  0  0  0  3  0  0  0  0  0  0
  -26.0080  -26.5170   19.4110 C   0  0  0  0  0  3  0  0  0  0  0  0
  -24.9400  -27.4750   19.3790 C   0  0  0  0  0  3  0  0  0  0  0  0
  -23.7620  -29.6740   20.0810 C   0  0  0  0  0  2  0  0  0  0  0  0
  -24.7720  -30.9200   22.0210 N   0  0  0  0  0  0  0  0  0  0  0  0
  -23.5570  -32.0760   23.5910 O   0  0  0  0  0  0  0  0  0  0  0  0
  -22.7680  -29.4020   22.4140 C   0  0  0  0  0  0  0  0  0  0  0  0
  -21.4310  -29.2740   22.2990 N   0  0  0  0  0  0  0  0  0  0  0  0
  -23.4170  -28.7610   23.2420 O   0  0  0  0  0  0  0  0  0  0  0  0
  -20.9540  -29.8410   21.6120 H   0  0  0  0  0  0  0  0  0  0  0  0
  -18.0240  -28.1260   22.8610 C   0  0  0  0  0  0  0  0  0  0  0  0
  -20.5960  -28.3390   23.0660 C   0  0  0  0  0  3  0  0  0  0  0  0
  -20.6530  -26.9180   22.4570 C   0  0  0  0  0  2  0  0  0  0  0  0
  -19.5220  -26.6450   21.4600 C   0  0  0  0  0  2  0  0  0  0  0  0
  -18.1580  -26.7970   22.1390 C   0  0  0  0  0  2  0  0  0  0  0  0
  -19.1680  -28.8580   23.2810 C   0  0  0  0  0  0  0  0  0  0  0  0
  -18.9830  -30.1010   23.9240 C   0  0  0  0  0  3  0  0  0  0  0  0
  -17.6910  -30.6150   24.1450 C   0  0  0  0  0  3  0  0  0  0  0  0
  -16.5630  -29.8820   23.7360 C   0  0  0  0  0  3  0  0  0  0  0  0
  -16.7310  -28.6380   23.1010 C   0  0  0  0  0  3  0  0  0  0  0  0
  -25.9060  -32.4440   23.7540 C   0  0  0  0  0  3  0  0  0  0  0  0
  -25.5650  -33.8390   24.0990 N   0  0  0  0  0  0  0  0  0  0  0  0
  -25.8920  -34.9190   23.3750 C   0  0  0  0  0  0  0  0  0  0  0  0
  -26.5660  -34.8470   22.3460 O   0  0  0  0  0  0  0  0  0  0  0  0
  -24.9620  -33.9680   24.8980 H   0  0  0  0  0  0  0  0  0  0  0  0
  -24.1450  -36.7140   23.0760 C   0  0  0  0  0  1  0  0  0  0  0  0
  -25.3950  -36.2970   23.8680 C   0  0  0  0  0  3  0  0  0  0  0  0
  -27.5250  -37.1930   24.7050 C   0  0  0  0  0  1  0  0  0  0  0  0
  -26.4170  -37.3640   23.7710 N   0  0  0  0  0  0  0  0  0  0  0  0
  -26.0000  -38.2770   23.9360 H   0  0  0  0  0  0  0  0  0  0  0  0
  -26.3970  -31.6850   25.0500 C   0  0  1  0  0  0  0  0  0  0  0  0
  -25.2810  -31.4500   26.0970 C   0  0  0  0  0  1  0  0  0  0  0  0
  -26.9950  -30.3060   24.6960 C   0  0  0  0  0  1  0  0  0  0  0  0
  -27.5300  -32.4900   25.7320 C   0  0  0  0  0  1  0  0  0  0  0  0
  2  7  1  0
  3  4  1  0
  3  2  1  0
  5  4  1  0
  5 18  1  0
  5  6  1  0
  7  1  1  0
  7  6  1  0
  8  1  2  0
 10 43  1  0
 10 14  1  0
 11 13  1  0
 11  9  1  0
 12 10  1  0
 12 11  1  0
 12 13  1  0
 14  1  1  0
 14  9  1  0
 15 16  2  0
 16 35  1  0
 17 16  1  0
 17 20  1  0
 18 15  1  0
 18 19  1  0
 19 17  2  0
 20 21  1  0
 21 22  2  0
 23 26  1  0
 23 22  1  0
 24 23  2  0
 25 24  1  0
 25 20  2  0
 26 27  1  0
 27 28  1  0
 28 29  2  0
 30 29  1  0
 30 34  1  0
 31 30  2  0
 32 27  2  0
 32 31  1  0
 33 32  1  0
 35 36  1  0
 36 39  1  0
 36 38  1  0
 37 35  2  0
 40 41  1  0
 40 15  1  0
 42 40  1  0
 43 44  1  0
 45 43  2  0
 46 47  1  0
 48 59  2  0
 49 47  1  0
 49 54  1  0
 50 58  1  0
 50 60  1  0
 51 57  1  0
 51 53  1  0
 52 58  1  0
 53 54  2  0
 53 52  1  0
 55 49  2  0
 56 55  1  0
 56 51  2  0
 57 50  1  0
 58 48  1  0
 60 62  2  0
 61 60  1  0
 63 61  1  0
 64 73  2  0
 64 69  1  0
 65 61  1  0
 65 69  1  0
 66 65  1  0
 67 68  1  0
 67 66  1  0
 68 64  1  0
 69 70  2  0
 70 71  1  0
 72 71  2  0
 73 72  1  0
 74 48  1  0
 74 75  1  0
 74 84  1  0
 75 78  1  0
 76 80  1  0
 76 75  1  0
 77 76  2  0
 80 79  1  0
 82 80  1  0
 82 83  1  0
 82 81  1  0
 84 87  1  1
 84 85  1  0
 86 84  1  0
M  ISO  4   1 100  14 100  46 101  47 101
M  END
>  <TORSDO>  (4) 
F 17

>  <SCORE>  (4) 
-15.888

>  <name>  (4) 
3

>  <ligand_id>  (4) 
3

>  <original_smiles>  (4) 
[H]c1c([H])c([H])c2c(c1[H])C([H])([H])C([H])([H])C([H])([H])C2([H])N([H])C(=O)C1([H])N(C(=O)C([H])(N([H])C(=O)C([H])(N([H])C([H])([H])[H])C([H])([H])[H])C(C([H])([H])[H])(C([H])([H])[H])C([H])([H])[H])C([H])([H])c2c([H])c(OC([H])([H])C3([H])C4([H])C([H])([H])N(C(=O)N5C([H])([H])C([H])([H])C([H])([H])C([H])(n6nc(-c7c([H])c([H])c(Oc8c([H])c([H])c(F)c([H])c8F)c([H])c7[H])c(C(=O)N([H])[H])c6N([H])[H])C5([H])[H])C([H])(C(=O)C([H])([H])[H])C34[H])c([H])c([H])c2C1([H])[H]

>  <smiles>  (4) 
[H]c1c([H])c([H])c2c(c1[H])C([H])([H])C([H])([H])C([H])([H])C2([H])N([H])C(=O)C1([H])N(C(=O)C([H])(N([H])C(=O)C([H])(N([H])C([H])([H])[H])C([H])([H])[H])C(C([H])([H])[H])(C([H])([H])[H])C([H])([H])[H])C([H])([H])c2c([H])c(OC([H])([H])C3([H])C4([H])C([H])([H])N(C(=O)N5C([H])([H])C([H])([H])C([H])([H])C([H])(n6nc(-c7c([H])c([H])c(Oc8c([H])c([H])c(F)c([H])c8F)c([H])c7[H])c(C(=O)N([H])[H])c6N([H])[H])C5([H])[H])C([H])(C(=O)C([H])([H])[H])C34[H])c([H])c([H])c2C1([H])[H]

$$$$
4:0:0
     RDKit          3D

 91100  0  0  1  0  0  0  0  0999 V2000
  -28.9210  -21.3310   20.4380 C   0  0  0  0  0  3  0  0  0  0  0  0
  -28.6450  -22.7180   19.9710 C   0  0  0  0  0  0  0  0  0  0  0  0
  -29.1920  -19.7830   19.7450 C   0  0  0  0  0  0  0  0  0  0  0  0
  -28.6670  -19.6600   18.6340 O   0  0  0  0  0  0  0  0  0  0  0  0
  -32.2370  -19.8240   20.8650 C   0  0  0  0  0  2  0  0  0  0  0  0
  -30.2550  -18.3560   21.8350 C   0  0  0  0  0  2  0  0  0  0  0  0
  -31.7230  -18.6650   21.6840 C   0  0  0  0  0  3  0  0  0  0  0  0
  -31.5580  -18.6520   20.1830 C   0  0  0  0  0  3  0  0  0  0  0  0
  -30.0710  -18.3270   20.3070 C   0  0  2  0  0  0  0  0  0  0  0  0
  -30.6170  -15.3970   19.8710 C   0  0  0  0  0  0  0  0  0  0  0  0
  -30.5550  -12.9340   19.0100 C   0  0  0  0  0  2  0  0  0  0  0  0
  -29.5690  -12.6660   17.8460 C   0  0  0  0  0  2  0  0  0  0  0  0
  -28.1520  -12.3910   18.3800 C   0  0  0  0  0  2  0  0  0  0  0  0
  -27.7530  -13.3810   19.5030 C   0  0  0  0  0  3  0  0  0  0  0  0
  -28.8640  -13.5780   20.5550 C   0  0  0  0  0  2  0  0  0  0  0  0
  -30.0360  -14.0940   19.8270 N   0  0  0  0  0  0  0  0  0  0  0  0
  -31.8420  -15.3590   19.6770 O   0  0  0  0  0  0  0  0  0  0  0  0
  -29.8650  -16.6910   19.9270 N   0  0  0  0  0  0  0  0  0  0  0  0
  -28.8780  -16.4950   19.8470 H   0  0  0  0  0  0  0  0  0  0  0  0
  -25.4570  -13.9520   20.4460 C   0  0  0  0  0  0  0  0  0  0  0  0
  -24.4060  -13.1820   20.8570 C   0  0  0  0  0  0  0  0  0  0  0  0
  -24.8420  -11.8260   20.7440 C   0  0  0  0  0  0  0  0  0  0  0  0
  -26.4610  -13.0680   20.0970 N   0  0  0  0  0  0  0  0  0  0  0  0
  -26.1090  -11.7790   20.3440 N   0  0  0  0  0  0  0  0  0  0  0  0
  -24.1010  -10.5710   20.9320 C   0  0  0  0  0  0  0  0  0  0  0  0
  -24.5430   -9.5780   21.8330 C   0  0  0  0  0  3  0  0  0  0  0  0
  -23.8010   -8.3920   22.0140 C   0  0  0  0  0  3  0  0  0  0  0  0
  -22.6010   -8.1890   21.2920 C   0  0  0  0  0  0  0  0  0  0  0  0
  -22.1760   -9.1700   20.3790 C   0  0  0  0  0  3  0  0  0  0  0  0
  -22.9190  -10.3470   20.1960 C   0  0  0  0  0  3  0  0  0  0  0  0
  -21.8280   -7.0560   21.3840 O   0  0  0  0  0  0  0  0  0  0  0  0
  -21.7740   -6.3130   22.5360 C   0  0  0  0  0  0  0  0  0  0  0  0
  -21.3190   -6.8610   23.7550 C   0  0  0  0  0  3  0  0  0  0  0  0
  -21.2130   -6.0430   24.8970 C   0  0  0  0  0  3  0  0  0  0  0  0
  -21.5510   -4.6780   24.8220 C   0  0  0  0  0  0  0  0  0  0  0  0
  -22.0000   -4.1310   23.6070 C   0  0  0  0  0  3  0  0  0  0  0  0
  -22.1070   -4.9450   22.4670 C   0  0  0  0  0  0  0  0  0  0  0  0
  -22.5200   -4.4070   21.2940 F   0  0  0  0  0  0  0  0  0  0  0  0
  -21.4430   -3.8920   25.9180 F   0  0  0  0  0  0  0  0  0  0  0  0
  -23.0400  -13.6750   21.2310 C   0  0  0  0  0  0  0  0  0  0  0  0
  -22.3530  -12.9650   22.1180 N   0  0  0  0  0  0  0  0  0  0  0  0
  -22.5930  -14.7260   20.7720 O   0  0  0  0  0  0  0  0  0  0  0  0
  -22.7300  -12.1140   22.5100 H   0  0  0  0  0  0  0  0  0  0  0  0
  -21.4380  -13.2750   22.4120 H   0  0  0  0  0  0  0  0  0  0  0  0
  -25.6330  -15.3270   20.3080 N   0  0  0  0  0  0  0  0  0  0  0  0
  -24.8810  -15.9830   20.4890 H   0  0  0  0  0  0  0  0  0  0  0  0
  -26.4500  -15.7630   19.9030 H   0  0  0  0  0  0  0  0  0  0  0  0
  -28.6990  -22.9620   18.6540 O   0  0  0  0  0  0  0  0  0  0  0  0
  -28.9120  -22.1460   18.2160 H   0  0  0  0  0  0  0  0  0  0  0  0
  -28.1440  -24.2370   20.7120 C   0  0  0  0  0  2  0  0  0  0  0  0
  -28.3580  -25.8480   20.3650 O   0  0  0  0  0  0  0  0  0  0  0  0
  -24.6900  -31.8770   23.2180 C   0  0  0  0  0  0  0  0  0  0  0  0
  -27.3320  -26.9410   20.3530 C   0  0  0  0  0  0  0  0  0  0  0  0
  -23.5370  -30.4420   21.5850 C   0  0  0  0  0  3  0  0  0  0  0  0
  -25.0220  -28.8160   20.2270 C   0  0  0  0  0  0  0  0  0  0  0  0
  -26.1060  -30.6650   21.4820 C   0  0  0  0  0  2  0  0  0  0  0  0
  -26.1990  -29.2400   20.8580 C   0  0  0  0  0  0  0  0  0  0  0  0
  -27.3520  -28.3260   20.8880 C   0  0  0  0  0  3  0  0  0  0  0  0
  -26.1210  -26.6720   19.6780 C   0  0  0  0  0  3  0  0  0  0  0  0
  -25.0090  -27.5520   19.6150 C   0  0  0  0  0  3  0  0  0  0  0  0
  -23.7990  -29.7330   20.2280 C   0  0  0  0  0  2  0  0  0  0  0  0
  -24.7980  -31.0240   22.1480 N   0  0  0  0  0  0  0  0  0  0  0  0
  -23.5880  -32.1690   23.7130 O   0  0  0  0  0  0  0  0  0  0  0  0
  -22.8300  -29.4610   22.5560 C   0  0  0  0  0  0  0  0  0  0  0  0
  -21.5030  -29.2860   22.4110 N   0  0  0  0  0  0  0  0  0  0  0  0
  -23.4840  -28.8550   23.4100 O   0  0  0  0  0  0  0  0  0  0  0  0
  -21.0280  -29.8240   21.7010 H   0  0  0  0  0  0  0  0  0  0  0  0
  -18.1240  -28.0400   22.8650 C   0  0  0  0  0  0  0  0  0  0  0  0
  -20.6730  -28.3560   23.1850 C   0  0  0  0  0  3  0  0  0  0  0  0
  -20.8110  -26.9110   22.6510 C   0  0  0  0  0  2  0  0  0  0  0  0
  -19.7400  -26.5450   21.6180 C   0  0  0  0  0  2  0  0  0  0  0  0
  -18.3410  -26.6790   22.2240 C   0  0  0  0  0  2  0  0  0  0  0  0
  -19.2200  -28.8330   23.3010 C   0  0  0  0  0  0  0  0  0  0  0  0
  -18.9620  -30.1030   23.8640 C   0  0  0  0  0  3  0  0  0  0  0  0
  -17.6440  -30.5810   23.9900 C   0  0  0  0  0  3  0  0  0  0  0  0
  -16.5640  -29.7860   23.5670 C   0  0  0  0  0  3  0  0  0  0  0  0
  -16.8050  -28.5180   23.0110 C   0  0  0  0  0  3  0  0  0  0  0  0
  -25.9430  -32.5440   23.8630 C   0  0  0  0  0  3  0  0  0  0  0  0
  -26.4370  -31.7990   25.1660 C   0  0  1  0  0  0  0  0  0  0  0  0
  -25.3190  -31.5580   26.2080 C   0  0  0  0  0  1  0  0  0  0  0  0
  -27.0530  -30.4260   24.8180 C   0  0  0  0  0  1  0  0  0  0  0  0
  -27.5560  -32.6220   25.8450 C   0  0  0  0  0  1  0  0  0  0  0  0
  -25.6020  -33.9420   24.1790 N   0  0  0  0  0  0  0  0  0  0  0  0
  -25.9300  -35.0010   23.4280 C   0  0  0  0  0  0  0  0  0  0  0  0
  -26.6130  -34.9050   22.4050 O   0  0  0  0  0  0  0  0  0  0  0  0
  -24.9940  -34.0890   24.9720 H   0  0  0  0  0  0  0  0  0  0  0  0
  -24.1850  -36.7810   23.0610 C   0  0  0  0  0  1  0  0  0  0  0  0
  -25.4250  -36.3880   23.8810 C   0  0  0  0  0  3  0  0  0  0  0  0
  -27.5370  -37.3070   24.7350 C   0  0  0  0  0  1  0  0  0  0  0  0
  -26.4460  -37.4530   23.7750 N   0  0  0  0  0  0  0  0  0  0  0  0
  -26.0260  -38.3700   23.9090 H   0  0  0  0  0  0  0  0  0  0  0  0
  2  1  2  0
  2 50  1  0
  3  1  1  0
  4  3  2  0
  7  5  1  0
  7  6  1  0
  8  9  1  0
  8  5  1  0
  8  7  1  0
  9  3  1  0
  9  6  1  0
 10 18  1  0
 11 16  1  0
 12 13  1  0
 12 11  1  0
 14 13  1  0
 14 23  1  0
 14 15  1  0
 16 10  1  0
 16 15  1  0
 17 10  2  0
  9 18  1  6
 19 18  1  0
 20 21  2  0
 21 40  1  0
 22 21  1  0
 22 25  1  0
 23 24  1  0
 23 20  1  0
 24 22  2  0
 25 26  1  0
 26 27  2  0
 28 31  1  0
 28 27  1  0
 29 28  2  0
 30 29  1  0
 30 25  2  0
 31 32  1  0
 32 33  1  0
 33 34  2  0
 35 34  1  0
 35 39  1  0
 36 35  2  0
 37 32  2  0
 37 36  1  0
 38 37  1  0
 40 41  1  0
 41 44  1  0
 41 43  1  0
 42 40  2  0
 45 20  1  0
 45 46  1  0
 47 45  1  0
 48  2  1  0
 49 48  1  0
 51 50  1  0
 52 63  2  0
 53 51  1  0
 53 58  1  0
 54 62  1  0
 54 64  1  0
 55 61  1  0
 55 57  1  0
 56 62  1  0
 57 58  2  0
 57 56  1  0
 59 53  2  0
 60 59  1  0
 60 55  2  0
 61 54  1  0
 62 52  1  0
 64 66  2  0
 65 64  1  0
 67 65  1  0
 68 77  2  0
 68 73  1  0
 69 65  1  0
 69 73  1  0
 70 69  1  0
 71 72  1  0
 71 70  1  0
 72 68  1  0
 73 74  2  0
 74 75  1  0
 76 75  2  0
 77 76  1  0
 78 52  1  0
 78 83  1  0
 78 79  1  0
 79 82  1  1
 79 80  1  0
 81 79  1  0
 83 86  1  0
 84 88  1  0
 84 83  1  0
 85 84  2  0
 88 87  1  0
 90 88  1  0
 90 91  1  0
 90 89  1  0
M  ISO  4  10 100  18 100  50 101  51 101
M  END
>  <TORSDO>  (5) 
F 20

>  <SCORE>  (5) 
-16.248

>  <name>  (5) 
4

>  <ligand_id>  (5) 
4

>  <original_smiles>  (5) 
[H]OC(=C([H])C(=O)C1(N([H])C(=O)N2C([H])([H])C([H])([H])C([H])([H])C([H])(n3nc(-c4c([H])c([H])c(Oc5c([H])c([H])c(F)c([H])c5F)c([H])c4[H])c(C(=O)N([H])[H])c3N([H])[H])C2([H])[H])C([H])([H])C2([H])C([H])([H])C12[H])C([H])([H])Oc1c([H])c([H])c2c(c1[H])C([H])([H])N(C(=O)C([H])(N([H])C(=O)C([H])(N([H])C([H])([H])[H])C([H])([H])[H])C(C([H])([H])[H])(C([H])([H])[H])C([H])([H])[H])C([H])(C(=O)N([H])C1([H])c3c([H])c([H])c([H])c([H])c3C([H])([H])C([H])([H])C1([H])[H])C2([H])[H]

>  <smiles>  (5) 
[H]OC(=C([H])C(=O)C1(N([H])C(=O)N2C([H])([H])C([H])([H])C([H])([H])C([H])(n3nc(-c4c([H])c([H])c(Oc5c([H])c([H])c(F)c([H])c5F)c([H])c4[H])c(C(=O)N([H])[H])c3N([H])[H])C2([H])[H])C([H])([H])C2([H])C([H])([H])C12[H])C([H])([H])Oc1c([H])c([H])c2c(c1[H])C([H])([H])N(C(=O)C([H])(N([H])C(=O)C([H])(N([H])C([H])([H])[H])C([H])([H])[H])C(C([H])([H])[H])(C([H])([H])[H])C([H])([H])[H])C([H])(C(=O)N([H])C1([H])c3c([H])c([H])c([H])c([H])c3C([H])([H])C([H])([H])C1([H])[H])C2([H])[H]

$$$$
5:0:0
     RDKit          3D

 89 98  0  0  1  0  0  0  0  0999 V2000
  -29.9250  -19.8920   18.5600 C   0  0  0  0  0  2  0  0  0  0  0  0
  -30.4840  -19.5330   21.2190 C   0  0  0  0  0  2  0  0  0  0  0  0
  -29.4350  -20.7700   19.7020 C   0  0  2  0  0  0  0  0  0  0  0  0
  -30.4140  -19.1030   19.7580 C   0  0  2  0  0  0  0  0  0  0  0  0
  -29.2050  -20.4060   21.1830 C   0  0  1  0  0  0  0  0  0  0  0  0
  -27.9000  -19.6100   21.3250 C   0  0  0  0  0  1  0  0  0  0  0  0
  -29.0960  -21.5880   22.1670 C   0  0  0  0  0  1  0  0  0  0  0  0
  -31.0090  -15.9930   19.8700 C   0  0  0  0  0  0  0  0  0  0  0  0
  -31.1180  -13.3940   19.2760 C   0  0  0  0  0  2  0  0  0  0  0  0
  -30.2550  -12.8930   18.0870 C   0  0  0  0  0  2  0  0  0  0  0  0
  -28.8430  -12.5150   18.5530 C   0  0  0  0  0  2  0  0  0  0  0  0
  -28.2870  -13.5960   19.5080 C   0  0  0  0  0  3  0  0  0  0  0  0
  -29.2900  -14.0630   20.5920 C   0  0  0  0  0  2  0  0  0  0  0  0
  -30.4760  -14.6320   19.9000 N   0  0  0  0  0  0  0  0  0  0  0  0
  -32.2470  -15.9180   19.7520 O   0  0  0  0  0  0  0  0  0  0  0  0
  -30.2420  -17.3490   19.7770 N   0  0  0  0  0  0  0  0  0  0  0  0
  -29.2590  -17.1330   19.8000 H   0  0  0  0  0  0  0  0  0  0  0  0
  -25.9590  -14.1690   20.3350 C   0  0  0  0  0  0  0  0  0  0  0  0
  -24.8860  -13.4080   20.7130 C   0  0  0  0  0  0  0  0  0  0  0  0
  -25.3170  -12.0500   20.6330 C   0  0  0  0  0  0  0  0  0  0  0  0
  -26.9730  -13.2750   20.0480 N   0  0  0  0  0  0  0  0  0  0  0  0
  -26.6040  -11.9890   20.2960 N   0  0  0  0  0  0  0  0  0  0  0  0
  -24.5590  -10.8040   20.8130 C   0  0  0  0  0  0  0  0  0  0  0  0
  -24.9370   -9.8450   21.7790 C   0  0  0  0  0  3  0  0  0  0  0  0
  -24.1800   -8.6660   21.9510 C   0  0  0  0  0  3  0  0  0  0  0  0
  -23.0310   -8.4400   21.1550 C   0  0  0  0  0  0  0  0  0  0  0  0
  -22.6700   -9.3880   20.1780 C   0  0  0  0  0  3  0  0  0  0  0  0
  -23.4270  -10.5600   20.0080 C   0  0  0  0  0  3  0  0  0  0  0  0
  -22.2540   -7.3080   21.2310 O   0  0  0  0  0  0  0  0  0  0  0  0
  -22.0600   -6.6400   22.4130 C   0  0  0  0  0  0  0  0  0  0  0  0
  -21.4870   -7.2690   23.5400 C   0  0  0  0  0  3  0  0  0  0  0  0
  -21.2460   -6.5280   24.7140 C   0  0  0  0  0  3  0  0  0  0  0  0
  -21.5720   -5.1590   24.7620 C   0  0  0  0  0  0  0  0  0  0  0  0
  -22.1340   -4.5280   23.6370 C   0  0  0  0  0  3  0  0  0  0  0  0
  -22.3770   -5.2670   22.4670 C   0  0  0  0  0  0  0  0  0  0  0  0
  -22.9030   -4.6500   21.3810 F   0  0  0  0  0  0  0  0  0  0  0  0
  -21.3320   -4.4430   25.8860 F   0  0  0  0  0  0  0  0  0  0  0  0
  -23.5130  -13.9170   21.0230 C   0  0  0  0  0  0  0  0  0  0  0  0
  -22.7830  -13.2260   21.8900 N   0  0  0  0  0  0  0  0  0  0  0  0
  -23.0910  -14.9600   20.5260 O   0  0  0  0  0  0  0  0  0  0  0  0
  -23.1280  -12.3760   22.3150 H   0  0  0  0  0  0  0  0  0  0  0  0
  -21.8610  -13.5610   22.1360 H   0  0  0  0  0  0  0  0  0  0  0  0
  -26.1500  -15.5370   20.1840 N   0  0  0  0  0  0  0  0  0  0  0  0
  -25.4080  -16.2100   20.3290 H   0  0  0  0  0  0  0  0  0  0  0  0
  -27.0010  -15.9540   19.8300 H   0  0  0  0  0  0  0  0  0  0  0  0
  -29.5760  -22.6350   19.4500 C   0  0  0  0  0  0  0  0  0  0  0  0
  -30.7250  -22.9460   19.1150 O   0  0  0  0  0  0  0  0  0  0  0  0
  -28.4940  -24.1410   19.6070 C   0  0  0  0  0  2  0  0  0  0  0  0
  -28.7520  -25.8690   19.5940 O   0  0  0  0  0  0  0  0  0  0  0  0
  -25.2420  -31.6330   23.3790 C   0  0  0  0  0  0  0  0  0  0  0  0
  -27.7760  -27.0610   19.7120 C   0  0  0  0  0  0  0  0  0  0  0  0
  -24.0530  -30.4950   21.5510 C   0  0  0  0  0  3  0  0  0  0  0  0
  -25.5050  -29.0630   19.9280 C   0  0  0  0  0  0  0  0  0  0  0  0
  -26.6310  -30.6580   21.4560 C   0  0  0  0  0  2  0  0  0  0  0  0
  -26.7000  -29.3340   20.6060 C   0  0  0  0  0  0  0  0  0  0  0  0
  -27.8200  -28.3650   20.4720 C   0  0  0  0  0  3  0  0  0  0  0  0
  -26.5510  -27.0020   18.9960 C   0  0  0  0  0  3  0  0  0  0  0  0
  -25.4660  -27.9220   19.1060 C   0  0  0  0  0  3  0  0  0  0  0  0
  -24.3030  -30.0030   20.0950 C   0  0  0  0  0  2  0  0  0  0  0  0
  -25.3320  -30.9480   22.1870 N   0  0  0  0  0  0  0  0  0  0  0  0
  -24.1480  -31.8620   23.9260 O   0  0  0  0  0  0  0  0  0  0  0  0
  -23.3270  -29.3920   22.3670 C   0  0  0  0  0  0  0  0  0  0  0  0
  -21.9960  -29.2630   22.2060 N   0  0  0  0  0  0  0  0  0  0  0  0
  -23.9690  -28.6500   23.1170 O   0  0  0  0  0  0  0  0  0  0  0  0
  -21.5310  -29.9110   21.5870 H   0  0  0  0  0  0  0  0  0  0  0  0
  -18.5920  -28.0390   22.5450 C   0  0  0  0  0  0  0  0  0  0  0  0
  -21.1560  -28.2330   22.8340 C   0  0  0  0  0  3  0  0  0  0  0  0
  -21.2360  -26.9070   22.0480 C   0  0  0  0  0  2  0  0  0  0  0  0
  -20.1290  -26.7510   21.0030 C   0  0  0  0  0  2  0  0  0  0  0  0
  -18.7530  -26.8110   21.6680 C   0  0  0  0  0  2  0  0  0  0  0  0
  -19.7200  -28.7150   23.0810 C   0  0  0  0  0  0  0  0  0  0  0  0
  -19.5150  -29.8630   23.8750 C   0  0  0  0  0  3  0  0  0  0  0  0
  -18.2170  -30.3380   24.1320 C   0  0  0  0  0  3  0  0  0  0  0  0
  -17.1020  -29.6580   23.6050 C   0  0  0  0  0  3  0  0  0  0  0  0
  -17.2910  -28.5060   22.8220 C   0  0  0  0  0  3  0  0  0  0  0  0
  -26.5070  -32.1720   24.1120 C   0  0  0  0  0  3  0  0  0  0  0  0
  -26.1920  -33.5040   24.6600 N   0  0  0  0  0  0  0  0  0  0  0  0
  -26.5130  -34.6700   24.0830 C   0  0  0  0  0  0  0  0  0  0  0  0
  -27.1700  -34.7370   23.0400 O   0  0  0  0  0  0  0  0  0  0  0  0
  -25.6010  -33.5210   25.4800 H   0  0  0  0  0  0  0  0  0  0  0  0
  -24.7760  -36.4950   24.0760 C   0  0  0  0  0  1  0  0  0  0  0  0
  -26.0400  -35.9680   24.7710 C   0  0  0  0  0  3  0  0  0  0  0  0
  -28.1930  -36.7350   25.6740 C   0  0  0  0  0  1  0  0  0  0  0  0
  -27.0680  -37.0340   24.7930 N   0  0  0  0  0  0  0  0  0  0  0  0
  -26.6600  -37.9190   25.0900 H   0  0  0  0  0  0  0  0  0  0  0  0
  -26.9990  -31.2200   25.2730 C   0  0  1  0  0  0  0  0  0  0  0  0
  -25.8890  -30.8480   26.2860 C   0  0  0  0  0  1  0  0  0  0  0  0
  -27.5710  -29.9050   24.6960 C   0  0  0  0  0  1  0  0  0  0  0  0
  -28.1500  -31.8960   26.0500 C   0  0  0  0  0  1  0  0  0  0  0  0
  1  3  1  0
  1  4  1  0
  3 46  1  6
  3  4  1  0
  3  5  1  0
  4 16  1  1
  4  2  1  0
  5  2  1  0
  5  6  1  6
  5  7  1  0
  8 14  1  0
  9 14  1  0
 10 11  1  0
 10  9  1  0
 12 11  1  0
 12 21  1  0
 12 13  1  0
 14 13  1  0
 15  8  2  0
 16 17  1  0
 16  8  1  0
 18 19  2  0
 19 38  1  0
 20 19  1  0
 20 23  1  0
 21 22  1  0
 21 18  1  0
 22 20  2  0
 23 24  1  0
 24 25  2  0
 26 29  1  0
 26 25  1  0
 27 26  2  0
 28 27  1  0
 28 23  2  0
 29 30  1  0
 30 35  2  0
 30 31  1  0
 31 32  2  0
 32 33  1  0
 33 37  1  0
 34 33  2  0
 35 34  1  0
 36 35  1  0
 38 39  1  0
 39 42  1  0
 39 41  1  0
 40 38  2  0
 43 44  1  0
 43 18  1  0
 45 43  1  0
 46 48  1  0
 47 46  2  0
 49 48  1  0
 49 51  1  0
 50 61  2  0
 51 56  1  0
 52 60  1  0
 52 62  1  0
 53 59  1  0
 53 55  1  0
 54 60  1  0
 55 54  1  0
 56 55  2  0
 57 58  1  0
 57 51  2  0
 58 53  2  0
 59 52  1  0
 60 50  1  0
 62 64  2  0
 63 62  1  0
 65 63  1  0
 66 75  2  0
 66 71  1  0
 67 63  1  0
 67 71  1  0
 68 67  1  0
 69 70  1  0
 69 68  1  0
 70 66  1  0
 71 72  2  0
 72 73  1  0
 74 73  2  0
 75 74  1  0
 76 50  1  0
 76 77  1  0
 76 86  1  0
 77 80  1  0
 78 77  1  0
 78 82  1  0
 79 78  2  0
 82 81  1  0
 82 84  1  0
 84 85  1  0
 84 83  1  0
 86 89  1  1
 86 87  1  0
 88 86  1  0
M  ISO  4   8 100  16 100  48 101  49 101
M  END
>  <TORSDO>  (6) 
F 18

>  <SCORE>  (6) 
-12.446

>  <name>  (6) 
5

>  <ligand_id>  (6) 
5

>  <original_smiles>  (6) 
[H]c1c([H])c([H])c2c(c1[H])C([H])([H])C([H])([H])C([H])([H])C2([H])N([H])C(=O)C1([H])N(C(=O)C([H])(N([H])C(=O)C([H])(N([H])C([H])([H])[H])C([H])([H])[H])C(C([H])([H])[H])(C([H])([H])[H])C([H])([H])[H])C([H])([H])c2c([H])c(OC([H])([H])C(=O)C34C([H])([H])C3(N([H])C(=O)N3C([H])([H])C([H])([H])C([H])([H])C([H])(n5nc(-c6c([H])c([H])c(Oc7c([H])c([H])c(F)c([H])c7F)c([H])c6[H])c(C(=O)N([H])[H])c5N([H])[H])C3([H])[H])C([H])([H])C4(C([H])([H])[H])C([H])([H])[H])c([H])c([H])c2C1([H])[H]

>  <smiles>  (6) 
[H]c1c([H])c([H])c2c(c1[H])C([H])([H])C([H])([H])C([H])([H])C2([H])N([H])C(=O)C1([H])N(C(=O)C([H])(N([H])C(=O)C([H])(N([H])C([H])([H])[H])C([H])([H])[H])C(C([H])([H])[H])(C([H])([H])[H])C([H])([H])[H])C([H])([H])c2c([H])c(OC([H])([H])C(=O)C34C([H])([H])C3(N([H])C(=O)N3C([H])([H])C([H])([H])C([H])([H])C([H])(n5nc(-c6c([H])c([H])c(Oc7c([H])c([H])c(F)c([H])c7F)c([H])c6[H])c(C(=O)N([H])[H])c5N([H])[H])C3([H])[H])C([H])([H])C4(C([H])([H])[H])C([H])([H])[H])c([H])c([H])c2C1([H])[H]

$$$$
6:0:0
     RDKit          3D

 87 96  0  0  1  0  0  0  0  0999 V2000
  -28.7710  -21.9890   20.6250 C   0  0  0  0  0  3  0  0  0  0  0  0
  -28.4830  -23.2780   20.0840 C   0  0  0  0  0  3  0  0  0  0  0  0
  -30.4690  -20.1490   19.3900 C   0  0  0  0  0  2  0  0  0  0  0  0
  -29.0870  -20.5430   19.8850 C   0  0  0  0  0  3  0  0  0  0  0  0
  -30.1000  -18.6430   19.3990 C   0  0  0  0  0  3  0  0  0  0  0  0
  -28.9070  -18.9610   20.3110 C   0  0  0  0  0  3  0  0  0  0  0  0
  -29.9580  -17.7030   20.5860 C   0  0  0  0  0  3  0  0  0  0  0  0
  -30.4610  -14.9950   20.3120 C   0  0  0  0  0  0  0  0  0  0  0  0
  -30.3480  -12.6450   19.3480 C   0  0  0  0  0  2  0  0  0  0  0  0
  -29.4050  -12.6010   18.1240 C   0  0  0  0  0  2  0  0  0  0  0  0
  -27.9390  -12.4000   18.5580 C   0  0  0  0  0  2  0  0  0  0  0  0
  -27.5440  -13.3040   19.7550 C   0  0  0  0  0  3  0  0  0  0  0  0
  -28.6120  -13.3030   20.8670 C   0  0  0  0  0  2  0  0  0  0  0  0
  -29.8710  -13.7320   20.2480 N   0  0  0  0  0  0  0  0  0  0  0  0
  -31.6740  -15.0580   20.0760 O   0  0  0  0  0  0  0  0  0  0  0  0
  -29.6600  -16.1710   20.4310 N   0  0  0  0  0  0  0  0  0  0  0  0
  -28.6800  -15.9490   20.5220 H   0  0  0  0  0  0  0  0  0  0  0  0
  -25.1690  -13.8710   20.5210 C   0  0  0  0  0  0  0  0  0  0  0  0
  -24.1120  -13.0920   20.9020 C   0  0  0  0  0  0  0  0  0  0  0  0
  -24.5820  -11.7430   20.8670 C   0  0  0  0  0  0  0  0  0  0  0  0
  -26.2130  -12.9970   20.2690 N   0  0  0  0  0  0  0  0  0  0  0  0
  -25.8710  -11.7120   20.5450 N   0  0  0  0  0  0  0  0  0  0  0  0
  -23.8610  -10.4780   21.0610 C   0  0  0  0  0  0  0  0  0  0  0  0
  -24.3110   -9.5020   21.9760 C   0  0  0  0  0  3  0  0  0  0  0  0
  -23.5870   -8.3050   22.1610 C   0  0  0  0  0  3  0  0  0  0  0  0
  -22.3990   -8.0720   21.4290 C   0  0  0  0  0  0  0  0  0  0  0  0
  -21.9680   -9.0370   20.5000 C   0  0  0  0  0  3  0  0  0  0  0  0
  -22.6930  -10.2270   20.3140 C   0  0  0  0  0  3  0  0  0  0  0  0
  -21.6430   -6.9280   21.5230 O   0  0  0  0  0  0  0  0  0  0  0  0
  -21.6280   -6.1690   22.6650 C   0  0  0  0  0  0  0  0  0  0  0  0
  -21.2480   -6.7080   23.9130 C   0  0  0  0  0  3  0  0  0  0  0  0
  -21.1770   -5.8740   25.0480 C   0  0  0  0  0  3  0  0  0  0  0  0
  -21.4780   -4.5030   24.9350 C   0  0  0  0  0  0  0  0  0  0  0  0
  -21.8520   -3.9660   23.6910 C   0  0  0  0  0  3  0  0  0  0  0  0
  -21.9240   -4.7960   22.5600 C   0  0  0  0  0  0  0  0  0  0  0  0
  -22.2620   -4.2670   21.3590 F   0  0  0  0  0  0  0  0  0  0  0  0
  -21.4050   -3.7000   26.0220 F   0  0  0  0  0  0  0  0  0  0  0  0
  -22.7150  -13.5650   21.1810 C   0  0  0  0  0  0  0  0  0  0  0  0
  -21.9940  -12.8680   22.0530 N   0  0  0  0  0  0  0  0  0  0  0  0
  -22.2720  -14.5870   20.6590 O   0  0  0  0  0  0  0  0  0  0  0  0
  -22.3670  -12.0440   22.4990 H   0  0  0  0  0  0  0  0  0  0  0  0
  -21.0570  -13.1690   22.2800 H   0  0  0  0  0  0  0  0  0  0  0  0
  -25.3250  -15.2430   20.3380 N   0  0  0  0  0  0  0  0  0  0  0  0
  -24.5510  -15.8900   20.4400 H   0  0  0  0  0  0  0  0  0  0  0  0
  -26.1520  -15.6800   19.9520 H   0  0  0  0  0  0  0  0  0  0  0  0
  -27.9690  -24.7000   20.7570 C   0  0  0  0  0  2  0  0  0  0  0  0
  -28.2480  -26.1530   20.2570 O   0  0  0  0  0  0  0  0  0  0  0  0
  -24.6270  -31.8750   23.2350 C   0  0  0  0  0  0  0  0  0  0  0  0
  -27.2020  -27.1480   20.2320 C   0  0  0  0  0  0  0  0  0  0  0  0
  -23.4280  -30.4720   21.6020 C   0  0  0  0  0  3  0  0  0  0  0  0
  -24.8780  -28.8950   20.1800 C   0  0  0  0  0  0  0  0  0  0  0  0
  -25.9810  -30.7400   21.4360 C   0  0  0  0  0  2  0  0  0  0  0  0
  -26.0580  -29.3440   20.7900 C   0  0  0  0  0  0  0  0  0  0  0  0
  -27.2220  -28.4860   20.7980 C   0  0  0  0  0  3  0  0  0  0  0  0
  -26.0010  -26.8040   19.5780 C   0  0  0  0  0  3  0  0  0  0  0  0
  -24.8630  -27.6390   19.5550 C   0  0  0  0  0  3  0  0  0  0  0  0
  -23.6490  -29.7900   20.2250 C   0  0  0  0  0  2  0  0  0  0  0  0
  -24.7000  -31.0500   22.1460 N   0  0  0  0  0  0  0  0  0  0  0  0
  -23.5410  -32.1580   23.7630 O   0  0  0  0  0  0  0  0  0  0  0  0
  -22.7530  -29.4660   22.5690 C   0  0  0  0  0  0  0  0  0  0  0  0
  -21.4230  -29.2930   22.4480 N   0  0  0  0  0  0  0  0  0  0  0  0
  -23.4270  -28.8430   23.3930 O   0  0  0  0  0  0  0  0  0  0  0  0
  -20.9360  -29.8470   21.7590 H   0  0  0  0  0  0  0  0  0  0  0  0
  -18.0470  -28.0870   22.9590 C   0  0  0  0  0  0  0  0  0  0  0  0
  -20.6050  -28.3590   23.2250 C   0  0  0  0  0  3  0  0  0  0  0  0
  -20.7100  -26.9240   22.6580 C   0  0  0  0  0  2  0  0  0  0  0  0
  -19.6100  -26.5910   21.6460 C   0  0  0  0  0  2  0  0  0  0  0  0
  -18.2270  -26.7360   22.2900 C   0  0  0  0  0  2  0  0  0  0  0  0
  -19.1630  -28.8560   23.3840 C   0  0  0  0  0  0  0  0  0  0  0  0
  -18.9390  -30.1200   23.9740 C   0  0  0  0  0  3  0  0  0  0  0  0
  -17.6320  -30.6150   24.1420 C   0  0  0  0  0  3  0  0  0  0  0  0
  -16.5310  -29.8430   23.7320 C   0  0  0  0  0  3  0  0  0  0  0  0
  -16.7380  -28.5820   23.1470 C   0  0  0  0  0  3  0  0  0  0  0  0
  -25.9050  -32.5160   23.8580 C   0  0  0  0  0  3  0  0  0  0  0  0
  -25.5890  -33.9150   24.1860 N   0  0  0  0  0  0  0  0  0  0  0  0
  -25.9160  -34.9720   23.4300 C   0  0  0  0  0  0  0  0  0  0  0  0
  -26.5800  -34.8710   22.3950 O   0  0  0  0  0  0  0  0  0  0  0  0
  -24.9970  -34.0650   24.9900 H   0  0  0  0  0  0  0  0  0  0  0  0
  -24.1820  -36.7650   23.0950 C   0  0  0  0  0  1  0  0  0  0  0  0
  -25.4300  -36.3600   23.8940 C   0  0  0  0  0  3  0  0  0  0  0  0
  -27.5730  -37.2470   24.7050 C   0  0  0  0  0  1  0  0  0  0  0  0
  -26.4610  -37.4150   23.7730 N   0  0  0  0  0  0  0  0  0  0  0  0
  -26.0540  -38.3350   23.9270 H   0  0  0  0  0  0  0  0  0  0  0  0
  -26.4190  -31.7520   25.1400 C   0  0  1  0  0  0  0  0  0  0  0  0
  -25.3250  -31.5220   26.2100 C   0  0  0  0  0  1  0  0  0  0  0  0
  -27.0020  -30.3710   24.7640 C   0  0  0  0  0  1  0  0  0  0  0  0
  -27.5720  -32.5480   25.7960 C   0  0  0  0  0  1  0  0  0  0  0  0
  2  1  2  0
  2 46  1  0
  3  4  1  0
  4  6  1  0
  4  1  1  0
  5  3  1  0
  5  6  1  0
  5  7  1  0
  6  7  1  0
  8 16  1  0
  9 14  1  0
 10 11  1  0
 10  9  1  0
 11 12  1  0
 12 21  1  0
 12 13  1  0
 14  8  1  0
 14 13  1  0
 15  8  2  0
 16 17  1  0
 16  7  1  0
 18 19  2  0
 19 38  1  0
 20 19  1  0
 20 23  1  0
 21 18  1  0
 21 22  1  0
 22 20  2  0
 23 24  1  0
 24 25  2  0
 26 29  1  0
 26 25  1  0
 27 26  2  0
 28 27  1  0
 28 23  2  0
 29 30  1  0
 30 31  1  0
 31 32  2  0
 33 32  1  0
 33 37  1  0
 34 33  2  0
 35 30  2  0
 35 34  1  0
 36 35  1  0
 38 39  1  0
 39 42  1  0
 39 41  1  0
 40 38  2  0
 43 44  1  0
 43 18  1  0
 45 43  1  0
 47 46  1  0
 48 59  2  0
 48 74  1  0
 49 47  1  0
 49 54  1  0
 50 58  1  0
 50 60  1  0
 51 57  1  0
 51 53  1  0
 52 58  1  0
 53 54  2  0
 53 52  1  0
 55 49  2  0
 56 55  1  0
 56 51  2  0
 57 50  1  0
 58 48  1  0
 60 62  2  0
 61 60  1  0
 61 65  1  0
 63 61  1  0
 64 73  2  0
 64 69  1  0
 65 69  1  0
 66 65  1  0
 67 68  1  0
 67 66  1  0
 68 64  1  0
 69 70  2  0
 70 71  1  0
 72 71  2  0
 73 72  1  0
 74 75  1  0
 74 84  1  0
 75 78  1  0
 76 80  1  0
 76 75  1  0
 77 76  2  0
 79 80  1  0
 82 80  1  0
 82 83  1  0
 82 81  1  0
 84 87  1  1
 84 85  1  0
 86 84  1  0
M  ISO  4   8 100  16 100  46 101  47 101
M  END
>  <TORSDO>  (7) 
F 18

>  <SCORE>  (7) 
-14.475

>  <name>  (7) 
6

>  <ligand_id>  (7) 
6

>  <original_smiles>  (7) 
[H]C(=C([H])C1([H])C([H])([H])C2([H])C([H])(N([H])C(=O)N3C([H])([H])C([H])([H])C([H])([H])C([H])(n4nc(-c5c([H])c([H])c(Oc6c([H])c([H])c(F)c([H])c6F)c([H])c5[H])c(C(=O)N([H])[H])c4N([H])[H])C3([H])[H])C12[H])C([H])([H])Oc1c([H])c([H])c2c(c1[H])C([H])([H])N(C(=O)C([H])(N([H])C(=O)C([H])(N([H])C([H])([H])[H])C([H])([H])[H])C(C([H])([H])[H])(C([H])([H])[H])C([H])([H])[H])C([H])(C(=O)N([H])C1([H])c3c([H])c([H])c([H])c([H])c3C([H])([H])C([H])([H])C1([H])[H])C2([H])[H]

>  <smiles>  (7) 
[H]C(=C([H])C1([H])C([H])([H])C2([H])C([H])(N([H])C(=O)N3C([H])([H])C([H])([H])C([H])([H])C([H])(n4nc(-c5c([H])c([H])c(Oc6c([H])c([H])c(F)c([H])c6F)c([H])c5[H])c(C(=O)N([H])[H])c4N([H])[H])C3([H])[H])C12[H])C([H])([H])Oc1c([H])c([H])c2c(c1[H])C([H])([H])N(C(=O)C([H])(N([H])C(=O)C([H])(N([H])C([H])([H])[H])C([H])([H])[H])C(C([H])([H])[H])(C([H])([H])[H])C([H])([H])[H])C([H])(C(=O)N([H])C1([H])c3c([H])c([H])c([H])c([H])c3C([H])([H])C([H])([H])C1([H])[H])C2([H])[H]

$$$$
7:0:0
     RDKit          3D

 89 98  0  0  1  0  0  0  0  0999 V2000
  -28.4170  -21.9060   21.0660 C   0  0  0  0  0  0  0  0  0  0  0  0
  -30.8880  -21.4200   20.2290 C   0  0  0  0  0  2  0  0  0  0  0  0
  -29.8240  -22.3300   19.6820 C   0  0  0  0  0  3  0  0  0  0  0  0
  -29.4690  -20.9460   20.4240 C   0  0  2  0  0  0  0  0  0  0  0  0
  -29.0160  -23.3700   20.6040 C   0  0  2  0  0  0  0  0  0  0  0  0
  -29.8600  -23.9120   21.7670 C   0  0  0  0  0  1  0  0  0  0  0  0
  -27.4320  -21.5720   21.7300 O   0  0  0  0  0  0  0  0  0  0  0  0
  -29.2190  -19.3050   20.0510 C   0  0  0  0  0  3  0  0  0  0  0  0
  -30.1700  -17.9620   20.5460 C   0  0  0  0  0  3  0  0  0  0  0  0
  -30.6010  -15.1910   20.2760 C   0  0  0  0  0  0  0  0  0  0  0  0
  -30.4960  -12.8260   19.3290 C   0  0  0  0  0  2  0  0  0  0  0  0
  -29.5410  -12.7400   18.1120 C   0  0  0  0  0  2  0  0  0  0  0  0
  -28.0900  -12.5060   18.5740 C   0  0  0  0  0  2  0  0  0  0  0  0
  -27.6870  -13.4290   19.7520 C   0  0  0  0  0  3  0  0  0  0  0  0
  -28.7620  -13.4790   20.8600 C   0  0  0  0  0  2  0  0  0  0  0  0
  -30.0080  -13.9240   20.2200 N   0  0  0  0  0  0  0  0  0  0  0  0
  -31.8070  -15.2390   20.0180 O   0  0  0  0  0  0  0  0  0  0  0  0
  -29.8290  -16.3970   20.4200 N   0  0  0  0  0  0  0  0  0  0  0  0
  -28.8500  -16.1960   20.5600 H   0  0  0  0  0  0  0  0  0  0  0  0
  -25.3130  -13.9740   20.5280 C   0  0  0  0  0  0  0  0  0  0  0  0
  -24.2620  -13.1840   20.9010 C   0  0  0  0  0  0  0  0  0  0  0  0
  -24.7380  -11.8350   20.8570 C   0  0  0  0  0  0  0  0  0  0  0  0
  -26.3620  -13.1080   20.2690 N   0  0  0  0  0  0  0  0  0  0  0  0
  -26.0260  -11.8180   20.5330 N   0  0  0  0  0  0  0  0  0  0  0  0
  -24.0240  -10.5650   21.0390 C   0  0  0  0  0  0  0  0  0  0  0  0
  -24.4650   -9.5980   21.9680 C   0  0  0  0  0  3  0  0  0  0  0  0
  -23.7480   -8.3950   22.1440 C   0  0  0  0  0  3  0  0  0  0  0  0
  -22.5770   -8.1500   21.3880 C   0  0  0  0  0  0  0  0  0  0  0  0
  -22.1530   -9.1090   20.4510 C   0  0  0  0  0  3  0  0  0  0  0  0
  -22.8710  -10.3020   20.2720 C   0  0  0  0  0  3  0  0  0  0  0  0
  -21.8320   -7.0000   21.4730 O   0  0  0  0  0  0  0  0  0  0  0  0
  -21.7760   -6.2590   22.6260 C   0  0  0  0  0  0  0  0  0  0  0  0
  -21.2960   -6.8030   23.8380 C   0  0  0  0  0  3  0  0  0  0  0  0
  -21.1900   -5.9890   24.9830 C   0  0  0  0  0  3  0  0  0  0  0  0
  -21.5580   -4.6310   24.9200 C   0  0  0  0  0  0  0  0  0  0  0  0
  -22.0340   -4.0870   23.7140 C   0  0  0  0  0  3  0  0  0  0  0  0
  -22.1410   -4.8970   22.5700 C   0  0  0  0  0  0  0  0  0  0  0  0
  -22.5770   -4.3610   21.4050 F   0  0  0  0  0  0  0  0  0  0  0  0
  -21.4520   -3.8470   26.0180 F   0  0  0  0  0  0  0  0  0  0  0  0
  -22.8620  -13.6460   21.1930 C   0  0  0  0  0  0  0  0  0  0  0  0
  -22.1470  -12.9340   22.0560 N   0  0  0  0  0  0  0  0  0  0  0  0
  -22.4100  -14.6740   20.6870 O   0  0  0  0  0  0  0  0  0  0  0  0
  -22.5250  -12.0990   22.4820 H   0  0  0  0  0  0  0  0  0  0  0  0
  -21.2110  -13.2290   22.2990 H   0  0  0  0  0  0  0  0  0  0  0  0
  -25.4600  -15.3480   20.3530 N   0  0  0  0  0  0  0  0  0  0  0  0
  -24.6870  -15.9940   20.4750 H   0  0  0  0  0  0  0  0  0  0  0  0
  -26.2900  -15.7880   19.9770 H   0  0  0  0  0  0  0  0  0  0  0  0
  -28.0780  -24.6910   20.0380 C   0  0  0  0  0  2  0  0  0  0  0  0
  -28.2820  -26.2400   20.3010 O   0  0  0  0  0  0  0  0  0  0  0  0
  -24.6310  -31.9680   23.2480 C   0  0  0  0  0  0  0  0  0  0  0  0
  -27.2280  -27.2390   20.2130 C   0  0  0  0  0  0  0  0  0  0  0  0
  -23.4420  -30.5640   21.6090 C   0  0  0  0  0  3  0  0  0  0  0  0
  -24.8960  -29.0000   20.1710 C   0  0  0  0  0  0  0  0  0  0  0  0
  -25.9950  -30.8360   21.4450 C   0  0  0  0  0  2  0  0  0  0  0  0
  -26.0740  -29.4420   20.7860 C   0  0  0  0  0  0  0  0  0  0  0  0
  -27.2410  -28.5820   20.7830 C   0  0  0  0  0  3  0  0  0  0  0  0
  -26.0250  -26.9080   19.5510 C   0  0  0  0  0  3  0  0  0  0  0  0
  -24.8880  -27.7480   19.5330 C   0  0  0  0  0  3  0  0  0  0  0  0
  -23.6660  -29.8950   20.2240 C   0  0  0  0  0  2  0  0  0  0  0  0
  -24.7110  -31.1440   22.1550 N   0  0  0  0  0  0  0  0  0  0  0  0
  -23.5410  -32.2470   23.7710 O   0  0  0  0  0  0  0  0  0  0  0  0
  -22.7650  -29.5510   22.5710 C   0  0  0  0  0  0  0  0  0  0  0  0
  -21.4380  -29.3660   22.4330 N   0  0  0  0  0  0  0  0  0  0  0  0
  -23.4360  -28.9340   23.4030 O   0  0  0  0  0  0  0  0  0  0  0  0
  -20.9540  -29.9200   21.7410 H   0  0  0  0  0  0  0  0  0  0  0  0
  -18.0620  -28.1430   22.9300 C   0  0  0  0  0  0  0  0  0  0  0  0
  -20.6200  -28.4220   23.1970 C   0  0  0  0  0  3  0  0  0  0  0  0
  -20.7320  -26.9930   22.6160 C   0  0  0  0  0  2  0  0  0  0  0  0
  -19.6340  -26.6670   21.6010 C   0  0  0  0  0  2  0  0  0  0  0  0
  -18.2510  -26.7990   22.2470 C   0  0  0  0  0  2  0  0  0  0  0  0
  -19.1750  -28.9130   23.3600 C   0  0  0  0  0  0  0  0  0  0  0  0
  -18.9500  -30.1720   23.9590 C   0  0  0  0  0  3  0  0  0  0  0  0
  -17.6420  -30.6610   24.1330 C   0  0  0  0  0  3  0  0  0  0  0  0
  -16.5420  -29.8880   23.7170 C   0  0  0  0  0  3  0  0  0  0  0  0
  -16.7530  -28.6310   23.1220 C   0  0  0  0  0  3  0  0  0  0  0  0
  -25.9020  -32.6090   23.8790 C   0  0  0  0  0  3  0  0  0  0  0  0
  -26.4080  -31.8530   25.1680 C   0  0  1  0  0  0  0  0  0  0  0  0
  -25.3040  -31.6160   26.2260 C   0  0  0  0  0  1  0  0  0  0  0  0
  -27.0060  -30.4750   24.8010 C   0  0  0  0  0  1  0  0  0  0  0  0
  -27.5450  -32.6610   25.8370 C   0  0  0  0  0  1  0  0  0  0  0  0
  -25.5850  -34.0110   24.2000 N   0  0  0  0  0  0  0  0  0  0  0  0
  -25.9100  -35.0620   23.4350 C   0  0  0  0  0  0  0  0  0  0  0  0
  -26.5710  -34.9550   22.3990 O   0  0  0  0  0  0  0  0  0  0  0  0
  -24.9960  -34.1710   25.0040 H   0  0  0  0  0  0  0  0  0  0  0  0
  -24.1720  -36.8530   23.0920 C   0  0  0  0  0  1  0  0  0  0  0  0
  -25.4240  -36.4540   23.8900 C   0  0  0  0  0  3  0  0  0  0  0  0
  -27.5600  -37.3550   24.7030 C   0  0  0  0  0  1  0  0  0  0  0  0
  -26.4540  -37.5070   23.7600 N   0  0  0  0  0  0  0  0  0  0  0  0
  -26.0460  -38.4270   23.9030 H   0  0  0  0  0  0  0  0  0  0  0  0
  1  7  2  0
  2  4  1  0
  3  2  1  0
  3  4  1  0
  3  5  1  0
  4  8  1  6
  4  1  1  0
  5  1  1  0
  5  6  1  1
  8  9  2  0
 10 18  1  0
 11 16  1  0
 12 13  1  0
 12 11  1  0
 14 13  1  0
 14 23  1  0
 14 15  1  0
 16 10  1  0
 16 15  1  0
 17 10  2  0
 18  9  1  0
 18 19  1  0
 20 21  2  0
 21 40  1  0
 22 21  1  0
 22 25  1  0
 23 20  1  0
 23 24  1  0
 24 22  2  0
 25 26  1  0
 26 27  2  0
 28 31  1  0
 28 27  1  0
 29 28  2  0
 30 29  1  0
 30 25  2  0
 31 32  1  0
 32 33  1  0
 33 34  2  0
 35 34  1  0
 35 39  1  0
 36 35  2  0
 37 32  2  0
 37 36  1  0
 38 37  1  0
 40 41  1  0
 41 44  1  0
 41 43  1  0
 42 40  2  0
 45 46  1  0
 45 20  1  0
 47 45  1  0
 48 49  1  0
 48  5  1  0
 50 61  2  0
 51 49  1  0
 51 56  1  0
 52 60  1  0
 52 62  1  0
 53 59  1  0
 53 55  1  0
 54 60  1  0
 55 54  1  0
 56 55  2  0
 57 51  2  0
 58 57  1  0
 58 53  2  0
 59 52  1  0
 60 50  1  0
 62 64  2  0
 63 62  1  0
 65 63  1  0
 66 75  2  0
 66 71  1  0
 67 63  1  0
 67 71  1  0
 68 67  1  0
 69 70  1  0
 69 68  1  0
 70 66  1  0
 71 72  2  0
 72 73  1  0
 74 73  2  0
 75 74  1  0
 76 50  1  0
 76 81  1  0
 76 77  1  0
 77 80  1  1
 77 78  1  0
 79 77  1  0
 81 84  1  0
 82 86  1  0
 82 81  1  0
 83 82  2  0
 86 85  1  0
 88 86  1  0
 88 89  1  0
 88 87  1  0
M  ISO  4  10 100  18 100  48 101  49 101
M  END
>  <TORSDO>  (8) 
F 19

>  <SCORE>  (8) 
-15.686

>  <name>  (8) 
7

>  <ligand_id>  (8) 
7

>  <original_smiles>  (8) 
[H]c1c([H])c([H])c2c(c1[H])C([H])([H])C([H])([H])C([H])([H])C2([H])N([H])C(=O)C1([H])N(C(=O)C([H])(N([H])C(=O)C([H])(N([H])C([H])([H])[H])C([H])([H])[H])C(C([H])([H])[H])(C([H])([H])[H])C([H])([H])[H])C([H])([H])c2c([H])c(OC([H])([H])C3(C([H])([H])[H])C(=O)C4(C([H])([H])C([H])([H])N([H])C(=O)N5C([H])([H])C([H])([H])C([H])([H])C([H])(n6nc(-c7c([H])c([H])c(Oc8c([H])c([H])c(F)c([H])c8F)c([H])c7[H])c(C(=O)N([H])[H])c6N([H])[H])C5([H])[H])C([H])([H])C34[H])c([H])c([H])c2C1([H])[H]

>  <smiles>  (8) 
[H]c1c([H])c([H])c2c(c1[H])C([H])([H])C([H])([H])C([H])([H])C2([H])N([H])C(=O)C1([H])N(C(=O)C([H])(N([H])C(=O)C([H])(N([H])C([H])([H])[H])C([H])([H])[H])C(C([H])([H])[H])(C([H])([H])[H])C([H])([H])[H])C([H])([H])c2c([H])c(OC([H])([H])C3(C([H])([H])[H])C(=O)C4(C([H])([H])C([H])([H])N([H])C(=O)N5C([H])([H])C([H])([H])C([H])([H])C([H])(n6nc(-c7c([H])c([H])c(Oc8c([H])c([H])c(F)c([H])c8F)c([H])c7[H])c(C(=O)N([H])[H])c6N([H])[H])C5([H])[H])C([H])([H])C34[H])c([H])c([H])c2C1([H])[H]

$$$$
8:0:0
     RDKit          3D

 91100  0  0  1  0  0  0  0  0999 V2000
  -29.1640  -20.9660   19.5930 N   0  0  0  0  0  4  0  0  0  0  0  0
  -28.2230  -20.6580   19.4130 H   0  0  0  0  0  0  0  0  0  0  0  0
  -29.5910  -21.1380   18.6960 H   0  0  0  0  0  0  0  0  0  0  0  0
  -29.8080  -18.2020   22.3220 C   0  0  0  0  0  2  0  0  0  0  0  0
  -30.7650  -17.1670   21.6980 C   0  0  0  0  0  2  0  0  0  0  0  0
  -29.1650  -18.9770   21.1810 C   0  0  0  0  0  3  0  0  0  0  0  0
  -29.5630  -18.3170   19.8740 C   0  0  0  0  0  3  0  0  0  0  0  0
  -30.1770  -16.9130   20.3080 C   0  0  0  0  0  3  0  0  0  0  0  0
  -29.9570  -19.8150   20.2210 C   0  0  0  0  0  3  0  0  0  0  0  0
  -31.6310  -14.7980   19.6290 C   0  0  0  0  0  0  0  0  0  0  0  0
  -31.1300  -12.5850   18.6080 C   0  0  0  0  0  2  0  0  0  0  0  0
  -30.0450  -12.6530   17.5020 C   0  0  0  0  0  2  0  0  0  0  0  0
  -28.6360  -13.0040   18.0430 C   0  0  0  0  0  2  0  0  0  0  0  0
  -28.5600  -12.8970   19.5680 C   0  0  0  0  0  3  0  0  0  0  0  0
  -29.7090  -13.4000   20.4400 C   0  0  0  0  0  2  0  0  0  0  0  0
  -30.8710  -13.6630   19.5910 N   0  0  0  0  0  0  0  0  0  0  0  0
  -32.8140  -14.7240   19.2880 O   0  0  0  0  0  0  0  0  0  0  0  0
  -31.3660  -16.7180   18.1600 C   0  0  0  0  0  1  0  0  0  0  0  0
  -30.9870  -16.0150   19.3940 N   0  0  0  0  0  0  0  0  0  0  0  0
  -26.3130  -13.8860   20.5630 C   0  0  0  0  0  0  0  0  0  0  0  0
  -25.2340  -13.1730   21.0290 C   0  0  0  0  0  0  0  0  0  0  0  0
  -25.5670  -11.8000   20.8430 C   0  0  0  0  0  0  0  0  0  0  0  0
  -27.2380  -12.9150   20.1620 N   0  0  0  0  0  0  0  0  0  0  0  0
  -26.7700  -11.6760   20.3640 N   0  0  0  0  0  0  0  0  0  0  0  0
  -24.8300  -10.5620   21.0310 C   0  0  0  0  0  0  0  0  0  0  0  0
  -25.2810   -9.5960   21.9550 C   0  0  0  0  0  3  0  0  0  0  0  0
  -24.5650   -8.3960   22.1250 C   0  0  0  0  0  3  0  0  0  0  0  0
  -23.3930   -8.1630   21.3660 C   0  0  0  0  0  0  0  0  0  0  0  0
  -22.9720   -9.1160   20.4220 C   0  0  0  0  0  3  0  0  0  0  0  0
  -23.6870  -10.3090   20.2510 C   0  0  0  0  0  3  0  0  0  0  0  0
  -22.6490   -7.0150   21.4420 O   0  0  0  0  0  0  0  0  0  0  0  0
  -22.4170   -6.3900   22.6370 C   0  0  0  0  0  0  0  0  0  0  0  0
  -21.7930   -7.0540   23.7160 C   0  0  0  0  0  3  0  0  0  0  0  0
  -21.5010   -6.3470   24.8990 C   0  0  0  0  0  3  0  0  0  0  0  0
  -21.8340   -4.9820   25.0060 C   0  0  0  0  0  0  0  0  0  0  0  0
  -22.4530   -4.3220   23.9280 C   0  0  0  0  0  3  0  0  0  0  0  0
  -22.7380   -5.0240   22.7450 C   0  0  0  0  0  0  0  0  0  0  0  0
  -23.3090   -4.3790   21.6980 F   0  0  0  0  0  0  0  0  0  0  0  0
  -21.5480   -4.2980   26.1380 F   0  0  0  0  0  0  0  0  0  0  0  0
  -23.9230  -13.6930   21.5350 C   0  0  0  0  0  0  0  0  0  0  0  0
  -23.3060  -12.9690   22.4610 N   0  0  0  0  0  0  0  0  0  0  0  0
  -23.4590  -14.7620   21.1420 O   0  0  0  0  0  0  0  0  0  0  0  0
  -23.7120  -12.1080   22.7930 H   0  0  0  0  0  0  0  0  0  0  0  0
  -22.4360  -13.2920   22.8610 H   0  0  0  0  0  0  0  0  0  0  0  0
  -26.5790  -15.2470   20.4340 N   0  0  0  0  0  0  0  0  0  0  0  0
  -25.9060  -15.9730   20.6630 H   0  0  0  0  0  0  0  0  0  0  0  0
  -27.4160  -15.6000   19.9940 H   0  0  0  0  0  0  0  0  0  0  0  0
  -29.0880  -22.3110   20.3120 C   0  0  0  0  0  3  0  0  0  0  0  0
  -28.4990  -23.5930   19.5240 C   0  0  0  0  0  3  0  0  0  0  0  0
  -28.4080  -24.9990   20.3050 C   0  0  0  0  0  2  0  0  0  0  0  0
  -28.4060  -26.3190   19.6190 O   0  0  0  0  0  0  0  0  0  0  0  0
  -24.6790  -31.5510   22.9840 C   0  0  0  0  0  0  0  0  0  0  0  0
  -27.2730  -27.1410   19.7040 C   0  0  0  0  0  0  0  0  0  0  0  0
  -23.4570  -30.2130   21.3030 C   0  0  0  0  0  3  0  0  0  0  0  0
  -24.8960  -28.7280   19.7930 C   0  0  0  0  0  0  0  0  0  0  0  0
  -25.9900  -30.5610   21.0900 C   0  0  0  0  0  2  0  0  0  0  0  0
  -26.0700  -29.2080   20.3900 C   0  0  0  0  0  0  0  0  0  0  0  0
  -27.2620  -28.4260   20.3350 C   0  0  0  0  0  3  0  0  0  0  0  0
  -26.0790  -26.7070   19.0990 C   0  0  0  0  0  3  0  0  0  0  0  0
  -24.9010  -27.4840   19.1400 C   0  0  0  0  0  3  0  0  0  0  0  0
  -23.6540  -29.5940   19.8930 C   0  0  0  0  0  2  0  0  0  0  0  0
  -24.7280  -30.7920   21.8500 N   0  0  0  0  0  0  0  0  0  0  0  0
  -23.6030  -31.7950   23.5500 O   0  0  0  0  0  0  0  0  0  0  0  0
  -22.8210  -29.1530   22.2300 C   0  0  0  0  0  0  0  0  0  0  0  0
  -21.4860  -29.0050   22.1590 N   0  0  0  0  0  0  0  0  0  0  0  0
  -23.5230  -28.4670   22.9770 O   0  0  0  0  0  0  0  0  0  0  0  0
  -20.9760  -29.6130   21.5320 H   0  0  0  0  0  0  0  0  0  0  0  0
  -18.1100  -27.8820   22.7990 C   0  0  0  0  0  0  0  0  0  0  0  0
  -20.6880  -28.0360   22.9080 C   0  0  0  0  0  3  0  0  0  0  0  0
  -20.6960  -26.6530   22.2170 C   0  0  0  0  0  2  0  0  0  0  0  0
  -19.5180  -26.4490   21.2600 C   0  0  0  0  0  2  0  0  0  0  0  0
  -18.1890  -26.5870   22.0080 C   0  0  0  0  0  2  0  0  0  0  0  0
  -19.2830  -28.5690   23.2080 C   0  0  0  0  0  0  0  0  0  0  0  0
  -19.1530  -29.7860   23.9120 C   0  0  0  0  0  3  0  0  0  0  0  0
  -17.8830  -30.3150   24.2090 C   0  0  0  0  0  3  0  0  0  0  0  0
  -16.7240  -29.6230   23.8120 C   0  0  0  0  0  3  0  0  0  0  0  0
  -16.8400  -28.4070   23.1150 C   0  0  0  0  0  3  0  0  0  0  0  0
  -25.9690  -32.1670   23.6110 C   0  0  0  0  0  3  0  0  0  0  0  0
  -26.5930  -31.2750   24.7530 C   0  0  1  0  0  0  0  0  0  0  0  0
  -25.5770  -30.8460   25.8340 C   0  0  0  0  0  1  0  0  0  0  0  0
  -27.2230  -29.9920   24.1630 C   0  0  0  0  0  1  0  0  0  0  0  0
  -27.7350  -32.0450   25.4570 C   0  0  0  0  0  1  0  0  0  0  0  0
  -25.6170  -33.4980   24.1300 N   0  0  0  0  0  0  0  0  0  0  0  0
  -25.8690  -34.6520   23.5000 C   0  0  0  0  0  0  0  0  0  0  0  0
  -26.4940  -34.7140   22.4370 O   0  0  0  0  0  0  0  0  0  0  0  0
  -25.0560  -33.5210   24.9690 H   0  0  0  0  0  0  0  0  0  0  0  0
  -24.0640  -36.4060   23.4440 C   0  0  0  0  0  1  0  0  0  0  0  0
  -25.3470  -35.9480   24.1550 C   0  0  0  0  0  3  0  0  0  0  0  0
  -27.4720  -36.8090   25.0360 C   0  0  0  0  0  1  0  0  0  0  0  0
  -26.3350  -37.0490   24.1500 N   0  0  0  0  0  0  0  0  0  0  0  0
  -25.8980  -37.9240   24.4270 H   0  0  0  0  0  0  0  0  0  0  0  0
  1  9  1  0
  1 48  1  0
  2  1  1  0
  3  1  1  0
  5  4  1  0
  6  4  1  0
  7  9  1  0
  7  8  1  0
  7  6  1  0
  8  5  1  0
  9  6  1  0
 11 16  1  0
 12 13  1  0
 12 11  1  0
 13 14  1  0
 14 23  1  0
 14 15  1  0
 16 10  1  0
 16 15  1  0
 17 10  2  0
 18 19  1  0
 19 10  1  0
 19  8  1  0
 20 21  2  0
 21 40  1  0
 22 21  1  0
 22 25  1  0
 23 24  1  0
 23 20  1  0
 24 22  2  0
 25 26  1  0
 26 27  2  0
 28 31  1  0
 28 27  1  0
 29 28  2  0
 30 29  1  0
 30 25  2  0
 31 32  1  0
 32 37  2  0
 32 33  1  0
 33 34  2  0
 34 35  1  0
 35 39  1  0
 36 35  2  0
 37 36  1  0
 38 37  1  0
 40 41  1  0
 41 43  1  0
 41 44  1  0
 42 40  2  0
 45 20  1  0
 45 46  1  0
 47 45  1  0
 49 50  1  0
 49 48  2  0
 51 53  1  0
 51 50  1  0
 52 63  2  0
 52 78  1  0
 53 58  1  0
 54 62  1  0
 54 64  1  0
 55 61  1  0
 55 57  1  0
 56 62  1  0
 57 56  1  0
 58 57  2  0
 59 60  1  0
 59 53  2  0
 60 55  2  0
 61 54  1  0
 62 52  1  0
 64 66  2  0
 65 64  1  0
 65 69  1  0
 67 65  1  0
 68 77  2  0
 68 73  1  0
 69 73  1  0
 70 69  1  0
 71 72  1  0
 71 70  1  0
 72 68  1  0
 73 74  2  0
 74 75  1  0
 76 75  2  0
 77 76  1  0
 78 83  1  0
 78 79  1  0
 79 82  1  1
 79 80  1  0
 81 79  1  0
 83 86  1  0
 84 83  1  0
 84 88  1  0
 85 84  2  0
 87 88  1  0
 90 88  1  0
 90 91  1  0
 90 89  1  0
M  ISO  4  10 100  19 100  50 101  51 101
M  END
>  <TORSDO>  (9) 
F 20

>  <SCORE>  (9) 
-9.889

>  <name>  (9) 
8

>  <ligand_id>  (9) 
8

>  <original_smiles>  (9) 
[H]c1c([H])c([H])c2c(c1[H])C([H])([H])C([H])([H])C([H])([H])C2([H])N([H])C(=O)C1([H])N(C(=O)C([H])(N([H])C(=O)C([H])(N([H])C([H])([H])[H])C([H])([H])[H])C(C([H])([H])[H])(C([H])([H])[H])C([H])([H])[H])C([H])([H])c2c([H])c(OC([H])([H])C([H])([H])C([H])([H])[N+]([H])([H])C3([H])C4([H])C([H])([H])C([H])([H])C([H])(N(C(=O)N5C([H])([H])C([H])([H])C([H])([H])C([H])(n6nc(-c7c([H])c([H])c(Oc8c([H])c([H])c(F)c([H])c8F)c([H])c7[H])c(C(=O)N([H])[H])c6N([H])[H])C5([H])[H])C([H])([H])[H])C43[H])c([H])c([H])c2C1([H])[H]

>  <smiles>  (9) 
[H]c1c([H])c([H])c2c(c1[H])C([H])([H])C([H])([H])C([H])([H])C2([H])N([H])C(=O)C1([H])N(C(=O)C([H])(N([H])C(=O)C([H])(N([H])C([H])([H])[H])C([H])([H])[H])C(C([H])([H])[H])(C([H])([H])[H])C([H])([H])[H])C([H])([H])c2c([H])c(OC([H])([H])C([H])([H])C([H])([H])[N+]([H])([H])C3([H])C4([H])C([H])([H])C([H])([H])C([H])(N(C(=O)N5C([H])([H])C([H])([H])C([H])([H])C([H])(n6nc(-c7c([H])c([H])c(Oc8c([H])c([H])c(F)c([H])c8F)c([H])c7[H])c(C(=O)N([H])[H])c6N([H])[H])C5([H])[H])C([H])([H])[H])C43[H])c([H])c([H])c2C1([H])[H]

$$$$
9:0:0
     RDKit          3D

 92102  0  0  1  0  0  0  0  0999 V2000
  -29.7160  -20.8950   20.1140 C   0  0  0  0  0  0  0  0  0  0  0  0
  -29.3120  -22.0930   19.5010 N   0  0  0  0  0  0  0  0  0  0  0  0
  -30.1340  -21.0030   21.2680 O   0  0  0  0  0  0  0  0  0  0  0  0
  -28.9540  -22.0130   18.5580 H   0  0  0  0  0  0  0  0  0  0  0  0
  -29.7720  -19.3410   19.5230 C   0  0  0  0  0  3  0  0  0  0  0  0
  -28.9490  -18.3050   20.3890 C   0  0  1  0  0  0  0  0  0  0  0  0
  -28.7960  -18.4620   18.5950 C   0  0  2  0  0  0  0  0  0  0  0  0
  -29.0260  -17.0730   19.3650 C   0  0  0  0  0  3  0  0  0  0  0  0
  -27.6290  -18.7160   19.6090 C   0  0  2  0  0  0  0  0  0  0  0  0
  -26.9710  -20.1190   19.4980 C   0  0  0  0  0  1  0  0  0  0  0  0
  -26.3900  -17.7950   19.8350 C   0  0  0  0  0  1  0  0  0  0  0  0
  -30.9190  -15.2510   20.0610 C   0  0  0  0  0  0  0  0  0  0  0  0
  -31.0570  -12.7570   20.3320 C   0  0  0  0  0  2  0  0  0  0  0  0
  -30.3630  -12.0080   19.1770 C   0  0  0  0  0  2  0  0  0  0  0  0
  -28.8670  -11.8190   19.4860 C   0  0  0  0  0  2  0  0  0  0  0  0
  -28.1960  -13.1160   20.0100 C   0  0  0  0  0  3  0  0  0  0  0  0
  -29.0380  -13.8260   21.0880 C   0  0  0  0  0  2  0  0  0  0  0  0
  -30.3570  -14.0610   20.4940 N   0  0  0  0  0  0  0  0  0  0  0  0
  -32.1490  -15.3030   20.0120 O   0  0  0  0  0  0  0  0  0  0  0  0
  -30.2570  -16.1790   19.2300 N   0  0  0  0  0  0  0  0  0  0  0  0
  -30.9520  -16.6280   18.6510 H   0  0  0  0  0  0  0  0  0  0  0  0
  -25.8080  -13.7990   20.6160 C   0  0  0  0  0  0  0  0  0  0  0  0
  -24.6940  -13.0750   20.9380 C   0  0  0  0  0  0  0  0  0  0  0  0
  -25.1020  -11.7060   20.9430 C   0  0  0  0  0  0  0  0  0  0  0  0
  -26.8250  -12.8780   20.4460 N   0  0  0  0  0  0  0  0  0  0  0  0
  -26.4060  -11.6130   20.7080 N   0  0  0  0  0  0  0  0  0  0  0  0
  -24.3120  -10.4760   21.0940 C   0  0  0  0  0  0  0  0  0  0  0  0
  -24.6690   -9.4790   22.0280 C   0  0  0  0  0  3  0  0  0  0  0  0
  -23.8790   -8.3170   22.1710 C   0  0  0  0  0  3  0  0  0  0  0  0
  -22.7190   -8.1450   21.3790 C   0  0  0  0  0  0  0  0  0  0  0  0
  -22.3830   -9.1300   20.4340 C   0  0  0  0  0  3  0  0  0  0  0  0
  -23.1720  -10.2820   20.2890 C   0  0  0  0  0  3  0  0  0  0  0  0
  -21.9080   -7.0370   21.4320 O   0  0  0  0  0  0  0  0  0  0  0  0
  -21.7510   -6.3140   22.5870 C   0  0  0  0  0  0  0  0  0  0  0  0
  -21.3020   -6.9120   23.7860 C   0  0  0  0  0  3  0  0  0  0  0  0
  -21.0890   -6.1180   24.9310 C   0  0  0  0  0  3  0  0  0  0  0  0
  -21.3140   -4.7300   24.8780 C   0  0  0  0  0  0  0  0  0  0  0  0
  -21.7540   -4.1320   23.6840 C   0  0  0  0  0  3  0  0  0  0  0  0
  -21.9690   -4.9230   22.5410 C   0  0  0  0  0  0  0  0  0  0  0  0
  -22.3740   -4.3380   21.3870 F   0  0  0  0  0  0  0  0  0  0  0  0
  -21.1020   -3.9660   25.9760 F   0  0  0  0  0  0  0  0  0  0  0  0
  -23.3070  -13.6140   21.1270 C   0  0  0  0  0  0  0  0  0  0  0  0
  -22.5140  -12.9790   21.9830 N   0  0  0  0  0  0  0  0  0  0  0  0
  -22.9340  -14.6340   20.5480 O   0  0  0  0  0  0  0  0  0  0  0  0
  -22.8280  -12.1540   22.4710 H   0  0  0  0  0  0  0  0  0  0  0  0
  -21.5820  -13.3250   22.1530 H   0  0  0  0  0  0  0  0  0  0  0  0
  -26.0370  -15.1570   20.4230 N   0  0  0  0  0  0  0  0  0  0  0  0
  -25.2850  -15.8350   20.4560 H   0  0  0  0  0  0  0  0  0  0  0  0
  -26.9150  -15.5500   20.1140 H   0  0  0  0  0  0  0  0  0  0  0  0
  -29.4800  -23.5520   20.0530 C   0  0  0  0  0  3  0  0  0  0  0  0
  -28.4920  -24.8320   19.6850 C   0  0  0  0  0  3  0  0  0  0  0  0
  -28.7230  -26.2900   20.1270 O   0  0  0  0  0  0  0  0  0  0  0  0
  -24.9750  -31.7320   23.3120 C   0  0  0  0  0  0  0  0  0  0  0  0
  -27.6630  -27.2520   20.0810 C   0  0  0  0  0  0  0  0  0  0  0  0
  -23.8360  -30.4510   21.5400 C   0  0  0  0  0  3  0  0  0  0  0  0
  -25.3350  -28.9720   20.0760 C   0  0  0  0  0  0  0  0  0  0  0  0
  -26.3920  -30.7290   21.4870 C   0  0  0  0  0  2  0  0  0  0  0  0
  -26.4900  -29.3850   20.7520 C   0  0  0  0  0  0  0  0  0  0  0  0
  -27.6580  -28.5400   20.7400 C   0  0  0  0  0  3  0  0  0  0  0  0
  -26.4820  -26.9310   19.3770 C   0  0  0  0  0  3  0  0  0  0  0  0
  -25.3400  -27.7580   19.3780 C   0  0  0  0  0  3  0  0  0  0  0  0
  -24.1080  -29.8660   20.1300 C   0  0  0  0  0  2  0  0  0  0  0  0
  -25.0850  -30.9860   22.1700 N   0  0  0  0  0  0  0  0  0  0  0  0
  -23.8690  -31.9840   23.8150 O   0  0  0  0  0  0  0  0  0  0  0  0
  -23.1200  -29.3840   22.4070 C   0  0  0  0  0  0  0  0  0  0  0  0
  -21.7980  -29.2250   22.2160 N   0  0  0  0  0  0  0  0  0  0  0  0
  -23.7590  -28.7050   23.2140 O   0  0  0  0  0  0  0  0  0  0  0  0
  -21.3400  -29.8280   21.5470 H   0  0  0  0  0  0  0  0  0  0  0  0
  -18.3980  -28.0230   22.5210 C   0  0  0  0  0  0  0  0  0  0  0  0
  -20.9490  -28.2400   22.8920 C   0  0  0  0  0  3  0  0  0  0  0  0
  -21.0580  -26.8500   22.2240 C   0  0  0  0  0  2  0  0  0  0  0  0
  -19.9900  -26.6100   21.1530 C   0  0  0  0  0  2  0  0  0  0  0  0
  -18.5880  -26.7230   21.7580 C   0  0  0  0  0  2  0  0  0  0  0  0
  -19.5080  -28.7420   23.0400 C   0  0  0  0  0  0  0  0  0  0  0  0
  -19.2790  -29.9620   23.7130 C   0  0  0  0  0  3  0  0  0  0  0  0
  -17.9730  -30.4630   23.8700 C   0  0  0  0  0  3  0  0  0  0  0  0
  -16.8770  -29.7400   23.3670 C   0  0  0  0  0  3  0  0  0  0  0  0
  -17.0910  -28.5210   22.6990 C   0  0  0  0  0  3  0  0  0  0  0  0
  -26.2290  -32.3200   24.0250 C   0  0  0  0  0  3  0  0  0  0  0  0
  -26.6400  -31.5150   25.3200 C   0  0  1  0  0  0  0  0  0  0  0  0
  -25.4720  -31.2920   26.3100 C   0  0  0  0  0  1  0  0  0  0  0  0
  -27.2100  -30.1270   24.9460 C   0  0  0  0  0  1  0  0  0  0  0  0
  -27.7640  -32.2670   26.0700 C   0  0  0  0  0  1  0  0  0  0  0  0
  -25.9340  -33.7210   24.3640 N   0  0  0  0  0  0  0  0  0  0  0  0
  -26.3290  -34.7810   23.6440 C   0  0  0  0  0  0  0  0  0  0  0  0
  -27.0470  -34.6780   22.6450 O   0  0  0  0  0  0  0  0  0  0  0  0
  -25.3040  -33.8750   25.1380 H   0  0  0  0  0  0  0  0  0  0  0  0
  -24.6540  -36.6190   23.2540 C   0  0  0  0  0  1  0  0  0  0  0  0
  -25.8540  -36.1720   24.1050 C   0  0  0  0  0  3  0  0  0  0  0  0
  -27.9710  -37.0030   25.0350 C   0  0  0  0  0  1  0  0  0  0  0  0
  -26.9120  -37.2050   24.0480 N   0  0  0  0  0  0  0  0  0  0  0  0
  -26.5200  -38.1320   24.1880 H   0  0  0  0  0  0  0  0  0  0  0  0
  1  3  2  0
  2 50  1  0
  2  1  1  0
  4  2  1  0
  5  1  1  0
  6  5  1  1
  6  9  1  0
  7  8  1  1
  7  5  1  0
  7  9  1  0
  7  6  1  0
  8 20  1  0
  8  6  1  0
  9 11  1  6
 10  9  1  0
 12 18  1  0
 13 18  1  0
 14 15  1  0
 14 13  1  0
 16 15  1  0
 16 25  1  0
 16 17  1  0
 18 17  1  0
 19 12  2  0
 20 12  1  0
 21 20  1  0
 22 23  2  0
 23 24  1  0
 23 42  1  0
 24 27  1  0
 25 22  1  0
 25 26  1  0
 26 24  2  0
 27 28  1  0
 28 29  2  0
 30 33  1  0
 30 29  1  0
 31 30  2  0
 32 31  1  0
 32 27  2  0
 33 34  1  0
 34 35  1  0
 35 36  2  0
 37 36  1  0
 37 41  1  0
 38 37  2  0
 39 34  2  0
 39 38  1  0
 40 39  1  0
 42 43  1  0
 43 46  1  0
 43 45  1  0
 44 42  2  0
 47 48  1  0
 47 22  1  0
 49 47  1  0
 51 50  2  0
 51 52  1  0
 53 64  2  0
 54 52  1  0
 54 59  1  0
 55 63  1  0
 55 65  1  0
 56 62  1  0
 56 58  1  0
 57 63  1  0
 58 57  1  0
 59 58  2  0
 60 61  1  0
 60 54  2  0
 61 56  2  0
 62 55  1  0
 63 53  1  0
 65 67  2  0
 66 65  1  0
 68 66  1  0
 69 78  2  0
 69 74  1  0
 70 66  1  0
 70 74  1  0
 71 70  1  0
 72 73  1  0
 72 71  1  0
 73 69  1  0
 74 75  2  0
 75 76  1  0
 77 76  2  0
 78 77  1  0
 79 53  1  0
 79 84  1  0
 79 80  1  0
 80 83  1  1
 80 81  1  0
 82 80  1  0
 84 87  1  0
 85 89  1  0
 85 84  1  0
 86 85  2  0
 89 88  1  0
 91 89  1  0
 91 92  1  0
 91 90  1  0
M  ISO  4  12 100  20 100  51 101  52 101
M  END
>  <TORSDO>  (10) 
F 19

>  <SCORE>  (10) 
-12.884

>  <name>  (10) 
9

>  <ligand_id>  (10) 
9

>  <original_smiles>  (10) 
[H]c1c([H])c([H])c2c(c1[H])C([H])([H])C([H])([H])C([H])([H])C2([H])N([H])C(=O)C1([H])N(C(=O)C([H])(N([H])C(=O)C([H])(N([H])C([H])([H])[H])C([H])([H])[H])C(C([H])([H])[H])(C([H])([H])[H])C([H])([H])[H])C([H])([H])c2c([H])c(OC([H])([H])C([H])([H])N([H])C(=O)C3([H])C4([H])C([H])(N([H])C(=O)N5C([H])([H])C([H])([H])C([H])([H])C([H])(n6nc(-c7c([H])c([H])c(Oc8c([H])c([H])c(F)c([H])c8F)c([H])c7[H])c(C(=O)N([H])[H])c6N([H])[H])C5([H])[H])C3([H])C4(C([H])([H])[H])C([H])([H])[H])c([H])c([H])c2C1([H])[H]

>  <smiles>  (10) 
[H]c1c([H])c([H])c2c(c1[H])C([H])([H])C([H])([H])C([H])([H])C2([H])N([H])C(=O)C1([H])N(C(=O)C([H])(N([H])C(=O)C([H])(N([H])C([H])([H])[H])C([H])([H])[H])C(C([H])([H])[H])(C([H])([H])[H])C([H])([H])[H])C([H])([H])c2c([H])c(OC([H])([H])C([H])([H])N([H])C(=O)C3([H])C4([H])C([H])(N([H])C(=O)N5C([H])([H])C([H])([H])C([H])([H])C([H])(n6nc(-c7c([H])c([H])c(Oc8c([H])c([H])c(F)c([H])c8F)c([H])c7[H])c(C(=O)N([H])[H])c6N([H])[H])C5([H])[H])C3([H])C4(C([H])([H])[H])C([H])([H])[H])c([H])c([H])c2C1([H])[H]

$$$$
10:0:0
     RDKit          3D

 91100  0  0  1  0  0  0  0  0999 V2000
  -27.6520  -20.0980   20.7760 C   0  0  0  0  0  3  0  0  0  0  0  0
  -27.8250  -21.3610   20.1600 C   0  0  0  0  0  3  0  0  0  0  0  0
  -29.7500  -20.4340   18.9910 C   0  0  0  0  0  3  0  0  0  0  0  0
  -28.5400  -19.0290   20.5230 C   0  0  0  0  0  0  0  0  0  0  0  0
  -29.5590  -19.0680   19.5670 C   0  0  0  0  0  0  0  0  0  0  0  0
  -28.9060  -21.6350   19.2940 C   0  0  0  0  0  0  0  0  0  0  0  0
  -28.7500  -17.8820   21.4680 C   0  0  0  0  0  2  0  0  0  0  0  0
  -30.2570  -17.5740   21.2800 C   0  0  0  0  0  2  0  0  0  0  0  0
  -30.5370  -17.7350   19.7590 C   0  0  2  0  0  0  0  0  0  0  0  0
  -31.9840  -18.1470   19.4500 C   0  0  0  0  0  1  0  0  0  0  0  0
  -31.0820  -15.0240   19.2830 C   0  0  0  0  0  0  0  0  0  0  0  0
  -30.8970  -12.6030   18.5340 C   0  0  0  0  0  2  0  0  0  0  0  0
  -29.8380  -12.4280   17.4230 C   0  0  0  0  0  2  0  0  0  0  0  0
  -28.4330  -12.2490   18.0330 C   0  0  0  0  0  2  0  0  0  0  0  0
  -28.1390  -13.2820   19.1490 C   0  0  0  0  0  3  0  0  0  0  0  0
  -29.3040  -13.4000   20.1490 C   0  0  0  0  0  2  0  0  0  0  0  0
  -30.4870  -13.7690   19.3630 N   0  0  0  0  0  0  0  0  0  0  0  0
  -32.2810  -15.0480   18.9810 O   0  0  0  0  0  0  0  0  0  0  0  0
  -30.2910  -16.2140   19.3400 N   0  0  0  0  0  0  0  0  0  0  0  0
  -29.3090  -15.9850   19.3350 H   0  0  0  0  0  0  0  0  0  0  0  0
  -25.9190  -13.9490   20.2310 C   0  0  0  0  0  0  0  0  0  0  0  0
  -24.8680  -13.2100   20.7000 C   0  0  0  0  0  0  0  0  0  0  0  0
  -25.2450  -11.8410   20.5430 C   0  0  0  0  0  0  0  0  0  0  0  0
  -26.8650  -13.0310   19.8100 N   0  0  0  0  0  0  0  0  0  0  0  0
  -26.4810  -11.7530   20.0690 N   0  0  0  0  0  0  0  0  0  0  0  0
  -24.4750  -10.6100   20.7570 C   0  0  0  0  0  0  0  0  0  0  0  0
  -24.8640   -9.6540   21.7230 C   0  0  0  0  0  3  0  0  0  0  0  0
  -24.0960   -8.4880   21.9250 C   0  0  0  0  0  3  0  0  0  0  0  0
  -22.9240   -8.2690   21.1610 C   0  0  0  0  0  0  0  0  0  0  0  0
  -22.5550   -9.2110   20.1830 C   0  0  0  0  0  3  0  0  0  0  0  0
  -23.3230  -10.3690   19.9800 C   0  0  0  0  0  3  0  0  0  0  0  0
  -22.1300   -7.1530   21.2700 O   0  0  0  0  0  0  0  0  0  0  0  0
  -21.9130   -6.5400   22.4790 C   0  0  0  0  0  0  0  0  0  0  0  0
  -21.3340   -7.2270   23.5680 C   0  0  0  0  0  3  0  0  0  0  0  0
  -21.0660   -6.5420   24.7710 C   0  0  0  0  0  3  0  0  0  0  0  0
  -21.3640   -5.1700   24.8820 C   0  0  0  0  0  0  0  0  0  0  0  0
  -21.9330   -4.4830   23.7950 C   0  0  0  0  0  3  0  0  0  0  0  0
  -22.2040   -5.1660   22.5970 C   0  0  0  0  0  0  0  0  0  0  0  0
  -22.7330   -4.4950   21.5450 F   0  0  0  0  0  0  0  0  0  0  0  0
  -21.0980   -4.5090   26.0320 F   0  0  0  0  0  0  0  0  0  0  0  0
  -23.5470  -13.7420   21.1720 C   0  0  0  0  0  0  0  0  0  0  0  0
  -22.9070  -13.0490   22.1040 N   0  0  0  0  0  0  0  0  0  0  0  0
  -23.0990  -14.8100   20.7500 O   0  0  0  0  0  0  0  0  0  0  0  0
  -23.2900  -12.1860   22.4620 H   0  0  0  0  0  0  0  0  0  0  0  0
  -22.0280  -13.3830   22.4700 H   0  0  0  0  0  0  0  0  0  0  0  0
  -26.1390  -15.3180   20.0930 N   0  0  0  0  0  0  0  0  0  0  0  0
  -25.4190  -15.9990   20.3140 H   0  0  0  0  0  0  0  0  0  0  0  0
  -26.9250  -15.7220   19.6020 H   0  0  0  0  0  0  0  0  0  0  0  0
  -29.1070  -23.2180   18.8220 C   0  0  0  0  0  3  0  0  0  0  0  0
  -28.1180  -24.5400   19.2390 C   0  0  0  0  0  3  0  0  0  0  0  0
  -28.4030  -26.0870   19.1440 O   0  0  0  0  0  0  0  0  0  0  0  0
  -25.0040  -31.3900   23.0580 C   0  0  0  0  0  0  0  0  0  0  0  0
  -27.3640  -27.0880   19.2940 C   0  0  0  0  0  0  0  0  0  0  0  0
  -23.7090  -30.2310   21.3150 C   0  0  0  0  0  3  0  0  0  0  0  0
  -25.0620  -28.8470   19.6220 C   0  0  0  0  0  0  0  0  0  0  0  0
  -26.2570  -30.4940   21.0530 C   0  0  0  0  0  2  0  0  0  0  0  0
  -26.2790  -29.1980   20.2210 C   0  0  0  0  0  0  0  0  0  0  0  0
  -27.4310  -28.3390   20.0380 C   0  0  0  0  0  3  0  0  0  0  0  0
  -26.1230  -26.8580   18.6630 C   0  0  0  0  0  3  0  0  0  0  0  0
  -24.9990  -27.6920   18.8290 C   0  0  0  0  0  3  0  0  0  0  0  0
  -23.8510  -29.7410   19.8500 C   0  0  0  0  0  2  0  0  0  0  0  0
  -25.0150  -30.7210   21.8640 N   0  0  0  0  0  0  0  0  0  0  0  0
  -23.9490  -31.6070   23.6740 O   0  0  0  0  0  0  0  0  0  0  0  0
  -23.0670  -29.1090   22.1680 C   0  0  0  0  0  0  0  0  0  0  0  0
  -21.7350  -28.9460   22.0740 N   0  0  0  0  0  0  0  0  0  0  0  0
  -23.7700  -28.3890   22.8800 O   0  0  0  0  0  0  0  0  0  0  0  0
  -21.2220  -29.5790   21.4760 H   0  0  0  0  0  0  0  0  0  0  0  0
  -18.3880  -27.6320   22.5160 C   0  0  0  0  0  0  0  0  0  0  0  0
  -20.9470  -27.9140   22.7530 C   0  0  0  0  0  3  0  0  0  0  0  0
  -21.0570  -26.5560   22.0230 C   0  0  0  0  0  2  0  0  0  0  0  0
  -19.9400  -26.3280   21.0020 C   0  0  0  0  0  2  0  0  0  0  0  0
  -18.5710  -26.3720   21.6880 C   0  0  0  0  0  2  0  0  0  0  0  0
  -19.5030  -28.3640   23.0040 C   0  0  0  0  0  0  0  0  0  0  0  0
  -19.2770  -29.5450   23.7420 C   0  0  0  0  0  3  0  0  0  0  0  0
  -17.9680  -29.9960   23.9970 C   0  0  0  0  0  3  0  0  0  0  0  0
  -16.8670  -29.2630   23.5210 C   0  0  0  0  0  3  0  0  0  0  0  0
  -17.0790  -28.0820   22.7880 C   0  0  0  0  0  3  0  0  0  0  0  0
  -26.3140  -31.9350   23.7020 C   0  0  0  0  0  3  0  0  0  0  0  0
  -26.0250  -33.2690   24.2540 N   0  0  0  0  0  0  0  0  0  0  0  0
  -26.3690  -34.4270   23.6750 C   0  0  0  0  0  0  0  0  0  0  0  0
  -27.0300  -34.4810   22.6350 O   0  0  0  0  0  0  0  0  0  0  0  0
  -25.4360  -33.3010   25.0720 H   0  0  0  0  0  0  0  0  0  0  0  0
  -24.6860  -36.2990   23.6180 C   0  0  0  0  0  1  0  0  0  0  0  0
  -25.9100  -35.7320   24.3560 C   0  0  0  0  0  3  0  0  0  0  0  0
  -28.0550  -36.4190   25.3350 C   0  0  0  0  0  1  0  0  0  0  0  0
  -26.9670  -36.7640   24.4240 N   0  0  0  0  0  0  0  0  0  0  0  0
  -26.5820  -37.6580   24.7180 H   0  0  0  0  0  0  0  0  0  0  0  0
  -26.8910  -30.9930   24.8310 C   0  0  1  0  0  0  0  0  0  0  0  0
  -25.8590  -30.6100   25.9190 C   0  0  0  0  0  1  0  0  0  0  0  0
  -27.4400  -29.6810   24.2260 C   0  0  0  0  0  1  0  0  0  0  0  0
  -28.0840  -31.6860   25.5340 C   0  0  0  0  0  1  0  0  0  0  0  0
  2  1  2  0
  3  6  2  0
  3  5  1  0
  4  1  1  0
  4  7  1  0
  5  9  1  0
  5  4  2  0
  6  2  1  0
  8  7  1  0
  9 10  1  1
  9  8  1  0
 11 19  1  0
 11 17  1  0
 12 17  1  0
 13 14  1  0
 13 12  1  0
 15 14  1  0
 15 24  1  0
 15 16  1  0
 17 16  1  0
 18 11  2  0
 19  9  1  0
 20 19  1  0
 21 22  2  0
 22 41  1  0
 23 22  1  0
 23 26  1  0
 24 25  1  0
 24 21  1  0
 25 23  2  0
 26 27  1  0
 27 28  2  0
 29 32  1  0
 29 28  1  0
 30 29  2  0
 31 30  1  0
 31 26  2  0
 32 33  1  0
 33 38  2  0
 33 34  1  0
 34 35  2  0
 35 36  1  0
 36 40  1  0
 37 36  2  0
 38 37  1  0
 39 38  1  0
 41 42  1  0
 42 44  1  0
 42 45  1  0
 43 41  2  0
 46 21  1  0
 46 47  1  0
 48 46  1  0
 49 50  2  0
 49  6  1  0
 51 50  1  0
 51 53  1  0
 52 63  2  0
 53 58  1  0
 54 62  1  0
 54 64  1  0
 55 61  1  0
 55 57  1  0
 56 62  1  0
 57 56  1  0
 58 57  2  0
 59 60  1  0
 59 53  2  0
 60 55  2  0
 61 54  1  0
 62 52  1  0
 64 66  2  0
 65 64  1  0
 67 65  1  0
 68 77  2  0
 68 73  1  0
 69 65  1  0
 69 73  1  0
 70 69  1  0
 71 72  1  0
 71 70  1  0
 72 68  1  0
 73 74  2  0
 74 75  1  0
 76 75  2  0
 77 76  1  0
 78 52  1  0
 78 79  1  0
 78 88  1  0
 79 82  1  0
 80 79  1  0
 80 84  1  0
 81 80  2  0
 84 83  1  0
 84 86  1  0
 86 87  1  0
 86 85  1  0
 88 91  1  1
 88 89  1  0
 90 88  1  0
M  ISO  4  11 100  19 100  50 101  51 101
M  END
>  <TORSDO>  (11) 
F 18

>  <SCORE>  (11) 
-11.216

>  <name>  (11) 
10

>  <ligand_id>  (11) 
10

>  <original_smiles>  (11) 
[H]c1c([H])c([H])c2c(c1[H])C([H])([H])C([H])([H])C([H])([H])C2([H])N([H])C(=O)C1([H])N(C(=O)C([H])(N([H])C(=O)C([H])(N([H])C([H])([H])[H])C([H])([H])[H])C(C([H])([H])[H])(C([H])([H])[H])C([H])([H])[H])C([H])([H])c2c([H])c(OC([H])([H])C([H])([H])c3c([H])c([H])c4c(c3[H])C(N([H])C(=O)N3C([H])([H])C([H])([H])C([H])([H])C([H])(n5nc(-c6c([H])c([H])c(Oc7c([H])c([H])c(F)c([H])c7F)c([H])c6[H])c(C(=O)N([H])[H])c5N([H])[H])C3([H])[H])(C([H])([H])[H])C([H])([H])C4([H])[H])c([H])c([H])c2C1([H])[H]

>  <smiles>  (11) 
[H]c1c([H])c([H])c2c(c1[H])C([H])([H])C([H])([H])C([H])([H])C2([H])N([H])C(=O)C1([H])N(C(=O)C([H])(N([H])C(=O)C([H])(N([H])C([H])([H])[H])C([H])([H])[H])C(C([H])([H])[H])(C([H])([H])[H])C([H])([H])[H])C([H])([H])c2c([H])c(OC([H])([H])C([H])([H])c3c([H])c([H])c4c(c3[H])C(N([H])C(=O)N3C([H])([H])C([H])([H])C([H])([H])C([H])(n5nc(-c6c([H])c([H])c(Oc7c([H])c([H])c(F)c([H])c7F)c([H])c6[H])c(C(=O)N([H])[H])c5N([H])[H])C3([H])[H])(C([H])([H])[H])C([H])([H])C4([H])[H])c([H])c([H])c2C1([H])[H]

$$$$
11:0:0
     RDKit          3D

 94102  0  0  1  0  0  0  0  0999 V2000
  -31.5990  -21.7840   19.7790 C   0  0  0  0  0  2  0  0  0  0  0  0
  -29.2370  -19.9830   21.7290 C   0  0  0  0  0  3  0  0  0  0  0  0
  -30.3580  -22.4200   19.1180 C   0  0  0  0  0  2  0  0  0  0  0  0
  -31.8340  -22.2740   21.2230 C   0  0  0  0  0  2  0  0  0  0  0  0
  -30.0700  -20.9120   22.6520 C   0  0  0  0  0  3  0  0  0  0  0  0
  -29.3890  -22.8890   21.3790 C   0  0  0  0  0  2  0  0  0  0  0  0
  -28.9180  -20.3280   20.2230 C   0  0  0  0  0  2  0  0  0  0  0  0
  -29.0710  -22.2790   19.9760 C   0  0  0  0  0  3  0  0  0  0  0  0
  -30.5660  -22.2770   22.1360 C   0  0  2  0  0  0  0  0  0  0  0  0
  -30.8940  -23.1000   23.3330 N   0  0  0  0  0  4  0  0  0  0  0  0
  -31.7100  -22.7450   23.8030 H   0  0  0  0  0  0  0  0  0  0  0  0
  -30.1430  -23.0950   24.0000 H   0  0  0  0  0  0  0  0  0  0  0  0
  -31.0830  -24.0590   23.1010 H   0  0  0  0  0  0  0  0  0  0  0  0
  -29.5760  -18.6490   19.5360 C   0  0  0  0  0  2  0  0  0  0  0  0
  -30.1850  -15.5440   19.7520 C   0  0  0  0  0  0  0  0  0  0  0  0
  -30.1640  -13.0100   18.9440 C   0  0  0  0  0  2  0  0  0  0  0  0
  -29.1840  -12.6540   17.7860 C   0  0  0  0  0  2  0  0  0  0  0  0
  -27.7730  -12.3450   18.3160 C   0  0  0  0  0  2  0  0  0  0  0  0
  -27.3650  -13.3160   19.4510 C   0  0  0  0  0  3  0  0  0  0  0  0
  -28.4880  -13.5930   20.4870 C   0  0  0  0  0  2  0  0  0  0  0  0
  -29.6260  -14.1930   19.7490 N   0  0  0  0  0  0  0  0  0  0  0  0
  -31.3860  -15.4700   19.4360 O   0  0  0  0  0  0  0  0  0  0  0  0
  -29.4750  -16.9140   19.9050 N   0  0  0  0  0  0  0  0  0  0  0  0
  -28.5400  -16.7130   20.2270 H   0  0  0  0  0  0  0  0  0  0  0  0
  -25.0830  -13.8350   20.4430 C   0  0  0  0  0  0  0  0  0  0  0  0
  -24.0460  -13.0520   20.8640 C   0  0  0  0  0  0  0  0  0  0  0  0
  -24.4860  -11.6980   20.7260 C   0  0  0  0  0  0  0  0  0  0  0  0
  -26.0890  -12.9680   20.0660 N   0  0  0  0  0  0  0  0  0  0  0  0
  -25.7510  -11.6710   20.3050 N   0  0  0  0  0  0  0  0  0  0  0  0
  -23.7500  -10.4380   20.9150 C   0  0  0  0  0  0  0  0  0  0  0  0
  -24.1820   -9.4620   21.8390 C   0  0  0  0  0  3  0  0  0  0  0  0
  -23.4440   -8.2720   22.0230 C   0  0  0  0  0  3  0  0  0  0  0  0
  -22.2590   -8.0490   21.2820 C   0  0  0  0  0  0  0  0  0  0  0  0
  -21.8440   -9.0170   20.3470 C   0  0  0  0  0  3  0  0  0  0  0  0
  -22.5820  -10.1970   20.1600 C   0  0  0  0  0  3  0  0  0  0  0  0
  -21.4860   -6.9160   21.3780 O   0  0  0  0  0  0  0  0  0  0  0  0
  -21.3860   -6.2140   22.5530 C   0  0  0  0  0  0  0  0  0  0  0  0
  -20.8780   -6.7980   23.7320 C   0  0  0  0  0  3  0  0  0  0  0  0
  -20.7210   -6.0160   24.8940 C   0  0  0  0  0  3  0  0  0  0  0  0
  -21.0650   -4.6530   24.8820 C   0  0  0  0  0  0  0  0  0  0  0  0
  -21.5650   -4.0660   23.7050 C   0  0  0  0  0  3  0  0  0  0  0  0
  -21.7240   -4.8440   22.5440 C   0  0  0  0  0  0  0  0  0  0  0  0
  -22.1840   -4.2680   21.4090 F   0  0  0  0  0  0  0  0  0  0  0  0
  -20.9080   -3.9010   25.9960 F   0  0  0  0  0  0  0  0  0  0  0  0
  -22.6800  -13.5390   21.2610 C   0  0  0  0  0  0  0  0  0  0  0  0
  -22.0090  -12.8180   22.1510 N   0  0  0  0  0  0  0  0  0  0  0  0
  -22.2260  -14.5890   20.8140 O   0  0  0  0  0  0  0  0  0  0  0  0
  -22.3950  -11.9710   22.5400 H   0  0  0  0  0  0  0  0  0  0  0  0
  -21.0960  -13.1250   22.4540 H   0  0  0  0  0  0  0  0  0  0  0  0
  -25.2530  -15.2120   20.3160 N   0  0  0  0  0  0  0  0  0  0  0  0
  -24.5110  -15.8690   20.5350 H   0  0  0  0  0  0  0  0  0  0  0  0
  -26.0560  -15.6540   19.8860 H   0  0  0  0  0  0  0  0  0  0  0  0
  -28.0170  -23.8330   19.5470 C   0  0  0  0  0  2  0  0  0  0  0  0
  -28.1120  -25.5680   19.7340 O   0  0  0  0  0  0  0  0  0  0  0  0
  -24.5840  -31.6730   22.9070 C   0  0  0  0  0  0  0  0  0  0  0  0
  -27.0970  -26.7290   19.7250 C   0  0  0  0  0  0  0  0  0  0  0  0
  -23.3670  -30.3090   21.2590 C   0  0  0  0  0  3  0  0  0  0  0  0
  -24.7950  -28.7110   19.7740 C   0  0  0  0  0  0  0  0  0  0  0  0
  -25.9350  -30.4790   21.0820 C   0  0  0  0  0  2  0  0  0  0  0  0
  -26.0020  -29.0710   20.3890 C   0  0  0  0  0  0  0  0  0  0  0  0
  -27.1350  -28.1130   20.3280 C   0  0  0  0  0  3  0  0  0  0  0  0
  -25.8490  -26.5650   19.0700 C   0  0  0  0  0  3  0  0  0  0  0  0
  -24.7540  -27.4810   19.0920 C   0  0  0  0  0  3  0  0  0  0  0  0
  -23.5820  -29.6470   19.8680 C   0  0  0  0  0  2  0  0  0  0  0  0
  -24.6530  -30.8540   21.8010 N   0  0  0  0  0  0  0  0  0  0  0  0
  -23.5020  -31.9570   23.4480 O   0  0  0  0  0  0  0  0  0  0  0  0
  -22.6760  -29.3050   22.2200 C   0  0  0  0  0  0  0  0  0  0  0  0
  -21.3360  -29.1840   22.1470 N   0  0  0  0  0  0  0  0  0  0  0  0
  -23.3540  -28.6350   23.0010 O   0  0  0  0  0  0  0  0  0  0  0  0
  -20.8430  -29.7790   21.4940 H   0  0  0  0  0  0  0  0  0  0  0  0
  -17.9380  -28.0600   22.7900 C   0  0  0  0  0  0  0  0  0  0  0  0
  -20.5180  -28.2310   22.9110 C   0  0  0  0  0  3  0  0  0  0  0  0
  -20.5310  -26.8320   22.2520 C   0  0  0  0  0  2  0  0  0  0  0  0
  -19.3600  -26.6030   21.2890 C   0  0  0  0  0  2  0  0  0  0  0  0
  -18.0260  -26.7490   22.0240 C   0  0  0  0  0  2  0  0  0  0  0  0
  -19.1030  -28.7620   23.1900 C   0  0  0  0  0  0  0  0  0  0  0  0
  -18.9590  -29.9900   23.8750 C   0  0  0  0  0  3  0  0  0  0  0  0
  -17.6830  -30.5110   24.1560 C   0  0  0  0  0  3  0  0  0  0  0  0
  -16.5320  -29.8060   23.7660 C   0  0  0  0  0  3  0  0  0  0  0  0
  -16.6600  -28.5800   23.0900 C   0  0  0  0  0  3  0  0  0  0  0  0
  -25.8560  -32.3050   23.5470 C   0  0  0  0  0  3  0  0  0  0  0  0
  -26.4110  -31.4790   24.7730 C   0  0  1  0  0  0  0  0  0  0  0  0
  -25.3480  -31.1810   25.8590 C   0  0  0  0  0  1  0  0  0  0  0  0
  -26.9930  -30.1260   24.3090 C   0  0  0  0  0  1  0  0  0  0  0  0
  -27.5790  -32.2490   25.4350 C   0  0  0  0  0  1  0  0  0  0  0  0
  -25.5260  -33.6800   23.9750 N   0  0  0  0  0  0  0  0  0  0  0  0
  -25.8170  -34.7930   23.2870 C   0  0  0  0  0  0  0  0  0  0  0  0
  -26.4550  -34.7730   22.2290 O   0  0  0  0  0  0  0  0  0  0  0  0
  -24.9480  -33.7650   24.8000 H   0  0  0  0  0  0  0  0  0  0  0  0
  -24.0550  -36.5850   23.1280 C   0  0  0  0  0  1  0  0  0  0  0  0
  -25.3330  -36.1440   23.8580 C   0  0  0  0  0  3  0  0  0  0  0  0
  -27.4850  -37.0120   24.6670 C   0  0  0  0  0  1  0  0  0  0  0  0
  -26.3490  -37.2170   23.7730 N   0  0  0  0  0  0  0  0  0  0  0  0
  -25.9360  -38.1220   23.9870 H   0  0  0  0  0  0  0  0  0  0  0  0
  1  4  1  0
  2  5  2  0
  3  1  1  0
  3  8  1  0
  4  9  1  0
  6  9  1  0
  7  2  1  0
  8 53  1  0
  8  6  1  0
  9  5  1  0
  9 10  1  1
 10 11  1  0
 10 12  1  0
 13 10  1  0
 14 23  1  0
 14  7  1  0
 15 23  1  0
 16 21  1  0
 17 18  1  0
 17 16  1  0
 19 18  1  0
 19 28  1  0
 19 20  1  0
 21 15  1  0
 21 20  1  0
 22 15  2  0
 23 24  1  0
 25 26  2  0
 26 45  1  0
 27 26  1  0
 27 30  1  0
 28 29  1  0
 28 25  1  0
 29 27  2  0
 30 31  1  0
 31 32  2  0
 33 36  1  0
 33 32  1  0
 34 33  2  0
 35 34  1  0
 35 30  2  0
 36 37  1  0
 37 38  1  0
 38 39  2  0
 40 39  1  0
 40 44  1  0
 41 40  2  0
 42 37  2  0
 42 41  1  0
 43 42  1  0
 45 46  1  0
 46 49  1  0
 46 48  1  0
 47 45  2  0
 50 25  1  0
 50 51  1  0
 52 50  1  0
 53 54  1  0
 55 66  2  0
 56 54  1  0
 56 61  1  0
 57 65  1  0
 57 67  1  0
 58 64  1  0
 58 60  1  0
 59 65  1  0
 60 59  1  0
 61 60  2  0
 62 63  1  0
 62 56  2  0
 63 58  2  0
 64 57  1  0
 65 55  1  0
 67 69  2  0
 68 67  1  0
 70 68  1  0
 71 80  2  0
 71 76  1  0
 72 68  1  0
 72 76  1  0
 73 72  1  0
 74 75  1  0
 74 73  1  0
 75 71  1  0
 76 77  2  0
 77 78  1  0
 79 78  2  0
 80 79  1  0
 81 55  1  0
 81 86  1  0
 81 82  1  0
 82 85  1  1
 82 83  1  0
 84 82  1  0
 86 89  1  0
 87 91  1  0
 87 86  1  0
 88 87  2  0
 91 90  1  0
 93 91  1  0
 93 94  1  0
 93 92  1  0
M  ISO  4  15 100  23 100  53 101  54 101
M  END
>  <TORSDO>  (12) 
F 19

>  <SCORE>  (12) 
-14.721

>  <name>  (12) 
11

>  <ligand_id>  (12) 
11

>  <original_smiles>  (12) 
[H]c1c([H])c([H])c2c(c1[H])C([H])([H])C([H])([H])C([H])([H])C2([H])N([H])C(=O)C1([H])N(C(=O)C([H])(N([H])C(=O)C([H])(N([H])C([H])([H])[H])C([H])([H])[H])C(C([H])([H])[H])(C([H])([H])[H])C([H])([H])[H])C([H])([H])c2c([H])c(OC([H])([H])C34C([H])([H])C([H])([H])C([H])([H])C([N+]([H])([H])[H])(C([H])([H])C([H])([H])C3([H])C([H])([H])N([H])C(=O)N3C([H])([H])C([H])([H])C([H])([H])C([H])(n5nc(-c6c([H])c([H])c(Oc7c([H])c([H])c(F)c([H])c7F)c([H])c6[H])c(C(=O)N([H])[H])c5N([H])[H])C3([H])[H])C4([H])[H])c([H])c([H])c2C1([H])[H]

>  <smiles>  (12) 
[H]c1c([H])c([H])c2c(c1[H])C([H])([H])C([H])([H])C([H])([H])C2([H])N([H])C(=O)C1([H])N(C(=O)C([H])(N([H])C(=O)C([H])(N([H])C([H])([H])[H])C([H])([H])[H])C(C([H])([H])[H])(C([H])([H])[H])C([H])([H])[H])C([H])([H])c2c([H])c(OC([H])([H])C34C([H])([H])C([H])([H])C([H])([H])C([N+]([H])([H])[H])(C([H])([H])C([H])([H])C3([H])C([H])([H])N([H])C(=O)N3C([H])([H])C([H])([H])C([H])([H])C([H])(n5nc(-c6c([H])c([H])c(Oc7c([H])c([H])c(F)c([H])c7F)c([H])c6[H])c(C(=O)N([H])[H])c5N([H])[H])C3([H])[H])C4([H])[H])c([H])c([H])c2C1([H])[H]

$$$$
12:0:0
     RDKit          3D

 86 92  0  0  1  0  0  0  0  0999 V2000
  -29.0270  -20.3650   17.5860 C   0  0  0  0  0  2  0  0  0  0  0  0
  -27.8200  -19.7610   18.3130 C   0  0  0  0  0  2  0  0  0  0  0  0
  -29.3950  -21.5990   18.4420 C   0  0  0  0  0  2  0  0  0  0  0  0
  -28.1080  -20.0450   19.7730 C   0  0  0  0  0  3  0  0  0  0  0  0
  -29.3630  -19.3690   20.3710 C   0  0  0  0  0  2  0  0  0  0  0  0
  -28.8630  -21.3380   19.8540 C   0  0  0  0  0  2  0  0  0  0  0  0
  -30.0930  -16.0440   20.2720 C   0  0  0  0  0  0  0  0  0  0  0  0
  -30.3480  -13.4080   19.5200 C   0  0  0  0  0  2  0  0  0  0  0  0
  -29.5330  -12.8040   18.3320 C   0  0  0  0  0  2  0  0  0  0  0  0
  -28.1280  -12.3700   18.7770 C   0  0  0  0  0  2  0  0  0  0  0  0
  -27.5280  -13.4020   19.7580 C   0  0  0  0  0  3  0  0  0  0  0  0
  -28.5090  -13.8830   20.8610 C   0  0  0  0  0  2  0  0  0  0  0  0
  -29.6220  -14.6160   20.1790 N   0  0  0  0  0  0  0  0  0  0  0  0
  -31.3430  -15.9260   20.2530 O   0  0  0  0  0  0  0  0  0  0  0  0
  -29.3180  -17.4910   20.1950 N   0  0  0  0  0  0  0  0  0  0  0  0
  -28.3440  -17.2340   20.0820 H   0  0  0  0  0  0  0  0  0  0  0  0
  -25.1510  -13.8840   20.4840 C   0  0  0  0  0  0  0  0  0  0  0  0
  -24.0990  -13.0910   20.8360 C   0  0  0  0  0  0  0  0  0  0  0  0
  -24.5930  -11.7500   20.8310 C   0  0  0  0  0  0  0  0  0  0  0  0
  -26.2160  -13.0320   20.2700 N   0  0  0  0  0  0  0  0  0  0  0  0
  -25.8950  -11.7390   20.5470 N   0  0  0  0  0  0  0  0  0  0  0  0
  -23.8770  -10.4780   21.0180 C   0  0  0  0  0  0  0  0  0  0  0  0
  -24.2970   -9.5280   21.9740 C   0  0  0  0  0  3  0  0  0  0  0  0
  -23.5750   -8.3270   22.1560 C   0  0  0  0  0  3  0  0  0  0  0  0
  -22.4180   -8.0710   21.3840 C   0  0  0  0  0  0  0  0  0  0  0  0
  -22.0170   -9.0100   20.4180 C   0  0  0  0  0  3  0  0  0  0  0  0
  -22.7400  -10.2030   20.2330 C   0  0  0  0  0  3  0  0  0  0  0  0
  -21.6710   -6.9200   21.4730 O   0  0  0  0  0  0  0  0  0  0  0  0
  -21.6090   -6.1910   22.6320 C   0  0  0  0  0  0  0  0  0  0  0  0
  -21.1440   -6.7500   23.8420 C   0  0  0  0  0  3  0  0  0  0  0  0
  -21.0300   -5.9470   24.9920 C   0  0  0  0  0  3  0  0  0  0  0  0
  -21.3660   -4.5810   24.9340 C   0  0  0  0  0  0  0  0  0  0  0  0
  -21.8240   -4.0200   23.7290 C   0  0  0  0  0  3  0  0  0  0  0  0
  -21.9400   -4.8190   22.5800 C   0  0  0  0  0  0  0  0  0  0  0  0
  -22.3590   -4.2700   21.4150 F   0  0  0  0  0  0  0  0  0  0  0  0
  -21.2460   -3.8060   26.0360 F   0  0  0  0  0  0  0  0  0  0  0  0
  -22.6870  -13.5490   21.0480 C   0  0  0  0  0  0  0  0  0  0  0  0
  -21.9400  -12.8700   21.9110 N   0  0  0  0  0  0  0  0  0  0  0  0
  -22.2520  -14.5520   20.4830 O   0  0  0  0  0  0  0  0  0  0  0  0
  -22.3070  -12.0660   22.3960 H   0  0  0  0  0  0  0  0  0  0  0  0
  -20.9910  -13.1640   22.0930 H   0  0  0  0  0  0  0  0  0  0  0  0
  -25.2830  -15.2550   20.2940 N   0  0  0  0  0  0  0  0  0  0  0  0
  -24.4960  -15.8830   20.3980 H   0  0  0  0  0  0  0  0  0  0  0  0
  -26.1280  -15.7230   19.9900 H   0  0  0  0  0  0  0  0  0  0  0  0
  -28.0260  -23.2220   20.2300 C   0  0  0  0  0 15  0  0  0  0  0  0
  -28.1000  -25.1320   20.1730 O   0  0  0  0  0  1  0  0  0  0  0  0
  -24.6420  -31.8280   23.1010 C   0  0  0  0  0  0  0  0  0  0  0  0
  -27.1450  -26.4650   20.1830 C   0  0  0  0  0  0  0  0  0  0  0  0
  -23.4600  -30.3990   21.4930 C   0  0  0  0  0  3  0  0  0  0  0  0
  -24.9030  -28.6750   20.1180 C   0  0  0  0  0  0  0  0  0  0  0  0
  -26.0520  -30.4500   21.4030 C   0  0  0  0  0  2  0  0  0  0  0  0
  -26.1090  -28.9810   20.7610 C   0  0  0  0  0  0  0  0  0  0  0  0
  -27.1960  -27.9110   20.7550 C   0  0  0  0  0  3  0  0  0  0  0  0
  -25.8930  -26.4370   19.4940 C   0  0  0  0  0  3  0  0  0  0  0  0
  -24.8490  -27.4300   19.4630 C   0  0  0  0  0  3  0  0  0  0  0  0
  -23.7120  -29.6650   20.1410 C   0  0  0  0  0  2  0  0  0  0  0  0
  -24.7450  -30.9330   22.0490 N   0  0  0  0  0  0  0  0  0  0  0  0
  -23.5440  -32.1490   23.5920 O   0  0  0  0  0  0  0  0  0  0  0  0
  -22.7210  -29.4590   22.4850 C   0  0  0  0  0  0  0  0  0  0  0  0
  -21.3850  -29.3170   22.3660 N   0  0  0  0  0  0  0  0  0  0  0  0
  -23.3700  -28.8520   23.3410 O   0  0  0  0  0  0  0  0  0  0  0  0
  -20.9090  -29.8530   21.6540 H   0  0  0  0  0  0  0  0  0  0  0  0
  -17.9970  -28.1100   22.9130 C   0  0  0  0  0  0  0  0  0  0  0  0
  -20.5580  -28.3970   23.1580 C   0  0  0  0  0  3  0  0  0  0  0  0
  -20.6610  -26.9530   22.6120 C   0  0  0  0  0  2  0  0  0  0  0  0
  -19.5590  -26.6090   21.6060 C   0  0  0  0  0  2  0  0  0  0  0  0
  -18.1780  -26.7540   22.2510 C   0  0  0  0  0  2  0  0  0  0  0  0
  -19.1130  -28.8890   23.3240 C   0  0  0  0  0  0  0  0  0  0  0  0
  -18.8850  -30.1510   23.9140 C   0  0  0  0  0  3  0  0  0  0  0  0
  -17.5760  -30.6390   24.0880 C   0  0  0  0  0  3  0  0  0  0  0  0
  -16.4760  -29.8590   23.6900 C   0  0  0  0  0  3  0  0  0  0  0  0
  -16.6880  -28.5960   23.1100 C   0  0  0  0  0  3  0  0  0  0  0  0
  -25.8930  -32.5050   23.7400 C   0  0  0  0  0  3  0  0  0  0  0  0
  -25.5490  -33.9020   24.0860 N   0  0  0  0  0  0  0  0  0  0  0  0
  -25.8770  -34.9860   23.3680 C   0  0  0  0  0  0  0  0  0  0  0  0
  -26.5500  -34.9130   22.3370 O   0  0  0  0  0  0  0  0  0  0  0  0
  -24.9440  -34.0270   24.8860 H   0  0  0  0  0  0  0  0  0  0  0  0
  -24.1400  -36.7890   23.0750 C   0  0  0  0  0  1  0  0  0  0  0  0
  -25.3860  -36.3630   23.8670 C   0  0  0  0  0  3  0  0  0  0  0  0
  -27.5160  -37.2450   24.7200 C   0  0  0  0  0  1  0  0  0  0  0  0
  -26.4130  -37.4260   23.7800 N   0  0  0  0  0  0  0  0  0  0  0  0
  -25.9990  -38.3380   23.9480 H   0  0  0  0  0  0  0  0  0  0  0  0
  -26.4050  -31.7560   25.0360 C   0  0  1  0  0  0  0  0  0  0  0  0
  -25.3020  -31.5270   26.0980 C   0  0  0  0  0  1  0  0  0  0  0  0
  -27.0030  -30.3750   24.6880 C   0  0  0  0  0  1  0  0  0  0  0  0
  -27.5470  -32.5660   25.6950 C   0  0  0  0  0  1  0  0  0  0  0  0
  1  2  1  0
  1  3  1  0
  2  4  1  0
  3  6  1  0
  4  6  1  0
  4  5  1  0
  8 13  1  0
  9 10  1  0
  9  8  1  0
 11 10  1  0
 11 20  1  0
 11 12  1  0
 13  7  1  0
 13 12  1  0
 14  7  2  0
 15  7  1  0
 15  5  1  0
 16 15  1  0
 17 18  2  0
 18 37  1  0
 19 18  1  0
 19 22  1  0
 20 17  1  0
 20 21  1  0
 21 19  2  0
 22 23  1  0
 23 24  2  0
 25 28  1  0
 25 24  1  0
 26 25  2  0
 27 26  1  0
 27 22  2  0
 28 29  1  0
 29 30  1  0
 30 31  2  0
 32 31  1  0
 32 36  1  0
 33 32  2  0
 34 29  2  0
 34 33  1  0
 35 34  1  0
 37 38  1  0
 38 41  1  0
 38 40  1  0
 39 37  2  0
 42 43  1  0
 42 17  1  0
 44 42  1  0
 46 48  1  0
 47 58  2  0
 48 53  1  0
 49 57  1  0
 49 59  1  0
 50 56  1  0
 50 52  1  0
 51 57  1  0
 52 51  1  0
 53 52  2  0
 54 48  2  0
 55 54  1  0
 55 50  2  0
 56 49  1  0
 57 47  1  0
 59 61  2  0
 60 59  1  0
 62 60  1  0
 63 72  2  0
 63 68  1  0
 64 60  1  0
 64 68  1  0
 65 64  1  0
 66 67  1  0
 66 65  1  0
 67 63  1  0
 68 69  2  0
 69 70  1  0
 71 70  2  0
 72 71  1  0
 73 47  1  0
 73 74  1  0
 73 83  1  0
 74 77  1  0
 75 79  1  0
 75 74  1  0
 76 75  2  0
 79 78  1  0
 81 79  1  0
 81 82  1  0
 81 80  1  0
 83 86  1  1
 83 84  1  0
 85 83  1  0
M  ISO  4   7 100  15 100  45 101  46 101
M  END
>  <TORSDO>  (13) 
F 17

>  <SCORE>  (13) 
-16.353

>  <name>  (13) 
12

>  <ligand_id>  (13) 
12

>  <original_smiles>  (13) 
[H]c1c([H])c([H])c2c(c1[H])C([H])([H])C([H])([H])C([H])([H])C2([H])N([H])C(=O)C1([H])N(C(=O)C([H])(N([H])C(=O)C([H])(N([H])C([H])([H])[H])C([H])([H])[H])C(C([H])([H])[H])(C([H])([H])[H])C([H])([H])[H])C([H])([H])c2c([H])c(OC([H])([H])C34C([H])([H])C([H])([H])C([H])([H])C3([H])C4([H])N([H])C(=O)N3C([H])([H])C([H])([H])C([H])([H])C([H])(n4nc(-c5c([H])c([H])c(Oc6c([H])c([H])c(F)c([H])c6F)c([H])c5[H])c(C(=O)N([H])[H])c4N([H])[H])C3([H])[H])c([H])c([H])c2C1([H])[H]

>  <smiles>  (13) 
[H]c1c([H])c([H])c2c(c1[H])C([H])([H])C([H])([H])C([H])([H])C2([H])N([H])C(=O)C1([H])N(C(=O)C([H])(N([H])C(=O)C([H])(N([H])C([H])([H])[H])C([H])([H])[H])C(C([H])([H])[H])(C([H])([H])[H])C([H])([H])[H])C([H])([H])c2c([H])c(OC([H])([H])C34C([H])([H])C([H])([H])C([H])([H])C3([H])C4([H])N([H])C(=O)N3C([H])([H])C([H])([H])C([H])([H])C([H])(n4nc(-c5c([H])c([H])c(Oc6c([H])c([H])c(F)c([H])c6F)c([H])c5[H])c(C(=O)N([H])[H])c4N([H])[H])C3([H])[H])c([H])c([H])c2C1([H])[H]

$$$$
13:0:0
     RDKit          3D

 89 98  0  0  1  0  0  0  0  0999 V2000
  -29.3810  -17.9570   20.2860 C   0  0  0  0  0  0  0  0  0  0  0  0
  -30.0460  -19.5230   20.1100 C   0  0  0  0  0  0  0  0  0  0  0  0
  -27.1930  -18.4870   18.9560 C   0  0  0  0  0  2  0  0  0  0  0  0
  -26.6310  -19.8840   19.2690 C   0  0  0  0  0  2  0  0  0  0  0  0
  -27.9280  -18.5220   20.3080 C   0  0  0  0  0  3  0  0  0  0  0  0
  -29.0400  -20.8780   19.7870 C   0  0  0  0  0  3  0  0  0  0  0  0
  -27.7890  -20.1120   20.2570 C   0  0  0  0  0  3  0  0  0  0  0  0
  -29.4980  -16.5320   20.4310 N   0  0  0  0  0  0  0  0  0  0  0  0
  -31.2660  -19.7000   20.1940 O   0  0  0  0  0  0  0  0  0  0  0  0
  -30.4750  -15.3290   20.4600 C   0  0  0  0  0  0  0  0  0  0  0  0
  -30.6210  -12.7790   19.9150 C   0  0  0  0  0  2  0  0  0  0  0  0
  -29.8060  -12.4210   18.6430 C   0  0  0  0  0  2  0  0  0  0  0  0
  -28.3220  -12.1760   18.9800 C   0  0  0  0  0  2  0  0  0  0  0  0
  -27.7710  -13.2420   19.9590 C   0  0  0  0  0  3  0  0  0  0  0  0
  -28.7220  -13.5160   21.1400 C   0  0  0  0  0  2  0  0  0  0  0  0
  -29.9990  -13.9860   20.5760 N   0  0  0  0  0  0  0  0  0  0  0  0
  -31.6990  -15.3670   20.2790 O   0  0  0  0  0  0  0  0  0  0  0  0
  -25.3720  -13.8640   20.5640 C   0  0  0  0  0  0  0  0  0  0  0  0
  -24.2720  -13.1220   20.8870 C   0  0  0  0  0  0  0  0  0  0  0  0
  -24.7090  -11.7610   20.9150 C   0  0  0  0  0  0  0  0  0  0  0  0
  -26.4070  -12.9620   20.3950 N   0  0  0  0  0  0  0  0  0  0  0  0
  -26.0160  -11.6910   20.6770 N   0  0  0  0  0  0  0  0  0  0  0  0
  -23.9420  -10.5210   21.0940 C   0  0  0  0  0  0  0  0  0  0  0  0
  -24.3160   -9.5520   22.0510 C   0  0  0  0  0  3  0  0  0  0  0  0
  -23.5500   -8.3770   22.2190 C   0  0  0  0  0  3  0  0  0  0  0  0
  -22.3950   -8.1640   21.4300 C   0  0  0  0  0  0  0  0  0  0  0  0
  -22.0380   -9.1220   20.4630 C   0  0  0  0  0  3  0  0  0  0  0  0
  -22.8040  -10.2880   20.2940 C   0  0  0  0  0  3  0  0  0  0  0  0
  -21.6070   -7.0410   21.5040 O   0  0  0  0  0  0  0  0  0  0  0  0
  -21.5230   -6.2940   22.6510 C   0  0  0  0  0  0  0  0  0  0  0  0
  -21.0960   -6.8520   23.8760 C   0  0  0  0  0  3  0  0  0  0  0  0
  -20.9590   -6.0320   25.0140 C   0  0  0  0  0  3  0  0  0  0  0  0
  -21.2400   -4.6550   24.9280 C   0  0  0  0  0  0  0  0  0  0  0  0
  -21.6600   -4.0960   23.7080 C   0  0  0  0  0  3  0  0  0  0  0  0
  -21.7980   -4.9130   22.5730 C   0  0  0  0  0  0  0  0  0  0  0  0
  -22.1830   -4.3660   21.3940 F   0  0  0  0  0  0  0  0  0  0  0  0
  -21.1020   -3.8650   26.0180 F   0  0  0  0  0  0  0  0  0  0  0  0
  -22.8730  -13.6380   21.0600 C   0  0  0  0  0  0  0  0  0  0  0  0
  -22.0800  -12.9940   21.9080 N   0  0  0  0  0  0  0  0  0  0  0  0
  -22.4910  -14.6510   20.4760 O   0  0  0  0  0  0  0  0  0  0  0  0
  -22.3970  -12.1770   22.4090 H   0  0  0  0  0  0  0  0  0  0  0  0
  -21.1380  -13.3270   22.0600 H   0  0  0  0  0  0  0  0  0  0  0  0
  -25.5820  -15.2260   20.3740 N   0  0  0  0  0  0  0  0  0  0  0  0
  -24.8440  -15.9150   20.4580 H   0  0  0  0  0  0  0  0  0  0  0  0
  -26.4840  -15.6270   20.1440 H   0  0  0  0  0  0  0  0  0  0  0  0
  -29.5580  -22.8290   21.5670 C   0  0  0  0  0  1  0  0  0  0  0  0
  -29.1740  -22.6820   20.0880 C   0  0  0  0  0  3  0  0  0  0  0  0
  -28.1520  -24.1500   19.7280 C   0  0  0  0  0  2  0  0  0  0  0  0
  -28.3160  -25.7970   19.9130 O   0  0  0  0  0  0  0  0  0  0  0  0
  -24.5210  -31.5890   22.9890 C   0  0  0  0  0  0  0  0  0  0  0  0
  -27.2670  -26.8680   19.8660 C   0  0  0  0  0  0  0  0  0  0  0  0
  -23.3910  -30.2030   21.2980 C   0  0  0  0  0  3  0  0  0  0  0  0
  -24.9060  -28.6830   19.8470 C   0  0  0  0  0  0  0  0  0  0  0  0
  -25.9510  -30.4970   21.1870 C   0  0  0  0  0  2  0  0  0  0  0  0
  -26.0750  -29.1070   20.4910 C   0  0  0  0  0  0  0  0  0  0  0  0
  -27.2480  -28.2230   20.4730 C   0  0  0  0  0  3  0  0  0  0  0  0
  -26.0610  -26.5980   19.1790 C   0  0  0  0  0  3  0  0  0  0  0  0
  -24.9250  -27.4510   19.1710 C   0  0  0  0  0  3  0  0  0  0  0  0
  -23.6580  -29.5640   19.9070 C   0  0  0  0  0  2  0  0  0  0  0  0
  -24.6420  -30.7890   21.8800 N   0  0  0  0  0  0  0  0  0  0  0  0
  -23.4170  -31.8300   23.5050 O   0  0  0  0  0  0  0  0  0  0  0  0
  -22.7150  -29.1620   22.2290 C   0  0  0  0  0  0  0  0  0  0  0  0
  -21.3860  -28.9890   22.1110 N   0  0  0  0  0  0  0  0  0  0  0  0
  -23.3960  -28.5100   23.0250 O   0  0  0  0  0  0  0  0  0  0  0  0
  -20.8900  -29.5640   21.4450 H   0  0  0  0  0  0  0  0  0  0  0  0
  -18.0150  -27.7530   22.6440 C   0  0  0  0  0  0  0  0  0  0  0  0
  -20.5810  -28.0090   22.8510 C   0  0  0  0  0  3  0  0  0  0  0  0
  -20.6670  -26.6120   22.1950 C   0  0  0  0  0  2  0  0  0  0  0  0
  -19.5370  -26.3440   21.1950 C   0  0  0  0  0  2  0  0  0  0  0  0
  -18.1740  -26.4470   21.8840 C   0  0  0  0  0  2  0  0  0  0  0  0
  -19.1440  -28.4940   23.0840 C   0  0  0  0  0  0  0  0  0  0  0  0
  -18.9390  -29.7150   23.7620 C   0  0  0  0  0  3  0  0  0  0  0  0
  -17.6380  -30.1970   24.0000 C   0  0  0  0  0  3  0  0  0  0  0  0
  -16.5240  -29.4540   23.5730 C   0  0  0  0  0  3  0  0  0  0  0  0
  -16.7130  -28.2330   22.9010 C   0  0  0  0  0  3  0  0  0  0  0  0
  -25.7630  -32.2540   23.6570 C   0  0  0  0  0  3  0  0  0  0  0  0
  -25.3940  -33.6310   24.0350 N   0  0  0  0  0  0  0  0  0  0  0  0
  -25.6940  -34.7280   23.3280 C   0  0  0  0  0  0  0  0  0  0  0  0
  -26.3720  -34.6910   22.2980 O   0  0  0  0  0  0  0  0  0  0  0  0
  -24.7870  -33.7300   24.8350 H   0  0  0  0  0  0  0  0  0  0  0  0
  -23.9020  -36.4770   23.0490 C   0  0  0  0  0  1  0  0  0  0  0  0
  -25.1600  -36.0820   23.8400 C   0  0  0  0  0  3  0  0  0  0  0  0
  -27.2620  -37.0160   24.7030 C   0  0  0  0  0  1  0  0  0  0  0  0
  -26.1550  -37.1750   23.7640 N   0  0  0  0  0  0  0  0  0  0  0  0
  -25.7170  -38.0750   23.9400 H   0  0  0  0  0  0  0  0  0  0  0  0
  -26.2810  -31.4650   24.9240 C   0  0  1  0  0  0  0  0  0  0  0  0
  -25.1800  -31.1710   25.9690 C   0  0  0  0  0  1  0  0  0  0  0  0
  -26.9110  -30.1140   24.5160 C   0  0  0  0  0  1  0  0  0  0  0  0
  -27.4010  -32.2730   25.6200 C   0  0  0  0  0  1  0  0  0  0  0  0
  1  5  1  0
  1  8  2  0
  2  9  2  0
  2  1  1  0
  3  4  1  0
  5  3  1  0
  6 47  1  0
  6  2  1  0
  6  7  1  0
  7  4  1  0
  7  5  1  0
  8 10  1  0
 10 16  1  0
 11 16  1  0
 12 13  1  0
 12 11  1  0
 14 13  1  0
 14 21  1  0
 14 15  1  0
 16 15  1  0
 17 10  2  0
 18 19  2  0
 19 20  1  0
 19 38  1  0
 20 23  1  0
 21 18  1  0
 21 22  1  0
 22 20  2  0
 23 24  1  0
 24 25  2  0
 26 29  1  0
 26 25  1  0
 27 26  2  0
 28 27  1  0
 28 23  2  0
 29 30  1  0
 30 31  1  0
 31 32  2  0
 33 32  1  0
 33 37  1  0
 34 33  2  0
 35 30  2  0
 35 34  1  0
 36 35  1  0
 38 39  1  0
 39 42  1  0
 39 41  1  0
 40 38  2  0
 43 44  1  0
 43 18  1  0
 45 43  1  0
 47 46  1  0
 48 49  1  0
 48 47  1  0
 50 61  2  0
 51 49  1  0
 51 56  1  0
 52 60  1  0
 52 62  1  0
 53 59  1  0
 53 55  1  0
 54 60  1  0
 55 54  1  0
 56 55  2  0
 57 51  2  0
 58 57  1  0
 58 53  2  0
 59 52  1  0
 60 50  1  0
 62 64  2  0
 63 62  1  0
 65 63  1  0
 66 75  2  0
 66 71  1  0
 67 63  1  0
 67 71  1  0
 68 67  1  0
 69 70  1  0
 69 68  1  0
 70 66  1  0
 71 72  2  0
 72 73  1  0
 74 73  2  0
 75 74  1  0
 76 50  1  0
 76 77  1  0
 76 86  1  0
 77 80  1  0
 78 82  1  0
 78 77  1  0
 79 78  2  0
 82 81  1  0
 84 82  1  0
 84 85  1  0
 84 83  1  0
 86 89  1  1
 86 87  1  0
 88 86  1  0
M  ISO  4   8 100  10 100  48 101  49 101
M  END
>  <TORSDO>  (14) 
F 18

>  <SCORE>  (14) 
-15.137

>  <name>  (14) 
13

>  <ligand_id>  (14) 
13

>  <original_smiles>  (14) 
[H]c1c([H])c([H])c2c(c1[H])C([H])([H])C([H])([H])C([H])([H])C2([H])N([H])C(=O)C1([H])N(C(=O)C([H])(N([H])C(=O)C([H])(N([H])C([H])([H])[H])C([H])([H])[H])C(C([H])([H])[H])(C([H])([H])[H])C([H])([H])[H])C([H])([H])c2c([H])c(OC([H])([H])C([H])(C([H])([H])[H])C3([H])C(=O)C(=NC(=O)N4C([H])([H])C([H])([H])C([H])([H])C([H])(n5nc(-c6c([H])c([H])c(Oc7c([H])c([H])c(F)c([H])c7F)c([H])c6[H])c(C(=O)N([H])[H])c5N([H])[H])C4([H])[H])C4([H])C([H])([H])C([H])([H])C43[H])c([H])c([H])c2C1([H])[H]

>  <smiles>  (14) 
[H]c1c([H])c([H])c2c(c1[H])C([H])([H])C([H])([H])C([H])([H])C2([H])N([H])C(=O)C1([H])N(C(=O)C([H])(N([H])C(=O)C([H])(N([H])C([H])([H])[H])C([H])([H])[H])C(C([H])([H])[H])(C([H])([H])[H])C([H])([H])[H])C([H])([H])c2c([H])c(OC([H])([H])C([H])(C([H])([H])[H])C3([H])C(=O)C(=NC(=O)N4C([H])([H])C([H])([H])C([H])([H])C([H])(n5nc(-c6c([H])c([H])c(Oc7c([H])c([H])c(F)c([H])c7F)c([H])c6[H])c(C(=O)N([H])[H])c5N([H])[H])C4([H])[H])C4([H])C([H])([H])C([H])([H])C43[H])c([H])c([H])c2C1([H])[H]

$$$$
14:0:0
     RDKit          3D

 92101  0  0  1  0  0  0  0  0999 V2000
  -29.8660  -20.5750   20.1880 C   0  0  0  0  0  0  0  0  0  0  0  0
  -29.4760  -21.8110   19.5930 N   0  0  0  0  0  0  0  0  0  0  0  0
  -30.1470  -20.5930   21.3830 O   0  0  0  0  0  0  0  0  0  0  0  0
  -29.3420  -21.7670   18.5890 H   0  0  0  0  0  0  0  0  0  0  0  0
  -29.9890  -19.0920   19.4320 C   0  0  0  0  0  3  0  0  0  0  0  0
  -29.1240  -19.2250   18.2150 C   0  0  0  0  0  3  0  0  0  0  0  0
  -28.3130  -18.0010   18.5510 C   0  0  0  0  0  3  0  0  0  0  0  0
  -29.1480  -17.6680   19.8120 C   0  0  0  0  0  3  0  0  0  0  0  0
  -27.6040  -19.3040   18.2000 C   0  0  1  0  0  0  0  0  0  0  0  0
  -26.7390  -19.9470   19.2780 C   0  0  0  0  0  1  0  0  0  0  0  0
  -26.9770  -19.5270   16.8270 C   0  0  0  0  0  1  0  0  0  0  0  0
  -30.3420  -15.0360   19.4990 C   0  0  0  0  0  0  0  0  0  0  0  0
  -30.2960  -12.6070   18.7480 C   0  0  0  0  0  2  0  0  0  0  0  0
  -29.2500  -12.4320   17.6210 C   0  0  0  0  0  2  0  0  0  0  0  0
  -27.8250  -12.2430   18.1880 C   0  0  0  0  0  2  0  0  0  0  0  0
  -27.4990  -13.2240   19.3480 C   0  0  0  0  0  3  0  0  0  0  0  0
  -28.6590  -13.3100   20.3620 C   0  0  0  0  0  2  0  0  0  0  0  0
  -29.8450  -13.7390   19.6010 N   0  0  0  0  0  0  0  0  0  0  0  0
  -31.5370  -15.1740   19.2030 O   0  0  0  0  0  0  0  0  0  0  0  0
  -29.4080  -16.1090   19.5040 N   0  0  0  0  0  0  0  0  0  0  0  0
  -28.5190  -15.6490   19.5880 H   0  0  0  0  0  0  0  0  0  0  0  0
  -25.2130  -13.8200   20.3510 C   0  0  0  0  0  0  0  0  0  0  0  0
  -24.1790  -13.0550   20.8170 C   0  0  0  0  0  0  0  0  0  0  0  0
  -24.6080  -11.7000   20.6920 C   0  0  0  0  0  0  0  0  0  0  0  0
  -26.2120  -12.9340   19.9780 N   0  0  0  0  0  0  0  0  0  0  0  0
  -25.8610  -11.6500   20.2430 N   0  0  0  0  0  0  0  0  0  0  0  0
  -23.8740  -10.4470   20.9180 C   0  0  0  0  0  0  0  0  0  0  0  0
  -24.3660   -9.4460   21.7820 C   0  0  0  0  0  3  0  0  0  0  0  0
  -23.6280   -8.2630   22.0020 C   0  0  0  0  0  3  0  0  0  0  0  0
  -22.3860   -8.0710   21.3540 C   0  0  0  0  0  0  0  0  0  0  0  0
  -21.9100   -9.0630   20.4790 C   0  0  0  0  0  3  0  0  0  0  0  0
  -22.6490  -10.2360   20.2560 C   0  0  0  0  0  3  0  0  0  0  0  0
  -21.6170   -6.9390   21.4830 O   0  0  0  0  0  0  0  0  0  0  0  0
  -21.6330   -6.1870   22.6320 C   0  0  0  0  0  0  0  0  0  0  0  0
  -21.2960   -6.7390   23.8870 C   0  0  0  0  0  3  0  0  0  0  0  0
  -21.2570   -5.9170   25.0310 C   0  0  0  0  0  3  0  0  0  0  0  0
  -21.5460   -4.5440   24.9200 C   0  0  0  0  0  0  0  0  0  0  0  0
  -21.8780   -3.9900   23.6720 C   0  0  0  0  0  3  0  0  0  0  0  0
  -21.9190   -4.8110   22.5290 C   0  0  0  0  0  0  0  0  0  0  0  0
  -22.2170   -4.2700   21.3250 F   0  0  0  0  0  0  0  0  0  0  0  0
  -21.4990   -3.7510   26.0170 F   0  0  0  0  0  0  0  0  0  0  0  0
  -22.8290  -13.5560   21.2390 C   0  0  0  0  0  0  0  0  0  0  0  0
  -22.1820  -12.8730   22.1760 N   0  0  0  0  0  0  0  0  0  0  0  0
  -22.3620  -14.5960   20.7790 O   0  0  0  0  0  0  0  0  0  0  0  0
  -22.5680  -12.0330   22.5810 H   0  0  0  0  0  0  0  0  0  0  0  0
  -21.2810  -13.2030   22.4950 H   0  0  0  0  0  0  0  0  0  0  0  0
  -25.3610  -15.1910   20.1860 N   0  0  0  0  0  0  0  0  0  0  0  0
  -24.6120  -15.8270   20.4290 H   0  0  0  0  0  0  0  0  0  0  0  0
  -26.0960  -15.6300   19.6490 H   0  0  0  0  0  0  0  0  0  0  0  0
  -29.2570  -23.2610   20.2050 C   0  0  0  0  0  3  0  0  0  0  0  0
  -28.4730  -24.5630   19.4510 C   0  0  0  0  0  3  0  0  0  0  0  0
  -28.5710  -26.0930   19.7720 O   0  0  0  0  0  0  0  0  0  0  0  0
  -24.5860  -31.4610   22.8820 C   0  0  0  0  0  0  0  0  0  0  0  0
  -27.4550  -27.0120   19.7030 C   0  0  0  0  0  0  0  0  0  0  0  0
  -23.4730  -30.0700   21.1800 C   0  0  0  0  0  3  0  0  0  0  0  0
  -25.0200  -28.6250   19.7060 C   0  0  0  0  0  0  0  0  0  0  0  0
  -26.0100  -30.4730   21.0430 C   0  0  0  0  0  2  0  0  0  0  0  0
  -26.1690  -29.1100   20.3460 C   0  0  0  0  0  0  0  0  0  0  0  0
  -27.3820  -28.3240   20.3240 C   0  0  0  0  0  3  0  0  0  0  0  0
  -26.2740  -26.6280   19.0220 C   0  0  0  0  0  3  0  0  0  0  0  0
  -25.0900  -27.3980   19.0270 C   0  0  0  0  0  3  0  0  0  0  0  0
  -23.7440  -29.4580   19.7770 C   0  0  0  0  0  2  0  0  0  0  0  0
  -24.7100  -30.6910   21.7560 N   0  0  0  0  0  0  0  0  0  0  0  0
  -23.4860  -31.6620   23.4170 O   0  0  0  0  0  0  0  0  0  0  0  0
  -22.8490  -28.9950   22.1030 C   0  0  0  0  0  0  0  0  0  0  0  0
  -21.5250  -28.7900   21.9980 N   0  0  0  0  0  0  0  0  0  0  0  0
  -23.5590  -28.3520   22.8790 O   0  0  0  0  0  0  0  0  0  0  0  0
  -20.9980  -29.3460   21.3400 H   0  0  0  0  0  0  0  0  0  0  0  0
  -18.2110  -27.4610   22.5440 C   0  0  0  0  0  0  0  0  0  0  0  0
  -20.7700  -27.7730   22.7360 C   0  0  0  0  0  3  0  0  0  0  0  0
  -20.8880  -26.4030   22.0280 C   0  0  0  0  0  2  0  0  0  0  0  0
  -19.7520  -26.1710   21.0350 C   0  0  0  0  0  2  0  0  0  0  0  0
  -18.4070  -26.1680   21.7710 C   0  0  0  0  0  2  0  0  0  0  0  0
  -19.3230  -28.2250   22.9840 C   0  0  0  0  0  0  0  0  0  0  0  0
  -19.0930  -29.4430   23.6600 C   0  0  0  0  0  3  0  0  0  0  0  0
  -17.7830  -29.9110   23.8760 C   0  0  0  0  0  3  0  0  0  0  0  0
  -16.6860  -29.1470   23.4460 C   0  0  0  0  0  3  0  0  0  0  0  0
  -16.9020  -27.9180   22.7930 C   0  0  0  0  0  3  0  0  0  0  0  0
  -25.8200  -32.1420   23.5390 C   0  0  0  0  0  3  0  0  0  0  0  0
  -26.3770  -31.3420   24.7810 C   0  0  1  0  0  0  0  0  0  0  0  0
  -25.3030  -30.9910   25.8370 C   0  0  0  0  0  1  0  0  0  0  0  0
  -27.0340  -30.0190   24.3310 C   0  0  0  0  0  1  0  0  0  0  0  0
  -27.4780  -32.1690   25.4870 C   0  0  0  0  0  1  0  0  0  0  0  0
  -25.4090  -33.4970   23.9390 N   0  0  0  0  0  0  0  0  0  0  0  0
  -25.7170  -34.6180   23.2740 C   0  0  0  0  0  0  0  0  0  0  0  0
  -26.4320  -34.6270   22.2680 O   0  0  0  0  0  0  0  0  0  0  0  0
  -24.7510  -33.5510   24.7030 H   0  0  0  0  0  0  0  0  0  0  0  0
  -23.9100  -36.3510   22.9820 C   0  0  0  0  0  1  0  0  0  0  0  0
  -25.1400  -35.9450   23.8080 C   0  0  0  0  0  3  0  0  0  0  0  0
  -27.1940  -36.8770   24.7830 C   0  0  0  0  0  1  0  0  0  0  0  0
  -26.1210  -37.0510   23.8100 N   0  0  0  0  0  0  0  0  0  0  0  0
  -25.6630  -37.9390   24.0000 H   0  0  0  0  0  0  0  0  0  0  0  0
  1  3  2  0
  2  1  1  0
  2 50  1  0
  4  2  1  0
  5  8  1  0
  5  1  1  0
  6  9  1  0
  6  7  1  0
  6  5  1  0
  7  9  1  0
  7  8  1  0
  8 20  1  0
  9 10  1  1
 11  9  1  0
 12 20  1  0
 12 18  1  0
 13 18  1  0
 14 15  1  0
 14 13  1  0
 16 15  1  0
 16 25  1  0
 16 17  1  0
 18 17  1  0
 19 12  2  0
 20 21  1  0
 22 23  2  0
 23 42  1  0
 24 23  1  0
 24 27  1  0
 25 26  1  0
 25 22  1  0
 26 24  2  0
 27 28  1  0
 28 29  2  0
 30 33  1  0
 30 29  1  0
 31 30  2  0
 32 31  1  0
 32 27  2  0
 33 34  1  0
 34 35  1  0
 35 36  2  0
 37 36  1  0
 37 41  1  0
 38 37  2  0
 39 34  2  0
 39 38  1  0
 40 39  1  0
 42 43  1  0
 43 46  1  0
 43 45  1  0
 44 42  2  0
 47 22  1  0
 47 48  1  0
 49 47  1  0
 51 52  1  0
 51 50  2  0
 53 64  2  0
 54 52  1  0
 54 59  1  0
 55 63  1  0
 55 65  1  0
 56 62  1  0
 56 58  1  0
 57 63  1  0
 58 57  1  0
 59 58  2  0
 60 61  1  0
 60 54  2  0
 61 56  2  0
 62 55  1  0
 63 53  1  0
 65 67  2  0
 66 65  1  0
 68 66  1  0
 69 78  2  0
 69 74  1  0
 70 66  1  0
 70 74  1  0
 71 70  1  0
 72 73  1  0
 72 71  1  0
 73 69  1  0
 74 75  2  0
 75 76  1  0
 77 76  2  0
 78 77  1  0
 79 53  1  0
 79 84  1  0
 79 80  1  0
 80 83  1  1
 80 81  1  0
 82 80  1  0
 84 87  1  0
 85 89  1  0
 85 84  1  0
 86 85  2  0
 89 88  1  0
 89 91  1  0
 91 92  1  0
 91 90  1  0
M  ISO  4  12 100  20 100  51 101  52 101
M  END
>  <TORSDO>  (15) 
F 19

>  <SCORE>  (15) 
-13.553

>  <name>  (15) 
14

>  <ligand_id>  (15) 
14

>  <original_smiles>  (15) 
[H]c1c([H])c([H])c2c(c1[H])C([H])([H])C([H])([H])C([H])([H])C2([H])N([H])C(=O)C1([H])N(C(=O)C([H])(N([H])C(=O)C([H])(N([H])C([H])([H])[H])C([H])([H])[H])C(C([H])([H])[H])(C([H])([H])[H])C([H])([H])[H])C([H])([H])c2c([H])c(OC([H])([H])C([H])([H])N([H])C(=O)C3([H])C([H])(N([H])C(=O)N4C([H])([H])C([H])([H])C([H])([H])C([H])(n5nc(-c6c([H])c([H])c(Oc7c([H])c([H])c(F)c([H])c7F)c([H])c6[H])c(C(=O)N([H])[H])c5N([H])[H])C4([H])[H])C4([H])C3([H])C4(C([H])([H])[H])C([H])([H])[H])c([H])c([H])c2C1([H])[H]

>  <smiles>  (15) 
[H]c1c([H])c([H])c2c(c1[H])C([H])([H])C([H])([H])C([H])([H])C2([H])N([H])C(=O)C1([H])N(C(=O)C([H])(N([H])C(=O)C([H])(N([H])C([H])([H])[H])C([H])([H])[H])C(C([H])([H])[H])(C([H])([H])[H])C([H])([H])[H])C([H])([H])c2c([H])c(OC([H])([H])C([H])([H])N([H])C(=O)C3([H])C([H])(N([H])C(=O)N4C([H])([H])C([H])([H])C([H])([H])C([H])(n5nc(-c6c([H])c([H])c(Oc7c([H])c([H])c(F)c([H])c7F)c([H])c6[H])c(C(=O)N([H])[H])c5N([H])[H])C4([H])[H])C4([H])C3([H])C4(C([H])([H])[H])C([H])([H])[H])c([H])c([H])c2C1([H])[H]

$$$$
16:0:0
     RDKit          3D

 86 96  0  0  1  0  0  0  0  0999 V2000
  -30.6610  -21.2770   20.4400 C   0  0  0  0  0  2  0  0  0  0  0  0
  -29.3310  -21.3330   21.2390 C   0  0  1  0  0  0  0  0  0  0  0  0
  -29.4840  -21.3500   19.4320 C   0  0  2  0  0  0  0  0  0  0  0  0
  -29.0610  -19.9720   20.2940 C   0  0  0  0  0  3  0  0  0  0  0  0
  -29.0600  -22.7200   20.3170 C   0  0  0  0  0  3  0  0  0  0  0  0
  -29.9590  -18.3410   20.3260 C   0  0  0  0  0  2  0  0  0  0  0  0
  -30.3630  -15.3900   20.2580 C   0  0  0  0  0  0  0  0  0  0  0  0
  -30.3680  -12.9330   19.3760 C   0  0  0  0  0  2  0  0  0  0  0  0
  -29.4560  -12.6890   18.1470 C   0  0  0  0  0  2  0  0  0  0  0  0
  -28.0130  -12.3920   18.5900 C   0  0  0  0  0  2  0  0  0  0  0  0
  -27.5440  -13.3540   19.7090 C   0  0  0  0  0  3  0  0  0  0  0  0
  -28.5890  -13.5360   20.8310 C   0  0  0  0  0  2  0  0  0  0  0  0
  -29.8020  -14.0750   20.1930 N   0  0  0  0  0  0  0  0  0  0  0  0
  -31.5860  -15.3760   20.0540 O   0  0  0  0  0  0  0  0  0  0  0  0
  -29.6110  -16.6860   20.3540 N   0  0  0  0  0  0  0  0  0  0  0  0
  -28.6220  -16.5140   20.4630 H   0  0  0  0  0  0  0  0  0  0  0  0
  -25.1660  -13.8790   20.4540 C   0  0  0  0  0  0  0  0  0  0  0  0
  -24.1150  -13.0890   20.8250 C   0  0  0  0  0  0  0  0  0  0  0  0
  -24.6030  -11.7450   20.8060 C   0  0  0  0  0  0  0  0  0  0  0  0
  -26.2230  -13.0180   20.2210 N   0  0  0  0  0  0  0  0  0  0  0  0
  -25.8960  -11.7290   20.5020 N   0  0  0  0  0  0  0  0  0  0  0  0
  -23.8920  -10.4740   21.0020 C   0  0  0  0  0  0  0  0  0  0  0  0
  -24.3300   -9.5210   21.9460 C   0  0  0  0  0  3  0  0  0  0  0  0
  -23.6160   -8.3160   22.1310 C   0  0  0  0  0  3  0  0  0  0  0  0
  -22.4500   -8.0580   21.3700 C   0  0  0  0  0  0  0  0  0  0  0  0
  -22.0330   -9.0020   20.4140 C   0  0  0  0  0  3  0  0  0  0  0  0
  -22.7480  -10.1960   20.2280 C   0  0  0  0  0  3  0  0  0  0  0  0
  -21.7080   -6.9050   21.4630 O   0  0  0  0  0  0  0  0  0  0  0  0
  -21.6580   -6.1740   22.6230 C   0  0  0  0  0  0  0  0  0  0  0  0
  -21.2060   -6.7320   23.8380 C   0  0  0  0  0  3  0  0  0  0  0  0
  -21.1040   -5.9250   24.9880 C   0  0  0  0  0  3  0  0  0  0  0  0
  -21.4450   -4.5610   24.9260 C   0  0  0  0  0  0  0  0  0  0  0  0
  -21.8900   -4.0020   23.7150 C   0  0  0  0  0  3  0  0  0  0  0  0
  -21.9930   -4.8060   22.5660 C   0  0  0  0  0  0  0  0  0  0  0  0
  -22.4030   -4.2570   21.3970 F   0  0  0  0  0  0  0  0  0  0  0  0
  -21.3410   -3.7830   26.0290 F   0  0  0  0  0  0  0  0  0  0  0  0
  -22.7100  -13.5480   21.0780 C   0  0  0  0  0  0  0  0  0  0  0  0
  -21.9870  -12.8560   21.9510 N   0  0  0  0  0  0  0  0  0  0  0  0
  -22.2610  -14.5580   20.5370 O   0  0  0  0  0  0  0  0  0  0  0  0
  -22.3640  -12.0400   22.4110 H   0  0  0  0  0  0  0  0  0  0  0  0
  -21.0440  -13.1460   22.1640 H   0  0  0  0  0  0  0  0  0  0  0  0
  -25.3070  -15.2510   20.2640 N   0  0  0  0  0  0  0  0  0  0  0  0
  -24.5250  -15.8890   20.3630 H   0  0  0  0  0  0  0  0  0  0  0  0
  -26.1380  -15.6980   19.9000 H   0  0  0  0  0  0  0  0  0  0  0  0
  -27.9540  -24.1710   20.2150 C   0  0  0  0  0  2  0  0  0  0  0  0
  -28.1800  -25.8280   20.3170 O   0  0  0  0  0  0  0  0  0  0  0  0
  -24.6680  -31.8900   23.2550 C   0  0  0  0  0  0  0  0  0  0  0  0
  -27.1780  -26.9480   20.2580 C   0  0  0  0  0  0  0  0  0  0  0  0
  -23.4640  -30.5000   21.6210 C   0  0  0  0  0  3  0  0  0  0  0  0
  -24.8980  -28.8720   20.2030 C   0  0  0  0  0  0  0  0  0  0  0  0
  -26.0340  -30.6780   21.4770 C   0  0  0  0  0  2  0  0  0  0  0  0
  -26.0910  -29.2630   20.8240 C   0  0  0  0  0  0  0  0  0  0  0  0
  -27.2250  -28.3230   20.8220 C   0  0  0  0  0  3  0  0  0  0  0  0
  -25.9540  -26.7180   19.5910 C   0  0  0  0  0  3  0  0  0  0  0  0
  -24.8570  -27.6210   19.5650 C   0  0  0  0  0  3  0  0  0  0  0  0
  -23.6890  -29.8080   20.2470 C   0  0  0  0  0  2  0  0  0  0  0  0
  -24.7440  -31.0500   22.1710 N   0  0  0  0  0  0  0  0  0  0  0  0
  -23.5800  -32.1910   23.7740 O   0  0  0  0  0  0  0  0  0  0  0  0
  -22.7570  -29.5160   22.5890 C   0  0  0  0  0  0  0  0  0  0  0  0
  -21.4250  -29.3620   22.4630 N   0  0  0  0  0  0  0  0  0  0  0  0
  -23.4150  -28.8880   23.4230 O   0  0  0  0  0  0  0  0  0  0  0  0
  -20.9480  -29.9180   21.7680 H   0  0  0  0  0  0  0  0  0  0  0  0
  -18.0350  -28.1690   22.9640 C   0  0  0  0  0  0  0  0  0  0  0  0
  -20.5940  -28.4330   23.2370 C   0  0  0  0  0  3  0  0  0  0  0  0
  -20.6950  -26.9970   22.6730 C   0  0  0  0  0  2  0  0  0  0  0  0
  -19.5960  -26.6690   21.6560 C   0  0  0  0  0  2  0  0  0  0  0  0
  -18.2130  -26.8170   22.2930 C   0  0  0  0  0  2  0  0  0  0  0  0
  -19.1520  -28.9350   23.3930 C   0  0  0  0  0  0  0  0  0  0  0  0
  -18.9290  -30.1970   23.9830 C   0  0  0  0  0  3  0  0  0  0  0  0
  -17.6230  -30.6960   24.1470 C   0  0  0  0  0  3  0  0  0  0  0  0
  -16.5200  -29.9280   23.7320 C   0  0  0  0  0  3  0  0  0  0  0  0
  -16.7270  -28.6670   23.1470 C   0  0  0  0  0  3  0  0  0  0  0  0
  -25.9420  -32.5240   23.8890 C   0  0  0  0  0  3  0  0  0  0  0  0
  -25.6310  -33.9250   24.2300 N   0  0  0  0  0  0  0  0  0  0  0  0
  -25.9420  -34.9880   23.4750 C   0  0  0  0  0  0  0  0  0  0  0  0
  -26.5810  -34.8920   22.4240 O   0  0  0  0  0  0  0  0  0  0  0  0
  -25.0580  -34.0720   25.0470 H   0  0  0  0  0  0  0  0  0  0  0  0
  -24.1880  -36.7770   23.2140 C   0  0  0  0  0  1  0  0  0  0  0  0
  -25.4710  -36.3750   23.9590 C   0  0  0  0  0  3  0  0  0  0  0  0
  -27.6390  -37.2770   24.6820 C   0  0  0  0  0  1  0  0  0  0  0  0
  -26.4900  -37.4360   23.7950 N   0  0  0  0  0  0  0  0  0  0  0  0
  -26.0870  -38.3530   23.9610 H   0  0  0  0  0  0  0  0  0  0  0  0
  -26.4440  -31.7550   25.1740 C   0  0  1  0  0  0  0  0  0  0  0  0
  -25.3420  -31.5320   26.2370 C   0  0  0  0  0  1  0  0  0  0  0  0
  -27.0180  -30.3700   24.8000 C   0  0  0  0  0  1  0  0  0  0  0  0
  -27.5970  -32.5430   25.8390 C   0  0  0  0  0  1  0  0  0  0  0  0
  2  1  1  1
  3  4  1  0
  3  5  1  0
  3  1  1  6
  3  2  1  0
  4  6  1  0
  4  2  1  0
  5 45  1  0
  5  2  1  0
  6 15  1  0
  7 15  1  0
  8 13  1  0
  9 10  1  0
  9  8  1  0
 11 10  1  0
 11 20  1  0
 11 12  1  0
 13  7  1  0
 13 12  1  0
 14  7  2  0
 15 16  1  0
 17 18  2  0
 18 37  1  0
 19 18  1  0
 19 22  1  0
 20 17  1  0
 20 21  1  0
 21 19  2  0
 22 23  1  0
 23 24  2  0
 25 28  1  0
 25 24  1  0
 26 25  2  0
 27 26  1  0
 27 22  2  0
 28 29  1  0
 29 30  1  0
 30 31  2  0
 32 31  1  0
 32 36  1  0
 33 32  2  0
 34 29  2  0
 34 33  1  0
 35 34  1  0
 37 38  1  0
 38 41  1  0
 38 40  1  0
 39 37  2  0
 42 43  1  0
 42 17  1  0
 44 42  1  0
 45 46  1  0
 47 58  2  0
 48 46  1  0
 48 53  1  0
 49 57  1  0
 49 59  1  0
 50 56  1  0
 50 52  1  0
 51 57  1  0
 52 51  1  0
 53 52  2  0
 54 48  2  0
 55 54  1  0
 55 50  2  0
 56 49  1  0
 57 47  1  0
 59 61  2  0
 60 59  1  0
 62 60  1  0
 63 72  2  0
 63 68  1  0
 64 60  1  0
 64 68  1  0
 65 64  1  0
 66 67  1  0
 66 65  1  0
 67 63  1  0
 68 69  2  0
 69 70  1  0
 71 70  2  0
 72 71  1  0
 73 47  1  0
 73 74  1  0
 73 83  1  0
 74 77  1  0
 75 79  1  0
 75 74  1  0
 76 75  2  0
 79 78  1  0
 81 79  1  0
 81 82  1  0
 81 80  1  0
 83 86  1  1
 83 84  1  0
 85 83  1  0
M  ISO  4   7 100  15 100  45 101  46 101
M  END
>  <TORSDO>  (16) 
F 18

>  <SCORE>  (16) 
-16.513

>  <name>  (16) 
16

>  <ligand_id>  (16) 
16

>  <original_smiles>  (16) 
[H]c1c([H])c([H])c2c(c1[H])C([H])([H])C([H])([H])C([H])([H])C2([H])N([H])C(=O)C1([H])N(C(=O)C([H])(N([H])C(=O)C([H])(N([H])C([H])([H])[H])C([H])([H])[H])C(C([H])([H])[H])(C([H])([H])[H])C([H])([H])[H])C([H])([H])c2c([H])c(OC([H])([H])C3([H])C4([H])C([H])([H])C3([H])C4([H])C([H])([H])N([H])C(=O)N3C([H])([H])C([H])([H])C([H])([H])C([H])(n4nc(-c5c([H])c([H])c(Oc6c([H])c([H])c(F)c([H])c6F)c([H])c5[H])c(C(=O)N([H])[H])c4N([H])[H])C3([H])[H])c([H])c([H])c2C1([H])[H]

>  <smiles>  (16) 
[H]c1c([H])c([H])c2c(c1[H])C([H])([H])C([H])([H])C([H])([H])C2([H])N([H])C(=O)C1([H])N(C(=O)C([H])(N([H])C(=O)C([H])(N([H])C([H])([H])[H])C([H])([H])[H])C(C([H])([H])[H])(C([H])([H])[H])C([H])([H])[H])C([H])([H])c2c([H])c(OC([H])([H])C3([H])C4([H])C([H])([H])C3([H])C4([H])C([H])([H])N([H])C(=O)N3C([H])([H])C([H])([H])C([H])([H])C([H])(n4nc(-c5c([H])c([H])c(Oc6c([H])c([H])c(F)c([H])c6F)c([H])c5[H])c(C(=O)N([H])[H])c4N([H])[H])C3([H])[H])c([H])c([H])c2C1([H])[H]

$$$$
17:0:0
     RDKit          3D

 88 97  0  0  1  0  0  0  0  0999 V2000
  -28.3220  -21.6070   17.9380 C   0  0  0  0  0  2  0  0  0  0  0  0
  -28.3910  -20.1680   18.5150 C   0  0  0  0  0  2  0  0  0  0  0  0
  -28.9770  -23.9700   19.1080 C   0  0  0  0  0  2  0  0  0  0  0  0
  -29.1950  -22.4770   18.8340 C   0  0  0  0  0  3  0  0  0  0  0  0
  -28.8750  -22.1020   20.2420 C   0  0  0  0  0  3  0  0  0  0  0  0
  -28.6530  -20.2170   20.0490 C   0  0  0  0  0  3  0  0  0  0  0  0
  -27.9770  -23.8240   20.2810 C   0  0  2  0  0  0  0  0  0  0  0  0
  -28.0180  -24.0570   21.8030 C   0  0  0  0  0  1  0  0  0  0  0  0
  -28.1000  -25.5760   20.2380 O   0  0  0  0  0  0  0  0  0  0  0  0
  -24.6410  -31.8390   23.1690 C   0  0  0  0  0  0  0  0  0  0  0  0
  -27.1250  -26.7670   20.2020 C   0  0  0  0  0  0  0  0  0  0  0  0
  -23.4500  -30.4380   21.5390 C   0  0  0  0  0  3  0  0  0  0  0  0
  -24.8880  -28.7960   20.1250 C   0  0  0  0  0  0  0  0  0  0  0  0
  -26.0310  -30.5800   21.4180 C   0  0  0  0  0  2  0  0  0  0  0  0
  -26.0840  -29.1530   20.7600 C   0  0  0  0  0  0  0  0  0  0  0  0
  -27.1930  -28.1640   20.7660 C   0  0  0  0  0  3  0  0  0  0  0  0
  -25.9000  -26.6070   19.5150 C   0  0  0  0  0  3  0  0  0  0  0  0
  -24.8330  -27.5530   19.4740 C   0  0  0  0  0  3  0  0  0  0  0  0
  -23.6900  -29.7550   20.1650 C   0  0  0  0  0  2  0  0  0  0  0  0
  -24.7290  -30.9870   22.0920 N   0  0  0  0  0  0  0  0  0  0  0  0
  -23.5490  -32.1410   23.6780 O   0  0  0  0  0  0  0  0  0  0  0  0
  -22.7410  -29.4560   22.5110 C   0  0  0  0  0  0  0  0  0  0  0  0
  -21.4050  -29.3130   22.4010 N   0  0  0  0  0  0  0  0  0  0  0  0
  -23.4000  -28.8220   23.3400 O   0  0  0  0  0  0  0  0  0  0  0  0
  -20.9250  -29.8820   21.7190 H   0  0  0  0  0  0  0  0  0  0  0  0
  -18.0080  -28.1370   22.9390 C   0  0  0  0  0  0  0  0  0  0  0  0
  -20.5750  -28.3840   23.1790 C   0  0  0  0  0  3  0  0  0  0  0  0
  -20.6590  -26.9490   22.6050 C   0  0  0  0  0  2  0  0  0  0  0  0
  -19.5460  -26.6380   21.5990 C   0  0  0  0  0  2  0  0  0  0  0  0
  -18.1690  -26.7910   22.2550 C   0  0  0  0  0  2  0  0  0  0  0  0
  -19.1370  -28.8930   23.3570 C   0  0  0  0  0  0  0  0  0  0  0  0
  -18.9330  -30.1520   23.9630 C   0  0  0  0  0  3  0  0  0  0  0  0
  -17.6340  -30.6570   24.1490 C   0  0  0  0  0  3  0  0  0  0  0  0
  -16.5190  -29.8990   23.7480 C   0  0  0  0  0  3  0  0  0  0  0  0
  -16.7060  -28.6410   23.1470 C   0  0  0  0  0  3  0  0  0  0  0  0
  -25.9060  -32.4930   23.8030 C   0  0  0  0  0  3  0  0  0  0  0  0
  -25.5790  -33.8910   24.1430 N   0  0  0  0  0  0  0  0  0  0  0  0
  -25.9040  -34.9640   23.4080 C   0  0  0  0  0  0  0  0  0  0  0  0
  -26.5680  -34.8820   22.3730 O   0  0  0  0  0  0  0  0  0  0  0  0
  -24.9880  -34.0290   24.9470 H   0  0  0  0  0  0  0  0  0  0  0  0
  -24.1650  -36.7670   23.1120 C   0  0  0  0  0  1  0  0  0  0  0  0
  -25.4180  -36.3470   23.8970 C   0  0  0  0  0  3  0  0  0  0  0  0
  -27.5560  -37.2320   24.7160 C   0  0  0  0  0  1  0  0  0  0  0  0
  -26.4420  -37.4100   23.7910 N   0  0  0  0  0  0  0  0  0  0  0  0
  -26.0320  -38.3230   23.9640 H   0  0  0  0  0  0  0  0  0  0  0  0
  -26.4120  -31.7330   25.0920 C   0  0  1  0  0  0  0  0  0  0  0  0
  -25.3090  -31.5030   26.1540 C   0  0  0  0  0  1  0  0  0  0  0  0
  -27.0000  -30.3500   24.7280 C   0  0  0  0  0  1  0  0  0  0  0  0
  -27.5590  -32.5360   25.7500 C   0  0  0  0  0  1  0  0  0  0  0  0
  -29.6890  -18.6450   20.3850 C   0  0  0  0  0  2  0  0  0  0  0  0
  -30.3210  -15.5780   20.3020 C   0  0  0  0  0  0  0  0  0  0  0  0
  -30.4400  -13.0490   19.5130 C   0  0  0  0  0  2  0  0  0  0  0  0
  -29.5490  -12.6660   18.3000 C   0  0  0  0  0  2  0  0  0  0  0  0
  -28.1150  -12.3410   18.7500 C   0  0  0  0  0  2  0  0  0  0  0  0
  -27.6100  -13.3410   19.8170 C   0  0  0  0  0  3  0  0  0  0  0  0
  -28.6390  -13.6300   20.9290 C   0  0  0  0  0  2  0  0  0  0  0  0
  -29.8140  -14.2200   20.2600 N   0  0  0  0  0  0  0  0  0  0  0  0
  -31.5580  -15.5520   20.1630 O   0  0  0  0  0  0  0  0  0  0  0  0
  -29.5250  -16.8980   20.3080 N   0  0  0  0  0  0  0  0  0  0  0  0
  -28.5450  -16.6570   20.3090 H   0  0  0  0  0  0  0  0  0  0  0  0
  -25.2480  -13.8600   20.5930 C   0  0  0  0  0  0  0  0  0  0  0  0
  -24.1960  -13.0720   20.9580 C   0  0  0  0  0  0  0  0  0  0  0  0
  -24.6780  -11.7250   20.9170 C   0  0  0  0  0  0  0  0  0  0  0  0
  -26.2960  -12.9970   20.3370 N   0  0  0  0  0  0  0  0  0  0  0  0
  -25.9690  -11.7070   20.6030 N   0  0  0  0  0  0  0  0  0  0  0  0
  -23.9600  -10.4550   21.0950 C   0  0  0  0  0  0  0  0  0  0  0  0
  -24.4010   -9.4750   22.0110 C   0  0  0  0  0  3  0  0  0  0  0  0
  -23.6760   -8.2750   22.1800 C   0  0  0  0  0  3  0  0  0  0  0  0
  -22.4970   -8.0470   21.4300 C   0  0  0  0  0  0  0  0  0  0  0  0
  -22.0770   -9.0160   20.5020 C   0  0  0  0  0  3  0  0  0  0  0  0
  -22.8020  -10.2050   20.3310 C   0  0  0  0  0  3  0  0  0  0  0  0
  -21.7430   -6.9010   21.5110 O   0  0  0  0  0  0  0  0  0  0  0  0
  -21.7080   -6.1390   22.6500 C   0  0  0  0  0  0  0  0  0  0  0  0
  -21.2920   -6.6730   23.8900 C   0  0  0  0  0  3  0  0  0  0  0  0
  -21.2050   -5.8370   25.0220 C   0  0  0  0  0  3  0  0  0  0  0  0
  -21.5230   -4.4710   24.9160 C   0  0  0  0  0  0  0  0  0  0  0  0
  -21.9320   -3.9360   23.6800 C   0  0  0  0  0  3  0  0  0  0  0  0
  -22.0200   -4.7690   22.5510 C   0  0  0  0  0  0  0  0  0  0  0  0
  -22.3930   -4.2430   21.3590 F   0  0  0  0  0  0  0  0  0  0  0  0
  -21.4330   -3.6660   26.0010 F   0  0  0  0  0  0  0  0  0  0  0  0
  -22.7930  -13.5340   21.2260 C   0  0  0  0  0  0  0  0  0  0  0  0
  -22.0690  -12.8310   22.0860 N   0  0  0  0  0  0  0  0  0  0  0  0
  -22.3510  -14.5580   20.7040 O   0  0  0  0  0  0  0  0  0  0  0  0
  -22.4390  -12.0020   22.5240 H   0  0  0  0  0  0  0  0  0  0  0  0
  -21.1310  -13.1280   22.3120 H   0  0  0  0  0  0  0  0  0  0  0  0
  -25.3950  -15.2350   20.4230 N   0  0  0  0  0  0  0  0  0  0  0  0
  -24.6190  -15.8780   20.5370 H   0  0  0  0  0  0  0  0  0  0  0  0
  -26.2260  -15.6820   20.0580 H   0  0  0  0  0  0  0  0  0  0  0  0
  1  2  1  0
  2  6  1  0
  3  7  1  0
  4  1  1  0
  4  3  1  0
  4  5  1  0
  5  7  1  0
  6  5  1  0
  6 50  1  0
  7  8  1  1
  9  7  1  0
 10 21  2  0
 10 36  1  0
 11  9  1  0
 11 16  1  0
 12 20  1  0
 12 22  1  0
 13 19  1  0
 13 15  1  0
 14 20  1  0
 15 16  2  0
 15 14  1  0
 17 11  2  0
 18 17  1  0
 18 13  2  0
 19 12  1  0
 20 10  1  0
 22 24  2  0
 23 22  1  0
 23 27  1  0
 25 23  1  0
 26 35  2  0
 26 31  1  0
 27 31  1  0
 28 27  1  0
 29 30  1  0
 29 28  1  0
 30 26  1  0
 31 32  2  0
 32 33  1  0
 34 33  2  0
 35 34  1  0
 36 37  1  0
 36 46  1  0
 37 40  1  0
 38 42  1  0
 38 37  1  0
 39 38  2  0
 41 42  1  0
 44 42  1  0
 44 45  1  0
 44 43  1  0
 46 49  1  1
 46 47  1  0
 48 46  1  0
 51 59  1  0
 52 57  1  0
 53 54  1  0
 53 52  1  0
 54 55  1  0
 55 64  1  0
 55 56  1  0
 57 51  1  0
 57 56  1  0
 58 51  2  0
 59 60  1  0
 59 50  1  0
 61 62  2  0
 62 81  1  0
 63 62  1  0
 63 66  1  0
 64 61  1  0
 64 65  1  0
 65 63  2  0
 66 67  1  0
 67 68  2  0
 69 72  1  0
 69 68  1  0
 70 69  2  0
 71 70  1  0
 71 66  2  0
 72 73  1  0
 73 74  1  0
 74 75  2  0
 76 75  1  0
 76 80  1  0
 77 76  2  0
 78 73  2  0
 78 77  1  0
 79 78  1  0
 81 82  1  0
 82 85  1  0
 82 84  1  0
 83 81  2  0
 86 87  1  0
 86 61  1  0
 88 86  1  0
M  ISO  4   7 101   9 101  51 100  59 100
M  END
>  <TORSDO>  (17) 
F 17

>  <SCORE>  (17) 
-16.560

>  <name>  (17) 
17

>  <ligand_id>  (17) 
17

>  <original_smiles>  (17) 
[H]c1c([H])c([H])c2c(c1[H])C([H])([H])C([H])([H])C([H])([H])C2([H])N([H])C(=O)C1([H])N(C(=O)C([H])(N([H])C(=O)C([H])(N([H])C([H])([H])[H])C([H])([H])[H])C(C([H])([H])[H])(C([H])([H])[H])C([H])([H])[H])C([H])([H])c2c([H])c(OC3(C([H])([H])[H])C([H])([H])C4([H])C([H])([H])C([H])([H])C([H])(C([H])([H])N([H])C(=O)N5C([H])([H])C([H])([H])C([H])([H])C([H])(n6nc(-c7c([H])c([H])c(Oc8c([H])c([H])c(F)c([H])c8F)c([H])c7[H])c(C(=O)N([H])[H])c6N([H])[H])C5([H])[H])C43[H])c([H])c([H])c2C1([H])[H]

>  <smiles>  (17) 
[H]c1c([H])c([H])c2c(c1[H])C([H])([H])C([H])([H])C([H])([H])C2([H])N([H])C(=O)C1([H])N(C(=O)C([H])(N([H])C(=O)C([H])(N([H])C([H])([H])[H])C([H])([H])[H])C(C([H])([H])[H])(C([H])([H])[H])C([H])([H])[H])C([H])([H])c2c([H])c(OC3(C([H])([H])[H])C([H])([H])C4([H])C([H])([H])C([H])([H])C([H])(C([H])([H])N([H])C(=O)N5C([H])([H])C([H])([H])C([H])([H])C([H])(n6nc(-c7c([H])c([H])c(Oc8c([H])c([H])c(F)c([H])c8F)c([H])c7[H])c(C(=O)N([H])[H])c6N([H])[H])C5([H])[H])C43[H])c([H])c([H])c2C1([H])[H]

$$$$
18:0:0
     RDKit          3D

 90 98  0  0  1  0  0  0  0  0999 V2000
  -27.7150  -19.6780   18.4710 C   0  0  0  0  0  2  0  0  0  0  0  0
  -28.4740  -20.7780   18.4820 C   0  0  0  0  0  3  0  0  0  0  0  0
  -27.6470  -19.0030   19.8280 C   0  0  0  0  0  2  0  0  0  0  0  0
  -28.9560  -19.4910   20.5050 C   0  0  0  0  0  3  0  0  0  0  0  0
  -28.9040  -21.7260   17.3780 C   0  0  0  0  0  1  0  0  0  0  0  0
  -28.9160  -21.0520   19.8710 N   0  0  1  0  0  4  0  0  0  0  0  0
  -28.0130  -21.0540   20.3190 H   0  0  0  0  0  0  0  0  0  0  0  0
  -30.5180  -15.3660   20.2350 C   0  0  0  0  0  0  0  0  0  0  0  0
  -30.4860  -12.9060   19.3780 C   0  0  0  0  0  2  0  0  0  0  0  0
  -29.5640  -12.6870   18.1530 C   0  0  0  0  0  2  0  0  0  0  0  0
  -28.1210  -12.4070   18.5990 C   0  0  0  0  0  2  0  0  0  0  0  0
  -27.6680  -13.3680   19.7250 C   0  0  0  0  0  3  0  0  0  0  0  0
  -28.7210  -13.5470   20.8420 C   0  0  0  0  0  2  0  0  0  0  0  0
  -29.9470  -14.0560   20.2020 N   0  0  0  0  0  0  0  0  0  0  0  0
  -31.7290  -15.3420   19.9740 O   0  0  0  0  0  0  0  0  0  0  0  0
  -30.0180  -18.1060   20.2320 C   0  0  0  0  0  0  0  0  0  0  0  0
  -29.7590  -16.6390   20.3820 N   0  0  0  0  0  0  0  0  0  0  0  0
  -31.1520  -18.4290   19.8720 O   0  0  0  0  0  0  0  0  0  0  0  0
  -28.8040  -16.4610   20.6460 H   0  0  0  0  0  0  0  0  0  0  0  0
  -25.3020  -13.9040   20.4980 C   0  0  0  0  0  0  0  0  0  0  0  0
  -24.2470  -13.1200   20.8720 C   0  0  0  0  0  0  0  0  0  0  0  0
  -24.7210  -11.7720   20.8310 C   0  0  0  0  0  0  0  0  0  0  0  0
  -26.3480  -13.0360   20.2430 N   0  0  0  0  0  0  0  0  0  0  0  0
  -26.0120  -11.7470   20.5130 N   0  0  0  0  0  0  0  0  0  0  0  0
  -24.0000  -10.5060   21.0210 C   0  0  0  0  0  0  0  0  0  0  0  0
  -24.4330   -9.5410   21.9560 C   0  0  0  0  0  3  0  0  0  0  0  0
  -23.7130   -8.3410   22.1370 C   0  0  0  0  0  3  0  0  0  0  0  0
  -22.5420   -8.0950   21.3810 C   0  0  0  0  0  0  0  0  0  0  0  0
  -22.1240   -9.0490   20.4350 C   0  0  0  0  0  3  0  0  0  0  0  0
  -22.8470  -10.2400   20.2540 C   0  0  0  0  0  3  0  0  0  0  0  0
  -21.7940   -6.9470   21.4680 O   0  0  0  0  0  0  0  0  0  0  0  0
  -21.7320   -6.2130   22.6260 C   0  0  0  0  0  0  0  0  0  0  0  0
  -21.2610   -6.7700   23.8340 C   0  0  0  0  0  3  0  0  0  0  0  0
  -21.1500   -5.9640   24.9850 C   0  0  0  0  0  3  0  0  0  0  0  0
  -21.4970   -4.6010   24.9260 C   0  0  0  0  0  0  0  0  0  0  0  0
  -21.9580   -4.0430   23.7210 C   0  0  0  0  0  3  0  0  0  0  0  0
  -22.0710   -4.8470   22.5730 C   0  0  0  0  0  0  0  0  0  0  0  0
  -22.4990   -4.3000   21.4090 F   0  0  0  0  0  0  0  0  0  0  0  0
  -21.3820   -3.8230   26.0280 F   0  0  0  0  0  0  0  0  0  0  0  0
  -22.8480  -13.5890   21.1500 C   0  0  0  0  0  0  0  0  0  0  0  0
  -22.1270  -12.8860   22.0140 N   0  0  0  0  0  0  0  0  0  0  0  0
  -22.4040  -14.6150   20.6360 O   0  0  0  0  0  0  0  0  0  0  0  0
  -22.4980  -12.0540   22.4500 H   0  0  0  0  0  0  0  0  0  0  0  0
  -21.1890  -13.1800   22.2440 H   0  0  0  0  0  0  0  0  0  0  0  0
  -25.4570  -15.2760   20.3190 N   0  0  0  0  0  0  0  0  0  0  0  0
  -24.6820  -15.9260   20.4120 H   0  0  0  0  0  0  0  0  0  0  0  0
  -26.2770  -15.6930   19.9020 H   0  0  0  0  0  0  0  0  0  0  0  0
  -28.9000  -22.6660   20.3950 C   0  0  0  0  0  2  0  0  0  0  0  0
  -28.0080  -24.2370   20.0610 C   0  0  0  0  0  2  0  0  0  0  0  0
  -28.2480  -25.8750   20.2300 O   0  0  0  0  0  0  0  0  0  0  0  0
  -24.6510  -31.8410   23.1790 C   0  0  0  0  0  0  0  0  0  0  0  0
  -27.2340  -26.9750   20.1550 C   0  0  0  0  0  0  0  0  0  0  0  0
  -23.4690  -30.4480   21.5290 C   0  0  0  0  0  3  0  0  0  0  0  0
  -24.9290  -28.8550   20.1040 C   0  0  0  0  0  0  0  0  0  0  0  0
  -26.0360  -30.6660   21.3950 C   0  0  0  0  0  2  0  0  0  0  0  0
  -26.1120  -29.2590   20.7340 C   0  0  0  0  0  0  0  0  0  0  0  0
  -27.2580  -28.3410   20.7310 C   0  0  0  0  0  3  0  0  0  0  0  0
  -26.0180  -26.7250   19.4770 C   0  0  0  0  0  3  0  0  0  0  0  0
  -24.9070  -27.6110   19.4540 C   0  0  0  0  0  3  0  0  0  0  0  0
  -23.7050  -29.7700   20.1510 C   0  0  0  0  0  2  0  0  0  0  0  0
  -24.7400  -31.0140   22.0880 N   0  0  0  0  0  0  0  0  0  0  0  0
  -23.5580  -32.1250   23.6960 O   0  0  0  0  0  0  0  0  0  0  0  0
  -22.7710  -29.4470   22.4880 C   0  0  0  0  0  0  0  0  0  0  0  0
  -21.4400  -29.2880   22.3630 N   0  0  0  0  0  0  0  0  0  0  0  0
  -23.4350  -28.8130   23.3110 O   0  0  0  0  0  0  0  0  0  0  0  0
  -20.9580  -29.8510   21.6770 H   0  0  0  0  0  0  0  0  0  0  0  0
  -18.0510  -28.0900   22.8760 C   0  0  0  0  0  0  0  0  0  0  0  0
  -20.6140  -28.3440   23.1260 C   0  0  0  0  0  3  0  0  0  0  0  0
  -20.7060  -26.9180   22.5340 C   0  0  0  0  0  2  0  0  0  0  0  0
  -19.5970  -26.6130   21.5220 C   0  0  0  0  0  2  0  0  0  0  0  0
  -18.2190  -26.7510   22.1750 C   0  0  0  0  0  2  0  0  0  0  0  0
  -19.1740  -28.8440   23.3070 C   0  0  0  0  0  0  0  0  0  0  0  0
  -18.9600  -30.0960   23.9240 C   0  0  0  0  0  3  0  0  0  0  0  0
  -17.6570  -30.5950   24.1090 C   0  0  0  0  0  3  0  0  0  0  0  0
  -16.5490  -29.8370   23.6920 C   0  0  0  0  0  3  0  0  0  0  0  0
  -16.7470  -28.5860   23.0820 C   0  0  0  0  0  3  0  0  0  0  0  0
  -25.9150  -32.4850   23.8220 C   0  0  0  0  0  3  0  0  0  0  0  0
  -25.5950  -33.8870   24.1470 N   0  0  0  0  0  0  0  0  0  0  0  0
  -25.9460  -34.9470   23.4050 C   0  0  0  0  0  0  0  0  0  0  0  0
  -26.6340  -34.8470   22.3870 O   0  0  0  0  0  0  0  0  0  0  0  0
  -24.9840  -34.0370   24.9360 H   0  0  0  0  0  0  0  0  0  0  0  0
  -24.2410  -36.7640   23.0330 C   0  0  0  0  0  1  0  0  0  0  0  0
  -25.4610  -36.3380   23.8670 C   0  0  0  0  0  3  0  0  0  0  0  0
  -27.5780  -37.2060   24.7590 C   0  0  0  0  0  1  0  0  0  0  0  0
  -26.5030  -37.3850   23.7850 N   0  0  0  0  0  0  0  0  0  0  0  0
  -26.1020  -38.3080   23.9250 H   0  0  0  0  0  0  0  0  0  0  0  0
  -26.4040  -31.7270   25.1190 C   0  0  1  0  0  0  0  0  0  0  0  0
  -25.2900  -31.5060   26.1710 C   0  0  0  0  0  1  0  0  0  0  0  0
  -26.9890  -30.3420   24.7630 C   0  0  0  0  0  1  0  0  0  0  0  0
  -27.5460  -32.5250   25.7920 C   0  0  0  0  0  1  0  0  0  0  0  0
  1  2  1  0
  1  3  1  0
  2  5  1  0
  2  6  1  0
  3  4  1  0
  4 16  1  0
  6  7  1  1
  6 48  1  0
  6  4  1  0
  8 17  1  0
  9 14  1  0
 10 11  1  0
 10  9  1  0
 12 11  1  0
 12 23  1  0
 12 13  1  0
 14  8  1  0
 14 13  1  0
 15  8  2  0
 16 17  1  0
 17 19  1  0
 18 16  2  0
 20 21  2  0
 21 40  1  0
 22 21  1  0
 22 25  1  0
 23 20  1  0
 23 24  1  0
 24 22  2  0
 25 26  1  0
 26 27  2  0
 28 31  1  0
 28 27  1  0
 29 28  2  0
 30 29  1  0
 30 25  2  0
 31 32  1  0
 32 33  1  0
 33 34  2  0
 35 34  1  0
 35 39  1  0
 36 35  2  0
 37 32  2  0
 37 36  1  0
 38 37  1  0
 40 41  1  0
 41 44  1  0
 41 43  1  0
 42 40  2  0
 45 46  1  0
 45 20  1  0
 47 45  1  0
 49 50  1  0
 49 48  1  0
 51 62  2  0
 52 50  1  0
 52 57  1  0
 53 61  1  0
 53 63  1  0
 54 60  1  0
 54 56  1  0
 55 61  1  0
 56 55  1  0
 57 56  2  0
 58 52  2  0
 59 58  1  0
 59 54  2  0
 60 53  1  0
 61 51  1  0
 63 65  2  0
 64 63  1  0
 66 64  1  0
 67 76  2  0
 67 72  1  0
 68 64  1  0
 68 72  1  0
 69 68  1  0
 70 71  1  0
 70 69  1  0
 71 67  1  0
 72 73  2  0
 73 74  1  0
 75 74  2  0
 76 75  1  0
 77 51  1  0
 77 78  1  0
 77 87  1  0
 78 81  1  0
 79 83  1  0
 79 78  1  0
 80 79  2  0
 83 82  1  0
 85 83  1  0
 85 86  1  0
 85 84  1  0
 87 90  1  1
 87 88  1  0
 89 87  1  0
M  ISO  4   8 100  17 100  49 101  50 101
M  END
>  <TORSDO>  (18) 
F 18

>  <SCORE>  (18) 
-16.824

>  <name>  (18) 
18

>  <ligand_id>  (18) 
18

>  <original_smiles>  (18) 
[H]C1=C(C([H])([H])[H])[N+]([H])(C([H])([H])C([H])([H])Oc2c([H])c([H])c3c(c2[H])C([H])([H])N(C(=O)C([H])(N([H])C(=O)C([H])(N([H])C([H])([H])[H])C([H])([H])[H])C(C([H])([H])[H])(C([H])([H])[H])C([H])([H])[H])C([H])(C(=O)N([H])C2([H])c4c([H])c([H])c([H])c([H])c4C([H])([H])C([H])([H])C2([H])[H])C3([H])[H])C([H])(C(=O)N([H])C(=O)N2C([H])([H])C([H])([H])C([H])([H])C([H])(n3nc(-c4c([H])c([H])c(Oc5c([H])c([H])c(F)c([H])c5F)c([H])c4[H])c(C(=O)N([H])[H])c3N([H])[H])C2([H])[H])C1([H])[H]

>  <smiles>  (18) 
[H]C1=C(C([H])([H])[H])[N+]([H])(C([H])([H])C([H])([H])Oc2c([H])c([H])c3c(c2[H])C([H])([H])N(C(=O)C([H])(N([H])C(=O)C([H])(N([H])C([H])([H])[H])C([H])([H])[H])C(C([H])([H])[H])(C([H])([H])[H])C([H])([H])[H])C([H])(C(=O)N([H])C2([H])c4c([H])c([H])c([H])c([H])c4C([H])([H])C([H])([H])C2([H])[H])C3([H])[H])C([H])(C(=O)N([H])C(=O)N2C([H])([H])C([H])([H])C([H])([H])C([H])(n3nc(-c4c([H])c([H])c(Oc5c([H])c([H])c(F)c([H])c5F)c([H])c4[H])c(C(=O)N([H])[H])c3N([H])[H])C2([H])[H])C1([H])[H]

$$$$
19:0:0
     RDKit          3D

 89 97  0  0  1  0  0  0  0  0999 V2000
  -27.9340  -21.7370   21.4110 C   0  0  0  0  0  2  0  0  0  0  0  0
  -27.5700  -23.2280   21.1500 C   0  0  0  0  0  2  0  0  0  0  0  0
  -29.3450  -22.6050   19.6520 C   0  0  0  0  0  2  0  0  0  0  0  0
  -28.7350  -21.2390   20.1890 C   0  0  0  0  0  3  0  0  0  0  0  0
  -28.7780  -23.8620   20.4370 C   0  0  0  0  0  3  0  0  0  0  0  0
  -29.7140  -20.0130   20.4820 C   0  0  0  0  0  0  0  0  0  0  0  0
  -30.8880  -20.2440   20.7810 O   0  0  0  0  0  0  0  0  0  0  0  0
  -29.2220  -18.5020   20.4240 C   0  0  0  0  0  3  0  0  0  0  0  0
  -30.3300  -17.3350   20.4690 C   0  0  0  0  0  3  0  0  0  0  0  0
  -30.6610  -14.7660   20.3110 C   0  0  0  0  0  0  0  0  0  0  0  0
  -30.4390  -12.5260   19.2540 C   0  0  0  0  0  2  0  0  0  0  0  0
  -29.4840  -12.6250   18.0420 C   0  0  0  0  0  2  0  0  0  0  0  0
  -28.0230  -12.4470   18.4930 C   0  0  0  0  0  2  0  0  0  0  0  0
  -27.6630  -13.3290   19.7150 C   0  0  0  0  0  3  0  0  0  0  0  0
  -28.7260  -13.2130   20.8280 C   0  0  0  0  0  2  0  0  0  0  0  0
  -30.0240  -13.5540   20.2320 N   0  0  0  0  0  0  0  0  0  0  0  0
  -31.8380  -14.8830   19.9580 O   0  0  0  0  0  0  0  0  0  0  0  0
  -29.8970  -15.8840   20.5710 N   0  0  0  0  0  0  0  0  0  0  0  0
  -28.9350  -15.7120   20.8240 H   0  0  0  0  0  0  0  0  0  0  0  0
  -25.2780  -13.9190   20.4580 C   0  0  0  0  0  0  0  0  0  0  0  0
  -24.2160  -13.1420   20.8350 C   0  0  0  0  0  0  0  0  0  0  0  0
  -24.6830  -11.7920   20.7970 C   0  0  0  0  0  0  0  0  0  0  0  0
  -26.3210  -13.0420   20.2130 N   0  0  0  0  0  0  0  0  0  0  0  0
  -25.9700  -11.7570   20.4800 N   0  0  0  0  0  0  0  0  0  0  0  0
  -23.9630  -10.5260   20.9890 C   0  0  0  0  0  0  0  0  0  0  0  0
  -24.4030   -9.5650   21.9240 C   0  0  0  0  0  3  0  0  0  0  0  0
  -23.6870   -8.3610   22.1040 C   0  0  0  0  0  3  0  0  0  0  0  0
  -22.5160   -8.1130   21.3480 C   0  0  0  0  0  0  0  0  0  0  0  0
  -22.0950   -9.0660   20.4020 C   0  0  0  0  0  3  0  0  0  0  0  0
  -22.8120  -10.2600   20.2210 C   0  0  0  0  0  3  0  0  0  0  0  0
  -21.7690   -6.9640   21.4380 O   0  0  0  0  0  0  0  0  0  0  0  0
  -21.7150   -6.2280   22.5930 C   0  0  0  0  0  0  0  0  0  0  0  0
  -21.2650   -6.7840   23.8110 C   0  0  0  0  0  3  0  0  0  0  0  0
  -21.1620   -5.9750   24.9600 C   0  0  0  0  0  3  0  0  0  0  0  0
  -21.4980   -4.6090   24.8910 C   0  0  0  0  0  0  0  0  0  0  0  0
  -21.9420   -4.0530   23.6790 C   0  0  0  0  0  3  0  0  0  0  0  0
  -22.0480   -4.8610   22.5330 C   0  0  0  0  0  0  0  0  0  0  0  0
  -22.4570   -4.3140   21.3620 F   0  0  0  0  0  0  0  0  0  0  0  0
  -21.3910   -3.8280   25.9930 F   0  0  0  0  0  0  0  0  0  0  0  0
  -22.8190  -13.6120   21.1170 C   0  0  0  0  0  0  0  0  0  0  0  0
  -22.0980  -12.9090   21.9820 N   0  0  0  0  0  0  0  0  0  0  0  0
  -22.3750  -14.6390   20.6050 O   0  0  0  0  0  0  0  0  0  0  0  0
  -22.4710  -12.0770   22.4160 H   0  0  0  0  0  0  0  0  0  0  0  0
  -21.1600  -13.2040   22.2140 H   0  0  0  0  0  0  0  0  0  0  0  0
  -25.4420  -15.2900   20.2790 N   0  0  0  0  0  0  0  0  0  0  0  0
  -24.6770  -15.9480   20.3830 H   0  0  0  0  0  0  0  0  0  0  0  0
  -26.2840  -15.7150   19.9120 H   0  0  0  0  0  0  0  0  0  0  0  0
  -28.5210  -25.2170   19.6080 C   0  0  0  0  0  2  0  0  0  0  0  0
  -28.3990  -26.5500   20.2660 O   0  0  0  0  0  0  0  0  0  0  0  0
  -24.6210  -31.9460   23.2380 C   0  0  0  0  0  0  0  0  0  0  0  0
  -27.2550  -27.3690   20.1930 C   0  0  0  0  0  0  0  0  0  0  0  0
  -23.4260  -30.5350   21.6040 C   0  0  0  0  0  3  0  0  0  0  0  0
  -24.8810  -28.9820   20.1820 C   0  0  0  0  0  0  0  0  0  0  0  0
  -25.9640  -30.8610   21.4170 C   0  0  0  0  0  2  0  0  0  0  0  0
  -26.0480  -29.4760   20.7780 C   0  0  0  0  0  0  0  0  0  0  0  0
  -27.2330  -28.6800   20.7740 C   0  0  0  0  0  3  0  0  0  0  0  0
  -26.0550  -26.9280   19.5880 C   0  0  0  0  0  3  0  0  0  0  0  0
  -24.8870  -27.7150   19.5810 C   0  0  0  0  0  3  0  0  0  0  0  0
  -23.6450  -29.8550   20.2250 C   0  0  0  0  0  2  0  0  0  0  0  0
  -24.6900  -31.1320   22.1430 N   0  0  0  0  0  0  0  0  0  0  0  0
  -23.5360  -32.2250   23.7660 O   0  0  0  0  0  0  0  0  0  0  0  0
  -22.7680  -29.5200   22.5670 C   0  0  0  0  0  0  0  0  0  0  0  0
  -21.4420  -29.3420   22.4410 N   0  0  0  0  0  0  0  0  0  0  0  0
  -23.4480  -28.8970   23.3870 O   0  0  0  0  0  0  0  0  0  0  0  0
  -20.9560  -29.8990   21.7520 H   0  0  0  0  0  0  0  0  0  0  0  0
  -18.0610  -28.1560   22.9490 C   0  0  0  0  0  0  0  0  0  0  0  0
  -20.6210  -28.4080   23.2110 C   0  0  0  0  0  3  0  0  0  0  0  0
  -20.7180  -26.9770   22.6320 C   0  0  0  0  0  2  0  0  0  0  0  0
  -19.6100  -26.6590   21.6230 C   0  0  0  0  0  2  0  0  0  0  0  0
  -18.2300  -26.8070   22.2700 C   0  0  0  0  0  2  0  0  0  0  0  0
  -19.1820  -28.9150   23.3730 C   0  0  0  0  0  0  0  0  0  0  0  0
  -18.9690  -30.1780   23.9660 C   0  0  0  0  0  3  0  0  0  0  0  0
  -17.6660  -30.6810   24.1420 C   0  0  0  0  0  3  0  0  0  0  0  0
  -16.5580  -29.9200   23.7310 C   0  0  0  0  0  3  0  0  0  0  0  0
  -16.7570  -28.6610   23.1370 C   0  0  0  0  0  3  0  0  0  0  0  0
  -25.9010  -32.5890   23.8600 C   0  0  0  0  0  3  0  0  0  0  0  0
  -26.4090  -31.8310   25.1480 C   0  0  1  0  0  0  0  0  0  0  0  0
  -25.3090  -31.5980   26.2110 C   0  0  0  0  0  1  0  0  0  0  0  0
  -27.0000  -30.4540   24.7680 C   0  0  0  0  0  1  0  0  0  0  0  0
  -27.5520  -32.6370   25.8110 C   0  0  0  0  0  1  0  0  0  0  0  0
  -25.5840  -33.9880   24.1800 N   0  0  0  0  0  0  0  0  0  0  0  0
  -25.9150  -35.0380   23.4160 C   0  0  0  0  0  0  0  0  0  0  0  0
  -26.5920  -34.9310   22.3900 O   0  0  0  0  0  0  0  0  0  0  0  0
  -24.9860  -34.1430   24.9770 H   0  0  0  0  0  0  0  0  0  0  0  0
  -24.1860  -36.8300   23.0450 C   0  0  0  0  0  1  0  0  0  0  0  0
  -25.4210  -36.4270   23.8650 C   0  0  0  0  0  3  0  0  0  0  0  0
  -27.5460  -37.3170   24.7140 C   0  0  0  0  0  1  0  0  0  0  0  0
  -26.4530  -37.4820   23.7590 N   0  0  0  0  0  0  0  0  0  0  0  0
  -26.0420  -38.4000   23.9110 H   0  0  0  0  0  0  0  0  0  0  0  0
  2  1  1  0
  3  4  1  0
  3  5  1  0
  4  6  1  0
  4  1  1  0
  5 48  1  0
  5  2  1  0
  6  7  2  0
  8  9  2  0
  8  6  1  0
  9 18  1  0
 10 18  1  0
 11 16  1  0
 12 13  1  0
 12 11  1  0
 14 13  1  0
 14 23  1  0
 14 15  1  0
 16 10  1  0
 16 15  1  0
 17 10  2  0
 18 19  1  0
 20 21  2  0
 21 40  1  0
 22 21  1  0
 22 25  1  0
 23 20  1  0
 23 24  1  0
 24 22  2  0
 25 26  1  0
 26 27  2  0
 28 31  1  0
 28 27  1  0
 29 28  2  0
 30 29  1  0
 30 25  2  0
 31 32  1  0
 32 33  1  0
 33 34  2  0
 35 34  1  0
 35 39  1  0
 36 35  2  0
 37 32  2  0
 37 36  1  0
 38 37  1  0
 40 41  1  0
 41 44  1  0
 41 43  1  0
 42 40  2  0
 45 46  1  0
 45 20  1  0
 47 45  1  0
 48 49  1  0
 50 61  2  0
 51 49  1  0
 51 56  1  0
 52 60  1  0
 52 62  1  0
 53 59  1  0
 53 55  1  0
 54 60  1  0
 55 54  1  0
 56 55  2  0
 57 51  2  0
 58 57  1  0
 58 53  2  0
 59 52  1  0
 60 50  1  0
 62 64  2  0
 63 62  1  0
 65 63  1  0
 66 75  2  0
 66 71  1  0
 67 63  1  0
 67 71  1  0
 68 67  1  0
 69 70  1  0
 69 68  1  0
 70 66  1  0
 71 72  2  0
 72 73  1  0
 74 73  2  0
 75 74  1  0
 76 50  1  0
 76 81  1  0
 76 77  1  0
 77 80  1  1
 77 78  1  0
 79 77  1  0
 81 84  1  0
 82 86  1  0
 82 81  1  0
 83 82  2  0
 86 85  1  0
 88 86  1  0
 88 89  1  0
 88 87  1  0
M  ISO  4  10 100  18 100  48 101  49 101
M  END
>  <TORSDO>  (19) 
F 20

>  <SCORE>  (19) 
-13.862

>  <name>  (19) 
19

>  <ligand_id>  (19) 
19

>  <original_smiles>  (19) 
[H]c1c([H])c([H])c2c(c1[H])C([H])([H])C([H])([H])C([H])([H])C2([H])N([H])C(=O)C1([H])N(C(=O)C([H])(N([H])C(=O)C([H])(N([H])C([H])([H])[H])C([H])([H])[H])C(C([H])([H])[H])(C([H])([H])[H])C([H])([H])[H])C([H])([H])c2c([H])c(OC([H])([H])C3([H])C([H])([H])C([H])([H])C([H])(C(=O)C([H])([H])C([H])([H])N([H])C(=O)N4C([H])([H])C([H])([H])C([H])([H])C([H])(n5nc(-c6c([H])c([H])c(Oc7c([H])c([H])c(F)c([H])c7F)c([H])c6[H])c(C(=O)N([H])[H])c5N([H])[H])C4([H])[H])C3([H])[H])c([H])c([H])c2C1([H])[H]

>  <smiles>  (19) 
[H]c1c([H])c([H])c2c(c1[H])C([H])([H])C([H])([H])C([H])([H])C2([H])N([H])C(=O)C1([H])N(C(=O)C([H])(N([H])C(=O)C([H])(N([H])C([H])([H])[H])C([H])([H])[H])C(C([H])([H])[H])(C([H])([H])[H])C([H])([H])[H])C([H])([H])c2c([H])c(OC([H])([H])C3([H])C([H])([H])C([H])([H])C([H])(C(=O)C([H])([H])C([H])([H])N([H])C(=O)N4C([H])([H])C([H])([H])C([H])([H])C([H])(n5nc(-c6c([H])c([H])c(Oc7c([H])c([H])c(F)c([H])c7F)c([H])c6[H])c(C(=O)N([H])[H])c5N([H])[H])C4([H])[H])C3([H])[H])c([H])c([H])c2C1([H])[H]

$$$$
20:0:0
     RDKit          3D

 87 96  0  0  1  0  0  0  0  0999 V2000
  -30.4010  -20.7100   19.6370 C   0  0  0  0  0  2  0  0  0  0  0  0
  -28.8460  -18.7360   21.3230 C   0  0  0  0  0  2  0  0  0  0  0  0
  -29.7070  -19.2800   19.5010 C   0  0  0  0  0  3  0  0  0  0  0  0
  -28.6010  -19.9870   20.3500 C   0  0  0  0  0  3  0  0  0  0  0  0
  -29.2600  -21.5200   20.3960 C   0  0  0  0  0  3  0  0  0  0  0  0
  -29.9500  -17.9680   20.4790 C   0  0  0  0  0  3  0  0  0  0  0  0
  -30.4530  -15.1750   20.0030 C   0  0  0  0  0  0  0  0  0  0  0  0
  -30.3320  -12.8140   19.0020 C   0  0  0  0  0  2  0  0  0  0  0  0
  -29.3340  -12.7310   17.8230 C   0  0  0  0  0  2  0  0  0  0  0  0
  -27.9020  -12.4770   18.3320 C   0  0  0  0  0  2  0  0  0  0  0  0
  -27.5410  -13.3790   19.5410 C   0  0  0  0  0  3  0  0  0  0  0  0
  -28.6570  -13.4170   20.6040 C   0  0  0  0  0  2  0  0  0  0  0  0
  -29.8660  -13.8990   19.9220 N   0  0  0  0  0  0  0  0  0  0  0  0
  -31.6630  -15.2130   19.7440 O   0  0  0  0  0  0  0  0  0  0  0  0
  -29.6750  -16.3910   20.1760 N   0  0  0  0  0  0  0  0  0  0  0  0
  -28.6930  -16.1670   20.2310 H   0  0  0  0  0  0  0  0  0  0  0  0
  -25.2020  -13.9160   20.4130 C   0  0  0  0  0  0  0  0  0  0  0  0
  -24.1670  -13.1260   20.8280 C   0  0  0  0  0  0  0  0  0  0  0  0
  -24.6440  -11.7800   20.7610 C   0  0  0  0  0  0  0  0  0  0  0  0
  -26.2400  -13.0530   20.1100 N   0  0  0  0  0  0  0  0  0  0  0  0
  -25.9190  -11.7620   20.3880 N   0  0  0  0  0  0  0  0  0  0  0  0
  -23.9400  -10.5090   20.9710 C   0  0  0  0  0  0  0  0  0  0  0  0
  -24.4070   -9.5500   21.8960 C   0  0  0  0  0  3  0  0  0  0  0  0
  -23.7000   -8.3440   22.0960 C   0  0  0  0  0  3  0  0  0  0  0  0
  -22.5100   -8.0900   21.3710 C   0  0  0  0  0  0  0  0  0  0  0  0
  -22.0620   -9.0390   20.4360 C   0  0  0  0  0  3  0  0  0  0  0  0
  -22.7700  -10.2350   20.2340 C   0  0  0  0  0  3  0  0  0  0  0  0
  -21.7710   -6.9370   21.4820 O   0  0  0  0  0  0  0  0  0  0  0  0
  -21.7410   -6.2100   22.6440 C   0  0  0  0  0  0  0  0  0  0  0  0
  -21.2950   -6.7710   23.8620 C   0  0  0  0  0  3  0  0  0  0  0  0
  -21.2130   -5.9690   25.0170 C   0  0  0  0  0  3  0  0  0  0  0  0
  -21.5660   -4.6070   24.9570 C   0  0  0  0  0  0  0  0  0  0  0  0
  -22.0060   -4.0460   23.7450 C   0  0  0  0  0  3  0  0  0  0  0  0
  -22.0890   -4.8450   22.5920 C   0  0  0  0  0  0  0  0  0  0  0  0
  -22.4930   -4.2950   21.4220 F   0  0  0  0  0  0  0  0  0  0  0  0
  -21.4810   -3.8350   26.0660 F   0  0  0  0  0  0  0  0  0  0  0  0
  -22.7790  -13.5860   21.1660 C   0  0  0  0  0  0  0  0  0  0  0  0
  -22.0960  -12.8750   22.0570 N   0  0  0  0  0  0  0  0  0  0  0  0
  -22.3100  -14.6130   20.6760 O   0  0  0  0  0  0  0  0  0  0  0  0
  -22.4900  -12.0450   22.4760 H   0  0  0  0  0  0  0  0  0  0  0  0
  -21.1660  -13.1660   22.3250 H   0  0  0  0  0  0  0  0  0  0  0  0
  -25.3390  -15.2900   20.2390 N   0  0  0  0  0  0  0  0  0  0  0  0
  -24.5630  -15.9280   20.3860 H   0  0  0  0  0  0  0  0  0  0  0  0
  -26.1420  -15.7400   19.8210 H   0  0  0  0  0  0  0  0  0  0  0  0
  -28.7840  -23.0990   19.7940 C   0  0  0  0  0  2  0  0  0  0  0  0
  -28.2350  -24.5500   20.5910 C   0  0  0  0  0  2  0  0  0  0  0  0
  -28.3750  -26.1110   20.2400 O   0  0  0  0  0  0  0  0  0  0  0  0
  -24.6690  -31.8820   23.2300 C   0  0  0  0  0  0  0  0  0  0  0  0
  -27.3090  -27.1120   20.2460 C   0  0  0  0  0  0  0  0  0  0  0  0
  -23.5010  -30.4750   21.5790 C   0  0  0  0  0  3  0  0  0  0  0  0
  -24.9760  -28.8940   20.1770 C   0  0  0  0  0  0  0  0  0  0  0  0
  -26.0600  -30.7400   21.4460 C   0  0  0  0  0  2  0  0  0  0  0  0
  -26.1510  -29.3370   20.7980 C   0  0  0  0  0  0  0  0  0  0  0  0
  -27.3190  -28.4690   20.8030 C   0  0  0  0  0  3  0  0  0  0  0  0
  -26.1020  -26.7850   19.5930 C   0  0  0  0  0  3  0  0  0  0  0  0
  -24.9710  -27.6340   19.5550 C   0  0  0  0  0  3  0  0  0  0  0  0
  -23.7460  -29.7930   20.2060 C   0  0  0  0  0  2  0  0  0  0  0  0
  -24.7640  -31.0570   22.1390 N   0  0  0  0  0  0  0  0  0  0  0  0
  -23.5740  -32.1590   23.7430 O   0  0  0  0  0  0  0  0  0  0  0  0
  -22.8130  -29.4690   22.5370 C   0  0  0  0  0  0  0  0  0  0  0  0
  -21.4850  -29.3010   22.4070 N   0  0  0  0  0  0  0  0  0  0  0  0
  -23.4810  -28.8400   23.3620 O   0  0  0  0  0  0  0  0  0  0  0  0
  -21.0020  -29.8590   21.7170 H   0  0  0  0  0  0  0  0  0  0  0  0
  -18.1010  -28.0990   22.9070 C   0  0  0  0  0  0  0  0  0  0  0  0
  -20.6620  -28.3590   23.1710 C   0  0  0  0  0  3  0  0  0  0  0  0
  -20.7600  -26.9310   22.5840 C   0  0  0  0  0  2  0  0  0  0  0  0
  -19.6570  -26.6180   21.5690 C   0  0  0  0  0  2  0  0  0  0  0  0
  -18.2760  -26.7570   22.2160 C   0  0  0  0  0  2  0  0  0  0  0  0
  -19.2210  -28.8580   23.3400 C   0  0  0  0  0  0  0  0  0  0  0  0
  -19.0010  -30.1130   23.9490 C   0  0  0  0  0  3  0  0  0  0  0  0
  -17.6970  -30.6100   24.1260 C   0  0  0  0  0  3  0  0  0  0  0  0
  -16.5920  -29.8490   23.7060 C   0  0  0  0  0  3  0  0  0  0  0  0
  -16.7950  -28.5950   23.1030 C   0  0  0  0  0  3  0  0  0  0  0  0
  -25.9320  -32.5320   23.8730 C   0  0  0  0  0  3  0  0  0  0  0  0
  -25.6030  -33.9310   24.1970 N   0  0  0  0  0  0  0  0  0  0  0  0
  -25.9300  -34.9900   23.4440 C   0  0  0  0  0  0  0  0  0  0  0  0
  -26.6050  -34.8930   22.4160 O   0  0  0  0  0  0  0  0  0  0  0  0
  -25.0020  -34.0780   24.9950 H   0  0  0  0  0  0  0  0  0  0  0  0
  -24.1890  -36.7750   23.0930 C   0  0  0  0  0  1  0  0  0  0  0  0
  -25.4330  -36.3760   23.9040 C   0  0  0  0  0  3  0  0  0  0  0  0
  -27.5570  -37.2840   24.7380 C   0  0  0  0  0  1  0  0  0  0  0  0
  -26.4570  -37.4380   23.7890 N   0  0  0  0  0  0  0  0  0  0  0  0
  -26.0430  -38.3550   23.9300 H   0  0  0  0  0  0  0  0  0  0  0  0
  -26.4270  -31.7740   25.1670 C   0  0  1  0  0  0  0  0  0  0  0  0
  -25.3150  -31.5400   26.2170 C   0  0  0  0  0  1  0  0  0  0  0  0
  -27.0260  -30.3970   24.8030 C   0  0  0  0  0  1  0  0  0  0  0  0
  -27.5600  -32.5810   25.8440 C   0  0  0  0  0  1  0  0  0  0  0  0
  1  5  1  0
  3  1  1  0
  3  4  1  0
  3  6  1  0
  4  5  1  0
  4  2  1  0
  5 45  1  0
  6 15  1  0
  6  2  1  0
  7 15  1  0
  8 13  1  0
  9 10  1  0
  9  8  1  0
 11 10  1  0
 11 20  1  0
 11 12  1  0
 13  7  1  0
 13 12  1  0
 14  7  2  0
 15 16  1  0
 17 18  2  0
 18 37  1  0
 19 18  1  0
 19 22  1  0
 20 21  1  0
 20 17  1  0
 21 19  2  0
 22 23  1  0
 23 24  2  0
 25 28  1  0
 25 24  1  0
 26 25  2  0
 27 26  1  0
 27 22  2  0
 28 29  1  0
 29 30  1  0
 30 31  2  0
 32 31  1  0
 32 36  1  0
 33 32  2  0
 34 29  2  0
 34 33  1  0
 35 34  1  0
 37 38  1  0
 38 41  1  0
 38 40  1  0
 39 37  2  0
 42 43  1  0
 42 17  1  0
 44 42  1  0
 45 46  1  0
 47 49  1  0
 47 46  1  0
 48 59  2  0
 49 54  1  0
 50 58  1  0
 50 60  1  0
 51 57  1  0
 51 53  1  0
 52 58  1  0
 53 54  2  0
 53 52  1  0
 55 49  2  0
 56 55  1  0
 56 51  2  0
 57 50  1  0
 58 48  1  0
 60 62  2  0
 61 60  1  0
 63 61  1  0
 64 73  2  0
 64 69  1  0
 65 61  1  0
 65 69  1  0
 66 65  1  0
 67 68  1  0
 67 66  1  0
 68 64  1  0
 69 70  2  0
 70 71  1  0
 72 71  2  0
 73 72  1  0
 74 48  1  0
 74 75  1  0
 74 84  1  0
 75 78  1  0
 76 80  1  0
 76 75  1  0
 77 76  2  0
 80 79  1  0
 82 80  1  0
 82 83  1  0
 82 81  1  0
 84 87  1  1
 84 85  1  0
 86 84  1  0
M  ISO  4   7 100  15 100  46 101  47 101
M  END
>  <TORSDO>  (20) 
F 18

>  <SCORE>  (20) 
-14.864

>  <name>  (20) 
20

>  <ligand_id>  (20) 
20

>  <original_smiles>  (20) 
[H]c1c([H])c([H])c2c(c1[H])C([H])([H])C([H])([H])C([H])([H])C2([H])N([H])C(=O)C1([H])N(C(=O)C([H])(N([H])C(=O)C([H])(N([H])C([H])([H])[H])C([H])([H])[H])C(C([H])([H])[H])(C([H])([H])[H])C([H])([H])[H])C([H])([H])c2c([H])c(OC([H])([H])C([H])([H])C3([H])C([H])([H])C4([H])C([H])(N([H])C(=O)N5C([H])([H])C([H])([H])C([H])([H])C([H])(n6nc(-c7c([H])c([H])c(Oc8c([H])c([H])c(F)c([H])c8F)c([H])c7[H])c(C(=O)N([H])[H])c6N([H])[H])C5([H])[H])C([H])([H])C34[H])c([H])c([H])c2C1([H])[H]

>  <smiles>  (20) 
[H]c1c([H])c([H])c2c(c1[H])C([H])([H])C([H])([H])C([H])([H])C2([H])N([H])C(=O)C1([H])N(C(=O)C([H])(N([H])C(=O)C([H])(N([H])C([H])([H])[H])C([H])([H])[H])C(C([H])([H])[H])(C([H])([H])[H])C([H])([H])[H])C([H])([H])c2c([H])c(OC([H])([H])C([H])([H])C3([H])C([H])([H])C4([H])C([H])(N([H])C(=O)N5C([H])([H])C([H])([H])C([H])([H])C([H])(n6nc(-c7c([H])c([H])c(Oc8c([H])c([H])c(F)c([H])c8F)c([H])c7[H])c(C(=O)N([H])[H])c6N([H])[H])C5([H])[H])C([H])([H])C34[H])c([H])c([H])c2C1([H])[H]

$$$$
21:0:0
     RDKit          3D

 96106  0  0  1  0  0  0  0  0999 V2000
  -32.0530  -18.5960   21.0920 C   0  0  0  0  0  2  0  0  0  0  0  0
  -29.9760  -19.8070   20.0150 C   0  0  0  0  0  2  0  0  0  0  0  0
  -31.5270  -22.1540   18.4540 C   0  0  0  0  0  2  0  0  0  0  0  0
  -32.0450  -19.5230   18.6310 C   0  0  0  0  0  3  0  0  0  0  0  0
  -31.2300  -20.6990   18.0830 C   0  0  0  0  0  3  0  0  0  0  0  0
  -31.3230  -17.5280   20.3390 C   0  0  0  0  0  3  0  0  0  0  0  0
  -29.9610  -20.8190   18.8880 C   0  0  0  0  0  3  0  0  0  0  0  0
  -31.2600  -18.9890   19.8570 C   0  0  1  0  0  0  0  0  0  0  0  0
  -30.3400  -22.1700   19.3110 N   0  0  2  0  0  4  0  0  0  0  0  0
  -30.6030  -22.1670   20.2840 H   0  0  0  0  0  0  0  0  0  0  0  0
  -32.3030  -18.4780   17.5310 C   0  0  0  0  0  0  0  0  0  0  0  0
  -33.7160  -18.3950   16.9700 C   0  0  0  0  0  1  0  0  0  0  0  0
  -31.4050  -17.7500   17.0990 O   0  0  0  0  0  0  0  0  0  0  0  0
  -30.0840  -16.8370   20.9310 C   0  0  0  0  0  2  0  0  0  0  0  0
  -30.7120  -14.4160   20.5460 C   0  0  0  0  0  0  0  0  0  0  0  0
  -30.3630  -12.3130   19.3290 C   0  0  0  0  0  2  0  0  0  0  0  0
  -29.4390  -12.5930   18.1260 C   0  0  0  0  0  2  0  0  0  0  0  0
  -27.9570  -12.4770   18.5330 C   0  0  0  0  0  2  0  0  0  0  0  0
  -27.6280  -13.2660   19.8290 C   0  0  0  0  0  3  0  0  0  0  0  0
  -28.6700  -12.9810   20.9360 C   0  0  0  0  0  2  0  0  0  0  0  0
  -30.0110  -13.2630   20.3940 N   0  0  0  0  0  0  0  0  0  0  0  0
  -31.8060  -14.6020   20.0140 O   0  0  0  0  0  0  0  0  0  0  0  0
  -30.0610  -15.3910   21.1960 N   0  0  0  0  0  0  0  0  0  0  0  0
  -29.2370  -15.0740   21.6860 H   0  0  0  0  0  0  0  0  0  0  0  0
  -25.2160  -13.8800   20.4910 C   0  0  0  0  0  0  0  0  0  0  0  0
  -24.1410  -13.1110   20.8530 C   0  0  0  0  0  0  0  0  0  0  0  0
  -24.6020  -11.7600   20.8360 C   0  0  0  0  0  0  0  0  0  0  0  0
  -26.2640  -12.9960   20.2850 N   0  0  0  0  0  0  0  0  0  0  0  0
  -25.8960  -11.7160   20.5460 N   0  0  0  0  0  0  0  0  0  0  0  0
  -23.8720  -10.4990   21.0300 C   0  0  0  0  0  0  0  0  0  0  0  0
  -24.2980   -9.5350   21.9690 C   0  0  0  0  0  3  0  0  0  0  0  0
  -23.5710   -8.3380   22.1490 C   0  0  0  0  0  3  0  0  0  0  0  0
  -22.4010   -8.0980   21.3880 C   0  0  0  0  0  0  0  0  0  0  0  0
  -21.9940   -9.0510   20.4380 C   0  0  0  0  0  3  0  0  0  0  0  0
  -22.7220  -10.2390   20.2580 C   0  0  0  0  0  3  0  0  0  0  0  0
  -21.6430   -6.9560   21.4770 O   0  0  0  0  0  0  0  0  0  0  0  0
  -21.5920   -6.2160   22.6310 C   0  0  0  0  0  0  0  0  0  0  0  0
  -21.1630   -6.7710   23.8560 C   0  0  0  0  0  3  0  0  0  0  0  0
  -21.0580   -5.9550   25.0000 C   0  0  0  0  0  3  0  0  0  0  0  0
  -21.3730   -4.5860   24.9210 C   0  0  0  0  0  0  0  0  0  0  0  0
  -21.7950   -4.0300   23.7000 C   0  0  0  0  0  3  0  0  0  0  0  0
  -21.9010   -4.8410   22.5580 C   0  0  0  0  0  0  0  0  0  0  0  0
  -22.2870   -4.2970   21.3800 F   0  0  0  0  0  0  0  0  0  0  0  0
  -21.2650   -3.8000   26.0190 F   0  0  0  0  0  0  0  0  0  0  0  0
  -22.7430  -13.5910   21.1070 C   0  0  0  0  0  0  0  0  0  0  0  0
  -22.0020  -12.9000   21.9690 N   0  0  0  0  0  0  0  0  0  0  0  0
  -22.3110  -14.6120   20.5770 O   0  0  0  0  0  0  0  0  0  0  0  0
  -22.3600  -12.0750   22.4260 H   0  0  0  0  0  0  0  0  0  0  0  0
  -21.0620  -13.2050   22.1770 H   0  0  0  0  0  0  0  0  0  0  0  0
  -25.3830  -15.2490   20.3050 N   0  0  0  0  0  0  0  0  0  0  0  0
  -24.6150  -15.9060   20.4030 H   0  0  0  0  0  0  0  0  0  0  0  0
  -26.2430  -15.6920   20.0080 H   0  0  0  0  0  0  0  0  0  0  0  0
  -29.3050  -23.1910   19.0220 C   0  0  0  0  0  2  0  0  0  0  0  0
  -29.5520  -24.5580   19.6980 C   0  0  0  0  0  2  0  0  0  0  0  0
  -28.2820  -25.4040   19.5790 C   0  0  0  0  0  2  0  0  0  0  0  0
  -28.3760  -26.7190   20.1310 O   0  0  0  0  0  0  0  0  0  0  0  0
  -24.5880  -31.8940   23.2420 C   0  0  0  0  0  0  0  0  0  0  0  0
  -27.2000  -27.4480   20.1380 C   0  0  0  0  0  0  0  0  0  0  0  0
  -23.3720  -30.5030   21.6020 C   0  0  0  0  0  3  0  0  0  0  0  0
  -24.8090  -28.9630   20.1810 C   0  0  0  0  0  0  0  0  0  0  0  0
  -25.9020  -30.8480   21.4000 C   0  0  0  0  0  2  0  0  0  0  0  0
  -25.9760  -29.4760   20.7620 C   0  0  0  0  0  0  0  0  0  0  0  0
  -27.1710  -28.7240   20.7460 C   0  0  0  0  0  3  0  0  0  0  0  0
  -26.0040  -26.9580   19.5500 C   0  0  0  0  0  3  0  0  0  0  0  0
  -24.8140  -27.6990   19.5810 C   0  0  0  0  0  3  0  0  0  0  0  0
  -23.5760  -29.8320   20.2230 C   0  0  0  0  0  2  0  0  0  0  0  0
  -24.6400  -31.0980   22.1390 N   0  0  0  0  0  0  0  0  0  0  0  0
  -23.5070  -32.1700   23.7810 O   0  0  0  0  0  0  0  0  0  0  0  0
  -22.7230  -29.4760   22.5580 C   0  0  0  0  0  0  0  0  0  0  0  0
  -21.3990  -29.2900   22.4250 N   0  0  0  0  0  0  0  0  0  0  0  0
  -23.4050  -28.8520   23.3760 O   0  0  0  0  0  0  0  0  0  0  0  0
  -20.9120  -29.8540   21.7440 H   0  0  0  0  0  0  0  0  0  0  0  0
  -18.0230  -28.0940   22.9170 C   0  0  0  0  0  0  0  0  0  0  0  0
  -20.5790  -28.3530   23.1930 C   0  0  0  0  0  3  0  0  0  0  0  0
  -20.6810  -26.9210   22.6200 C   0  0  0  0  0  2  0  0  0  0  0  0
  -19.5800  -26.5950   21.6050 C   0  0  0  0  0  2  0  0  0  0  0  0
  -18.1970  -26.7430   22.2450 C   0  0  0  0  0  2  0  0  0  0  0  0
  -19.1400  -28.8570   23.3470 C   0  0  0  0  0  0  0  0  0  0  0  0
  -18.9230  -30.1210   23.9360 C   0  0  0  0  0  3  0  0  0  0  0  0
  -17.6190  -30.6250   24.0950 C   0  0  0  0  0  3  0  0  0  0  0  0
  -16.5150  -29.8620   23.6750 C   0  0  0  0  0  3  0  0  0  0  0  0
  -16.7180  -28.5980   23.0940 C   0  0  0  0  0  3  0  0  0  0  0  0
  -25.8780  -32.5160   23.8620 C   0  0  0  0  0  3  0  0  0  0  0  0
  -25.5750  -33.9150   24.1910 N   0  0  0  0  0  0  0  0  0  0  0  0
  -25.9040  -34.9640   23.4250 C   0  0  0  0  0  0  0  0  0  0  0  0
  -26.5710  -34.8550   22.3910 O   0  0  0  0  0  0  0  0  0  0  0  0
  -24.9910  -34.0780   24.9980 H   0  0  0  0  0  0  0  0  0  0  0  0
  -24.1780  -36.7580   23.0670 C   0  0  0  0  0  1  0  0  0  0  0  0
  -25.4200  -36.3540   23.8780 C   0  0  0  0  0  3  0  0  0  0  0  0
  -27.5560  -37.2360   24.7060 C   0  0  0  0  0  1  0  0  0  0  0  0
  -26.4540  -37.4040   23.7610 N   0  0  0  0  0  0  0  0  0  0  0  0
  -26.0490  -38.3250   23.9050 H   0  0  0  0  0  0  0  0  0  0  0  0
  -26.3920  -31.7390   25.1350 C   0  0  1  0  0  0  0  0  0  0  0  0
  -25.3000  -31.5070   26.2050 C   0  0  0  0  0  1  0  0  0  0  0  0
  -26.9700  -30.3600   24.7380 C   0  0  0  0  0  1  0  0  0  0  0  0
  -27.5460  -32.5300   25.7960 C   0  0  0  0  0  1  0  0  0  0  0  0
  3  9  1  0
  4 11  1  0
  4  8  1  0
  5  3  1  0
  5  4  1  0
  5  7  1  0
  6 14  1  0
  6  1  1  0
  7  9  1  0
  7  2  1  0
  8  2  1  1
  8  6  1  0
  8  1  1  0
  9 10  1  1
 12 11  1  0
 13 11  2  0
 14 23  1  0
 15 23  1  0
 16 21  1  0
 17 18  1  0
 17 16  1  0
 19 18  1  0
 19 28  1  0
 19 20  1  0
 21 15  1  0
 21 20  1  0
 22 15  2  0
 23 24  1  0
 25 26  2  0
 26 45  1  0
 27 26  1  0
 27 30  1  0
 28 25  1  0
 28 29  1  0
 29 27  2  0
 30 31  1  0
 31 32  2  0
 33 36  1  0
 33 32  1  0
 34 33  2  0
 35 34  1  0
 35 30  2  0
 36 37  1  0
 37 38  1  0
 38 39  2  0
 40 39  1  0
 40 44  1  0
 41 40  2  0
 42 37  2  0
 42 41  1  0
 43 42  1  0
 45 46  1  0
 46 49  1  0
 46 48  1  0
 47 45  2  0
 50 51  1  0
 50 25  1  0
 52 50  1  0
 53  9  1  0
 53 54  1  0
 55 54  1  0
 55 56  1  0
 56 58  1  0
 57 68  2  0
 58 63  1  0
 59 67  1  0
 59 69  1  0
 60 66  1  0
 60 62  1  0
 61 67  1  0
 62 61  1  0
 63 62  2  0
 64 65  1  0
 64 58  2  0
 65 60  2  0
 66 59  1  0
 67 57  1  0
 69 71  2  0
 70 69  1  0
 72 70  1  0
 73 82  2  0
 73 78  1  0
 74 70  1  0
 74 78  1  0
 75 74  1  0
 76 77  1  0
 76 75  1  0
 77 73  1  0
 78 79  2  0
 79 80  1  0
 81 80  2  0
 82 81  1  0
 83 57  1  0
 83 84  1  0
 83 93  1  0
 84 87  1  0
 85 89  1  0
 85 84  1  0
 86 85  2  0
 89 88  1  0
 91 89  1  0
 91 92  1  0
 91 90  1  0
 93 96  1  1
 93 94  1  0
 95 93  1  0
M  ISO  4  15 100  23 100  55 101  56 101
M  END
>  <TORSDO>  (21) 
F 21

>  <SCORE>  (21) 
-13.678

>  <name>  (21) 
21

>  <ligand_id>  (21) 
21

>  <original_smiles>  (21) 
[H]c1c([H])c([H])c2c(c1[H])C([H])([H])C([H])([H])C([H])([H])C2([H])N([H])C(=O)C1([H])N(C(=O)C([H])(N([H])C(=O)C([H])(N([H])C([H])([H])[H])C([H])([H])[H])C(C([H])([H])[H])(C([H])([H])[H])C([H])([H])[H])C([H])([H])c2c([H])c(OC([H])([H])C([H])([H])C([H])([H])[N+]3([H])C([H])([H])C4([H])C([H])(C(=O)C([H])([H])[H])C5(C([H])([H])C5([H])C([H])([H])N([H])C(=O)N5C([H])([H])C([H])([H])C([H])([H])C([H])(n6nc(-c7c([H])c([H])c(Oc8c([H])c([H])c(F)c([H])c8F)c([H])c7[H])c(C(=O)N([H])[H])c6N([H])[H])C5([H])[H])C([H])([H])C43[H])c([H])c([H])c2C1([H])[H]

>  <smiles>  (21) 
[H]c1c([H])c([H])c2c(c1[H])C([H])([H])C([H])([H])C([H])([H])C2([H])N([H])C(=O)C1([H])N(C(=O)C([H])(N([H])C(=O)C([H])(N([H])C([H])([H])[H])C([H])([H])[H])C(C([H])([H])[H])(C([H])([H])[H])C([H])([H])[H])C([H])([H])c2c([H])c(OC([H])([H])C([H])([H])C([H])([H])[N+]3([H])C([H])([H])C4([H])C([H])(C(=O)C([H])([H])[H])C5(C([H])([H])C5([H])C([H])([H])N([H])C(=O)N5C([H])([H])C([H])([H])C([H])([H])C([H])(n6nc(-c7c([H])c([H])c(Oc8c([H])c([H])c(F)c([H])c8F)c([H])c7[H])c(C(=O)N([H])[H])c6N([H])[H])C5([H])[H])C([H])([H])C43[H])c([H])c([H])c2C1([H])[H]

$$$$
22:0:0
     RDKit          3D

 90 99  0  0  1  0  0  0  0  0999 V2000
  -27.8600  -20.9190   18.7920 C   0  0  0  0  0  2  0  0  0  0  0  0
  -27.4440  -20.3140   21.3400 C   0  0  0  0  0  2  0  0  0  0  0  0
  -29.3080  -21.2390   19.2200 C   0  0  0  0  0  3  0  0  0  0  0  0
  -27.2700  -20.0260   19.8660 C   0  0  0  0  0  3  0  0  0  0  0  0
  -28.3500  -19.3230   20.6360 C   0  0  0  0  0  3  0  0  0  0  0  0
  -29.7180  -19.6670   20.0540 C   0  0  2  0  0  0  0  0  0  0  0  0
  -30.6770  -20.0110   21.2050 C   0  0  0  0  0  1  0  0  0  0  0  0
  -30.3270  -18.0820   19.4490 C   0  0  0  0  0  0  0  0  0  0  0  0
  -31.1860  -18.3140   18.2270 C   0  0  0  0  0  1  0  0  0  0  0  0
  -30.1990  -16.7490   19.9170 N   0  0  0  0  0  0  0  0  0  0  0  0
  -30.9250  -15.4280   19.5400 C   0  0  0  0  0  0  0  0  0  0  0  0
  -30.7670  -12.9680   18.7120 C   0  0  0  0  0  2  0  0  0  0  0  0
  -29.7450  -12.8070   17.5570 C   0  0  0  0  0  2  0  0  0  0  0  0
  -28.3260  -12.5850   18.1080 C   0  0  0  0  0  2  0  0  0  0  0  0
  -28.0050  -13.5570   19.2710 C   0  0  0  0  0  3  0  0  0  0  0  0
  -29.1440  -13.6700   20.3040 C   0  0  0  0  0  2  0  0  0  0  0  0
  -30.3450  -14.1270   19.5870 N   0  0  0  0  0  0  0  0  0  0  0  0
  -32.0770  -15.3850   19.0930 O   0  0  0  0  0  0  0  0  0  0  0  0
  -25.7660  -14.1840   20.3100 C   0  0  0  0  0  0  0  0  0  0  0  0
  -24.7010  -13.4420   20.7410 C   0  0  0  0  0  0  0  0  0  0  0  0
  -25.0780  -12.0740   20.5740 C   0  0  0  0  0  0  0  0  0  0  0  0
  -26.7200  -13.2730   19.8970 N   0  0  0  0  0  0  0  0  0  0  0  0
  -26.3260  -11.9910   20.1220 N   0  0  0  0  0  0  0  0  0  0  0  0
  -24.2970  -10.8430   20.7620 C   0  0  0  0  0  0  0  0  0  0  0  0
  -24.7090   -9.8340   21.6590 C   0  0  0  0  0  3  0  0  0  0  0  0
  -23.9290   -8.6700   21.8360 C   0  0  0  0  0  3  0  0  0  0  0  0
  -22.7200   -8.5100   21.1180 C   0  0  0  0  0  0  0  0  0  0  0  0
  -22.3250   -9.5070   20.2100 C   0  0  0  0  0  3  0  0  0  0  0  0
  -23.1070  -10.6620   20.0290 C   0  0  0  0  0  3  0  0  0  0  0  0
  -21.9110   -7.4020   21.2080 O   0  0  0  0  0  0  0  0  0  0  0  0
  -21.7790   -6.7000   22.3790 C   0  0  0  0  0  0  0  0  0  0  0  0
  -21.3110   -7.3080   23.5650 C   0  0  0  0  0  3  0  0  0  0  0  0
  -21.1240   -6.5340   24.7260 C   0  0  0  0  0  3  0  0  0  0  0  0
  -21.3950   -5.1520   24.7040 C   0  0  0  0  0  0  0  0  0  0  0  0
  -21.8550   -4.5440   23.5240 C   0  0  0  0  0  3  0  0  0  0  0  0
  -22.0440   -5.3160   22.3640 C   0  0  0  0  0  0  0  0  0  0  0  0
  -22.4680   -4.7210   21.2220 F   0  0  0  0  0  0  0  0  0  0  0  0
  -21.2070   -4.4060   25.8180 F   0  0  0  0  0  0  0  0  0  0  0  0
  -23.3710  -13.9760   21.1860 C   0  0  0  0  0  0  0  0  0  0  0  0
  -22.7010  -13.2750   22.0930 N   0  0  0  0  0  0  0  0  0  0  0  0
  -22.9430  -15.0500   20.7670 O   0  0  0  0  0  0  0  0  0  0  0  0
  -23.0610  -12.4040   22.4550 H   0  0  0  0  0  0  0  0  0  0  0  0
  -21.8120  -13.6150   22.4310 H   0  0  0  0  0  0  0  0  0  0  0  0
  -25.9960  -15.5530   20.2090 N   0  0  0  0  0  0  0  0  0  0  0  0
  -25.3010  -16.2460   20.4640 H   0  0  0  0  0  0  0  0  0  0  0  0
  -26.8600  -15.9590   19.8690 H   0  0  0  0  0  0  0  0  0  0  0  0
  -29.3000  -22.9370   19.7380 C   0  0  0  0  0  0  0  0  0  0  0  0
  -30.1110  -23.1950   20.6310 O   0  0  0  0  0  0  0  0  0  0  0  0
  -28.3700  -24.3310   19.2010 C   0  0  0  0  0  2  0  0  0  0  0  0
  -28.4990  -25.9310   19.6130 O   0  0  0  0  0  0  0  0  0  0  0  0
  -24.6280  -31.5050   22.9270 C   0  0  0  0  0  0  0  0  0  0  0  0
  -27.4390  -26.9850   19.5870 C   0  0  0  0  0  0  0  0  0  0  0  0
  -23.5030  -30.1420   21.2150 C   0  0  0  0  0  3  0  0  0  0  0  0
  -25.0310  -28.7260   19.6760 C   0  0  0  0  0  0  0  0  0  0  0  0
  -26.0500  -30.5200   21.0620 C   0  0  0  0  0  2  0  0  0  0  0  0
  -26.1980  -29.1600   20.3160 C   0  0  0  0  0  0  0  0  0  0  0  0
  -27.3920  -28.3100   20.2530 C   0  0  0  0  0  3  0  0  0  0  0  0
  -26.2370  -26.7130   18.8970 C   0  0  0  0  0  3  0  0  0  0  0  0
  -25.0740  -27.5270   18.9460 C   0  0  0  0  0  3  0  0  0  0  0  0
  -23.7570  -29.5630   19.7950 C   0  0  0  0  0  2  0  0  0  0  0  0
  -24.7480  -30.7470   21.7890 N   0  0  0  0  0  0  0  0  0  0  0  0
  -23.5290  -31.6910   23.4750 O   0  0  0  0  0  0  0  0  0  0  0  0
  -22.8850  -29.0450   22.1210 C   0  0  0  0  0  0  0  0  0  0  0  0
  -21.5640  -28.8090   22.0040 N   0  0  0  0  0  0  0  0  0  0  0  0
  -23.6010  -28.4080   22.8990 O   0  0  0  0  0  0  0  0  0  0  0  0
  -21.0350  -29.3790   21.3580 H   0  0  0  0  0  0  0  0  0  0  0  0
  -18.2780  -27.3400   22.4470 C   0  0  0  0  0  0  0  0  0  0  0  0
  -20.8130  -27.7760   22.7230 C   0  0  0  0  0  3  0  0  0  0  0  0
  -21.0140  -26.3870   22.0740 C   0  0  0  0  0  2  0  0  0  0  0  0
  -19.9340  -26.0410   21.0430 C   0  0  0  0  0  2  0  0  0  0  0  0
  -18.5490  -26.0490   21.6950 C   0  0  0  0  0  2  0  0  0  0  0  0
  -19.3390  -28.1590   22.9170 C   0  0  0  0  0  0  0  0  0  0  0  0
  -19.0290  -29.3650   23.5830 C   0  0  0  0  0  3  0  0  0  0  0  0
  -17.6910  -29.7550   23.7820 C   0  0  0  0  0  3  0  0  0  0  0  0
  -16.6450  -28.9340   23.3270 C   0  0  0  0  0  3  0  0  0  0  0  0
  -16.9390  -27.7280   22.6660 C   0  0  0  0  0  3  0  0  0  0  0  0
  -25.8630  -32.1880   23.5880 C   0  0  0  0  0  3  0  0  0  0  0  0
  -26.4140  -31.3940   24.8380 C   0  0  1  0  0  0  0  0  0  0  0  0
  -25.3330  -31.0670   25.8950 C   0  0  0  0  0  1  0  0  0  0  0  0
  -27.0600  -30.0600   24.4050 C   0  0  0  0  0  1  0  0  0  0  0  0
  -27.5270  -32.2160   25.5300 C   0  0  0  0  0  1  0  0  0  0  0  0
  -25.4690  -33.5500   23.9890 N   0  0  0  0  0  0  0  0  0  0  0  0
  -25.7530  -34.6660   23.3030 C   0  0  0  0  0  0  0  0  0  0  0  0
  -26.4380  -34.6590   22.2770 O   0  0  0  0  0  0  0  0  0  0  0  0
  -24.8590  -33.6240   24.7900 H   0  0  0  0  0  0  0  0  0  0  0  0
  -23.9300  -36.3860   23.0530 C   0  0  0  0  0  1  0  0  0  0  0  0
  -25.1940  -36.0000   23.8400 C   0  0  0  0  0  3  0  0  0  0  0  0
  -27.2730  -36.9590   24.7270 C   0  0  0  0  0  1  0  0  0  0  0  0
  -26.1680  -37.1140   23.7850 N   0  0  0  0  0  0  0  0  0  0  0  0
  -25.7100  -38.0010   23.9760 H   0  0  0  0  0  0  0  0  0  0  0  0
  1  3  1  0
  3 47  1  0
  3  6  1  0
  4  1  1  0
  4  5  1  0
  4  2  1  0
  5  2  1  0
  6  5  1  0
  6  7  1  1
  8 10  2  0
  8  6  1  0
  9  8  1  0
 11 17  1  0
 11 10  1  0
 12 17  1  0
 13 14  1  0
 13 12  1  0
 15 14  1  0
 15 22  1  0
 15 16  1  0
 17 16  1  0
 18 11  2  0
 19 20  2  0
 20 39  1  0
 21 20  1  0
 21 24  1  0
 22 23  1  0
 22 19  1  0
 23 21  2  0
 24 25  1  0
 25 26  2  0
 27 30  1  0
 27 26  1  0
 28 27  2  0
 29 28  1  0
 29 24  2  0
 30 31  1  0
 31 32  1  0
 32 33  2  0
 34 33  1  0
 34 38  1  0
 35 34  2  0
 36 31  2  0
 36 35  1  0
 37 36  1  0
 39 40  1  0
 40 43  1  0
 40 42  1  0
 41 39  2  0
 44 19  1  0
 44 45  1  0
 46 44  1  0
 47 48  2  0
 49 50  1  0
 49 47  1  0
 51 62  2  0
 52 50  1  0
 52 57  1  0
 53 61  1  0
 53 63  1  0
 54 60  1  0
 54 56  1  0
 55 61  1  0
 56 55  1  0
 57 56  2  0
 58 59  1  0
 58 52  2  0
 59 54  2  0
 60 53  1  0
 61 51  1  0
 63 65  2  0
 64 63  1  0
 66 64  1  0
 67 76  2  0
 67 72  1  0
 68 64  1  0
 68 72  1  0
 69 68  1  0
 70 71  1  0
 70 69  1  0
 71 67  1  0
 72 73  2  0
 73 74  1  0
 75 74  2  0
 76 75  1  0
 77 51  1  0
 77 82  1  0
 77 78  1  0
 78 81  1  1
 78 79  1  0
 80 78  1  0
 82 85  1  0
 83 87  1  0
 83 82  1  0
 84 83  2  0
 87 86  1  0
 89 87  1  0
 89 90  1  0
 89 88  1  0
M  ISO  4  10 100  11 100  49 101  50 101
M  END
>  <TORSDO>  (22) 
F 19

>  <SCORE>  (22) 
-12.195

>  <name>  (22) 
22

>  <ligand_id>  (22) 
22

>  <original_smiles>  (22) 
[H]c1c([H])c([H])c2c(c1[H])C([H])([H])C([H])([H])C([H])([H])C2([H])N([H])C(=O)C1([H])N(C(=O)C([H])(N([H])C(=O)C([H])(N([H])C([H])([H])[H])C([H])([H])[H])C(C([H])([H])[H])(C([H])([H])[H])C([H])([H])[H])C([H])([H])c2c([H])c(OC([H])([H])C(=O)C3([H])C([H])([H])C4([H])C([H])([H])C4([H])C3(C(=NC(=O)N3C([H])([H])C([H])([H])C([H])([H])C([H])(n4nc(-c5c([H])c([H])c(Oc6c([H])c([H])c(F)c([H])c6F)c([H])c5[H])c(C(=O)N([H])[H])c4N([H])[H])C3([H])[H])C([H])([H])[H])C([H])([H])[H])c([H])c([H])c2C1([H])[H]

>  <smiles>  (22) 
[H]c1c([H])c([H])c2c(c1[H])C([H])([H])C([H])([H])C([H])([H])C2([H])N([H])C(=O)C1([H])N(C(=O)C([H])(N([H])C(=O)C([H])(N([H])C([H])([H])[H])C([H])([H])[H])C(C([H])([H])[H])(C([H])([H])[H])C([H])([H])[H])C([H])([H])c2c([H])c(OC([H])([H])C(=O)C3([H])C([H])([H])C4([H])C([H])([H])C4([H])C3(C(=NC(=O)N3C([H])([H])C([H])([H])C([H])([H])C([H])(n4nc(-c5c([H])c([H])c(Oc6c([H])c([H])c(F)c([H])c6F)c([H])c5[H])c(C(=O)N([H])[H])c4N([H])[H])C3([H])[H])C([H])([H])[H])C([H])([H])[H])c([H])c([H])c2C1([H])[H]

$$$$
23:0:0
     RDKit          3D

 94102  0  0  1  0  0  0  0  0999 V2000
  -29.8280  -21.5780   21.0600 C   0  0  0  0  0  2  0  0  0  0  0  0
  -28.9270  -17.8210   20.3390 C   0  0  0  0  0  3  0  0  0  0  0  0
  -31.2240  -17.8620   21.0500 C   0  0  0  0  0  3  0  0  0  0  0  0
  -28.8590  -19.2420   20.3860 C   0  0  0  0  0  0  0  0  0  0  0  0
  -31.1670  -19.2910   21.1340 C   0  0  0  0  0  0  0  0  0  0  0  0
  -29.9740  -20.0220   20.8120 C   0  0  0  0  0  0  0  0  0  0  0  0
  -30.0950  -17.0920   20.6720 C   0  0  0  0  0  0  0  0  0  0  0  0
  -27.5370  -19.8990   20.0030 C   0  0  0  0  0  1  0  0  0  0  0  0
  -32.4170  -20.0080   21.6300 C   0  0  0  0  0  1  0  0  0  0  0  0
  -30.7810  -14.6350   20.1530 C   0  0  0  0  0  0  0  0  0  0  0  0
  -30.4770  -12.4670   18.9700 C   0  0  0  0  0  2  0  0  0  0  0  0
  -29.4760  -12.6830   17.8110 C   0  0  0  0  0  2  0  0  0  0  0  0
  -28.0190  -12.5340   18.2990 C   0  0  0  0  0  2  0  0  0  0  0  0
  -27.7410  -13.3310   19.6000 C   0  0  0  0  0  3  0  0  0  0  0  0
  -28.8470  -13.0840   20.6520 C   0  0  0  0  0  2  0  0  0  0  0  0
  -30.1410  -13.4300   20.0340 N   0  0  0  0  0  0  0  0  0  0  0  0
  -31.9120  -14.8190   19.6920 O   0  0  0  0  0  0  0  0  0  0  0  0
  -30.0090  -15.6370   20.6650 N   0  0  0  0  0  0  0  0  0  0  0  0
  -29.1140  -15.2830   20.9680 H   0  0  0  0  0  0  0  0  0  0  0  0
  -25.3820  -13.9450   20.4190 C   0  0  0  0  0  0  0  0  0  0  0  0
  -24.3270  -13.1750   20.8260 C   0  0  0  0  0  0  0  0  0  0  0  0
  -24.7750  -11.8200   20.7550 C   0  0  0  0  0  0  0  0  0  0  0  0
  -26.4100  -13.0570   20.1320 N   0  0  0  0  0  0  0  0  0  0  0  0
  -26.0510  -11.7750   20.3930 N   0  0  0  0  0  0  0  0  0  0  0  0
  -24.0470  -10.5610   20.9570 C   0  0  0  0  0  0  0  0  0  0  0  0
  -24.4900   -9.5910   21.8840 C   0  0  0  0  0  3  0  0  0  0  0  0
  -23.7600   -8.3960   22.0690 C   0  0  0  0  0  3  0  0  0  0  0  0
  -22.5760   -8.1630   21.3300 C   0  0  0  0  0  0  0  0  0  0  0  0
  -22.1540   -9.1210   20.3920 C   0  0  0  0  0  3  0  0  0  0  0  0
  -22.8830  -10.3080   20.2040 C   0  0  0  0  0  3  0  0  0  0  0  0
  -21.8180   -7.0210   21.4290 O   0  0  0  0  0  0  0  0  0  0  0  0
  -21.7530   -6.2990   22.5940 C   0  0  0  0  0  0  0  0  0  0  0  0
  -21.2980   -6.8720   23.8010 C   0  0  0  0  0  3  0  0  0  0  0  0
  -21.1740   -6.0750   24.9560 C   0  0  0  0  0  3  0  0  0  0  0  0
  -21.5020   -4.7060   24.9080 C   0  0  0  0  0  0  0  0  0  0  0  0
  -21.9560   -4.1330   23.7060 C   0  0  0  0  0  3  0  0  0  0  0  0
  -22.0760   -4.9270   22.5530 C   0  0  0  0  0  0  0  0  0  0  0  0
  -22.4900   -4.3650   21.3910 F   0  0  0  0  0  0  0  0  0  0  0  0
  -21.3800   -3.9400   26.0160 F   0  0  0  0  0  0  0  0  0  0  0  0
  -22.9460  -13.6590   21.1640 C   0  0  0  0  0  0  0  0  0  0  0  0
  -22.2580  -12.9660   22.0640 N   0  0  0  0  0  0  0  0  0  0  0  0
  -22.4880  -14.6850   20.6620 O   0  0  0  0  0  0  0  0  0  0  0  0
  -22.6430  -12.1360   22.4900 H   0  0  0  0  0  0  0  0  0  0  0  0
  -21.3320  -13.2720   22.3320 H   0  0  0  0  0  0  0  0  0  0  0  0
  -25.5510  -15.3150   20.2480 N   0  0  0  0  0  0  0  0  0  0  0  0
  -24.7830  -15.9670   20.3610 H   0  0  0  0  0  0  0  0  0  0  0  0
  -26.3560  -15.7310   19.7980 H   0  0  0  0  0  0  0  0  0  0  0  0
  -29.5710  -22.5900   19.8640 C   0  0  0  0  0  3  0  0  0  0  0  0
  -29.5330  -24.1220   20.2740 C   0  0  0  0  0  0  0  0  0  0  0  0
  -30.3780  -24.5690   21.0550 O   0  0  0  0  0  0  0  0  0  0  0  0
  -28.4360  -25.0740   19.6710 C   0  0  0  0  0  2  0  0  0  0  0  0
  -28.5880  -26.5120   19.9640 O   0  0  0  0  0  0  0  0  0  0  0  0
  -24.6700  -31.6650   23.1180 C   0  0  0  0  0  0  0  0  0  0  0  0
  -27.4330  -27.3040   19.9290 C   0  0  0  0  0  0  0  0  0  0  0  0
  -23.5140  -30.2860   21.4270 C   0  0  0  0  0  3  0  0  0  0  0  0
  -25.0160  -28.8300   19.9610 C   0  0  0  0  0  0  0  0  0  0  0  0
  -26.0430  -30.6880   21.2680 C   0  0  0  0  0  2  0  0  0  0  0  0
  -26.1650  -29.3350   20.5790 C   0  0  0  0  0  0  0  0  0  0  0  0
  -27.3760  -28.5840   20.5560 C   0  0  0  0  0  3  0  0  0  0  0  0
  -26.2570  -26.8480   19.2850 C   0  0  0  0  0  3  0  0  0  0  0  0
  -25.0620  -27.5900   19.3060 C   0  0  0  0  0  3  0  0  0  0  0  0
  -23.7540  -29.6690   20.0260 C   0  0  0  0  0  2  0  0  0  0  0  0
  -24.7610  -30.8950   21.9950 N   0  0  0  0  0  0  0  0  0  0  0  0
  -23.5770  -31.8970   23.6560 O   0  0  0  0  0  0  0  0  0  0  0  0
  -22.8770  -29.2180   22.3480 C   0  0  0  0  0  0  0  0  0  0  0  0
  -21.5580  -29.0060   22.2090 N   0  0  0  0  0  0  0  0  0  0  0  0
  -23.5700  -28.5870   23.1500 O   0  0  0  0  0  0  0  0  0  0  0  0
  -21.0560  -29.5690   21.5370 H   0  0  0  0  0  0  0  0  0  0  0  0
  -18.2110  -27.7180   22.6700 C   0  0  0  0  0  0  0  0  0  0  0  0
  -20.7640  -28.0250   22.9490 C   0  0  0  0  0  3  0  0  0  0  0  0
  -20.8970  -26.6170   22.3230 C   0  0  0  0  0  2  0  0  0  0  0  0
  -19.8020  -26.3060   21.2980 C   0  0  0  0  0  2  0  0  0  0  0  0
  -18.4180  -26.3970   21.9470 C   0  0  0  0  0  2  0  0  0  0  0  0
  -19.3140  -28.4890   23.1270 C   0  0  0  0  0  0  0  0  0  0  0  0
  -19.0650  -29.7240   23.7650 C   0  0  0  0  0  3  0  0  0  0  0  0
  -17.7500  -30.1900   23.9470 C   0  0  0  0  0  3  0  0  0  0  0  0
  -16.6620  -29.4170   23.5040 C   0  0  0  0  0  3  0  0  0  0  0  0
  -16.8960  -28.1830   22.8720 C   0  0  0  0  0  3  0  0  0  0  0  0
  -25.9330  -32.3110   23.7660 C   0  0  0  0  0  3  0  0  0  0  0  0
  -25.5910  -33.6930   24.1300 N   0  0  0  0  0  0  0  0  0  0  0  0
  -25.8990  -34.7710   23.3980 C   0  0  0  0  0  0  0  0  0  0  0  0
  -26.5750  -34.7100   22.3690 O   0  0  0  0  0  0  0  0  0  0  0  0
  -24.9930  -33.8130   24.9350 H   0  0  0  0  0  0  0  0  0  0  0  0
  -24.1240  -36.5250   23.0800 C   0  0  0  0  0  1  0  0  0  0  0  0
  -25.3720  -36.1340   23.8870 C   0  0  0  0  0  3  0  0  0  0  0  0
  -27.4800  -37.0540   24.7510 C   0  0  0  0  0  1  0  0  0  0  0  0
  -26.3760  -37.2190   23.8100 N   0  0  0  0  0  0  0  0  0  0  0  0
  -25.9400  -38.1200   23.9880 H   0  0  0  0  0  0  0  0  0  0  0  0
  -26.4590  -31.5190   25.0250 C   0  0  1  0  0  0  0  0  0  0  0  0
  -25.3640  -31.2340   26.0800 C   0  0  0  0  0  1  0  0  0  0  0  0
  -27.0750  -30.1650   24.6010 C   0  0  0  0  0  1  0  0  0  0  0  0
  -27.5840  -32.3230   25.7170 C   0  0  0  0  0  1  0  0  0  0  0  0
  -30.3010  -23.0100   17.3990 C   0  0  0  0  0  1  0  0  0  0  0  0
  -30.6120  -22.3430   18.7460 C   0  0  0  0  0  2  0  0  0  0  0  0
  2  4  2  0
  2  7  1  0
  3  5  1  0
  4  6  1  0
  5  9  1  0
  6  1  1  0
  6  5  2  0
  7  3  2  0
  8  4  1  0
 10 18  1  0
 11 16  1  0
 12 13  1  0
 12 11  1  0
 14 13  1  0
 14 23  1  0
 14 15  1  0
 16 10  1  0
 16 15  1  0
 17 10  2  0
 18  7  1  0
 18 19  1  0
 20 21  2  0
 21 40  1  0
 22 21  1  0
 22 25  1  0
 23 24  1  0
 23 20  1  0
 24 22  2  0
 25 26  1  0
 26 27  2  0
 28 31  1  0
 28 27  1  0
 29 28  2  0
 30 29  1  0
 30 25  2  0
 31 32  1  0
 32 33  1  0
 33 34  2  0
 35 34  1  0
 35 39  1  0
 36 35  2  0
 37 32  2  0
 37 36  1  0
 38 37  1  0
 40 41  1  0
 41 44  1  0
 41 43  1  0
 42 40  2  0
 45 46  1  0
 45 20  1  0
 47 45  1  0
 48 94  1  0
 48 49  1  0
 48  1  1  0
 49 50  2  0
 51 52  1  0
 51 49  1  0
 53 64  2  0
 54 52  1  0
 54 59  1  0
 55 63  1  0
 55 65  1  0
 56 62  1  0
 56 58  1  0
 57 63  1  0
 58 57  1  0
 59 58  2  0
 60 61  1  0
 60 54  2  0
 61 56  2  0
 62 55  1  0
 63 53  1  0
 65 67  2  0
 66 65  1  0
 68 66  1  0
 69 78  2  0
 69 74  1  0
 70 66  1  0
 70 74  1  0
 71 70  1  0
 72 73  1  0
 72 71  1  0
 73 69  1  0
 74 75  2  0
 75 76  1  0
 77 76  2  0
 78 77  1  0
 79 53  1  0
 79 80  1  0
 79 89  1  0
 80 83  1  0
 81 85  1  0
 81 80  1  0
 82 81  2  0
 85 84  1  0
 87 85  1  0
 87 88  1  0
 87 86  1  0
 89 92  1  1
 89 90  1  0
 91 89  1  0
 93 94  1  0
M  ISO  4  10 100  18 100  51 101  52 101
M  END
>  <TORSDO>  (23) 
F 21

>  <SCORE>  (23) 
-13.330

>  <name>  (23) 
23

>  <ligand_id>  (23) 
23

>  <original_smiles>  (23) 
[H]c1c([H])c([H])c2c(c1[H])C([H])([H])C([H])([H])C([H])([H])C2([H])N([H])C(=O)C1([H])N(C(=O)C([H])(N([H])C(=O)C([H])(N([H])C([H])([H])[H])C([H])([H])[H])C(C([H])([H])[H])(C([H])([H])[H])C([H])([H])[H])C([H])([H])c2c([H])c(OC([H])([H])C(=O)C([H])(C([H])([H])c3c(C([H])([H])[H])c([H])c(N([H])C(=O)N4C([H])([H])C([H])([H])C([H])([H])C([H])(n5nc(-c6c([H])c([H])c(Oc7c([H])c([H])c(F)c([H])c7F)c([H])c6[H])c(C(=O)N([H])[H])c5N([H])[H])C4([H])[H])c([H])c3C([H])([H])[H])C([H])([H])C([H])([H])[H])c([H])c([H])c2C1([H])[H]

>  <smiles>  (23) 
[H]c1c([H])c([H])c2c(c1[H])C([H])([H])C([H])([H])C([H])([H])C2([H])N([H])C(=O)C1([H])N(C(=O)C([H])(N([H])C(=O)C([H])(N([H])C([H])([H])[H])C([H])([H])[H])C(C([H])([H])[H])(C([H])([H])[H])C([H])([H])[H])C([H])([H])c2c([H])c(OC([H])([H])C(=O)C([H])(C([H])([H])c3c(C([H])([H])[H])c([H])c(N([H])C(=O)N4C([H])([H])C([H])([H])C([H])([H])C([H])(n5nc(-c6c([H])c([H])c(Oc7c([H])c([H])c(F)c([H])c7F)c([H])c6[H])c(C(=O)N([H])[H])c5N([H])[H])C4([H])[H])c([H])c3C([H])([H])[H])C([H])([H])C([H])([H])[H])c([H])c([H])c2C1([H])[H]

$$$$
24:0:0
     RDKit          3D

 86 95  0  0  1  0  0  0  0  0999 V2000
  -29.8290  -21.8570   19.1940 C   0  0  0  0  0  2  0  0  0  0  0  0
  -29.4730  -20.5510   19.1220 C   0  0  0  0  0  3  0  0  0  0  0  0
  -30.1230  -19.1850   18.8180 C   0  0  0  0  0  2  0  0  0  0  0  0
  -28.8770  -22.2160   20.3600 C   0  0  0  0  0  3  0  0  0  0  0  0
  -28.6970  -20.3230   20.3570 C   0  0  0  0  0  3  0  0  0  0  0  0
  -29.7300  -18.7330   20.2660 C   0  0  0  0  0  3  0  0  0  0  0  0
  -30.2420  -15.6290   20.2540 C   0  0  0  0  0  0  0  0  0  0  0  0
  -30.3170  -13.1040   19.4240 C   0  0  0  0  0  2  0  0  0  0  0  0
  -29.4190  -12.7340   18.2110 C   0  0  0  0  0  2  0  0  0  0  0  0
  -27.9930  -12.3920   18.6650 C   0  0  0  0  0  2  0  0  0  0  0  0
  -27.4930  -13.3850   19.7400 C   0  0  0  0  0  3  0  0  0  0  0  0
  -28.5270  -13.6730   20.8530 C   0  0  0  0  0  2  0  0  0  0  0  0
  -29.7070  -14.2770   20.1930 N   0  0  0  0  0  0  0  0  0  0  0  0
  -31.4720  -15.5730   20.0700 O   0  0  0  0  0  0  0  0  0  0  0  0
  -29.4930  -16.9840   20.3290 N   0  0  0  0  0  0  0  0  0  0  0  0
  -28.5090  -16.7830   20.4440 H   0  0  0  0  0  0  0  0  0  0  0  0
  -25.1280  -13.9060   20.5090 C   0  0  0  0  0  0  0  0  0  0  0  0
  -24.0740  -13.1190   20.8770 C   0  0  0  0  0  0  0  0  0  0  0  0
  -24.5540  -11.7730   20.8450 C   0  0  0  0  0  0  0  0  0  0  0  0
  -26.1770  -13.0420   20.2620 N   0  0  0  0  0  0  0  0  0  0  0  0
  -25.8460  -11.7520   20.5320 N   0  0  0  0  0  0  0  0  0  0  0  0
  -23.8340  -10.5050   21.0310 C   0  0  0  0  0  0  0  0  0  0  0  0
  -24.2620   -9.5440   21.9730 C   0  0  0  0  0  3  0  0  0  0  0  0
  -23.5380   -8.3450   22.1510 C   0  0  0  0  0  3  0  0  0  0  0  0
  -22.3720   -8.0990   21.3860 C   0  0  0  0  0  0  0  0  0  0  0  0
  -21.9640   -9.0490   20.4340 C   0  0  0  0  0  3  0  0  0  0  0  0
  -22.6890  -10.2390   20.2550 C   0  0  0  0  0  3  0  0  0  0  0  0
  -21.6210   -6.9510   21.4730 O   0  0  0  0  0  0  0  0  0  0  0  0
  -21.5560   -6.2180   22.6320 C   0  0  0  0  0  0  0  0  0  0  0  0
  -21.0810   -6.7740   23.8390 C   0  0  0  0  0  3  0  0  0  0  0  0
  -20.9660   -5.9670   24.9880 C   0  0  0  0  0  3  0  0  0  0  0  0
  -21.3150   -4.6050   24.9310 C   0  0  0  0  0  0  0  0  0  0  0  0
  -21.7840   -4.0480   23.7280 C   0  0  0  0  0  3  0  0  0  0  0  0
  -21.9000   -4.8530   22.5810 C   0  0  0  0  0  0  0  0  0  0  0  0
  -22.3320   -4.3060   21.4190 F   0  0  0  0  0  0  0  0  0  0  0  0
  -21.1980   -3.8270   26.0330 F   0  0  0  0  0  0  0  0  0  0  0  0
  -22.6740  -13.5870   21.1410 C   0  0  0  0  0  0  0  0  0  0  0  0
  -21.9500  -12.8920   22.0120 N   0  0  0  0  0  0  0  0  0  0  0  0
  -22.2300  -14.6040   20.6110 O   0  0  0  0  0  0  0  0  0  0  0  0
  -22.3230  -12.0700   22.4630 H   0  0  0  0  0  0  0  0  0  0  0  0
  -21.0100  -13.1890   22.2330 H   0  0  0  0  0  0  0  0  0  0  0  0
  -25.2770  -15.2790   20.3300 N   0  0  0  0  0  0  0  0  0  0  0  0
  -24.5000  -15.9220   20.4360 H   0  0  0  0  0  0  0  0  0  0  0  0
  -26.1090  -15.7210   19.9640 H   0  0  0  0  0  0  0  0  0  0  0  0
  -27.9340  -23.8840   20.1200 C   0  0  0  0  0  2  0  0  0  0  0  0
  -28.1280  -25.6130   20.2770 O   0  0  0  0  0  0  0  0  0  0  0  0
  -24.6160  -31.8570   23.1930 C   0  0  0  0  0  0  0  0  0  0  0  0
  -27.1510  -26.8070   20.2120 C   0  0  0  0  0  0  0  0  0  0  0  0
  -23.4330  -30.4670   21.5460 C   0  0  0  0  0  3  0  0  0  0  0  0
  -24.8850  -28.8220   20.1400 C   0  0  0  0  0  0  0  0  0  0  0  0
  -26.0110  -30.6110   21.4380 C   0  0  0  0  0  2  0  0  0  0  0  0
  -26.0760  -29.1830   20.7800 C   0  0  0  0  0  0  0  0  0  0  0  0
  -27.1950  -28.2040   20.7840 C   0  0  0  0  0  3  0  0  0  0  0  0
  -25.9260  -26.6450   19.5180 C   0  0  0  0  0  3  0  0  0  0  0  0
  -24.8460  -27.5780   19.4860 C   0  0  0  0  0  3  0  0  0  0  0  0
  -23.6790  -29.7720   20.1750 C   0  0  0  0  0  2  0  0  0  0  0  0
  -24.7110  -31.0100   22.1110 N   0  0  0  0  0  0  0  0  0  0  0  0
  -23.5210  -32.1600   23.6970 O   0  0  0  0  0  0  0  0  0  0  0  0
  -22.7100  -29.4880   22.5100 C   0  0  0  0  0  0  0  0  0  0  0  0
  -21.3750  -29.3500   22.3860 N   0  0  0  0  0  0  0  0  0  0  0  0
  -23.3600  -28.8510   23.3420 O   0  0  0  0  0  0  0  0  0  0  0  0
  -20.9020  -29.9140   21.6940 H   0  0  0  0  0  0  0  0  0  0  0  0
  -17.9720  -28.1910   22.9090 C   0  0  0  0  0  0  0  0  0  0  0  0
  -20.5380  -28.4190   23.1530 C   0  0  0  0  0  3  0  0  0  0  0  0
  -20.6120  -26.9910   22.5630 C   0  0  0  0  0  2  0  0  0  0  0  0
  -19.4990  -26.6970   21.5540 C   0  0  0  0  0  2  0  0  0  0  0  0
  -18.1240  -26.8510   22.2100 C   0  0  0  0  0  2  0  0  0  0  0  0
  -19.1040  -28.9350   23.3380 C   0  0  0  0  0  0  0  0  0  0  0  0
  -18.9050  -30.1880   23.9570 C   0  0  0  0  0  3  0  0  0  0  0  0
  -17.6070  -30.6980   24.1470 C   0  0  0  0  0  3  0  0  0  0  0  0
  -16.4900  -29.9540   23.7320 C   0  0  0  0  0  3  0  0  0  0  0  0
  -16.6730  -28.7010   23.1190 C   0  0  0  0  0  3  0  0  0  0  0  0
  -25.8780  -32.5010   23.8420 C   0  0  0  0  0  3  0  0  0  0  0  0
  -25.5610  -33.9050   24.1710 N   0  0  0  0  0  0  0  0  0  0  0  0
  -25.8890  -34.9660   23.4210 C   0  0  0  0  0  0  0  0  0  0  0  0
  -26.5480  -34.8670   22.3830 O   0  0  0  0  0  0  0  0  0  0  0  0
  -24.9730  -34.0540   24.9770 H   0  0  0  0  0  0  0  0  0  0  0  0
  -24.1530  -36.7680   23.1190 C   0  0  0  0  0  1  0  0  0  0  0  0
  -25.4150  -36.3580   23.8950 C   0  0  0  0  0  3  0  0  0  0  0  0
  -27.5670  -37.2520   24.6740 C   0  0  0  0  0  1  0  0  0  0  0  0
  -26.4440  -37.4120   23.7550 N   0  0  0  0  0  0  0  0  0  0  0  0
  -26.0400  -38.3320   23.9060 H   0  0  0  0  0  0  0  0  0  0  0  0
  -26.3580  -31.7440   25.1420 C   0  0  1  0  0  0  0  0  0  0  0  0
  -25.2400  -31.5320   26.1920 C   0  0  0  0  0  1  0  0  0  0  0  0
  -26.9370  -30.3540   24.7930 C   0  0  0  0  0  1  0  0  0  0  0  0
  -27.5020  -32.5350   25.8180 C   0  0  0  0  0  1  0  0  0  0  0  0
  1  4  1  0
  2  3  1  0
  2  1  1  0
  2  5  1  0
  3  6  1  0
  4 45  1  0
  5  4  1  0
  6 15  1  0
  6  5  1  0
  7 15  1  0
  8 13  1  0
  9 10  1  0
  9  8  1  0
 10 11  1  0
 11 20  1  0
 11 12  1  0
 13  7  1  0
 13 12  1  0
 14  7  2  0
 15 16  1  0
 17 18  2  0
 18 37  1  0
 19 18  1  0
 19 22  1  0
 20 17  1  0
 20 21  1  0
 21 19  2  0
 22 23  1  0
 23 24  2  0
 25 28  1  0
 25 24  1  0
 26 25  2  0
 27 26  1  0
 27 22  2  0
 28 29  1  0
 29 30  1  0
 30 31  2  0
 32 31  1  0
 32 36  1  0
 33 32  2  0
 34 29  2  0
 34 33  1  0
 35 34  1  0
 37 38  1  0
 38 41  1  0
 38 40  1  0
 39 37  2  0
 42 43  1  0
 42 17  1  0
 44 42  1  0
 45 46  1  0
 47 58  2  0
 47 73  1  0
 48 46  1  0
 48 53  1  0
 49 57  1  0
 49 59  1  0
 50 56  1  0
 50 52  1  0
 51 57  1  0
 52 53  2  0
 52 51  1  0
 54 48  2  0
 55 54  1  0
 55 50  2  0
 56 49  1  0
 57 47  1  0
 59 61  2  0
 60 59  1  0
 60 64  1  0
 62 60  1  0
 63 72  2  0
 63 68  1  0
 64 68  1  0
 65 64  1  0
 66 67  1  0
 66 65  1  0
 67 63  1  0
 68 69  2  0
 69 70  1  0
 71 70  2  0
 72 71  1  0
 73 74  1  0
 73 83  1  0
 74 77  1  0
 75 79  1  0
 75 74  1  0
 76 75  2  0
 78 79  1  0
 81 79  1  0
 81 82  1  0
 81 80  1  0
 83 86  1  1
 83 84  1  0
 85 83  1  0
M  ISO  4   7 100  15 100  45 101  46 101
M  END
>  <TORSDO>  (24) 
F 17

>  <SCORE>  (24) 
-16.470

>  <name>  (24) 
24

>  <ligand_id>  (24) 
24

>  <original_smiles>  (24) 
[H]C1=C2C([H])([H])C([H])(N([H])C(=O)N3C([H])([H])C([H])([H])C([H])([H])C([H])(n4nc(-c5c([H])c([H])c(Oc6c([H])c([H])c(F)c([H])c6F)c([H])c5[H])c(C(=O)N([H])[H])c4N([H])[H])C3([H])[H])C2([H])C1([H])C([H])([H])Oc1c([H])c([H])c2c(c1[H])C([H])([H])N(C(=O)C([H])(N([H])C(=O)C([H])(N([H])C([H])([H])[H])C([H])([H])[H])C(C([H])([H])[H])(C([H])([H])[H])C([H])([H])[H])C([H])(C(=O)N([H])C1([H])c3c([H])c([H])c([H])c([H])c3C([H])([H])C([H])([H])C1([H])[H])C2([H])[H]

>  <smiles>  (24) 
[H]C1=C2C([H])([H])C([H])(N([H])C(=O)N3C([H])([H])C([H])([H])C([H])([H])C([H])(n4nc(-c5c([H])c([H])c(Oc6c([H])c([H])c(F)c([H])c6F)c([H])c5[H])c(C(=O)N([H])[H])c4N([H])[H])C3([H])[H])C2([H])C1([H])C([H])([H])Oc1c([H])c([H])c2c(c1[H])C([H])([H])N(C(=O)C([H])(N([H])C(=O)C([H])(N([H])C([H])([H])[H])C([H])([H])[H])C(C([H])([H])[H])(C([H])([H])[H])C([H])([H])[H])C([H])(C(=O)N([H])C1([H])c3c([H])c([H])c([H])c([H])c3C([H])([H])C([H])([H])C1([H])[H])C2([H])[H]

$$$$
25:0:0
     RDKit          3D

 90100  0  0  1  0  0  0  0  0999 V2000
  -29.8590  -17.9170   20.0110 C   0  0  0  0  0  0  0  0  0  0  0  0
  -29.2930  -17.6720   21.3940 C   0  0  0  0  0  2  0  0  0  0  0  0
  -31.6060  -17.5530   22.7430 C   0  0  0  0  0  2  0  0  0  0  0  0
  -32.3040  -18.7270   22.0520 C   0  0  0  0  0  2  0  0  0  0  0  0
  -29.1090  -21.0350   21.2050 C   0  0  0  0  0  2  0  0  0  0  0  0
  -29.9400  -19.6870   19.6780 C   0  0  0  0  0  3  0  0  0  0  0  0
  -30.2430  -18.2190   22.4760 C   0  0  0  0  0  3  0  0  0  0  0  0
  -30.9980  -19.5260   22.1630 C   0  0  0  0  0  3  0  0  0  0  0  0
  -30.4800  -20.3600   20.9780 C   0  0  0  0  0  3  0  0  0  0  0  0
  -28.8860  -21.1450   19.7080 C   0  0  0  0  0  3  0  0  0  0  0  0
  -30.4660  -16.8580   19.3420 N   0  0  0  0  0  0  0  0  0  0  0  0
  -30.8350  -15.3460   19.3660 C   0  0  0  0  0  0  0  0  0  0  0  0
  -30.5950  -12.8750   18.6920 C   0  0  0  0  0  2  0  0  0  0  0  0
  -29.5660  -12.6130   17.5680 C   0  0  0  0  0  2  0  0  0  0  0  0
  -28.1910  -12.3310   18.1800 C   0  0  0  0  0  2  0  0  0  0  0  0
  -27.8410  -13.3510   19.2900 C   0  0  0  0  0  3  0  0  0  0  0  0
  -28.9990  -13.6300   20.2770 C   0  0  0  0  0  2  0  0  0  0  0  0
  -30.1540  -14.0970   19.4880 N   0  0  0  0  0  0  0  0  0  0  0  0
  -32.0080  -15.1400   19.0460 O   0  0  0  0  0  0  0  0  0  0  0  0
  -25.6240  -13.8960   20.4120 C   0  0  0  0  0  0  0  0  0  0  0  0
  -24.6040  -13.1200   20.8800 C   0  0  0  0  0  0  0  0  0  0  0  0
  -25.0200  -11.7650   20.6970 C   0  0  0  0  0  0  0  0  0  0  0  0
  -26.5970  -13.0200   19.9690 N   0  0  0  0  0  0  0  0  0  0  0  0
  -26.2550  -11.7250   20.2040 N   0  0  0  0  0  0  0  0  0  0  0  0
  -24.2840  -10.5100   20.9050 C   0  0  0  0  0  0  0  0  0  0  0  0
  -24.7290   -9.5370   21.8260 C   0  0  0  0  0  3  0  0  0  0  0  0
  -23.9900   -8.3510   22.0280 C   0  0  0  0  0  3  0  0  0  0  0  0
  -22.7930   -8.1270   21.3060 C   0  0  0  0  0  0  0  0  0  0  0  0
  -22.3680   -9.0880   20.3720 C   0  0  0  0  0  3  0  0  0  0  0  0
  -23.1070  -10.2650   20.1690 C   0  0  0  0  0  3  0  0  0  0  0  0
  -22.0250   -6.9940   21.4170 O   0  0  0  0  0  0  0  0  0  0  0  0
  -21.8700   -6.3430   22.6130 C   0  0  0  0  0  0  0  0  0  0  0  0
  -21.3290   -6.9860   23.7490 C   0  0  0  0  0  3  0  0  0  0  0  0
  -21.1230   -6.2590   24.9380 C   0  0  0  0  0  3  0  0  0  0  0  0
  -21.4480   -4.8910   24.9940 C   0  0  0  0  0  0  0  0  0  0  0  0
  -21.9810   -4.2480   23.8630 C   0  0  0  0  0  3  0  0  0  0  0  0
  -22.1890   -4.9720   22.6760 C   0  0  0  0  0  0  0  0  0  0  0  0
  -22.6820   -4.3420   21.5830 F   0  0  0  0  0  0  0  0  0  0  0  0
  -21.2420   -4.1900   26.1330 F   0  0  0  0  0  0  0  0  0  0  0  0
  -23.2720  -13.6100   21.3670 C   0  0  0  0  0  0  0  0  0  0  0  0
  -22.6590  -12.8880   22.2960 N   0  0  0  0  0  0  0  0  0  0  0  0
  -22.7940  -14.6670   20.9580 O   0  0  0  0  0  0  0  0  0  0  0  0
  -23.0670  -12.0360   22.6510 H   0  0  0  0  0  0  0  0  0  0  0  0
  -21.7660  -13.1930   22.6600 H   0  0  0  0  0  0  0  0  0  0  0  0
  -25.7910  -15.2720   20.2910 N   0  0  0  0  0  0  0  0  0  0  0  0
  -25.0450  -15.9180   20.5240 H   0  0  0  0  0  0  0  0  0  0  0  0
  -26.5680  -15.7110   19.8200 H   0  0  0  0  0  0  0  0  0  0  0  0
  -29.0260  -22.8530   19.1630 C   0  0  0  0  0  3  0  0  0  0  0  0
  -27.9660  -24.2860   19.3610 C   0  0  0  0  0  3  0  0  0  0  0  0
  -28.1760  -25.9140   19.2540 O   0  0  0  0  0  0  0  0  0  0  0  0
  -24.6210  -31.4810   22.8790 C   0  0  0  0  0  0  0  0  0  0  0  0
  -27.1310  -26.9700   19.3370 C   0  0  0  0  0  0  0  0  0  0  0  0
  -23.3760  -30.1960   21.1890 C   0  0  0  0  0  3  0  0  0  0  0  0
  -24.7850  -28.7650   19.5600 C   0  0  0  0  0  0  0  0  0  0  0  0
  -25.9220  -30.5010   20.9290 C   0  0  0  0  0  2  0  0  0  0  0  0
  -25.9930  -29.1580   20.1510 C   0  0  0  0  0  0  0  0  0  0  0  0
  -27.1600  -28.2850   20.0120 C   0  0  0  0  0  3  0  0  0  0  0  0
  -25.8870  -26.7250   18.7150 C   0  0  0  0  0  3  0  0  0  0  0  0
  -24.7540  -27.5720   18.8210 C   0  0  0  0  0  3  0  0  0  0  0  0
  -23.5460  -29.6380   19.7490 C   0  0  0  0  0  2  0  0  0  0  0  0
  -24.6630  -30.7480   21.7200 N   0  0  0  0  0  0  0  0  0  0  0  0
  -23.5550  -31.6930   23.4780 O   0  0  0  0  0  0  0  0  0  0  0  0
  -22.7590  -29.1010   22.0970 C   0  0  0  0  0  0  0  0  0  0  0  0
  -21.4310  -28.9000   22.0150 N   0  0  0  0  0  0  0  0  0  0  0  0
  -23.4810  -28.4350   22.8440 O   0  0  0  0  0  0  0  0  0  0  0  0
  -20.8990  -29.4910   21.3910 H   0  0  0  0  0  0  0  0  0  0  0  0
  -18.1210  -27.5080   22.5280 C   0  0  0  0  0  0  0  0  0  0  0  0
  -20.6720  -27.8730   22.7390 C   0  0  0  0  0  3  0  0  0  0  0  0
  -20.8200  -26.4910   22.0620 C   0  0  0  0  0  2  0  0  0  0  0  0
  -19.7030  -26.1880   21.0580 C   0  0  0  0  0  2  0  0  0  0  0  0
  -18.3370  -26.2210   21.7480 C   0  0  0  0  0  2  0  0  0  0  0  0
  -19.2160  -28.2920   22.9770 C   0  0  0  0  0  0  0  0  0  0  0  0
  -18.9560  -29.4960   23.6670 C   0  0  0  0  0  3  0  0  0  0  0  0
  -17.6350  -29.9170   23.9110 C   0  0  0  0  0  3  0  0  0  0  0  0
  -16.5550  -29.1290   23.4750 C   0  0  0  0  0  3  0  0  0  0  0  0
  -16.7990  -27.9250   22.7900 C   0  0  0  0  0  3  0  0  0  0  0  0
  -25.9090  -32.1020   23.5000 C   0  0  0  0  0  3  0  0  0  0  0  0
  -25.5750  -33.4590   23.9700 N   0  0  0  0  0  0  0  0  0  0  0  0
  -25.8260  -34.5890   23.2950 C   0  0  0  0  0  0  0  0  0  0  0  0
  -26.4260  -34.6010   22.2170 O   0  0  0  0  0  0  0  0  0  0  0  0
  -25.0320  -33.5200   24.8180 H   0  0  0  0  0  0  0  0  0  0  0  0
  -24.0220  -36.3450   23.2420 C   0  0  0  0  0  1  0  0  0  0  0  0
  -25.3370  -35.9160   23.9100 C   0  0  0  0  0  3  0  0  0  0  0  0
  -27.5020  -36.8130   24.6470 C   0  0  0  0  0  1  0  0  0  0  0  0
  -26.3230  -37.0140   23.8080 N   0  0  0  0  0  0  0  0  0  0  0  0
  -25.9000  -37.9020   24.0630 H   0  0  0  0  0  0  0  0  0  0  0  0
  -26.5000  -31.2460   24.6880 C   0  0  1  0  0  0  0  0  0  0  0  0
  -25.4660  -30.9030   25.7870 C   0  0  0  0  0  1  0  0  0  0  0  0
  -27.0880  -29.9130   24.1710 C   0  0  0  0  0  1  0  0  0  0  0  0
  -27.6680  -32.0120   25.3540 C   0  0  0  0  0  1  0  0  0  0  0  0
  1  2  1  0
  4  3  1  0
  6 10  1  0
  6  1  1  0
  6  9  1  0
  7  2  1  0
  7  3  1  0
  8  4  1  0
  8  7  1  0
  9  5  1  0
  9  8  1  0
 10 48  1  0
 10  5  1  0
 11 12  1  0
 11  1  2  0
 12 18  1  0
 13 18  1  0
 14 15  1  0
 14 13  1  0
 16 15  1  0
 16 23  1  0
 16 17  1  0
 18 17  1  0
 19 12  2  0
 20 21  2  0
 21 40  1  0
 22 21  1  0
 22 25  1  0
 23 24  1  0
 23 20  1  0
 24 22  2  0
 25 26  1  0
 26 27  2  0
 28 31  1  0
 28 27  1  0
 29 28  2  0
 30 29  1  0
 30 25  2  0
 31 32  1  0
 32 37  2  0
 32 33  1  0
 33 34  2  0
 34 35  1  0
 35 39  1  0
 36 35  2  0
 37 36  1  0
 38 37  1  0
 40 41  1  0
 41 43  1  0
 41 44  1  0
 42 40  2  0
 45 20  1  0
 45 46  1  0
 47 45  1  0
 48 49  2  0
 50 52  1  0
 50 49  1  0
 51 62  2  0
 52 57  1  0
 53 61  1  0
 53 63  1  0
 54 60  1  0
 54 56  1  0
 55 61  1  0
 56 55  1  0
 57 56  2  0
 58 59  1  0
 58 52  2  0
 59 54  2  0
 60 53  1  0
 61 51  1  0
 63 65  2  0
 64 63  1  0
 66 64  1  0
 67 76  2  0
 67 72  1  0
 68 64  1  0
 68 72  1  0
 69 68  1  0
 70 71  1  0
 70 69  1  0
 71 67  1  0
 72 73  2  0
 73 74  1  0
 75 74  2  0
 76 75  1  0
 77 51  1  0
 77 78  1  0
 77 87  1  0
 78 81  1  0
 79 83  1  0
 79 78  1  0
 80 79  2  0
 83 82  1  0
 85 83  1  0
 85 86  1  0
 85 84  1  0
 87 90  1  1
 87 88  1  0
 89 87  1  0
M  ISO  4  11 100  12 100  49 101  50 101
M  END
>  <TORSDO>  (25) 
F 18

>  <SCORE>  (25) 
-12.211

>  <name>  (25) 
25

>  <ligand_id>  (25) 
25

>  <original_smiles>  (25) 
[H]c1c([H])c([H])c2c(c1[H])C([H])([H])C([H])([H])C([H])([H])C2([H])N([H])C(=O)C1([H])N(C(=O)C([H])(N([H])C(=O)C([H])(N([H])C([H])([H])[H])C([H])([H])[H])C(C([H])([H])[H])(C([H])([H])[H])C([H])([H])[H])C([H])([H])c2c([H])c(OC([H])([H])C([H])([H])C3([H])C([H])([H])C4([H])C3([H])C(=NC(=O)N3C([H])([H])C([H])([H])C([H])([H])C([H])(n5nc(-c6c([H])c([H])c(Oc7c([H])c([H])c(F)c([H])c7F)c([H])c6[H])c(C(=O)N([H])[H])c5N([H])[H])C3([H])[H])C([H])([H])C3([H])C([H])([H])C([H])([H])C34[H])c([H])c([H])c2C1([H])[H]

>  <smiles>  (25) 
[H]c1c([H])c([H])c2c(c1[H])C([H])([H])C([H])([H])C([H])([H])C2([H])N([H])C(=O)C1([H])N(C(=O)C([H])(N([H])C(=O)C([H])(N([H])C([H])([H])[H])C([H])([H])[H])C(C([H])([H])[H])(C([H])([H])[H])C([H])([H])[H])C([H])([H])c2c([H])c(OC([H])([H])C([H])([H])C3([H])C([H])([H])C4([H])C3([H])C(=NC(=O)N3C([H])([H])C([H])([H])C([H])([H])C([H])(n5nc(-c6c([H])c([H])c(Oc7c([H])c([H])c(F)c([H])c7F)c([H])c6[H])c(C(=O)N([H])[H])c5N([H])[H])C3([H])[H])C([H])([H])C3([H])C([H])([H])C([H])([H])C34[H])c([H])c([H])c2C1([H])[H]

$$$$
26:0:0
     RDKit          3D

 91 98  0  0  1  0  0  0  0  0999 V2000
  -29.1110  -22.8640   20.5000 N   0  0  0  0  0  4  0  0  0  0  0  0
  -30.0270  -22.9540   20.9130 H   0  0  0  0  0  0  0  0  0  0  0  0
  -28.4610  -22.7150   21.2570 H   0  0  0  0  0  0  0  0  0  0  0  0
  -29.0920  -21.6360   19.6440 C   0  0  0  0  0  2  0  0  0  0  0  0
  -30.1730  -20.5400   19.9490 C   0  0  0  0  0  3  0  0  0  0  0  0
  -29.8770  -19.4860   21.0590 C   0  0  0  0  0  3  0  0  0  0  0  0
  -30.6450  -17.6010   22.5460 C   0  0  0  0  0  1  0  0  0  0  0  0
  -32.2090  -18.4220   20.7730 C   0  0  0  0  0  1  0  0  0  0  0  0
  -30.7250  -18.1420   21.0980 C   0  0  2  0  0  0  0  0  0  0  0  0
  -30.2130  -17.0510   20.0870 C   0  0  0  0  0  2  0  0  0  0  0  0
  -30.9540  -14.5960   20.0970 C   0  0  0  0  0  0  0  0  0  0  0  0
  -30.6430  -12.3900   19.0220 C   0  0  0  0  0  2  0  0  0  0  0  0
  -29.6770  -12.5880   17.8340 C   0  0  0  0  0  2  0  0  0  0  0  0
  -28.2090  -12.4720   18.2950 C   0  0  0  0  0  2  0  0  0  0  0  0
  -27.9110  -13.3330   19.5530 C   0  0  0  0  0  3  0  0  0  0  0  0
  -28.9870  -13.1120   20.6430 C   0  0  0  0  0  2  0  0  0  0  0  0
  -30.3040  -13.3960   20.0460 N   0  0  0  0  0  0  0  0  0  0  0  0
  -32.0630  -14.7700   19.5850 O   0  0  0  0  0  0  0  0  0  0  0  0
  -30.2100  -15.6330   20.5480 N   0  0  0  0  0  0  0  0  0  0  0  0
  -29.3660  -15.3540   21.0270 H   0  0  0  0  0  0  0  0  0  0  0  0
  -25.5450  -14.0030   20.3160 C   0  0  0  0  0  0  0  0  0  0  0  0
  -24.4660  -13.2610   20.7130 C   0  0  0  0  0  0  0  0  0  0  0  0
  -24.8920  -11.8970   20.6750 C   0  0  0  0  0  0  0  0  0  0  0  0
  -26.5610  -13.0950   20.0630 N   0  0  0  0  0  0  0  0  0  0  0  0
  -26.1720  -11.8230   20.3370 N   0  0  0  0  0  0  0  0  0  0  0  0
  -24.1390  -10.6550   20.8880 C   0  0  0  0  0  0  0  0  0  0  0  0
  -24.5630   -9.6850   21.8220 C   0  0  0  0  0  3  0  0  0  0  0  0
  -23.8130   -8.5070   22.0230 C   0  0  0  0  0  3  0  0  0  0  0  0
  -22.6220   -8.2890   21.2880 C   0  0  0  0  0  0  0  0  0  0  0  0
  -22.2160   -9.2480   20.3440 C   0  0  0  0  0  3  0  0  0  0  0  0
  -22.9670  -10.4190   20.1410 C   0  0  0  0  0  3  0  0  0  0  0  0
  -21.8430   -7.1630   21.3970 O   0  0  0  0  0  0  0  0  0  0  0  0
  -21.7780   -6.4410   22.5610 C   0  0  0  0  0  0  0  0  0  0  0  0
  -21.3840   -7.0300   23.7820 C   0  0  0  0  0  3  0  0  0  0  0  0
  -21.2660   -6.2350   24.9420 C   0  0  0  0  0  3  0  0  0  0  0  0
  -21.5300   -4.8540   24.8780 C   0  0  0  0  0  0  0  0  0  0  0  0
  -21.9170   -4.2660   23.6620 C   0  0  0  0  0  3  0  0  0  0  0  0
  -22.0380   -5.0550   22.5070 C   0  0  0  0  0  0  0  0  0  0  0  0
  -22.3900   -4.4790   21.3320 F   0  0  0  0  0  0  0  0  0  0  0  0
  -21.4100   -4.0900   25.9890 F   0  0  0  0  0  0  0  0  0  0  0  0
  -23.0890  -13.7750   21.0170 C   0  0  0  0  0  0  0  0  0  0  0  0
  -22.3680  -13.1070   21.9140 N   0  0  0  0  0  0  0  0  0  0  0  0
  -22.6600  -14.8020   20.4980 O   0  0  0  0  0  0  0  0  0  0  0  0
  -22.7270  -12.2760   22.3570 H   0  0  0  0  0  0  0  0  0  0  0  0
  -21.4450  -13.4370   22.1560 H   0  0  0  0  0  0  0  0  0  0  0  0
  -25.7400  -15.3720   20.1270 N   0  0  0  0  0  0  0  0  0  0  0  0
  -24.9920  -16.0450   20.2530 H   0  0  0  0  0  0  0  0  0  0  0  0
  -26.5900  -15.7840   19.7640 H   0  0  0  0  0  0  0  0  0  0  0  0
  -28.7780  -24.1590   19.8040 C   0  0  0  0  0  2  0  0  0  0  0  0
  -28.3790  -25.3250   20.7680 C   0  0  0  0  0  2  0  0  0  0  0  0
  -28.4260  -26.6530   20.1860 O   0  0  0  0  0  0  0  0  0  0  0  0
  -24.6200  -31.8780   23.2520 C   0  0  0  0  0  0  0  0  0  0  0  0
  -27.2600  -27.3970   20.2130 C   0  0  0  0  0  0  0  0  0  0  0  0
  -23.4140  -30.4740   21.6100 C   0  0  0  0  0  3  0  0  0  0  0  0
  -24.8660  -28.9220   20.1990 C   0  0  0  0  0  0  0  0  0  0  0  0
  -25.9370  -30.8300   21.4060 C   0  0  0  0  0  2  0  0  0  0  0  0
  -26.0270  -29.4480   20.7830 C   0  0  0  0  0  0  0  0  0  0  0  0
  -27.2290  -28.6970   20.7820 C   0  0  0  0  0  3  0  0  0  0  0  0
  -26.0800  -26.8900   19.6250 C   0  0  0  0  0  3  0  0  0  0  0  0
  -24.8900  -27.6440   19.6130 C   0  0  0  0  0  3  0  0  0  0  0  0
  -23.6240  -29.7830   20.2330 C   0  0  0  0  0  2  0  0  0  0  0  0
  -24.6770  -31.0790   22.1480 N   0  0  0  0  0  0  0  0  0  0  0  0
  -23.5380  -32.1480   23.7940 O   0  0  0  0  0  0  0  0  0  0  0  0
  -22.7590  -29.4600   22.5750 C   0  0  0  0  0  0  0  0  0  0  0  0
  -21.4350  -29.2750   22.4450 N   0  0  0  0  0  0  0  0  0  0  0  0
  -23.4390  -28.8440   23.4000 O   0  0  0  0  0  0  0  0  0  0  0  0
  -20.9450  -29.8200   21.7480 H   0  0  0  0  0  0  0  0  0  0  0  0
  -18.0650  -28.0570   22.9120 C   0  0  0  0  0  0  0  0  0  0  0  0
  -20.6160  -28.3400   23.2190 C   0  0  0  0  0  3  0  0  0  0  0  0
  -20.7420  -26.9040   22.6610 C   0  0  0  0  0  2  0  0  0  0  0  0
  -19.6580  -26.5600   21.6360 C   0  0  0  0  0  2  0  0  0  0  0  0
  -18.2640  -26.7010   22.2560 C   0  0  0  0  0  2  0  0  0  0  0  0
  -19.1700  -28.8340   23.3480 C   0  0  0  0  0  0  0  0  0  0  0  0
  -18.9320  -30.1030   23.9160 C   0  0  0  0  0  3  0  0  0  0  0  0
  -17.6190  -30.5930   24.0610 C   0  0  0  0  0  3  0  0  0  0  0  0
  -16.5280  -29.8150   23.6380 C   0  0  0  0  0  3  0  0  0  0  0  0
  -16.7530  -28.5480   23.0680 C   0  0  0  0  0  3  0  0  0  0  0  0
  -25.9040  -32.5090   23.8730 C   0  0  0  0  0  3  0  0  0  0  0  0
  -25.6020  -33.9090   24.1950 N   0  0  0  0  0  0  0  0  0  0  0  0
  -25.9370  -34.9580   23.4310 C   0  0  0  0  0  0  0  0  0  0  0  0
  -26.6050  -34.8480   22.3980 O   0  0  0  0  0  0  0  0  0  0  0  0
  -25.0140  -34.0690   25.0010 H   0  0  0  0  0  0  0  0  0  0  0  0
  -24.2080  -36.7490   23.0670 C   0  0  0  0  0  1  0  0  0  0  0  0
  -25.4500  -36.3500   23.8800 C   0  0  0  0  0  3  0  0  0  0  0  0
  -27.5880  -37.2350   24.6980 C   0  0  0  0  0  1  0  0  0  0  0  0
  -26.4830  -37.4020   23.7580 N   0  0  0  0  0  0  0  0  0  0  0  0
  -26.0780  -38.3230   23.9050 H   0  0  0  0  0  0  0  0  0  0  0  0
  -26.4220  -31.7380   25.1500 C   0  0  1  0  0  0  0  0  0  0  0  0
  -25.3310  -31.5050   26.2180 C   0  0  0  0  0  1  0  0  0  0  0  0
  -26.9980  -30.3600   24.7550 C   0  0  0  0  0  1  0  0  0  0  0  0
  -27.5800  -32.5280   25.8060 C   0  0  0  0  0  1  0  0  0  0  0  0
  1  2  1  0
  1  3  1  0
  4  5  1  0
  4  1  1  0
  5  6  2  0
  6  9  1  0
  9  8  1  6
  9  7  1  0
 10 19  1  0
 10  9  1  0
 11 19  1  0
 12 17  1  0
 13 14  1  0
 13 12  1  0
 15 14  1  0
 15 24  1  0
 15 16  1  0
 17 11  1  0
 17 16  1  0
 18 11  2  0
 19 20  1  0
 21 22  2  0
 22 41  1  0
 23 22  1  0
 23 26  1  0
 24 21  1  0
 24 25  1  0
 25 23  2  0
 26 27  1  0
 27 28  2  0
 29 32  1  0
 29 28  1  0
 30 29  2  0
 31 30  1  0
 31 26  2  0
 32 33  1  0
 33 34  1  0
 34 35  2  0
 36 35  1  0
 36 40  1  0
 37 36  2  0
 38 33  2  0
 38 37  1  0
 39 38  1  0
 41 42  1  0
 42 45  1  0
 42 44  1  0
 43 41  2  0
 46 47  1  0
 46 21  1  0
 48 46  1  0
 49  1  1  0
 49 50  1  0
 51 53  1  0
 51 50  1  0
 52 63  2  0
 53 58  1  0
 54 62  1  0
 54 64  1  0
 55 61  1  0
 55 57  1  0
 56 62  1  0
 57 56  1  0
 58 57  2  0
 59 53  2  0
 60 59  1  0
 60 55  2  0
 61 54  1  0
 62 52  1  0
 64 66  2  0
 65 64  1  0
 67 65  1  0
 68 77  2  0
 68 73  1  0
 69 65  1  0
 69 73  1  0
 70 69  1  0
 71 72  1  0
 71 70  1  0
 72 68  1  0
 73 74  2  0
 74 75  1  0
 76 75  2  0
 77 76  1  0
 78 52  1  0
 78 79  1  0
 78 88  1  0
 79 82  1  0
 80 84  1  0
 80 79  1  0
 81 80  2  0
 84 83  1  0
 86 84  1  0
 86 87  1  0
 86 85  1  0
 88 91  1  1
 88 89  1  0
 90 88  1  0
M  ISO  4  11 100  19 100  50 101  51 101
M  END
>  <TORSDO>  (26) 
F 23

>  <SCORE>  (26) 
-12.471

>  <name>  (26) 
26

>  <ligand_id>  (26) 
26

>  <original_smiles>  (26) 
[H]c1c([H])c([H])c2c(c1[H])C([H])([H])C([H])([H])C([H])([H])C2([H])N([H])C(=O)C1([H])N(C(=O)C([H])(N([H])C(=O)C([H])(N([H])C([H])([H])[H])C([H])([H])[H])C(C([H])([H])[H])(C([H])([H])[H])C([H])([H])[H])C([H])([H])c2c([H])c(OC([H])([H])C([H])([H])[N+]([H])([H])C([H])([H])C([H])([H])C([H])([H])C(C([H])([H])[H])(C([H])([H])[H])C([H])([H])N([H])C(=O)N3C([H])([H])C([H])([H])C([H])([H])C([H])(n4nc(-c5c([H])c([H])c(Oc6c([H])c([H])c(F)c([H])c6F)c([H])c5[H])c(C(=O)N([H])[H])c4N([H])[H])C3([H])[H])c([H])c([H])c2C1([H])[H]

>  <smiles>  (26) 
[H]c1c([H])c([H])c2c(c1[H])C([H])([H])C([H])([H])C([H])([H])C2([H])N([H])C(=O)C1([H])N(C(=O)C([H])(N([H])C(=O)C([H])(N([H])C([H])([H])[H])C([H])([H])[H])C(C([H])([H])[H])(C([H])([H])[H])C([H])([H])[H])C([H])([H])c2c([H])c(OC([H])([H])C([H])([H])[N+]([H])([H])C([H])([H])C([H])([H])C([H])([H])C(C([H])([H])[H])(C([H])([H])[H])C([H])([H])N([H])C(=O)N3C([H])([H])C([H])([H])C([H])([H])C([H])(n4nc(-c5c([H])c([H])c(Oc6c([H])c([H])c(F)c([H])c6F)c([H])c5[H])c(C(=O)N([H])[H])c4N([H])[H])C3([H])[H])c([H])c([H])c2C1([H])[H]

$$$$
27:0:0
     RDKit          3D

 91100  0  0  1  0  0  0  0  0999 V2000
  -29.5170  -23.8350   18.0910 C   0  0  0  0  0  2  0  0  0  0  0  0
  -28.0900  -24.2270   18.5330 C   0  0  0  0  0  2  0  0  0  0  0  0
  -28.7150  -23.7970   21.2810 C   0  0  0  0  0  2  0  0  0  0  0  0
  -30.1610  -23.1260   19.2900 C   0  0  0  0  0  3  0  0  0  0  0  0
  -28.9890  -22.8230   20.2180 C   0  0  2  0  0  0  0  0  0  0  0  0
  -28.0070  -24.3250   20.0530 C   0  0  2  0  0  0  0  0  0  0  0  0
  -31.2810  -22.1000   19.0210 C   0  0  0  0  0  0  0  0  0  0  0  0
  -31.9740  -22.1140   17.6640 C   0  0  0  0  0  1  0  0  0  0  0  0
  -31.7340  -21.3870   19.9200 O   0  0  0  0  0  0  0  0  0  0  0  0
  -28.2030  -25.9310   20.2630 O   0  0  0  0  0  0  0  0  0  0  0  0
  -24.6490  -31.8430   23.2080 C   0  0  0  0  0  0  0  0  0  0  0  0
  -27.1740  -26.9920   20.1910 C   0  0  0  0  0  0  0  0  0  0  0  0
  -23.4360  -30.4460   21.5840 C   0  0  0  0  0  3  0  0  0  0  0  0
  -24.8690  -28.8430   20.1540 C   0  0  0  0  0  0  0  0  0  0  0  0
  -26.0010  -30.6650   21.4120 C   0  0  0  0  0  2  0  0  0  0  0  0
  -26.0630  -29.2590   20.7590 C   0  0  0  0  0  0  0  0  0  0  0  0
  -27.2110  -28.3550   20.7490 C   0  0  0  0  0  3  0  0  0  0  0  0
  -25.9430  -26.7060   19.5590 C   0  0  0  0  0  3  0  0  0  0  0  0
  -24.8320  -27.5840   19.5360 C   0  0  0  0  0  3  0  0  0  0  0  0
  -23.6520  -29.7620   20.2060 C   0  0  0  0  0  2  0  0  0  0  0  0
  -24.7170  -31.0110   22.1210 N   0  0  0  0  0  0  0  0  0  0  0  0
  -23.5650  -32.1340   23.7380 O   0  0  0  0  0  0  0  0  0  0  0  0
  -22.7550  -29.4480   22.5550 C   0  0  0  0  0  0  0  0  0  0  0  0
  -21.4240  -29.2830   22.4400 N   0  0  0  0  0  0  0  0  0  0  0  0
  -23.4290  -28.8260   23.3790 O   0  0  0  0  0  0  0  0  0  0  0  0
  -20.9350  -29.8320   21.7470 H   0  0  0  0  0  0  0  0  0  0  0  0
  -18.0460  -28.0740   22.9660 C   0  0  0  0  0  0  0  0  0  0  0  0
  -20.6060  -28.3510   23.2230 C   0  0  0  0  0  3  0  0  0  0  0  0
  -20.7110  -26.9130   22.6610 C   0  0  0  0  0  2  0  0  0  0  0  0
  -19.6070  -26.5770   21.6530 C   0  0  0  0  0  2  0  0  0  0  0  0
  -18.2270  -26.7200   22.2990 C   0  0  0  0  0  2  0  0  0  0  0  0
  -19.1630  -28.8450   23.3860 C   0  0  0  0  0  0  0  0  0  0  0  0
  -18.9390  -30.1090   23.9740 C   0  0  0  0  0  3  0  0  0  0  0  0
  -17.6320  -30.6020   24.1450 C   0  0  0  0  0  3  0  0  0  0  0  0
  -16.5300  -29.8290   23.7410 C   0  0  0  0  0  3  0  0  0  0  0  0
  -16.7380  -28.5660   23.1570 C   0  0  0  0  0  3  0  0  0  0  0  0
  -25.9280  -32.4820   23.8260 C   0  0  0  0  0  3  0  0  0  0  0  0
  -26.4530  -31.7100   25.0980 C   0  0  1  0  0  0  0  0  0  0  0  0
  -25.3660  -31.4750   26.1730 C   0  0  0  0  0  1  0  0  0  0  0  0
  -27.0350  -30.3310   24.7090 C   0  0  0  0  0  1  0  0  0  0  0  0
  -27.6080  -32.5050   25.7530 C   0  0  0  0  0  1  0  0  0  0  0  0
  -25.6110  -33.8790   24.1710 N   0  0  0  0  0  0  0  0  0  0  0  0
  -25.9270  -34.9440   23.4250 C   0  0  0  0  0  0  0  0  0  0  0  0
  -26.5800  -34.8580   22.3830 O   0  0  0  0  0  0  0  0  0  0  0  0
  -25.0270  -34.0200   24.9830 H   0  0  0  0  0  0  0  0  0  0  0  0
  -24.1820  -36.7370   23.1340 C   0  0  0  0  0  1  0  0  0  0  0  0
  -25.4430  -36.3270   23.9110 C   0  0  0  0  0  3  0  0  0  0  0  0
  -27.5930  -37.2130   24.7000 C   0  0  0  0  0  1  0  0  0  0  0  0
  -26.4670  -37.3880   23.7870 N   0  0  0  0  0  0  0  0  0  0  0  0
  -26.0580  -38.3030   23.9600 H   0  0  0  0  0  0  0  0  0  0  0  0
  -28.8760  -21.1300   20.7370 C   0  0  0  0  0  2  0  0  0  0  0  0
  -29.1540  -19.5220   20.0110 C   0  0  0  0  0  2  0  0  0  0  0  0
  -29.8200  -18.0170   20.6920 C   0  0  0  0  0  2  0  0  0  0  0  0
  -30.3970  -15.1770   20.2740 C   0  0  0  0  0  0  0  0  0  0  0  0
  -30.3500  -12.7570   19.3730 C   0  0  0  0  0  2  0  0  0  0  0  0
  -29.4160  -12.5980   18.1480 C   0  0  0  0  0  2  0  0  0  0  0  0
  -27.9630  -12.3450   18.5950 C   0  0  0  0  0  2  0  0  0  0  0  0
  -27.5300  -13.2940   19.7430 C   0  0  0  0  0  3  0  0  0  0  0  0
  -28.5930  -13.4020   20.8550 C   0  0  0  0  0  2  0  0  0  0  0  0
  -29.8240  -13.8860   20.2100 N   0  0  0  0  0  0  0  0  0  0  0  0
  -31.6220  -15.1990   20.0880 O   0  0  0  0  0  0  0  0  0  0  0  0
  -29.6110  -16.4150   20.3470 N   0  0  0  0  0  0  0  0  0  0  0  0
  -28.6290  -16.1800   20.3260 H   0  0  0  0  0  0  0  0  0  0  0  0
  -25.1620  -13.8510   20.5180 C   0  0  0  0  0  0  0  0  0  0  0  0
  -24.1040  -13.0730   20.8960 C   0  0  0  0  0  0  0  0  0  0  0  0
  -24.5750  -11.7220   20.8590 C   0  0  0  0  0  0  0  0  0  0  0  0
  -26.2050  -12.9790   20.2640 N   0  0  0  0  0  0  0  0  0  0  0  0
  -25.8650  -11.6910   20.5390 N   0  0  0  0  0  0  0  0  0  0  0  0
  -23.8520  -10.4580   21.0540 C   0  0  0  0  0  0  0  0  0  0  0  0
  -24.3010   -9.4830   21.9720 C   0  0  0  0  0  3  0  0  0  0  0  0
  -23.5740   -8.2860   22.1550 C   0  0  0  0  0  3  0  0  0  0  0  0
  -22.3870   -8.0560   21.4200 C   0  0  0  0  0  0  0  0  0  0  0  0
  -21.9600   -9.0210   20.4920 C   0  0  0  0  0  3  0  0  0  0  0  0
  -22.6850  -10.2090   20.3060 C   0  0  0  0  0  3  0  0  0  0  0  0
  -21.6300   -6.9120   21.5130 O   0  0  0  0  0  0  0  0  0  0  0  0
  -21.6160   -6.1510   22.6540 C   0  0  0  0  0  0  0  0  0  0  0  0
  -21.2390   -6.6890   23.9050 C   0  0  0  0  0  3  0  0  0  0  0  0
  -21.1670   -5.8550   25.0380 C   0  0  0  0  0  3  0  0  0  0  0  0
  -21.4640   -4.4830   24.9230 C   0  0  0  0  0  0  0  0  0  0  0  0
  -21.8350   -3.9440   23.6790 C   0  0  0  0  0  3  0  0  0  0  0  0
  -21.9060   -4.7760   22.5470 C   0  0  0  0  0  0  0  0  0  0  0  0
  -22.2430   -4.2480   21.3450 F   0  0  0  0  0  0  0  0  0  0  0  0
  -21.3890   -3.6800   26.0090 F   0  0  0  0  0  0  0  0  0  0  0  0
  -22.7070  -13.5470   21.1660 C   0  0  0  0  0  0  0  0  0  0  0  0
  -21.9820  -12.8530   22.0350 N   0  0  0  0  0  0  0  0  0  0  0  0
  -22.2660  -14.5710   20.6440 O   0  0  0  0  0  0  0  0  0  0  0  0
  -22.3480  -12.0270   22.4820 H   0  0  0  0  0  0  0  0  0  0  0  0
  -21.0450  -13.1590   22.2600 H   0  0  0  0  0  0  0  0  0  0  0  0
  -25.3150  -15.2230   20.3400 N   0  0  0  0  0  0  0  0  0  0  0  0
  -24.5450  -15.8700   20.4730 H   0  0  0  0  0  0  0  0  0  0  0  0
  -26.1460  -15.6720   19.9750 H   0  0  0  0  0  0  0  0  0  0  0  0
  1  2  1  0
  1  4  1  0
  2  6  1  0
  4  7  1  0
  4  5  1  0
  5 51  1  1
  5  3  1  0
  6  5  1  0
  6 10  1  1
  6  3  1  0
  7  9  2  0
  8  7  1  0
 11 22  2  0
 12 10  1  0
 12 17  1  0
 13 21  1  0
 13 23  1  0
 14 20  1  0
 14 16  1  0
 15 21  1  0
 16 15  1  0
 17 16  2  0
 18 12  2  0
 19 18  1  0
 19 14  2  0
 20 13  1  0
 21 11  1  0
 23 25  2  0
 24 23  1  0
 26 24  1  0
 27 36  2  0
 27 32  1  0
 28 24  1  0
 28 32  1  0
 29 28  1  0
 30 31  1  0
 30 29  1  0
 31 27  1  0
 32 33  2  0
 33 34  1  0
 35 34  2  0
 36 35  1  0
 37 11  1  0
 37 42  1  0
 37 38  1  0
 38 41  1  1
 38 39  1  0
 40 38  1  0
 42 45  1  0
 43 47  1  0
 43 42  1  0
 44 43  2  0
 47 46  1  0
 49 47  1  0
 49 50  1  0
 49 48  1  0
 52 53  1  0
 52 51  1  0
 54 62  1  0
 55 60  1  0
 56 57  1  0
 56 55  1  0
 58 57  1  0
 58 67  1  0
 58 59  1  0
 60 54  1  0
 60 59  1  0
 61 54  2  0
 62 53  1  0
 63 62  1  0
 64 65  2  0
 65 84  1  0
 66 65  1  0
 66 69  1  0
 67 64  1  0
 67 68  1  0
 68 66  2  0
 69 70  1  0
 70 71  2  0
 72 75  1  0
 72 71  1  0
 73 72  2  0
 74 73  1  0
 74 69  2  0
 75 76  1  0
 76 77  1  0
 77 78  2  0
 79 78  1  0
 79 83  1  0
 80 79  2  0
 81 76  2  0
 81 80  1  0
 82 81  1  0
 84 85  1  0
 85 88  1  0
 85 87  1  0
 86 84  2  0
 89 90  1  0
 89 64  1  0
 91 89  1  0
M  ISO  4   6 101  10 101  54 100  62 100
M  END
>  <TORSDO>  (27) 
F 20

>  <SCORE>  (27) 
-15.166

>  <name>  (27) 
27

>  <ligand_id>  (27) 
27

>  <original_smiles>  (27) 
[H]c1c([H])c([H])c2c(c1[H])C([H])([H])C([H])([H])C([H])([H])C2([H])N([H])C(=O)C1([H])N(C(=O)C([H])(N([H])C(=O)C([H])(N([H])C([H])([H])[H])C([H])([H])[H])C(C([H])([H])[H])(C([H])([H])[H])C([H])([H])[H])C([H])([H])c2c([H])c(OC34C([H])([H])C([H])([H])C([H])(C(=O)C([H])([H])[H])C3(C([H])([H])C([H])([H])C([H])([H])N([H])C(=O)N3C([H])([H])C([H])([H])C([H])([H])C([H])(n5nc(-c6c([H])c([H])c(Oc7c([H])c([H])c(F)c([H])c7F)c([H])c6[H])c(C(=O)N([H])[H])c5N([H])[H])C3([H])[H])C4([H])[H])c([H])c([H])c2C1([H])[H]

>  <smiles>  (27) 
[H]c1c([H])c([H])c2c(c1[H])C([H])([H])C([H])([H])C([H])([H])C2([H])N([H])C(=O)C1([H])N(C(=O)C([H])(N([H])C(=O)C([H])(N([H])C([H])([H])[H])C([H])([H])[H])C(C([H])([H])[H])(C([H])([H])[H])C([H])([H])[H])C([H])([H])c2c([H])c(OC34C([H])([H])C([H])([H])C([H])(C(=O)C([H])([H])[H])C3(C([H])([H])C([H])([H])C([H])([H])N([H])C(=O)N3C([H])([H])C([H])([H])C([H])([H])C([H])(n5nc(-c6c([H])c([H])c(Oc7c([H])c([H])c(F)c([H])c7F)c([H])c6[H])c(C(=O)N([H])[H])c5N([H])[H])C3([H])[H])C4([H])[H])c([H])c([H])c2C1([H])[H]

$$$$
28:0:0
     RDKit          3D

 90100  0  0  1  0  0  0  0  0999 V2000
  -29.4580  -21.8610   20.1180 C   0  0  0  0  0  0  0  0  0  0  0  0
  -30.5560  -22.3990   19.9480 O   0  0  0  0  0  0  0  0  0  0  0  0
  -29.4210  -20.1160   20.1790 C   0  0  0  0  0  3  0  0  0  0  0  0
  -29.5990  -19.0240   21.4120 C   0  0  2  0  0  0  0  0  0  0  0  0
  -30.8220  -19.3310   20.1170 C   0  0  1  0  0  0  0  0  0  0  0  0
  -30.4550  -17.8380   20.7060 C   0  0  0  0  0  3  0  0  0  0  0  0
  -31.0070  -19.6910   21.6740 C   0  0  1  0  0  0  0  0  0  0  0  0
  -30.8930  -21.0140   22.4890 C   0  0  0  0  0  1  0  0  0  0  0  0
  -32.2890  -19.0960   22.3540 C   0  0  0  0  0  1  0  0  0  0  0  0
  -30.7130  -15.2090   19.9210 C   0  0  0  0  0  0  0  0  0  0  0  0
  -30.5690  -12.8350   18.9710 C   0  0  0  0  0  2  0  0  0  0  0  0
  -29.5800  -12.7180   17.7900 C   0  0  0  0  0  2  0  0  0  0  0  0
  -28.1460  -12.4810   18.3010 C   0  0  0  0  0  2  0  0  0  0  0  0
  -27.7770  -13.4170   19.4810 C   0  0  0  0  0  3  0  0  0  0  0  0
  -28.8880  -13.4910   20.5460 C   0  0  0  0  0  2  0  0  0  0  0  0
  -30.0980  -13.9490   19.8500 N   0  0  0  0  0  0  0  0  0  0  0  0
  -31.9280  -15.2150   19.6970 O   0  0  0  0  0  0  0  0  0  0  0  0
  -29.9870  -16.4590   20.0500 N   0  0  0  0  0  0  0  0  0  0  0  0
  -28.9850  -16.3420   20.0180 H   0  0  0  0  0  0  0  0  0  0  0  0
  -25.4490  -13.9700   20.3750 C   0  0  0  0  0  0  0  0  0  0  0  0
  -24.4060  -13.1860   20.7840 C   0  0  0  0  0  0  0  0  0  0  0  0
  -24.8690  -11.8370   20.7000 C   0  0  0  0  0  0  0  0  0  0  0  0
  -26.4760  -13.0980   20.0560 N   0  0  0  0  0  0  0  0  0  0  0  0
  -26.1410  -11.8080   20.3210 N   0  0  0  0  0  0  0  0  0  0  0  0
  -24.1500  -10.5710   20.9000 C   0  0  0  0  0  0  0  0  0  0  0  0
  -24.5810   -9.6180   21.8480 C   0  0  0  0  0  3  0  0  0  0  0  0
  -23.8600   -8.4190   22.0370 C   0  0  0  0  0  3  0  0  0  0  0  0
  -22.6950   -8.1640   21.2750 C   0  0  0  0  0  0  0  0  0  0  0  0
  -22.2840   -9.1060   20.3150 C   0  0  0  0  0  3  0  0  0  0  0  0
  -23.0060  -10.2960   20.1250 C   0  0  0  0  0  3  0  0  0  0  0  0
  -21.9460   -7.0160   21.3720 O   0  0  0  0  0  0  0  0  0  0  0  0
  -21.8370   -6.3250   22.5530 C   0  0  0  0  0  0  0  0  0  0  0  0
  -21.2920   -6.9170   23.7130 C   0  0  0  0  0  3  0  0  0  0  0  0
  -21.1330   -6.1500   24.8850 C   0  0  0  0  0  3  0  0  0  0  0  0
  -21.5090   -4.7930   24.8960 C   0  0  0  0  0  0  0  0  0  0  0  0
  -22.0460   -4.2010   23.7390 C   0  0  0  0  0  3  0  0  0  0  0  0
  -22.2060   -4.9650   22.5700 C   0  0  0  0  0  0  0  0  0  0  0  0
  -22.7050   -4.3850   21.4510 F   0  0  0  0  0  0  0  0  0  0  0  0
  -21.3490   -4.0540   26.0190 F   0  0  0  0  0  0  0  0  0  0  0  0
  -23.0260  -13.6580   21.1330 C   0  0  0  0  0  0  0  0  0  0  0  0
  -22.3410  -12.9480   22.0240 N   0  0  0  0  0  0  0  0  0  0  0  0
  -22.5640  -14.6920   20.6510 O   0  0  0  0  0  0  0  0  0  0  0  0
  -22.7310  -12.1130   22.4360 H   0  0  0  0  0  0  0  0  0  0  0  0
  -21.4160  -13.2460   22.2990 H   0  0  0  0  0  0  0  0  0  0  0  0
  -25.6010  -15.3440   20.2160 N   0  0  0  0  0  0  0  0  0  0  0  0
  -24.8350  -15.9900   20.3730 H   0  0  0  0  0  0  0  0  0  0  0  0
  -26.4180  -15.7920   19.8230 H   0  0  0  0  0  0  0  0  0  0  0  0
  -28.2370  -23.0240   20.1020 C   0  0  0  0  0  2  0  0  0  0  0  0
  -28.2040  -24.6500   20.7290 C   0  0  0  0  0  2  0  0  0  0  0  0
  -28.2770  -26.1440   20.1810 O   0  0  0  0  0  0  0  0  0  0  0  0
  -24.5250  -31.8750   23.1630 C   0  0  0  0  0  0  0  0  0  0  0  0
  -27.2020  -27.1290   20.2010 C   0  0  0  0  0  0  0  0  0  0  0  0
  -23.3710  -30.4620   21.5070 C   0  0  0  0  0  3  0  0  0  0  0  0
  -24.8620  -28.8860   20.1170 C   0  0  0  0  0  0  0  0  0  0  0  0
  -25.9290  -30.7410   21.3890 C   0  0  0  0  0  2  0  0  0  0  0  0
  -26.0300  -29.3400   20.7440 C   0  0  0  0  0  0  0  0  0  0  0  0
  -27.2020  -28.4820   20.7580 C   0  0  0  0  0  3  0  0  0  0  0  0
  -26.0040  -26.7850   19.5440 C   0  0  0  0  0  3  0  0  0  0  0  0
  -24.8640  -27.6240   19.5000 C   0  0  0  0  0  3  0  0  0  0  0  0
  -23.6270  -29.7800   20.1350 C   0  0  0  0  0  2  0  0  0  0  0  0
  -24.6270  -31.0500   22.0740 N   0  0  0  0  0  0  0  0  0  0  0  0
  -23.4240  -32.1490   23.6680 O   0  0  0  0  0  0  0  0  0  0  0  0
  -22.6830  -29.4530   22.4600 C   0  0  0  0  0  0  0  0  0  0  0  0
  -21.3560  -29.2820   22.3250 N   0  0  0  0  0  0  0  0  0  0  0  0
  -23.3490  -28.8250   23.2880 O   0  0  0  0  0  0  0  0  0  0  0  0
  -20.8730  -29.8390   21.6320 H   0  0  0  0  0  0  0  0  0  0  0  0
  -17.9680  -28.0960   22.8280 C   0  0  0  0  0  0  0  0  0  0  0  0
  -20.5300  -28.3390   23.0850 C   0  0  0  0  0  3  0  0  0  0  0  0
  -20.6200  -26.9150   22.4890 C   0  0  0  0  0  2  0  0  0  0  0  0
  -19.5110  -26.6150   21.4750 C   0  0  0  0  0  2  0  0  0  0  0  0
  -18.1330  -26.7580   22.1280 C   0  0  0  0  0  2  0  0  0  0  0  0
  -19.0930  -28.8450   23.2630 C   0  0  0  0  0  0  0  0  0  0  0  0
  -18.8820  -30.0980   23.8800 C   0  0  0  0  0  3  0  0  0  0  0  0
  -17.5810  -30.6010   24.0640 C   0  0  0  0  0  3  0  0  0  0  0  0
  -16.4710  -29.8480   23.6440 C   0  0  0  0  0  3  0  0  0  0  0  0
  -16.6650  -28.5970   23.0310 C   0  0  0  0  0  3  0  0  0  0  0  0
  -25.7810  -32.5300   23.8120 C   0  0  0  0  0  3  0  0  0  0  0  0
  -26.2740  -31.7730   25.1080 C   0  0  1  0  0  0  0  0  0  0  0  0
  -25.1560  -31.5270   26.1480 C   0  0  0  0  0  1  0  0  0  0  0  0
  -26.8860  -30.4010   24.7450 C   0  0  0  0  0  1  0  0  0  0  0  0
  -27.3960  -32.5870   25.7950 C   0  0  0  0  0  1  0  0  0  0  0  0
  -25.4450  -33.9270   24.1350 N   0  0  0  0  0  0  0  0  0  0  0  0
  -25.7860  -34.9870   23.3910 C   0  0  0  0  0  0  0  0  0  0  0  0
  -26.4820  -34.8940   22.3750 O   0  0  0  0  0  0  0  0  0  0  0  0
  -24.8300  -34.0730   24.9220 H   0  0  0  0  0  0  0  0  0  0  0  0
  -24.0650  -36.7810   22.9940 C   0  0  0  0  0  1  0  0  0  0  0  0
  -25.2790  -36.3720   23.8440 C   0  0  0  0  0  3  0  0  0  0  0  0
  -27.3750  -37.2660   24.7620 C   0  0  0  0  0  1  0  0  0  0  0  0
  -26.3120  -37.4300   23.7750 N   0  0  0  0  0  0  0  0  0  0  0  0
  -25.8950  -38.3480   23.9060 H   0  0  0  0  0  0  0  0  0  0  0  0
  2  1  2  0
  3  1  1  0
  4  3  1  6
  4  7  1  0
  5  3  1  6
  5  6  1  0
  5  4  1  0
  5  7  1  0
  6 18  1  0
  6  4  1  0
  7  9  1  1
  7  8  1  0
 10 18  1  0
 11 16  1  0
 12 13  1  0
 12 11  1  0
 14 13  1  0
 14 23  1  0
 14 15  1  0
 16 10  1  0
 16 15  1  0
 17 10  2  0
 19 18  1  0
 20 21  2  0
 21 40  1  0
 22 21  1  0
 22 25  1  0
 23 24  1  0
 23 20  1  0
 24 22  2  0
 25 26  1  0
 26 27  2  0
 28 31  1  0
 28 27  1  0
 29 28  2  0
 30 29  1  0
 30 25  2  0
 31 32  1  0
 32 37  2  0
 32 33  1  0
 33 34  2  0
 34 35  1  0
 35 39  1  0
 36 35  2  0
 37 36  1  0
 38 37  1  0
 40 41  1  0
 41 44  1  0
 41 43  1  0
 42 40  2  0
 45 46  1  0
 45 20  1  0
 47 45  1  0
 48  1  1  0
 48 49  1  0
 50 52  1  0
 50 49  1  0
 51 62  2  0
 52 57  1  0
 53 61  1  0
 53 63  1  0
 54 60  1  0
 54 56  1  0
 55 61  1  0
 56 57  2  0
 56 55  1  0
 58 52  2  0
 59 58  1  0
 59 54  2  0
 60 53  1  0
 61 51  1  0
 63 65  2  0
 64 63  1  0
 66 64  1  0
 67 76  2  0
 67 72  1  0
 68 64  1  0
 68 72  1  0
 69 68  1  0
 70 71  1  0
 70 69  1  0
 71 67  1  0
 72 73  2  0
 73 74  1  0
 75 74  2  0
 76 75  1  0
 77 51  1  0
 77 82  1  0
 77 78  1  0
 78 81  1  1
 78 79  1  0
 80 78  1  0
 82 85  1  0
 83 87  1  0
 83 82  1  0
 84 83  2  0
 87 86  1  0
 89 87  1  0
 89 90  1  0
 89 88  1  0
M  ISO  4  10 100  18 100  49 101  50 101
M  END
>  <TORSDO>  (28) 
F 19

>  <SCORE>  (28) 
-14.888

>  <name>  (28) 
28

>  <ligand_id>  (28) 
28

>  <original_smiles>  (28) 
[H]c1c([H])c([H])c2c(c1[H])C([H])([H])C([H])([H])C([H])([H])C2([H])N([H])C(=O)C1([H])N(C(=O)C([H])(N([H])C(=O)C([H])(N([H])C([H])([H])[H])C([H])([H])[H])C(C([H])([H])[H])(C([H])([H])[H])C([H])([H])[H])C([H])([H])c2c([H])c(OC([H])([H])C([H])([H])C(=O)C3([H])C4([H])C([H])(N([H])C(=O)N5C([H])([H])C([H])([H])C([H])([H])C([H])(n6nc(-c7c([H])c([H])c(Oc8c([H])c([H])c(F)c([H])c8F)c([H])c7[H])c(C(=O)N([H])[H])c6N([H])[H])C5([H])[H])C3([H])C4(C([H])([H])[H])C([H])([H])[H])c([H])c([H])c2C1([H])[H]

>  <smiles>  (28) 
[H]c1c([H])c([H])c2c(c1[H])C([H])([H])C([H])([H])C([H])([H])C2([H])N([H])C(=O)C1([H])N(C(=O)C([H])(N([H])C(=O)C([H])(N([H])C([H])([H])[H])C([H])([H])[H])C(C([H])([H])[H])(C([H])([H])[H])C([H])([H])[H])C([H])([H])c2c([H])c(OC([H])([H])C([H])([H])C(=O)C3([H])C4([H])C([H])(N([H])C(=O)N5C([H])([H])C([H])([H])C([H])([H])C([H])(n6nc(-c7c([H])c([H])c(Oc8c([H])c([H])c(F)c([H])c8F)c([H])c7[H])c(C(=O)N([H])[H])c6N([H])[H])C5([H])[H])C3([H])C4(C([H])([H])[H])C([H])([H])[H])c([H])c([H])c2C1([H])[H]

$$$$
29:0:0
     RDKit          3D

 89 99  0  0  1  0  0  0  0  0999 V2000
  -29.9480  -20.7290   21.3270 C   0  0  0  0  0  2  0  0  0  0  0  0
  -30.3380  -21.3980   19.0520 C   0  0  0  0  0  2  0  0  0  0  0  0
  -29.1650  -19.6610   20.4600 C   0  0  0  0  0  3  0  0  0  0  0  0
  -30.1230  -22.0360   20.4150 C   0  0  2  0  0  0  0  0  0  0  0  0
  -28.8700  -21.0150   19.4470 C   0  0  2  0  0  0  0  0  0  0  0  0
  -28.8600  -22.7800   19.7270 C   0  0  2  0  0  0  0  0  0  0  0  0
  -28.8280  -23.4930   18.3310 C   0  0  0  0  0  1  0  0  0  0  0  0
  -30.4140  -15.3860   20.1830 C   0  0  0  0  0  0  0  0  0  0  0  0
  -30.3700  -12.9210   19.3400 C   0  0  0  0  0  2  0  0  0  0  0  0
  -29.4540  -12.7070   18.1100 C   0  0  0  0  0  2  0  0  0  0  0  0
  -28.0050  -12.4360   18.5480 C   0  0  0  0  0  2  0  0  0  0  0  0
  -27.5570  -13.3920   19.6820 C   0  0  0  0  0  3  0  0  0  0  0  0
  -28.6070  -13.5790   20.8010 C   0  0  0  0  0  2  0  0  0  0  0  0
  -29.8360  -14.0770   20.1610 N   0  0  0  0  0  0  0  0  0  0  0  0
  -31.6250  -15.3470   19.9260 O   0  0  0  0  0  0  0  0  0  0  0  0
  -30.0020  -18.1190   20.1240 C   0  0  0  0  0  0  0  0  0  0  0  0
  -29.6730  -16.6780   20.3200 N   0  0  0  0  0  0  0  0  0  0  0  0
  -31.1260  -18.3020   19.6520 O   0  0  0  0  0  0  0  0  0  0  0  0
  -28.7080  -16.5440   20.5810 H   0  0  0  0  0  0  0  0  0  0  0  0
  -25.1990  -13.9230   20.4820 C   0  0  0  0  0  0  0  0  0  0  0  0
  -24.1500  -13.1380   20.8640 C   0  0  0  0  0  0  0  0  0  0  0  0
  -24.6270  -11.7910   20.8260 C   0  0  0  0  0  0  0  0  0  0  0  0
  -26.2440  -13.0560   20.2150 N   0  0  0  0  0  0  0  0  0  0  0  0
  -25.9120  -11.7700   20.4920 N   0  0  0  0  0  0  0  0  0  0  0  0
  -23.9120  -10.5190   21.0160 C   0  0  0  0  0  0  0  0  0  0  0  0
  -24.3530   -9.5540   21.9470 C   0  0  0  0  0  3  0  0  0  0  0  0
  -23.6320   -8.3530   22.1280 C   0  0  0  0  0  3  0  0  0  0  0  0
  -22.4570   -8.1070   21.3790 C   0  0  0  0  0  0  0  0  0  0  0  0
  -22.0370   -9.0620   20.4360 C   0  0  0  0  0  3  0  0  0  0  0  0
  -22.7580  -10.2540   20.2520 C   0  0  0  0  0  3  0  0  0  0  0  0
  -21.7090   -6.9600   21.4720 O   0  0  0  0  0  0  0  0  0  0  0  0
  -21.6590   -6.2230   22.6310 C   0  0  0  0  0  0  0  0  0  0  0  0
  -21.2110   -6.7780   23.8500 C   0  0  0  0  0  3  0  0  0  0  0  0
  -21.1120   -5.9650   24.9960 C   0  0  0  0  0  3  0  0  0  0  0  0
  -21.4490   -4.5990   24.9230 C   0  0  0  0  0  0  0  0  0  0  0  0
  -21.8910   -4.0470   23.7080 C   0  0  0  0  0  3  0  0  0  0  0  0
  -21.9920   -4.8560   22.5640 C   0  0  0  0  0  0  0  0  0  0  0  0
  -22.3980   -4.3130   21.3890 F   0  0  0  0  0  0  0  0  0  0  0  0
  -21.3460   -3.8160   26.0210 F   0  0  0  0  0  0  0  0  0  0  0  0
  -22.7530  -13.6010   21.1480 C   0  0  0  0  0  0  0  0  0  0  0  0
  -22.0300  -12.8990   22.0110 N   0  0  0  0  0  0  0  0  0  0  0  0
  -22.3070  -14.6240   20.6280 O   0  0  0  0  0  0  0  0  0  0  0  0
  -22.3970  -12.0630   22.4430 H   0  0  0  0  0  0  0  0  0  0  0  0
  -21.0900  -13.1950   22.2400 H   0  0  0  0  0  0  0  0  0  0  0  0
  -25.3560  -15.2950   20.3060 N   0  0  0  0  0  0  0  0  0  0  0  0
  -24.5870  -15.9510   20.4100 H   0  0  0  0  0  0  0  0  0  0  0  0
  -26.1830  -15.7190   19.9110 H   0  0  0  0  0  0  0  0  0  0  0  0
  -27.9990  -24.2080   20.4490 C   0  0  0  0  0  2  0  0  0  0  0  0
  -28.2020  -25.8620   20.2920 O   0  0  0  0  0  0  0  0  0  0  0  0
  -24.6440  -31.9060   23.2290 C   0  0  0  0  0  0  0  0  0  0  0  0
  -27.1880  -26.9680   20.2700 C   0  0  0  0  0  0  0  0  0  0  0  0
  -23.4480  -30.4860   21.6110 C   0  0  0  0  0  3  0  0  0  0  0  0
  -24.8950  -28.8610   20.2100 C   0  0  0  0  0  0  0  0  0  0  0  0
  -26.0130  -30.7000   21.4500 C   0  0  0  0  0  2  0  0  0  0  0  0
  -26.0860  -29.2720   20.8210 C   0  0  0  0  0  0  0  0  0  0  0  0
  -27.2280  -28.3490   20.8250 C   0  0  0  0  0  3  0  0  0  0  0  0
  -25.9650  -26.7140   19.6130 C   0  0  0  0  0  3  0  0  0  0  0  0
  -24.8620  -27.6050   19.5840 C   0  0  0  0  0  3  0  0  0  0  0  0
  -23.6770  -29.7840   20.2440 C   0  0  0  0  0  2  0  0  0  0  0  0
  -24.7250  -31.0590   22.1500 N   0  0  0  0  0  0  0  0  0  0  0  0
  -23.5550  -32.1960   23.7510 O   0  0  0  0  0  0  0  0  0  0  0  0
  -22.7630  -29.4980   22.5930 C   0  0  0  0  0  0  0  0  0  0  0  0
  -21.4370  -29.3090   22.4620 N   0  0  0  0  0  0  0  0  0  0  0  0
  -23.4320  -28.9070   23.4450 O   0  0  0  0  0  0  0  0  0  0  0  0
  -20.9490  -29.8390   21.7520 H   0  0  0  0  0  0  0  0  0  0  0  0
  -18.0770  -28.0210   22.9410 C   0  0  0  0  0  0  0  0  0  0  0  0
  -20.6220  -28.3710   23.2440 C   0  0  0  0  0  3  0  0  0  0  0  0
  -20.7760  -26.9250   22.7150 C   0  0  0  0  0  2  0  0  0  0  0  0
  -19.7050  -26.5420   21.6900 C   0  0  0  0  0  2  0  0  0  0  0  0
  -18.3080  -26.6600   22.3050 C   0  0  0  0  0  2  0  0  0  0  0  0
  -19.1650  -28.8310   23.3660 C   0  0  0  0  0  0  0  0  0  0  0  0
  -18.8920  -30.1010   23.9230 C   0  0  0  0  0  3  0  0  0  0  0  0
  -17.5690  -30.5610   24.0550 C   0  0  0  0  0  3  0  0  0  0  0  0
  -16.4980  -29.7510   23.6440 C   0  0  0  0  0  3  0  0  0  0  0  0
  -16.7520  -28.4810   23.0920 C   0  0  0  0  0  3  0  0  0  0  0  0
  -25.9120  -32.5660   23.8470 C   0  0  0  0  0  3  0  0  0  0  0  0
  -25.5880  -33.9680   24.1700 N   0  0  0  0  0  0  0  0  0  0  0  0
  -25.9140  -35.0260   23.4130 C   0  0  0  0  0  0  0  0  0  0  0  0
  -26.5850  -34.9230   22.3820 O   0  0  0  0  0  0  0  0  0  0  0  0
  -24.9970  -34.1200   24.9730 H   0  0  0  0  0  0  0  0  0  0  0  0
  -24.1910  -36.8250   23.0510 C   0  0  0  0  0  1  0  0  0  0  0  0
  -25.4250  -36.4150   23.8700 C   0  0  0  0  0  3  0  0  0  0  0  0
  -27.5510  -37.3040   24.7230 C   0  0  0  0  0  1  0  0  0  0  0  0
  -26.4580  -37.4710   23.7670 N   0  0  0  0  0  0  0  0  0  0  0  0
  -26.0490  -38.3900   23.9090 H   0  0  0  0  0  0  0  0  0  0  0  0
  -26.4260  -31.8200   25.1410 C   0  0  1  0  0  0  0  0  0  0  0  0
  -25.3330  -31.5930   26.2110 C   0  0  0  0  0  1  0  0  0  0  0  0
  -27.0170  -30.4390   24.7770 C   0  0  0  0  0  1  0  0  0  0  0  0
  -27.5740  -32.6270   25.7900 C   0  0  0  0  0  1  0  0  0  0  0  0
  3 16  1  0
  3  1  1  0
  4  2  1  6
  4  1  1  0
  5  2  1  6
  5  6  1  0
  5  4  1  0
  5  3  1  0
  6  7  1  6
  6  4  1  0
  6 48  1  0
  8 17  1  0
  9 14  1  0
 10 11  1  0
 10  9  1  0
 12 11  1  0
 12 23  1  0
 12 13  1  0
 14  8  1  0
 14 13  1  0
 15  8  2  0
 16 17  1  0
 17 19  1  0
 18 16  2  0
 20 21  2  0
 21 40  1  0
 22 21  1  0
 22 25  1  0
 23 20  1  0
 23 24  1  0
 24 22  2  0
 25 26  1  0
 26 27  2  0
 28 31  1  0
 28 27  1  0
 29 28  2  0
 30 29  1  0
 30 25  2  0
 31 32  1  0
 32 33  1  0
 33 34  2  0
 35 34  1  0
 35 39  1  0
 36 35  2  0
 37 32  2  0
 37 36  1  0
 38 37  1  0
 40 41  1  0
 41 44  1  0
 41 43  1  0
 42 40  2  0
 45 46  1  0
 45 20  1  0
 47 45  1  0
 49 48  1  0
 50 61  2  0
 51 49  1  0
 51 56  1  0
 52 60  1  0
 52 62  1  0
 53 59  1  0
 53 55  1  0
 54 60  1  0
 55 56  2  0
 55 54  1  0
 57 51  2  0
 58 57  1  0
 58 53  2  0
 59 52  1  0
 60 50  1  0
 62 64  2  0
 63 62  1  0
 65 63  1  0
 66 75  2  0
 66 71  1  0
 67 63  1  0
 67 71  1  0
 68 67  1  0
 69 70  1  0
 69 68  1  0
 70 66  1  0
 71 72  2  0
 72 73  1  0
 74 73  2  0
 75 74  1  0
 76 50  1  0
 76 77  1  0
 76 86  1  0
 77 80  1  0
 78 82  1  0
 78 77  1  0
 79 78  2  0
 82 81  1  0
 84 82  1  0
 84 85  1  0
 84 83  1  0
 86 89  1  1
 86 87  1  0
 88 86  1  0
M  ISO  4   8 100  17 100  48 101  49 101
M  END
>  <TORSDO>  (29) 
F 17

>  <SCORE>  (29) 
-16.797

>  <name>  (29) 
29

>  <ligand_id>  (29) 
29

>  <original_smiles>  (29) 
[H]c1c([H])c([H])c2c(c1[H])C([H])([H])C([H])([H])C([H])([H])C2([H])N([H])C(=O)C1([H])N(C(=O)C([H])(N([H])C(=O)C([H])(N([H])C([H])([H])[H])C([H])([H])[H])C(C([H])([H])[H])(C([H])([H])[H])C([H])([H])[H])C([H])([H])c2c([H])c(OC([H])([H])C3(C([H])([H])[H])C4([H])C([H])([H])C([H])(C(=O)N([H])C(=O)N5C([H])([H])C([H])([H])C([H])([H])C([H])(n6nc(-c7c([H])c([H])c(Oc8c([H])c([H])c(F)c([H])c8F)c([H])c7[H])c(C(=O)N([H])[H])c6N([H])[H])C5([H])[H])C3([H])C4([H])[H])c([H])c([H])c2C1([H])[H]

>  <smiles>  (29) 
[H]c1c([H])c([H])c2c(c1[H])C([H])([H])C([H])([H])C([H])([H])C2([H])N([H])C(=O)C1([H])N(C(=O)C([H])(N([H])C(=O)C([H])(N([H])C([H])([H])[H])C([H])([H])[H])C(C([H])([H])[H])(C([H])([H])[H])C([H])([H])[H])C([H])([H])c2c([H])c(OC([H])([H])C3(C([H])([H])[H])C4([H])C([H])([H])C([H])(C(=O)N([H])C(=O)N5C([H])([H])C([H])([H])C([H])([H])C([H])(n6nc(-c7c([H])c([H])c(Oc8c([H])c([H])c(F)c([H])c8F)c([H])c7[H])c(C(=O)N([H])[H])c6N([H])[H])C5([H])[H])C3([H])C4([H])[H])c([H])c([H])c2C1([H])[H]

$$$$
30:0:0
     RDKit          3D

 90100  0  0  1  0  0  0  0  0999 V2000
  -28.1490  -20.2650   21.1210 C   0  0  0  0  0  2  0  0  0  0  0  0
  -27.4580  -22.1140   19.3570 C   0  0  0  0  0  2  0  0  0  0  0  0
  -30.7190  -20.7920   20.9110 C   0  0  0  0  0  2  0  0  0  0  0  0
  -27.7650  -21.7180   20.7800 C   0  0  0  0  0  3  0  0  0  0  0  0
  -29.8970  -21.3120   19.7590 C   0  0  0  0  0  3  0  0  0  0  0  0
  -29.5110  -19.9850   20.4810 C   0  0  2  0  0  0  0  0  0  0  0  0
  -28.8230  -22.4260   19.9440 C   0  0  1  0  0  0  0  0  0  0  0  0
  -29.7120  -18.4940   19.9510 C   0  0  0  0  0  2  0  0  0  0  0  0
  -30.3480  -17.3880   20.9130 C   0  0  0  0  0  2  0  0  0  0  0  0
  -30.8150  -14.8720   20.2640 C   0  0  0  0  0  0  0  0  0  0  0  0
  -30.6110  -12.6510   19.1500 C   0  0  0  0  0  2  0  0  0  0  0  0
  -29.6440  -12.7650   17.9490 C   0  0  0  0  0  2  0  0  0  0  0  0
  -28.1770  -12.5950   18.3940 C   0  0  0  0  0  2  0  0  0  0  0  0
  -27.8290  -13.4450   19.6450 C   0  0  0  0  0  3  0  0  0  0  0  0
  -28.9020  -13.2790   20.7440 C   0  0  0  0  0  2  0  0  0  0  0  0
  -30.1980  -13.6510   20.1550 N   0  0  0  0  0  0  0  0  0  0  0  0
  -31.9730  -15.0380   19.8740 O   0  0  0  0  0  0  0  0  0  0  0  0
  -30.0290  -15.9270   20.6610 N   0  0  0  0  0  0  0  0  0  0  0  0
  -29.0960  -15.6500   20.9250 H   0  0  0  0  0  0  0  0  0  0  0  0
  -25.4330  -14.0250   20.3770 C   0  0  0  0  0  0  0  0  0  0  0  0
  -24.3760  -13.2420   20.7570 C   0  0  0  0  0  0  0  0  0  0  0  0
  -24.8510  -11.8950   20.7280 C   0  0  0  0  0  0  0  0  0  0  0  0
  -26.4850  -13.1530   20.1400 N   0  0  0  0  0  0  0  0  0  0  0  0
  -26.1400  -11.8680   20.4110 N   0  0  0  0  0  0  0  0  0  0  0  0
  -24.1380  -10.6270   20.9270 C   0  0  0  0  0  0  0  0  0  0  0  0
  -24.5620   -9.6830   21.8870 C   0  0  0  0  0  3  0  0  0  0  0  0
  -23.8480   -8.4800   22.0710 C   0  0  0  0  0  3  0  0  0  0  0  0
  -22.6960   -8.2110   21.2940 C   0  0  0  0  0  0  0  0  0  0  0  0
  -22.2950   -9.1430   20.3200 C   0  0  0  0  0  3  0  0  0  0  0  0
  -23.0100  -10.3380   20.1340 C   0  0  0  0  0  3  0  0  0  0  0  0
  -21.9550   -7.0590   21.3860 O   0  0  0  0  0  0  0  0  0  0  0  0
  -21.8550   -6.3590   22.5620 C   0  0  0  0  0  0  0  0  0  0  0  0
  -21.3230   -6.9420   23.7340 C   0  0  0  0  0  3  0  0  0  0  0  0
  -21.1770   -6.1650   24.9010 C   0  0  0  0  0  3  0  0  0  0  0  0
  -21.5510   -4.8080   24.8960 C   0  0  0  0  0  0  0  0  0  0  0  0
  -22.0760   -4.2250   23.7300 C   0  0  0  0  0  3  0  0  0  0  0  0
  -22.2240   -4.9980   22.5640 C   0  0  0  0  0  0  0  0  0  0  0  0
  -22.7100   -4.4270   21.4360 F   0  0  0  0  0  0  0  0  0  0  0  0
  -21.4030   -4.0600   26.0150 F   0  0  0  0  0  0  0  0  0  0  0  0
  -22.9770  -13.7060   21.0360 C   0  0  0  0  0  0  0  0  0  0  0  0
  -22.2630  -13.0080   21.9110 N   0  0  0  0  0  0  0  0  0  0  0  0
  -22.5250  -14.7240   20.5140 O   0  0  0  0  0  0  0  0  0  0  0  0
  -22.6430  -12.1850   22.3570 H   0  0  0  0  0  0  0  0  0  0  0  0
  -21.3230  -13.2990   22.1410 H   0  0  0  0  0  0  0  0  0  0  0  0
  -25.5820  -15.3960   20.1940 N   0  0  0  0  0  0  0  0  0  0  0  0
  -24.8070  -16.0410   20.3080 H   0  0  0  0  0  0  0  0  0  0  0  0
  -26.4120  -15.8430   19.8240 H   0  0  0  0  0  0  0  0  0  0  0  0
  -29.2120  -23.9660   20.1310 C   0  0  0  0  0  3  0  0  0  0  0  0
  -28.1130  -25.1130   19.9260 C   0  0  0  0  0  3  0  0  0  0  0  0
  -28.3770  -26.5650   20.1790 O   0  0  0  0  0  0  0  0  0  0  0  0
  -24.6110  -31.9640   23.2510 C   0  0  0  0  0  0  0  0  0  0  0  0
  -27.2720  -27.4460   20.1390 C   0  0  0  0  0  0  0  0  0  0  0  0
  -23.4320  -30.5730   21.5940 C   0  0  0  0  0  3  0  0  0  0  0  0
  -24.9040  -29.0650   20.1450 C   0  0  0  0  0  0  0  0  0  0  0  0
  -25.9730  -30.9100   21.4320 C   0  0  0  0  0  2  0  0  0  0  0  0
  -26.0700  -29.5400   20.7610 C   0  0  0  0  0  0  0  0  0  0  0  0
  -27.2570  -28.7430   20.7510 C   0  0  0  0  0  3  0  0  0  0  0  0
  -26.0770  -27.0390   19.4980 C   0  0  0  0  0  3  0  0  0  0  0  0
  -24.9110  -27.8220   19.5030 C   0  0  0  0  0  3  0  0  0  0  0  0
  -23.6600  -29.9290   20.2030 C   0  0  0  0  0  2  0  0  0  0  0  0
  -24.6900  -31.1670   22.1470 N   0  0  0  0  0  0  0  0  0  0  0  0
  -23.5220  -32.2250   23.7820 O   0  0  0  0  0  0  0  0  0  0  0  0
  -22.7780  -29.5320   22.5360 C   0  0  0  0  0  0  0  0  0  0  0  0
  -21.4590  -29.3280   22.3850 N   0  0  0  0  0  0  0  0  0  0  0  0
  -23.4570  -28.9150   23.3610 O   0  0  0  0  0  0  0  0  0  0  0  0
  -20.9720  -29.8820   21.6940 H   0  0  0  0  0  0  0  0  0  0  0  0
  -18.0900  -28.0840   22.8440 C   0  0  0  0  0  0  0  0  0  0  0  0
  -20.6440  -28.3720   23.1360 C   0  0  0  0  0  3  0  0  0  0  0  0
  -20.7680  -26.9510   22.5420 C   0  0  0  0  0  2  0  0  0  0  0  0
  -19.6760  -26.6290   21.5160 C   0  0  0  0  0  2  0  0  0  0  0  0
  -18.2880  -26.7460   22.1510 C   0  0  0  0  0  2  0  0  0  0  0  0
  -19.1970  -28.8540   23.2920 C   0  0  0  0  0  0  0  0  0  0  0  0
  -18.9580  -30.1060   23.9000 C   0  0  0  0  0  3  0  0  0  0  0  0
  -17.6460  -30.5880   24.0660 C   0  0  0  0  0  3  0  0  0  0  0  0
  -16.5540  -29.8150   23.6340 C   0  0  0  0  0  3  0  0  0  0  0  0
  -16.7770  -28.5660   23.0290 C   0  0  0  0  0  3  0  0  0  0  0  0
  -25.8830  -32.6030   23.8880 C   0  0  0  0  0  3  0  0  0  0  0  0
  -26.3820  -31.8390   25.1770 C   0  0  1  0  0  0  0  0  0  0  0  0
  -25.2700  -31.5970   26.2250 C   0  0  0  0  0  1  0  0  0  0  0  0
  -26.9810  -30.4630   24.8040 C   0  0  0  0  0  1  0  0  0  0  0  0
  -27.5140  -32.6460   25.8550 C   0  0  0  0  0  1  0  0  0  0  0  0
  -25.5610  -34.0010   24.2060 N   0  0  0  0  0  0  0  0  0  0  0  0
  -25.8900  -35.0510   23.4430 C   0  0  0  0  0  0  0  0  0  0  0  0
  -26.5650  -34.9450   22.4140 O   0  0  0  0  0  0  0  0  0  0  0  0
  -24.9480  -34.1540   24.9930 H   0  0  0  0  0  0  0  0  0  0  0  0
  -24.1490  -36.8330   23.0750 C   0  0  0  0  0  1  0  0  0  0  0  0
  -25.3910  -36.4390   23.8900 C   0  0  0  0  0  3  0  0  0  0  0  0
  -27.5090  -37.3500   24.7290 C   0  0  0  0  0  1  0  0  0  0  0  0
  -26.4160  -37.4990   23.7740 N   0  0  0  0  0  0  0  0  0  0  0  0
  -26.0000  -38.4170   23.9070 H   0  0  0  0  0  0  0  0  0  0  0  0
  2  7  1  0
  4  2  1  0
  4  1  1  0
  5  7  1  0
  5  6  1  0
  5  3  1  0
  6  8  1  6
  6  3  1  0
  6  1  1  0
  7 48  1  1
  7  4  1  0
  8  9  1  0
 10 18  1  0
 11 16  1  0
 12 13  1  0
 12 11  1  0
 14 13  1  0
 14 23  1  0
 14 15  1  0
 16 10  1  0
 16 15  1  0
 17 10  2  0
 18  9  1  0
 18 19  1  0
 20 21  2  0
 21 40  1  0
 22 21  1  0
 22 25  1  0
 23 20  1  0
 23 24  1  0
 24 22  2  0
 25 26  1  0
 26 27  2  0
 28 31  1  0
 28 27  1  0
 29 28  2  0
 30 29  1  0
 30 25  2  0
 31 32  1  0
 32 37  2  0
 32 33  1  0
 33 34  2  0
 35 34  1  0
 35 39  1  0
 36 35  2  0
 37 36  1  0
 38 37  1  0
 40 41  1  0
 41 44  1  0
 41 43  1  0
 42 40  2  0
 45 46  1  0
 45 20  1  0
 47 45  1  0
 49 48  2  0
 49 50  1  0
 51 62  2  0
 52 50  1  0
 52 57  1  0
 53 61  1  0
 53 63  1  0
 54 60  1  0
 54 56  1  0
 55 61  1  0
 56 55  1  0
 57 56  2  0
 58 59  1  0
 58 52  2  0
 59 54  2  0
 60 53  1  0
 61 51  1  0
 63 65  2  0
 64 63  1  0
 66 64  1  0
 67 76  2  0
 67 72  1  0
 68 64  1  0
 68 72  1  0
 69 68  1  0
 70 71  1  0
 70 69  1  0
 71 67  1  0
 72 73  2  0
 73 74  1  0
 75 74  2  0
 76 75  1  0
 77 51  1  0
 77 82  1  0
 77 78  1  0
 78 81  1  1
 78 79  1  0
 80 78  1  0
 82 85  1  0
 83 87  1  0
 83 82  1  0
 84 83  2  0
 87 86  1  0
 89 87  1  0
 89 90  1  0
 89 88  1  0
M  ISO  4  10 100  18 100  49 101  50 101
M  END
>  <TORSDO>  (30) 
F 20

>  <SCORE>  (30) 
-13.327

>  <name>  (30) 
30

>  <ligand_id>  (30) 
30

>  <original_smiles>  (30) 
[H]c1c([H])c([H])c2c(c1[H])C([H])([H])C([H])([H])C([H])([H])C2([H])N([H])C(=O)C1([H])N(C(=O)C([H])(N([H])C(=O)C([H])(N([H])C([H])([H])[H])C([H])([H])[H])C(C([H])([H])[H])(C([H])([H])[H])C([H])([H])[H])C([H])([H])c2c([H])c(OC([H])([H])C([H])([H])C34C([H])([H])C3([H])C([H])([H])C3(C([H])([H])C([H])([H])N([H])C(=O)N5C([H])([H])C([H])([H])C([H])([H])C([H])(n6nc(-c7c([H])c([H])c(Oc8c([H])c([H])c(F)c([H])c8F)c([H])c7[H])c(C(=O)N([H])[H])c6N([H])[H])C5([H])[H])C([H])([H])C34[H])c([H])c([H])c2C1([H])[H]

>  <smiles>  (30) 
[H]c1c([H])c([H])c2c(c1[H])C([H])([H])C([H])([H])C([H])([H])C2([H])N([H])C(=O)C1([H])N(C(=O)C([H])(N([H])C(=O)C([H])(N([H])C([H])([H])[H])C([H])([H])[H])C(C([H])([H])[H])(C([H])([H])[H])C([H])([H])[H])C([H])([H])c2c([H])c(OC([H])([H])C([H])([H])C34C([H])([H])C3([H])C([H])([H])C3(C([H])([H])C([H])([H])N([H])C(=O)N5C([H])([H])C([H])([H])C([H])([H])C([H])(n6nc(-c7c([H])c([H])c(Oc8c([H])c([H])c(F)c([H])c8F)c([H])c7[H])c(C(=O)N([H])[H])c6N([H])[H])C5([H])[H])C([H])([H])C34[H])c([H])c([H])c2C1([H])[H]

$$$$
31:0:0
     RDKit          3D

 93102  0  0  1  0  0  0  0  0999 V2000
  -28.3410  -18.8020   19.9370 C   0  0  0  0  0  2  0  0  0  0  0  0
  -27.5890  -21.3640   20.5390 C   0  0  0  0  0  2  0  0  0  0  0  0
  -30.4560  -19.9130   20.4250 C   0  0  0  0  0  3  0  0  0  0  0  0
  -28.2120  -20.3210   19.5760 C   0  0  0  0  0  3  0  0  0  0  0  0
  -29.5510  -21.0280   19.7740 C   0  0  0  0  0  3  0  0  0  0  0  0
  -29.5790  -18.6500   20.8700 C   0  0  0  0  0  3  0  0  0  0  0  0
  -28.8380  -22.2820   20.4700 C   0  0  0  0  0  3  0  0  0  0  0  0
  -32.7390  -20.0270   21.5230 C   0  0  0  0  0  2  0  0  0  0  0  0
  -31.4590  -20.4460   21.4420 C   0  0  0  0  0  3  0  0  0  0  0  0
  -28.7550  -23.7510   19.7790 C   0  0  0  0  0  3  0  0  0  0  0  0
  -28.0970  -25.0080   20.5630 C   0  0  0  0  0  3  0  0  0  0  0  0
  -28.2380  -26.4350   20.0980 O   0  0  0  0  0  0  0  0  0  0  0  0
  -24.5640  -31.9200   23.1740 C   0  0  0  0  0  0  0  0  0  0  0  0
  -27.1240  -27.3040   20.1140 C   0  0  0  0  0  0  0  0  0  0  0  0
  -23.3450  -30.5280   21.5420 C   0  0  0  0  0  3  0  0  0  0  0  0
  -24.7710  -28.9570   20.1070 C   0  0  0  0  0  0  0  0  0  0  0  0
  -25.8860  -30.8210   21.3370 C   0  0  0  0  0  2  0  0  0  0  0  0
  -25.9510  -29.4350   20.6960 C   0  0  0  0  0  0  0  0  0  0  0  0
  -27.1320  -28.6230   20.6790 C   0  0  0  0  0  3  0  0  0  0  0  0
  -25.9160  -26.8810   19.5190 C   0  0  0  0  0  3  0  0  0  0  0  0
  -24.7600  -27.6880   19.5100 C   0  0  0  0  0  3  0  0  0  0  0  0
  -23.5430  -29.8480   20.1610 C   0  0  0  0  0  2  0  0  0  0  0  0
  -24.6210  -31.1130   22.0720 N   0  0  0  0  0  0  0  0  0  0  0  0
  -23.4850  -32.1980   23.7190 O   0  0  0  0  0  0  0  0  0  0  0  0
  -22.6790  -29.5170   22.5130 C   0  0  0  0  0  0  0  0  0  0  0  0
  -21.3490  -29.3520   22.4000 N   0  0  0  0  0  0  0  0  0  0  0  0
  -23.3580  -28.8870   23.3260 O   0  0  0  0  0  0  0  0  0  0  0  0
  -20.8600  -29.9090   21.7140 H   0  0  0  0  0  0  0  0  0  0  0  0
  -17.9630  -28.1910   22.9520 C   0  0  0  0  0  0  0  0  0  0  0  0
  -20.5290  -28.4190   23.1770 C   0  0  0  0  0  3  0  0  0  0  0  0
  -20.6030  -26.9900   22.5930 C   0  0  0  0  0  2  0  0  0  0  0  0
  -19.4810  -26.6840   21.5960 C   0  0  0  0  0  2  0  0  0  0  0  0
  -18.1130  -26.8440   22.2620 C   0  0  0  0  0  2  0  0  0  0  0  0
  -19.0970  -28.9380   23.3650 C   0  0  0  0  0  0  0  0  0  0  0  0
  -18.9050  -30.2030   23.9630 C   0  0  0  0  0  3  0  0  0  0  0  0
  -17.6110  -30.7150   24.1620 C   0  0  0  0  0  3  0  0  0  0  0  0
  -16.4900  -29.9670   23.7600 C   0  0  0  0  0  3  0  0  0  0  0  0
  -16.6650  -28.7090   23.1550 C   0  0  0  0  0  3  0  0  0  0  0  0
  -25.8520  -32.5500   23.7880 C   0  0  0  0  0  3  0  0  0  0  0  0
  -25.5420  -33.9480   24.1350 N   0  0  0  0  0  0  0  0  0  0  0  0
  -25.8600  -35.0100   23.3880 C   0  0  0  0  0  0  0  0  0  0  0  0
  -26.5190  -34.9240   22.3480 O   0  0  0  0  0  0  0  0  0  0  0  0
  -24.9530  -34.0940   24.9410 H   0  0  0  0  0  0  0  0  0  0  0  0
  -24.1210  -36.8080   23.0840 C   0  0  0  0  0  1  0  0  0  0  0  0
  -25.3710  -36.3870   23.8740 C   0  0  0  0  0  3  0  0  0  0  0  0
  -27.5070  -37.2740   24.6990 C   0  0  0  0  0  1  0  0  0  0  0  0
  -26.3950  -37.4470   23.7690 N   0  0  0  0  0  0  0  0  0  0  0  0
  -25.9830  -38.3650   23.9190 H   0  0  0  0  0  0  0  0  0  0  0  0
  -26.3800  -31.7660   25.0540 C   0  0  1  0  0  0  0  0  0  0  0  0
  -25.2990  -31.5230   26.1310 C   0  0  0  0  0  1  0  0  0  0  0  0
  -26.9650  -30.3930   24.6480 C   0  0  0  0  0  1  0  0  0  0  0  0
  -27.5330  -32.5600   25.7070 C   0  0  0  0  0  1  0  0  0  0  0  0
  -30.3660  -17.2280   21.0640 C   0  0  0  0  0  3  0  0  0  0  0  0
  -30.3270  -14.7640   20.2260 C   0  0  0  0  0  0  0  0  0  0  0  0
  -29.9650  -12.6510   18.9500 C   0  0  0  0  0  2  0  0  0  0  0  0
  -28.9450  -12.8580   17.8100 C   0  0  0  0  0  2  0  0  0  0  0  0
  -27.5150  -12.6170   18.3240 C   0  0  0  0  0  2  0  0  0  0  0  0
  -27.2320  -13.3670   19.6530 C   0  0  0  0  0  3  0  0  0  0  0  0
  -28.3690  -13.1830   20.6840 C   0  0  0  0  0  2  0  0  0  0  0  0
  -29.6270  -13.5940   20.0440 N   0  0  0  0  0  0  0  0  0  0  0  0
  -31.4540  -14.8750   19.7430 O   0  0  0  0  0  0  0  0  0  0  0  0
  -29.7170  -15.8670   20.8100 N   0  0  0  0  0  0  0  0  0  0  0  0
  -28.7770  -15.7350   21.1460 H   0  0  0  0  0  0  0  0  0  0  0  0
  -24.8500  -13.8240   20.4900 C   0  0  0  0  0  0  0  0  0  0  0  0
  -23.8450  -12.9900   20.8930 C   0  0  0  0  0  0  0  0  0  0  0  0
  -24.3760  -11.6650   20.8330 C   0  0  0  0  0  0  0  0  0  0  0  0
  -25.9280  -13.0050   20.2020 N   0  0  0  0  0  0  0  0  0  0  0  0
  -25.6540  -11.7020   20.4730 N   0  0  0  0  0  0  0  0  0  0  0  0
  -23.7270  -10.3640   21.0400 C   0  0  0  0  0  0  0  0  0  0  0  0
  -24.2220   -9.4360   21.9820 C   0  0  0  0  0  3  0  0  0  0  0  0
  -23.5690   -8.1990   22.1810 C   0  0  0  0  0  3  0  0  0  0  0  0
  -22.4080   -7.8830   21.4330 C   0  0  0  0  0  0  0  0  0  0  0  0
  -21.9340   -8.8010   20.4790 C   0  0  0  0  0  3  0  0  0  0  0  0
  -22.5880  -10.0280   20.2790 C   0  0  0  0  0  3  0  0  0  0  0  0
  -21.7230   -6.6970   21.5400 O   0  0  0  0  0  0  0  0  0  0  0  0
  -21.7030   -5.9770   22.7070 C   0  0  0  0  0  0  0  0  0  0  0  0
  -21.2200   -6.5310   23.9160 C   0  0  0  0  0  3  0  0  0  0  0  0
  -21.1530   -5.7360   25.0770 C   0  0  0  0  0  3  0  0  0  0  0  0
  -21.5590   -4.3880   25.0310 C   0  0  0  0  0  0  0  0  0  0  0  0
  -22.0340   -3.8340   23.8310 C   0  0  0  0  0  3  0  0  0  0  0  0
  -22.1040   -4.6270   22.6710 C   0  0  0  0  0  0  0  0  0  0  0  0
  -22.5420   -4.0830   21.5110 F   0  0  0  0  0  0  0  0  0  0  0  0
  -21.4860   -3.6230   26.1440 F   0  0  0  0  0  0  0  0  0  0  0  0
  -22.4360  -13.3880   21.2270 C   0  0  0  0  0  0  0  0  0  0  0  0
  -21.7910  -12.6510   22.1250 N   0  0  0  0  0  0  0  0  0  0  0  0
  -21.9180  -14.3880   20.7310 O   0  0  0  0  0  0  0  0  0  0  0  0
  -22.2300  -11.8430   22.5430 H   0  0  0  0  0  0  0  0  0  0  0  0
  -20.8480  -12.8920   22.3970 H   0  0  0  0  0  0  0  0  0  0  0  0
  -24.9330  -15.2030   20.3160 N   0  0  0  0  0  0  0  0  0  0  0  0
  -24.1390  -15.8160   20.4610 H   0  0  0  0  0  0  0  0  0  0  0  0
  -25.7490  -15.6910   19.9670 H   0  0  0  0  0  0  0  0  0  0  0  0
  -31.6780  -16.0280   23.0580 C   0  0  0  0  0  1  0  0  0  0  0  0
  -30.9250  -17.2500   22.5250 C   0  0  0  0  0  2  0  0  0  0  0  0
  1  6  1  0
  3  6  1  0
  3  9  1  0
  4  5  1  0
  4  1  1  0
  4  2  1  0
  5  3  1  0
  5  7  1  0
  6 53  1  0
  7  2  1  0
  9  8  2  0
 10  7  1  0
 10 11  2  0
 12 14  1  0
 12 11  1  0
 13 24  2  0
 13 39  1  0
 14 19  1  0
 15 23  1  0
 15 25  1  0
 16 22  1  0
 16 18  1  0
 17 23  1  0
 18 17  1  0
 19 18  2  0
 20 14  2  0
 21 20  1  0
 21 16  2  0
 22 15  1  0
 23 13  1  0
 25 27  2  0
 26 25  1  0
 26 30  1  0
 28 26  1  0
 29 38  2  0
 29 34  1  0
 30 34  1  0
 31 30  1  0
 32 33  1  0
 32 31  1  0
 33 29  1  0
 34 35  2  0
 35 36  1  0
 37 36  2  0
 38 37  1  0
 39 40  1  0
 39 49  1  0
 40 43  1  0
 41 45  1  0
 41 40  1  0
 42 41  2  0
 44 45  1  0
 47 45  1  0
 47 48  1  0
 47 46  1  0
 49 52  1  1
 49 50  1  0
 51 49  1  0
 53 93  1  0
 54 62  1  0
 55 60  1  0
 56 57  1  0
 56 55  1  0
 57 58  1  0
 58 67  1  0
 58 59  1  0
 60 54  1  0
 60 59  1  0
 61 54  2  0
 62 53  1  0
 62 63  1  0
 64 65  2  0
 65 84  1  0
 66 65  1  0
 66 69  1  0
 67 68  1  0
 67 64  1  0
 68 66  2  0
 69 70  1  0
 70 71  2  0
 72 75  1  0
 72 71  1  0
 73 72  2  0
 74 73  1  0
 74 69  2  0
 75 76  1  0
 76 77  1  0
 77 78  2  0
 79 78  1  0
 79 83  1  0
 80 79  2  0
 81 76  2  0
 81 80  1  0
 82 81  1  0
 84 85  1  0
 85 88  1  0
 85 87  1  0
 86 84  2  0
 89 90  1  0
 89 64  1  0
 91 89  1  0
 93 92  1  0
M  ISO  4  11 101  12 101  54 100  62 100
M  END
>  <TORSDO>  (31) 
F 21

>  <SCORE>  (31) 
-11.377

>  <name>  (31) 
31

>  <ligand_id>  (31) 
31

>  <original_smiles>  (31) 
[H]C([H])=C([H])C1([H])C([H])(C([H])(N([H])C(=O)N2C([H])([H])C([H])([H])C([H])([H])C([H])(n3nc(-c4c([H])c([H])c(Oc5c([H])c([H])c(F)c([H])c5F)c([H])c4[H])c(C(=O)N([H])[H])c3N([H])[H])C2([H])[H])C([H])([H])C([H])([H])[H])C([H])([H])C2([H])C([H])([H])C([H])(C([H])([H])C([H])([H])Oc3c([H])c([H])c4c(c3[H])C([H])([H])N(C(=O)C([H])(N([H])C(=O)C([H])(N([H])C([H])([H])[H])C([H])([H])[H])C(C([H])([H])[H])(C([H])([H])[H])C([H])([H])[H])C([H])(C(=O)N([H])C3([H])c5c([H])c([H])c([H])c([H])c5C([H])([H])C([H])([H])C3([H])[H])C4([H])[H])C12[H]

>  <smiles>  (31) 
[H]C([H])=C([H])C1([H])C([H])(C([H])(N([H])C(=O)N2C([H])([H])C([H])([H])C([H])([H])C([H])(n3nc(-c4c([H])c([H])c(Oc5c([H])c([H])c(F)c([H])c5F)c([H])c4[H])c(C(=O)N([H])[H])c3N([H])[H])C2([H])[H])C([H])([H])C([H])([H])[H])C([H])([H])C2([H])C([H])([H])C([H])(C([H])([H])C([H])([H])Oc3c([H])c([H])c4c(c3[H])C([H])([H])N(C(=O)C([H])(N([H])C(=O)C([H])(N([H])C([H])([H])[H])C([H])([H])[H])C(C([H])([H])[H])(C([H])([H])[H])C([H])([H])[H])C([H])(C(=O)N([H])C3([H])c5c([H])c([H])c([H])c([H])c5C([H])([H])C([H])([H])C3([H])[H])C4([H])[H])C12[H]

$$$$
32:0:0
     RDKit          3D

 86 94  0  0  1  0  0  0  0  0999 V2000
  -28.9480  -22.2670   20.3140 C   0  0  0  0  0  0  0  0  0  0  0  0
  -30.1400  -22.5610   20.4510 O   0  0  0  0  0  0  0  0  0  0  0  0
  -28.7170  -20.3990   20.2720 C   0  0  0  0  0  2  0  0  0  0  0  0
  -31.0910  -19.0930   21.0210 C   0  0  0  0  0  2  0  0  0  0  0  0
  -31.0890  -19.1010   19.5240 C   0  0  0  0  0  2  0  0  0  0  0  0
  -29.7980  -18.8140   20.2730 C   0  0  2  0  0  0  0  0  0  0  0  0
  -30.2590  -15.7020   20.1840 C   0  0  0  0  0  0  0  0  0  0  0  0
  -30.3460  -13.1710   19.3250 C   0  0  0  0  0  2  0  0  0  0  0  0
  -29.4380  -12.7770   18.1250 C   0  0  0  0  0  2  0  0  0  0  0  0
  -28.0240  -12.4130   18.6020 C   0  0  0  0  0  2  0  0  0  0  0  0
  -27.5270  -13.3960   19.6860 C   0  0  0  0  0  3  0  0  0  0  0  0
  -28.5760  -13.7020   20.7810 C   0  0  0  0  0  2  0  0  0  0  0  0
  -29.7300  -14.3390   20.1060 N   0  0  0  0  0  0  0  0  0  0  0  0
  -31.4900  -15.6320   20.0000 O   0  0  0  0  0  0  0  0  0  0  0  0
  -29.5080  -17.0730   20.2770 N   0  0  0  0  0  0  0  0  0  0  0  0
  -28.5190  -16.8870   20.3670 H   0  0  0  0  0  0  0  0  0  0  0  0
  -25.1720  -13.8930   20.4930 C   0  0  0  0  0  0  0  0  0  0  0  0
  -24.1290  -13.0980   20.8700 C   0  0  0  0  0  0  0  0  0  0  0  0
  -24.6160  -11.7550   20.8220 C   0  0  0  0  0  0  0  0  0  0  0  0
  -26.2240  -13.0370   20.2250 N   0  0  0  0  0  0  0  0  0  0  0  0
  -25.9050  -11.7430   20.4920 N   0  0  0  0  0  0  0  0  0  0  0  0
  -23.9060  -10.4820   21.0120 C   0  0  0  0  0  0  0  0  0  0  0  0
  -24.3490   -9.5190   21.9460 C   0  0  0  0  0  3  0  0  0  0  0  0
  -23.6350   -8.3160   22.1260 C   0  0  0  0  0  3  0  0  0  0  0  0
  -22.4630   -8.0650   21.3730 C   0  0  0  0  0  0  0  0  0  0  0  0
  -22.0390   -9.0160   20.4290 C   0  0  0  0  0  3  0  0  0  0  0  0
  -22.7540  -10.2110   20.2470 C   0  0  0  0  0  3  0  0  0  0  0  0
  -21.7200   -6.9120   21.4640 O   0  0  0  0  0  0  0  0  0  0  0  0
  -21.6650   -6.1790   22.6230 C   0  0  0  0  0  0  0  0  0  0  0  0
  -21.1960   -6.7340   23.8330 C   0  0  0  0  0  3  0  0  0  0  0  0
  -21.0900   -5.9260   24.9830 C   0  0  0  0  0  3  0  0  0  0  0  0
  -21.4440   -4.5660   24.9230 C   0  0  0  0  0  0  0  0  0  0  0  0
  -21.9060   -4.0100   23.7170 C   0  0  0  0  0  3  0  0  0  0  0  0
  -22.0130   -4.8150   22.5690 C   0  0  0  0  0  0  0  0  0  0  0  0
  -22.4380   -4.2690   21.4050 F   0  0  0  0  0  0  0  0  0  0  0  0
  -21.3360   -3.7870   26.0260 F   0  0  0  0  0  0  0  0  0  0  0  0
  -22.7290  -13.5550   21.1550 C   0  0  0  0  0  0  0  0  0  0  0  0
  -22.0220  -12.8520   22.0320 N   0  0  0  0  0  0  0  0  0  0  0  0
  -22.2720  -14.5730   20.6370 O   0  0  0  0  0  0  0  0  0  0  0  0
  -22.4050  -12.0290   22.4730 H   0  0  0  0  0  0  0  0  0  0  0  0
  -21.0820  -13.1410   22.2660 H   0  0  0  0  0  0  0  0  0  0  0  0
  -25.3100  -15.2680   20.3220 N   0  0  0  0  0  0  0  0  0  0  0  0
  -24.5320  -15.9060   20.4450 H   0  0  0  0  0  0  0  0  0  0  0  0
  -26.1370  -15.7190   19.9530 H   0  0  0  0  0  0  0  0  0  0  0  0
  -27.8810  -23.8020   20.2060 C   0  0  0  0  0  2  0  0  0  0  0  0
  -28.1420  -25.5450   20.3250 O   0  0  0  0  0  0  0  0  0  0  0  0
  -24.6770  -31.8650   23.2540 C   0  0  0  0  0  0  0  0  0  0  0  0
  -27.1810  -26.7690   20.2720 C   0  0  0  0  0  0  0  0  0  0  0  0
  -23.4840  -30.4740   21.6160 C   0  0  0  0  0  3  0  0  0  0  0  0
  -24.9260  -28.8170   20.2080 C   0  0  0  0  0  0  0  0  0  0  0  0
  -26.0650  -30.6010   21.5000 C   0  0  0  0  0  2  0  0  0  0  0  0
  -26.1220  -29.1670   20.8440 C   0  0  0  0  0  0  0  0  0  0  0  0
  -27.2350  -28.1710   20.8420 C   0  0  0  0  0  3  0  0  0  0  0  0
  -25.9510  -26.6300   19.5800 C   0  0  0  0  0  3  0  0  0  0  0  0
  -24.8790  -27.5740   19.5520 C   0  0  0  0  0  3  0  0  0  0  0  0
  -23.7240  -29.7750   20.2460 C   0  0  0  0  0  2  0  0  0  0  0  0
  -24.7670  -31.0130   22.1760 N   0  0  0  0  0  0  0  0  0  0  0  0
  -23.5850  -32.1710   23.7620 O   0  0  0  0  0  0  0  0  0  0  0  0
  -22.7600  -29.5020   22.5860 C   0  0  0  0  0  0  0  0  0  0  0  0
  -21.4270  -29.3550   22.4560 N   0  0  0  0  0  0  0  0  0  0  0  0
  -23.4090  -28.8770   23.4280 O   0  0  0  0  0  0  0  0  0  0  0  0
  -20.9530  -29.9080   21.7560 H   0  0  0  0  0  0  0  0  0  0  0  0
  -18.0320  -28.1550   22.9540 C   0  0  0  0  0  0  0  0  0  0  0  0
  -20.5930  -28.4230   23.2270 C   0  0  0  0  0  3  0  0  0  0  0  0
  -20.6930  -26.9880   22.6610 C   0  0  0  0  0  2  0  0  0  0  0  0
  -19.5970  -26.6620   21.6420 C   0  0  0  0  0  2  0  0  0  0  0  0
  -18.2120  -26.8070   22.2780 C   0  0  0  0  0  2  0  0  0  0  0  0
  -19.1490  -28.9220   23.3860 C   0  0  0  0  0  0  0  0  0  0  0  0
  -18.9230  -30.1800   23.9830 C   0  0  0  0  0  3  0  0  0  0  0  0
  -17.6150  -30.6740   24.1500 C   0  0  0  0  0  3  0  0  0  0  0  0
  -16.5140  -29.9080   23.7320 C   0  0  0  0  0  3  0  0  0  0  0  0
  -16.7240  -28.6490   23.1410 C   0  0  0  0  0  3  0  0  0  0  0  0
  -25.9420  -32.5080   23.8980 C   0  0  0  0  0  3  0  0  0  0  0  0
  -26.4350  -31.7420   25.1900 C   0  0  1  0  0  0  0  0  0  0  0  0
  -25.3280  -31.5250   26.2490 C   0  0  0  0  0  1  0  0  0  0  0  0
  -27.0080  -30.3550   24.8280 C   0  0  0  0  0  1  0  0  0  0  0  0
  -27.5870  -32.5310   25.8580 C   0  0  0  0  0  1  0  0  0  0  0  0
  -25.6240  -33.9090   24.2410 N   0  0  0  0  0  0  0  0  0  0  0  0
  -25.9400  -34.9770   23.4970 C   0  0  0  0  0  0  0  0  0  0  0  0
  -26.5870  -34.8880   22.4510 O   0  0  0  0  0  0  0  0  0  0  0  0
  -25.0450  -34.0500   25.0550 H   0  0  0  0  0  0  0  0  0  0  0  0
  -24.1940  -36.7760   23.2310 C   0  0  0  0  0  1  0  0  0  0  0  0
  -25.4690  -36.3640   23.9870 C   0  0  0  0  0  3  0  0  0  0  0  0
  -27.6280  -37.2600   24.7430 C   0  0  0  0  0  1  0  0  0  0  0  0
  -26.4920  -37.4230   23.8400 N   0  0  0  0  0  0  0  0  0  0  0  0
  -26.0870  -38.3410   24.0030 H   0  0  0  0  0  0  0  0  0  0  0  0
  1  2  2  0
  6  3  1  1
  3  1  1  0
  5  6  1  0
  5  4  1  0
  6 15  1  0
  6  4  1  0
  7 15  1  0
  8 13  1  0
  9 10  1  0
  9  8  1  0
 11 10  1  0
 11 20  1  0
 11 12  1  0
 13  7  1  0
 13 12  1  0
 14  7  2  0
 15 16  1  0
 17 18  2  0
 18 37  1  0
 19 18  1  0
 19 22  1  0
 20 21  1  0
 20 17  1  0
 21 19  2  0
 22 23  1  0
 23 24  2  0
 25 28  1  0
 25 24  1  0
 26 25  2  0
 27 26  1  0
 27 22  2  0
 28 29  1  0
 29 30  1  0
 30 31  2  0
 32 31  1  0
 32 36  1  0
 33 32  2  0
 34 29  2  0
 34 33  1  0
 35 34  1  0
 37 38  1  0
 38 41  1  0
 38 40  1  0
 39 37  2  0
 42 43  1  0
 42 17  1  0
 44 42  1  0
 45  1  1  0
 45 46  1  0
 47 58  2  0
 48 46  1  0
 48 53  1  0
 49 57  1  0
 49 59  1  0
 50 56  1  0
 50 52  1  0
 51 57  1  0
 52 51  1  0
 53 52  2  0
 54 48  2  0
 55 54  1  0
 55 50  2  0
 56 49  1  0
 57 47  1  0
 59 61  2  0
 60 59  1  0
 62 60  1  0
 63 72  2  0
 63 68  1  0
 64 60  1  0
 64 68  1  0
 65 64  1  0
 66 67  1  0
 66 65  1  0
 67 63  1  0
 68 69  2  0
 69 70  1  0
 71 70  2  0
 72 71  1  0
 73 47  1  0
 73 78  1  0
 73 74  1  0
 74 77  1  1
 74 75  1  0
 76 74  1  0
 78 81  1  0
 79 83  1  0
 79 78  1  0
 80 79  2  0
 83 82  1  0
 85 83  1  0
 85 86  1  0
 85 84  1  0
M  ISO  4   7 100  15 100  45 101  46 101
M  END
>  <TORSDO>  (32) 
F 19

>  <SCORE>  (32) 
-16.561

>  <name>  (32) 
32

>  <ligand_id>  (32) 
32

>  <original_smiles>  (32) 
[H]c1c([H])c([H])c2c(c1[H])C([H])([H])C([H])([H])C([H])([H])C2([H])N([H])C(=O)C1([H])N(C(=O)C([H])(N([H])C(=O)C([H])(N([H])C([H])([H])[H])C([H])([H])[H])C(C([H])([H])[H])(C([H])([H])[H])C([H])([H])[H])C([H])([H])c2c([H])c(OC([H])([H])C(=O)C([H])([H])C3(N([H])C(=O)N4C([H])([H])C([H])([H])C([H])([H])C([H])(n5nc(-c6c([H])c([H])c(Oc7c([H])c([H])c(F)c([H])c7F)c([H])c6[H])c(C(=O)N([H])[H])c5N([H])[H])C4([H])[H])C([H])([H])C3([H])[H])c([H])c([H])c2C1([H])[H]

>  <smiles>  (32) 
[H]c1c([H])c([H])c2c(c1[H])C([H])([H])C([H])([H])C([H])([H])C2([H])N([H])C(=O)C1([H])N(C(=O)C([H])(N([H])C(=O)C([H])(N([H])C([H])([H])[H])C([H])([H])[H])C(C([H])([H])[H])(C([H])([H])[H])C([H])([H])[H])C([H])([H])c2c([H])c(OC([H])([H])C(=O)C([H])([H])C3(N([H])C(=O)N4C([H])([H])C([H])([H])C([H])([H])C([H])(n5nc(-c6c([H])c([H])c(Oc7c([H])c([H])c(F)c([H])c7F)c([H])c6[H])c(C(=O)N([H])[H])c5N([H])[H])C4([H])[H])C([H])([H])C3([H])[H])c([H])c([H])c2C1([H])[H]

$$$$
33:0:0
     RDKit          3D

 88 97  0  0  1  0  0  0  0  0999 V2000
  -30.7060  -19.7810   20.5750 C   0  0  0  0  0  3  0  0  0  0  0  0
  -29.9490  -21.1130   20.0430 C   0  0  0  0  0  3  0  0  0  0  0  0
  -28.6580  -20.2980   20.0600 C   0  0  0  0  0  3  0  0  0  0  0  0
  -28.7720  -22.0630   20.5750 C   0  0  0  0  0  3  0  0  0  0  0  0
  -29.6400  -18.7730   20.0540 C   0  0  0  0  0  3  0  0  0  0  0  0
  -30.2720  -15.6570   20.2600 C   0  0  0  0  0  0  0  0  0  0  0  0
  -30.3420  -13.1100   19.4470 C   0  0  0  0  0  2  0  0  0  0  0  0
  -29.4590  -12.7560   18.2160 C   0  0  0  0  0  2  0  0  0  0  0  0
  -28.0330  -12.4040   18.6630 C   0  0  0  0  0  2  0  0  0  0  0  0
  -27.5240  -13.3970   19.7350 C   0  0  0  0  0  3  0  0  0  0  0  0
  -28.5480  -13.6890   20.8580 C   0  0  0  0  0  2  0  0  0  0  0  0
  -29.7390  -14.2950   20.2170 N   0  0  0  0  0  0  0  0  0  0  0  0
  -31.4930  -15.5920   20.0180 O   0  0  0  0  0  0  0  0  0  0  0  0
  -29.5330  -17.0220   20.3850 N   0  0  0  0  0  0  0  0  0  0  0  0
  -28.5790  -16.8090   20.6380 H   0  0  0  0  0  0  0  0  0  0  0  0
  -25.1560  -13.9280   20.4830 C   0  0  0  0  0  0  0  0  0  0  0  0
  -24.0970  -13.1500   20.8500 C   0  0  0  0  0  0  0  0  0  0  0  0
  -24.5680  -11.8020   20.8280 C   0  0  0  0  0  0  0  0  0  0  0  0
  -26.2030  -13.0590   20.2460 N   0  0  0  0  0  0  0  0  0  0  0  0
  -25.8620  -11.7720   20.5180 N   0  0  0  0  0  0  0  0  0  0  0  0
  -23.8420  -10.5390   21.0220 C   0  0  0  0  0  0  0  0  0  0  0  0
  -24.2720   -9.5690   21.9550 C   0  0  0  0  0  3  0  0  0  0  0  0
  -23.5390   -8.3760   22.1360 C   0  0  0  0  0  3  0  0  0  0  0  0
  -22.3640   -8.1420   21.3850 C   0  0  0  0  0  0  0  0  0  0  0  0
  -21.9520   -9.0990   20.4410 C   0  0  0  0  0  3  0  0  0  0  0  0
  -22.6880  -10.2830   20.2580 C   0  0  0  0  0  3  0  0  0  0  0  0
  -21.6070   -6.9960   21.4720 O   0  0  0  0  0  0  0  0  0  0  0  0
  -21.5620   -6.2520   22.6230 C   0  0  0  0  0  0  0  0  0  0  0  0
  -21.1330   -6.8010   23.8510 C   0  0  0  0  0  3  0  0  0  0  0  0
  -21.0300   -5.9830   24.9930 C   0  0  0  0  0  3  0  0  0  0  0  0
  -21.3530   -4.6150   24.9100 C   0  0  0  0  0  0  0  0  0  0  0  0
  -21.7800   -4.0650   23.6870 C   0  0  0  0  0  3  0  0  0  0  0  0
  -21.8800   -4.8810   22.5460 C   0  0  0  0  0  0  0  0  0  0  0  0
  -22.2700   -4.3410   21.3660 F   0  0  0  0  0  0  0  0  0  0  0  0
  -21.2510   -3.8240   26.0030 F   0  0  0  0  0  0  0  0  0  0  0  0
  -22.6970  -13.6300   21.1090 C   0  0  0  0  0  0  0  0  0  0  0  0
  -21.9560  -12.9440   21.9690 N   0  0  0  0  0  0  0  0  0  0  0  0
  -22.2680  -14.6550   20.5790 O   0  0  0  0  0  0  0  0  0  0  0  0
  -22.3100  -12.1140   22.4230 H   0  0  0  0  0  0  0  0  0  0  0  0
  -21.0210  -13.2630   22.1850 H   0  0  0  0  0  0  0  0  0  0  0  0
  -25.3200  -15.3010   20.3000 N   0  0  0  0  0  0  0  0  0  0  0  0
  -24.5540  -15.9580   20.3980 H   0  0  0  0  0  0  0  0  0  0  0  0
  -26.1600  -15.7270   19.9290 H   0  0  0  0  0  0  0  0  0  0  0  0
  -32.1010  -19.6240   20.0030 C   0  0  0  0  0  0  0  0  0  0  0  0
  -33.1540  -20.5730   20.5620 C   0  0  0  0  0  1  0  0  0  0  0  0
  -32.4510  -18.8090   19.1470 O   0  0  0  0  0  0  0  0  0  0  0  0
  -28.1790  -23.8110   20.0150 C   0  0  0  0  0  2  0  0  0  0  0  0
  -28.1950  -25.5400   20.3980 O   0  0  0  0  0  0  0  0  0  0  0  0
  -24.6520  -31.8430   23.2140 C   0  0  0  0  0  0  0  0  0  0  0  0
  -27.2170  -26.7510   20.2750 C   0  0  0  0  0  0  0  0  0  0  0  0
  -23.4750  -30.4330   21.5770 C   0  0  0  0  0  3  0  0  0  0  0  0
  -24.9360  -28.7740   20.1830 C   0  0  0  0  0  0  0  0  0  0  0  0
  -26.0520  -30.5760   21.4730 C   0  0  0  0  0  2  0  0  0  0  0  0
  -26.1220  -29.1400   20.8270 C   0  0  0  0  0  0  0  0  0  0  0  0
  -27.2410  -28.1530   20.8450 C   0  0  0  0  0  3  0  0  0  0  0  0
  -26.0000  -26.5980   19.5630 C   0  0  0  0  0  3  0  0  0  0  0  0
  -24.9120  -27.5290   19.5280 C   0  0  0  0  0  3  0  0  0  0  0  0
  -23.7230  -29.7220   20.2130 C   0  0  0  0  0  2  0  0  0  0  0  0
  -24.7510  -30.9870   22.1390 N   0  0  0  0  0  0  0  0  0  0  0  0
  -23.5550  -32.1440   23.7180 O   0  0  0  0  0  0  0  0  0  0  0  0
  -22.7520  -29.4650   22.5540 C   0  0  0  0  0  0  0  0  0  0  0  0
  -21.4180  -29.3160   22.4290 N   0  0  0  0  0  0  0  0  0  0  0  0
  -23.4030  -28.8450   23.3960 O   0  0  0  0  0  0  0  0  0  0  0  0
  -20.9430  -29.8670   21.7270 H   0  0  0  0  0  0  0  0  0  0  0  0
  -18.0250  -28.1220   22.9500 C   0  0  0  0  0  0  0  0  0  0  0  0
  -20.5880  -28.3850   23.2020 C   0  0  0  0  0  3  0  0  0  0  0  0
  -20.6820  -26.9500   22.6330 C   0  0  0  0  0  2  0  0  0  0  0  0
  -19.5780  -26.6300   21.6220 C   0  0  0  0  0  2  0  0  0  0  0  0
  -18.1980  -26.7750   22.2690 C   0  0  0  0  0  2  0  0  0  0  0  0
  -19.1470  -28.8850   23.3740 C   0  0  0  0  0  0  0  0  0  0  0  0
  -18.9280  -30.1420   23.9780 C   0  0  0  0  0  3  0  0  0  0  0  0
  -17.6230  -30.6380   24.1550 C   0  0  0  0  0  3  0  0  0  0  0  0
  -16.5170  -29.8750   23.7430 C   0  0  0  0  0  3  0  0  0  0  0  0
  -16.7190  -28.6170   23.1480 C   0  0  0  0  0  3  0  0  0  0  0  0
  -25.9080  -32.4990   23.8620 C   0  0  0  0  0  3  0  0  0  0  0  0
  -25.5840  -33.9040   24.1830 N   0  0  0  0  0  0  0  0  0  0  0  0
  -25.9130  -34.9640   23.4330 C   0  0  0  0  0  0  0  0  0  0  0  0
  -26.5780  -34.8620   22.3990 O   0  0  0  0  0  0  0  0  0  0  0  0
  -24.9880  -34.0520   24.9830 H   0  0  0  0  0  0  0  0  0  0  0  0
  -24.1750  -36.7640   23.1150 C   0  0  0  0  0  1  0  0  0  0  0  0
  -25.4330  -36.3570   23.8990 C   0  0  0  0  0  3  0  0  0  0  0  0
  -27.5780  -37.2610   24.6860 C   0  0  0  0  0  1  0  0  0  0  0  0
  -26.4600  -37.4130   23.7590 N   0  0  0  0  0  0  0  0  0  0  0  0
  -26.0560  -38.3350   23.8930 H   0  0  0  0  0  0  0  0  0  0  0  0
  -26.3940  -31.7520   25.1680 C   0  0  1  0  0  0  0  0  0  0  0  0
  -25.2780  -31.5420   26.2200 C   0  0  0  0  0  1  0  0  0  0  0  0
  -26.9770  -30.3620   24.8280 C   0  0  0  0  0  1  0  0  0  0  0  0
  -27.5370  -32.5520   25.8330 C   0  0  0  0  0  1  0  0  0  0  0  0
  1 44  1  0
  2  3  1  0
  2  1  1  0
  2  4  1  0
  3  4  1  0
  5  3  1  0
  5 14  1  0
  5  1  1  0
  6 14  1  0
  7 12  1  0
  8  9  1  0
  8  7  1  0
  9 10  1  0
 10 19  1  0
 10 11  1  0
 12  6  1  0
 12 11  1  0
 13  6  2  0
 14 15  1  0
 16 17  2  0
 17 36  1  0
 18 17  1  0
 18 21  1  0
 19 16  1  0
 19 20  1  0
 20 18  2  0
 21 22  1  0
 22 23  2  0
 24 27  1  0
 24 23  1  0
 25 24  2  0
 26 25  1  0
 26 21  2  0
 27 28  1  0
 28 29  1  0
 29 30  2  0
 31 30  1  0
 31 35  1  0
 32 31  2  0
 33 28  2  0
 33 32  1  0
 34 33  1  0
 36 37  1  0
 37 40  1  0
 37 39  1  0
 38 36  2  0
 41 42  1  0
 41 16  1  0
 43 41  1  0
 44 45  1  0
 46 44  2  0
 47 48  1  0
 47  4  1  0
 49 60  2  0
 49 75  1  0
 50 48  1  0
 50 55  1  0
 51 59  1  0
 51 61  1  0
 52 58  1  0
 52 54  1  0
 53 59  1  0
 54 55  2  0
 54 53  1  0
 56 50  2  0
 57 56  1  0
 57 52  2  0
 58 51  1  0
 59 49  1  0
 61 63  2  0
 62 61  1  0
 62 66  1  0
 64 62  1  0
 65 74  2  0
 65 70  1  0
 66 70  1  0
 67 66  1  0
 68 69  1  0
 68 67  1  0
 69 65  1  0
 70 71  2  0
 71 72  1  0
 73 72  2  0
 74 73  1  0
 75 76  1  0
 75 85  1  0
 76 79  1  0
 77 81  1  0
 77 76  1  0
 78 77  2  0
 80 81  1  0
 83 84  1  0
 83 81  1  0
 83 82  1  0
 85 88  1  1
 85 86  1  0
 87 85  1  0
M  ISO  4   6 100  14 100  47 101  48 101
M  END
>  <TORSDO>  (33) 
F 18

>  <SCORE>  (33) 
-16.072

>  <name>  (33) 
33

>  <ligand_id>  (33) 
33

>  <original_smiles>  (33) 
[H]c1c([H])c([H])c2c(c1[H])C([H])([H])C([H])([H])C([H])([H])C2([H])N([H])C(=O)C1([H])N(C(=O)C([H])(N([H])C(=O)C([H])(N([H])C([H])([H])[H])C([H])([H])[H])C(C([H])([H])[H])(C([H])([H])[H])C([H])([H])[H])C([H])([H])c2c([H])c(OC([H])([H])C3([H])C4([H])C([H])(C(=O)C([H])([H])[H])C([H])(N([H])C(=O)N5C([H])([H])C([H])([H])C([H])([H])C([H])(n6nc(-c7c([H])c([H])c(Oc8c([H])c([H])c(F)c([H])c8F)c([H])c7[H])c(C(=O)N([H])[H])c6N([H])[H])C5([H])[H])C34[H])c([H])c([H])c2C1([H])[H]

>  <smiles>  (33) 
[H]c1c([H])c([H])c2c(c1[H])C([H])([H])C([H])([H])C([H])([H])C2([H])N([H])C(=O)C1([H])N(C(=O)C([H])(N([H])C(=O)C([H])(N([H])C([H])([H])[H])C([H])([H])[H])C(C([H])([H])[H])(C([H])([H])[H])C([H])([H])[H])C([H])([H])c2c([H])c(OC([H])([H])C3([H])C4([H])C([H])(C(=O)C([H])([H])[H])C([H])(N([H])C(=O)N5C([H])([H])C([H])([H])C([H])([H])C([H])(n6nc(-c7c([H])c([H])c(Oc8c([H])c([H])c(F)c([H])c8F)c([H])c7[H])c(C(=O)N([H])[H])c6N([H])[H])C5([H])[H])C34[H])c([H])c([H])c2C1([H])[H]

$$$$
34:0:0
     RDKit          3D

 90 99  0  0  1  0  0  0  0  0999 V2000
  -28.5190  -21.9510   20.2090 C   0  0  0  0  0  0  0  0  0  0  0  0
  -29.3320  -20.8020   20.2940 N   0  0  0  0  0  0  0  0  0  0  0  0
  -27.3120  -21.7900   20.0290 O   0  0  0  0  0  0  0  0  0  0  0  0
  -30.3160  -20.9920   20.4400 H   0  0  0  0  0  0  0  0  0  0  0  0
  -30.6210  -14.9150   19.9880 C   0  0  0  0  0  0  0  0  0  0  0  0
  -30.3860  -12.6280   18.9560 C   0  0  0  0  0  2  0  0  0  0  0  0
  -29.3780  -12.6570   17.7860 C   0  0  0  0  0  2  0  0  0  0  0  0
  -27.9440  -12.4420   18.3070 C   0  0  0  0  0  2  0  0  0  0  0  0
  -27.6220  -13.3200   19.5470 C   0  0  0  0  0  3  0  0  0  0  0  0
  -28.7480  -13.2810   20.6000 C   0  0  0  0  0  2  0  0  0  0  0  0
  -29.9810  -13.6880   19.9190 N   0  0  0  0  0  0  0  0  0  0  0  0
  -31.7950  -14.9690   19.6040 O   0  0  0  0  0  0  0  0  0  0  0  0
  -29.2980  -18.4940   18.9460 C   0  0  0  0  0  2  0  0  0  0  0  0
  -29.3110  -16.7050   21.3450 C   0  0  0  0  0  2  0  0  0  0  0  0
  -29.8070  -18.1510   20.9840 C   0  0  0  0  0  3  0  0  0  0  0  0
  -30.3010  -17.5260   19.6720 C   0  0  0  0  0  3  0  0  0  0  0  0
  -28.9400  -19.2890   20.2450 C   0  0  0  0  0  3  0  0  0  0  0  0
  -29.8860  -16.1200   20.1070 N   0  0  0  0  0  0  0  0  0  0  0  0
  -25.2910  -13.8600   20.4570 C   0  0  0  0  0  0  0  0  0  0  0  0
  -24.2560  -13.0650   20.8660 C   0  0  0  0  0  0  0  0  0  0  0  0
  -24.7240  -11.7190   20.7590 C   0  0  0  0  0  0  0  0  0  0  0  0
  -26.3200  -12.9980   20.1210 N   0  0  0  0  0  0  0  0  0  0  0  0
  -25.9930  -11.7030   20.3680 N   0  0  0  0  0  0  0  0  0  0  0  0
  -24.0170  -10.4460   20.9520 C   0  0  0  0  0  0  0  0  0  0  0  0
  -24.4690   -9.4810   21.8800 C   0  0  0  0  0  3  0  0  0  0  0  0
  -23.7610   -8.2750   22.0610 C   0  0  0  0  0  3  0  0  0  0  0  0
  -22.5860   -8.0220   21.3140 C   0  0  0  0  0  0  0  0  0  0  0  0
  -22.1530   -8.9750   20.3750 C   0  0  0  0  0  3  0  0  0  0  0  0
  -22.8620  -10.1730   20.1930 C   0  0  0  0  0  3  0  0  0  0  0  0
  -21.8450   -6.8680   21.4060 O   0  0  0  0  0  0  0  0  0  0  0  0
  -21.7530   -6.1630   22.5800 C   0  0  0  0  0  0  0  0  0  0  0  0
  -21.2560   -6.7490   23.7640 C   0  0  0  0  0  3  0  0  0  0  0  0
  -21.1140   -5.9690   24.9290 C   0  0  0  0  0  3  0  0  0  0  0  0
  -21.4570   -4.6050   24.9100 C   0  0  0  0  0  0  0  0  0  0  0  0
  -21.9470   -4.0170   23.7290 C   0  0  0  0  0  3  0  0  0  0  0  0
  -22.0920   -4.7940   22.5670 C   0  0  0  0  0  0  0  0  0  0  0  0
  -22.5440   -4.2190   21.4270 F   0  0  0  0  0  0  0  0  0  0  0  0
  -21.3130   -3.8530   26.0260 F   0  0  0  0  0  0  0  0  0  0  0  0
  -22.8760  -13.5220   21.2380 C   0  0  0  0  0  0  0  0  0  0  0  0
  -22.2100  -12.8000   22.1330 N   0  0  0  0  0  0  0  0  0  0  0  0
  -22.3990  -14.5550   20.7710 O   0  0  0  0  0  0  0  0  0  0  0  0
  -22.6070  -11.9620   22.5320 H   0  0  0  0  0  0  0  0  0  0  0  0
  -21.2860  -13.0880   22.4210 H   0  0  0  0  0  0  0  0  0  0  0  0
  -25.4370  -15.2380   20.3140 N   0  0  0  0  0  0  0  0  0  0  0  0
  -24.6790  -15.8850   20.4990 H   0  0  0  0  0  0  0  0  0  0  0  0
  -26.2670  -15.6900   19.9520 H   0  0  0  0  0  0  0  0  0  0  0  0
  -29.6980  -23.6870   21.7140 C   0  0  0  0  0  1  0  0  0  0  0  0
  -29.0330  -23.5050   20.3410 C   0  0  0  0  0  3  0  0  0  0  0  0
  -27.9950  -24.7800   20.0770 C   0  0  0  0  0  2  0  0  0  0  0  0
  -28.2940  -26.2820   20.2460 O   0  0  0  0  0  0  0  0  0  0  0  0
  -24.6630  -31.8960   23.2590 C   0  0  0  0  0  0  0  0  0  0  0  0
  -27.2300  -27.2410   20.1840 C   0  0  0  0  0  0  0  0  0  0  0  0
  -23.4600  -30.5220   21.6020 C   0  0  0  0  0  3  0  0  0  0  0  0
  -24.9030  -28.9630   20.1670 C   0  0  0  0  0  0  0  0  0  0  0  0
  -26.0130  -30.7900   21.4440 C   0  0  0  0  0  2  0  0  0  0  0  0
  -26.0820  -29.4080   20.7800 C   0  0  0  0  0  0  0  0  0  0  0  0
  -27.2480  -28.5630   20.7730 C   0  0  0  0  0  3  0  0  0  0  0  0
  -26.0270  -26.8870   19.5350 C   0  0  0  0  0  3  0  0  0  0  0  0
  -24.8860  -27.7150   19.5300 C   0  0  0  0  0  3  0  0  0  0  0  0
  -23.6790  -29.8600   20.2170 C   0  0  0  0  0  2  0  0  0  0  0  0
  -24.7320  -31.0880   22.1570 N   0  0  0  0  0  0  0  0  0  0  0  0
  -23.5770  -32.1800   23.7860 O   0  0  0  0  0  0  0  0  0  0  0  0
  -22.7750  -29.5070   22.5510 C   0  0  0  0  0  0  0  0  0  0  0  0
  -21.4460  -29.3490   22.4200 N   0  0  0  0  0  0  0  0  0  0  0  0
  -23.4410  -28.8650   23.3670 O   0  0  0  0  0  0  0  0  0  0  0  0
  -20.9650  -29.9190   21.7380 H   0  0  0  0  0  0  0  0  0  0  0  0
  -18.0520  -28.1900   22.9150 C   0  0  0  0  0  0  0  0  0  0  0  0
  -20.6150  -28.4120   23.1780 C   0  0  0  0  0  3  0  0  0  0  0  0
  -20.6950  -26.9860   22.5820 C   0  0  0  0  0  2  0  0  0  0  0  0
  -19.5850  -26.6950   21.5660 C   0  0  0  0  0  2  0  0  0  0  0  0
  -18.2080  -26.8490   22.2160 C   0  0  0  0  0  2  0  0  0  0  0  0
  -19.1820  -28.9310   23.3520 C   0  0  0  0  0  0  0  0  0  0  0  0
  -18.9820  -30.1860   23.9660 C   0  0  0  0  0  3  0  0  0  0  0  0
  -17.6850  -30.7010   24.1460 C   0  0  0  0  0  3  0  0  0  0  0  0
  -16.5680  -29.9570   23.7260 C   0  0  0  0  0  3  0  0  0  0  0  0
  -16.7530  -28.7040   23.1150 C   0  0  0  0  0  3  0  0  0  0  0  0
  -25.9440  -32.5160   23.8960 C   0  0  0  0  0  3  0  0  0  0  0  0
  -25.6450  -33.9180   24.2250 N   0  0  0  0  0  0  0  0  0  0  0  0
  -25.9720  -34.9690   23.4610 C   0  0  0  0  0  0  0  0  0  0  0  0
  -26.6240  -34.8590   22.4190 O   0  0  0  0  0  0  0  0  0  0  0  0
  -25.0650  -34.0790   25.0350 H   0  0  0  0  0  0  0  0  0  0  0  0
  -24.2350  -36.7640   23.1520 C   0  0  0  0  0  1  0  0  0  0  0  0
  -25.5020  -36.3620   23.9230 C   0  0  0  0  0  3  0  0  0  0  0  0
  -27.6630  -37.2550   24.6780 C   0  0  0  0  0  1  0  0  0  0  0  0
  -26.5320  -37.4130   23.7680 N   0  0  0  0  0  0  0  0  0  0  0  0
  -26.1300  -38.3350   23.9180 H   0  0  0  0  0  0  0  0  0  0  0  0
  -26.4360  -31.7420   25.1810 C   0  0  1  0  0  0  0  0  0  0  0  0
  -25.3270  -31.5200   26.2360 C   0  0  0  0  0  1  0  0  0  0  0  0
  -27.0060  -30.3550   24.8030 C   0  0  0  0  0  1  0  0  0  0  0  0
  -27.5870  -32.5240   25.8550 C   0  0  0  0  0  1  0  0  0  0  0  0
  1  2  1  0
  1 48  1  0
  2  4  1  0
  3  1  2  0
  5 18  1  0
  6 11  1  0
  7  8  1  0
  7  6  1  0
  9  8  1  0
  9 22  1  0
  9 10  1  0
 11  5  1  0
 11 10  1  0
 12  5  2  0
 13 17  1  0
 15 14  1  0
 16 13  1  0
 16 18  1  0
 16 15  1  0
 17  2  1  0
 17 15  1  0
 18 14  1  0
 19 20  2  0
 20 39  1  0
 21 20  1  0
 21 24  1  0
 22 23  1  0
 22 19  1  0
 23 21  2  0
 24 25  1  0
 25 26  2  0
 27 30  1  0
 27 26  1  0
 28 27  2  0
 29 28  1  0
 29 24  2  0
 30 31  1  0
 31 32  1  0
 32 33  2  0
 34 33  1  0
 34 38  1  0
 35 34  2  0
 36 31  2  0
 36 35  1  0
 37 36  1  0
 39 40  1  0
 40 43  1  0
 40 42  1  0
 41 39  2  0
 44 19  1  0
 44 45  1  0
 46 44  1  0
 48 47  1  0
 49 50  1  0
 49 48  1  0
 51 62  2  0
 52 50  1  0
 52 57  1  0
 53 61  1  0
 53 63  1  0
 54 60  1  0
 54 56  1  0
 55 61  1  0
 56 55  1  0
 57 56  2  0
 58 52  2  0
 59 58  1  0
 59 54  2  0
 60 53  1  0
 61 51  1  0
 63 65  2  0
 64 63  1  0
 66 64  1  0
 67 76  2  0
 67 72  1  0
 68 64  1  0
 68 72  1  0
 69 68  1  0
 70 71  1  0
 70 69  1  0
 71 67  1  0
 72 73  2  0
 73 74  1  0
 75 74  2  0
 76 75  1  0
 77 51  1  0
 77 78  1  0
 77 87  1  0
 78 81  1  0
 79 83  1  0
 79 78  1  0
 80 79  2  0
 83 82  1  0
 85 86  1  0
 85 83  1  0
 85 84  1  0
 87 90  1  1
 87 88  1  0
 89 87  1  0
M  ISO  4   5 100  18 100  49 101  50 101
M  END
>  <TORSDO>  (34) 
F 18

>  <SCORE>  (34) 
-14.477

>  <name>  (34) 
34

>  <ligand_id>  (34) 
34

>  <original_smiles>  (34) 
[H]c1c([H])c([H])c2c(c1[H])C([H])([H])C([H])([H])C([H])([H])C2([H])N([H])C(=O)C1([H])N(C(=O)C([H])(N([H])C(=O)C([H])(N([H])C([H])([H])[H])C([H])([H])[H])C(C([H])([H])[H])(C([H])([H])[H])C([H])([H])[H])C([H])([H])c2c([H])c(OC([H])([H])C([H])(C(=O)N([H])C3([H])C([H])([H])C4([H])N(C(=O)N5C([H])([H])C([H])([H])C([H])([H])C([H])(n6nc(-c7c([H])c([H])c(Oc8c([H])c([H])c(F)c([H])c8F)c([H])c7[H])c(C(=O)N([H])[H])c6N([H])[H])C5([H])[H])C([H])([H])C34[H])C([H])([H])[H])c([H])c([H])c2C1([H])[H]

>  <smiles>  (34) 
[H]c1c([H])c([H])c2c(c1[H])C([H])([H])C([H])([H])C([H])([H])C2([H])N([H])C(=O)C1([H])N(C(=O)C([H])(N([H])C(=O)C([H])(N([H])C([H])([H])[H])C([H])([H])[H])C(C([H])([H])[H])(C([H])([H])[H])C([H])([H])[H])C([H])([H])c2c([H])c(OC([H])([H])C([H])(C(=O)N([H])C3([H])C([H])([H])C4([H])N(C(=O)N5C([H])([H])C([H])([H])C([H])([H])C([H])(n6nc(-c7c([H])c([H])c(Oc8c([H])c([H])c(F)c([H])c8F)c([H])c7[H])c(C(=O)N([H])[H])c6N([H])[H])C5([H])[H])C([H])([H])C34[H])C([H])([H])[H])c([H])c([H])c2C1([H])[H]

$$$$
35:0:0
     RDKit          3D

 91100  0  0  1  0  0  0  0  0999 V2000
  -29.9170  -21.9180   18.4650 C   0  0  0  0  0  3  0  0  0  0  0  0
  -29.5640  -23.3350   18.5510 C   0  0  0  0  0  3  0  0  0  0  0  0
  -29.4060  -21.6250   20.7360 C   0  0  0  0  0  0  0  0  0  0  0  0
  -29.0660  -23.0150   20.8270 C   0  0  0  0  0  0  0  0  0  0  0  0
  -29.8560  -20.9750   19.5550 C   0  0  0  0  0  0  0  0  0  0  0  0
  -29.1130  -23.9740   19.7550 C   0  0  0  0  0  0  0  0  0  0  0  0
  -29.1030  -20.9040   22.0240 C   0  0  0  0  0  2  0  0  0  0  0  0
  -28.5430  -23.3090   22.2150 C   0  0  0  0  0  2  0  0  0  0  0  0
  -28.2890  -21.9220   22.8420 C   0  0  0  0  0  2  0  0  0  0  0  0
  -29.9830  -19.3500   19.3980 C   0  0  0  0  0  3  0  0  0  0  0  0
  -30.8610  -18.2960   20.3260 C   0  0  0  0  0  3  0  0  0  0  0  0
  -31.4520  -15.6140   20.3370 C   0  0  0  0  0  0  0  0  0  0  0  0
  -31.4020  -13.1890   19.6450 C   0  0  0  0  0  2  0  0  0  0  0  0
  -30.5350  -13.0210   18.3780 C   0  0  0  0  0  2  0  0  0  0  0  0
  -29.0490  -12.8490   18.7540 C   0  0  0  0  0  2  0  0  0  0  0  0
  -28.5750  -13.8920   19.7990 C   0  0  0  0  0  3  0  0  0  0  0  0
  -29.5680  -14.0200   20.9720 C   0  0  0  0  0  2  0  0  0  0  0  0
  -30.8730  -14.3580   20.3920 N   0  0  0  0  0  0  0  0  0  0  0  0
  -32.6670  -15.7020   20.1390 O   0  0  0  0  0  0  0  0  0  0  0  0
  -30.6200  -16.7510   20.3000 N   0  0  0  0  0  0  0  0  0  0  0  0
  -29.6460  -16.5000   20.3880 H   0  0  0  0  0  0  0  0  0  0  0  0
  -26.2010  -14.5460   20.5090 C   0  0  0  0  0  0  0  0  0  0  0  0
  -25.0980  -13.8020   20.8210 C   0  0  0  0  0  0  0  0  0  0  0  0
  -25.5080  -12.4360   20.7470 C   0  0  0  0  0  0  0  0  0  0  0  0
  -27.2120  -13.6360   20.2530 N   0  0  0  0  0  0  0  0  0  0  0  0
  -26.8030  -12.3580   20.4640 N   0  0  0  0  0  0  0  0  0  0  0  0
  -24.7260  -11.1990   20.8690 C   0  0  0  0  0  0  0  0  0  0  0  0
  -25.0600  -10.2050   21.8170 C   0  0  0  0  0  3  0  0  0  0  0  0
  -24.2840   -9.0340   21.9300 C   0  0  0  0  0  3  0  0  0  0  0  0
  -23.1560   -8.8450   21.0940 C   0  0  0  0  0  0  0  0  0  0  0  0
  -22.8420   -9.8270   20.1380 C   0  0  0  0  0  3  0  0  0  0  0  0
  -23.6190  -10.9910   20.0230 C   0  0  0  0  0  3  0  0  0  0  0  0
  -22.3620   -7.7250   21.1110 O   0  0  0  0  0  0  0  0  0  0  0  0
  -22.1400   -7.0170   22.2640 C   0  0  0  0  0  0  0  0  0  0  0  0
  -21.5540   -7.6130   23.4020 C   0  0  0  0  0  3  0  0  0  0  0  0
  -21.2830   -6.8350   24.5450 C   0  0  0  0  0  3  0  0  0  0  0  0
  -21.5870   -5.4600   24.5490 C   0  0  0  0  0  0  0  0  0  0  0  0
  -22.1650   -4.8630   23.4140 C   0  0  0  0  0  3  0  0  0  0  0  0
  -22.4400   -5.6400   22.2750 C   0  0  0  0  0  0  0  0  0  0  0  0
  -22.9790   -5.0560   21.1780 F   0  0  0  0  0  0  0  0  0  0  0  0
  -21.3200   -4.7090   25.6420 F   0  0  0  0  0  0  0  0  0  0  0  0
  -23.7140  -14.3240   21.0760 C   0  0  0  0  0  0  0  0  0  0  0  0
  -22.9370  -13.6290   21.9010 N   0  0  0  0  0  0  0  0  0  0  0  0
  -23.3310  -15.3830   20.5800 O   0  0  0  0  0  0  0  0  0  0  0  0
  -23.2580  -12.7690   22.3220 H   0  0  0  0  0  0  0  0  0  0  0  0
  -22.0080  -13.9630   22.1140 H   0  0  0  0  0  0  0  0  0  0  0  0
  -26.4210  -15.9170   20.3960 N   0  0  0  0  0  0  0  0  0  0  0  0
  -25.6740  -16.5910   20.5240 H   0  0  0  0  0  0  0  0  0  0  0  0
  -27.2800  -16.3430   20.0790 H   0  0  0  0  0  0  0  0  0  0  0  0
  -28.5100  -25.4830   19.9820 C   0  0  0  0  0  2  0  0  0  0  0  0
  -28.6050  -26.7610   19.1360 O   0  0  0  0  0  0  0  0  0  0  0  0
  -24.8680  -31.7440   23.0500 C   0  0  0  0  0  0  0  0  0  0  0  0
  -27.5270  -27.6950   19.2800 C   0  0  0  0  0  0  0  0  0  0  0  0
  -23.6630  -30.5170   21.2880 C   0  0  0  0  0  3  0  0  0  0  0  0
  -25.1140  -29.2580   19.5910 C   0  0  0  0  0  0  0  0  0  0  0  0
  -26.1820  -30.9720   21.0460 C   0  0  0  0  0  2  0  0  0  0  0  0
  -26.2970  -29.6930   20.2050 C   0  0  0  0  0  0  0  0  0  0  0  0
  -27.5080  -28.9270   20.0390 C   0  0  0  0  0  3  0  0  0  0  0  0
  -26.3180  -27.3690   18.6280 C   0  0  0  0  0  3  0  0  0  0  0  0
  -25.1320  -28.1110   18.7880 C   0  0  0  0  0  3  0  0  0  0  0  0
  -23.8450  -30.0580   19.8180 C   0  0  0  0  0  2  0  0  0  0  0  0
  -24.9270  -31.0910   21.8520 N   0  0  0  0  0  0  0  0  0  0  0  0
  -23.7980  -31.8840   23.6610 O   0  0  0  0  0  0  0  0  0  0  0  0
  -23.0960  -29.3420   22.1240 C   0  0  0  0  0  0  0  0  0  0  0  0
  -21.7760  -29.0970   22.0170 N   0  0  0  0  0  0  0  0  0  0  0  0
  -23.8400  -28.6640   22.8360 O   0  0  0  0  0  0  0  0  0  0  0  0
  -21.2310  -29.6990   21.4180 H   0  0  0  0  0  0  0  0  0  0  0  0
  -18.4960  -27.6400   22.4980 C   0  0  0  0  0  0  0  0  0  0  0  0
  -21.0480  -28.0140   22.6840 C   0  0  0  0  0  3  0  0  0  0  0  0
  -21.1950  -26.6850   21.9050 C   0  0  0  0  0  2  0  0  0  0  0  0
  -20.0580  -26.4440   20.9070 C   0  0  0  0  0  2  0  0  0  0  0  0
  -18.7080  -26.4120   21.6290 C   0  0  0  0  0  2  0  0  0  0  0  0
  -19.5940  -28.4010   22.9800 C   0  0  0  0  0  0  0  0  0  0  0  0
  -19.3390  -29.5500   23.7580 C   0  0  0  0  0  3  0  0  0  0  0  0
  -18.0210  -29.9410   24.0560 C   0  0  0  0  0  3  0  0  0  0  0  0
  -16.9380  -29.1780   23.5870 C   0  0  0  0  0  3  0  0  0  0  0  0
  -17.1770  -28.0280   22.8130 C   0  0  0  0  0  3  0  0  0  0  0  0
  -26.1420  -32.3630   23.7010 C   0  0  0  0  0  3  0  0  0  0  0  0
  -26.7850  -31.4370   24.8060 C   0  0  1  0  0  0  0  0  0  0  0  0
  -25.7800  -30.9550   25.8790 C   0  0  0  0  0  1  0  0  0  0  0  0
  -27.4240  -30.1820   24.1680 C   0  0  0  0  0  1  0  0  0  0  0  0
  -27.9280  -32.1950   25.5210 C   0  0  0  0  0  1  0  0  0  0  0  0
  -25.7630  -33.6640   24.2750 N   0  0  0  0  0  0  0  0  0  0  0  0
  -25.9770  -34.8480   23.6870 C   0  0  0  0  0  0  0  0  0  0  0  0
  -26.5830  -34.9630   22.6190 O   0  0  0  0  0  0  0  0  0  0  0  0
  -25.2060  -33.6400   25.1170 H   0  0  0  0  0  0  0  0  0  0  0  0
  -24.1180  -36.5450   23.7400 C   0  0  0  0  0  1  0  0  0  0  0  0
  -25.4360  -36.1060   24.3970 C   0  0  0  0  0  3  0  0  0  0  0  0
  -27.5600  -37.0070   25.2390 C   0  0  0  0  0  1  0  0  0  0  0  0
  -26.3890  -37.2370   24.3980 N   0  0  0  0  0  0  0  0  0  0  0  0
  -25.9360  -38.0900   24.7110 H   0  0  0  0  0  0  0  0  0  0  0  0
  1  2  2  0
  1  5  1  0
  2  6  1  0
  3  4  1  0
  3  7  1  0
  4  8  1  0
  5  3  2  0
  6 50  1  0
  6  4  2  0
  7  9  1  0
  8  9  1  0
 10  5  1  0
 10 11  2  0
 12 18  1  0
 13 18  1  0
 14 15  1  0
 14 13  1  0
 16 15  1  0
 16 25  1  0
 16 17  1  0
 18 17  1  0
 19 12  2  0
 20 11  1  0
 20 12  1  0
 20 21  1  0
 22 23  2  0
 23 42  1  0
 24 23  1  0
 24 27  1  0
 25 26  1  0
 25 22  1  0
 26 24  2  0
 27 28  1  0
 28 29  2  0
 30 33  1  0
 30 29  1  0
 31 30  2  0
 32 31  1  0
 32 27  2  0
 33 34  1  0
 34 39  2  0
 34 35  1  0
 35 36  2  0
 36 37  1  0
 37 41  1  0
 38 37  2  0
 39 38  1  0
 40 39  1  0
 42 43  1  0
 43 46  1  0
 43 45  1  0
 44 42  2  0
 47 22  1  0
 47 48  1  0
 49 47  1  0
 51 53  1  0
 51 50  1  0
 52 63  2  0
 53 58  1  0
 54 62  1  0
 54 64  1  0
 55 61  1  0
 55 57  1  0
 56 62  1  0
 57 56  1  0
 58 57  2  0
 59 60  1  0
 59 53  2  0
 60 55  2  0
 61 54  1  0
 62 52  1  0
 64 66  2  0
 65 64  1  0
 67 65  1  0
 68 77  2  0
 68 73  1  0
 69 65  1  0
 69 73  1  0
 70 69  1  0
 71 72  1  0
 71 70  1  0
 72 68  1  0
 73 74  2  0
 74 75  1  0
 76 75  2  0
 77 76  1  0
 78 52  1  0
 78 83  1  0
 78 79  1  0
 79 82  1  1
 79 80  1  0
 81 79  1  0
 83 86  1  0
 84 83  1  0
 84 88  1  0
 85 84  2  0
 88 87  1  0
 88 90  1  0
 90 91  1  0
 90 89  1  0
M  ISO  4  12 100  20 100  50 101  51 101
M  END
>  <TORSDO>  (35) 
F 19

>  <SCORE>  (35) 
-9.209

>  <name>  (35) 
35

>  <ligand_id>  (35) 
35

>  <original_smiles>  (35) 
[H]c1c([H])c([H])c2c(c1[H])C([H])([H])C([H])([H])C([H])([H])C2([H])N([H])C(=O)C1([H])N(C(=O)C([H])(N([H])C(=O)C([H])(N([H])C([H])([H])[H])C([H])([H])[H])C(C([H])([H])[H])(C([H])([H])[H])C([H])([H])[H])C([H])([H])c2c([H])c(OC([H])([H])c3c([H])c([H])c(C([H])([H])C([H])([H])N([H])C(=O)N4C([H])([H])C([H])([H])C([H])([H])C([H])(n5nc(-c6c([H])c([H])c(Oc7c([H])c([H])c(F)c([H])c7F)c([H])c6[H])c(C(=O)N([H])[H])c5N([H])[H])C4([H])[H])c4c3C([H])([H])C([H])([H])C4([H])[H])c([H])c([H])c2C1([H])[H]

>  <smiles>  (35) 
[H]c1c([H])c([H])c2c(c1[H])C([H])([H])C([H])([H])C([H])([H])C2([H])N([H])C(=O)C1([H])N(C(=O)C([H])(N([H])C(=O)C([H])(N([H])C([H])([H])[H])C([H])([H])[H])C(C([H])([H])[H])(C([H])([H])[H])C([H])([H])[H])C([H])([H])c2c([H])c(OC([H])([H])c3c([H])c([H])c(C([H])([H])C([H])([H])N([H])C(=O)N4C([H])([H])C([H])([H])C([H])([H])C([H])(n5nc(-c6c([H])c([H])c(Oc7c([H])c([H])c(F)c([H])c7F)c([H])c6[H])c(C(=O)N([H])[H])c5N([H])[H])C4([H])[H])c4c3C([H])([H])C([H])([H])C4([H])[H])c([H])c([H])c2C1([H])[H]

$$$$
36:0:0
     RDKit          3D

 86 95  0  0  1  0  0  0  0  0999 V2000
  -29.7400  -20.6740   18.4430 C   0  0  0  0  0  3  0  0  0  0  0  0
  -29.6540  -21.9510   18.8950 C   0  0  0  0  0  3  0  0  0  0  0  0
  -29.0540  -19.6050   19.2340 C   0  0  0  0  0  3  0  0  0  0  0  0
  -28.9410  -22.1760   20.2190 C   0  0  0  0  0  3  0  0  0  0  0  0
  -28.7080  -20.3360   20.4860 C   0  0  0  0  0  3  0  0  0  0  0  0
  -29.6780  -18.7170   20.3390 C   0  0  0  0  0  3  0  0  0  0  0  0
  -30.2420  -15.6380   20.3500 C   0  0  0  0  0  0  0  0  0  0  0  0
  -30.3610  -13.0960   19.5540 C   0  0  0  0  0  2  0  0  0  0  0  0
  -29.4880  -12.6910   18.3320 C   0  0  0  0  0  2  0  0  0  0  0  0
  -28.0560  -12.3430   18.7670 C   0  0  0  0  0  2  0  0  0  0  0  0
  -27.5280  -13.3500   19.8140 C   0  0  0  0  0  3  0  0  0  0  0  0
  -28.5410  -13.6650   20.9400 C   0  0  0  0  0  2  0  0  0  0  0  0
  -29.7240  -14.2750   20.2910 N   0  0  0  0  0  0  0  0  0  0  0  0
  -31.4790  -15.5890   20.2110 O   0  0  0  0  0  0  0  0  0  0  0  0
  -29.4610  -16.9810   20.3670 N   0  0  0  0  0  0  0  0  0  0  0  0
  -28.4770  -16.7640   20.4230 H   0  0  0  0  0  0  0  0  0  0  0  0
  -25.1510  -13.8710   20.5460 C   0  0  0  0  0  0  0  0  0  0  0  0
  -24.0930  -13.0840   20.9000 C   0  0  0  0  0  0  0  0  0  0  0  0
  -24.5740  -11.7380   20.8790 C   0  0  0  0  0  0  0  0  0  0  0  0
  -26.2050  -13.0070   20.3180 N   0  0  0  0  0  0  0  0  0  0  0  0
  -25.8710  -11.7160   20.5860 N   0  0  0  0  0  0  0  0  0  0  0  0
  -23.8520  -10.4710   21.0590 C   0  0  0  0  0  0  0  0  0  0  0  0
  -24.2740   -9.5060   22.0010 C   0  0  0  0  0  3  0  0  0  0  0  0
  -23.5480   -8.3070   22.1710 C   0  0  0  0  0  3  0  0  0  0  0  0
  -22.3860   -8.0630   21.4000 C   0  0  0  0  0  0  0  0  0  0  0  0
  -21.9850   -9.0170   20.4480 C   0  0  0  0  0  3  0  0  0  0  0  0
  -22.7110  -10.2070   20.2750 C   0  0  0  0  0  3  0  0  0  0  0  0
  -21.6340   -6.9170   21.4800 O   0  0  0  0  0  0  0  0  0  0  0  0
  -21.5690   -6.1770   22.6340 C   0  0  0  0  0  0  0  0  0  0  0  0
  -21.1250   -6.7350   23.8520 C   0  0  0  0  0  3  0  0  0  0  0  0
  -21.0070   -5.9220   24.9970 C   0  0  0  0  0  3  0  0  0  0  0  0
  -21.3220   -4.5530   24.9240 C   0  0  0  0  0  0  0  0  0  0  0  0
  -21.7600   -3.9940   23.7100 C   0  0  0  0  0  3  0  0  0  0  0  0
  -21.8790   -4.8040   22.5680 C   0  0  0  0  0  0  0  0  0  0  0  0
  -22.2800   -4.2560   21.3960 F   0  0  0  0  0  0  0  0  0  0  0  0
  -21.2020   -3.7700   26.0230 F   0  0  0  0  0  0  0  0  0  0  0  0
  -22.6880  -13.5510   21.1390 C   0  0  0  0  0  0  0  0  0  0  0  0
  -21.9510  -12.8600   22.0010 N   0  0  0  0  0  0  0  0  0  0  0  0
  -22.2520  -14.5660   20.5980 O   0  0  0  0  0  0  0  0  0  0  0  0
  -22.3180  -12.0400   22.4610 H   0  0  0  0  0  0  0  0  0  0  0  0
  -21.0070  -13.1560   22.2050 H   0  0  0  0  0  0  0  0  0  0  0  0
  -25.3020  -15.2430   20.3640 N   0  0  0  0  0  0  0  0  0  0  0  0
  -24.5220  -15.8850   20.4550 H   0  0  0  0  0  0  0  0  0  0  0  0
  -26.1380  -15.6850   20.0090 H   0  0  0  0  0  0  0  0  0  0  0  0
  -27.9250  -23.8250   20.2040 C   0  0  0  0  0  2  0  0  0  0  0  0
  -28.1190  -25.5700   20.2190 O   0  0  0  0  0  0  0  0  0  0  0  0
  -24.6180  -31.8490   23.1340 C   0  0  0  0  0  0  0  0  0  0  0  0
  -27.1370  -26.7670   20.1740 C   0  0  0  0  0  0  0  0  0  0  0  0
  -23.4270  -30.4460   21.5030 C   0  0  0  0  0  3  0  0  0  0  0  0
  -24.8700  -28.7900   20.1020 C   0  0  0  0  0  0  0  0  0  0  0  0
  -26.0050  -30.5870   21.3790 C   0  0  0  0  0  2  0  0  0  0  0  0
  -26.0660  -29.1530   20.7320 C   0  0  0  0  0  0  0  0  0  0  0  0
  -27.1860  -28.1700   20.7320 C   0  0  0  0  0  3  0  0  0  0  0  0
  -25.9050  -26.6060   19.4900 C   0  0  0  0  0  3  0  0  0  0  0  0
  -24.8270  -27.5410   19.4570 C   0  0  0  0  0  3  0  0  0  0  0  0
  -23.6650  -29.7420   20.1370 C   0  0  0  0  0  2  0  0  0  0  0  0
  -24.7070  -30.9930   22.0580 N   0  0  0  0  0  0  0  0  0  0  0  0
  -23.5270  -32.1530   23.6420 O   0  0  0  0  0  0  0  0  0  0  0  0
  -22.7090  -29.4750   22.4780 C   0  0  0  0  0  0  0  0  0  0  0  0
  -21.3730  -29.3400   22.3670 N   0  0  0  0  0  0  0  0  0  0  0  0
  -23.3640  -28.8400   23.3080 O   0  0  0  0  0  0  0  0  0  0  0  0
  -20.8940  -29.9020   21.6770 H   0  0  0  0  0  0  0  0  0  0  0  0
  -17.9710  -28.1890   22.9230 C   0  0  0  0  0  0  0  0  0  0  0  0
  -20.5400  -28.4150   23.1460 C   0  0  0  0  0  3  0  0  0  0  0  0
  -20.6070  -26.9830   22.5630 C   0  0  0  0  0  2  0  0  0  0  0  0
  -19.4860  -26.6850   21.5640 C   0  0  0  0  0  2  0  0  0  0  0  0
  -18.1160  -26.8450   22.2300 C   0  0  0  0  0  2  0  0  0  0  0  0
  -19.1080  -28.9330   23.3380 C   0  0  0  0  0  0  0  0  0  0  0  0
  -18.9140  -30.1890   23.9530 C   0  0  0  0  0  3  0  0  0  0  0  0
  -17.6190  -30.7020   24.1510 C   0  0  0  0  0  3  0  0  0  0  0  0
  -16.4970  -29.9570   23.7480 C   0  0  0  0  0  3  0  0  0  0  0  0
  -16.6750  -28.7010   23.1400 C   0  0  0  0  0  3  0  0  0  0  0  0
  -25.8840  -32.4970   23.7720 C   0  0  0  0  0  3  0  0  0  0  0  0
  -25.5520  -33.8890   24.1350 N   0  0  0  0  0  0  0  0  0  0  0  0
  -25.8580  -34.9710   23.4070 C   0  0  0  0  0  0  0  0  0  0  0  0
  -26.5060  -34.9050   22.3600 O   0  0  0  0  0  0  0  0  0  0  0  0
  -24.9710  -34.0130   24.9520 H   0  0  0  0  0  0  0  0  0  0  0  0
  -24.0990  -36.7590   23.1650 C   0  0  0  0  0  1  0  0  0  0  0  0
  -25.3730  -36.3460   23.9180 C   0  0  0  0  0  3  0  0  0  0  0  0
  -27.5270  -37.2430   24.6910 C   0  0  0  0  0  1  0  0  0  0  0  0
  -26.3890  -37.4150   23.7930 N   0  0  0  0  0  0  0  0  0  0  0  0
  -25.9760  -38.3260   23.9770 H   0  0  0  0  0  0  0  0  0  0  0  0
  -26.4000  -31.7200   25.0460 C   0  0  1  0  0  0  0  0  0  0  0  0
  -25.3070  -31.4740   26.1140 C   0  0  0  0  0  1  0  0  0  0  0  0
  -26.9880  -30.3460   24.6580 C   0  0  0  0  0  1  0  0  0  0  0  0
  -27.5480  -32.5140   25.7140 C   0  0  0  0  0  1  0  0  0  0  0  0
  1  2  2  0
  2  4  1  0
  3  1  1  0
  3  6  1  0
  3  5  1  0
  4 45  1  0
  4  5  1  0
  6 15  1  0
  6  5  1  0
  7 15  1  0
  8 13  1  0
  9 10  1  0
  9  8  1  0
 10 11  1  0
 11 20  1  0
 11 12  1  0
 13  7  1  0
 13 12  1  0
 14  7  2  0
 15 16  1  0
 17 18  2  0
 18 37  1  0
 19 18  1  0
 19 22  1  0
 20 17  1  0
 20 21  1  0
 21 19  2  0
 22 23  1  0
 23 24  2  0
 25 28  1  0
 25 24  1  0
 26 25  2  0
 27 26  1  0
 27 22  2  0
 28 29  1  0
 29 30  1  0
 30 31  2  0
 32 31  1  0
 32 36  1  0
 33 32  2  0
 34 29  2  0
 34 33  1  0
 35 34  1  0
 37 38  1  0
 38 41  1  0
 38 40  1  0
 39 37  2  0
 42 43  1  0
 42 17  1  0
 44 42  1  0
 45 46  1  0
 47 58  2  0
 47 73  1  0
 48 46  1  0
 48 53  1  0
 49 57  1  0
 49 59  1  0
 50 56  1  0
 50 52  1  0
 51 57  1  0
 52 51  1  0
 53 52  2  0
 54 48  2  0
 55 54  1  0
 55 50  2  0
 56 49  1  0
 57 47  1  0
 59 61  2  0
 60 59  1  0
 60 64  1  0
 62 60  1  0
 63 72  2  0
 63 68  1  0
 64 68  1  0
 65 64  1  0
 66 67  1  0
 66 65  1  0
 67 63  1  0
 68 69  2  0
 69 70  1  0
 71 70  2  0
 72 71  1  0
 73 74  1  0
 73 83  1  0
 74 77  1  0
 75 79  1  0
 75 74  1  0
 76 75  2  0
 78 79  1  0
 81 79  1  0
 81 82  1  0
 81 80  1  0
 83 86  1  1
 83 84  1  0
 85 83  1  0
M  ISO  4   7 100  15 100  45 101  46 101
M  END
>  <TORSDO>  (36) 
F 17

>  <SCORE>  (36) 
-16.433

>  <name>  (36) 
36

>  <ligand_id>  (36) 
36

>  <original_smiles>  (36) 
[H]C1=C([H])C2([H])C([H])(N([H])C(=O)N3C([H])([H])C([H])([H])C([H])([H])C([H])(n4nc(-c5c([H])c([H])c(Oc6c([H])c([H])c(F)c([H])c6F)c([H])c5[H])c(C(=O)N([H])[H])c4N([H])[H])C3([H])[H])C2([H])C1([H])C([H])([H])Oc1c([H])c([H])c2c(c1[H])C([H])([H])N(C(=O)C([H])(N([H])C(=O)C([H])(N([H])C([H])([H])[H])C([H])([H])[H])C(C([H])([H])[H])(C([H])([H])[H])C([H])([H])[H])C([H])(C(=O)N([H])C1([H])c3c([H])c([H])c([H])c([H])c3C([H])([H])C([H])([H])C1([H])[H])C2([H])[H]

>  <smiles>  (36) 
[H]C1=C([H])C2([H])C([H])(N([H])C(=O)N3C([H])([H])C([H])([H])C([H])([H])C([H])(n4nc(-c5c([H])c([H])c(Oc6c([H])c([H])c(F)c([H])c6F)c([H])c5[H])c(C(=O)N([H])[H])c4N([H])[H])C3([H])[H])C2([H])C1([H])C([H])([H])Oc1c([H])c([H])c2c(c1[H])C([H])([H])N(C(=O)C([H])(N([H])C(=O)C([H])(N([H])C([H])([H])[H])C([H])([H])[H])C(C([H])([H])[H])(C([H])([H])[H])C([H])([H])[H])C([H])(C(=O)N([H])C1([H])c3c([H])c([H])c([H])c([H])c3C([H])([H])C([H])([H])C1([H])[H])C2([H])[H]

$$$$
37:0:0
     RDKit          3D

 94103  0  0  1  0  0  0  0  0999 V2000
  -28.9710  -20.2170   18.9340 C   0  0  0  0  0  2  0  0  0  0  0  0
  -27.2260  -22.0410   19.6090 C   0  0  0  0  0  2  0  0  0  0  0  0
  -29.1790  -21.1930   21.1550 C   0  0  0  0  0  2  0  0  0  0  0  0
  -28.4910  -21.6660   18.8920 C   0  0  0  0  0  3  0  0  0  0  0  0
  -29.7570  -19.9870   20.2660 C   0  0  2  0  0  0  0  0  0  0  0  0
  -28.5720  -22.3130   20.2570 C   0  0  1  0  0  0  0  0  0  0  0  0
  -31.2760  -20.1860   19.9960 C   0  0  0  0  0  0  0  0  0  0  0  0
  -32.0150  -20.8450   20.8800 N   0  0  0  0  0  0  0  0  0  0  0  0
  -31.8100  -19.7280   18.9860 O   0  0  0  0  0  0  0  0  0  0  0  0
  -31.5910  -21.2240   21.7140 H   0  0  0  0  0  0  0  0  0  0  0  0
  -33.0010  -20.9890   20.7170 H   0  0  0  0  0  0  0  0  0  0  0  0
  -29.5250  -18.4890   20.8400 C   0  0  0  0  0  3  0  0  0  0  0  0
  -30.2670  -17.2260   20.1800 C   0  0  0  0  0  3  0  0  0  0  0  0
  -30.6320  -14.6810   20.3350 C   0  0  0  0  0  0  0  0  0  0  0  0
  -30.3750  -12.4450   19.2880 C   0  0  0  0  0  2  0  0  0  0  0  0
  -29.4410  -12.5900   18.0670 C   0  0  0  0  0  2  0  0  0  0  0  0
  -27.9700  -12.4310   18.4950 C   0  0  0  0  0  2  0  0  0  0  0  0
  -27.6140  -13.2890   19.7390 C   0  0  0  0  0  3  0  0  0  0  0  0
  -28.6720  -13.1520   20.8570 C   0  0  0  0  0  2  0  0  0  0  0  0
  -29.9780  -13.4760   20.2710 N   0  0  0  0  0  0  0  0  0  0  0  0
  -31.8020  -14.7800   19.9560 O   0  0  0  0  0  0  0  0  0  0  0  0
  -29.8940  -15.8140   20.5910 N   0  0  0  0  0  0  0  0  0  0  0  0
  -28.9410  -15.6620   20.8880 H   0  0  0  0  0  0  0  0  0  0  0  0
  -25.2200  -13.8830   20.4460 C   0  0  0  0  0  0  0  0  0  0  0  0
  -24.1530  -13.1110   20.8170 C   0  0  0  0  0  0  0  0  0  0  0  0
  -24.6160  -11.7590   20.7950 C   0  0  0  0  0  0  0  0  0  0  0  0
  -26.2660  -13.0030   20.2220 N   0  0  0  0  0  0  0  0  0  0  0  0
  -25.9080  -11.7210   20.4920 N   0  0  0  0  0  0  0  0  0  0  0  0
  -23.8880  -10.4980   20.9910 C   0  0  0  0  0  0  0  0  0  0  0  0
  -24.3130   -9.5390   21.9370 C   0  0  0  0  0  3  0  0  0  0  0  0
  -23.5870   -8.3420   22.1190 C   0  0  0  0  0  3  0  0  0  0  0  0
  -22.4210   -8.0960   21.3540 C   0  0  0  0  0  0  0  0  0  0  0  0
  -22.0150   -9.0440   20.3980 C   0  0  0  0  0  3  0  0  0  0  0  0
  -22.7420  -10.2320   20.2160 C   0  0  0  0  0  3  0  0  0  0  0  0
  -21.6680   -6.9510   21.4460 O   0  0  0  0  0  0  0  0  0  0  0  0
  -21.6030   -6.2220   22.6050 C   0  0  0  0  0  0  0  0  0  0  0  0
  -21.1470   -6.7860   23.8150 C   0  0  0  0  0  3  0  0  0  0  0  0
  -21.0300   -5.9830   24.9680 C   0  0  0  0  0  3  0  0  0  0  0  0
  -21.3610   -4.6160   24.9110 C   0  0  0  0  0  0  0  0  0  0  0  0
  -21.8100   -4.0500   23.7040 C   0  0  0  0  0  3  0  0  0  0  0  0
  -21.9290   -4.8500   22.5540 C   0  0  0  0  0  0  0  0  0  0  0  0
  -22.3420   -4.2970   21.3890 F   0  0  0  0  0  0  0  0  0  0  0  0
  -21.2420   -3.8420   26.0140 F   0  0  0  0  0  0  0  0  0  0  0  0
  -22.7550  -13.5890   21.0810 C   0  0  0  0  0  0  0  0  0  0  0  0
  -22.0240  -12.8930   21.9440 N   0  0  0  0  0  0  0  0  0  0  0  0
  -22.3190  -14.6150   20.5600 O   0  0  0  0  0  0  0  0  0  0  0  0
  -22.3890  -12.0630   22.3870 H   0  0  0  0  0  0  0  0  0  0  0  0
  -21.0860  -13.1960   22.1670 H   0  0  0  0  0  0  0  0  0  0  0  0
  -25.3840  -15.2520   20.2600 N   0  0  0  0  0  0  0  0  0  0  0  0
  -24.6150  -15.9070   20.3510 H   0  0  0  0  0  0  0  0  0  0  0  0
  -26.2310  -15.6870   19.9140 H   0  0  0  0  0  0  0  0  0  0  0  0
  -28.9880  -23.8280   20.5230 C   0  0  0  0  0  3  0  0  0  0  0  0
  -28.0220  -24.9890   19.9950 C   0  0  0  0  0  3  0  0  0  0  0  0
  -28.2810  -26.4350   20.2350 O   0  0  0  0  0  0  0  0  0  0  0  0
  -24.5860  -31.8700   23.2350 C   0  0  0  0  0  0  0  0  0  0  0  0
  -27.1800  -27.3110   20.1610 C   0  0  0  0  0  0  0  0  0  0  0  0
  -23.3780  -30.4780   21.5940 C   0  0  0  0  0  3  0  0  0  0  0  0
  -24.8220  -28.9380   20.1560 C   0  0  0  0  0  0  0  0  0  0  0  0
  -25.9180  -30.7920   21.4090 C   0  0  0  0  0  2  0  0  0  0  0  0
  -25.9930  -29.4170   20.7570 C   0  0  0  0  0  0  0  0  0  0  0  0
  -27.1750  -28.6130   20.7550 C   0  0  0  0  0  3  0  0  0  0  0  0
  -25.9880  -26.9030   19.5150 C   0  0  0  0  0  3  0  0  0  0  0  0
  -24.8220  -27.6880   19.5250 C   0  0  0  0  0  3  0  0  0  0  0  0
  -23.5860  -29.8110   20.2110 C   0  0  0  0  0  2  0  0  0  0  0  0
  -24.6460  -31.0630   22.1370 N   0  0  0  0  0  0  0  0  0  0  0  0
  -23.5030  -32.1460   23.7720 O   0  0  0  0  0  0  0  0  0  0  0  0
  -22.7170  -29.4570   22.5520 C   0  0  0  0  0  0  0  0  0  0  0  0
  -21.3910  -29.2780   22.4250 N   0  0  0  0  0  0  0  0  0  0  0  0
  -23.3960  -28.8310   23.3690 O   0  0  0  0  0  0  0  0  0  0  0  0
  -20.9020  -29.8340   21.7380 H   0  0  0  0  0  0  0  0  0  0  0  0
  -18.0130  -28.0870   22.9330 C   0  0  0  0  0  0  0  0  0  0  0  0
  -20.5730  -28.3410   23.1960 C   0  0  0  0  0  3  0  0  0  0  0  0
  -20.6720  -26.9100   22.6170 C   0  0  0  0  0  2  0  0  0  0  0  0
  -19.5660  -26.5930   21.6050 C   0  0  0  0  0  2  0  0  0  0  0  0
  -18.1860  -26.7390   22.2530 C   0  0  0  0  0  2  0  0  0  0  0  0
  -19.1350  -28.8450   23.3610 C   0  0  0  0  0  0  0  0  0  0  0  0
  -18.9200  -30.1070   23.9570 C   0  0  0  0  0  3  0  0  0  0  0  0
  -17.6160  -30.6110   24.1270 C   0  0  0  0  0  3  0  0  0  0  0  0
  -16.5110  -29.8490   23.7140 C   0  0  0  0  0  3  0  0  0  0  0  0
  -16.7090  -28.5880   23.1240 C   0  0  0  0  0  3  0  0  0  0  0  0
  -25.8700  -32.5020   23.8540 C   0  0  0  0  0  3  0  0  0  0  0  0
  -25.5630  -33.9010   24.1820 N   0  0  0  0  0  0  0  0  0  0  0  0
  -25.8940  -34.9520   23.4200 C   0  0  0  0  0  0  0  0  0  0  0  0
  -26.5610  -34.8460   22.3860 O   0  0  0  0  0  0  0  0  0  0  0  0
  -24.9680  -34.0570   24.9820 H   0  0  0  0  0  0  0  0  0  0  0  0
  -24.1700  -36.7500   23.0660 C   0  0  0  0  0  1  0  0  0  0  0  0
  -25.4120  -36.3430   23.8760 C   0  0  0  0  0  3  0  0  0  0  0  0
  -27.5460  -37.2240   24.7080 C   0  0  0  0  0  1  0  0  0  0  0  0
  -26.4470  -37.3920   23.7620 N   0  0  0  0  0  0  0  0  0  0  0  0
  -26.0430  -38.3140   23.9060 H   0  0  0  0  0  0  0  0  0  0  0  0
  -26.3850  -31.7310   25.1300 C   0  0  1  0  0  0  0  0  0  0  0  0
  -25.2910  -31.4940   26.1980 C   0  0  0  0  0  1  0  0  0  0  0  0
  -26.9670  -30.3520   24.7430 C   0  0  0  0  0  1  0  0  0  0  0  0
  -27.5380  -32.5230   25.7910 C   0  0  0  0  0  1  0  0  0  0  0  0
  1  5  1  0
  2  6  1  0
  4  1  1  0
  4  2  1  0
  4  6  1  0
  5 12  1  1
  5  3  1  0
  6 52  1  6
  6  3  1  0
  7  5  1  0
  7  8  1  0
  8 10  1  0
  9  7  2  0
 11  8  1  0
 13 22  1  0
 13 12  2  0
 14 22  1  0
 15 20  1  0
 16 17  1  0
 16 15  1  0
 18 17  1  0
 18 27  1  0
 18 19  1  0
 20 14  1  0
 20 19  1  0
 21 14  2  0
 22 23  1  0
 24 25  2  0
 25 44  1  0
 26 25  1  0
 26 29  1  0
 27 24  1  0
 27 28  1  0
 28 26  2  0
 29 30  1  0
 30 31  2  0
 32 35  1  0
 32 31  1  0
 33 32  2  0
 34 33  1  0
 34 29  2  0
 35 36  1  0
 36 37  1  0
 37 38  2  0
 39 38  1  0
 39 43  1  0
 40 39  2  0
 41 36  2  0
 41 40  1  0
 42 41  1  0
 44 45  1  0
 45 48  1  0
 45 47  1  0
 46 44  2  0
 49 50  1  0
 49 24  1  0
 51 49  1  0
 53 54  1  0
 53 52  2  0
 55 66  2  0
 56 54  1  0
 56 61  1  0
 57 65  1  0
 57 67  1  0
 58 64  1  0
 58 60  1  0
 59 65  1  0
 60 59  1  0
 61 60  2  0
 62 63  1  0
 62 56  2  0
 63 58  2  0
 64 57  1  0
 65 55  1  0
 67 69  2  0
 68 67  1  0
 70 68  1  0
 71 80  2  0
 71 76  1  0
 72 68  1  0
 72 76  1  0
 73 72  1  0
 74 75  1  0
 74 73  1  0
 75 71  1  0
 76 77  2  0
 77 78  1  0
 79 78  2  0
 80 79  1  0
 81 55  1  0
 81 82  1  0
 81 91  1  0
 82 85  1  0
 83 87  1  0
 83 82  1  0
 84 83  2  0
 87 86  1  0
 89 87  1  0
 89 90  1  0
 89 88  1  0
 91 94  1  1
 91 92  1  0
 93 91  1  0
M  ISO  4  14 100  22 100  53 101  54 101
M  END
>  <TORSDO>  (37) 
F 21

>  <SCORE>  (37) 
-13.576

>  <name>  (37) 
37

>  <ligand_id>  (37) 
37

>  <original_smiles>  (37) 
[H]c1c([H])c([H])c2c(c1[H])C([H])([H])C([H])([H])C([H])([H])C2([H])N([H])C(=O)C1([H])N(C(=O)C([H])(N([H])C(=O)C([H])(N([H])C([H])([H])[H])C([H])([H])[H])C(C([H])([H])[H])(C([H])([H])[H])C([H])([H])[H])C([H])([H])c2c([H])c(OC([H])([H])C([H])([H])C34C([H])([H])C3([H])C([H])([H])C(C(=O)N([H])[H])(C([H])([H])C([H])([H])N([H])C(=O)N3C([H])([H])C([H])([H])C([H])([H])C([H])(n5nc(-c6c([H])c([H])c(Oc7c([H])c([H])c(F)c([H])c7F)c([H])c6[H])c(C(=O)N([H])[H])c5N([H])[H])C3([H])[H])C4([H])[H])c([H])c([H])c2C1([H])[H]

>  <smiles>  (37) 
[H]c1c([H])c([H])c2c(c1[H])C([H])([H])C([H])([H])C([H])([H])C2([H])N([H])C(=O)C1([H])N(C(=O)C([H])(N([H])C(=O)C([H])(N([H])C([H])([H])[H])C([H])([H])[H])C(C([H])([H])[H])(C([H])([H])[H])C([H])([H])[H])C([H])([H])c2c([H])c(OC([H])([H])C([H])([H])C34C([H])([H])C3([H])C([H])([H])C(C(=O)N([H])[H])(C([H])([H])C([H])([H])N([H])C(=O)N3C([H])([H])C([H])([H])C([H])([H])C([H])(n5nc(-c6c([H])c([H])c(Oc7c([H])c([H])c(F)c([H])c7F)c([H])c6[H])c(C(=O)N([H])[H])c5N([H])[H])C3([H])[H])C4([H])[H])c([H])c([H])c2C1([H])[H]

$$$$
38:0:0
     RDKit          3D

 90 99  0  0  1  0  0  0  0  0999 V2000
  -29.6600  -18.9950   18.6930 C   0  0  0  0  0  0  0  0  0  0  0  0
  -27.2480  -19.5610   18.8830 C   0  0  0  0  0  2  0  0  0  0  0  0
  -27.3530  -19.1460   20.3830 C   0  0  0  0  0  2  0  0  0  0  0  0
  -29.7980  -18.3460   20.1180 C   0  0  0  0  0  3  0  0  0  0  0  0
  -28.6170  -20.2360   18.6280 C   0  0  0  0  0  3  0  0  0  0  0  0
  -28.7880  -19.6220   20.7260 C   0  0  0  0  0  3  0  0  0  0  0  0
  -28.6830  -21.0030   19.9010 N   0  0  1  0  0  4  0  0  0  0  0  0
  -30.2690  -18.5600   17.7080 O   0  0  0  0  0  0  0  0  0  0  0  0
  -27.6940  -21.1160   20.0580 H   0  0  0  0  0  0  0  0  0  0  0  0
  -30.3580  -15.3860   20.1060 C   0  0  0  0  0  0  0  0  0  0  0  0
  -30.3230  -12.9170   19.2550 C   0  0  0  0  0  2  0  0  0  0  0  0
  -29.3660  -12.6760   18.0600 C   0  0  0  0  0  2  0  0  0  0  0  0
  -27.9340  -12.4010   18.5530 C   0  0  0  0  0  2  0  0  0  0  0  0
  -27.5160  -13.3770   19.6790 C   0  0  0  0  0  3  0  0  0  0  0  0
  -28.6010  -13.5500   20.7650 C   0  0  0  0  0  2  0  0  0  0  0  0
  -29.8000  -14.0690   20.0850 N   0  0  0  0  0  0  0  0  0  0  0  0
  -31.5670  -15.3790   19.8290 O   0  0  0  0  0  0  0  0  0  0  0  0
  -29.5930  -16.6630   20.2520 N   0  0  0  0  0  0  0  0  0  0  0  0
  -28.6260  -16.4400   20.4330 H   0  0  0  0  0  0  0  0  0  0  0  0
  -25.1890  -13.9460   20.5460 C   0  0  0  0  0  0  0  0  0  0  0  0
  -24.1360  -13.1740   20.9470 C   0  0  0  0  0  0  0  0  0  0  0  0
  -24.5860  -11.8190   20.8720 C   0  0  0  0  0  0  0  0  0  0  0  0
  -26.2100  -13.0640   20.2400 N   0  0  0  0  0  0  0  0  0  0  0  0
  -25.8630  -11.7770   20.5060 N   0  0  0  0  0  0  0  0  0  0  0  0
  -23.8500  -10.5620   21.0690 C   0  0  0  0  0  0  0  0  0  0  0  0
  -24.2990   -9.5770   21.9770 C   0  0  0  0  0  3  0  0  0  0  0  0
  -23.5620   -8.3880   22.1630 C   0  0  0  0  0  3  0  0  0  0  0  0
  -22.3620   -8.1740   21.4430 C   0  0  0  0  0  0  0  0  0  0  0  0
  -21.9320   -9.1480   20.5240 C   0  0  0  0  0  3  0  0  0  0  0  0
  -22.6700  -10.3290   20.3360 C   0  0  0  0  0  3  0  0  0  0  0  0
  -21.5940   -7.0400   21.5430 O   0  0  0  0  0  0  0  0  0  0  0  0
  -21.5640   -6.2890   22.6900 C   0  0  0  0  0  0  0  0  0  0  0  0
  -21.1510   -6.8340   23.9250 C   0  0  0  0  0  3  0  0  0  0  0  0
  -21.0660   -6.0090   25.0640 C   0  0  0  0  0  3  0  0  0  0  0  0
  -21.3850   -4.6410   24.9710 C   0  0  0  0  0  0  0  0  0  0  0  0
  -21.7890   -4.0950   23.7410 C   0  0  0  0  0  3  0  0  0  0  0  0
  -21.8760   -4.9160   22.6030 C   0  0  0  0  0  0  0  0  0  0  0  0
  -22.2470   -4.3810   21.4150 F   0  0  0  0  0  0  0  0  0  0  0  0
  -21.2950   -3.8480   26.0640 F   0  0  0  0  0  0  0  0  0  0  0  0
  -22.7570  -13.6630   21.2750 C   0  0  0  0  0  0  0  0  0  0  0  0
  -22.0540  -12.9700   22.1640 N   0  0  0  0  0  0  0  0  0  0  0  0
  -22.3110  -14.6970   20.7760 O   0  0  0  0  0  0  0  0  0  0  0  0
  -22.4270  -12.1360   22.5910 H   0  0  0  0  0  0  0  0  0  0  0  0
  -21.1300  -13.2850   22.4240 H   0  0  0  0  0  0  0  0  0  0  0  0
  -25.3580  -15.3180   20.3820 N   0  0  0  0  0  0  0  0  0  0  0  0
  -24.5930  -15.9670   20.5330 H   0  0  0  0  0  0  0  0  0  0  0  0
  -26.1510  -15.7410   19.9210 H   0  0  0  0  0  0  0  0  0  0  0  0
  -28.9640  -22.6600   20.1260 C   0  0  0  0  0  3  0  0  0  0  0  0
  -27.9770  -24.1650   19.7680 C   0  0  0  0  0  3  0  0  0  0  0  0
  -28.1620  -25.8210   19.9730 O   0  0  0  0  0  0  0  0  0  0  0  0
  -24.5340  -31.7380   23.0410 C   0  0  0  0  0  0  0  0  0  0  0  0
  -27.1400  -26.9240   19.9210 C   0  0  0  0  0  0  0  0  0  0  0  0
  -23.3540  -30.3620   21.3770 C   0  0  0  0  0  3  0  0  0  0  0  0
  -24.8190  -28.7990   19.9180 C   0  0  0  0  0  0  0  0  0  0  0  0
  -25.9200  -30.5990   21.2310 C   0  0  0  0  0  2  0  0  0  0  0  0
  -26.0040  -29.2000   20.5450 C   0  0  0  0  0  0  0  0  0  0  0  0
  -27.1570  -28.2850   20.5210 C   0  0  0  0  0  3  0  0  0  0  0  0
  -25.9210  -26.6860   19.2460 C   0  0  0  0  0  3  0  0  0  0  0  0
  -24.8040  -27.5640   19.2480 C   0  0  0  0  0  3  0  0  0  0  0  0
  -23.5880  -29.7050   19.9880 C   0  0  0  0  0  2  0  0  0  0  0  0
  -24.6240  -30.9280   21.9360 N   0  0  0  0  0  0  0  0  0  0  0  0
  -23.4430  -32.0050   23.5700 O   0  0  0  0  0  0  0  0  0  0  0  0
  -22.6730  -29.3410   22.3260 C   0  0  0  0  0  0  0  0  0  0  0  0
  -21.3410  -29.1810   22.2180 N   0  0  0  0  0  0  0  0  0  0  0  0
  -23.3530  -28.6910   23.1260 O   0  0  0  0  0  0  0  0  0  0  0  0
  -20.8480  -29.7510   21.5450 H   0  0  0  0  0  0  0  0  0  0  0  0
  -17.9610  -27.9830   22.7780 C   0  0  0  0  0  0  0  0  0  0  0  0
  -20.5310  -28.2210   22.9750 C   0  0  0  0  0  3  0  0  0  0  0  0
  -20.6030  -26.8130   22.3410 C   0  0  0  0  0  2  0  0  0  0  0  0
  -19.4700  -26.5400   21.3460 C   0  0  0  0  0  2  0  0  0  0  0  0
  -18.1080  -26.6640   22.0360 C   0  0  0  0  0  2  0  0  0  0  0  0
  -19.0980  -28.7210   23.2040 C   0  0  0  0  0  0  0  0  0  0  0  0
  -18.9050  -29.9550   23.8620 C   0  0  0  0  0  3  0  0  0  0  0  0
  -17.6090  -30.4510   24.0960 C   0  0  0  0  0  3  0  0  0  0  0  0
  -16.4870  -29.7110   23.6830 C   0  0  0  0  0  3  0  0  0  0  0  0
  -16.6650  -28.4780   23.0300 C   0  0  0  0  0  3  0  0  0  0  0  0
  -25.7970  -32.3860   23.6850 C   0  0  0  0  0  3  0  0  0  0  0  0
  -25.4600  -33.7750   24.0490 N   0  0  0  0  0  0  0  0  0  0  0  0
  -25.7750  -34.8580   23.3260 C   0  0  0  0  0  0  0  0  0  0  0  0
  -26.4410  -34.7940   22.2900 O   0  0  0  0  0  0  0  0  0  0  0  0
  -24.8630  -33.8950   24.8540 H   0  0  0  0  0  0  0  0  0  0  0  0
  -24.0230  -36.6440   23.0420 C   0  0  0  0  0  1  0  0  0  0  0  0
  -25.2760  -36.2280   23.8290 C   0  0  0  0  0  3  0  0  0  0  0  0
  -27.4010  -37.1240   24.6740 C   0  0  0  0  0  1  0  0  0  0  0  0
  -26.2940  -37.2990   23.7380 N   0  0  0  0  0  0  0  0  0  0  0  0
  -25.8760  -38.2100   23.9050 H   0  0  0  0  0  0  0  0  0  0  0  0
  -26.3110  -31.6040   24.9590 C   0  0  1  0  0  0  0  0  0  0  0  0
  -25.2120  -31.3440   26.0160 C   0  0  0  0  0  1  0  0  0  0  0  0
  -26.9110  -30.2360   24.5640 C   0  0  0  0  0  1  0  0  0  0  0  0
  -27.4490  -32.4020   25.6390 C   0  0  0  0  0  1  0  0  0  0  0  0
  1  4  1  0
  2  3  1  0
  4 18  1  0
  4  6  1  0
  5  1  1  0
  5  2  1  0
  5  7  1  0
  6  3  1  0
  7  9  1  1
  7 48  1  0
  7  6  1  0
  8  1  2  0
 10 18  1  0
 11 16  1  0
 12 13  1  0
 12 11  1  0
 14 13  1  0
 14 23  1  0
 14 15  1  0
 16 10  1  0
 16 15  1  0
 17 10  2  0
 18 19  1  0
 20 21  2  0
 21 40  1  0
 22 21  1  0
 22 25  1  0
 23 24  1  0
 23 20  1  0
 24 22  2  0
 25 26  1  0
 26 27  2  0
 28 31  1  0
 28 27  1  0
 29 28  2  0
 30 29  1  0
 30 25  2  0
 31 32  1  0
 32 33  1  0
 33 34  2  0
 35 34  1  0
 35 39  1  0
 36 35  2  0
 37 32  2  0
 37 36  1  0
 38 37  1  0
 40 41  1  0
 41 44  1  0
 41 43  1  0
 42 40  2  0
 45 46  1  0
 45 20  1  0
 47 45  1  0
 49 50  1  0
 49 48  2  0
 51 62  2  0
 52 50  1  0
 52 57  1  0
 53 61  1  0
 53 63  1  0
 54 60  1  0
 54 56  1  0
 55 61  1  0
 56 55  1  0
 57 56  2  0
 58 59  1  0
 58 52  2  0
 59 54  2  0
 60 53  1  0
 61 51  1  0
 63 65  2  0
 64 63  1  0
 66 64  1  0
 67 76  2  0
 67 72  1  0
 68 64  1  0
 68 72  1  0
 69 68  1  0
 70 71  1  0
 70 69  1  0
 71 67  1  0
 72 73  2  0
 73 74  1  0
 75 74  2  0
 76 75  1  0
 77 51  1  0
 77 78  1  0
 77 87  1  0
 78 81  1  0
 79 83  1  0
 79 78  1  0
 80 79  2  0
 83 82  1  0
 85 83  1  0
 85 86  1  0
 85 84  1  0
 87 90  1  1
 87 88  1  0
 89 87  1  0
M  ISO  4  10 100  18 100  49 101  50 101
M  END
>  <TORSDO>  (38) 
F 18

>  <SCORE>  (38) 
-16.198

>  <name>  (38) 
38

>  <ligand_id>  (38) 
38

>  <original_smiles>  (38) 
[H]c1c([H])c([H])c2c(c1[H])C([H])([H])C([H])([H])C([H])([H])C2([H])N([H])C(=O)C1([H])N(C(=O)C([H])(N([H])C(=O)C([H])(N([H])C([H])([H])[H])C([H])([H])[H])C(C([H])([H])[H])(C([H])([H])[H])C([H])([H])[H])C([H])([H])c2c([H])c(OC([H])([H])C([H])([H])[N+]3([H])C4([H])C(=O)C([H])(N([H])C(=O)N5C([H])([H])C([H])([H])C([H])([H])C([H])(n6nc(-c7c([H])c([H])c(Oc8c([H])c([H])c(F)c([H])c8F)c([H])c7[H])c(C(=O)N([H])[H])c6N([H])[H])C5([H])[H])C3([H])C([H])([H])C4([H])[H])c([H])c([H])c2C1([H])[H]

>  <smiles>  (38) 
[H]c1c([H])c([H])c2c(c1[H])C([H])([H])C([H])([H])C([H])([H])C2([H])N([H])C(=O)C1([H])N(C(=O)C([H])(N([H])C(=O)C([H])(N([H])C([H])([H])[H])C([H])([H])[H])C(C([H])([H])[H])(C([H])([H])[H])C([H])([H])[H])C([H])([H])c2c([H])c(OC([H])([H])C([H])([H])[N+]3([H])C4([H])C(=O)C([H])(N([H])C(=O)N5C([H])([H])C([H])([H])C([H])([H])C([H])(n6nc(-c7c([H])c([H])c(Oc8c([H])c([H])c(F)c([H])c8F)c([H])c7[H])c(C(=O)N([H])[H])c6N([H])[H])C5([H])[H])C3([H])C([H])([H])C4([H])[H])c([H])c([H])c2C1([H])[H]

$$$$
39:0:0
     RDKit          3D

 90 99  0  0  1  0  0  0  0  0999 V2000
  -29.2310  -20.8150   20.3820 C   0  0  0  0  0  0  0  0  0  0  0  0
  -29.4610  -22.0960   19.7990 C   0  0  0  0  0  0  0  0  0  0  0  0
  -28.1210  -20.8410   21.4330 C   0  0  0  0  0  2  0  0  0  0  0  0
  -28.5370  -23.4420   21.7670 C   0  0  0  0  0  2  0  0  0  0  0  0
  -27.1450  -23.0180   20.3400 C   0  0  0  0  0  2  0  0  0  0  0  0
  -27.5390  -22.2680   21.6210 C   0  0  0  0  0  3  0  0  0  0  0  0
  -28.6210  -23.4730   20.2220 C   0  0  2  0  0  0  0  0  0  0  0  0
  -30.5800  -22.3290   18.8060 C   0  0  0  0  0  1  0  0  0  0  0  0
  -30.0660  -19.3650   20.3690 C   0  0  0  0  0  2  0  0  0  0  0  0
  -29.6320  -17.8470   19.7480 C   0  0  0  0  0  2  0  0  0  0  0  0
  -30.6480  -15.2220   20.0130 C   0  0  0  0  0  0  0  0  0  0  0  0
  -30.5320  -12.8610   19.0770 C   0  0  0  0  0  2  0  0  0  0  0  0
  -29.5690  -12.8440   17.8650 C   0  0  0  0  0  2  0  0  0  0  0  0
  -28.1170  -12.6280   18.3310 C   0  0  0  0  0  2  0  0  0  0  0  0
  -27.7440  -13.5280   19.5380 C   0  0  0  0  0  3  0  0  0  0  0  0
  -28.8300  -13.5120   20.6390 C   0  0  0  0  0  2  0  0  0  0  0  0
  -30.0870  -13.9410   20.0120 N   0  0  0  0  0  0  0  0  0  0  0  0
  -31.8000  -15.3250   19.5730 O   0  0  0  0  0  0  0  0  0  0  0  0
  -29.8650  -16.3740   20.3330 N   0  0  0  0  0  0  0  0  0  0  0  0
  -29.0480  -16.0780   20.8490 H   0  0  0  0  0  0  0  0  0  0  0  0
  -25.3780  -14.0890   20.3310 C   0  0  0  0  0  0  0  0  0  0  0  0
  -24.3280  -13.3070   20.7280 C   0  0  0  0  0  0  0  0  0  0  0  0
  -24.8000  -11.9600   20.6830 C   0  0  0  0  0  0  0  0  0  0  0  0
  -26.4200  -13.2180   20.0640 N   0  0  0  0  0  0  0  0  0  0  0  0
  -26.0840  -11.9310   20.3390 N   0  0  0  0  0  0  0  0  0  0  0  0
  -24.0850  -10.6930   20.8900 C   0  0  0  0  0  0  0  0  0  0  0  0
  -24.5220   -9.7450   21.8420 C   0  0  0  0  0  3  0  0  0  0  0  0
  -23.8050   -8.5450   22.0360 C   0  0  0  0  0  3  0  0  0  0  0  0
  -22.6360   -8.2840   21.2810 C   0  0  0  0  0  0  0  0  0  0  0  0
  -22.2220   -9.2200   20.3170 C   0  0  0  0  0  3  0  0  0  0  0  0
  -22.9390  -10.4120   20.1200 C   0  0  0  0  0  3  0  0  0  0  0  0
  -21.8910   -7.1350   21.3860 O   0  0  0  0  0  0  0  0  0  0  0  0
  -21.8200   -6.4270   22.5590 C   0  0  0  0  0  0  0  0  0  0  0  0
  -21.3280   -7.0050   23.7500 C   0  0  0  0  0  3  0  0  0  0  0  0
  -21.2030   -6.2200   24.9150 C   0  0  0  0  0  3  0  0  0  0  0  0
  -21.5640   -4.8600   24.8900 C   0  0  0  0  0  0  0  0  0  0  0  0
  -22.0510   -4.2820   23.7040 C   0  0  0  0  0  3  0  0  0  0  0  0
  -22.1730   -5.0630   22.5410 C   0  0  0  0  0  0  0  0  0  0  0  0
  -22.6210   -4.4960   21.3960 F   0  0  0  0  0  0  0  0  0  0  0  0
  -21.4380   -4.1030   26.0060 F   0  0  0  0  0  0  0  0  0  0  0  0
  -22.9350  -13.7760   21.0390 C   0  0  0  0  0  0  0  0  0  0  0  0
  -22.2380  -13.0760   21.9270 N   0  0  0  0  0  0  0  0  0  0  0  0
  -22.4790  -14.7990   20.5280 O   0  0  0  0  0  0  0  0  0  0  0  0
  -22.6240  -12.2510   22.3620 H   0  0  0  0  0  0  0  0  0  0  0  0
  -21.3030  -13.3680   22.1750 H   0  0  0  0  0  0  0  0  0  0  0  0
  -25.5280  -15.4610   20.1510 N   0  0  0  0  0  0  0  0  0  0  0  0
  -24.7490  -16.1000   20.2570 H   0  0  0  0  0  0  0  0  0  0  0  0
  -26.3570  -15.9050   19.7790 H   0  0  0  0  0  0  0  0  0  0  0  0
  -28.7930  -24.9820   19.4570 C   0  0  0  0  0  2  0  0  0  0  0  0
  -28.6230  -26.4500   19.9750 O   0  0  0  0  0  0  0  0  0  0  0  0
  -24.6540  -31.8170   23.0490 C   0  0  0  0  0  0  0  0  0  0  0  0
  -27.4920  -27.3440   19.8760 C   0  0  0  0  0  0  0  0  0  0  0  0
  -23.5320  -30.4040   21.3690 C   0  0  0  0  0  3  0  0  0  0  0  0
  -25.0650  -28.9550   19.8890 C   0  0  0  0  0  0  0  0  0  0  0  0
  -26.0650  -30.8180   21.2100 C   0  0  0  0  0  2  0  0  0  0  0  0
  -26.2130  -29.4510   20.5150 C   0  0  0  0  0  0  0  0  0  0  0  0
  -27.4210  -28.6600   20.4910 C   0  0  0  0  0  3  0  0  0  0  0  0
  -26.3110  -26.9440   19.2130 C   0  0  0  0  0  3  0  0  0  0  0  0
  -25.1250  -27.7190   19.2230 C   0  0  0  0  0  3  0  0  0  0  0  0
  -23.7870  -29.7810   19.9680 C   0  0  0  0  0  2  0  0  0  0  0  0
  -24.7700  -31.0360   21.9320 N   0  0  0  0  0  0  0  0  0  0  0  0
  -23.5560  -32.0250   23.5870 O   0  0  0  0  0  0  0  0  0  0  0  0
  -22.9140  -29.3340   22.3030 C   0  0  0  0  0  0  0  0  0  0  0  0
  -21.5950  -29.1040   22.1830 N   0  0  0  0  0  0  0  0  0  0  0  0
  -23.6250  -28.7150   23.0990 O   0  0  0  0  0  0  0  0  0  0  0  0
  -21.0760  -29.6560   21.5170 H   0  0  0  0  0  0  0  0  0  0  0  0
  -18.2780  -27.7390   22.6920 C   0  0  0  0  0  0  0  0  0  0  0  0
  -20.8270  -28.1010   22.9290 C   0  0  0  0  0  3  0  0  0  0  0  0
  -20.9800  -26.6990   22.2940 C   0  0  0  0  0  2  0  0  0  0  0  0
  -19.8750  -26.3700   21.2850 C   0  0  0  0  0  2  0  0  0  0  0  0
  -18.5000  -26.4280   21.9570 C   0  0  0  0  0  2  0  0  0  0  0  0
  -19.3690  -28.5320   23.1350 C   0  0  0  0  0  0  0  0  0  0  0  0
  -19.1060  -29.7570   23.7850 C   0  0  0  0  0  3  0  0  0  0  0  0
  -17.7820  -30.1910   23.9970 C   0  0  0  0  0  3  0  0  0  0  0  0
  -16.7050  -29.3950   23.5690 C   0  0  0  0  0  3  0  0  0  0  0  0
  -16.9540  -28.1700   22.9220 C   0  0  0  0  0  3  0  0  0  0  0  0
  -25.8960  -32.5060   23.6960 C   0  0  0  0  0  3  0  0  0  0  0  0
  -26.4550  -31.7280   24.9510 C   0  0  1  0  0  0  0  0  0  0  0  0
  -25.3780  -31.3990   26.0110 C   0  0  0  0  0  1  0  0  0  0  0  0
  -27.1140  -30.3970   24.5250 C   0  0  0  0  0  1  0  0  0  0  0  0
  -27.5610  -32.5670   25.6370 C   0  0  0  0  0  1  0  0  0  0  0  0
  -25.5060  -33.8740   24.0740 N   0  0  0  0  0  0  0  0  0  0  0  0
  -25.7650  -34.9710   23.3520 C   0  0  0  0  0  0  0  0  0  0  0  0
  -26.4230  -34.9420   22.3090 O   0  0  0  0  0  0  0  0  0  0  0  0
  -24.9160  -33.9650   24.8890 H   0  0  0  0  0  0  0  0  0  0  0  0
  -23.9250  -36.6680   23.0930 C   0  0  0  0  0  1  0  0  0  0  0  0
  -25.2060  -36.3140   23.8650 C   0  0  0  0  0  3  0  0  0  0  0  0
  -27.2970  -37.3040   24.6870 C   0  0  0  0  0  1  0  0  0  0  0  0
  -26.1710  -37.4300   23.7660 N   0  0  0  0  0  0  0  0  0  0  0  0
  -25.7130  -38.3200   23.9450 H   0  0  0  0  0  0  0  0  0  0  0  0
  1  3  1  0
  2  7  1  0
  2  1  2  0
  3  6  1  0
  6  5  1  0
  6  4  1  0
  7 49  1  1
  7  5  1  0
  7  4  1  0
  8  2  1  0
  9  1  1  0
 10 19  1  0
 10  9  1  0
 11 19  1  0
 12 17  1  0
 13 14  1  0
 13 12  1  0
 15 14  1  0
 15 24  1  0
 15 16  1  0
 17 11  1  0
 17 16  1  0
 18 11  2  0
 19 20  1  0
 21 22  2  0
 22 41  1  0
 23 22  1  0
 23 26  1  0
 24 21  1  0
 24 25  1  0
 25 23  2  0
 26 27  1  0
 27 28  2  0
 29 32  1  0
 29 28  1  0
 30 29  2  0
 31 30  1  0
 31 26  2  0
 32 33  1  0
 33 34  1  0
 34 35  2  0
 36 35  1  0
 36 40  1  0
 37 36  2  0
 38 33  2  0
 38 37  1  0
 39 38  1  0
 41 42  1  0
 42 45  1  0
 42 44  1  0
 43 41  2  0
 46 47  1  0
 46 21  1  0
 48 46  1  0
 49 50  1  0
 51 62  2  0
 52 50  1  0
 52 57  1  0
 53 61  1  0
 53 63  1  0
 54 60  1  0
 54 56  1  0
 55 61  1  0
 56 55  1  0
 57 56  2  0
 58 59  1  0
 58 52  2  0
 59 54  2  0
 60 53  1  0
 61 51  1  0
 63 65  2  0
 64 63  1  0
 66 64  1  0
 67 76  2  0
 67 72  1  0
 68 64  1  0
 68 72  1  0
 69 68  1  0
 70 71  1  0
 70 69  1  0
 71 67  1  0
 72 73  2  0
 73 74  1  0
 75 74  2  0
 76 75  1  0
 77 51  1  0
 77 82  1  0
 77 78  1  0
 78 81  1  1
 78 79  1  0
 80 78  1  0
 82 85  1  0
 83 87  1  0
 83 82  1  0
 84 83  2  0
 87 86  1  0
 89 87  1  0
 89 90  1  0
 89 88  1  0
M  ISO  4  11 100  19 100  49 101  50 101
M  END
>  <TORSDO>  (39) 
F 19

>  <SCORE>  (39) 
-14.604

>  <name>  (39) 
39

>  <ligand_id>  (39) 
39

>  <original_smiles>  (39) 
[H]c1c([H])c([H])c2c(c1[H])C([H])([H])C([H])([H])C([H])([H])C2([H])N([H])C(=O)C1([H])N(C(=O)C([H])(N([H])C(=O)C([H])(N([H])C([H])([H])[H])C([H])([H])[H])C(C([H])([H])[H])(C([H])([H])[H])C([H])([H])[H])C([H])([H])c2c([H])c(OC([H])([H])C34C(C([H])([H])[H])=C(C([H])([H])C([H])([H])N([H])C(=O)N5C([H])([H])C([H])([H])C([H])([H])C([H])(n6nc(-c7c([H])c([H])c(Oc8c([H])c([H])c(F)c([H])c8F)c([H])c7[H])c(C(=O)N([H])[H])c6N([H])[H])C5([H])[H])C([H])([H])C([H])(C3([H])[H])C4([H])[H])c([H])c([H])c2C1([H])[H]

>  <smiles>  (39) 
[H]c1c([H])c([H])c2c(c1[H])C([H])([H])C([H])([H])C([H])([H])C2([H])N([H])C(=O)C1([H])N(C(=O)C([H])(N([H])C(=O)C([H])(N([H])C([H])([H])[H])C([H])([H])[H])C(C([H])([H])[H])(C([H])([H])[H])C([H])([H])[H])C([H])([H])c2c([H])c(OC([H])([H])C34C(C([H])([H])[H])=C(C([H])([H])C([H])([H])N([H])C(=O)N5C([H])([H])C([H])([H])C([H])([H])C([H])(n6nc(-c7c([H])c([H])c(Oc8c([H])c([H])c(F)c([H])c8F)c([H])c7[H])c(C(=O)N([H])[H])c6N([H])[H])C5([H])[H])C([H])([H])C([H])(C3([H])[H])C4([H])[H])c([H])c([H])c2C1([H])[H]

$$$$
40:0:0
     RDKit          3D

 88 97  0  0  1  0  0  0  0  0999 V2000
  -30.7440  -20.9890   20.2010 C   0  0  0  0  0  2  0  0  0  0  0  0
  -28.8200  -20.4460   21.6240 C   0  0  0  0  0  2  0  0  0  0  0  0
  -30.3530  -22.5400   20.1610 C   0  0  0  0  0  2  0  0  0  0  0  0
  -28.4160  -22.0120   21.5910 C   0  0  0  0  0  2  0  0  0  0  0  0
  -28.6180  -21.2060   19.4330 C   0  0  0  0  0  2  0  0  0  0  0  0
  -29.4830  -20.0480   20.2710 C   0  0  1  0  0  0  0  0  0  0  0  0
  -28.8080  -22.6780   20.2190 C   0  0  2  0  0  0  0  0  0  0  0  0
  -30.0460  -18.3330   19.9060 C   0  0  0  0  0  2  0  0  0  0  0  0
  -30.4180  -15.4200   20.0890 C   0  0  0  0  0  0  0  0  0  0  0  0
  -30.3360  -12.9800   19.1930 C   0  0  0  0  0  2  0  0  0  0  0  0
  -29.3810  -12.7750   17.9900 C   0  0  0  0  0  2  0  0  0  0  0  0
  -27.9490  -12.5040   18.4770 C   0  0  0  0  0  2  0  0  0  0  0  0
  -27.5330  -13.4730   19.6100 C   0  0  0  0  0  3  0  0  0  0  0  0
  -28.6110  -13.6170   20.7060 C   0  0  0  0  0  2  0  0  0  0  0  0
  -29.8250  -14.1220   20.0450 N   0  0  0  0  0  0  0  0  0  0  0  0
  -31.6230  -15.3910   19.8010 O   0  0  0  0  0  0  0  0  0  0  0  0
  -29.7040  -16.7240   20.2420 N   0  0  0  0  0  0  0  0  0  0  0  0
  -28.7350  -16.5790   20.4850 H   0  0  0  0  0  0  0  0  0  0  0  0
  -25.1890  -14.0460   20.4280 C   0  0  0  0  0  0  0  0  0  0  0  0
  -24.1290  -13.2760   20.8180 C   0  0  0  0  0  0  0  0  0  0  0  0
  -24.5860  -11.9220   20.7710 C   0  0  0  0  0  0  0  0  0  0  0  0
  -26.2170  -13.1630   20.1540 N   0  0  0  0  0  0  0  0  0  0  0  0
  -25.8690  -11.8800   20.4280 N   0  0  0  0  0  0  0  0  0  0  0  0
  -23.8540  -10.6640   20.9730 C   0  0  0  0  0  0  0  0  0  0  0  0
  -24.2910   -9.6940   21.9020 C   0  0  0  0  0  3  0  0  0  0  0  0
  -23.5550   -8.5040   22.0940 C   0  0  0  0  0  3  0  0  0  0  0  0
  -22.3700   -8.2750   21.3560 C   0  0  0  0  0  0  0  0  0  0  0  0
  -21.9520   -9.2340   20.4160 C   0  0  0  0  0  3  0  0  0  0  0  0
  -22.6860  -10.4150   20.2230 C   0  0  0  0  0  3  0  0  0  0  0  0
  -21.6070   -7.1370   21.4570 O   0  0  0  0  0  0  0  0  0  0  0  0
  -21.5620   -6.4000   22.6130 C   0  0  0  0  0  0  0  0  0  0  0  0
  -21.1290   -6.9570   23.8360 C   0  0  0  0  0  3  0  0  0  0  0  0
  -21.0330   -6.1460   24.9850 C   0  0  0  0  0  3  0  0  0  0  0  0
  -21.3600   -4.7780   24.9110 C   0  0  0  0  0  0  0  0  0  0  0  0
  -21.7860   -4.2210   23.6930 C   0  0  0  0  0  3  0  0  0  0  0  0
  -21.8840   -5.0290   22.5470 C   0  0  0  0  0  0  0  0  0  0  0  0
  -22.2740   -4.4810   21.3710 F   0  0  0  0  0  0  0  0  0  0  0  0
  -21.2610   -3.9980   26.0120 F   0  0  0  0  0  0  0  0  0  0  0  0
  -22.7410  -13.7630   21.1170 C   0  0  0  0  0  0  0  0  0  0  0  0
  -22.0260  -13.0750   21.9990 N   0  0  0  0  0  0  0  0  0  0  0  0
  -22.3010  -14.7910   20.6030 O   0  0  0  0  0  0  0  0  0  0  0  0
  -22.3960  -12.2440   22.4380 H   0  0  0  0  0  0  0  0  0  0  0  0
  -21.0970  -13.3830   22.2410 H   0  0  0  0  0  0  0  0  0  0  0  0
  -25.3550  -15.4160   20.2490 N   0  0  0  0  0  0  0  0  0  0  0  0
  -24.5980  -16.0760   20.3910 H   0  0  0  0  0  0  0  0  0  0  0  0
  -26.1880  -15.8480   19.8700 H   0  0  0  0  0  0  0  0  0  0  0  0
  -28.0790  -24.3170   19.8140 C   0  0  0  0  0  2  0  0  0  0  0  0
  -28.2550  -25.9310   20.1720 O   0  0  0  0  0  0  0  0  0  0  0  0
  -24.6300  -31.8610   23.1630 C   0  0  0  0  0  0  0  0  0  0  0  0
  -27.2410  -27.0330   20.0900 C   0  0  0  0  0  0  0  0  0  0  0  0
  -23.4540  -30.4780   21.5020 C   0  0  0  0  0  3  0  0  0  0  0  0
  -24.9220  -28.9020   20.0610 C   0  0  0  0  0  0  0  0  0  0  0  0
  -26.0190  -30.7080   21.3680 C   0  0  0  0  0  2  0  0  0  0  0  0
  -26.1040  -29.3060   20.6940 C   0  0  0  0  0  0  0  0  0  0  0  0
  -27.2540  -28.3930   20.6850 C   0  0  0  0  0  3  0  0  0  0  0  0
  -26.0270  -26.7860   19.4080 C   0  0  0  0  0  3  0  0  0  0  0  0
  -24.9100  -27.6640   19.3970 C   0  0  0  0  0  3  0  0  0  0  0  0
  -23.6940  -29.8110   20.1170 C   0  0  0  0  0  2  0  0  0  0  0  0
  -24.7220  -31.0430   22.0640 N   0  0  0  0  0  0  0  0  0  0  0  0
  -23.5360  -32.1360   23.6840 O   0  0  0  0  0  0  0  0  0  0  0  0
  -22.7640  -29.4660   22.4530 C   0  0  0  0  0  0  0  0  0  0  0  0
  -21.4320  -29.3080   22.3360 N   0  0  0  0  0  0  0  0  0  0  0  0
  -23.4330  -28.8200   23.2630 O   0  0  0  0  0  0  0  0  0  0  0  0
  -20.9420  -29.8780   21.6600 H   0  0  0  0  0  0  0  0  0  0  0  0
  -18.0470  -28.1150   22.8700 C   0  0  0  0  0  0  0  0  0  0  0  0
  -20.6130  -28.3560   23.0960 C   0  0  0  0  0  3  0  0  0  0  0  0
  -20.6940  -26.9400   22.4790 C   0  0  0  0  0  2  0  0  0  0  0  0
  -19.5720  -26.6540   21.4760 C   0  0  0  0  0  2  0  0  0  0  0  0
  -18.2020  -26.7860   22.1480 C   0  0  0  0  0  2  0  0  0  0  0  0
  -19.1790  -28.8590   23.3010 C   0  0  0  0  0  0  0  0  0  0  0  0
  -18.9760  -30.1020   23.9390 C   0  0  0  0  0  3  0  0  0  0  0  0
  -17.6760  -30.5990   24.1510 C   0  0  0  0  0  3  0  0  0  0  0  0
  -16.5600  -29.8530   23.7320 C   0  0  0  0  0  3  0  0  0  0  0  0
  -16.7460  -28.6120   23.0980 C   0  0  0  0  0  3  0  0  0  0  0  0
  -25.8920  -32.5060   23.8100 C   0  0  0  0  0  3  0  0  0  0  0  0
  -25.5670  -33.9050   24.1490 N   0  0  0  0  0  0  0  0  0  0  0  0
  -25.8840  -34.9700   23.4010 C   0  0  0  0  0  0  0  0  0  0  0  0
  -26.5420  -34.8800   22.3610 O   0  0  0  0  0  0  0  0  0  0  0  0
  -24.9750  -34.0470   24.9540 H   0  0  0  0  0  0  0  0  0  0  0  0
  -24.1300  -36.7540   23.1050 C   0  0  0  0  0  1  0  0  0  0  0  0
  -25.3960  -36.3530   23.8790 C   0  0  0  0  0  3  0  0  0  0  0  0
  -27.5390  -37.2640   24.6660 C   0  0  0  0  0  1  0  0  0  0  0  0
  -26.4150  -37.4170   23.7460 N   0  0  0  0  0  0  0  0  0  0  0  0
  -26.0000  -38.3330   23.9010 H   0  0  0  0  0  0  0  0  0  0  0  0
  -26.3900  -31.7380   25.0970 C   0  0  1  0  0  0  0  0  0  0  0  0
  -25.2800  -31.5030   26.1480 C   0  0  0  0  0  1  0  0  0  0  0  0
  -26.9810  -30.3570   24.7270 C   0  0  0  0  0  1  0  0  0  0  0  0
  -27.5280  -32.5360   25.7760 C   0  0  0  0  0  1  0  0  0  0  0  0
  1  6  1  0
  3  1  1  0
  3  7  1  0
  4  2  1  0
  5  7  1  0
  5  6  1  0
  6  8  1  6
  6  2  1  0
  7 47  1  6
  7  4  1  0
  8 17  1  0
  9 17  1  0
 10 15  1  0
 11 12  1  0
 11 10  1  0
 13 12  1  0
 13 22  1  0
 13 14  1  0
 15  9  1  0
 15 14  1  0
 16  9  2  0
 17 18  1  0
 19 20  2  0
 20 39  1  0
 21 20  1  0
 21 24  1  0
 22 23  1  0
 22 19  1  0
 23 21  2  0
 24 25  1  0
 25 26  2  0
 27 30  1  0
 27 26  1  0
 28 27  2  0
 29 28  1  0
 29 24  2  0
 30 31  1  0
 31 32  1  0
 32 33  2  0
 34 33  1  0
 34 38  1  0
 35 34  2  0
 36 31  2  0
 36 35  1  0
 37 36  1  0
 39 40  1  0
 40 43  1  0
 40 42  1  0
 41 39  2  0
 44 45  1  0
 44 19  1  0
 46 44  1  0
 47 48  1  0
 49 60  2  0
 50 48  1  0
 50 55  1  0
 51 59  1  0
 51 61  1  0
 52 58  1  0
 52 54  1  0
 53 59  1  0
 54 53  1  0
 55 54  2  0
 56 50  2  0
 57 56  1  0
 57 52  2  0
 58 51  1  0
 59 49  1  0
 61 63  2  0
 62 61  1  0
 64 62  1  0
 65 74  2  0
 65 70  1  0
 66 62  1  0
 66 70  1  0
 67 66  1  0
 68 69  1  0
 68 67  1  0
 69 65  1  0
 70 71  2  0
 71 72  1  0
 73 72  2  0
 74 73  1  0
 75 49  1  0
 75 76  1  0
 75 85  1  0
 76 79  1  0
 77 81  1  0
 77 76  1  0
 78 77  2  0
 81 80  1  0
 83 81  1  0
 83 84  1  0
 83 82  1  0
 85 88  1  1
 85 86  1  0
 87 85  1  0
M  ISO  4   9 100  17 100  47 101  48 101
M  END
>  <TORSDO>  (40) 
F 18

>  <SCORE>  (40) 
-16.174

>  <name>  (40) 
40

>  <ligand_id>  (40) 
40

>  <original_smiles>  (40) 
[H]c1c([H])c([H])c2c(c1[H])C([H])([H])C([H])([H])C([H])([H])C2([H])N([H])C(=O)C1([H])N(C(=O)C([H])(N([H])C(=O)C([H])(N([H])C([H])([H])[H])C([H])([H])[H])C(C([H])([H])[H])(C([H])([H])[H])C([H])([H])[H])C([H])([H])c2c([H])c(OC([H])([H])C34C([H])([H])C([H])([H])C(C([H])([H])N([H])C(=O)N5C([H])([H])C([H])([H])C([H])([H])C([H])(n6nc(-c7c([H])c([H])c(Oc8c([H])c([H])c(F)c([H])c8F)c([H])c7[H])c(C(=O)N([H])[H])c6N([H])[H])C5([H])[H])(C([H])([H])C3([H])[H])C4([H])[H])c([H])c([H])c2C1([H])[H]

>  <smiles>  (40) 
[H]c1c([H])c([H])c2c(c1[H])C([H])([H])C([H])([H])C([H])([H])C2([H])N([H])C(=O)C1([H])N(C(=O)C([H])(N([H])C(=O)C([H])(N([H])C([H])([H])[H])C([H])([H])[H])C(C([H])([H])[H])(C([H])([H])[H])C([H])([H])[H])C([H])([H])c2c([H])c(OC([H])([H])C34C([H])([H])C([H])([H])C(C([H])([H])N([H])C(=O)N5C([H])([H])C([H])([H])C([H])([H])C([H])(n6nc(-c7c([H])c([H])c(Oc8c([H])c([H])c(F)c([H])c8F)c([H])c7[H])c(C(=O)N([H])[H])c6N([H])[H])C5([H])[H])(C([H])([H])C3([H])[H])C4([H])[H])c([H])c([H])c2C1([H])[H]

$$$$
41:0:0
     RDKit          3D

 81 85  0  0  1  0  0  0  0  0999 V2000
  -28.1880  -25.1400   20.2010 O   0  0  0  0  0  1  0  0  0  0  0  0
  -24.6610  -31.8010   23.1370 C   0  0  0  0  0  0  0  0  0  0  0  0
  -27.2160  -26.4610   20.2420 C   0  0  0  0  0  0  0  0  0  0  0  0
  -23.5020  -30.3780   21.5080 C   0  0  0  0  0  3  0  0  0  0  0  0
  -24.9650  -28.6670   20.1430 C   0  0  0  0  0  0  0  0  0  0  0  0
  -26.0930  -30.4500   21.4340 C   0  0  0  0  0  2  0  0  0  0  0  0
  -26.1640  -28.9800   20.7950 C   0  0  0  0  0  0  0  0  0  0  0  0
  -27.2610  -27.9180   20.7950 C   0  0  0  0  0  3  0  0  0  0  0  0
  -25.9740  -26.4330   19.5330 C   0  0  0  0  0  3  0  0  0  0  0  0
  -24.9270  -27.4220   19.4860 C   0  0  0  0  0  3  0  0  0  0  0  0
  -23.7680  -29.6490   20.1560 C   0  0  0  0  0  2  0  0  0  0  0  0
  -24.7790  -30.9170   22.0770 N   0  0  0  0  0  0  0  0  0  0  0  0
  -23.5570  -32.1100   23.6230 O   0  0  0  0  0  0  0  0  0  0  0  0
  -22.7560  -29.4290   22.4880 C   0  0  0  0  0  0  0  0  0  0  0  0
  -21.4210  -29.2880   22.3610 N   0  0  0  0  0  0  0  0  0  0  0  0
  -23.3990  -28.8130   23.3420 O   0  0  0  0  0  0  0  0  0  0  0  0
  -20.9490  -29.8340   21.6550 H   0  0  0  0  0  0  0  0  0  0  0  0
  -18.0280  -28.0710   22.8750 C   0  0  0  0  0  0  0  0  0  0  0  0
  -20.5880  -28.3570   23.1380 C   0  0  0  0  0  3  0  0  0  0  0  0
  -20.6950  -26.9190   22.5780 C   0  0  0  0  0  2  0  0  0  0  0  0
  -19.5980  -26.5850   21.5610 C   0  0  0  0  0  2  0  0  0  0  0  0
  -18.2140  -26.7230   22.2000 C   0  0  0  0  0  2  0  0  0  0  0  0
  -19.1410  -28.8450   23.3010 C   0  0  0  0  0  0  0  0  0  0  0  0
  -18.9080  -30.1030   23.9000 C   0  0  0  0  0  3  0  0  0  0  0  0
  -17.5980  -30.5880   24.0710 C   0  0  0  0  0  3  0  0  0  0  0  0
  -16.5000  -29.8130   23.6580 C   0  0  0  0  0  3  0  0  0  0  0  0
  -16.7160  -28.5550   23.0660 C   0  0  0  0  0  3  0  0  0  0  0  0
  -25.9030  -32.4770   23.7930 C   0  0  0  0  0  3  0  0  0  0  0  0
  -25.5560  -33.8750   24.1290 N   0  0  0  0  0  0  0  0  0  0  0  0
  -25.8800  -34.9540   23.4030 C   0  0  0  0  0  0  0  0  0  0  0  0
  -26.5530  -34.8790   22.3730 O   0  0  0  0  0  0  0  0  0  0  0  0
  -24.9540  -34.0060   24.9290 H   0  0  0  0  0  0  0  0  0  0  0  0
  -24.1310  -36.7490   23.1050 C   0  0  0  0  0  1  0  0  0  0  0  0
  -25.3860  -36.3360   23.8910 C   0  0  0  0  0  3  0  0  0  0  0  0
  -27.5190  -37.2410   24.7120 C   0  0  0  0  0  1  0  0  0  0  0  0
  -26.4060  -37.4030   23.7810 N   0  0  0  0  0  0  0  0  0  0  0  0
  -25.9900  -38.3170   23.9420 H   0  0  0  0  0  0  0  0  0  0  0  0
  -26.3930  -31.7320   25.0970 C   0  0  1  0  0  0  0  0  0  0  0  0
  -25.2770  -31.5070   26.1460 C   0  0  0  0  0  1  0  0  0  0  0  0
  -26.9920  -30.3500   24.7590 C   0  0  0  0  0  1  0  0  0  0  0  0
  -27.5250  -32.5430   25.7710 C   0  0  0  0  0  1  0  0  0  0  0  0
  -28.2660  -23.2400   20.4820 C   0  0  0  0  0 15  0  0  0  0  0  0
  -28.7220  -21.2560   19.8570 C   0  0  0  0  0 15  0  0  0  0  0  0
  -29.3000  -17.7820   19.9950 C   0  0  0  0  0  2  0  0  0  0  0  0
  -29.4290  -19.3920   20.2180 C   0  0  0  0  0  1  0  0  0  0  0  0
  -30.0950  -16.1250   20.0880 C   0  0  0  0  0  0  0  0  0  0  0  0
  -30.2970  -13.4670   19.3150 C   0  0  0  0  0  2  0  0  0  0  0  0
  -29.4390  -12.8570   18.1540 C   0  0  0  0  0  2  0  0  0  0  0  0
  -28.0550  -12.4150   18.6460 C   0  0  0  0  0  2  0  0  0  0  0  0
  -27.4930  -13.4480   19.6410 C   0  0  0  0  0  3  0  0  0  0  0  0
  -28.5070  -13.9470   20.7070 C   0  0  0  0  0  2  0  0  0  0  0  0
  -29.6120  -14.6880   20.0140 N   0  0  0  0  0  0  0  0  0  0  0  0
  -31.3370  -15.9480   20.0060 O   0  0  0  0  0  0  0  0  0  0  0  0
  -25.1560  -13.9390   20.4670 C   0  0  0  0  0  0  0  0  0  0  0  0
  -24.1070  -13.1520   20.8460 C   0  0  0  0  0  0  0  0  0  0  0  0
  -24.5830  -11.8040   20.8010 C   0  0  0  0  0  0  0  0  0  0  0  0
  -26.2000  -13.0770   20.1990 N   0  0  0  0  0  0  0  0  0  0  0  0
  -25.8730  -11.7830   20.4650 N   0  0  0  0  0  0  0  0  0  0  0  0
  -23.8580  -10.5400   20.9970 C   0  0  0  0  0  0  0  0  0  0  0  0
  -24.2990   -9.5670   21.9230 C   0  0  0  0  0  3  0  0  0  0  0  0
  -23.5660   -8.3750   22.1130 C   0  0  0  0  0  3  0  0  0  0  0  0
  -22.3800   -8.1440   21.3760 C   0  0  0  0  0  0  0  0  0  0  0  0
  -21.9580   -9.1040   20.4410 C   0  0  0  0  0  3  0  0  0  0  0  0
  -22.6890  -10.2880   20.2490 C   0  0  0  0  0  3  0  0  0  0  0  0
  -21.6200   -7.0020   21.4750 O   0  0  0  0  0  0  0  0  0  0  0  0
  -21.5870   -6.2560   22.6260 C   0  0  0  0  0  0  0  0  0  0  0  0
  -21.1820   -6.8090   23.8600 C   0  0  0  0  0  3  0  0  0  0  0  0
  -21.0950   -5.9910   25.0040 C   0  0  0  0  0  3  0  0  0  0  0  0
  -21.4010   -4.6190   24.9140 C   0  0  0  0  0  0  0  0  0  0  0  0
  -21.7990   -4.0660   23.6850 C   0  0  0  0  0  3  0  0  0  0  0  0
  -21.8880   -4.8810   22.5430 C   0  0  0  0  0  0  0  0  0  0  0  0
  -22.2490   -4.3380   21.3560 F   0  0  0  0  0  0  0  0  0  0  0  0
  -21.3120   -3.8300   26.0110 F   0  0  0  0  0  0  0  0  0  0  0  0
  -22.7120  -13.6250   21.1300 C   0  0  0  0  0  0  0  0  0  0  0  0
  -21.9960  -12.9300   22.0050 N   0  0  0  0  0  0  0  0  0  0  0  0
  -22.2690  -14.6500   20.6120 O   0  0  0  0  0  0  0  0  0  0  0  0
  -22.3690  -12.1010   22.4450 H   0  0  0  0  0  0  0  0  0  0  0  0
  -21.0600  -13.2290   22.2390 H   0  0  0  0  0  0  0  0  0  0  0  0
  -25.3050  -15.3110   20.2910 N   0  0  0  0  0  0  0  0  0  0  0  0
  -24.5370  -15.9610   20.4230 H   0  0  0  0  0  0  0  0  0  0  0  0
  -26.1500  -15.7600   19.9600 H   0  0  0  0  0  0  0  0  0  0  0  0
  1  3  1  0
  2 13  2  0
  3  8  1  0
  4 12  1  0
  4 14  1  0
  5 11  1  0
  5  7  1  0
  6 12  1  0
  7  8  2  0
  7  6  1  0
  9  3  2  0
 10  9  1  0
 10  5  2  0
 11  4  1  0
 12  2  1  0
 14 16  2  0
 15 14  1  0
 17 15  1  0
 18 27  2  0
 18 23  1  0
 19 15  1  0
 19 23  1  0
 20 19  1  0
 21 22  1  0
 21 20  1  0
 22 18  1  0
 23 24  2  0
 24 25  1  0
 26 25  2  0
 27 26  1  0
 28  2  1  0
 28 29  1  0
 28 38  1  0
 29 32  1  0
 30 34  1  0
 30 29  1  0
 31 30  2  0
 34 33  1  0
 36 34  1  0
 36 37  1  0
 36 35  1  0
 38 41  1  1
 38 39  1  0
 40 38  1  0
 44 46  1  0
 44 45  1  0
 47 52  1  0
 48 49  1  0
 48 47  1  0
 50 49  1  0
 50 57  1  0
 50 51  1  0
 52 46  1  0
 52 51  1  0
 53 46  2  0
 54 55  2  0
 55 74  1  0
 56 55  1  0
 56 59  1  0
 57 58  1  0
 57 54  1  0
 58 56  2  0
 59 60  1  0
 60 61  2  0
 62 65  1  0
 62 61  1  0
 63 62  2  0
 64 63  1  0
 64 59  2  0
 65 66  1  0
 66 67  1  0
 67 68  2  0
 69 68  1  0
 69 73  1  0
 70 69  2  0
 71 66  2  0
 71 70  1  0
 72 71  1  0
 74 75  1  0
 75 78  1  0
 75 77  1  0
 76 74  2  0
 79 80  1  0
 79 54  1  0
 81 79  1  0
M  ISO  4   1 101  42 101  44 100  46 100
M  END
>  <TORSDO>  (41) 
F 18

>  <SCORE>  (41) 
-16.071

>  <name>  (41) 
41

>  <ligand_id>  (41) 
41

>  <original_smiles>  (41) 
[H]C(C(=O)N1C([H])([H])C([H])([H])C([H])([H])C([H])(n2nc(-c3c([H])c([H])c(Oc4c([H])c([H])c(F)c([H])c4F)c([H])c3[H])c(C(=O)N([H])[H])c2N([H])[H])C1([H])[H])=C([H])C([H])([H])C([H])([H])Oc1c([H])c([H])c2c(c1[H])C([H])([H])N(C(=O)C([H])(N([H])C(=O)C([H])(N([H])C([H])([H])[H])C([H])([H])[H])C(C([H])([H])[H])(C([H])([H])[H])C([H])([H])[H])C([H])(C(=O)N([H])C1([H])c3c([H])c([H])c([H])c([H])c3C([H])([H])C([H])([H])C1([H])[H])C2([H])[H]

>  <smiles>  (41) 
[H]C(C(=O)N1C([H])([H])C([H])([H])C([H])([H])C([H])(n2nc(-c3c([H])c([H])c(Oc4c([H])c([H])c(F)c([H])c4F)c([H])c3[H])c(C(=O)N([H])[H])c2N([H])[H])C1([H])[H])=C([H])C([H])([H])C([H])([H])Oc1c([H])c([H])c2c(c1[H])C([H])([H])N(C(=O)C([H])(N([H])C(=O)C([H])(N([H])C([H])([H])[H])C([H])([H])[H])C(C([H])([H])[H])(C([H])([H])[H])C([H])([H])[H])C([H])(C(=O)N([H])C1([H])c3c([H])c([H])c([H])c([H])c3C([H])([H])C([H])([H])C1([H])[H])C2([H])[H]

$$$$
42:0:0
     RDKit          3D

 85 94  0  0  1  0  0  0  0  0999 V2000
  -28.2760  -19.3040   19.1840 C   0  0  0  0  0  2  0  0  0  0  0  0
  -28.6070  -20.8590   19.3290 C   0  0  0  0  0  3  0  0  0  0  0  0
  -29.4700  -20.4590   20.5030 C   0  0  0  0  0  3  0  0  0  0  0  0
  -28.4390  -21.9960   20.4340 C   0  0  0  0  0  3  0  0  0  0  0  0
  -29.5230  -18.7280   19.9130 C   0  0  0  0  0  3  0  0  0  0  0  0
  -30.2680  -15.6510   20.2640 C   0  0  0  0  0  0  0  0  0  0  0  0
  -30.3470  -13.0990   19.4800 C   0  0  0  0  0  2  0  0  0  0  0  0
  -29.4550  -12.7230   18.2600 C   0  0  0  0  0  2  0  0  0  0  0  0
  -28.0270  -12.3820   18.7110 C   0  0  0  0  0  2  0  0  0  0  0  0
  -27.5290  -13.3780   19.7800 C   0  0  0  0  0  3  0  0  0  0  0  0
  -28.5590  -13.6770   20.8980 C   0  0  0  0  0  2  0  0  0  0  0  0
  -29.7450  -14.2820   20.2490 N   0  0  0  0  0  0  0  0  0  0  0  0
  -31.4820  -15.5900   19.9870 O   0  0  0  0  0  0  0  0  0  0  0  0
  -29.5240  -17.0150   20.4050 N   0  0  0  0  0  0  0  0  0  0  0  0
  -28.6060  -16.7930   20.7650 H   0  0  0  0  0  0  0  0  0  0  0  0
  -25.1700  -13.9110   20.5540 C   0  0  0  0  0  0  0  0  0  0  0  0
  -24.1100  -13.1320   20.9220 C   0  0  0  0  0  0  0  0  0  0  0  0
  -24.5780  -11.7820   20.8810 C   0  0  0  0  0  0  0  0  0  0  0  0
  -26.2110  -13.0410   20.3000 N   0  0  0  0  0  0  0  0  0  0  0  0
  -25.8700  -11.7510   20.5640 N   0  0  0  0  0  0  0  0  0  0  0  0
  -23.8480  -10.5200   21.0660 C   0  0  0  0  0  0  0  0  0  0  0  0
  -24.2750   -9.5450   21.9940 C   0  0  0  0  0  3  0  0  0  0  0  0
  -23.5410   -8.3520   22.1700 C   0  0  0  0  0  3  0  0  0  0  0  0
  -22.3640   -8.1250   21.4170 C   0  0  0  0  0  0  0  0  0  0  0  0
  -21.9550   -9.0880   20.4780 C   0  0  0  0  0  3  0  0  0  0  0  0
  -22.6900  -10.2730   20.3010 C   0  0  0  0  0  3  0  0  0  0  0  0
  -21.6020   -6.9850   21.5030 O   0  0  0  0  0  0  0  0  0  0  0  0
  -21.5460   -6.2400   22.6540 C   0  0  0  0  0  0  0  0  0  0  0  0
  -21.0990   -6.7900   23.8750 C   0  0  0  0  0  3  0  0  0  0  0  0
  -20.9910   -5.9720   25.0180 C   0  0  0  0  0  3  0  0  0  0  0  0
  -21.3190   -4.6060   24.9400 C   0  0  0  0  0  0  0  0  0  0  0  0
  -21.7580   -4.0550   23.7230 C   0  0  0  0  0  3  0  0  0  0  0  0
  -21.8680   -4.8700   22.5830 C   0  0  0  0  0  0  0  0  0  0  0  0
  -22.2710   -4.3290   21.4080 F   0  0  0  0  0  0  0  0  0  0  0  0
  -21.2080   -3.8180   26.0360 F   0  0  0  0  0  0  0  0  0  0  0  0
  -22.7150  -13.6110   21.1930 C   0  0  0  0  0  0  0  0  0  0  0  0
  -21.9840  -12.9120   22.0530 N   0  0  0  0  0  0  0  0  0  0  0  0
  -22.2820  -14.6400   20.6760 O   0  0  0  0  0  0  0  0  0  0  0  0
  -22.3480  -12.0800   22.4920 H   0  0  0  0  0  0  0  0  0  0  0  0
  -21.0460  -13.2150   22.2780 H   0  0  0  0  0  0  0  0  0  0  0  0
  -25.3300  -15.2840   20.3820 N   0  0  0  0  0  0  0  0  0  0  0  0
  -24.5600  -15.9340   20.4940 H   0  0  0  0  0  0  0  0  0  0  0  0
  -26.1660  -15.7210   20.0150 H   0  0  0  0  0  0  0  0  0  0  0  0
  -28.3000  -23.8460   19.9160 C   0  0  0  0  0  2  0  0  0  0  0  0
  -28.1710  -25.5360   20.4080 O   0  0  0  0  0  0  0  0  0  0  0  0
  -24.6240  -31.8210   23.1990 C   0  0  0  0  0  0  0  0  0  0  0  0
  -27.1960  -26.7380   20.2580 C   0  0  0  0  0  0  0  0  0  0  0  0
  -23.4510  -30.4030   21.5670 C   0  0  0  0  0  3  0  0  0  0  0  0
  -24.9150  -28.7540   20.1680 C   0  0  0  0  0  0  0  0  0  0  0  0
  -26.0280  -30.5590   21.4600 C   0  0  0  0  0  2  0  0  0  0  0  0
  -26.1020  -29.1230   20.8130 C   0  0  0  0  0  0  0  0  0  0  0  0
  -27.2200  -28.1390   20.8320 C   0  0  0  0  0  3  0  0  0  0  0  0
  -25.9820  -26.5820   19.5420 C   0  0  0  0  0  3  0  0  0  0  0  0
  -24.8950  -27.5110   19.5100 C   0  0  0  0  0  3  0  0  0  0  0  0
  -23.7010  -29.6970   20.2020 C   0  0  0  0  0  2  0  0  0  0  0  0
  -24.7240  -30.9620   22.1280 N   0  0  0  0  0  0  0  0  0  0  0  0
  -23.5270  -32.1200   23.7030 O   0  0  0  0  0  0  0  0  0  0  0  0
  -22.7340  -29.4320   22.5430 C   0  0  0  0  0  0  0  0  0  0  0  0
  -21.4020  -29.2770   22.4180 N   0  0  0  0  0  0  0  0  0  0  0  0
  -23.3900  -28.8150   23.3860 O   0  0  0  0  0  0  0  0  0  0  0  0
  -20.9240  -29.8250   21.7180 H   0  0  0  0  0  0  0  0  0  0  0  0
  -18.0130  -28.0790   22.9470 C   0  0  0  0  0  0  0  0  0  0  0  0
  -20.5750  -28.3450   23.1950 C   0  0  0  0  0  3  0  0  0  0  0  0
  -20.6700  -26.9110   22.6250 C   0  0  0  0  0  2  0  0  0  0  0  0
  -19.5640  -26.5880   21.6150 C   0  0  0  0  0  2  0  0  0  0  0  0
  -18.1850  -26.7320   22.2650 C   0  0  0  0  0  2  0  0  0  0  0  0
  -19.1330  -28.8430   23.3680 C   0  0  0  0  0  0  0  0  0  0  0  0
  -18.9140  -30.1010   23.9710 C   0  0  0  0  0  3  0  0  0  0  0  0
  -17.6080  -30.5950   24.1520 C   0  0  0  0  0  3  0  0  0  0  0  0
  -16.5030  -29.8300   23.7420 C   0  0  0  0  0  3  0  0  0  0  0  0
  -16.7060  -28.5730   23.1460 C   0  0  0  0  0  3  0  0  0  0  0  0
  -25.8810  -32.4830   23.8420 C   0  0  0  0  0  3  0  0  0  0  0  0
  -25.5530  -33.8880   24.1540 N   0  0  0  0  0  0  0  0  0  0  0  0
  -25.8970  -34.9460   23.4060 C   0  0  0  0  0  0  0  0  0  0  0  0
  -26.5790  -34.8410   22.3840 O   0  0  0  0  0  0  0  0  0  0  0  0
  -24.9460  -34.0420   24.9450 H   0  0  0  0  0  0  0  0  0  0  0  0
  -24.1800  -36.7550   23.0370 C   0  0  0  0  0  1  0  0  0  0  0  0
  -25.4110  -36.3400   23.8600 C   0  0  0  0  0  3  0  0  0  0  0  0
  -27.5370  -37.2260   24.7150 C   0  0  0  0  0  1  0  0  0  0  0  0
  -26.4480  -37.3910   23.7570 N   0  0  0  0  0  0  0  0  0  0  0  0
  -26.0420  -38.3130   23.8930 H   0  0  0  0  0  0  0  0  0  0  0  0
  -26.3650  -31.7450   25.1530 C   0  0  1  0  0  0  0  0  0  0  0  0
  -25.2490  -31.5400   26.2040 C   0  0  0  0  0  1  0  0  0  0  0  0
  -26.9530  -30.3560   24.8240 C   0  0  0  0  0  1  0  0  0  0  0  0
  -27.5050  -32.5540   25.8190 C   0  0  0  0  0  1  0  0  0  0  0  0
  1  5  1  0
  2  1  1  0
  2  4  1  0
  2  3  1  0
  4  3  1  0
  5 14  1  0
  5  3  1  0
  6 14  1  0
  7 12  1  0
  8  9  1  0
  8  7  1  0
  9 10  1  0
 10 19  1  0
 10 11  1  0
 12  6  1  0
 12 11  1  0
 13  6  2  0
 14 15  1  0
 16 17  2  0
 17 36  1  0
 18 17  1  0
 18 21  1  0
 19 16  1  0
 19 20  1  0
 20 18  2  0
 21 22  1  0
 22 23  2  0
 24 27  1  0
 24 23  1  0
 25 24  2  0
 26 25  1  0
 26 21  2  0
 27 28  1  0
 28 29  1  0
 29 30  2  0
 31 30  1  0
 31 35  1  0
 32 31  2  0
 33 28  2  0
 33 32  1  0
 34 33  1  0
 36 37  1  0
 37 40  1  0
 37 39  1  0
 38 36  2  0
 41 42  1  0
 41 16  1  0
 43 41  1  0
 44 45  1  0
 44  4  1  0
 46 57  2  0
 46 72  1  0
 47 45  1  0
 47 52  1  0
 48 56  1  0
 48 58  1  0
 49 55  1  0
 49 51  1  0
 50 56  1  0
 51 52  2  0
 51 50  1  0
 53 47  2  0
 54 53  1  0
 54 49  2  0
 55 48  1  0
 56 46  1  0
 58 60  2  0
 59 58  1  0
 59 63  1  0
 61 59  1  0
 62 71  2  0
 62 67  1  0
 63 67  1  0
 64 63  1  0
 65 66  1  0
 65 64  1  0
 66 62  1  0
 67 68  2  0
 68 69  1  0
 70 69  2  0
 71 70  1  0
 72 73  1  0
 72 82  1  0
 73 76  1  0
 74 78  1  0
 74 73  1  0
 75 74  2  0
 77 78  1  0
 80 78  1  0
 80 81  1  0
 80 79  1  0
 82 85  1  1
 82 83  1  0
 84 82  1  0
M  ISO  4   6 100  14 100  44 101  45 101
M  END
>  <TORSDO>  (42) 
F 17

>  <SCORE>  (42) 
-16.359

>  <name>  (42) 
42

>  <ligand_id>  (42) 
42

>  <original_smiles>  (42) 
[H]c1c([H])c([H])c2c(c1[H])C([H])([H])C([H])([H])C([H])([H])C2([H])N([H])C(=O)C1([H])N(C(=O)C([H])(N([H])C(=O)C([H])(N([H])C([H])([H])[H])C([H])([H])[H])C(C([H])([H])[H])(C([H])([H])[H])C([H])([H])[H])C([H])([H])c2c([H])c(OC([H])([H])C3([H])C4([H])C([H])([H])C([H])(N([H])C(=O)N5C([H])([H])C([H])([H])C([H])([H])C([H])(n6nc(-c7c([H])c([H])c(Oc8c([H])c([H])c(F)c([H])c8F)c([H])c7[H])c(C(=O)N([H])[H])c6N([H])[H])C5([H])[H])C34[H])c([H])c([H])c2C1([H])[H]

>  <smiles>  (42) 
[H]c1c([H])c([H])c2c(c1[H])C([H])([H])C([H])([H])C([H])([H])C2([H])N([H])C(=O)C1([H])N(C(=O)C([H])(N([H])C(=O)C([H])(N([H])C([H])([H])[H])C([H])([H])[H])C(C([H])([H])[H])(C([H])([H])[H])C([H])([H])[H])C([H])([H])c2c([H])c(OC([H])([H])C3([H])C4([H])C([H])([H])C([H])(N([H])C(=O)N5C([H])([H])C([H])([H])C([H])([H])C([H])(n6nc(-c7c([H])c([H])c(Oc8c([H])c([H])c(F)c([H])c8F)c([H])c7[H])c(C(=O)N([H])[H])c6N([H])[H])C5([H])[H])C34[H])c([H])c([H])c2C1([H])[H]

$$$$
43:0:0
     RDKit          3D

 91100  0  0  1  0  0  0  0  0999 V2000
  -29.4380  -22.6990   20.3540 N   0  0  0  0  0  4  0  0  0  0  0  0
  -30.0500  -22.9110   19.5810 H   0  0  0  0  0  0  0  0  0  0  0  0
  -29.9920  -22.8290   21.1870 H   0  0  0  0  0  0  0  0  0  0  0  0
  -29.1070  -21.1950   20.2650 C   0  0  0  0  0  2  0  0  0  0  0  0
  -30.1130  -20.1510   20.9870 C   0  0  0  0  0  2  0  0  0  0  0  0
  -30.4330  -18.6210   20.5190 C   0  0  0  0  0  2  0  0  0  0  0  0
  -30.6080  -14.8540   20.6590 C   0  0  0  0  0  0  0  0  0  0  0  0
  -30.5130  -12.5020   19.8120 C   0  0  0  0  0  2  0  0  0  0  0  0
  -29.6490  -12.4050   18.5360 C   0  0  0  0  0  2  0  0  0  0  0  0
  -28.1450  -12.2970   18.8760 C   0  0  0  0  0  2  0  0  0  0  0  0
  -27.6820  -13.2360   20.0250 C   0  0  0  0  0  3  0  0  0  0  0  0
  -28.6840  -13.2690   21.1970 C   0  0  0  0  0  2  0  0  0  0  0  0
  -29.9920  -13.6200   20.6270 N   0  0  0  0  0  0  0  0  0  0  0  0
  -31.8400  -14.9200   20.6640 O   0  0  0  0  0  0  0  0  0  0  0  0
  -27.9080  -18.3320   18.9040 C   0  0  0  0  0  2  0  0  0  0  0  0
  -29.3050  -16.0700   18.9110 C   0  0  0  0  0  2  0  0  0  0  0  0
  -28.0130  -16.8440   18.9900 C   0  0  0  0  0  3  0  0  0  0  0  0
  -28.1210  -17.6630   20.2530 C   0  0  0  0  0  3  0  0  0  0  0  0
  -29.4920  -17.3530   20.8430 C   0  0  0  0  0  3  0  0  0  0  0  0
  -29.8550  -15.9740   20.2680 N   0  0  0  0  0  0  0  0  0  0  0  0
  -25.2640  -13.8510   20.6070 C   0  0  0  0  0  0  0  0  0  0  0  0
  -24.1730  -13.0890   20.9110 C   0  0  0  0  0  0  0  0  0  0  0  0
  -24.6370  -11.7380   20.9440 C   0  0  0  0  0  0  0  0  0  0  0  0
  -26.3180  -12.9650   20.4510 N   0  0  0  0  0  0  0  0  0  0  0  0
  -25.9430  -11.6910   20.7210 N   0  0  0  0  0  0  0  0  0  0  0  0
  -23.9000  -10.4800   21.1100 C   0  0  0  0  0  0  0  0  0  0  0  0
  -24.2890   -9.5200   22.0700 C   0  0  0  0  0  3  0  0  0  0  0  0
  -23.5520   -8.3250   22.2250 C   0  0  0  0  0  3  0  0  0  0  0  0
  -22.4130   -8.0850   21.4210 C   0  0  0  0  0  0  0  0  0  0  0  0
  -22.0460   -9.0330   20.4510 C   0  0  0  0  0  3  0  0  0  0  0  0
  -22.7830  -10.2190   20.2930 C   0  0  0  0  0  3  0  0  0  0  0  0
  -21.6560   -6.9400   21.4860 O   0  0  0  0  0  0  0  0  0  0  0  0
  -21.5760   -6.1980   22.6370 C   0  0  0  0  0  0  0  0  0  0  0  0
  -21.1300   -6.7560   23.8550 C   0  0  0  0  0  3  0  0  0  0  0  0
  -20.9980   -5.9410   24.9970 C   0  0  0  0  0  3  0  0  0  0  0  0
  -21.2990   -4.5680   24.9210 C   0  0  0  0  0  0  0  0  0  0  0  0
  -21.7390   -4.0090   23.7090 C   0  0  0  0  0  3  0  0  0  0  0  0
  -21.8730   -4.8220   22.5690 C   0  0  0  0  0  0  0  0  0  0  0  0
  -22.2770   -4.2750   21.3970 F   0  0  0  0  0  0  0  0  0  0  0  0
  -21.1640   -3.7830   26.0160 F   0  0  0  0  0  0  0  0  0  0  0  0
  -22.7610  -13.5750   21.0660 C   0  0  0  0  0  0  0  0  0  0  0  0
  -21.9690  -12.9040   21.8980 N   0  0  0  0  0  0  0  0  0  0  0  0
  -22.3610  -14.5820   20.4840 O   0  0  0  0  0  0  0  0  0  0  0  0
  -22.3000  -12.0880   22.3870 H   0  0  0  0  0  0  0  0  0  0  0  0
  -21.0200  -13.2150   22.0490 H   0  0  0  0  0  0  0  0  0  0  0  0
  -25.4390  -15.2190   20.4330 N   0  0  0  0  0  0  0  0  0  0  0  0
  -24.6700  -15.8720   20.5040 H   0  0  0  0  0  0  0  0  0  0  0  0
  -26.3230  -15.6610   20.2150 H   0  0  0  0  0  0  0  0  0  0  0  0
  -28.3310  -23.7710   20.4020 C   0  0  0  0  0  2  0  0  0  0  0  0
  -28.5410  -25.1490   19.5860 C   0  0  0  0  0  2  0  0  0  0  0  0
  -28.3830  -26.5050   20.1950 O   0  0  0  0  0  0  0  0  0  0  0  0
  -24.6250  -31.8930   23.1860 C   0  0  0  0  0  0  0  0  0  0  0  0
  -27.2310  -27.3120   20.1210 C   0  0  0  0  0  0  0  0  0  0  0  0
  -23.4120  -30.4850   21.5590 C   0  0  0  0  0  3  0  0  0  0  0  0
  -24.8540  -28.9230   20.1270 C   0  0  0  0  0  0  0  0  0  0  0  0
  -25.9500  -30.8020   21.3550 C   0  0  0  0  0  2  0  0  0  0  0  0
  -26.0260  -29.4190   20.7130 C   0  0  0  0  0  0  0  0  0  0  0  0
  -27.2110  -28.6230   20.6990 C   0  0  0  0  0  3  0  0  0  0  0  0
  -26.0330  -26.8650   19.5210 C   0  0  0  0  0  3  0  0  0  0  0  0
  -24.8610  -27.6510   19.5270 C   0  0  0  0  0  3  0  0  0  0  0  0
  -23.6170  -29.7990   20.1810 C   0  0  0  0  0  2  0  0  0  0  0  0
  -24.6820  -31.0770   22.0910 N   0  0  0  0  0  0  0  0  0  0  0  0
  -23.5460  -32.1700   23.7270 O   0  0  0  0  0  0  0  0  0  0  0  0
  -22.7570  -29.4730   22.5290 C   0  0  0  0  0  0  0  0  0  0  0  0
  -21.4270  -29.3000   22.4160 N   0  0  0  0  0  0  0  0  0  0  0  0
  -23.4410  -28.8470   23.3440 O   0  0  0  0  0  0  0  0  0  0  0  0
  -20.9360  -29.8460   21.7230 H   0  0  0  0  0  0  0  0  0  0  0  0
  -18.0520  -28.1180   22.9570 C   0  0  0  0  0  0  0  0  0  0  0  0
  -20.6140  -28.3700   23.2030 C   0  0  0  0  0  3  0  0  0  0  0  0
  -20.7050  -26.9350   22.6310 C   0  0  0  0  0  2  0  0  0  0  0  0
  -19.5940  -26.6210   21.6220 C   0  0  0  0  0  2  0  0  0  0  0  0
  -18.2180  -26.7710   22.2760 C   0  0  0  0  0  2  0  0  0  0  0  0
  -19.1770  -28.8760   23.3770 C   0  0  0  0  0  0  0  0  0  0  0  0
  -18.9660  -30.1420   23.9710 C   0  0  0  0  0  3  0  0  0  0  0  0
  -17.6650  -30.6470   24.1450 C   0  0  0  0  0  3  0  0  0  0  0  0
  -16.5550  -29.8830   23.7420 C   0  0  0  0  0  3  0  0  0  0  0  0
  -16.7480  -28.6210   23.1570 C   0  0  0  0  0  3  0  0  0  0  0  0
  -25.9110  -32.5260   23.8000 C   0  0  0  0  0  3  0  0  0  0  0  0
  -25.5950  -33.9180   24.1510 N   0  0  0  0  0  0  0  0  0  0  0  0
  -25.9210  -34.9840   23.4070 C   0  0  0  0  0  0  0  0  0  0  0  0
  -26.5860  -34.8990   22.3710 O   0  0  0  0  0  0  0  0  0  0  0  0
  -25.0030  -34.0600   24.9550 H   0  0  0  0  0  0  0  0  0  0  0  0
  -24.1850  -36.7790   23.0870 C   0  0  0  0  0  1  0  0  0  0  0  0
  -25.4320  -36.3640   23.8870 C   0  0  0  0  0  3  0  0  0  0  0  0
  -27.5660  -37.2450   24.7200 C   0  0  0  0  0  1  0  0  0  0  0  0
  -26.4590  -37.4230   23.7840 N   0  0  0  0  0  0  0  0  0  0  0  0
  -26.0510  -38.3400   23.9450 H   0  0  0  0  0  0  0  0  0  0  0  0
  -26.4470  -31.7460   25.0640 C   0  0  1  0  0  0  0  0  0  0  0  0
  -25.3680  -31.4950   26.1430 C   0  0  0  0  0  1  0  0  0  0  0  0
  -27.0300  -30.3740   24.6530 C   0  0  0  0  0  1  0  0  0  0  0  0
  -27.6030  -32.5390   25.7180 C   0  0  0  0  0  1  0  0  0  0  0  0
  1 49  1  0
  1  3  1  0
  2  1  1  0
  4  1  1  0
  4  5  1  0
  6  5  1  0
  7 14  2  0
  8 13  1  0
  9 10  1  0
  9  8  1  0
 11 10  1  0
 11 24  1  0
 11 12  1  0
 13  7  1  0
 13 12  1  0
 16 17  1  0
 16 20  1  0
 17 15  1  0
 17 18  1  0
 18 15  1  0
 18 19  1  0
 19  6  1  0
 20  7  1  0
 20 19  1  0
 21 22  2  0
 22 23  1  0
 22 41  1  0
 23 26  1  0
 24 21  1  0
 24 25  1  0
 25 23  2  0
 26 27  1  0
 27 28  2  0
 29 32  1  0
 29 28  1  0
 30 29  2  0
 31 30  1  0
 31 26  2  0
 32 33  1  0
 33 34  1  0
 34 35  2  0
 36 35  1  0
 36 40  1  0
 37 36  2  0
 38 33  2  0
 38 37  1  0
 39 38  1  0
 41 42  1  0
 42 45  1  0
 42 44  1  0
 43 41  2  0
 46 47  1  0
 46 21  1  0
 48 46  1  0
 50 51  1  0
 50 49  1  0
 52 63  2  0
 53 51  1  0
 53 58  1  0
 54 62  1  0
 54 64  1  0
 55 61  1  0
 55 57  1  0
 56 62  1  0
 57 56  1  0
 58 57  2  0
 59 60  1  0
 59 53  2  0
 60 55  2  0
 61 54  1  0
 62 52  1  0
 64 66  2  0
 65 64  1  0
 67 65  1  0
 68 77  2  0
 68 73  1  0
 69 65  1  0
 69 73  1  0
 70 69  1  0
 71 72  1  0
 71 70  1  0
 72 68  1  0
 73 74  2  0
 74 75  1  0
 76 75  2  0
 77 76  1  0
 78 52  1  0
 78 79  1  0
 78 88  1  0
 79 82  1  0
 80 84  1  0
 80 79  1  0
 81 80  2  0
 84 83  1  0
 86 84  1  0
 86 87  1  0
 86 85  1  0
 88 91  1  1
 88 89  1  0
 90 88  1  0
M  ISO  4   7 100  20 100  50 101  51 101
M  END
>  <TORSDO>  (43) 
F 21

>  <SCORE>  (43) 
-13.484

>  <name>  (43) 
43

>  <ligand_id>  (43) 
43

>  <original_smiles>  (43) 
[H]c1c([H])c([H])c2c(c1[H])C([H])([H])C([H])([H])C([H])([H])C2([H])N([H])C(=O)C1([H])N(C(=O)C([H])(N([H])C(=O)C([H])(N([H])C([H])([H])[H])C([H])([H])[H])C(C([H])([H])[H])(C([H])([H])[H])C([H])([H])[H])C([H])([H])c2c([H])c(OC([H])([H])C([H])([H])[N+]([H])([H])C([H])([H])C([H])([H])C([H])([H])C3([H])N(C(=O)N4C([H])([H])C([H])([H])C([H])([H])C([H])(n5nc(-c6c([H])c([H])c(Oc7c([H])c([H])c(F)c([H])c7F)c([H])c6[H])c(C(=O)N([H])[H])c5N([H])[H])C4([H])[H])C([H])([H])C4([H])C([H])([H])C34[H])c([H])c([H])c2C1([H])[H]

>  <smiles>  (43) 
[H]c1c([H])c([H])c2c(c1[H])C([H])([H])C([H])([H])C([H])([H])C2([H])N([H])C(=O)C1([H])N(C(=O)C([H])(N([H])C(=O)C([H])(N([H])C([H])([H])[H])C([H])([H])[H])C(C([H])([H])[H])(C([H])([H])[H])C([H])([H])[H])C([H])([H])c2c([H])c(OC([H])([H])C([H])([H])[N+]([H])([H])C([H])([H])C([H])([H])C([H])([H])C3([H])N(C(=O)N4C([H])([H])C([H])([H])C([H])([H])C([H])(n5nc(-c6c([H])c([H])c(Oc7c([H])c([H])c(F)c([H])c7F)c([H])c6[H])c(C(=O)N([H])[H])c5N([H])[H])C4([H])[H])C([H])([H])C4([H])C([H])([H])C34[H])c([H])c([H])c2C1([H])[H]

$$$$
44:0:0
     RDKit          3D

 83 90  0  0  1  0  0  0  0  0999 V2000
  -29.7840  -17.0550   20.2110 C   0  0  0  0  0  0  0  0  0  0  0  0
  -30.2530  -14.1930   19.4820 C   0  0  0  0  0  2  0  0  0  0  0  0
  -29.5850  -13.1670   18.4460 C   0  0  0  0  0  2  0  0  0  0  0  0
  -28.3100  -12.5090   18.9630 C   0  0  0  0  0  2  0  0  0  0  0  0
  -27.5850  -13.5500   19.8170 C   0  0  0  0  0  3  0  0  0  0  0  0
  -28.4760  -14.4240   20.8110 C   0  0  0  0  0  2  0  0  0  0  0  0
  -29.4000  -15.4540   20.0840 N   0  0  0  0  0  0  0  0  0  0  0  0
  -31.0330  -16.7560   20.1870 O   0  0  0  0  0  0  0  0  0  0  0  0
  -30.7440  -20.7060   19.7670 C   0  0  0  0  0  2  0  0  0  0  0  0
  -30.4960  -20.6430   21.2480 C   0  0  0  0  0  2  0  0  0  0  0  0
  -29.2820  -20.4610   19.4260 C   0  0  0  0  0  3  0  0  0  0  0  0
  -29.0020  -20.3940   21.0780 C   0  0  0  0  0  3  0  0  0  0  0  0
  -28.2860  -21.9920   20.1700 C   0  0  0  0  0 15  0  0  0  0  0  0
  -29.0850  -18.8170   20.1810 N   0  0  0  0  0  0  0  0  0  0  0  0
  -25.2190  -13.8940   20.5830 C   0  0  0  0  0  0  0  0  0  0  0  0
  -24.1860  -13.0730   20.9290 C   0  0  0  0  0  0  0  0  0  0  0  0
  -24.7000  -11.7400   20.8850 C   0  0  0  0  0  0  0  0  0  0  0  0
  -26.3050  -13.0790   20.3560 N   0  0  0  0  0  0  0  0  0  0  0  0
  -26.0040  -11.7620   20.5810 N   0  0  0  0  0  0  0  0  0  0  0  0
  -23.9880  -10.4570   21.0610 C   0  0  0  0  0  0  0  0  0  0  0  0
  -24.4120   -9.4910   22.0000 C   0  0  0  0  0  3  0  0  0  0  0  0
  -23.6860   -8.2900   22.1750 C   0  0  0  0  0  3  0  0  0  0  0  0
  -22.5200   -8.0440   21.4120 C   0  0  0  0  0  0  0  0  0  0  0  0
  -22.1120   -8.9990   20.4640 C   0  0  0  0  0  3  0  0  0  0  0  0
  -22.8370  -10.1900   20.2870 C   0  0  0  0  0  3  0  0  0  0  0  0
  -21.7710   -6.8930   21.4940 O   0  0  0  0  0  0  0  0  0  0  0  0
  -21.7110   -6.1490   22.6460 C   0  0  0  0  0  0  0  0  0  0  0  0
  -21.2500   -6.6980   23.8640 C   0  0  0  0  0  3  0  0  0  0  0  0
  -21.1360   -5.8810   25.0050 C   0  0  0  0  0  3  0  0  0  0  0  0
  -21.4750   -4.5170   24.9330 C   0  0  0  0  0  0  0  0  0  0  0  0
  -21.9290   -3.9670   23.7220 C   0  0  0  0  0  3  0  0  0  0  0  0
  -22.0440   -4.7810   22.5810 C   0  0  0  0  0  0  0  0  0  0  0  0
  -22.4610   -4.2410   21.4100 F   0  0  0  0  0  0  0  0  0  0  0  0
  -21.3600   -3.7300   26.0290 F   0  0  0  0  0  0  0  0  0  0  0  0
  -22.7760  -13.5150   21.1800 C   0  0  0  0  0  0  0  0  0  0  0  0
  -22.0570  -12.8090   22.0440 N   0  0  0  0  0  0  0  0  0  0  0  0
  -22.3230  -14.5290   20.6490 O   0  0  0  0  0  0  0  0  0  0  0  0
  -22.4420  -11.9900   22.4910 H   0  0  0  0  0  0  0  0  0  0  0  0
  -21.1120  -13.0900   22.2620 H   0  0  0  0  0  0  0  0  0  0  0  0
  -25.3270  -15.2690   20.4020 N   0  0  0  0  0  0  0  0  0  0  0  0
  -24.5410  -15.9020   20.5030 H   0  0  0  0  0  0  0  0  0  0  0  0
  -26.1680  -15.7280   20.0750 H   0  0  0  0  0  0  0  0  0  0  0  0
  -28.1210  -24.2420   20.2540 O   0  0  0  0  0  1  0  0  0  0  0  0
  -24.6370  -31.7150   23.0110 C   0  0  0  0  0  0  0  0  0  0  0  0
  -27.2110  -25.8360   20.2250 C   0  0  0  0  0  0  0  0  0  0  0  0
  -23.5130  -30.2500   21.3970 C   0  0  0  0  0  3  0  0  0  0  0  0
  -24.9950  -28.3980   20.1020 C   0  0  0  0  0  0  0  0  0  0  0  0
  -26.1200  -30.1540   21.4140 C   0  0  0  0  0  2  0  0  0  0  0  0
  -26.1940  -28.6100   20.7890 C   0  0  0  0  0  0  0  0  0  0  0  0
  -27.2310  -27.3890   20.8000 C   0  0  0  0  0  3  0  0  0  0  0  0
  -25.9700  -26.0660   19.4740 C   0  0  0  0  0  3  0  0  0  0  0  0
  -24.9740  -27.1540   19.4210 C   0  0  0  0  0  3  0  0  0  0  0  0
  -23.8200  -29.4460   20.0820 C   0  0  0  0  0  2  0  0  0  0  0  0
  -24.7920  -30.7620   21.9940 N   0  0  0  0  0  0  0  0  0  0  0  0
  -23.5180  -32.0540   23.4510 O   0  0  0  0  0  0  0  0  0  0  0  0
  -22.7010  -29.3780   22.4020 C   0  0  0  0  0  0  0  0  0  0  0  0
  -21.3590  -29.2780   22.2750 N   0  0  0  0  0  0  0  0  0  0  0  0
  -23.3090  -28.7710   23.2860 O   0  0  0  0  0  0  0  0  0  0  0  0
  -20.9060  -29.8150   21.5500 H   0  0  0  0  0  0  0  0  0  0  0  0
  -17.9390  -28.1050   22.8290 C   0  0  0  0  0  0  0  0  0  0  0  0
  -20.5070  -28.3670   23.0600 C   0  0  0  0  0  3  0  0  0  0  0  0
  -20.5870  -26.9250   22.5040 C   0  0  0  0  0  2  0  0  0  0  0  0
  -19.4800  -26.6070   21.4950 C   0  0  0  0  0  2  0  0  0  0  0  0
  -18.1030  -26.7580   22.1470 C   0  0  0  0  0  2  0  0  0  0  0  0
  -19.0650  -28.8700   23.2420 C   0  0  0  0  0  0  0  0  0  0  0  0
  -18.8480  -30.1240   23.8530 C   0  0  0  0  0  3  0  0  0  0  0  0
  -17.5430  -30.6180   24.0430 C   0  0  0  0  0  3  0  0  0  0  0  0
  -16.4350  -29.8550   23.6380 C   0  0  0  0  0  3  0  0  0  0  0  0
  -16.6330  -28.5980   23.0390 C   0  0  0  0  0  3  0  0  0  0  0  0
  -25.8440  -32.4410   23.6920 C   0  0  0  0  0  3  0  0  0  0  0  0
  -25.4620  -33.8380   24.0340 N   0  0  0  0  0  0  0  0  0  0  0  0
  -25.7940  -34.9410   23.3420 C   0  0  0  0  0  0  0  0  0  0  0  0
  -26.4840  -34.8890   22.3220 O   0  0  0  0  0  0  0  0  0  0  0  0
  -24.8460  -33.9490   24.8250 H   0  0  0  0  0  0  0  0  0  0  0  0
  -24.0420  -36.7390   23.0580 C   0  0  0  0  0  1  0  0  0  0  0  0
  -25.2910  -36.3150   23.8500 C   0  0  0  0  0  3  0  0  0  0  0  0
  -27.4080  -37.2210   24.7150 C   0  0  0  0  0  1  0  0  0  0  0  0
  -26.3080  -37.3910   23.7690 N   0  0  0  0  0  0  0  0  0  0  0  0
  -25.8860  -38.3010   23.9370 H   0  0  0  0  0  0  0  0  0  0  0  0
  -26.3240  -31.7160   25.0120 C   0  0  1  0  0  0  0  0  0  0  0  0
  -25.1960  -31.4900   26.0480 C   0  0  0  0  0  1  0  0  0  0  0  0
  -26.9430  -30.3390   24.7030 C   0  0  0  0  0  1  0  0  0  0  0  0
  -27.4430  -32.5420   25.6920 C   0  0  0  0  0  1  0  0  0  0  0  0
  2  7  1  0
  3  4  1  0
  3  2  1  0
  5  4  1  0
  5 18  1  0
  5  6  1  0
  7  1  1  0
  7  6  1  0
  8  1  2  0
  9 10  1  0
 11  9  1  0
 11 14  1  0
 11 12  1  0
 12 10  1  0
 14  1  1  0
 14 12  1  0
 15 16  2  0
 16 35  1  0
 17 16  1  0
 17 20  1  0
 18 19  1  0
 18 15  1  0
 19 17  2  0
 20 21  1  0
 21 22  2  0
 23 26  1  0
 23 22  1  0
 24 23  2  0
 25 24  1  0
 25 20  2  0
 26 27  1  0
 27 28  1  0
 28 29  2  0
 30 29  1  0
 30 34  1  0
 31 30  2  0
 32 27  2  0
 32 31  1  0
 33 32  1  0
 35 36  1  0
 36 39  1  0
 36 38  1  0
 37 35  2  0
 40 41  1  0
 40 15  1  0
 42 40  1  0
 44 55  2  0
 45 43  1  0
 45 50  1  0
 46 54  1  0
 46 56  1  0
 47 49  1  0
 48 54  1  0
 49 50  2  0
 49 48  1  0
 51 45  2  0
 52 51  1  0
 52 47  2  0
 53 47  1  0
 53 46  1  0
 54 44  1  0
 56 58  2  0
 57 56  1  0
 59 57  1  0
 60 69  2  0
 60 65  1  0
 61 57  1  0
 61 65  1  0
 62 61  1  0
 63 64  1  0
 63 62  1  0
 64 60  1  0
 65 66  2  0
 66 67  1  0
 68 67  2  0
 69 68  1  0
 70 44  1  0
 70 71  1  0
 70 80  1  0
 71 74  1  0
 72 76  1  0
 72 71  1  0
 73 72  2  0
 76 75  1  0
 78 76  1  0
 78 79  1  0
 78 77  1  0
 80 83  1  1
 80 81  1  0
 82 80  1  0
M  ISO  4   1 100  13 101  14 100  43 101
M  END
>  <TORSDO>  (44) 
F 15

>  <SCORE>  (44) 
-16.259

>  <name>  (44) 
44

>  <ligand_id>  (44) 
44

>  <original_smiles>  (44) 
[H]c1c([H])c([H])c2c(c1[H])C([H])([H])C([H])([H])C([H])([H])C2([H])N([H])C(=O)C1([H])N(C(=O)C([H])(N([H])C(=O)C([H])(N([H])C([H])([H])[H])C([H])([H])[H])C(C([H])([H])[H])(C([H])([H])[H])C([H])([H])[H])C([H])([H])c2c([H])c(OC3([H])C4([H])N(C(=O)N5C([H])([H])C([H])([H])C([H])([H])C([H])(n6nc(-c7c([H])c([H])c(Oc8c([H])c([H])c(F)c([H])c8F)c([H])c7[H])c(C(=O)N([H])[H])c6N([H])[H])C5([H])[H])C3([H])C([H])([H])C4([H])[H])c([H])c([H])c2C1([H])[H]

>  <smiles>  (44) 
[H]c1c([H])c([H])c2c(c1[H])C([H])([H])C([H])([H])C([H])([H])C2([H])N([H])C(=O)C1([H])N(C(=O)C([H])(N([H])C(=O)C([H])(N([H])C([H])([H])[H])C([H])([H])[H])C(C([H])([H])[H])(C([H])([H])[H])C([H])([H])[H])C([H])([H])c2c([H])c(OC3([H])C4([H])N(C(=O)N5C([H])([H])C([H])([H])C([H])([H])C([H])(n6nc(-c7c([H])c([H])c(Oc8c([H])c([H])c(F)c([H])c8F)c([H])c7[H])c(C(=O)N([H])[H])c6N([H])[H])C5([H])[H])C3([H])C([H])([H])C4([H])[H])c([H])c([H])c2C1([H])[H]

$$$$
45:0:0
     RDKit          3D

 90100  0  0  1  0  0  0  0  0999 V2000
  -27.8810  -20.1100   19.4290 C   0  0  0  0  0  2  0  0  0  0  0  0
  -27.9520  -21.7080   19.1960 C   0  0  2  0  0  0  0  0  0  0  0  0
  -29.6430  -21.3960   20.0120 C   0  0  2  0  0  0  0  0  0  0  0  0
  -28.4100  -22.5590   20.4160 C   0  0  0  0  0  3  0  0  0  0  0  0
  -29.3540  -22.1210   18.6350 C   0  0  1  0  0  0  0  0  0  0  0  0
  -29.3380  -19.6950   19.7940 C   0  0  2  0  0  0  0  0  0  0  0  0
  -29.6660  -21.5250   17.2430 C   0  0  0  0  0  1  0  0  0  0  0  0
  -29.8530  -23.5900   18.4670 C   0  0  0  0  0  1  0  0  0  0  0  0
  -29.9740  -19.3640   18.6740 F   0  0  0  0  0  0  0  0  0  0  0  0
  -28.0410  -24.3320   20.7100 C   0  0  0  0  0  2  0  0  0  0  0  0
  -28.2610  -25.8940   20.2610 O   0  0  0  0  0  0  0  0  0  0  0  0
  -24.6100  -31.8550   23.1990 C   0  0  0  0  0  0  0  0  0  0  0  0
  -27.2340  -26.9710   20.2680 C   0  0  0  0  0  0  0  0  0  0  0  0
  -23.4450  -30.4340   21.5620 C   0  0  0  0  0  3  0  0  0  0  0  0
  -24.9210  -28.8240   20.1790 C   0  0  0  0  0  0  0  0  0  0  0  0
  -26.0120  -30.6620   21.4440 C   0  0  0  0  0  2  0  0  0  0  0  0
  -26.1000  -29.2470   20.8070 C   0  0  0  0  0  0  0  0  0  0  0  0
  -27.2550  -28.3420   20.8230 C   0  0  0  0  0  3  0  0  0  0  0  0
  -26.0210  -26.6930   19.6020 C   0  0  0  0  0  3  0  0  0  0  0  0
  -24.9050  -27.5650   19.5580 C   0  0  0  0  0  3  0  0  0  0  0  0
  -23.6970  -29.7370   20.1970 C   0  0  0  0  0  2  0  0  0  0  0  0
  -24.7100  -31.0100   22.1230 N   0  0  0  0  0  0  0  0  0  0  0  0
  -23.5130  -32.1430   23.7050 O   0  0  0  0  0  0  0  0  0  0  0  0
  -22.7440  -29.4440   22.5290 C   0  0  0  0  0  0  0  0  0  0  0  0
  -21.4140  -29.2820   22.3980 N   0  0  0  0  0  0  0  0  0  0  0  0
  -23.4050  -28.8220   23.3640 O   0  0  0  0  0  0  0  0  0  0  0  0
  -20.9340  -29.8350   21.7010 H   0  0  0  0  0  0  0  0  0  0  0  0
  -18.0240  -28.0990   22.9140 C   0  0  0  0  0  0  0  0  0  0  0  0
  -20.5860  -28.3490   23.1700 C   0  0  0  0  0  3  0  0  0  0  0  0
  -20.6770  -26.9170   22.5930 C   0  0  0  0  0  2  0  0  0  0  0  0
  -19.5710  -26.6020   21.5810 C   0  0  0  0  0  2  0  0  0  0  0  0
  -18.1910  -26.7520   22.2300 C   0  0  0  0  0  2  0  0  0  0  0  0
  -19.1480  -28.8560   23.3410 C   0  0  0  0  0  0  0  0  0  0  0  0
  -18.9350  -30.1150   23.9440 C   0  0  0  0  0  3  0  0  0  0  0  0
  -17.6340  -30.6180   24.1220 C   0  0  0  0  0  3  0  0  0  0  0  0
  -16.5240  -29.8580   23.7110 C   0  0  0  0  0  3  0  0  0  0  0  0
  -16.7200  -28.6000   23.1130 C   0  0  0  0  0  3  0  0  0  0  0  0
  -25.8700  -32.5130   23.8400 C   0  0  0  0  0  3  0  0  0  0  0  0
  -25.5410  -33.9150   24.1510 N   0  0  0  0  0  0  0  0  0  0  0  0
  -25.8840  -34.9700   23.4000 C   0  0  0  0  0  0  0  0  0  0  0  0
  -26.5710  -34.8660   22.3810 O   0  0  0  0  0  0  0  0  0  0  0  0
  -24.9320  -34.0690   24.9420 H   0  0  0  0  0  0  0  0  0  0  0  0
  -24.1670  -36.7710   23.0050 C   0  0  0  0  0  1  0  0  0  0  0  0
  -25.3880  -36.3600   23.8460 C   0  0  0  0  0  3  0  0  0  0  0  0
  -27.4970  -37.2510   24.7380 C   0  0  0  0  0  1  0  0  0  0  0  0
  -26.4230  -37.4150   23.7600 N   0  0  0  0  0  0  0  0  0  0  0  0
  -26.0130  -38.3340   23.8930 H   0  0  0  0  0  0  0  0  0  0  0  0
  -26.3610  -31.7680   25.1440 C   0  0  1  0  0  0  0  0  0  0  0  0
  -25.2430  -31.5470   26.1910 C   0  0  0  0  0  1  0  0  0  0  0  0
  -26.9580  -30.3860   24.8000 C   0  0  0  0  0  1  0  0  0  0  0  0
  -27.4910  -32.5810   25.8180 C   0  0  0  0  0  1  0  0  0  0  0  0
  -29.8720  -18.1760   20.5880 C   0  0  0  0  0  2  0  0  0  0  0  0
  -30.4520  -15.2900   20.2100 C   0  0  0  0  0  0  0  0  0  0  0  0
  -30.4160  -12.8530   19.3110 C   0  0  0  0  0  2  0  0  0  0  0  0
  -29.4730  -12.6500   18.0990 C   0  0  0  0  0  2  0  0  0  0  0  0
  -28.0290  -12.3840   18.5620 C   0  0  0  0  0  2  0  0  0  0  0  0
  -27.5980  -13.3390   19.7040 C   0  0  0  0  0  3  0  0  0  0  0  0
  -28.6690  -13.4840   20.8030 C   0  0  0  0  0  2  0  0  0  0  0  0
  -29.8800  -13.9910   20.1380 N   0  0  0  0  0  0  0  0  0  0  0  0
  -31.6810  -15.2920   20.0460 O   0  0  0  0  0  0  0  0  0  0  0  0
  -29.6740  -16.5480   20.2630 N   0  0  0  0  0  0  0  0  0  0  0  0
  -28.6920  -16.3250   20.2090 H   0  0  0  0  0  0  0  0  0  0  0  0
  -25.2400  -13.8890   20.5020 C   0  0  0  0  0  0  0  0  0  0  0  0
  -24.1860  -13.1070   20.8820 C   0  0  0  0  0  0  0  0  0  0  0  0
  -24.6550  -11.7580   20.8360 C   0  0  0  0  0  0  0  0  0  0  0  0
  -26.2810  -13.0170   20.2350 N   0  0  0  0  0  0  0  0  0  0  0  0
  -25.9420  -11.7290   20.5050 N   0  0  0  0  0  0  0  0  0  0  0  0
  -23.9340  -10.4920   21.0260 C   0  0  0  0  0  0  0  0  0  0  0  0
  -24.3650   -9.5290   21.9620 C   0  0  0  0  0  3  0  0  0  0  0  0
  -23.6390   -8.3300   22.1420 C   0  0  0  0  0  3  0  0  0  0  0  0
  -22.4680   -8.0890   21.3850 C   0  0  0  0  0  0  0  0  0  0  0  0
  -22.0560   -9.0430   20.4380 C   0  0  0  0  0  3  0  0  0  0  0  0
  -22.7810  -10.2320   20.2560 C   0  0  0  0  0  3  0  0  0  0  0  0
  -21.7150   -6.9440   21.4750 O   0  0  0  0  0  0  0  0  0  0  0  0
  -21.6450   -6.2170   22.6360 C   0  0  0  0  0  0  0  0  0  0  0  0
  -21.1690   -6.7800   23.8410 C   0  0  0  0  0  3  0  0  0  0  0  0
  -21.0490   -5.9790   24.9930 C   0  0  0  0  0  3  0  0  0  0  0  0
  -21.3920   -4.6140   24.9420 C   0  0  0  0  0  0  0  0  0  0  0  0
  -21.8590   -4.0500   23.7420 C   0  0  0  0  0  3  0  0  0  0  0  0
  -21.9820   -4.8490   22.5910 C   0  0  0  0  0  0  0  0  0  0  0  0
  -22.4130   -4.2960   21.4320 F   0  0  0  0  0  0  0  0  0  0  0  0
  -21.2700   -3.8420   26.0460 F   0  0  0  0  0  0  0  0  0  0  0  0
  -22.7910  -13.5790   21.1690 C   0  0  0  0  0  0  0  0  0  0  0  0
  -22.0710  -12.8700   22.0310 N   0  0  0  0  0  0  0  0  0  0  0  0
  -22.3480  -14.6110   20.6660 O   0  0  0  0  0  0  0  0  0  0  0  0
  -22.4430  -12.0360   22.4600 H   0  0  0  0  0  0  0  0  0  0  0  0
  -21.1350  -13.1650   22.2660 H   0  0  0  0  0  0  0  0  0  0  0  0
  -25.3940  -15.2610   20.3300 N   0  0  0  0  0  0  0  0  0  0  0  0
  -24.6240  -15.9090   20.4570 H   0  0  0  0  0  0  0  0  0  0  0  0
  -26.2200  -15.7030   19.9500 H   0  0  0  0  0  0  0  0  0  0  0  0
  1  6  1  0
  2  1  1  6
  2  3  1  0
  2  4  1  0
  3  5  1  0
  3  4  1  1
  4 10  1  0
  5  2  1  0
  6  9  1  6
  6  3  1  0
  6 52  1  0
  5  7  1  6
  8  5  1  0
 11 13  1  0
 11 10  1  0
 12 23  2  0
 13 18  1  0
 14 22  1  0
 14 24  1  0
 15 21  1  0
 15 17  1  0
 16 22  1  0
 17 18  2  0
 17 16  1  0
 19 13  2  0
 20 19  1  0
 20 15  2  0
 21 14  1  0
 22 12  1  0
 24 26  2  0
 25 24  1  0
 27 25  1  0
 28 37  2  0
 28 33  1  0
 29 25  1  0
 29 33  1  0
 30 29  1  0
 31 32  1  0
 31 30  1  0
 32 28  1  0
 33 34  2  0
 34 35  1  0
 36 35  2  0
 37 36  1  0
 38 12  1  0
 38 39  1  0
 38 48  1  0
 39 42  1  0
 40 44  1  0
 40 39  1  0
 41 40  2  0
 44 43  1  0
 46 44  1  0
 46 47  1  0
 46 45  1  0
 48 51  1  1
 48 49  1  0
 50 48  1  0
 53 61  1  0
 54 59  1  0
 55 56  1  0
 55 54  1  0
 57 56  1  0
 57 66  1  0
 57 58  1  0
 59 53  1  0
 59 58  1  0
 60 53  2  0
 61 52  1  0
 62 61  1  0
 63 64  2  0
 64 83  1  0
 65 64  1  0
 65 68  1  0
 66 63  1  0
 66 67  1  0
 67 65  2  0
 68 69  1  0
 69 70  2  0
 71 74  1  0
 71 70  1  0
 72 71  2  0
 73 72  1  0
 73 68  2  0
 74 75  1  0
 75 76  1  0
 76 77  2  0
 78 77  1  0
 78 82  1  0
 79 78  2  0
 80 75  2  0
 80 79  1  0
 81 80  1  0
 83 84  1  0
 84 87  1  0
 84 86  1  0
 85 83  2  0
 88 89  1  0
 88 63  1  0
 90 88  1  0
M  ISO  4  10 101  11 101  53 100  61 100
M  END
>  <TORSDO>  (45) 
F 18

>  <SCORE>  (45) 
-16.007

>  <name>  (45) 
45

>  <ligand_id>  (45) 
45

>  <original_smiles>  (45) 
[H]c1c([H])c([H])c2c(c1[H])C([H])([H])C([H])([H])C([H])([H])C2([H])N([H])C(=O)C1([H])N(C(=O)C([H])(N([H])C(=O)C([H])(N([H])C([H])([H])[H])C([H])([H])[H])C(C([H])([H])[H])(C([H])([H])[H])C([H])([H])[H])C([H])([H])c2c([H])c(OC([H])([H])C3([H])C4([H])C([H])([H])C(F)(C([H])([H])N([H])C(=O)N5C([H])([H])C([H])([H])C([H])([H])C([H])(n6nc(-c7c([H])c([H])c(Oc8c([H])c([H])c(F)c([H])c8F)c([H])c7[H])c(C(=O)N([H])[H])c6N([H])[H])C5([H])[H])C3([H])C4(C([H])([H])[H])C([H])([H])[H])c([H])c([H])c2C1([H])[H]

>  <smiles>  (45) 
[H]c1c([H])c([H])c2c(c1[H])C([H])([H])C([H])([H])C([H])([H])C2([H])N([H])C(=O)C1([H])N(C(=O)C([H])(N([H])C(=O)C([H])(N([H])C([H])([H])[H])C([H])([H])[H])C(C([H])([H])[H])(C([H])([H])[H])C([H])([H])[H])C([H])([H])c2c([H])c(OC([H])([H])C3([H])C4([H])C([H])([H])C(F)(C([H])([H])N([H])C(=O)N5C([H])([H])C([H])([H])C([H])([H])C([H])(n6nc(-c7c([H])c([H])c(Oc8c([H])c([H])c(F)c([H])c8F)c([H])c7[H])c(C(=O)N([H])[H])c6N([H])[H])C5([H])[H])C3([H])C4(C([H])([H])[H])C([H])([H])[H])c([H])c([H])c2C1([H])[H]

$$$$
46:0:0
     RDKit          3D

 88 97  0  0  1  0  0  0  0  0999 V2000
  -29.3750  -19.8130   19.0780 C   0  0  0  0  0  2  0  0  0  0  0  0
  -29.7600  -19.9970   21.4450 C   0  0  0  0  0  2  0  0  0  0  0  0
  -29.1860  -18.3940   19.6840 C   0  0  0  0  0  3  0  0  0  0  0  0
  -29.4510  -18.4950   21.1420 C   0  0  0  0  0  3  0  0  0  0  0  0
  -29.6570  -20.9090   20.1690 C   0  0  0  0  0  3  0  0  0  0  0  0
  -30.2510  -17.4400   20.3010 C   0  0  0  0  0  3  0  0  0  0  0  0
  -30.7310  -14.8560   20.1370 C   0  0  0  0  0  0  0  0  0  0  0  0
  -30.5110  -12.5770   19.1270 C   0  0  0  0  0  2  0  0  0  0  0  0
  -29.5260  -12.6490   17.9390 C   0  0  0  0  0  2  0  0  0  0  0  0
  -28.0740  -12.4650   18.4230 C   0  0  0  0  0  2  0  0  0  0  0  0
  -27.7420  -13.3490   19.6550 C   0  0  0  0  0  3  0  0  0  0  0  0
  -28.8420  -13.2630   20.7360 C   0  0  0  0  0  2  0  0  0  0  0  0
  -30.1150  -13.6240   20.0990 N   0  0  0  0  0  0  0  0  0  0  0  0
  -31.8920  -14.9770   19.7340 O   0  0  0  0  0  0  0  0  0  0  0  0
  -29.9530  -15.9680   20.4280 N   0  0  0  0  0  0  0  0  0  0  0  0
  -29.0190  -15.7440   20.7340 H   0  0  0  0  0  0  0  0  0  0  0  0
  -25.3950  -13.9360   20.5090 C   0  0  0  0  0  0  0  0  0  0  0  0
  -24.3400  -13.1590   20.9040 C   0  0  0  0  0  0  0  0  0  0  0  0
  -24.7880  -11.8050   20.8090 C   0  0  0  0  0  0  0  0  0  0  0  0
  -26.4190  -13.0550   20.1960 N   0  0  0  0  0  0  0  0  0  0  0  0
  -26.0640  -11.7670   20.4400 N   0  0  0  0  0  0  0  0  0  0  0  0
  -24.0590  -10.5440   20.9930 C   0  0  0  0  0  0  0  0  0  0  0  0
  -24.4880   -9.5720   21.9240 C   0  0  0  0  0  3  0  0  0  0  0  0
  -23.7590   -8.3750   22.0950 C   0  0  0  0  0  3  0  0  0  0  0  0
  -22.5860   -8.1420   21.3380 C   0  0  0  0  0  0  0  0  0  0  0  0
  -22.1760   -9.1030   20.3980 C   0  0  0  0  0  3  0  0  0  0  0  0
  -22.9060  -10.2920   20.2240 C   0  0  0  0  0  3  0  0  0  0  0  0
  -21.8280   -7.0000   21.4220 O   0  0  0  0  0  0  0  0  0  0  0  0
  -21.7210   -6.2900   22.5910 C   0  0  0  0  0  0  0  0  0  0  0  0
  -21.1660   -6.8580   23.7590 C   0  0  0  0  0  3  0  0  0  0  0  0
  -21.0100   -6.0720   24.9180 C   0  0  0  0  0  3  0  0  0  0  0  0
  -21.3990   -4.7190   24.9100 C   0  0  0  0  0  0  0  0  0  0  0  0
  -21.9450   -4.1500   23.7460 C   0  0  0  0  0  3  0  0  0  0  0  0
  -22.1030   -4.9340   22.5880 C   0  0  0  0  0  0  0  0  0  0  0  0
  -22.6110   -4.3740   21.4640 F   0  0  0  0  0  0  0  0  0  0  0  0
  -21.2410   -3.9620   26.0210 F   0  0  0  0  0  0  0  0  0  0  0  0
  -22.9610  -13.6390   21.2510 C   0  0  0  0  0  0  0  0  0  0  0  0
  -22.2710  -12.9330   22.1410 N   0  0  0  0  0  0  0  0  0  0  0  0
  -22.5040  -14.6750   20.7700 O   0  0  0  0  0  0  0  0  0  0  0  0
  -22.6530  -12.0960   22.5550 H   0  0  0  0  0  0  0  0  0  0  0  0
  -21.3470  -13.2360   22.4130 H   0  0  0  0  0  0  0  0  0  0  0  0
  -25.5630  -15.3100   20.3650 N   0  0  0  0  0  0  0  0  0  0  0  0
  -24.8020  -15.9630   20.5170 H   0  0  0  0  0  0  0  0  0  0  0  0
  -26.3900  -15.7520   19.9860 H   0  0  0  0  0  0  0  0  0  0  0  0
  -28.6750  -22.2200   20.1710 C   0  0  0  0  0  2  0  0  0  0  0  0
  -29.1750  -23.7620   20.3520 C   0  0  0  0  0  3  0  0  0  0  0  0
  -28.1260  -24.9730   20.0630 C   0  0  0  0  0  3  0  0  0  0  0  0
  -28.4000  -26.4420   20.2890 O   0  0  0  0  0  0  0  0  0  0  0  0
  -24.6910  -31.8970   23.3370 C   0  0  0  0  0  0  0  0  0  0  0  0
  -27.3150  -27.3560   20.2160 C   0  0  0  0  0  0  0  0  0  0  0  0
  -23.5020  -30.5390   21.6540 C   0  0  0  0  0  3  0  0  0  0  0  0
  -24.9650  -29.0200   20.2030 C   0  0  0  0  0  0  0  0  0  0  0  0
  -26.0490  -30.8440   21.5070 C   0  0  0  0  0  2  0  0  0  0  0  0
  -26.1320  -29.4780   20.8260 C   0  0  0  0  0  0  0  0  0  0  0  0
  -27.3090  -28.6610   20.8180 C   0  0  0  0  0  3  0  0  0  0  0  0
  -26.1220  -26.9730   19.5580 C   0  0  0  0  0  3  0  0  0  0  0  0
  -24.9660  -27.7750   19.5580 C   0  0  0  0  0  3  0  0  0  0  0  0
  -23.7290  -29.8970   20.2610 C   0  0  0  0  0  2  0  0  0  0  0  0
  -24.7660  -31.1110   22.2220 N   0  0  0  0  0  0  0  0  0  0  0  0
  -23.6010  -32.1670   23.8630 O   0  0  0  0  0  0  0  0  0  0  0  0
  -22.8250  -29.5030   22.5840 C   0  0  0  0  0  0  0  0  0  0  0  0
  -21.5030  -29.3190   22.4270 N   0  0  0  0  0  0  0  0  0  0  0  0
  -23.4900  -28.8690   23.4070 O   0  0  0  0  0  0  0  0  0  0  0  0
  -21.0260  -29.8820   21.7370 H   0  0  0  0  0  0  0  0  0  0  0  0
  -18.1200  -28.1020   22.8550 C   0  0  0  0  0  0  0  0  0  0  0  0
  -20.6740  -28.3630   23.1640 C   0  0  0  0  0  3  0  0  0  0  0  0
  -20.7890  -26.9450   22.5570 C   0  0  0  0  0  2  0  0  0  0  0  0
  -19.7010  -26.6420   21.5220 C   0  0  0  0  0  2  0  0  0  0  0  0
  -18.3080  -26.7700   22.1480 C   0  0  0  0  0  2  0  0  0  0  0  0
  -19.2310  -28.8580   23.3150 C   0  0  0  0  0  0  0  0  0  0  0  0
  -19.0000  -30.1070   23.9330 C   0  0  0  0  0  3  0  0  0  0  0  0
  -17.6920  -30.5990   24.0960 C   0  0  0  0  0  3  0  0  0  0  0  0
  -16.5960  -29.8400   23.6530 C   0  0  0  0  0  3  0  0  0  0  0  0
  -16.8110  -28.5940   23.0380 C   0  0  0  0  0  3  0  0  0  0  0  0
  -25.9670  -32.5150   23.9860 C   0  0  0  0  0  3  0  0  0  0  0  0
  -26.4360  -31.7470   25.2830 C   0  0  1  0  0  0  0  0  0  0  0  0
  -25.3090  -31.5320   26.3200 C   0  0  0  0  0  1  0  0  0  0  0  0
  -27.0180  -30.3610   24.9220 C   0  0  0  0  0  1  0  0  0  0  0  0
  -27.5740  -32.5350   25.9760 C   0  0  0  0  0  1  0  0  0  0  0  0
  -25.6700  -33.9210   24.3000 N   0  0  0  0  0  0  0  0  0  0  0  0
  -25.9780  -34.9600   23.5130 C   0  0  0  0  0  0  0  0  0  0  0  0
  -26.6120  -34.8380   22.4610 O   0  0  0  0  0  0  0  0  0  0  0  0
  -25.1160  -34.0930   25.1250 H   0  0  0  0  0  0  0  0  0  0  0  0
  -24.2220  -36.7360   23.2130 C   0  0  0  0  0  1  0  0  0  0  0  0
  -25.5090  -36.3570   23.9640 C   0  0  0  0  0  3  0  0  0  0  0  0
  -27.6720  -37.2810   24.6650 C   0  0  0  0  0  1  0  0  0  0  0  0
  -26.5270  -37.4120   23.7690 N   0  0  0  0  0  0  0  0  0  0  0  0
  -26.1210  -38.3330   23.9030 H   0  0  0  0  0  0  0  0  0  0  0  0
  1  5  1  0
  3  1  1  0
  3  6  1  0
  3  4  1  0
  4  2  1  0
  5 45  1  0
  5  2  1  0
  6 15  1  0
  6  4  1  0
  7 15  1  0
  8 13  1  0
  9 10  1  0
  9  8  1  0
 11 10  1  0
 11 20  1  0
 11 12  1  0
 13  7  1  0
 13 12  1  0
 14  7  2  0
 15 16  1  0
 17 18  2  0
 18 37  1  0
 19 18  1  0
 19 22  1  0
 20 21  1  0
 20 17  1  0
 21 19  2  0
 22 23  1  0
 23 24  2  0
 25 28  1  0
 25 24  1  0
 26 25  2  0
 27 26  1  0
 27 22  2  0
 28 29  1  0
 29 30  1  0
 30 31  2  0
 32 31  1  0
 32 36  1  0
 33 32  2  0
 34 29  2  0
 34 33  1  0
 35 34  1  0
 37 38  1  0
 38 41  1  0
 38 40  1  0
 39 37  2  0
 42 17  1  0
 42 43  1  0
 44 42  1  0
 45 46  1  0
 47 48  1  0
 47 46  2  0
 49 60  2  0
 50 48  1  0
 50 55  1  0
 51 59  1  0
 51 61  1  0
 52 58  1  0
 52 54  1  0
 53 59  1  0
 54 53  1  0
 55 54  2  0
 56 50  2  0
 57 56  1  0
 57 52  2  0
 58 51  1  0
 59 49  1  0
 61 63  2  0
 62 61  1  0
 64 62  1  0
 65 74  2  0
 65 70  1  0
 66 62  1  0
 66 70  1  0
 67 66  1  0
 68 69  1  0
 68 67  1  0
 69 65  1  0
 70 71  2  0
 71 72  1  0
 73 72  2  0
 74 73  1  0
 75 49  1  0
 75 80  1  0
 75 76  1  0
 76 79  1  1
 76 77  1  0
 78 76  1  0
 80 83  1  0
 81 85  1  0
 81 80  1  0
 82 81  2  0
 85 84  1  0
 87 88  1  0
 87 85  1  0
 87 86  1  0
M  ISO  4   7 100  15 100  47 101  48 101
M  END
>  <TORSDO>  (46) 
F 19

>  <SCORE>  (46) 
-13.711

>  <name>  (46) 
46

>  <ligand_id>  (46) 
46

>  <original_smiles>  (46) 
[H]c1c([H])c([H])c2c(c1[H])C([H])([H])C([H])([H])C([H])([H])C2([H])N([H])C(=O)C1([H])N(C(=O)C([H])(N([H])C(=O)C([H])(N([H])C([H])([H])[H])C([H])([H])[H])C(C([H])([H])[H])(C([H])([H])[H])C([H])([H])[H])C([H])([H])c2c([H])c(OC([H])([H])C([H])([H])C([H])([H])C3([H])C([H])([H])C4([H])C([H])(N([H])C(=O)N5C([H])([H])C([H])([H])C([H])([H])C([H])(n6nc(-c7c([H])c([H])c(Oc8c([H])c([H])c(F)c([H])c8F)c([H])c7[H])c(C(=O)N([H])[H])c6N([H])[H])C5([H])[H])C4([H])C3([H])[H])c([H])c([H])c2C1([H])[H]

>  <smiles>  (46) 
[H]c1c([H])c([H])c2c(c1[H])C([H])([H])C([H])([H])C([H])([H])C2([H])N([H])C(=O)C1([H])N(C(=O)C([H])(N([H])C(=O)C([H])(N([H])C([H])([H])[H])C([H])([H])[H])C(C([H])([H])[H])(C([H])([H])[H])C([H])([H])[H])C([H])([H])c2c([H])c(OC([H])([H])C([H])([H])C([H])([H])C3([H])C([H])([H])C4([H])C([H])(N([H])C(=O)N5C([H])([H])C([H])([H])C([H])([H])C([H])(n6nc(-c7c([H])c([H])c(Oc8c([H])c([H])c(F)c([H])c8F)c([H])c7[H])c(C(=O)N([H])[H])c6N([H])[H])C5([H])[H])C4([H])C3([H])[H])c([H])c([H])c2C1([H])[H]

$$$$
47:0:0
     RDKit          3D

 88 97  0  0  1  0  0  0  0  0999 V2000
  -29.0100  -22.2210   20.1400 C   0  0  0  0  0  0  0  0  0  0  0  0
  -29.9690  -22.4440   19.3920 O   0  0  0  0  0  0  0  0  0  0  0  0
  -27.4710  -20.0050   20.0160 C   0  0  0  0  0  2  0  0  0  0  0  0
  -27.7700  -17.8920   18.4610 C   0  0  0  0  0  2  0  0  0  0  0  0
  -28.8670  -20.3910   20.5380 C   0  0  0  0  0  3  0  0  0  0  0  0
  -27.7140  -19.3820   18.6520 C   0  0  0  0  0  3  0  0  0  0  0  0
  -29.0600  -18.6690   18.6570 C   0  0  0  0  0  3  0  0  0  0  0  0
  -29.7090  -18.7190   20.0230 C   0  0  0  0  0  3  0  0  0  0  0  0
  -30.4310  -15.6400   20.2150 C   0  0  0  0  0  0  0  0  0  0  0  0
  -30.4620  -13.1120   19.3610 C   0  0  0  0  0  2  0  0  0  0  0  0
  -29.5320  -12.7580   18.1620 C   0  0  0  0  0  2  0  0  0  0  0  0
  -28.1160  -12.4160   18.6420 C   0  0  0  0  0  2  0  0  0  0  0  0
  -27.6380  -13.4170   19.7150 C   0  0  0  0  0  3  0  0  0  0  0  0
  -28.6910  -13.6950   20.8210 C   0  0  0  0  0  2  0  0  0  0  0  0
  -29.8860  -14.2840   20.1730 N   0  0  0  0  0  0  0  0  0  0  0  0
  -31.6270  -15.5860   19.8770 O   0  0  0  0  0  0  0  0  0  0  0  0
  -29.7190  -16.9960   20.4550 N   0  0  0  0  0  0  0  0  0  0  0  0
  -28.8480  -16.7860   20.9190 H   0  0  0  0  0  0  0  0  0  0  0  0
  -25.2820  -13.9390   20.5130 C   0  0  0  0  0  0  0  0  0  0  0  0
  -24.2270  -13.1590   20.8790 C   0  0  0  0  0  0  0  0  0  0  0  0
  -24.6990  -11.8100   20.8300 C   0  0  0  0  0  0  0  0  0  0  0  0
  -26.3260  -13.0770   20.2440 N   0  0  0  0  0  0  0  0  0  0  0  0
  -25.9880  -11.7870   20.5020 N   0  0  0  0  0  0  0  0  0  0  0  0
  -23.9770  -10.5450   21.0240 C   0  0  0  0  0  0  0  0  0  0  0  0
  -24.4090   -9.5780   21.9570 C   0  0  0  0  0  3  0  0  0  0  0  0
  -23.6780   -8.3860   22.1460 C   0  0  0  0  0  3  0  0  0  0  0  0
  -22.5040   -8.1460   21.3950 C   0  0  0  0  0  0  0  0  0  0  0  0
  -22.0890   -9.1020   20.4490 C   0  0  0  0  0  3  0  0  0  0  0  0
  -22.8220  -10.2850   20.2580 C   0  0  0  0  0  3  0  0  0  0  0  0
  -21.7490   -7.0000   21.4880 O   0  0  0  0  0  0  0  0  0  0  0  0
  -21.6790   -6.2720   22.6490 C   0  0  0  0  0  0  0  0  0  0  0  0
  -21.2210   -6.8380   23.8580 C   0  0  0  0  0  3  0  0  0  0  0  0
  -21.0960   -6.0350   25.0090 C   0  0  0  0  0  3  0  0  0  0  0  0
  -21.4290   -4.6700   24.9540 C   0  0  0  0  0  0  0  0  0  0  0  0
  -21.8840   -4.1030   23.7500 C   0  0  0  0  0  3  0  0  0  0  0  0
  -22.0040   -4.9000   22.5990 C   0  0  0  0  0  0  0  0  0  0  0  0
  -22.4170   -4.3420   21.4340 F   0  0  0  0  0  0  0  0  0  0  0  0
  -21.3040   -3.8960   26.0570 F   0  0  0  0  0  0  0  0  0  0  0  0
  -22.8340  -13.6320   21.1710 C   0  0  0  0  0  0  0  0  0  0  0  0
  -22.1170  -12.9280   22.0340 N   0  0  0  0  0  0  0  0  0  0  0  0
  -22.3940  -14.6680   20.6670 O   0  0  0  0  0  0  0  0  0  0  0  0
  -22.4970  -12.1000   22.4730 H   0  0  0  0  0  0  0  0  0  0  0  0
  -21.1750  -13.2190   22.2650 H   0  0  0  0  0  0  0  0  0  0  0  0
  -25.4330  -15.3140   20.3690 N   0  0  0  0  0  0  0  0  0  0  0  0
  -24.6790  -15.9480   20.6070 H   0  0  0  0  0  0  0  0  0  0  0  0
  -26.3020  -15.7860   20.1610 H   0  0  0  0  0  0  0  0  0  0  0  0
  -28.0900  -23.7920   20.5750 C   0  0  0  0  0  2  0  0  0  0  0  0
  -28.2400  -25.5230   20.2530 O   0  0  0  0  0  0  0  0  0  0  0  0
  -24.6160  -31.8130   23.1210 C   0  0  0  0  0  0  0  0  0  0  0  0
  -27.2390  -26.7180   20.2400 C   0  0  0  0  0  0  0  0  0  0  0  0
  -23.4590  -30.3840   21.4890 C   0  0  0  0  0  3  0  0  0  0  0  0
  -24.9410  -28.7300   20.1230 C   0  0  0  0  0  0  0  0  0  0  0  0
  -26.0360  -30.5570   21.3880 C   0  0  0  0  0  2  0  0  0  0  0  0
  -26.1300  -29.1140   20.7570 C   0  0  0  0  0  0  0  0  0  0  0  0
  -27.2660  -28.1420   20.7690 C   0  0  0  0  0  3  0  0  0  0  0  0
  -26.0020  -26.5400   19.5680 C   0  0  0  0  0  3  0  0  0  0  0  0
  -24.9190  -27.4730   19.4980 C   0  0  0  0  0  3  0  0  0  0  0  0
  -23.7230  -29.6710   20.1340 C   0  0  0  0  0  2  0  0  0  0  0  0
  -24.7280  -30.9500   22.0520 N   0  0  0  0  0  0  0  0  0  0  0  0
  -23.5160  -32.1080   23.6190 O   0  0  0  0  0  0  0  0  0  0  0  0
  -22.7410  -29.4120   22.4640 C   0  0  0  0  0  0  0  0  0  0  0  0
  -21.4080  -29.2560   22.3490 N   0  0  0  0  0  0  0  0  0  0  0  0
  -23.3990  -28.7970   23.3080 O   0  0  0  0  0  0  0  0  0  0  0  0
  -20.9250  -29.7960   21.6470 H   0  0  0  0  0  0  0  0  0  0  0  0
  -18.0180  -28.0850   22.9170 C   0  0  0  0  0  0  0  0  0  0  0  0
  -20.5830  -28.3330   23.1400 C   0  0  0  0  0  3  0  0  0  0  0  0
  -20.6510  -26.8990   22.5660 C   0  0  0  0  0  2  0  0  0  0  0  0
  -19.5420  -26.6280   21.5440 C   0  0  0  0  0  2  0  0  0  0  0  0
  -18.1820  -26.7330   22.2420 C   0  0  0  0  0  2  0  0  0  0  0  0
  -19.1460  -28.8420   23.3280 C   0  0  0  0  0  0  0  0  0  0  0  0
  -18.9420  -30.1000   23.9330 C   0  0  0  0  0  3  0  0  0  0  0  0
  -17.6450  -30.6040   24.1290 C   0  0  0  0  0  3  0  0  0  0  0  0
  -16.5300  -29.8450   23.7320 C   0  0  0  0  0  3  0  0  0  0  0  0
  -16.7170  -28.5870   23.1330 C   0  0  0  0  0  3  0  0  0  0  0  0
  -25.8640  -32.4860   23.7680 C   0  0  0  0  0  3  0  0  0  0  0  0
  -25.5140  -33.8780   24.1140 N   0  0  0  0  0  0  0  0  0  0  0  0
  -25.8340  -34.9580   23.3870 C   0  0  0  0  0  0  0  0  0  0  0  0
  -26.5100  -34.8850   22.3580 O   0  0  0  0  0  0  0  0  0  0  0  0
  -24.9050  -34.0060   24.9090 H   0  0  0  0  0  0  0  0  0  0  0  0
  -24.0840  -36.7410   23.0640 C   0  0  0  0  0  1  0  0  0  0  0  0
  -25.3280  -36.3340   23.8710 C   0  0  0  0  0  3  0  0  0  0  0  0
  -27.4410  -37.2360   24.7370 C   0  0  0  0  0  1  0  0  0  0  0  0
  -26.3480  -37.4030   23.7830 N   0  0  0  0  0  0  0  0  0  0  0  0
  -25.9300  -38.3170   23.9330 H   0  0  0  0  0  0  0  0  0  0  0  0
  -26.3770  -31.7280   25.0560 C   0  0  1  0  0  0  0  0  0  0  0  0
  -25.2790  -31.4830   26.1170 C   0  0  0  0  0  1  0  0  0  0  0  0
  -26.9780  -30.3540   24.6880 C   0  0  0  0  0  1  0  0  0  0  0  0
  -27.5180  -32.5360   25.7180 C   0  0  0  0  0  1  0  0  0  0  0  0
  1 47  1  0
  2  1  2  0
  3  5  1  0
  5  1  1  0
  6  4  1  0
  6  7  1  0
  6  3  1  0
  7  4  1  0
  7  8  1  0
  8 17  1  0
  8  5  1  0
  9 17  1  0
 10 15  1  0
 11 12  1  0
 11 10  1  0
 13 12  1  0
 13 22  1  0
 13 14  1  0
 15  9  1  0
 15 14  1  0
 16  9  2  0
 17 18  1  0
 19 20  2  0
 20 39  1  0
 21 20  1  0
 21 24  1  0
 22 23  1  0
 22 19  1  0
 23 21  2  0
 24 25  1  0
 25 26  2  0
 27 30  1  0
 27 26  1  0
 28 27  2  0
 29 28  1  0
 29 24  2  0
 30 31  1  0
 31 32  1  0
 32 33  2  0
 34 33  1  0
 34 38  1  0
 35 34  2  0
 36 31  2  0
 36 35  1  0
 37 36  1  0
 39 40  1  0
 40 43  1  0
 40 42  1  0
 41 39  2  0
 44 19  1  0
 44 45  1  0
 46 44  1  0
 48 47  1  0
 49 60  2  0
 50 48  1  0
 50 55  1  0
 51 59  1  0
 51 61  1  0
 52 58  1  0
 52 54  1  0
 53 59  1  0
 54 55  2  0
 54 53  1  0
 56 50  2  0
 57 56  1  0
 57 52  2  0
 58 51  1  0
 59 49  1  0
 61 63  2  0
 62 61  1  0
 64 62  1  0
 65 74  2  0
 65 70  1  0
 66 62  1  0
 66 70  1  0
 67 66  1  0
 68 69  1  0
 68 67  1  0
 69 65  1  0
 70 71  2  0
 71 72  1  0
 73 72  2  0
 74 73  1  0
 75 49  1  0
 75 76  1  0
 75 85  1  0
 76 79  1  0
 77 81  1  0
 77 76  1  0
 78 77  2  0
 81 80  1  0
 83 81  1  0
 83 84  1  0
 83 82  1  0
 85 88  1  1
 85 86  1  0
 87 85  1  0
M  ISO  4   9 100  17 100  47 101  48 101
M  END
>  <TORSDO>  (47) 
F 18

>  <SCORE>  (47) 
-16.585

>  <name>  (47) 
47

>  <ligand_id>  (47) 
47

>  <original_smiles>  (47) 
[H]c1c([H])c([H])c2c(c1[H])C([H])([H])C([H])([H])C([H])([H])C2([H])N([H])C(=O)C1([H])N(C(=O)C([H])(N([H])C(=O)C([H])(N([H])C([H])([H])[H])C([H])([H])[H])C(C([H])([H])[H])(C([H])([H])[H])C([H])([H])[H])C([H])([H])c2c([H])c(OC([H])([H])C(=O)C3([H])C([H])([H])C4([H])C([H])([H])C4([H])C3([H])N([H])C(=O)N3C([H])([H])C([H])([H])C([H])([H])C([H])(n4nc(-c5c([H])c([H])c(Oc6c([H])c([H])c(F)c([H])c6F)c([H])c5[H])c(C(=O)N([H])[H])c4N([H])[H])C3([H])[H])c([H])c([H])c2C1([H])[H]

>  <smiles>  (47) 
[H]c1c([H])c([H])c2c(c1[H])C([H])([H])C([H])([H])C([H])([H])C2([H])N([H])C(=O)C1([H])N(C(=O)C([H])(N([H])C(=O)C([H])(N([H])C([H])([H])[H])C([H])([H])[H])C(C([H])([H])[H])(C([H])([H])[H])C([H])([H])[H])C([H])([H])c2c([H])c(OC([H])([H])C(=O)C3([H])C([H])([H])C4([H])C([H])([H])C4([H])C3([H])N([H])C(=O)N3C([H])([H])C([H])([H])C([H])([H])C([H])(n4nc(-c5c([H])c([H])c(Oc6c([H])c([H])c(F)c([H])c6F)c([H])c5[H])c(C(=O)N([H])[H])c4N([H])[H])C3([H])[H])c([H])c([H])c2C1([H])[H]

$$$$
48:0:0
     RDKit          3D

 88 97  0  0  1  0  0  0  0  0999 V2000
  -30.3530  -15.5530   20.3480 C   0  0  0  0  0  0  0  0  0  0  0  0
  -30.4210  -13.0100   19.5680 C   0  0  0  0  0  2  0  0  0  0  0  0
  -29.5480  -12.6490   18.3330 C   0  0  0  0  0  2  0  0  0  0  0  0
  -28.1150  -12.3090   18.7640 C   0  0  0  0  0  2  0  0  0  0  0  0
  -27.6000  -13.3080   19.8260 C   0  0  0  0  0  3  0  0  0  0  0  0
  -28.6120  -13.6060   20.9590 C   0  0  0  0  0  2  0  0  0  0  0  0
  -29.8170  -14.1950   20.3330 N   0  0  0  0  0  0  0  0  0  0  0  0
  -31.5490  -15.4950   20.0050 O   0  0  0  0  0  0  0  0  0  0  0  0
  -27.5720  -18.3220   20.4140 C   0  0  0  0  0  2  0  0  0  0  0  0
  -27.2870  -17.8250   21.8480 C   0  0  0  0  0  2  0  0  0  0  0  0
  -28.3200  -17.8850   24.2570 C   0  0  0  0  0  2  0  0  0  0  0  0
  -28.8000  -19.1290   23.5550 C   0  0  0  0  0  2  0  0  0  0  0  0
  -29.6610  -17.0560   22.1730 C   0  0  0  0  0  2  0  0  0  0  0  0
  -29.0790  -18.4750   20.1390 C   0  0  0  0  0  3  0  0  0  0  0  0
  -28.5090  -17.8770   22.7550 C   0  0  2  0  0  0  0  0  0  0  0  0
  -29.6970  -16.9180   20.7080 N   0  0  0  0  0  0  0  0  0  0  0  0
  -25.2280  -13.8260   20.5730 C   0  0  0  0  0  0  0  0  0  0  0  0
  -24.1690  -13.0420   20.9260 C   0  0  0  0  0  0  0  0  0  0  0  0
  -24.6410  -11.6940   20.8770 C   0  0  0  0  0  0  0  0  0  0  0  0
  -26.2770  -12.9620   20.3260 N   0  0  0  0  0  0  0  0  0  0  0  0
  -25.9360  -11.6690   20.5740 N   0  0  0  0  0  0  0  0  0  0  0  0
  -23.9120  -10.4280   21.0410 C   0  0  0  0  0  0  0  0  0  0  0  0
  -24.3650   -9.4200   21.9190 C   0  0  0  0  0  3  0  0  0  0  0  0
  -23.6310   -8.2240   22.0760 C   0  0  0  0  0  3  0  0  0  0  0  0
  -22.4290   -8.0280   21.3540 C   0  0  0  0  0  0  0  0  0  0  0  0
  -21.9940   -9.0260   20.4650 C   0  0  0  0  0  3  0  0  0  0  0  0
  -22.7290  -10.2130   20.3060 C   0  0  0  0  0  3  0  0  0  0  0  0
  -21.6650   -6.8880   21.4240 O   0  0  0  0  0  0  0  0  0  0  0  0
  -21.6860   -6.0740   22.5280 C   0  0  0  0  0  0  0  0  0  0  0  0
  -21.4020   -6.5640   23.8210 C   0  0  0  0  0  3  0  0  0  0  0  0
  -21.3660   -5.6790   24.9170 C   0  0  0  0  0  3  0  0  0  0  0  0
  -21.6040   -4.3060   24.7220 C   0  0  0  0  0  0  0  0  0  0  0  0
  -21.8820   -3.8150   23.4340 C   0  0  0  0  0  3  0  0  0  0  0  0
  -21.9190   -4.6970   22.3400 C   0  0  0  0  0  0  0  0  0  0  0  0
  -22.1660   -4.2150   21.0980 F   0  0  0  0  0  0  0  0  0  0  0  0
  -21.5630   -3.4540   25.7740 F   0  0  0  0  0  0  0  0  0  0  0  0
  -22.7700  -13.5150   21.1910 C   0  0  0  0  0  0  0  0  0  0  0  0
  -22.0380  -12.8130   22.0470 N   0  0  0  0  0  0  0  0  0  0  0  0
  -22.3380  -14.5460   20.6760 O   0  0  0  0  0  0  0  0  0  0  0  0
  -22.4020  -11.9800   22.4850 H   0  0  0  0  0  0  0  0  0  0  0  0
  -21.1000  -13.1130   22.2690 H   0  0  0  0  0  0  0  0  0  0  0  0
  -25.3830  -15.1980   20.4080 N   0  0  0  0  0  0  0  0  0  0  0  0
  -24.6150  -15.8480   20.5360 H   0  0  0  0  0  0  0  0  0  0  0  0
  -26.2400  -15.6460   20.1130 H   0  0  0  0  0  0  0  0  0  0  0  0
  -29.3650  -20.3680   20.3330 C   0  0  0  0  0  2  0  0  0  0  0  0
  -28.4100  -22.0380   20.5040 C   0  0  0  0  0  2  0  0  0  0  0  0
  -28.3370  -23.8670   19.8990 C   0  0  0  0  0  2  0  0  0  0  0  0
  -28.2000  -25.5470   20.3670 O   0  0  0  0  0  0  0  0  0  0  0  0
  -24.6800  -31.8020   23.1530 C   0  0  0  0  0  0  0  0  0  0  0  0
  -27.2290  -26.7360   20.2090 C   0  0  0  0  0  0  0  0  0  0  0  0
  -23.5050  -30.4040   21.5040 C   0  0  0  0  0  3  0  0  0  0  0  0
  -24.9640  -28.7510   20.1090 C   0  0  0  0  0  0  0  0  0  0  0  0
  -26.0820  -30.5440   21.4140 C   0  0  0  0  0  2  0  0  0  0  0  0
  -26.1470  -29.1140   20.7620 C   0  0  0  0  0  0  0  0  0  0  0  0
  -27.2600  -28.1290   20.7870 C   0  0  0  0  0  3  0  0  0  0  0  0
  -26.0210  -26.5760   19.4850 C   0  0  0  0  0  3  0  0  0  0  0  0
  -24.9380  -27.5090   19.4470 C   0  0  0  0  0  3  0  0  0  0  0  0
  -23.7570  -29.7010   20.1370 C   0  0  0  0  0  2  0  0  0  0  0  0
  -24.7780  -30.9500   22.0760 N   0  0  0  0  0  0  0  0  0  0  0  0
  -23.5820  -32.1090   23.6500 O   0  0  0  0  0  0  0  0  0  0  0  0
  -22.7750  -29.4320   22.4710 C   0  0  0  0  0  0  0  0  0  0  0  0
  -21.4400  -29.3030   22.3470 N   0  0  0  0  0  0  0  0  0  0  0  0
  -23.4210  -28.7920   23.3040 O   0  0  0  0  0  0  0  0  0  0  0  0
  -20.9700  -29.8690   21.6540 H   0  0  0  0  0  0  0  0  0  0  0  0
  -18.0330  -28.1420   22.8460 C   0  0  0  0  0  0  0  0  0  0  0  0
  -20.5970  -28.3770   23.1150 C   0  0  0  0  0  3  0  0  0  0  0  0
  -20.6800  -26.9430   22.5410 C   0  0  0  0  0  2  0  0  0  0  0  0
  -19.5780  -26.6370   21.5210 C   0  0  0  0  0  2  0  0  0  0  0  0
  -18.1960  -26.7940   22.1620 C   0  0  0  0  0  2  0  0  0  0  0  0
  -19.1600  -28.8920   23.2790 C   0  0  0  0  0  0  0  0  0  0  0  0
  -18.9510  -30.1500   23.8830 C   0  0  0  0  0  3  0  0  0  0  0  0
  -17.6500  -30.6600   24.0550 C   0  0  0  0  0  3  0  0  0  0  0  0
  -16.5390  -29.9090   23.6340 C   0  0  0  0  0  3  0  0  0  0  0  0
  -16.7310  -28.6510   23.0370 C   0  0  0  0  0  3  0  0  0  0  0  0
  -25.9390  -32.4480   23.8060 C   0  0  0  0  0  3  0  0  0  0  0  0
  -25.5990  -33.8300   24.1960 N   0  0  0  0  0  0  0  0  0  0  0  0
  -25.9120  -34.9290   23.4960 C   0  0  0  0  0  0  0  0  0  0  0  0
  -26.5760  -34.8860   22.4570 O   0  0  0  0  0  0  0  0  0  0  0  0
  -25.0050  -33.9340   25.0050 H   0  0  0  0  0  0  0  0  0  0  0  0
  -24.1500  -36.7160   23.2650 C   0  0  0  0  0  1  0  0  0  0  0  0
  -25.4150  -36.2900   24.0280 C   0  0  0  0  0  3  0  0  0  0  0  0
  -27.5560  -37.1740   24.8470 C   0  0  0  0  0  1  0  0  0  0  0  0
  -26.4280  -37.3660   23.9400 N   0  0  0  0  0  0  0  0  0  0  0  0
  -26.0110  -38.2710   24.1400 H   0  0  0  0  0  0  0  0  0  0  0  0
  -26.4590  -31.6500   25.0680 C   0  0  1  0  0  0  0  0  0  0  0  0
  -25.3650  -31.3820   26.1300 C   0  0  0  0  0  1  0  0  0  0  0  0
  -27.0520  -30.2840   24.6560 C   0  0  0  0  0  1  0  0  0  0  0  0
  -27.6040  -32.4360   25.7490 C   0  0  0  0  0  1  0  0  0  0  0  0
  1 16  1  0
  2  7  1  0
  3  4  1  0
  3  2  1  0
  5  4  1  0
  5 20  1  0
  5  6  1  0
  7  1  1  0
  7  6  1  0
  8  1  2  0
  9 10  1  0
 15 10  1  6
 12 11  1  0
 13 15  1  0
 14 45  1  0
 14  9  1  0
 14 16  1  0
 15 12  1  0
 15 11  1  0
 16 13  1  0
 17 18  2  0
 18 37  1  0
 19 18  1  0
 19 22  1  0
 20 17  1  0
 20 21  1  0
 21 19  2  0
 22 23  1  0
 23 24  2  0
 25 28  1  0
 25 24  1  0
 26 25  2  0
 27 26  1  0
 27 22  2  0
 28 29  1  0
 29 30  1  0
 30 31  2  0
 32 31  1  0
 32 36  1  0
 33 32  2  0
 34 29  2  0
 34 33  1  0
 35 34  1  0
 37 38  1  0
 38 41  1  0
 38 40  1  0
 39 37  2  0
 42 43  1  0
 42 17  1  0
 44 42  1  0
 45 46  1  0
 47 48  1  0
 47 46  1  0
 49 60  2  0
 50 48  1  0
 50 55  1  0
 51 59  1  0
 51 61  1  0
 52 58  1  0
 52 54  1  0
 53 59  1  0
 54 55  2  0
 54 53  1  0
 56 50  2  0
 57 56  1  0
 57 52  2  0
 58 51  1  0
 59 49  1  0
 61 63  2  0
 62 61  1  0
 64 62  1  0
 65 74  2  0
 65 70  1  0
 66 62  1  0
 66 70  1  0
 67 66  1  0
 68 69  1  0
 68 67  1  0
 69 65  1  0
 70 71  2  0
 71 72  1  0
 73 72  2  0
 74 73  1  0
 75 49  1  0
 75 76  1  0
 75 85  1  0
 76 79  1  0
 77 81  1  0
 77 76  1  0
 78 77  2  0
 81 80  1  0
 83 81  1  0
 83 84  1  0
 83 82  1  0
 85 88  1  1
 85 86  1  0
 87 85  1  0
M  ISO  4   1 100  16 100  47 101  48 101
M  END
>  <TORSDO>  (48) 
F 18

>  <SCORE>  (48) 
11.571

>  <name>  (48) 
48

>  <ligand_id>  (48) 
48

>  <original_smiles>  (48) 
[H]c1c([H])c([H])c2c(c1[H])C([H])([H])C([H])([H])C([H])([H])C2([H])N([H])C(=O)C1([H])N(C(=O)C([H])(N([H])C(=O)C([H])(N([H])C([H])([H])[H])C([H])([H])[H])C(C([H])([H])[H])(C([H])([H])[H])C([H])([H])[H])C([H])([H])c2c([H])c(OC([H])([H])C([H])([H])C([H])([H])C3([H])N(C(=O)N4C([H])([H])C([H])([H])C([H])([H])C([H])(n5nc(-c6c([H])c([H])c(Oc7c([H])c([H])c(F)c([H])c7F)c([H])c6[H])c(C(=O)N([H])[H])c5N([H])[H])C4([H])[H])C([H])([H])C4(C([H])([H])C3([H])[H])C([H])([H])C4([H])[H])c([H])c([H])c2C1([H])[H]

>  <smiles>  (48) 
[H]c1c([H])c([H])c2c(c1[H])C([H])([H])C([H])([H])C([H])([H])C2([H])N([H])C(=O)C1([H])N(C(=O)C([H])(N([H])C(=O)C([H])(N([H])C([H])([H])[H])C([H])([H])[H])C(C([H])([H])[H])(C([H])([H])[H])C([H])([H])[H])C([H])([H])c2c([H])c(OC([H])([H])C([H])([H])C([H])([H])C3([H])N(C(=O)N4C([H])([H])C([H])([H])C([H])([H])C([H])(n5nc(-c6c([H])c([H])c(Oc7c([H])c([H])c(F)c([H])c7F)c([H])c6[H])c(C(=O)N([H])[H])c5N([H])[H])C4([H])[H])C([H])([H])C4(C([H])([H])C3([H])[H])C([H])([H])C4([H])[H])c([H])c([H])c2C1([H])[H]

$$$$
49:0:0
     RDKit          3D

 93102  0  0  1  0  0  0  0  0999 V2000
  -27.4670  -20.0250   19.3380 C   0  0  0  0  0  3  0  0  0  0  0  0
  -28.1680  -18.8310   19.7040 C   0  0  0  0  0  3  0  0  0  0  0  0
  -29.8820  -20.1920   20.7340 C   0  0  0  0  0  3  0  0  0  0  0  0
  -29.1730  -21.3940   20.3660 C   0  0  0  0  0  0  0  0  0  0  0  0
  -27.9740  -21.3050   19.6820 C   0  0  0  0  0  0  0  0  0  0  0  0
  -29.3950  -18.8570   20.4250 C   0  0  0  0  0  0  0  0  0  0  0  0
  -29.4530  -22.8680   20.5980 C   0  0  0  0  0  0  0  0  0  0  0  0
  -27.3560  -22.6950   19.4230 C   0  0  0  0  0  2  0  0  0  0  0  0
  -28.4210  -23.7860   19.8340 C   0  0  0  0  0  3  0  0  0  0  0  0
  -30.3800  -23.3240   21.2720 O   0  0  0  0  0  0  0  0  0  0  0  0
  -27.8740  -25.1490   20.5420 C   0  0  0  0  0  2  0  0  0  0  0  0
  -28.0980  -26.5510   20.0310 O   0  0  0  0  0  0  0  0  0  0  0  0
  -24.5130  -32.0000   23.2490 C   0  0  0  0  0  0  0  0  0  0  0  0
  -27.0100  -27.4510   20.0530 C   0  0  0  0  0  0  0  0  0  0  0  0
  -23.2600  -30.6370   21.6160 C   0  0  0  0  0  3  0  0  0  0  0  0
  -24.6640  -29.1010   20.1240 C   0  0  0  0  0  0  0  0  0  0  0  0
  -25.7980  -30.9400   21.3710 C   0  0  0  0  0  2  0  0  0  0  0  0
  -25.8550  -29.5700   20.6960 C   0  0  0  0  0  0  0  0  0  0  0  0
  -27.0340  -28.7580   20.6450 C   0  0  0  0  0  3  0  0  0  0  0  0
  -25.8000  -27.0500   19.4500 C   0  0  0  0  0  3  0  0  0  0  0  0
  -24.6410  -27.8490   19.4880 C   0  0  0  0  0  3  0  0  0  0  0  0
  -23.4350  -29.9860   20.2190 C   0  0  0  0  0  2  0  0  0  0  0  0
  -24.5440  -31.2100   22.1340 N   0  0  0  0  0  0  0  0  0  0  0  0
  -23.4450  -32.2720   23.8170 O   0  0  0  0  0  0  0  0  0  0  0  0
  -22.6160  -29.6060   22.5750 C   0  0  0  0  0  0  0  0  0  0  0  0
  -21.2920  -29.4140   22.4600 N   0  0  0  0  0  0  0  0  0  0  0  0
  -23.3090  -28.9850   23.3860 O   0  0  0  0  0  0  0  0  0  0  0  0
  -20.7910  -29.9710   21.7810 H   0  0  0  0  0  0  0  0  0  0  0  0
  -17.9360  -28.1510   22.9600 C   0  0  0  0  0  0  0  0  0  0  0  0
  -20.4900  -28.4610   23.2290 C   0  0  0  0  0  3  0  0  0  0  0  0
  -20.6190  -27.0310   22.6540 C   0  0  0  0  0  2  0  0  0  0  0  0
  -19.5220  -26.6880   21.6400 C   0  0  0  0  0  2  0  0  0  0  0  0
  -18.1380  -26.8050   22.2850 C   0  0  0  0  0  2  0  0  0  0  0  0
  -19.0410  -28.9360   23.3900 C   0  0  0  0  0  0  0  0  0  0  0  0
  -18.7970  -30.1940   23.9820 C   0  0  0  0  0  3  0  0  0  0  0  0
  -17.4830  -30.6680   24.1500 C   0  0  0  0  0  3  0  0  0  0  0  0
  -16.3930  -29.8820   23.7370 C   0  0  0  0  0  3  0  0  0  0  0  0
  -16.6210  -28.6260   23.1470 C   0  0  0  0  0  3  0  0  0  0  0  0
  -25.8130  -32.6160   23.8490 C   0  0  0  0  0  3  0  0  0  0  0  0
  -26.3340  -31.8450   25.1240 C   0  0  1  0  0  0  0  0  0  0  0  0
  -25.2510  -31.6260   26.2070 C   0  0  0  0  0  1  0  0  0  0  0  0
  -26.8960  -30.4580   24.7340 C   0  0  0  0  0  1  0  0  0  0  0  0
  -27.5010  -32.6290   25.7690 C   0  0  0  0  0  1  0  0  0  0  0  0
  -25.5290  -34.0210   24.1770 N   0  0  0  0  0  0  0  0  0  0  0  0
  -25.8700  -35.0670   23.4110 C   0  0  0  0  0  0  0  0  0  0  0  0
  -26.5250  -34.9490   22.3720 O   0  0  0  0  0  0  0  0  0  0  0  0
  -24.9480  -34.1870   24.9850 H   0  0  0  0  0  0  0  0  0  0  0  0
  -24.1860  -36.9010   23.0520 C   0  0  0  0  0  1  0  0  0  0  0  0
  -25.4120  -36.4650   23.8700 C   0  0  0  0  0  3  0  0  0  0  0  0
  -27.5580  -37.3040   24.7220 C   0  0  0  0  0  1  0  0  0  0  0  0
  -26.4700  -37.4950   23.7650 N   0  0  0  0  0  0  0  0  0  0  0  0
  -26.0840  -38.4240   23.9050 H   0  0  0  0  0  0  0  0  0  0  0  0
  -30.1070  -17.5090   20.9530 C   0  0  0  0  0  0  0  0  0  0  0  0
  -30.4860  -14.9650   20.0920 C   0  0  0  0  0  0  0  0  0  0  0  0
  -30.2670  -12.7040   19.0340 C   0  0  0  0  0  2  0  0  0  0  0  0
  -29.2710  -12.7690   17.8580 C   0  0  0  0  0  2  0  0  0  0  0  0
  -27.8290  -12.5520   18.3550 C   0  0  0  0  0  2  0  0  0  0  0  0
  -27.4950  -13.4090   19.6050 C   0  0  0  0  0  3  0  0  0  0  0  0
  -28.6090  -13.3400   20.6720 C   0  0  0  0  0  2  0  0  0  0  0  0
  -29.8620  -13.7380   20.0170 N   0  0  0  0  0  0  0  0  0  0  0  0
  -31.6400  -15.0670   19.6690 O   0  0  0  0  0  0  0  0  0  0  0  0
  -29.7470  -16.0790   20.4900 N   0  0  0  0  0  4  0  0  0  0  0  0
  -28.7850  -15.8460   20.6770 H   0  0  0  0  0  0  0  0  0  0  0  0
  -25.1370  -13.9260   20.4710 C   0  0  0  0  0  0  0  0  0  0  0  0
  -24.1100  -13.1190   20.8750 C   0  0  0  0  0  0  0  0  0  0  0  0
  -24.5990  -11.7800   20.7860 C   0  0  0  0  0  0  0  0  0  0  0  0
  -26.1850  -13.0770   20.1590 N   0  0  0  0  0  0  0  0  0  0  0  0
  -25.8730  -11.7790   20.4100 N   0  0  0  0  0  0  0  0  0  0  0  0
  -23.9090  -10.4970   20.9780 C   0  0  0  0  0  0  0  0  0  0  0  0
  -24.3740   -9.5400   21.9060 C   0  0  0  0  0  3  0  0  0  0  0  0
  -23.6810   -8.3230   22.0880 C   0  0  0  0  0  3  0  0  0  0  0  0
  -22.5090   -8.0550   21.3420 C   0  0  0  0  0  0  0  0  0  0  0  0
  -22.0620   -9.0010   20.4030 C   0  0  0  0  0  3  0  0  0  0  0  0
  -22.7560  -10.2100   20.2190 C   0  0  0  0  0  3  0  0  0  0  0  0
  -21.7850   -6.8910   21.4340 O   0  0  0  0  0  0  0  0  0  0  0  0
  -21.7250   -6.1710   22.6010 C   0  0  0  0  0  0  0  0  0  0  0  0
  -21.2040   -6.7240   23.7910 C   0  0  0  0  0  3  0  0  0  0  0  0
  -21.0960   -5.9270   24.9480 C   0  0  0  0  0  3  0  0  0  0  0  0
  -21.4980   -4.5780   24.9160 C   0  0  0  0  0  0  0  0  0  0  0  0
  -22.0130   -4.0260   23.7290 C   0  0  0  0  0  3  0  0  0  0  0  0
  -22.1230   -4.8200   22.5750 C   0  0  0  0  0  0  0  0  0  0  0  0
  -22.6000   -4.2760   21.4290 F   0  0  0  0  0  0  0  0  0  0  0  0
  -21.3870   -3.8100   26.0250 F   0  0  0  0  0  0  0  0  0  0  0  0
  -22.7180  -13.5590   21.2260 C   0  0  0  0  0  0  0  0  0  0  0  0
  -22.0460  -12.8260   22.1050 N   0  0  0  0  0  0  0  0  0  0  0  0
  -22.2360  -14.5900   20.7560 O   0  0  0  0  0  0  0  0  0  0  0  0
  -22.4480  -11.9920   22.5090 H   0  0  0  0  0  0  0  0  0  0  0  0
  -21.1150  -13.1030   22.3830 H   0  0  0  0  0  0  0  0  0  0  0  0
  -25.2620  -15.3040   20.3210 N   0  0  0  0  0  0  0  0  0  0  0  0
  -24.4830  -15.9340   20.4890 H   0  0  0  0  0  0  0  0  0  0  0  0
  -26.0700  -15.7730   19.9340 H   0  0  0  0  0  0  0  0  0  0  0  0
  -31.8740  -18.4640   22.6020 C   0  0  0  0  0  1  0  0  0  0  0  0
  -31.6160  -17.7300   21.2740 C   0  0  0  0  0  2  0  0  0  0  0  0
  1  5  2  0
  1  2  1  0
  2  6  2  0
  4  7  1  0
  4  3  2  0
  5  4  1  0
  6  3  1  0
  6 53  1  0
  7 10  2  0
  8  5  1  0
  8  9  1  0
  9 11  1  0
  9  7  1  0
 12 14  1  0
 12 11  1  0
 13 24  2  0
 14 19  1  0
 15 23  1  0
 15 25  1  0
 16 22  1  0
 16 18  1  0
 17 23  1  0
 18 17  1  0
 19 18  2  0
 20 21  1  0
 20 14  2  0
 21 16  2  0
 22 15  1  0
 23 13  1  0
 25 27  2  0
 26 25  1  0
 28 26  1  0
 29 38  2  0
 29 34  1  0
 30 26  1  0
 30 34  1  0
 31 30  1  0
 32 33  1  0
 32 31  1  0
 33 29  1  0
 34 35  2  0
 35 36  1  0
 37 36  2  0
 38 37  1  0
 39 13  1  0
 39 44  1  0
 39 40  1  0
 40 43  1  1
 40 41  1  0
 42 40  1  0
 44 47  1  0
 45 49  1  0
 45 44  1  0
 46 45  2  0
 49 48  1  0
 51 49  1  0
 51 52  1  0
 51 50  1  0
 53 93  1  0
 54 62  1  0
 55 60  1  0
 56 57  1  0
 56 55  1  0
 58 57  1  0
 58 67  1  0
 58 59  1  0
 60 54  1  0
 60 59  1  0
 61 54  2  0
 62 63  1  0
 62 53  2  0
 64 65  2  0
 65 84  1  0
 66 65  1  0
 66 69  1  0
 67 68  1  0
 67 64  1  0
 68 66  2  0
 69 70  1  0
 70 71  2  0
 72 75  1  0
 72 71  1  0
 73 72  2  0
 74 73  1  0
 74 69  2  0
 75 76  1  0
 76 77  1  0
 77 78  2  0
 79 78  1  0
 79 83  1  0
 80 79  2  0
 81 76  2  0
 81 80  1  0
 82 81  1  0
 84 85  1  0
 85 88  1  0
 85 87  1  0
 86 84  2  0
 89 64  1  0
 89 90  1  0
 91 89  1  0
 93 92  1  0
M  ISO  4  11 101  12 101  54 100  62 100
M  END
>  <TORSDO>  (49) 
F 19

>  <SCORE>  (49) 
-13.984

>  <name>  (49) 
49

>  <ligand_id>  (49) 
49

>  <original_smiles>  (49) 
[H]c1c([H])c([H])c2c(c1[H])C([H])([H])C([H])([H])C([H])([H])C2([H])N([H])C(=O)C1([H])N(C(=O)C([H])(N([H])C(=O)C([H])(N([H])C([H])([H])[H])C([H])([H])[H])C(C([H])([H])[H])(C([H])([H])[H])C([H])([H])[H])C([H])([H])c2c([H])c(OC([H])([H])C3([H])C(=O)c4c([H])c(C([H])(N([H])C(=O)N5C([H])([H])C([H])([H])C([H])([H])C([H])(n6nc(-c7c([H])c([H])c(Oc8c([H])c([H])c(F)c([H])c8F)c([H])c7[H])c(C(=O)N([H])[H])c6N([H])[H])C5([H])[H])C([H])([H])C([H])([H])[H])c([H])c([H])c4C3([H])[H])c([H])c([H])c2C1([H])[H]

>  <smiles>  (49) 
[H]c1c([H])c([H])c2c(c1[H])C([H])([H])C([H])([H])C([H])([H])C2([H])N([H])C(=O)C1([H])N(C(=O)C([H])(N([H])C(=O)C([H])(N([H])C([H])([H])[H])C([H])([H])[H])C(C([H])([H])[H])(C([H])([H])[H])C([H])([H])[H])C([H])([H])c2c([H])c(OC([H])([H])C3([H])C(=O)c4c([H])c(C([H])(N([H])C(=O)N5C([H])([H])C([H])([H])C([H])([H])C([H])(n6nc(-c7c([H])c([H])c(Oc8c([H])c([H])c(F)c([H])c8F)c([H])c7[H])c(C(=O)N([H])[H])c6N([H])[H])C5([H])[H])C([H])([H])C([H])([H])[H])c([H])c([H])c4C3([H])[H])c([H])c([H])c2C1([H])[H]

$$$$
50:0:0
     RDKit          3D

 90 99  0  0  1  0  0  0  0  0999 V2000
  -27.8330  -21.4550   19.6510 C   0  0  0  0  0  2  0  0  0  0  0  0
  -30.2440  -22.0620   19.3960 C   0  0  0  0  0  2  0  0  0  0  0  0
  -27.4770  -22.9790   19.5970 C   0  0  0  0  0  2  0  0  0  0  0  0
  -29.8930  -23.5870   19.4030 C   0  0  0  0  0  2  0  0  0  0  0  0
  -29.0170  -22.5850   21.3270 C   0  0  0  0  0  2  0  0  0  0  0  0
  -29.2140  -21.3890   20.3410 C   0  0  1  0  0  0  0  0  0  0  0  0
  -28.6460  -23.7090   20.3060 C   0  0  2  0  0  0  0  0  0  0  0  0
  -29.6790  -19.9690   20.9740 C   0  0  0  0  0  2  0  0  0  0  0  0
  -29.4600  -18.5200   20.3000 C   0  0  0  0  0  3  0  0  0  0  0  0
  -30.2800  -17.2730   20.9220 C   0  0  0  0  0  3  0  0  0  0  0  0
  -30.6040  -14.7200   20.3760 C   0  0  0  0  0  0  0  0  0  0  0  0
  -30.3890  -12.4670   19.3220 C   0  0  0  0  0  2  0  0  0  0  0  0
  -29.4380  -12.5540   18.1080 C   0  0  0  0  0  2  0  0  0  0  0  0
  -27.9720  -12.3770   18.5500 C   0  0  0  0  0  2  0  0  0  0  0  0
  -27.6080  -13.2610   19.7730 C   0  0  0  0  0  3  0  0  0  0  0  0
  -28.6740  -13.1530   20.8860 C   0  0  0  0  0  2  0  0  0  0  0  0
  -29.9680  -13.5050   20.2880 N   0  0  0  0  0  0  0  0  0  0  0  0
  -31.7840  -14.8330   20.0320 O   0  0  0  0  0  0  0  0  0  0  0  0
  -29.8460  -15.8330   20.6780 N   0  0  0  0  0  0  0  0  0  0  0  0
  -28.8800  -15.6290   20.8940 H   0  0  0  0  0  0  0  0  0  0  0  0
  -25.2200  -13.8530   20.5040 C   0  0  0  0  0  0  0  0  0  0  0  0
  -24.1580  -13.0770   20.8800 C   0  0  0  0  0  0  0  0  0  0  0  0
  -24.6250  -11.7270   20.8530 C   0  0  0  0  0  0  0  0  0  0  0  0
  -26.2660  -12.9750   20.2690 N   0  0  0  0  0  0  0  0  0  0  0  0
  -25.9150  -11.6930   20.5420 N   0  0  0  0  0  0  0  0  0  0  0  0
  -23.9040  -10.4630   21.0480 C   0  0  0  0  0  0  0  0  0  0  0  0
  -24.3470   -9.4940   21.9750 C   0  0  0  0  0  3  0  0  0  0  0  0
  -23.6260   -8.2940   22.1580 C   0  0  0  0  0  3  0  0  0  0  0  0
  -22.4470   -8.0560   21.4130 C   0  0  0  0  0  0  0  0  0  0  0  0
  -22.0220   -9.0130   20.4750 C   0  0  0  0  0  3  0  0  0  0  0  0
  -22.7430  -10.2040   20.2910 C   0  0  0  0  0  3  0  0  0  0  0  0
  -21.6950   -6.9080   21.5070 O   0  0  0  0  0  0  0  0  0  0  0  0
  -21.6670   -6.1580   22.6550 C   0  0  0  0  0  0  0  0  0  0  0  0
  -21.2580   -6.7040   23.8920 C   0  0  0  0  0  3  0  0  0  0  0  0
  -21.1780   -5.8800   25.0330 C   0  0  0  0  0  3  0  0  0  0  0  0
  -21.4940   -4.5120   24.9370 C   0  0  0  0  0  0  0  0  0  0  0  0
  -21.8940   -3.9660   23.7050 C   0  0  0  0  0  3  0  0  0  0  0  0
  -21.9770   -4.7860   22.5670 C   0  0  0  0  0  0  0  0  0  0  0  0
  -22.3420   -4.2510   21.3770 F   0  0  0  0  0  0  0  0  0  0  0  0
  -21.4080   -3.7180   26.0300 F   0  0  0  0  0  0  0  0  0  0  0  0
  -22.7590  -13.5500   21.1540 C   0  0  0  0  0  0  0  0  0  0  0  0
  -22.0350  -12.8520   22.0220 N   0  0  0  0  0  0  0  0  0  0  0  0
  -22.3160  -14.5720   20.6320 O   0  0  0  0  0  0  0  0  0  0  0  0
  -22.4080  -12.0240   22.4640 H   0  0  0  0  0  0  0  0  0  0  0  0
  -21.0970  -13.1480   22.2480 H   0  0  0  0  0  0  0  0  0  0  0  0
  -25.3810  -15.2230   20.3180 N   0  0  0  0  0  0  0  0  0  0  0  0
  -24.6100  -15.8750   20.4160 H   0  0  0  0  0  0  0  0  0  0  0  0
  -26.2210  -15.6570   19.9590 H   0  0  0  0  0  0  0  0  0  0  0  0
  -28.3080  -25.1770   20.9190 C   0  0  0  0  0  2  0  0  0  0  0  0
  -28.3520  -26.4650   20.1750 O   0  0  0  0  0  0  0  0  0  0  0  0
  -24.6070  -31.8810   23.2420 C   0  0  0  0  0  0  0  0  0  0  0  0
  -27.2310  -27.3100   20.2080 C   0  0  0  0  0  0  0  0  0  0  0  0
  -23.4040  -30.4750   21.6040 C   0  0  0  0  0  3  0  0  0  0  0  0
  -24.8590  -28.9140   20.1910 C   0  0  0  0  0  0  0  0  0  0  0  0
  -25.9430  -30.7980   21.4170 C   0  0  0  0  0  2  0  0  0  0  0  0
  -26.0280  -29.4140   20.7810 C   0  0  0  0  0  0  0  0  0  0  0  0
  -27.2200  -28.6250   20.7740 C   0  0  0  0  0  3  0  0  0  0  0  0
  -26.0400  -26.8560   19.6090 C   0  0  0  0  0  3  0  0  0  0  0  0
  -24.8670  -27.6390   19.5970 C   0  0  0  0  0  3  0  0  0  0  0  0
  -23.6200  -29.7900   20.2290 C   0  0  0  0  0  2  0  0  0  0  0  0
  -24.6700  -31.0700   22.1440 N   0  0  0  0  0  0  0  0  0  0  0  0
  -23.5230  -32.1560   23.7750 O   0  0  0  0  0  0  0  0  0  0  0  0
  -22.7430  -29.4630   22.5690 C   0  0  0  0  0  0  0  0  0  0  0  0
  -21.4170  -29.2840   22.4420 N   0  0  0  0  0  0  0  0  0  0  0  0
  -23.4210  -28.8420   23.3920 O   0  0  0  0  0  0  0  0  0  0  0  0
  -20.9300  -29.8360   21.7500 H   0  0  0  0  0  0  0  0  0  0  0  0
  -18.0410  -28.0800   22.9400 C   0  0  0  0  0  0  0  0  0  0  0  0
  -20.5990  -28.3460   23.2130 C   0  0  0  0  0  3  0  0  0  0  0  0
  -20.7040  -26.9130   22.6420 C   0  0  0  0  0  2  0  0  0  0  0  0
  -19.6040  -26.5850   21.6270 C   0  0  0  0  0  2  0  0  0  0  0  0
  -18.2210  -26.7290   22.2670 C   0  0  0  0  0  2  0  0  0  0  0  0
  -19.1580  -28.8450   23.3690 C   0  0  0  0  0  0  0  0  0  0  0  0
  -18.9340  -30.1100   23.9580 C   0  0  0  0  0  3  0  0  0  0  0  0
  -17.6290  -30.6080   24.1220 C   0  0  0  0  0  3  0  0  0  0  0  0
  -16.5260  -29.8380   23.7080 C   0  0  0  0  0  3  0  0  0  0  0  0
  -16.7340  -28.5760   23.1240 C   0  0  0  0  0  3  0  0  0  0  0  0
  -25.8860  -32.5180   23.8640 C   0  0  0  0  0  3  0  0  0  0  0  0
  -26.4010  -31.7540   25.1460 C   0  0  1  0  0  0  0  0  0  0  0  0
  -25.3080  -31.5190   26.2150 C   0  0  0  0  0  1  0  0  0  0  0  0
  -26.9880  -30.3770   24.7600 C   0  0  0  0  0  1  0  0  0  0  0  0
  -27.5520  -32.5530   25.8050 C   0  0  0  0  0  1  0  0  0  0  0  0
  -25.5770  -33.9170   24.1890 N   0  0  0  0  0  0  0  0  0  0  0  0
  -25.9080  -34.9680   23.4280 C   0  0  0  0  0  0  0  0  0  0  0  0
  -26.5790  -34.8640   22.3980 O   0  0  0  0  0  0  0  0  0  0  0  0
  -24.9900  -34.0720   24.9960 H   0  0  0  0  0  0  0  0  0  0  0  0
  -24.1820  -36.7600   23.0670 C   0  0  0  0  0  1  0  0  0  0  0  0
  -25.4190  -36.3570   23.8830 C   0  0  0  0  0  3  0  0  0  0  0  0
  -27.5520  -37.2420   24.7210 C   0  0  0  0  0  1  0  0  0  0  0  0
  -26.4530  -37.4110   23.7740 N   0  0  0  0  0  0  0  0  0  0  0  0
  -26.0460  -38.3300   23.9210 H   0  0  0  0  0  0  0  0  0  0  0  0
  1  6  1  0
  2  4  1  0
  2  6  1  0
  3  1  1  0
  3  7  1  0
  4  7  1  0
  6  8  1  1
  6  5  1  0
  7 49  1  1
  7  5  1  0
  9 10  2  0
  9  8  1  0
 11 19  1  0
 12 17  1  0
 13 14  1  0
 13 12  1  0
 15 14  1  0
 15 24  1  0
 15 16  1  0
 17 11  1  0
 17 16  1  0
 18 11  2  0
 19 20  1  0
 19 10  1  0
 21 22  2  0
 22 41  1  0
 23 22  1  0
 23 26  1  0
 24 21  1  0
 24 25  1  0
 25 23  2  0
 26 27  1  0
 27 28  2  0
 29 32  1  0
 29 28  1  0
 30 29  2  0
 31 30  1  0
 31 26  2  0
 32 33  1  0
 33 34  1  0
 34 35  2  0
 36 35  1  0
 36 40  1  0
 37 36  2  0
 38 33  2  0
 38 37  1  0
 39 38  1  0
 41 42  1  0
 42 45  1  0
 42 44  1  0
 43 41  2  0
 46 47  1  0
 46 21  1  0
 48 46  1  0
 50 52  1  0
 50 49  1  0
 51 62  2  0
 52 57  1  0
 53 61  1  0
 53 63  1  0
 54 60  1  0
 54 56  1  0
 55 61  1  0
 56 55  1  0
 57 56  2  0
 58 52  2  0
 59 58  1  0
 59 54  2  0
 60 53  1  0
 61 51  1  0
 63 65  2  0
 64 63  1  0
 66 64  1  0
 67 76  2  0
 67 72  1  0
 68 64  1  0
 68 72  1  0
 69 68  1  0
 70 71  1  0
 70 69  1  0
 71 67  1  0
 72 73  2  0
 73 74  1  0
 75 74  2  0
 76 75  1  0
 77 51  1  0
 77 82  1  0
 77 78  1  0
 78 81  1  1
 78 79  1  0
 80 78  1  0
 82 85  1  0
 83 87  1  0
 83 82  1  0
 84 83  2  0
 87 86  1  0
 89 87  1  0
 89 90  1  0
 89 88  1  0
M  ISO  4  11 100  19 100  49 101  50 101
M  END
>  <TORSDO>  (50) 
F 20

>  <SCORE>  (50) 
-13.825

>  <name>  (50) 
50

>  <ligand_id>  (50) 
50

>  <original_smiles>  (50) 
[H]c1c([H])c([H])c2c(c1[H])C([H])([H])C([H])([H])C([H])([H])C2([H])N([H])C(=O)C1([H])N(C(=O)C([H])(N([H])C(=O)C([H])(N([H])C([H])([H])[H])C([H])([H])[H])C(C([H])([H])[H])(C([H])([H])[H])C([H])([H])[H])C([H])([H])c2c([H])c(OC([H])([H])C34C([H])([H])C([H])([H])C(C([H])([H])C([H])([H])C([H])([H])N([H])C(=O)N5C([H])([H])C([H])([H])C([H])([H])C([H])(n6nc(-c7c([H])c([H])c(Oc8c([H])c([H])c(F)c([H])c8F)c([H])c7[H])c(C(=O)N([H])[H])c6N([H])[H])C5([H])[H])(C([H])([H])C3([H])[H])C4([H])[H])c([H])c([H])c2C1([H])[H]

>  <smiles>  (50) 
[H]c1c([H])c([H])c2c(c1[H])C([H])([H])C([H])([H])C([H])([H])C2([H])N([H])C(=O)C1([H])N(C(=O)C([H])(N([H])C(=O)C([H])(N([H])C([H])([H])[H])C([H])([H])[H])C(C([H])([H])[H])(C([H])([H])[H])C([H])([H])[H])C([H])([H])c2c([H])c(OC([H])([H])C34C([H])([H])C([H])([H])C(C([H])([H])C([H])([H])C([H])([H])N([H])C(=O)N5C([H])([H])C([H])([H])C([H])([H])C([H])(n6nc(-c7c([H])c([H])c(Oc8c([H])c([H])c(F)c([H])c8F)c([H])c7[H])c(C(=O)N([H])[H])c6N([H])[H])C5([H])[H])(C([H])([H])C3([H])[H])C4([H])[H])c([H])c([H])c2C1([H])[H]

$$$$
51:0:0
     RDKit          3D

 87 96  0  0  1  0  0  0  0  0999 V2000
  -27.7720  -20.0920   19.5000 C   0  0  0  0  0  2  0  0  0  0  0  0
  -28.0180  -22.5480   18.5140 C   0  0  0  0  0  2  0  0  0  0  0  0
  -29.4640  -21.4530   20.5330 C   0  0  0  0  0  2  0  0  0  0  0  0
  -27.3710  -21.6280   19.5110 C   0  0  0  0  0  3  0  0  0  0  0  0
  -28.9880  -19.7870   20.4360 C   0  0  0  0  0  3  0  0  0  0  0  0
  -28.4300  -22.6720   19.9650 C   0  0  2  0  0  0  0  0  0  0  0  0
  -29.9670  -18.2720   20.2190 C   0  0  0  0  0  2  0  0  0  0  0  0
  -30.4290  -15.3630   20.1530 C   0  0  0  0  0  0  0  0  0  0  0  0
  -30.3840  -12.9370   19.2350 C   0  0  0  0  0  2  0  0  0  0  0  0
  -29.4360  -12.7760   18.0210 C   0  0  0  0  0  2  0  0  0  0  0  0
  -28.0060  -12.4620   18.4950 C   0  0  0  0  0  2  0  0  0  0  0  0
  -27.5740  -13.4080   19.6450 C   0  0  0  0  0  3  0  0  0  0  0  0
  -28.6510  -13.5380   20.7490 C   0  0  0  0  0  2  0  0  0  0  0  0
  -29.8640  -14.0570   20.0990 N   0  0  0  0  0  0  0  0  0  0  0  0
  -31.6300  -15.3730   19.8470 O   0  0  0  0  0  0  0  0  0  0  0  0
  -29.6790  -16.6290   20.3520 N   0  0  0  0  0  0  0  0  0  0  0  0
  -28.7220  -16.4350   20.6140 H   0  0  0  0  0  0  0  0  0  0  0  0
  -25.2220  -13.9440   20.4720 C   0  0  0  0  0  0  0  0  0  0  0  0
  -24.1750  -13.1560   20.8610 C   0  0  0  0  0  0  0  0  0  0  0  0
  -24.6490  -11.8080   20.7960 C   0  0  0  0  0  0  0  0  0  0  0  0
  -26.2620  -13.0760   20.1840 N   0  0  0  0  0  0  0  0  0  0  0  0
  -25.9330  -11.7860   20.4470 N   0  0  0  0  0  0  0  0  0  0  0  0
  -23.9340  -10.5410   20.9880 C   0  0  0  0  0  0  0  0  0  0  0  0
  -24.3760   -9.5710   21.9130 C   0  0  0  0  0  3  0  0  0  0  0  0
  -23.6580   -8.3690   22.0940 C   0  0  0  0  0  3  0  0  0  0  0  0
  -22.4790   -8.1290   21.3500 C   0  0  0  0  0  0  0  0  0  0  0  0
  -22.0530   -9.0870   20.4110 C   0  0  0  0  0  3  0  0  0  0  0  0
  -22.7740  -10.2800   20.2300 C   0  0  0  0  0  3  0  0  0  0  0  0
  -21.7290   -6.9820   21.4420 O   0  0  0  0  0  0  0  0  0  0  0  0
  -21.6740   -6.2470   22.6010 C   0  0  0  0  0  0  0  0  0  0  0  0
  -21.2120   -6.8030   23.8120 C   0  0  0  0  0  3  0  0  0  0  0  0
  -21.1070   -5.9950   24.9620 C   0  0  0  0  0  3  0  0  0  0  0  0
  -21.4560   -4.6340   24.9020 C   0  0  0  0  0  0  0  0  0  0  0  0
  -21.9110   -4.0760   23.6930 C   0  0  0  0  0  3  0  0  0  0  0  0
  -22.0180   -4.8810   22.5460 C   0  0  0  0  0  0  0  0  0  0  0  0
  -22.4380   -4.3360   21.3790 F   0  0  0  0  0  0  0  0  0  0  0  0
  -21.3480   -3.8540   26.0020 F   0  0  0  0  0  0  0  0  0  0  0  0
  -22.7820  -13.6220   21.1690 C   0  0  0  0  0  0  0  0  0  0  0  0
  -22.0790  -12.9140   22.0440 N   0  0  0  0  0  0  0  0  0  0  0  0
  -22.3290  -14.6510   20.6690 O   0  0  0  0  0  0  0  0  0  0  0  0
  -22.4580  -12.0820   22.4710 H   0  0  0  0  0  0  0  0  0  0  0  0
  -21.1450  -13.2050   22.2910 H   0  0  0  0  0  0  0  0  0  0  0  0
  -25.3720  -15.3200   20.3070 N   0  0  0  0  0  0  0  0  0  0  0  0
  -24.5990  -15.9630   20.4350 H   0  0  0  0  0  0  0  0  0  0  0  0
  -26.1900  -15.7630   19.9080 H   0  0  0  0  0  0  0  0  0  0  0  0
  -28.0870  -24.3120   20.6000 C   0  0  0  0  0  2  0  0  0  0  0  0
  -28.2430  -25.9110   20.1940 O   0  0  0  0  0  0  0  0  0  0  0  0
  -24.6210  -31.8690   23.1870 C   0  0  0  0  0  0  0  0  0  0  0  0
  -27.2190  -26.9940   20.2100 C   0  0  0  0  0  0  0  0  0  0  0  0
  -23.4520  -30.4690   21.5340 C   0  0  0  0  0  3  0  0  0  0  0  0
  -24.9180  -28.8660   20.1340 C   0  0  0  0  0  0  0  0  0  0  0  0
  -26.0160  -30.6920   21.4130 C   0  0  0  0  0  2  0  0  0  0  0  0
  -26.1000  -29.2790   20.7650 C   0  0  0  0  0  0  0  0  0  0  0  0
  -27.2480  -28.3660   20.7700 C   0  0  0  0  0  3  0  0  0  0  0  0
  -26.0050  -26.7310   19.5410 C   0  0  0  0  0  3  0  0  0  0  0  0
  -24.8960  -27.6130   19.5010 C   0  0  0  0  0  3  0  0  0  0  0  0
  -23.7000  -29.7900   20.1600 C   0  0  0  0  0  2  0  0  0  0  0  0
  -24.7190  -31.0360   22.1010 N   0  0  0  0  0  0  0  0  0  0  0  0
  -23.5250  -32.1500   23.6980 O   0  0  0  0  0  0  0  0  0  0  0  0
  -22.7540  -29.4690   22.4920 C   0  0  0  0  0  0  0  0  0  0  0  0
  -21.4210  -29.3150   22.3680 N   0  0  0  0  0  0  0  0  0  0  0  0
  -23.4150  -28.8290   23.3140 O   0  0  0  0  0  0  0  0  0  0  0  0
  -20.9380  -29.8890   21.6890 H   0  0  0  0  0  0  0  0  0  0  0  0
  -18.0270  -28.1430   22.8910 C   0  0  0  0  0  0  0  0  0  0  0  0
  -20.5930  -28.3740   23.1310 C   0  0  0  0  0  3  0  0  0  0  0  0
  -20.6690  -26.9500   22.5310 C   0  0  0  0  0  2  0  0  0  0  0  0
  -19.5520  -26.6580   21.5230 C   0  0  0  0  0  2  0  0  0  0  0  0
  -18.1800  -26.8050   22.1860 C   0  0  0  0  0  2  0  0  0  0  0  0
  -19.1580  -28.8860   23.3220 C   0  0  0  0  0  0  0  0  0  0  0  0
  -18.9590  -30.1360   23.9450 C   0  0  0  0  0  3  0  0  0  0  0  0
  -17.6600  -30.6460   24.1390 C   0  0  0  0  0  3  0  0  0  0  0  0
  -16.5440  -29.9010   23.7210 C   0  0  0  0  0  3  0  0  0  0  0  0
  -16.7280  -28.6510   23.1050 C   0  0  0  0  0  3  0  0  0  0  0  0
  -25.8810  -32.5180   23.8340 C   0  0  0  0  0  3  0  0  0  0  0  0
  -25.5560  -33.9190   24.1600 N   0  0  0  0  0  0  0  0  0  0  0  0
  -25.8920  -34.9780   23.4130 C   0  0  0  0  0  0  0  0  0  0  0  0
  -26.5770  -34.8810   22.3910 O   0  0  0  0  0  0  0  0  0  0  0  0
  -24.9510  -34.0640   24.9550 H   0  0  0  0  0  0  0  0  0  0  0  0
  -24.1740  -36.7820   23.0400 C   0  0  0  0  0  1  0  0  0  0  0  0
  -25.3970  -36.3670   23.8720 C   0  0  0  0  0  3  0  0  0  0  0  0
  -27.5120  -37.2530   24.7560 C   0  0  0  0  0  1  0  0  0  0  0  0
  -26.4340  -37.4210   23.7860 N   0  0  0  0  0  0  0  0  0  0  0  0
  -26.0240  -38.3410   23.9230 H   0  0  0  0  0  0  0  0  0  0  0  0
  -26.3680  -31.7610   25.1320 C   0  0  1  0  0  0  0  0  0  0  0  0
  -25.2520  -31.5320   26.1800 C   0  0  0  0  0  1  0  0  0  0  0  0
  -26.9620  -30.3790   24.7720 C   0  0  0  0  0  1  0  0  0  0  0  0
  -27.5030  -32.5610   25.8110 C   0  0  0  0  0  1  0  0  0  0  0  0
  1  4  1  0
  1  5  1  0
  2  6  1  0
  4  2  1  0
  4  6  1  0
  5  7  1  0
  5  3  1  0
  6  3  1  0
  6 46  1  1
  7 16  1  0
  8 16  1  0
  9 14  1  0
 10 11  1  0
 10  9  1  0
 12 11  1  0
 12 21  1  0
 12 13  1  0
 14  8  1  0
 14 13  1  0
 15  8  2  0
 16 17  1  0
 18 19  2  0
 19 38  1  0
 20 19  1  0
 20 23  1  0
 21 22  1  0
 21 18  1  0
 22 20  2  0
 23 24  1  0
 24 25  2  0
 26 29  1  0
 26 25  1  0
 27 26  2  0
 28 27  1  0
 28 23  2  0
 29 30  1  0
 30 31  1  0
 31 32  2  0
 33 32  1  0
 33 37  1  0
 34 33  2  0
 35 30  2  0
 35 34  1  0
 36 35  1  0
 38 39  1  0
 39 42  1  0
 39 41  1  0
 40 38  2  0
 43 44  1  0
 43 18  1  0
 45 43  1  0
 47 49  1  0
 47 46  1  0
 48 59  2  0
 49 54  1  0
 50 58  1  0
 50 60  1  0
 51 57  1  0
 51 53  1  0
 52 58  1  0
 53 54  2  0
 53 52  1  0
 55 49  2  0
 56 55  1  0
 56 51  2  0
 57 50  1  0
 58 48  1  0
 60 62  2  0
 61 60  1  0
 63 61  1  0
 64 73  2  0
 64 69  1  0
 65 61  1  0
 65 69  1  0
 66 65  1  0
 67 68  1  0
 67 66  1  0
 68 64  1  0
 69 70  2  0
 70 71  1  0
 72 71  2  0
 73 72  1  0
 74 48  1  0
 74 75  1  0
 74 84  1  0
 75 78  1  0
 76 80  1  0
 76 75  1  0
 77 76  2  0
 80 79  1  0
 82 80  1  0
 82 83  1  0
 82 81  1  0
 84 87  1  1
 84 85  1  0
 86 84  1  0
M  ISO  4   8 100  16 100  46 101  47 101
M  END
>  <TORSDO>  (51) 
F 18

>  <SCORE>  (51) 
-16.646

>  <name>  (51) 
51

>  <ligand_id>  (51) 
51

>  <original_smiles>  (51) 
[H]c1c([H])c([H])c2c(c1[H])C([H])([H])C([H])([H])C([H])([H])C2([H])N([H])C(=O)C1([H])N(C(=O)C([H])(N([H])C(=O)C([H])(N([H])C([H])([H])[H])C([H])([H])[H])C(C([H])([H])[H])(C([H])([H])[H])C([H])([H])[H])C([H])([H])c2c([H])c(OC([H])([H])C34C([H])([H])C([H])(C([H])([H])N([H])C(=O)N5C([H])([H])C([H])([H])C([H])([H])C([H])(n6nc(-c7c([H])c([H])c(Oc8c([H])c([H])c(F)c([H])c8F)c([H])c7[H])c(C(=O)N([H])[H])c6N([H])[H])C5([H])[H])C([H])([H])C3([H])C4([H])[H])c([H])c([H])c2C1([H])[H]

>  <smiles>  (51) 
[H]c1c([H])c([H])c2c(c1[H])C([H])([H])C([H])([H])C([H])([H])C2([H])N([H])C(=O)C1([H])N(C(=O)C([H])(N([H])C(=O)C([H])(N([H])C([H])([H])[H])C([H])([H])[H])C(C([H])([H])[H])(C([H])([H])[H])C([H])([H])[H])C([H])([H])c2c([H])c(OC([H])([H])C34C([H])([H])C([H])(C([H])([H])N([H])C(=O)N5C([H])([H])C([H])([H])C([H])([H])C([H])(n6nc(-c7c([H])c([H])c(Oc8c([H])c([H])c(F)c([H])c8F)c([H])c7[H])c(C(=O)N([H])[H])c6N([H])[H])C5([H])[H])C([H])([H])C3([H])C4([H])[H])c([H])c([H])c2C1([H])[H]

$$$$
52:0:0
     RDKit          3D

 88 97  0  0  1  0  0  0  0  0999 V2000
  -28.6730  -19.3910   19.1530 C   0  0  0  0  0  2  0  0  0  0  0  0
  -29.6520  -21.8220   18.7620 C   0  0  0  0  0  2  0  0  0  0  0  0
  -29.5290  -20.6000   21.1130 C   0  0  0  0  0  2  0  0  0  0  0  0
  -28.4530  -20.9410   19.0030 C   0  0  0  0  0  3  0  0  0  0  0  0
  -29.7120  -19.1790   20.2830 C   0  0  0  0  0  3  0  0  0  0  0  0
  -29.0430  -21.7970   20.1420 C   0  0  2  0  0  0  0  0  0  0  0  0
  -30.3030  -17.6660   20.8010 C   0  0  0  0  0  2  0  0  0  0  0  0
  -30.5430  -14.9790   20.3610 C   0  0  0  0  0  0  0  0  0  0  0  0
  -30.3780  -12.6410   19.3780 C   0  0  0  0  0  2  0  0  0  0  0  0
  -29.4260  -12.6070   18.1610 C   0  0  0  0  0  2  0  0  0  0  0  0
  -27.9610  -12.4180   18.6060 C   0  0  0  0  0  2  0  0  0  0  0  0
  -27.5800  -13.3230   19.8020 C   0  0  0  0  0  3  0  0  0  0  0  0
  -28.6590  -13.3120   20.9140 C   0  0  0  0  0  2  0  0  0  0  0  0
  -29.9150  -13.7380   20.2820 N   0  0  0  0  0  0  0  0  0  0  0  0
  -31.7520  -15.0140   20.1090 O   0  0  0  0  0  0  0  0  0  0  0  0
  -29.8110  -16.1890   20.5230 N   0  0  0  0  0  0  0  0  0  0  0  0
  -28.8130  -16.0520   20.5940 H   0  0  0  0  0  0  0  0  0  0  0  0
  -25.1980  -13.8880   20.5560 C   0  0  0  0  0  0  0  0  0  0  0  0
  -24.1390  -13.1080   20.9350 C   0  0  0  0  0  0  0  0  0  0  0  0
  -24.6060  -11.7580   20.8970 C   0  0  0  0  0  0  0  0  0  0  0  0
  -26.2420  -13.0150   20.3090 N   0  0  0  0  0  0  0  0  0  0  0  0
  -25.8960  -11.7290   20.5860 N   0  0  0  0  0  0  0  0  0  0  0  0
  -23.8860  -10.4900   21.0760 C   0  0  0  0  0  0  0  0  0  0  0  0
  -24.3200   -9.5140   22.0010 C   0  0  0  0  0  3  0  0  0  0  0  0
  -23.5920   -8.3180   22.1700 C   0  0  0  0  0  3  0  0  0  0  0  0
  -22.4160   -8.0850   21.4120 C   0  0  0  0  0  0  0  0  0  0  0  0
  -22.0060   -9.0510   20.4780 C   0  0  0  0  0  3  0  0  0  0  0  0
  -22.7370  -10.2390   20.3060 C   0  0  0  0  0  3  0  0  0  0  0  0
  -21.6640   -6.9370   21.4870 O   0  0  0  0  0  0  0  0  0  0  0  0
  -21.6050   -6.1950   22.6390 C   0  0  0  0  0  0  0  0  0  0  0  0
  -21.1490   -6.7450   23.8560 C   0  0  0  0  0  3  0  0  0  0  0  0
  -21.0450   -5.9300   25.0040 C   0  0  0  0  0  3  0  0  0  0  0  0
  -21.3860   -4.5660   24.9320 C   0  0  0  0  0  0  0  0  0  0  0  0
  -21.8360   -4.0150   23.7160 C   0  0  0  0  0  3  0  0  0  0  0  0
  -21.9440   -4.8270   22.5760 C   0  0  0  0  0  0  0  0  0  0  0  0
  -22.3570   -4.2910   21.4020 F   0  0  0  0  0  0  0  0  0  0  0  0
  -21.2780   -3.7770   26.0270 F   0  0  0  0  0  0  0  0  0  0  0  0
  -22.7440  -13.5820   21.2090 C   0  0  0  0  0  0  0  0  0  0  0  0
  -22.0130  -12.8700   22.0640 N   0  0  0  0  0  0  0  0  0  0  0  0
  -22.3040  -14.6100   20.6950 O   0  0  0  0  0  0  0  0  0  0  0  0
  -22.3760  -12.0270   22.4750 H   0  0  0  0  0  0  0  0  0  0  0  0
  -21.0830  -13.1760   22.3120 H   0  0  0  0  0  0  0  0  0  0  0  0
  -25.3570  -15.2560   20.3720 N   0  0  0  0  0  0  0  0  0  0  0  0
  -24.5850  -15.9090   20.4660 H   0  0  0  0  0  0  0  0  0  0  0  0
  -26.1730  -15.6740   19.9350 H   0  0  0  0  0  0  0  0  0  0  0  0
  -28.6120  -23.3270   20.7140 C   0  0  0  0  0  3  0  0  0  0  0  0
  -28.3310  -24.7400   19.8150 C   0  0  0  0  0  3  0  0  0  0  0  0
  -28.3050  -26.2260   20.3100 O   0  0  0  0  0  0  0  0  0  0  0  0
  -24.6210  -31.8950   23.2130 C   0  0  0  0  0  0  0  0  0  0  0  0
  -27.2280  -27.1810   20.1940 C   0  0  0  0  0  0  0  0  0  0  0  0
  -23.4320  -30.4970   21.5610 C   0  0  0  0  0  3  0  0  0  0  0  0
  -24.8920  -28.9240   20.1480 C   0  0  0  0  0  0  0  0  0  0  0  0
  -25.9850  -30.7630   21.4230 C   0  0  0  0  0  2  0  0  0  0  0  0
  -26.0640  -29.3730   20.7690 C   0  0  0  0  0  0  0  0  0  0  0  0
  -27.2250  -28.5150   20.7810 C   0  0  0  0  0  3  0  0  0  0  0  0
  -26.0330  -26.8430   19.5250 C   0  0  0  0  0  3  0  0  0  0  0  0
  -24.8860  -27.6730   19.5160 C   0  0  0  0  0  3  0  0  0  0  0  0
  -23.6670  -29.8200   20.1800 C   0  0  0  0  0  2  0  0  0  0  0  0
  -24.6970  -31.0730   22.1210 N   0  0  0  0  0  0  0  0  0  0  0  0
  -23.5300  -32.1830   23.7350 O   0  0  0  0  0  0  0  0  0  0  0  0
  -22.7500  -29.4910   22.5220 C   0  0  0  0  0  0  0  0  0  0  0  0
  -21.4220  -29.3240   22.3890 N   0  0  0  0  0  0  0  0  0  0  0  0
  -23.4170  -28.8670   23.3500 O   0  0  0  0  0  0  0  0  0  0  0  0
  -20.9380  -29.8760   21.6950 H   0  0  0  0  0  0  0  0  0  0  0  0
  -18.0360  -28.1470   22.8930 C   0  0  0  0  0  0  0  0  0  0  0  0
  -20.6000  -28.3890   23.1570 C   0  0  0  0  0  3  0  0  0  0  0  0
  -20.6900  -26.9600   22.5760 C   0  0  0  0  0  2  0  0  0  0  0  0
  -19.5850  -26.6500   21.5590 C   0  0  0  0  0  2  0  0  0  0  0  0
  -18.2050  -26.8000   22.2060 C   0  0  0  0  0  2  0  0  0  0  0  0
  -19.1620  -28.8970   23.3260 C   0  0  0  0  0  0  0  0  0  0  0  0
  -18.9530  -30.1560   23.9290 C   0  0  0  0  0  3  0  0  0  0  0  0
  -17.6520  -30.6650   24.1060 C   0  0  0  0  0  3  0  0  0  0  0  0
  -16.5430  -29.9100   23.6930 C   0  0  0  0  0  3  0  0  0  0  0  0
  -16.7330  -28.6550   23.0900 C   0  0  0  0  0  3  0  0  0  0  0  0
  -25.8990  -32.5300   23.8420 C   0  0  0  0  0  3  0  0  0  0  0  0
  -26.3970  -31.7740   25.1370 C   0  0  1  0  0  0  0  0  0  0  0  0
  -25.2910  -31.5540   26.1920 C   0  0  0  0  0  1  0  0  0  0  0  0
  -26.9880  -30.3900   24.7820 C   0  0  0  0  0  1  0  0  0  0  0  0
  -27.5320  -32.5780   25.8130 C   0  0  0  0  0  1  0  0  0  0  0  0
  -25.5870  -33.9340   24.1630 N   0  0  0  0  0  0  0  0  0  0  0  0
  -25.9220  -34.9860   23.4080 C   0  0  0  0  0  0  0  0  0  0  0  0
  -26.5960  -34.8820   22.3800 O   0  0  0  0  0  0  0  0  0  0  0  0
  -24.9870  -34.0870   24.9600 H   0  0  0  0  0  0  0  0  0  0  0  0
  -24.2010  -36.7890   23.0460 C   0  0  0  0  0  1  0  0  0  0  0  0
  -25.4330  -36.3740   23.8640 C   0  0  0  0  0  3  0  0  0  0  0  0
  -27.5550  -37.2640   24.7270 C   0  0  0  0  0  1  0  0  0  0  0  0
  -26.4700  -37.4250   23.7650 N   0  0  0  0  0  0  0  0  0  0  0  0
  -26.0540  -38.3440   23.9060 H   0  0  0  0  0  0  0  0  0  0  0  0
  1  5  1  0
  2  6  1  0
  4  2  1  0
  4  1  1  0
  4  6  1  0
  5  7  1  0
  5  3  1  0
  6 46  1  1
  6  3  1  0
  8 16  1  0
  9 14  1  0
 10 11  1  0
 10  9  1  0
 12 11  1  0
 12 21  1  0
 12 13  1  0
 14  8  1  0
 14 13  1  0
 15  8  2  0
 16 17  1  0
 16  7  1  0
 18 19  2  0
 19 38  1  0
 20 19  1  0
 20 23  1  0
 21 18  1  0
 21 22  1  0
 22 20  2  0
 23 24  1  0
 24 25  2  0
 26 29  1  0
 26 25  1  0
 27 26  2  0
 28 27  1  0
 28 23  2  0
 29 30  1  0
 30 31  1  0
 31 32  2  0
 33 32  1  0
 33 37  1  0
 34 33  2  0
 35 30  2  0
 35 34  1  0
 36 35  1  0
 38 39  1  0
 39 42  1  0
 39 41  1  0
 40 38  2  0
 43 44  1  0
 43 18  1  0
 45 43  1  0
 47 48  1  0
 47 46  2  0
 49 60  2  0
 50 48  1  0
 50 55  1  0
 51 59  1  0
 51 61  1  0
 52 58  1  0
 52 54  1  0
 53 59  1  0
 54 55  2  0
 54 53  1  0
 56 50  2  0
 57 56  1  0
 57 52  2  0
 58 51  1  0
 59 49  1  0
 61 63  2  0
 62 61  1  0
 64 62  1  0
 65 74  2  0
 65 70  1  0
 66 62  1  0
 66 70  1  0
 67 66  1  0
 68 69  1  0
 68 67  1  0
 69 65  1  0
 70 71  2  0
 71 72  1  0
 73 72  2  0
 74 73  1  0
 75 49  1  0
 75 80  1  0
 75 76  1  0
 76 79  1  1
 76 77  1  0
 78 76  1  0
 80 83  1  0
 81 85  1  0
 81 80  1  0
 82 81  2  0
 85 84  1  0
 87 85  1  0
 87 88  1  0
 87 86  1  0
M  ISO  4   8 100  16 100  47 101  48 101
M  END
>  <TORSDO>  (52) 
F 19

>  <SCORE>  (52) 
-15.719

>  <name>  (52) 
52

>  <ligand_id>  (52) 
52

>  <original_smiles>  (52) 
[H]c1c([H])c([H])c2c(c1[H])C([H])([H])C([H])([H])C([H])([H])C2([H])N([H])C(=O)C1([H])N(C(=O)C([H])(N([H])C(=O)C([H])(N([H])C([H])([H])[H])C([H])([H])[H])C(C([H])([H])[H])(C([H])([H])[H])C([H])([H])[H])C([H])([H])c2c([H])c(OC([H])([H])C([H])([H])C34C([H])([H])C([H])(C([H])([H])N([H])C(=O)N5C([H])([H])C([H])([H])C([H])([H])C([H])(n6nc(-c7c([H])c([H])c(Oc8c([H])c([H])c(F)c([H])c8F)c([H])c7[H])c(C(=O)N([H])[H])c6N([H])[H])C5([H])[H])C([H])([H])C3([H])C4([H])[H])c([H])c([H])c2C1([H])[H]

>  <smiles>  (52) 
[H]c1c([H])c([H])c2c(c1[H])C([H])([H])C([H])([H])C([H])([H])C2([H])N([H])C(=O)C1([H])N(C(=O)C([H])(N([H])C(=O)C([H])(N([H])C([H])([H])[H])C([H])([H])[H])C(C([H])([H])[H])(C([H])([H])[H])C([H])([H])[H])C([H])([H])c2c([H])c(OC([H])([H])C([H])([H])C34C([H])([H])C([H])(C([H])([H])N([H])C(=O)N5C([H])([H])C([H])([H])C([H])([H])C([H])(n6nc(-c7c([H])c([H])c(Oc8c([H])c([H])c(F)c([H])c8F)c([H])c7[H])c(C(=O)N([H])[H])c6N([H])[H])C5([H])[H])C([H])([H])C3([H])C4([H])[H])c([H])c([H])c2C1([H])[H]

$$$$
53:0:0
     RDKit          3D

 88 94  0  0  1  0  0  0  0  0999 V2000
  -29.8310  -19.7860   19.1220 C   0  0  0  0  0  1  0  0  0  0  0  0
  -30.7660  -16.4710   19.2020 C   0  0  0  0  0  0  0  0  0  0  0  0
  -30.8770  -13.8410   18.3570 C   0  0  0  0  0  2  0  0  0  0  0  0
  -29.8400  -13.2650   17.3340 C   0  0  0  0  0  2  0  0  0  0  0  0
  -28.5660  -12.7870   18.0400 C   0  0  0  0  0  2  0  0  0  0  0  0
  -28.1780  -13.7790   19.1530 C   0  0  0  0  0  3  0  0  0  0  0  0
  -29.3570  -14.2300   20.0610 C   0  0  0  0  0  2  0  0  0  0  0  0
  -30.3140  -15.0230   19.2180 N   0  0  0  0  0  0  0  0  0  0  0  0
  -31.9070  -16.3730   18.6900 O   0  0  0  0  0  0  0  0  0  0  0  0
  -30.0670  -17.9370   19.5440 N   0  0  0  0  0  0  0  0  0  0  0  0
  -26.0520  -14.2150   20.4510 C   0  0  0  0  0  0  0  0  0  0  0  0
  -25.0640  -13.4070   20.9380 C   0  0  0  0  0  0  0  0  0  0  0  0
  -25.4680  -12.0670   20.6470 C   0  0  0  0  0  0  0  0  0  0  0  0
  -26.9930  -13.3730   19.8950 N   0  0  0  0  0  0  0  0  0  0  0  0
  -26.6690  -12.0620   20.0700 N   0  0  0  0  0  0  0  0  0  0  0  0
  -24.7450  -10.8010   20.8370 C   0  0  0  0  0  0  0  0  0  0  0  0
  -25.1810   -9.8320   21.7680 C   0  0  0  0  0  3  0  0  0  0  0  0
  -24.4510   -8.6360   21.9500 C   0  0  0  0  0  3  0  0  0  0  0  0
  -23.2710   -8.4000   21.2050 C   0  0  0  0  0  0  0  0  0  0  0  0
  -22.8530   -9.3600   20.2660 C   0  0  0  0  0  3  0  0  0  0  0  0
  -23.5830  -10.5460   20.0800 C   0  0  0  0  0  3  0  0  0  0  0  0
  -22.5150   -7.2560   21.2970 O   0  0  0  0  0  0  0  0  0  0  0  0
  -22.2510   -6.6620   22.5050 C   0  0  0  0  0  0  0  0  0  0  0  0
  -21.5880   -7.3500   23.5440 C   0  0  0  0  0  3  0  0  0  0  0  0
  -21.2750   -6.6820   24.7460 C   0  0  0  0  0  3  0  0  0  0  0  0
  -21.6160   -5.3250   24.9060 C   0  0  0  0  0  0  0  0  0  0  0  0
  -22.2710   -4.6360   23.8690 C   0  0  0  0  0  3  0  0  0  0  0  0
  -22.5850   -5.3030   22.6720 C   0  0  0  0  0  0  0  0  0  0  0  0
  -23.1970   -4.6290   21.6680 F   0  0  0  0  0  0  0  0  0  0  0  0
  -21.3110   -4.6790   26.0560 F   0  0  0  0  0  0  0  0  0  0  0  0
  -23.7720  -13.8650   21.5460 C   0  0  0  0  0  0  0  0  0  0  0  0
  -23.2260  -13.0900   22.4770 N   0  0  0  0  0  0  0  0  0  0  0  0
  -23.2640  -14.9390   21.2300 O   0  0  0  0  0  0  0  0  0  0  0  0
  -23.6540  -12.2160   22.7430 H   0  0  0  0  0  0  0  0  0  0  0  0
  -22.3640  -13.3690   22.9240 H   0  0  0  0  0  0  0  0  0  0  0  0
  -26.2250  -15.5940   20.4040 N   0  0  0  0  0  0  0  0  0  0  0  0
  -25.5210  -16.2490   20.7260 H   0  0  0  0  0  0  0  0  0  0  0  0
  -27.0080  -16.0460   19.9510 H   0  0  0  0  0  0  0  0  0  0  0  0
  -29.6030  -17.9300   20.9320 C   0  0  0  0  0  2  0  0  0  0  0  0
  -29.2540  -19.9020   22.6730 C   0  0  0  0  0  2  0  0  0  0  0  0
  -30.5840  -18.1370   24.1090 C   0  0  0  0  0  2  0  0  0  0  0  0
  -30.1940  -19.5640   23.8030 C   0  0  0  0  0  3  0  0  0  0  0  0
  -30.1500  -19.1550   21.6830 C   0  0  0  0  0  3  0  0  0  0  0  0
  -31.0710  -18.8010   22.8400 C   0  0  2  0  0  0  0  0  0  0  0  0
  -32.5370  -19.1270   22.6300 C   0  0  0  0  0  1  0  0  0  0  0  0
  -29.2330  -21.6920   19.7950 C   0  0  0  0  0 15  0  0  0  0  0  0
  -28.5610  -23.6410   19.3400 C   0  0  0  0  0 15  0  0  0  0  0  0
  -28.3920  -25.4780   19.7850 O   0  0  0  0  0  1  0  0  0  0  0  0
  -24.6710  -31.7790   23.0100 C   0  0  0  0  0  0  0  0  0  0  0  0
  -27.3790  -26.7550   19.7610 C   0  0  0  0  0  0  0  0  0  0  0  0
  -23.5190  -30.3690   21.3620 C   0  0  0  0  0  3  0  0  0  0  0  0
  -25.0130  -28.8130   19.8500 C   0  0  0  0  0  0  0  0  0  0  0  0
  -26.0950  -30.5930   21.1890 C   0  0  0  0  0  2  0  0  0  0  0  0
  -26.2140  -29.1640   20.4760 C   0  0  0  0  0  0  0  0  0  0  0  0
  -27.3600  -28.1700   20.4000 C   0  0  0  0  0  3  0  0  0  0  0  0
  -26.1270  -26.6810   19.0770 C   0  0  0  0  0  3  0  0  0  0  0  0
  -25.0210  -27.6050   19.1240 C   0  0  0  0  0  3  0  0  0  0  0  0
  -23.7640  -29.7190   19.9650 C   0  0  0  0  0  2  0  0  0  0  0  0
  -24.7870  -30.9520   21.9070 N   0  0  0  0  0  0  0  0  0  0  0  0
  -23.5750  -32.0070   23.5540 O   0  0  0  0  0  0  0  0  0  0  0  0
  -22.8680  -29.3380   22.3270 C   0  0  0  0  0  0  0  0  0  0  0  0
  -21.5410  -29.1210   22.2370 N   0  0  0  0  0  0  0  0  0  0  0  0
  -23.5750  -28.7310   23.1340 O   0  0  0  0  0  0  0  0  0  0  0  0
  -21.0130  -29.6640   21.5680 H   0  0  0  0  0  0  0  0  0  0  0  0
  -18.2420  -27.6910   22.8150 C   0  0  0  0  0  0  0  0  0  0  0  0
  -20.7900  -28.1140   23.0010 C   0  0  0  0  0  3  0  0  0  0  0  0
  -20.9570  -26.7080   22.3780 C   0  0  0  0  0  2  0  0  0  0  0  0
  -19.8440  -26.3520   21.3860 C   0  0  0  0  0  2  0  0  0  0  0  0
  -18.4790  -26.3840   22.0770 C   0  0  0  0  0  2  0  0  0  0  0  0
  -19.3250  -28.5110   23.2350 C   0  0  0  0  0  0  0  0  0  0  0  0
  -19.0450  -29.7280   23.8940 C   0  0  0  0  0  3  0  0  0  0  0  0
  -17.7160  -30.1290   24.1310 C   0  0  0  0  0  3  0  0  0  0  0  0
  -16.6490  -29.3100   23.7240 C   0  0  0  0  0  3  0  0  0  0  0  0
  -16.9140  -28.0920   23.0720 C   0  0  0  0  0  3  0  0  0  0  0  0
  -25.9060  -32.4900   23.6460 C   0  0  0  0  0  3  0  0  0  0  0  0
  -26.5000  -31.7040   24.8820 C   0  0  1  0  0  0  0  0  0  0  0  0
  -25.4460  -31.3400   25.9540 C   0  0  0  0  0  1  0  0  0  0  0  0
  -27.1780  -30.3910   24.4350 C   0  0  0  0  0  1  0  0  0  0  0  0
  -27.6010  -32.5530   25.5610 C   0  0  0  0  0  1  0  0  0  0  0  0
  -25.4990  -33.8460   24.0760 N   0  0  0  0  0  0  0  0  0  0  0  0
  -25.7340  -34.9800   23.4010 C   0  0  0  0  0  0  0  0  0  0  0  0
  -26.3670  -34.9990   22.3420 O   0  0  0  0  0  0  0  0  0  0  0  0
  -24.9230  -33.8970   24.9030 H   0  0  0  0  0  0  0  0  0  0  0  0
  -23.8680  -36.6750   23.2890 C   0  0  0  0  0  1  0  0  0  0  0  0
  -25.1870  -36.3020   23.9860 C   0  0  0  0  0  3  0  0  0  0  0  0
  -27.3060  -37.2950   24.7390 C   0  0  0  0  0  1  0  0  0  0  0  0
  -26.1340  -37.4350   23.8780 N   0  0  0  0  0  0  0  0  0  0  0  0
  -25.6750  -38.3120   24.1090 H   0  0  0  0  0  0  0  0  0  0  0  0
  1 10  1  0
  2  8  1  0
  2 10  1  0
  3  8  1  0
  4  5  1  0
  4  3  1  0
  6  5  1  0
  6 14  1  0
  6  7  1  0
  8  7  1  0
  9  2  2  0
 10 39  1  0
 11 12  2  0
 12 31  1  0
 13 16  1  0
 13 12  1  0
 14 15  1  0
 14 11  1  0
 15 13  2  0
 16 17  1  0
 17 18  2  0
 19 22  1  0
 19 18  1  0
 20 19  2  0
 21 20  1  0
 21 16  2  0
 22 23  1  0
 23 28  2  0
 23 24  1  0
 24 25  2  0
 25 26  1  0
 26 30  1  0
 27 26  2  0
 28 27  1  0
 29 28  1  0
 31 32  1  0
 32 34  1  0
 32 35  1  0
 33 31  2  0
 36 11  1  0
 36 37  1  0
 38 36  1  0
 42 40  1  0
 42 41  1  0
 43 39  1  0
 43 40  1  0
 43 44  1  0
 44 45  1  6
 44 42  1  0
 44 41  1  0
 49 60  2  0
 50 48  1  0
 50 55  1  0
 51 59  1  0
 51 61  1  0
 52 58  1  0
 52 54  1  0
 53 59  1  0
 54 53  1  0
 55 54  2  0
 56 57  1  0
 56 50  2  0
 57 52  2  0
 58 51  1  0
 59 49  1  0
 61 63  2  0
 62 61  1  0
 64 62  1  0
 65 74  2  0
 65 70  1  0
 66 62  1  0
 66 70  1  0
 67 66  1  0
 68 69  1  0
 68 67  1  0
 69 65  1  0
 70 71  2  0
 71 72  1  0
 73 72  2  0
 74 73  1  0
 75 49  1  0
 75 80  1  0
 75 76  1  0
 76 79  1  1
 76 77  1  0
 78 76  1  0
 80 83  1  0
 81 85  1  0
 81 80  1  0
 82 81  2  0
 85 84  1  0
 87 85  1  0
 87 88  1  0
 87 86  1  0
M  ISO  4   2 100  10 100  47 101  48 101
M  END
>  <TORSDO>  (53) 
F 20

>  <SCORE>  (53) 
-7.484

>  <name>  (53) 
53

>  <ligand_id>  (53) 
53

>  <original_smiles>  (53) 
[H]c1c([H])c([H])c2c(c1[H])C([H])([H])C([H])([H])C([H])([H])C2([H])N([H])C(=O)C1([H])N(C(=O)C([H])(N([H])C(=O)C([H])(N([H])C([H])([H])[H])C([H])([H])[H])C(C([H])([H])[H])(C([H])([H])[H])C([H])([H])[H])C([H])([H])c2c([H])c(OC([H])([H])C([H])([H])C([H])([H])N(C(=O)N3C([H])([H])C([H])([H])C([H])([H])C([H])(n4nc(-c5c([H])c([H])c(Oc6c([H])c([H])c(F)c([H])c6F)c([H])c5[H])c(C(=O)N([H])[H])c4N([H])[H])C3([H])[H])C([H])([H])C3([H])C([H])([H])C4([H])C([H])([H])C34C([H])([H])[H])c([H])c([H])c2C1([H])[H]

>  <smiles>  (53) 
[H]c1c([H])c([H])c2c(c1[H])C([H])([H])C([H])([H])C([H])([H])C2([H])N([H])C(=O)C1([H])N(C(=O)C([H])(N([H])C(=O)C([H])(N([H])C([H])([H])[H])C([H])([H])[H])C(C([H])([H])[H])(C([H])([H])[H])C([H])([H])[H])C([H])([H])c2c([H])c(OC([H])([H])C([H])([H])C([H])([H])N(C(=O)N3C([H])([H])C([H])([H])C([H])([H])C([H])(n4nc(-c5c([H])c([H])c(Oc6c([H])c([H])c(F)c([H])c6F)c([H])c5[H])c(C(=O)N([H])[H])c4N([H])[H])C3([H])[H])C([H])([H])C3([H])C([H])([H])C4([H])C([H])([H])C34C([H])([H])[H])c([H])c([H])c2C1([H])[H]

$$$$
54:0:0
     RDKit          3D

 92101  0  0  1  0  0  0  0  0999 V2000
  -28.3550  -22.2240   17.9810 C   0  0  0  0  0  2  0  0  0  0  0  0
  -27.6190  -21.4120   19.0430 C   0  0  0  0  0  2  0  0  0  0  0  0
  -29.3590  -22.6640   19.0260 C   0  0  0  0  0  3  0  0  0  0  0  0
  -28.9450  -23.4100   20.2910 C   0  0  0  0  0  3  0  0  0  0  0  0
  -28.6950  -21.7820   20.0490 C   0  0  1  0  0  0  0  0  0  0  0  0
  -27.9450  -24.7160   20.1110 C   0  0  0  0  0  2  0  0  0  0  0  0
  -28.2590  -26.2240   20.2310 O   0  0  0  0  0  0  0  0  0  0  0  0
  -24.6550  -31.8830   23.2390 C   0  0  0  0  0  0  0  0  0  0  0  0
  -27.1980  -27.1930   20.1780 C   0  0  0  0  0  0  0  0  0  0  0  0
  -23.4400  -30.4960   21.6030 C   0  0  0  0  0  3  0  0  0  0  0  0
  -24.8720  -28.9280   20.1670 C   0  0  0  0  0  0  0  0  0  0  0  0
  -25.9910  -30.7620   21.4210 C   0  0  0  0  0  2  0  0  0  0  0  0
  -26.0570  -29.3730   20.7680 C   0  0  0  0  0  0  0  0  0  0  0  0
  -27.2210  -28.5210   20.7580 C   0  0  0  0  0  3  0  0  0  0  0  0
  -25.9840  -26.8440   19.5410 C   0  0  0  0  0  3  0  0  0  0  0  0
  -24.8470  -27.6770   19.5380 C   0  0  0  0  0  3  0  0  0  0  0  0
  -23.6500  -29.8270   20.2200 C   0  0  0  0  0  2  0  0  0  0  0  0
  -24.7160  -31.0670   22.1430 N   0  0  0  0  0  0  0  0  0  0  0  0
  -23.5730  -32.1690   23.7740 O   0  0  0  0  0  0  0  0  0  0  0  0
  -22.7660  -29.4850   22.5670 C   0  0  0  0  0  0  0  0  0  0  0  0
  -21.4370  -29.3150   22.4450 N   0  0  0  0  0  0  0  0  0  0  0  0
  -23.4400  -28.8570   23.3870 O   0  0  0  0  0  0  0  0  0  0  0  0
  -20.9490  -29.8750   21.7600 H   0  0  0  0  0  0  0  0  0  0  0  0
  -18.0570  -28.1170   22.9560 C   0  0  0  0  0  0  0  0  0  0  0  0
  -20.6160  -28.3790   23.2190 C   0  0  0  0  0  3  0  0  0  0  0  0
  -20.7160  -26.9460   22.6480 C   0  0  0  0  0  2  0  0  0  0  0  0
  -19.6130  -26.6210   21.6350 C   0  0  0  0  0  2  0  0  0  0  0  0
  -18.2330  -26.7670   22.2810 C   0  0  0  0  0  2  0  0  0  0  0  0
  -19.1770  -28.8810   23.3820 C   0  0  0  0  0  0  0  0  0  0  0  0
  -18.9580  -30.1430   23.9750 C   0  0  0  0  0  3  0  0  0  0  0  0
  -17.6530  -30.6440   24.1430 C   0  0  0  0  0  3  0  0  0  0  0  0
  -16.5490  -29.8780   23.7320 C   0  0  0  0  0  3  0  0  0  0  0  0
  -16.7510  -28.6160   23.1440 C   0  0  0  0  0  3  0  0  0  0  0  0
  -25.9400  -32.5140   23.8580 C   0  0  0  0  0  3  0  0  0  0  0  0
  -25.6380  -33.9150   24.1850 N   0  0  0  0  0  0  0  0  0  0  0  0
  -25.9690  -34.9660   23.4220 C   0  0  0  0  0  0  0  0  0  0  0  0
  -26.6290  -34.8550   22.3850 O   0  0  0  0  0  0  0  0  0  0  0  0
  -25.0540  -34.0750   24.9930 H   0  0  0  0  0  0  0  0  0  0  0  0
  -24.2500  -36.7720   23.0780 C   0  0  0  0  0  1  0  0  0  0  0  0
  -25.4950  -36.3600   23.8800 C   0  0  0  0  0  3  0  0  0  0  0  0
  -27.6410  -37.2330   24.6950 C   0  0  0  0  0  1  0  0  0  0  0  0
  -26.5340  -37.4050   23.7570 N   0  0  0  0  0  0  0  0  0  0  0  0
  -26.1360  -38.3290   23.9040 H   0  0  0  0  0  0  0  0  0  0  0  0
  -26.4480  -31.7470   25.1410 C   0  0  1  0  0  0  0  0  0  0  0  0
  -25.3530  -31.5250   26.2100 C   0  0  0  0  0  1  0  0  0  0  0  0
  -27.0200  -30.3620   24.7600 C   0  0  0  0  0  1  0  0  0  0  0  0
  -27.6080  -32.5340   25.7960 C   0  0  0  0  0  1  0  0  0  0  0  0
  -29.4930  -20.4450   20.6380 C   0  0  0  0  0  2  0  0  0  0  0  0
  -29.3770  -18.8620   20.0780 C   0  0  0  0  0  3  0  0  0  0  0  0
  -29.8200  -18.7970   18.6760 N   0  0  0  0  0  4  0  0  0  0  0  0
  -30.7900  -19.0480   18.6000 H   0  0  0  0  0  0  0  0  0  0  0  0
  -29.2830  -19.4090   18.0890 H   0  0  0  0  0  0  0  0  0  0  0  0
  -29.7160  -17.8590   18.3320 H   0  0  0  0  0  0  0  0  0  0  0  0
  -30.0910  -17.5670   20.8510 C   0  0  0  0  0  2  0  0  0  0  0  0
  -30.5580  -14.9040   20.4230 C   0  0  0  0  0  0  0  0  0  0  0  0
  -30.4310  -12.5800   19.4500 C   0  0  0  0  0  2  0  0  0  0  0  0
  -29.5060  -12.5640   18.2110 C   0  0  0  0  0  2  0  0  0  0  0  0
  -28.0360  -12.3630   18.6310 C   0  0  0  0  0  2  0  0  0  0  0  0
  -27.6230  -13.2830   19.8090 C   0  0  0  0  0  3  0  0  0  0  0  0
  -28.6680  -13.2700   20.9440 C   0  0  0  0  0  2  0  0  0  0  0  0
  -29.9510  -13.6610   20.3480 N   0  0  0  0  0  0  0  0  0  0  0  0
  -31.7660  -14.9880   20.1840 O   0  0  0  0  0  0  0  0  0  0  0  0
  -29.7660  -16.0640   20.5580 N   0  0  0  0  0  0  0  0  0  0  0  0
  -28.7820  -15.8500   20.6300 H   0  0  0  0  0  0  0  0  0  0  0  0
  -25.2320  -13.8640   20.5200 C   0  0  0  0  0  0  0  0  0  0  0  0
  -24.1650  -13.0890   20.8800 C   0  0  0  0  0  0  0  0  0  0  0  0
  -24.6310  -11.7390   20.8580 C   0  0  0  0  0  0  0  0  0  0  0  0
  -26.2790  -12.9860   20.2930 N   0  0  0  0  0  0  0  0  0  0  0  0
  -25.9260  -11.7040   20.5620 N   0  0  0  0  0  0  0  0  0  0  0  0
  -23.9050  -10.4750   21.0410 C   0  0  0  0  0  0  0  0  0  0  0  0
  -24.3270   -9.5080   21.9800 C   0  0  0  0  0  3  0  0  0  0  0  0
  -23.6000   -8.3110   22.1520 C   0  0  0  0  0  3  0  0  0  0  0  0
  -22.4350   -8.0710   21.3850 C   0  0  0  0  0  0  0  0  0  0  0  0
  -22.0310   -9.0250   20.4340 C   0  0  0  0  0  3  0  0  0  0  0  0
  -22.7610  -10.2140   20.2610 C   0  0  0  0  0  3  0  0  0  0  0  0
  -21.6820   -6.9260   21.4650 O   0  0  0  0  0  0  0  0  0  0  0  0
  -21.6160   -6.1850   22.6180 C   0  0  0  0  0  0  0  0  0  0  0  0
  -21.1680   -6.7430   23.8350 C   0  0  0  0  0  3  0  0  0  0  0  0
  -21.0490   -5.9290   24.9800 C   0  0  0  0  0  3  0  0  0  0  0  0
  -21.3700   -4.5600   24.9100 C   0  0  0  0  0  0  0  0  0  0  0  0
  -21.8120   -4.0040   23.6970 C   0  0  0  0  0  3  0  0  0  0  0  0
  -21.9320   -4.8130   22.5540 C   0  0  0  0  0  0  0  0  0  0  0  0
  -22.3380   -4.2670   21.3820 F   0  0  0  0  0  0  0  0  0  0  0  0
  -21.2500   -3.7770   26.0070 F   0  0  0  0  0  0  0  0  0  0  0  0
  -22.7630  -13.5630   21.1320 C   0  0  0  0  0  0  0  0  0  0  0  0
  -22.0250  -12.8670   21.9900 N   0  0  0  0  0  0  0  0  0  0  0  0
  -22.3310  -14.5870   20.6040 O   0  0  0  0  0  0  0  0  0  0  0  0
  -22.3870  -12.0420   22.4420 H   0  0  0  0  0  0  0  0  0  0  0  0
  -21.0820  -13.1660   22.1980 H   0  0  0  0  0  0  0  0  0  0  0  0
  -25.3930  -15.2340   20.3390 N   0  0  0  0  0  0  0  0  0  0  0  0
  -24.6130  -15.8780   20.4220 H   0  0  0  0  0  0  0  0  0  0  0  0
  -26.2230  -15.6690   19.9600 H   0  0  0  0  0  0  0  0  0  0  0  0
  1  2  1  0
  2  5  1  0
  3  1  1  0
  3  5  1  0
  3  4  1  0
  4  6  1  0
  5  4  1  0
  5 48  1  1
  6  7  1  0
  8 19  2  0
  9  7  1  0
  9 14  1  0
 10 18  1  0
 10 20  1  0
 11 17  1  0
 11 13  1  0
 12 18  1  0
 13 12  1  0
 14 13  2  0
 15  9  2  0
 16 15  1  0
 16 11  2  0
 17 10  1  0
 18  8  1  0
 20 22  2  0
 21 20  1  0
 23 21  1  0
 24 33  2  0
 24 29  1  0
 25 21  1  0
 25 29  1  0
 26 25  1  0
 27 28  1  0
 27 26  1  0
 28 24  1  0
 29 30  2  0
 30 31  1  0
 32 31  2  0
 33 32  1  0
 34  8  1  0
 34 35  1  0
 34 44  1  0
 35 38  1  0
 36 40  1  0
 36 35  1  0
 37 36  2  0
 40 39  1  0
 42 40  1  0
 42 43  1  0
 42 41  1  0
 44 47  1  1
 44 45  1  0
 46 44  1  0
 49 48  1  0
 49 54  1  0
 50 49  1  0
 51 50  1  0
 52 50  1  0
 53 50  1  0
 55 63  1  0
 56 61  1  0
 57 58  1  0
 57 56  1  0
 59 58  1  0
 59 68  1  0
 59 60  1  0
 61 55  1  0
 61 60  1  0
 62 55  2  0
 63 64  1  0
 63 54  1  0
 65 66  2  0
 66 85  1  0
 67 66  1  0
 67 70  1  0
 68 65  1  0
 68 69  1  0
 69 67  2  0
 70 71  1  0
 71 72  2  0
 73 76  1  0
 73 72  1  0
 74 73  2  0
 75 74  1  0
 75 70  2  0
 76 77  1  0
 77 78  1  0
 78 79  2  0
 80 79  1  0
 80 84  1  0
 81 80  2  0
 82 77  2  0
 82 81  1  0
 83 82  1  0
 85 86  1  0
 86 89  1  0
 86 88  1  0
 87 85  2  0
 90 91  1  0
 90 65  1  0
 92 90  1  0
M  ISO  4   6 101   7 101  55 100  63 100
M  END
>  <TORSDO>  (54) 
F 21

>  <SCORE>  (54) 
-13.591

>  <name>  (54) 
54

>  <ligand_id>  (54) 
54

>  <original_smiles>  (54) 
[H]c1c([H])c([H])c2c(c1[H])C([H])([H])C([H])([H])C([H])([H])C2([H])N([H])C(=O)C1([H])N(C(=O)C([H])(N([H])C(=O)C([H])(N([H])C([H])([H])[H])C([H])([H])[H])C(C([H])([H])[H])(C([H])([H])[H])C([H])([H])[H])C([H])([H])c2c([H])c(OC([H])([H])C3([H])C4([H])C([H])([H])C([H])([H])C34C([H])([H])C([H])(C([H])([H])N([H])C(=O)N3C([H])([H])C([H])([H])C([H])([H])C([H])(n4nc(-c5c([H])c([H])c(Oc6c([H])c([H])c(F)c([H])c6F)c([H])c5[H])c(C(=O)N([H])[H])c4N([H])[H])C3([H])[H])[N+]([H])([H])[H])c([H])c([H])c2C1([H])[H]

>  <smiles>  (54) 
[H]c1c([H])c([H])c2c(c1[H])C([H])([H])C([H])([H])C([H])([H])C2([H])N([H])C(=O)C1([H])N(C(=O)C([H])(N([H])C(=O)C([H])(N([H])C([H])([H])[H])C([H])([H])[H])C(C([H])([H])[H])(C([H])([H])[H])C([H])([H])[H])C([H])([H])c2c([H])c(OC([H])([H])C3([H])C4([H])C([H])([H])C([H])([H])C34C([H])([H])C([H])(C([H])([H])N([H])C(=O)N3C([H])([H])C([H])([H])C([H])([H])C([H])(n4nc(-c5c([H])c([H])c(Oc6c([H])c([H])c(F)c([H])c6F)c([H])c5[H])c(C(=O)N([H])[H])c4N([H])[H])C3([H])[H])[N+]([H])([H])[H])c([H])c([H])c2C1([H])[H]

$$$$
55:0:0
     RDKit          3D

 86 95  0  0  1  0  0  0  0  0999 V2000
  -29.9010  -18.8980   18.7230 C   0  0  0  0  0  2  0  0  0  0  0  0
  -27.5350  -20.0550   19.1550 C   0  0  0  0  0  2  0  0  0  0  0  0
  -28.9260  -20.0610   18.5620 C   0  0  0  0  0  3  0  0  0  0  0  0
  -29.7550  -18.7450   20.2460 C   0  0  0  0  0  3  0  0  0  0  0  0
  -28.7360  -20.3180   20.0330 C   0  0  2  0  0  0  0  0  0  0  0  0
  -30.2700  -15.6310   20.3460 C   0  0  0  0  0  0  0  0  0  0  0  0
  -30.3670  -13.0850   19.5660 C   0  0  0  0  0  2  0  0  0  0  0  0
  -29.4980  -12.6850   18.3400 C   0  0  0  0  0  2  0  0  0  0  0  0
  -28.0620  -12.3490   18.7680 C   0  0  0  0  0  2  0  0  0  0  0  0
  -27.5380  -13.3580   19.8160 C   0  0  0  0  0  3  0  0  0  0  0  0
  -28.5490  -13.6710   20.9450 C   0  0  0  0  0  2  0  0  0  0  0  0
  -29.7390  -14.2720   20.3010 N   0  0  0  0  0  0  0  0  0  0  0  0
  -31.5010  -15.5680   20.1740 O   0  0  0  0  0  0  0  0  0  0  0  0
  -29.5220  -16.9930   20.3960 N   0  0  0  0  0  0  0  0  0  0  0  0
  -28.5410  -16.7970   20.5360 H   0  0  0  0  0  0  0  0  0  0  0  0
  -25.1610  -13.8880   20.5380 C   0  0  0  0  0  0  0  0  0  0  0  0
  -24.0990  -13.1070   20.8920 C   0  0  0  0  0  0  0  0  0  0  0  0
  -24.5760  -11.7590   20.8790 C   0  0  0  0  0  0  0  0  0  0  0  0
  -26.2130  -13.0200   20.3150 N   0  0  0  0  0  0  0  0  0  0  0  0
  -25.8740  -11.7310   20.5890 N   0  0  0  0  0  0  0  0  0  0  0  0
  -23.8500  -10.4950   21.0630 C   0  0  0  0  0  0  0  0  0  0  0  0
  -24.2730   -9.5270   22.0000 C   0  0  0  0  0  3  0  0  0  0  0  0
  -23.5440   -8.3320   22.1760 C   0  0  0  0  0  3  0  0  0  0  0  0
  -22.3750   -8.0930   21.4140 C   0  0  0  0  0  0  0  0  0  0  0  0
  -21.9700   -9.0500   20.4660 C   0  0  0  0  0  3  0  0  0  0  0  0
  -22.6990  -10.2370   20.2890 C   0  0  0  0  0  3  0  0  0  0  0  0
  -21.6180   -6.9500   21.4990 O   0  0  0  0  0  0  0  0  0  0  0  0
  -21.5690   -6.2020   22.6480 C   0  0  0  0  0  0  0  0  0  0  0  0
  -21.1520   -6.7540   23.8800 C   0  0  0  0  0  3  0  0  0  0  0  0
  -21.0500   -5.9330   25.0200 C   0  0  0  0  0  3  0  0  0  0  0  0
  -21.3560   -4.5620   24.9310 C   0  0  0  0  0  0  0  0  0  0  0  0
  -21.7660   -4.0100   23.7050 C   0  0  0  0  0  3  0  0  0  0  0  0
  -21.8690   -4.8280   22.5660 C   0  0  0  0  0  0  0  0  0  0  0  0
  -22.2450   -4.2860   21.3820 F   0  0  0  0  0  0  0  0  0  0  0  0
  -21.2510   -3.7710   26.0250 F   0  0  0  0  0  0  0  0  0  0  0  0
  -22.6950  -13.5790   21.1280 C   0  0  0  0  0  0  0  0  0  0  0  0
  -21.9540  -12.8910   21.9880 N   0  0  0  0  0  0  0  0  0  0  0  0
  -22.2650  -14.5960   20.5840 O   0  0  0  0  0  0  0  0  0  0  0  0
  -22.3160  -12.0710   22.4500 H   0  0  0  0  0  0  0  0  0  0  0  0
  -21.0100  -13.1900   22.1890 H   0  0  0  0  0  0  0  0  0  0  0  0
  -25.3170  -15.2590   20.3500 N   0  0  0  0  0  0  0  0  0  0  0  0
  -24.5380  -15.9030   20.4320 H   0  0  0  0  0  0  0  0  0  0  0  0
  -26.1550  -15.6950   19.9900 H   0  0  0  0  0  0  0  0  0  0  0  0
  -28.9210  -22.1730   20.4040 C   0  0  0  0  0  3  0  0  0  0  0  0
  -27.9840  -23.8300   20.0510 C   0  0  0  0  0  3  0  0  0  0  0  0
  -28.1260  -25.5670   20.2490 O   0  0  0  0  0  0  0  0  0  0  0  0
  -24.6080  -31.8270   23.1410 C   0  0  0  0  0  0  0  0  0  0  0  0
  -27.1400  -26.7600   20.1710 C   0  0  0  0  0  0  0  0  0  0  0  0
  -23.4140  -30.4130   21.5240 C   0  0  0  0  0  3  0  0  0  0  0  0
  -24.8570  -28.7640   20.1110 C   0  0  0  0  0  0  0  0  0  0  0  0
  -25.9890  -30.5730   21.3790 C   0  0  0  0  0  2  0  0  0  0  0  0
  -26.0540  -29.1380   20.7330 C   0  0  0  0  0  0  0  0  0  0  0  0
  -27.1790  -28.1620   20.7310 C   0  0  0  0  0  3  0  0  0  0  0  0
  -25.9090  -26.5890   19.4920 C   0  0  0  0  0  3  0  0  0  0  0  0
  -24.8210  -27.5140   19.4660 C   0  0  0  0  0  3  0  0  0  0  0  0
  -23.6440  -29.7060   20.1570 C   0  0  0  0  0  2  0  0  0  0  0  0
  -24.6940  -30.9710   22.0660 N   0  0  0  0  0  0  0  0  0  0  0  0
  -23.5180  -32.1260   23.6590 O   0  0  0  0  0  0  0  0  0  0  0  0
  -22.7100  -29.4390   22.5090 C   0  0  0  0  0  0  0  0  0  0  0  0
  -21.3770  -29.2820   22.3990 N   0  0  0  0  0  0  0  0  0  0  0  0
  -23.3750  -28.8210   23.3430 O   0  0  0  0  0  0  0  0  0  0  0  0
  -20.8880  -29.8310   21.7050 H   0  0  0  0  0  0  0  0  0  0  0  0
  -17.9970  -28.0650   22.9490 C   0  0  0  0  0  0  0  0  0  0  0  0
  -20.5590  -28.3500   23.1850 C   0  0  0  0  0  3  0  0  0  0  0  0
  -20.6620  -26.9120   22.6250 C   0  0  0  0  0  2  0  0  0  0  0  0
  -19.5530  -26.5750   21.6230 C   0  0  0  0  0  2  0  0  0  0  0  0
  -18.1760  -26.7150   22.2770 C   0  0  0  0  0  2  0  0  0  0  0  0
  -19.1150  -28.8400   23.3610 C   0  0  0  0  0  0  0  0  0  0  0  0
  -18.8890  -30.1010   23.9550 C   0  0  0  0  0  3  0  0  0  0  0  0
  -17.5810  -30.5880   24.1370 C   0  0  0  0  0  3  0  0  0  0  0  0
  -16.4790  -29.8130   23.7380 C   0  0  0  0  0  3  0  0  0  0  0  0
  -16.6880  -28.5530   23.1500 C   0  0  0  0  0  3  0  0  0  0  0  0
  -25.8750  -32.4860   23.7680 C   0  0  0  0  0  3  0  0  0  0  0  0
  -25.5420  -33.8820   24.1160 N   0  0  0  0  0  0  0  0  0  0  0  0
  -25.8530  -34.9570   23.3780 C   0  0  0  0  0  0  0  0  0  0  0  0
  -26.5070  -34.8790   22.3360 O   0  0  0  0  0  0  0  0  0  0  0  0
  -24.9570  -34.0150   24.9290 H   0  0  0  0  0  0  0  0  0  0  0  0
  -24.0990  -36.7460   23.1040 C   0  0  0  0  0  1  0  0  0  0  0  0
  -25.3650  -36.3360   23.8720 C   0  0  0  0  0  3  0  0  0  0  0  0
  -27.5110  -37.2380   24.6610 C   0  0  0  0  0  1  0  0  0  0  0  0
  -26.3840  -37.4020   23.7470 N   0  0  0  0  0  0  0  0  0  0  0  0
  -25.9720  -38.3170   23.9130 H   0  0  0  0  0  0  0  0  0  0  0  0
  -26.3970  -31.7260   25.0510 C   0  0  1  0  0  0  0  0  0  0  0  0
  -25.3080  -31.4940   26.1260 C   0  0  0  0  0  1  0  0  0  0  0  0
  -26.9830  -30.3460   24.6790 C   0  0  0  0  0  1  0  0  0  0  0  0
  -27.5470  -32.5290   25.7030 C   0  0  0  0  0  1  0  0  0  0  0  0
  1  4  1  0
  2  5  1  0
  3  1  1  0
  3  2  1  0
  3  5  1  0
  4 14  1  0
  5  4  1  0
  5 44  1  1
  6 14  1  0
  7 12  1  0
  8  9  1  0
  8  7  1  0
 10  9  1  0
 10 19  1  0
 10 11  1  0
 12  6  1  0
 12 11  1  0
 13  6  2  0
 14 15  1  0
 16 17  2  0
 17 36  1  0
 18 17  1  0
 18 21  1  0
 19 16  1  0
 19 20  1  0
 20 18  2  0
 21 22  1  0
 22 23  2  0
 24 27  1  0
 24 23  1  0
 25 24  2  0
 26 25  1  0
 26 21  2  0
 27 28  1  0
 28 29  1  0
 29 30  2  0
 31 30  1  0
 31 35  1  0
 32 31  2  0
 33 28  2  0
 33 32  1  0
 34 33  1  0
 36 37  1  0
 37 40  1  0
 37 39  1  0
 38 36  2  0
 41 42  1  0
 41 16  1  0
 43 41  1  0
 45 46  1  0
 45 44  2  0
 47 58  2  0
 48 46  1  0
 48 53  1  0
 49 57  1  0
 49 59  1  0
 50 56  1  0
 50 52  1  0
 51 57  1  0
 52 51  1  0
 53 52  2  0
 54 48  2  0
 55 54  1  0
 55 50  2  0
 56 49  1  0
 57 47  1  0
 59 61  2  0
 60 59  1  0
 62 60  1  0
 63 72  2  0
 63 68  1  0
 64 60  1  0
 64 68  1  0
 65 64  1  0
 66 67  1  0
 66 65  1  0
 67 63  1  0
 68 69  2  0
 69 70  1  0
 71 70  2  0
 72 71  1  0
 73 47  1  0
 73 74  1  0
 73 83  1  0
 74 77  1  0
 75 79  1  0
 75 74  1  0
 76 75  2  0
 79 78  1  0
 81 79  1  0
 81 82  1  0
 81 80  1  0
 83 86  1  1
 83 84  1  0
 85 83  1  0
M  ISO  4   6 100  14 100  45 101  46 101
M  END
>  <TORSDO>  (55) 
F 18

>  <SCORE>  (55) 
-16.374

>  <name>  (55) 
55

>  <ligand_id>  (55) 
55

>  <original_smiles>  (55) 
[H]c1c([H])c([H])c2c(c1[H])C([H])([H])C([H])([H])C([H])([H])C2([H])N([H])C(=O)C1([H])N(C(=O)C([H])(N([H])C(=O)C([H])(N([H])C([H])([H])[H])C([H])([H])[H])C(C([H])([H])[H])(C([H])([H])[H])C([H])([H])[H])C([H])([H])c2c([H])c(OC([H])([H])C([H])([H])C34C([H])([H])C3([H])C([H])([H])C4([H])N([H])C(=O)N3C([H])([H])C([H])([H])C([H])([H])C([H])(n4nc(-c5c([H])c([H])c(Oc6c([H])c([H])c(F)c([H])c6F)c([H])c5[H])c(C(=O)N([H])[H])c4N([H])[H])C3([H])[H])c([H])c([H])c2C1([H])[H]

>  <smiles>  (55) 
[H]c1c([H])c([H])c2c(c1[H])C([H])([H])C([H])([H])C([H])([H])C2([H])N([H])C(=O)C1([H])N(C(=O)C([H])(N([H])C(=O)C([H])(N([H])C([H])([H])[H])C([H])([H])[H])C(C([H])([H])[H])(C([H])([H])[H])C([H])([H])[H])C([H])([H])c2c([H])c(OC([H])([H])C([H])([H])C34C([H])([H])C3([H])C([H])([H])C4([H])N([H])C(=O)N3C([H])([H])C([H])([H])C([H])([H])C([H])(n4nc(-c5c([H])c([H])c(Oc6c([H])c([H])c(F)c([H])c6F)c([H])c5[H])c(C(=O)N([H])[H])c4N([H])[H])C3([H])[H])c([H])c([H])c2C1([H])[H]

$$$$
56:0:0
     RDKit          3D

 90 99  0  0  1  0  0  0  0  0999 V2000
  -28.7940  -22.9430   20.5410 N   0  0  0  0  0  4  0  0  0  0  0  0
  -29.6150  -22.9760   21.1250 H   0  0  0  0  0  0  0  0  0  0  0  0
  -27.9980  -22.8180   21.1480 H   0  0  0  0  0  0  0  0  0  0  0  0
  -28.8880  -21.7440   19.6620 C   0  0  0  0  0  2  0  0  0  0  0  0
  -29.0380  -20.4030   20.4390 C   0  0  0  0  0  2  0  0  0  0  0  0
  -29.8110  -18.6660   18.5430 C   0  0  0  0  0  2  0  0  0  0  0  0
  -29.7700  -17.2900   19.1750 C   0  0  0  0  0  3  0  0  0  0  0  0
  -28.8420  -17.8070   20.2500 C   0  0  0  0  0  3  0  0  0  0  0  0
  -28.7850  -19.1660   19.5560 C   0  0  0  0  0  3  0  0  0  0  0  0
  -30.1100  -17.0350   20.6290 C   0  0  0  0  0  3  0  0  0  0  0  0
  -29.9880  -15.6380   21.2610 C   0  0  0  0  0  2  0  0  0  0  0  0
  -30.6420  -14.4720   20.4740 C   0  0  0  0  0  0  0  0  0  0  0  0
  -30.3380  -12.3420   19.2500 C   0  0  0  0  0  2  0  0  0  0  0  0
  -29.3710  -12.5770   18.0710 C   0  0  0  0  0  2  0  0  0  0  0  0
  -27.9010  -12.4460   18.5230 C   0  0  0  0  0  2  0  0  0  0  0  0
  -27.5980  -13.2530   19.8150 C   0  0  0  0  0  3  0  0  0  0  0  0
  -28.6690  -12.9610   20.8900 C   0  0  0  0  0  2  0  0  0  0  0  0
  -29.9810  -13.2910   20.3160 N   0  0  0  0  0  0  0  0  0  0  0  0
  -31.7390  -14.6780   19.9410 O   0  0  0  0  0  0  0  0  0  0  0  0
  -25.2090  -13.8840   20.5420 C   0  0  0  0  0  0  0  0  0  0  0  0
  -24.1390  -13.1200   20.9230 C   0  0  0  0  0  0  0  0  0  0  0  0
  -24.5880  -11.7650   20.8870 C   0  0  0  0  0  0  0  0  0  0  0  0
  -26.2460  -12.9940   20.3040 N   0  0  0  0  0  0  0  0  0  0  0  0
  -25.8740  -11.7140   20.5640 N   0  0  0  0  0  0  0  0  0  0  0  0
  -23.8530  -10.5090   21.0850 C   0  0  0  0  0  0  0  0  0  0  0  0
  -24.3080   -9.5240   21.9890 C   0  0  0  0  0  3  0  0  0  0  0  0
  -23.5750   -8.3320   22.1750 C   0  0  0  0  0  3  0  0  0  0  0  0
  -22.3740   -8.1170   21.4580 C   0  0  0  0  0  0  0  0  0  0  0  0
  -21.9380   -9.0920   20.5430 C   0  0  0  0  0  3  0  0  0  0  0  0
  -22.6720  -10.2740   20.3540 C   0  0  0  0  0  3  0  0  0  0  0  0
  -21.6110   -6.9790   21.5560 O   0  0  0  0  0  0  0  0  0  0  0  0
  -21.6130   -6.2060   22.6890 C   0  0  0  0  0  0  0  0  0  0  0  0
  -21.2800   -6.7370   23.9540 C   0  0  0  0  0  3  0  0  0  0  0  0
  -21.2270   -5.8910   25.0800 C   0  0  0  0  0  3  0  0  0  0  0  0
  -21.4960   -4.5160   24.9430 C   0  0  0  0  0  0  0  0  0  0  0  0
  -21.8240   -3.9860   23.6830 C   0  0  0  0  0  3  0  0  0  0  0  0
  -21.8780   -4.8270   22.5590 C   0  0  0  0  0  0  0  0  0  0  0  0
  -22.1730   -4.3060   21.3440 F   0  0  0  0  0  0  0  0  0  0  0  0
  -21.4380   -3.7030   26.0240 F   0  0  0  0  0  0  0  0  0  0  0  0
  -22.7480  -13.6090   21.2130 C   0  0  0  0  0  0  0  0  0  0  0  0
  -22.0260  -12.9190   22.0890 N   0  0  0  0  0  0  0  0  0  0  0  0
  -22.3110  -14.6380   20.6990 O   0  0  0  0  0  0  0  0  0  0  0  0
  -22.3940  -12.0870   22.5280 H   0  0  0  0  0  0  0  0  0  0  0  0
  -21.0940  -13.2280   22.3250 H   0  0  0  0  0  0  0  0  0  0  0  0
  -25.3830  -15.2520   20.3620 N   0  0  0  0  0  0  0  0  0  0  0  0
  -24.6240  -15.9150   20.4780 H   0  0  0  0  0  0  0  0  0  0  0  0
  -26.2360  -15.6820   20.0250 H   0  0  0  0  0  0  0  0  0  0  0  0
  -28.6510  -24.2460   19.8230 C   0  0  0  0  0  2  0  0  0  0  0  0
  -28.3680  -25.4340   20.7780 C   0  0  0  0  0  2  0  0  0  0  0  0
  -28.4030  -26.7140   20.1170 O   0  0  0  0  0  0  0  0  0  0  0  0
  -24.6160  -31.8890   23.2320 C   0  0  0  0  0  0  0  0  0  0  0  0
  -27.2320  -27.4400   20.1420 C   0  0  0  0  0  0  0  0  0  0  0  0
  -23.3940  -30.4840   21.6030 C   0  0  0  0  0  3  0  0  0  0  0  0
  -24.8350  -28.9390   20.1710 C   0  0  0  0  0  0  0  0  0  0  0  0
  -25.9160  -30.8440   21.3780 C   0  0  0  0  0  2  0  0  0  0  0  0
  -25.9970  -29.4700   20.7420 C   0  0  0  0  0  0  0  0  0  0  0  0
  -27.2020  -28.7310   20.7180 C   0  0  0  0  0  3  0  0  0  0  0  0
  -26.0530  -26.9180   19.5680 C   0  0  0  0  0  3  0  0  0  0  0  0
  -24.8570  -27.6620   19.5800 C   0  0  0  0  0  3  0  0  0  0  0  0
  -23.5890  -29.7970   20.2240 C   0  0  0  0  0  2  0  0  0  0  0  0
  -24.6600  -31.0870   22.1290 N   0  0  0  0  0  0  0  0  0  0  0  0
  -23.5400  -32.1620   23.7820 O   0  0  0  0  0  0  0  0  0  0  0  0
  -22.7510  -29.4660   22.5720 C   0  0  0  0  0  0  0  0  0  0  0  0
  -21.4250  -29.2830   22.4560 N   0  0  0  0  0  0  0  0  0  0  0  0
  -23.4410  -28.8420   23.3830 O   0  0  0  0  0  0  0  0  0  0  0  0
  -20.9300  -29.8380   21.7720 H   0  0  0  0  0  0  0  0  0  0  0  0
  -18.0570  -28.0830   22.9720 C   0  0  0  0  0  0  0  0  0  0  0  0
  -20.6140  -28.3490   23.2350 C   0  0  0  0  0  3  0  0  0  0  0  0
  -20.7190  -26.9140   22.6660 C   0  0  0  0  0  2  0  0  0  0  0  0
  -19.6140  -26.5840   21.6570 C   0  0  0  0  0  2  0  0  0  0  0  0
  -18.2350  -26.7300   22.3040 C   0  0  0  0  0  2  0  0  0  0  0  0
  -19.1750  -28.8500   23.3950 C   0  0  0  0  0  0  0  0  0  0  0  0
  -18.9560  -30.1160   23.9790 C   0  0  0  0  0  3  0  0  0  0  0  0
  -17.6500  -30.6170   24.1440 C   0  0  0  0  0  3  0  0  0  0  0  0
  -16.5460  -29.8460   23.7390 C   0  0  0  0  0  3  0  0  0  0  0  0
  -16.7510  -28.5820   23.1590 C   0  0  0  0  0  3  0  0  0  0  0  0
  -25.9090  -32.5190   23.8380 C   0  0  0  0  0  3  0  0  0  0  0  0
  -25.6030  -33.9150   24.1780 N   0  0  0  0  0  0  0  0  0  0  0  0
  -25.9260  -34.9710   23.4210 C   0  0  0  0  0  0  0  0  0  0  0  0
  -26.5860  -34.8730   22.3820 O   0  0  0  0  0  0  0  0  0  0  0  0
  -25.0160  -34.0650   24.9860 H   0  0  0  0  0  0  0  0  0  0  0  0
  -24.1900  -36.7600   23.0920 C   0  0  0  0  0  1  0  0  0  0  0  0
  -25.4410  -36.3560   23.8890 C   0  0  0  0  0  3  0  0  0  0  0  0
  -27.5850  -37.2390   24.6960 C   0  0  0  0  0  1  0  0  0  0  0  0
  -26.4700  -37.4110   23.7680 N   0  0  0  0  0  0  0  0  0  0  0  0
  -26.0650  -38.3300   23.9260 H   0  0  0  0  0  0  0  0  0  0  0  0
  -26.4470  -31.7410   25.1010 C   0  0  1  0  0  0  0  0  0  0  0  0
  -25.3710  -31.4960   26.1850 C   0  0  0  0  0  1  0  0  0  0  0  0
  -27.0240  -30.3670   24.6900 C   0  0  0  0  0  1  0  0  0  0  0  0
  -27.6070  -32.5320   25.7490 C   0  0  0  0  0  1  0  0  0  0  0  0
  1  2  1  0
  1  3  1  0
  4  5  1  0
  4  1  1  0
  6  9  1  0
  7  6  1  0
  7  8  1  0
  7 10  1  0
  8 10  1  0
  9  8  1  0
  9  5  1  0
 10 11  1  0
 12 11  1  0
 13 18  1  0
 14 15  1  0
 14 13  1  0
 15 16  1  0
 16 23  1  0
 16 17  1  0
 18 12  1  0
 18 17  1  0
 19 12  2  0
 20 21  2  0
 21 40  1  0
 22 21  1  0
 22 25  1  0
 23 20  1  0
 23 24  1  0
 24 22  2  0
 25 26  1  0
 26 27  2  0
 28 31  1  0
 28 27  1  0
 29 28  2  0
 30 29  1  0
 30 25  2  0
 31 32  1  0
 32 33  1  0
 33 34  2  0
 35 34  1  0
 35 39  1  0
 36 35  2  0
 37 32  2  0
 37 36  1  0
 38 37  1  0
 40 41  1  0
 41 44  1  0
 41 43  1  0
 42 40  2  0
 45 46  1  0
 45 20  1  0
 47 45  1  0
 48  1  1  0
 48 49  1  0
 50 52  1  0
 50 49  1  0
 51 62  2  0
 51 77  1  0
 52 57  1  0
 53 61  1  0
 53 63  1  0
 54 60  1  0
 54 56  1  0
 55 61  1  0
 56 55  1  0
 57 56  2  0
 58 59  1  0
 58 52  2  0
 59 54  2  0
 60 53  1  0
 61 51  1  0
 63 65  2  0
 64 63  1  0
 64 68  1  0
 66 64  1  0
 67 76  2  0
 67 72  1  0
 68 72  1  0
 69 68  1  0
 70 71  1  0
 70 69  1  0
 71 67  1  0
 72 73  2  0
 73 74  1  0
 75 74  2  0
 76 75  1  0
 77 78  1  0
 77 87  1  0
 78 81  1  0
 79 83  1  0
 79 78  1  0
 80 79  2  0
 82 83  1  0
 85 83  1  0
 85 86  1  0
 85 84  1  0
 87 90  1  1
 87 88  1  0
 89 87  1  0
M  ISO  4  11 100  12 100  49 101  50 101
M  END
>  <TORSDO>  (56) 
F 22

>  <SCORE>  (56) 
-13.140

>  <name>  (56) 
56

>  <ligand_id>  (56) 
56

>  <original_smiles>  (56) 
[H]c1c([H])c([H])c2c(c1[H])C([H])([H])C([H])([H])C([H])([H])C2([H])N([H])C(=O)C1([H])N(C(=O)C([H])(N([H])C(=O)C([H])(N([H])C([H])([H])[H])C([H])([H])[H])C(C([H])([H])[H])(C([H])([H])[H])C([H])([H])[H])C([H])([H])c2c([H])c(OC([H])([H])C([H])([H])[N+]([H])([H])C([H])([H])C([H])([H])C3([H])C([H])([H])C4([H])C([H])(C([H])([H])C(=O)N5C([H])([H])C([H])([H])C([H])([H])C([H])(n6nc(-c7c([H])c([H])c(Oc8c([H])c([H])c(F)c([H])c8F)c([H])c7[H])c(C(=O)N([H])[H])c6N([H])[H])C5([H])[H])C34[H])c([H])c([H])c2C1([H])[H]

>  <smiles>  (56) 
[H]c1c([H])c([H])c2c(c1[H])C([H])([H])C([H])([H])C([H])([H])C2([H])N([H])C(=O)C1([H])N(C(=O)C([H])(N([H])C(=O)C([H])(N([H])C([H])([H])[H])C([H])([H])[H])C(C([H])([H])[H])(C([H])([H])[H])C([H])([H])[H])C([H])([H])c2c([H])c(OC([H])([H])C([H])([H])[N+]([H])([H])C([H])([H])C([H])([H])C3([H])C([H])([H])C4([H])C([H])(C([H])([H])C(=O)N5C([H])([H])C([H])([H])C([H])([H])C([H])(n6nc(-c7c([H])c([H])c(Oc8c([H])c([H])c(F)c([H])c8F)c([H])c7[H])c(C(=O)N([H])[H])c6N([H])[H])C5([H])[H])C34[H])c([H])c([H])c2C1([H])[H]

$$$$
57:0:0
     RDKit          3D

 95104  0  0  1  0  0  0  0  0999 V2000
  -28.6580  -18.9460   20.9940 C   0  0  0  0  0  2  0  0  0  0  0  0
  -28.1460  -20.3830   20.7080 C   0  0  0  0  0  2  0  0  0  0  0  0
  -29.4260  -23.4140   21.0750 C   0  0  0  0  0  2  0  0  0  0  0  0
  -30.0120  -19.9220   19.2920 C   0  0  0  0  0  2  0  0  0  0  0  0
  -28.7180  -22.3460   19.0540 C   0  0  0  0  0  2  0  0  0  0  0  0
  -30.1060  -22.0090   21.0240 C   0  0  0  0  0  3  0  0  0  0  0  0
  -29.4040  -18.5240   19.7270 C   0  0  0  0  0  3  0  0  0  0  0  0
  -29.0570  -23.7880   19.6290 C   0  0  0  0  0  3  0  0  0  0  0  0
  -29.2780  -21.1700   19.9840 C   0  0  1  0  0  0  0  0  0  0  0  0
  -31.6100  -22.1800   20.7040 C   0  0  0  0  0  0  0  0  0  0  0  0
  -32.4840  -21.7470   21.6040 N   0  0  0  0  0  0  0  0  0  0  0  0
  -31.9960  -22.6980   19.6580 O   0  0  0  0  0  0  0  0  0  0  0  0
  -32.1700  -21.3240   22.4670 H   0  0  0  0  0  0  0  0  0  0  0  0
  -33.4750  -21.8460   21.4390 H   0  0  0  0  0  0  0  0  0  0  0  0
  -30.4110  -17.2730   19.8410 C   0  0  0  0  0  2  0  0  0  0  0  0
  -30.6060  -14.7040   19.7010 C   0  0  0  0  0  0  0  0  0  0  0  0
  -30.2760  -12.4450   18.7140 C   0  0  0  0  0  2  0  0  0  0  0  0
  -29.2360  -12.5310   17.5770 C   0  0  0  0  0  2  0  0  0  0  0  0
  -27.8100  -12.3700   18.1370 C   0  0  0  0  0  2  0  0  0  0  0  0
  -27.5500  -13.2650   19.3770 C   0  0  0  0  0  3  0  0  0  0  0  0
  -28.7010  -13.1740   20.4020 C   0  0  0  0  0  2  0  0  0  0  0  0
  -29.9460  -13.5000   19.6950 N   0  0  0  0  0  0  0  0  0  0  0  0
  -31.7530  -14.7880   19.2570 O   0  0  0  0  0  0  0  0  0  0  0  0
  -29.9000  -15.8510   19.9990 N   0  0  0  0  0  0  0  0  0  0  0  0
  -28.9500  -15.7300   20.3150 H   0  0  0  0  0  0  0  0  0  0  0  0
  -25.2510  -13.8670   20.3470 C   0  0  0  0  0  0  0  0  0  0  0  0
  -24.2110  -13.0960   20.7910 C   0  0  0  0  0  0  0  0  0  0  0  0
  -24.6460  -11.7390   20.6740 C   0  0  0  0  0  0  0  0  0  0  0  0
  -26.2520  -12.9810   19.9850 N   0  0  0  0  0  0  0  0  0  0  0  0
  -25.9010  -11.6940   20.2440 N   0  0  0  0  0  0  0  0  0  0  0  0
  -23.9200  -10.4820   20.8910 C   0  0  0  0  0  0  0  0  0  0  0  0
  -24.3860   -9.5050   21.7990 C   0  0  0  0  0  3  0  0  0  0  0  0
  -23.6590   -8.3130   22.0050 C   0  0  0  0  0  3  0  0  0  0  0  0
  -22.4510   -8.0880   21.3030 C   0  0  0  0  0  0  0  0  0  0  0  0
  -22.0030   -9.0530   20.3830 C   0  0  0  0  0  3  0  0  0  0  0  0
  -22.7310  -10.2370   20.1760 C   0  0  0  0  0  3  0  0  0  0  0  0
  -21.6910   -6.9480   21.4200 O   0  0  0  0  0  0  0  0  0  0  0  0
  -21.6500   -6.2280   22.5860 C   0  0  0  0  0  0  0  0  0  0  0  0
  -21.1520   -6.7810   23.7870 C   0  0  0  0  0  3  0  0  0  0  0  0
  -21.0630   -5.9830   24.9450 C   0  0  0  0  0  3  0  0  0  0  0  0
  -21.4610   -4.6340   24.9050 C   0  0  0  0  0  0  0  0  0  0  0  0
  -21.9500   -4.0800   23.7080 C   0  0  0  0  0  3  0  0  0  0  0  0
  -22.0430   -4.8750   22.5520 C   0  0  0  0  0  0  0  0  0  0  0  0
  -22.4960   -4.3300   21.3980 F   0  0  0  0  0  0  0  0  0  0  0  0
  -21.3680   -3.8650   26.0140 F   0  0  0  0  0  0  0  0  0  0  0  0
  -22.8530  -13.5830   21.2070 C   0  0  0  0  0  0  0  0  0  0  0  0
  -22.1980  -12.8710   22.1180 N   0  0  0  0  0  0  0  0  0  0  0  0
  -22.3850  -14.6280   20.7600 O   0  0  0  0  0  0  0  0  0  0  0  0
  -22.5920  -12.0240   22.5010 H   0  0  0  0  0  0  0  0  0  0  0  0
  -21.2930  -13.1790   22.4390 H   0  0  0  0  0  0  0  0  0  0  0  0
  -25.4190  -15.2400   20.1980 N   0  0  0  0  0  0  0  0  0  0  0  0
  -24.6730  -15.8960   20.3980 H   0  0  0  0  0  0  0  0  0  0  0  0
  -26.2320  -15.6800   19.7850 H   0  0  0  0  0  0  0  0  0  0  0  0
  -27.9810  -24.9640   19.4230 C   0  0  0  0  0  2  0  0  0  0  0  0
  -28.2390  -26.4050   19.7300 O   0  0  0  0  0  0  0  0  0  0  0  0
  -24.5690  -31.6510   23.1200 C   0  0  0  0  0  0  0  0  0  0  0  0
  -27.1330  -27.2840   19.7360 C   0  0  0  0  0  0  0  0  0  0  0  0
  -23.3370  -30.3420   21.4300 C   0  0  0  0  0  3  0  0  0  0  0  0
  -24.7650  -28.8980   19.8750 C   0  0  0  0  0  0  0  0  0  0  0  0
  -25.8740  -30.6880   21.2070 C   0  0  0  0  0  2  0  0  0  0  0  0
  -25.9470  -29.3500   20.4740 C   0  0  0  0  0  0  0  0  0  0  0  0
  -27.1340  -28.5580   20.3940 C   0  0  0  0  0  3  0  0  0  0  0  0
  -25.9230  -26.9020   19.1070 C   0  0  0  0  0  3  0  0  0  0  0  0
  -24.7570  -27.6820   19.1810 C   0  0  0  0  0  3  0  0  0  0  0  0
  -23.5240  -29.7580   20.0050 C   0  0  0  0  0  2  0  0  0  0  0  0
  -24.6140  -30.9070   21.9750 N   0  0  0  0  0  0  0  0  0  0  0  0
  -23.4960  -31.8860   23.6940 O   0  0  0  0  0  0  0  0  0  0  0  0
  -22.7060  -29.2630   22.3410 C   0  0  0  0  0  0  0  0  0  0  0  0
  -21.3860  -29.0510   22.2050 N   0  0  0  0  0  0  0  0  0  0  0  0
  -23.4030  -28.6220   23.1330 O   0  0  0  0  0  0  0  0  0  0  0  0
  -20.8830  -29.6230   21.5420 H   0  0  0  0  0  0  0  0  0  0  0  0
  -18.0430  -27.7400   22.6580 C   0  0  0  0  0  0  0  0  0  0  0  0
  -20.5950  -28.0560   22.9320 C   0  0  0  0  0  3  0  0  0  0  0  0
  -20.7330  -26.6560   22.2910 C   0  0  0  0  0  2  0  0  0  0  0  0
  -19.6360  -26.3510   21.2650 C   0  0  0  0  0  2  0  0  0  0  0  0
  -18.2530  -26.4290   21.9190 C   0  0  0  0  0  2  0  0  0  0  0  0
  -19.1430  -28.5110   23.1190 C   0  0  0  0  0  0  0  0  0  0  0  0
  -18.8910  -29.7380   23.7700 C   0  0  0  0  0  3  0  0  0  0  0  0
  -17.5730  -30.1950   23.9640 C   0  0  0  0  0  3  0  0  0  0  0  0
  -16.4900  -29.4200   23.5170 C   0  0  0  0  0  3  0  0  0  0  0  0
  -16.7250  -28.1940   22.8700 C   0  0  0  0  0  3  0  0  0  0  0  0
  -25.8600  -32.2580   23.7470 C   0  0  0  0  0  3  0  0  0  0  0  0
  -26.3800  -31.4520   25.0010 C   0  0  1  0  0  0  0  0  0  0  0  0
  -25.2910  -31.1930   26.0690 C   0  0  0  0  0  1  0  0  0  0  0  0
  -26.9530  -30.0800   24.5720 C   0  0  0  0  0  1  0  0  0  0  0  0
  -27.5380  -32.2230   25.6750 C   0  0  0  0  0  1  0  0  0  0  0  0
  -25.5630  -33.6500   24.1160 N   0  0  0  0  0  0  0  0  0  0  0  0
  -25.8470  -34.7170   23.3580 C   0  0  0  0  0  0  0  0  0  0  0  0
  -26.4580  -34.6330   22.2880 O   0  0  0  0  0  0  0  0  0  0  0  0
  -25.0140  -33.7880   24.9510 H   0  0  0  0  0  0  0  0  0  0  0  0
  -24.0780  -36.4940   23.1520 C   0  0  0  0  0  1  0  0  0  0  0  0
  -25.3810  -36.0960   23.8640 C   0  0  0  0  0  3  0  0  0  0  0  0
  -27.5510  -37.0110   24.5600 C   0  0  0  0  0  1  0  0  0  0  0  0
  -26.3910  -37.1610   23.6840 N   0  0  0  0  0  0  0  0  0  0  0  0
  -25.9840  -38.0770   23.8510 H   0  0  0  0  0  0  0  0  0  0  0  0
  2  1  1  0
  4  7  1  0
  9  4  1  6
  5  8  1  0
  6 10  1  0
  6  3  1  0
  7 15  1  0
  7  1  1  0
  8 54  1  0
  8  3  1  0
  9  5  1  0
  9  2  1  0
  9  6  1  0
 10 11  1  0
 11 13  1  0
 12 10  2  0
 14 11  1  0
 15 24  1  0
 16 24  1  0
 17 22  1  0
 18 19  1  0
 18 17  1  0
 20 19  1  0
 20 29  1  0
 20 21  1  0
 22 16  1  0
 22 21  1  0
 23 16  2  0
 24 25  1  0
 26 27  2  0
 27 46  1  0
 28 27  1  0
 28 31  1  0
 29 30  1  0
 29 26  1  0
 30 28  2  0
 31 32  1  0
 32 33  2  0
 34 37  1  0
 34 33  1  0
 35 34  2  0
 36 35  1  0
 36 31  2  0
 37 38  1  0
 38 39  1  0
 39 40  2  0
 41 40  1  0
 41 45  1  0
 42 41  2  0
 43 38  2  0
 43 42  1  0
 44 43  1  0
 46 47  1  0
 47 50  1  0
 47 49  1  0
 48 46  2  0
 51 26  1  0
 51 52  1  0
 53 51  1  0
 54 55  1  0
 55 57  1  0
 56 67  2  0
 57 62  1  0
 58 66  1  0
 58 68  1  0
 59 65  1  0
 59 61  1  0
 60 66  1  0
 61 60  1  0
 62 61  2  0
 63 64  1  0
 63 57  2  0
 64 59  2  0
 65 58  1  0
 66 56  1  0
 68 70  2  0
 69 68  1  0
 71 69  1  0
 72 81  2  0
 72 77  1  0
 73 69  1  0
 73 77  1  0
 74 73  1  0
 75 76  1  0
 75 74  1  0
 76 72  1  0
 77 78  2  0
 78 79  1  0
 80 79  2  0
 81 80  1  0
 82 56  1  0
 82 87  1  0
 82 83  1  0
 83 86  1  1
 83 84  1  0
 85 83  1  0
 87 90  1  0
 88 92  1  0
 88 87  1  0
 89 88  2  0
 92 91  1  0
 94 95  1  0
 94 92  1  0
 94 93  1  0
M  ISO  4  16 100  24 100  54 101  55 101
M  END
>  <TORSDO>  (57) 
F 19

>  <SCORE>  (57) 
-13.329

>  <name>  (57) 
57

>  <ligand_id>  (57) 
57

>  <original_smiles>  (57) 
[H]c1c([H])c([H])c2c(c1[H])C([H])([H])C([H])([H])C([H])([H])C2([H])N([H])C(=O)C1([H])N(C(=O)C([H])(N([H])C(=O)C([H])(N([H])C([H])([H])[H])C([H])([H])[H])C(C([H])([H])[H])(C([H])([H])[H])C([H])([H])[H])C([H])([H])c2c([H])c(OC([H])([H])C3([H])C([H])([H])C([H])(C(=O)N([H])[H])C4(C([H])([H])C([H])([H])C([H])(C([H])([H])N([H])C(=O)N5C([H])([H])C([H])([H])C([H])([H])C([H])(n6nc(-c7c([H])c([H])c(Oc8c([H])c([H])c(F)c([H])c8F)c([H])c7[H])c(C(=O)N([H])[H])c6N([H])[H])C5([H])[H])C4([H])[H])C3([H])[H])c([H])c([H])c2C1([H])[H]

>  <smiles>  (57) 
[H]c1c([H])c([H])c2c(c1[H])C([H])([H])C([H])([H])C([H])([H])C2([H])N([H])C(=O)C1([H])N(C(=O)C([H])(N([H])C(=O)C([H])(N([H])C([H])([H])[H])C([H])([H])[H])C(C([H])([H])[H])(C([H])([H])[H])C([H])([H])[H])C([H])([H])c2c([H])c(OC([H])([H])C3([H])C([H])([H])C([H])(C(=O)N([H])[H])C4(C([H])([H])C([H])([H])C([H])(C([H])([H])N([H])C(=O)N5C([H])([H])C([H])([H])C([H])([H])C([H])(n6nc(-c7c([H])c([H])c(Oc8c([H])c([H])c(F)c([H])c8F)c([H])c7[H])c(C(=O)N([H])[H])c6N([H])[H])C5([H])[H])C4([H])[H])C3([H])[H])c([H])c([H])c2C1([H])[H]

$$$$
58:0:0
     RDKit          3D

 87 96  0  0  1  0  0  0  0  0999 V2000
  -28.2090  -20.9130   21.8780 C   0  0  0  0  0  2  0  0  0  0  0  0
  -27.3190  -21.5690   20.1820 C   0  0  0  0  0  2  0  0  0  0  0  0
  -28.3340  -20.4400   20.4210 C   0  0  0  0  0  3  0  0  0  0  0  0
  -28.2650  -22.2820   21.1700 C   0  0  0  0  0  3  0  0  0  0  0  0
  -29.7250  -20.7560   19.9080 C   0  0  0  0  0  3  0  0  0  0  0  0
  -29.5900  -22.5940   20.4720 C   0  0  0  0  0  3  0  0  0  0  0  0
  -30.6730  -19.1310   20.2770 C   0  0  0  0  0  2  0  0  0  0  0  0
  -31.1140  -16.0130   20.2270 C   0  0  0  0  0  0  0  0  0  0  0  0
  -31.1240  -13.4780   19.4390 C   0  0  0  0  0  2  0  0  0  0  0  0
  -30.2480  -13.1230   18.2090 C   0  0  0  0  0  2  0  0  0  0  0  0
  -28.7950  -12.8450   18.6270 C   0  0  0  0  0  2  0  0  0  0  0  0
  -28.3020  -13.8720   19.6740 C   0  0  0  0  0  3  0  0  0  0  0  0
  -29.3170  -14.1360   20.8090 C   0  0  0  0  0  2  0  0  0  0  0  0
  -30.5330  -14.6810   20.1680 N   0  0  0  0  0  0  0  0  0  0  0  0
  -32.3490  -15.9150   20.1120 O   0  0  0  0  0  0  0  0  0  0  0  0
  -30.4020  -17.3870   20.2280 N   0  0  0  0  0  0  0  0  0  0  0  0
  -29.4070  -17.2070   20.2320 H   0  0  0  0  0  0  0  0  0  0  0  0
  -25.9560  -14.4940   20.4280 C   0  0  0  0  0  0  0  0  0  0  0  0
  -24.8570  -13.7540   20.7580 C   0  0  0  0  0  0  0  0  0  0  0  0
  -25.2650  -12.3860   20.6900 C   0  0  0  0  0  0  0  0  0  0  0  0
  -26.9620  -13.5830   20.1670 N   0  0  0  0  0  0  0  0  0  0  0  0
  -26.5600  -12.3040   20.3940 N   0  0  0  0  0  0  0  0  0  0  0  0
  -24.4770  -11.1530   20.8270 C   0  0  0  0  0  0  0  0  0  0  0  0
  -24.8210  -10.1550   21.7650 C   0  0  0  0  0  3  0  0  0  0  0  0
  -24.0340   -8.9910   21.8930 C   0  0  0  0  0  3  0  0  0  0  0  0
  -22.8860   -8.8160   21.0840 C   0  0  0  0  0  0  0  0  0  0  0  0
  -22.5600   -9.8020   20.1360 C   0  0  0  0  0  3  0  0  0  0  0  0
  -23.3480  -10.9580   20.0060 C   0  0  0  0  0  3  0  0  0  0  0  0
  -22.0760   -7.7070   21.1240 O   0  0  0  0  0  0  0  0  0  0  0  0
  -21.8670   -7.0080   22.2860 C   0  0  0  0  0  0  0  0  0  0  0  0
  -21.3140   -7.6180   23.4320 C   0  0  0  0  0  3  0  0  0  0  0  0
  -21.0520   -6.8480   24.5830 C   0  0  0  0  0  3  0  0  0  0  0  0
  -21.3300   -5.4680   24.5860 C   0  0  0  0  0  0  0  0  0  0  0  0
  -21.8760   -4.8570   23.4440 C   0  0  0  0  0  3  0  0  0  0  0  0
  -22.1400   -5.6250   22.2960 C   0  0  0  0  0  0  0  0  0  0  0  0
  -22.6460   -5.0270   21.1890 F   0  0  0  0  0  0  0  0  0  0  0  0
  -21.0720   -4.7260   25.6890 F   0  0  0  0  0  0  0  0  0  0  0  0
  -23.4780  -14.2850   21.0170 C   0  0  0  0  0  0  0  0  0  0  0  0
  -22.7090  -13.6110   21.8620 N   0  0  0  0  0  0  0  0  0  0  0  0
  -23.0940  -15.3370   20.5030 O   0  0  0  0  0  0  0  0  0  0  0  0
  -23.0330  -12.7610   22.2990 H   0  0  0  0  0  0  0  0  0  0  0  0
  -21.7810  -13.9480   22.0770 H   0  0  0  0  0  0  0  0  0  0  0  0
  -26.1800  -15.8620   20.2930 N   0  0  0  0  0  0  0  0  0  0  0  0
  -25.4360  -16.5420   20.4060 H   0  0  0  0  0  0  0  0  0  0  0  0
  -27.0400  -16.2690   19.9510 H   0  0  0  0  0  0  0  0  0  0  0  0
  -29.2230  -24.3770   19.8400 C   0  0  0  0  0  2  0  0  0  0  0  0
  -29.0430  -26.0250   20.3910 O   0  0  0  0  0  0  0  0  0  0  0  0
  -24.8480  -31.8450   23.2310 C   0  0  0  0  0  0  0  0  0  0  0  0
  -27.9790  -27.1330   20.2560 C   0  0  0  0  0  0  0  0  0  0  0  0
  -23.8870  -30.4060   21.4850 C   0  0  0  0  0  3  0  0  0  0  0  0
  -25.5500  -28.9400   20.1160 C   0  0  0  0  0  0  0  0  0  0  0  0
  -26.4410  -30.7790   21.5260 C   0  0  0  0  0  2  0  0  0  0  0  0
  -26.6660  -29.3830   20.8340 C   0  0  0  0  0  0  0  0  0  0  0  0
  -27.8640  -28.5020   20.8770 C   0  0  0  0  0  3  0  0  0  0  0  0
  -26.8200  -26.8890   19.4790 C   0  0  0  0  0  3  0  0  0  0  0  0
  -25.6620  -27.7230   19.4190 C   0  0  0  0  0  3  0  0  0  0  0  0
  -24.2650  -29.7800   20.1110 C   0  0  0  0  0  2  0  0  0  0  0  0
  -25.0760  -31.0420   22.1350 N   0  0  0  0  0  0  0  0  0  0  0  0
  -23.7050  -32.0350   23.6800 O   0  0  0  0  0  0  0  0  0  0  0  0
  -23.2030  -29.3390   22.3800 C   0  0  0  0  0  0  0  0  0  0  0  0
  -21.8870  -29.1160   22.2010 N   0  0  0  0  0  0  0  0  0  0  0  0
  -23.8670  -28.7110   23.2070 O   0  0  0  0  0  0  0  0  0  0  0  0
  -21.4010  -29.6780   21.5150 H   0  0  0  0  0  0  0  0  0  0  0  0
  -18.5420  -27.7570   22.6120 C   0  0  0  0  0  0  0  0  0  0  0  0
  -21.0920  -28.0940   22.8950 C   0  0  0  0  0  3  0  0  0  0  0  0
  -21.2440  -26.7130   22.2140 C   0  0  0  0  0  2  0  0  0  0  0  0
  -20.1500  -26.4240   21.1780 C   0  0  0  0  0  2  0  0  0  0  0  0
  -18.7650  -26.4730   21.8290 C   0  0  0  0  0  2  0  0  0  0  0  0
  -19.6330  -28.5250   23.0980 C   0  0  0  0  0  0  0  0  0  0  0  0
  -19.3670  -29.7220   23.7980 C   0  0  0  0  0  3  0  0  0  0  0  0
  -18.0440  -30.1550   24.0110 C   0  0  0  0  0  3  0  0  0  0  0  0
  -16.9680  -29.3840   23.5340 C   0  0  0  0  0  3  0  0  0  0  0  0
  -17.2180  -28.1860   22.8420 C   0  0  0  0  0  3  0  0  0  0  0  0
  -26.0110  -32.5780   23.9680 C   0  0  0  0  0  3  0  0  0  0  0  0
  -25.5830  -33.9650   24.2350 N   0  0  0  0  0  0  0  0  0  0  0  0
  -25.9000  -35.0290   23.4840 C   0  0  0  0  0  0  0  0  0  0  0  0
  -26.6400  -34.9500   22.5000 O   0  0  0  0  0  0  0  0  0  0  0  0
  -24.9280  -34.0940   24.9920 H   0  0  0  0  0  0  0  0  0  0  0  0
  -24.0760  -36.7060   23.0150 C   0  0  0  0  0  1  0  0  0  0  0  0
  -25.3070  -36.3980   23.8840 C   0  0  0  0  0  3  0  0  0  0  0  0
  -27.3360  -37.4520   24.7810 C   0  0  0  0  0  1  0  0  0  0  0  0
  -26.2730  -37.5140   23.7830 N   0  0  0  0  0  0  0  0  0  0  0  0
  -25.8010  -38.4090   23.8780 H   0  0  0  0  0  0  0  0  0  0  0  0
  -26.4220  -31.8760   25.3210 C   0  0  1  0  0  0  0  0  0  0  0  0
  -25.2310  -31.5960   26.2680 C   0  0  0  0  0  1  0  0  0  0  0  0
  -27.1300  -30.5290   25.0550 C   0  0  0  0  0  1  0  0  0  0  0  0
  -27.4380  -32.7600   26.0820 C   0  0  0  0  0  1  0  0  0  0  0  0
  3  2  1  0
  3  1  1  0
  4  2  1  0
  4  1  1  0
  5  7  1  0
  5  3  1  0
  5  6  1  0
  6 46  1  0
  6  4  1  0
  8 16  1  0
  9 14  1  0
 10 11  1  0
 10  9  1  0
 12 11  1  0
 12 21  1  0
 12 13  1  0
 14  8  1  0
 14 13  1  0
 15  8  2  0
 16 17  1  0
 16  7  1  0
 18 19  2  0
 19 38  1  0
 20 19  1  0
 20 23  1  0
 21 22  1  0
 21 18  1  0
 22 20  2  0
 23 24  1  0
 24 25  2  0
 26 29  1  0
 26 25  1  0
 27 26  2  0
 28 27  1  0
 28 23  2  0
 29 30  1  0
 30 35  2  0
 30 31  1  0
 31 32  2  0
 32 33  1  0
 33 37  1  0
 34 33  2  0
 35 34  1  0
 36 35  1  0
 38 39  1  0
 39 42  1  0
 39 41  1  0
 40 38  2  0
 43 44  1  0
 43 18  1  0
 45 43  1  0
 46 47  1  0
 48 59  2  0
 49 47  1  0
 49 54  1  0
 50 58  1  0
 50 60  1  0
 51 53  1  0
 52 58  1  0
 53 54  2  0
 53 52  1  0
 55 49  2  0
 56 55  1  0
 56 51  2  0
 57 51  1  0
 57 50  1  0
 58 48  1  0
 60 62  2  0
 61 60  1  0
 63 61  1  0
 64 73  2  0
 64 69  1  0
 65 61  1  0
 65 69  1  0
 66 65  1  0
 67 68  1  0
 67 66  1  0
 68 64  1  0
 69 70  2  0
 70 71  1  0
 72 71  2  0
 73 72  1  0
 74 48  1  0
 74 75  1  0
 74 84  1  0
 75 78  1  0
 76 80  1  0
 76 75  1  0
 77 76  2  0
 80 79  1  0
 82 83  1  0
 82 80  1  0
 82 81  1  0
 84 87  1  1
 84 85  1  0
 86 84  1  0
M  ISO  4   8 100  16 100  46 101  47 101
M  END
>  <TORSDO>  (58) 
F 18

>  <SCORE>  (58) 
-13.799

>  <name>  (58) 
58

>  <ligand_id>  (58) 
58

>  <original_smiles>  (58) 
[H]c1c([H])c([H])c2c(c1[H])C([H])([H])C([H])([H])C([H])([H])C2([H])N([H])C(=O)C1([H])N(C(=O)C([H])(N([H])C(=O)C([H])(N([H])C([H])([H])[H])C([H])([H])[H])C(C([H])([H])[H])(C([H])([H])[H])C([H])([H])[H])C([H])([H])c2c([H])c(OC([H])([H])C3([H])C4([H])C([H])([H])C([H])(C4([H])[H])C3([H])C([H])([H])N([H])C(=O)N3C([H])([H])C([H])([H])C([H])([H])C([H])(n4nc(-c5c([H])c([H])c(Oc6c([H])c([H])c(F)c([H])c6F)c([H])c5[H])c(C(=O)N([H])[H])c4N([H])[H])C3([H])[H])c([H])c([H])c2C1([H])[H]

>  <smiles>  (58) 
[H]c1c([H])c([H])c2c(c1[H])C([H])([H])C([H])([H])C([H])([H])C2([H])N([H])C(=O)C1([H])N(C(=O)C([H])(N([H])C(=O)C([H])(N([H])C([H])([H])[H])C([H])([H])[H])C(C([H])([H])[H])(C([H])([H])[H])C([H])([H])[H])C([H])([H])c2c([H])c(OC([H])([H])C3([H])C4([H])C([H])([H])C([H])(C4([H])[H])C3([H])C([H])([H])N([H])C(=O)N3C([H])([H])C([H])([H])C([H])([H])C([H])(n4nc(-c5c([H])c([H])c(Oc6c([H])c([H])c(F)c([H])c6F)c([H])c5[H])c(C(=O)N([H])[H])c4N([H])[H])C3([H])[H])c([H])c([H])c2C1([H])[H]

$$$$
59:0:0
     RDKit          3D

 90100  0  0  1  0  0  0  0  0999 V2000
  -29.2910  -21.8080   20.3450 N   0  0  0  0  0  4  0  0  0  0  0  0
  -30.1150  -22.0570   20.8620 H   0  0  0  0  0  0  0  0  0  0  0  0
  -28.6430  -21.4770   21.0380 H   0  0  0  0  0  0  0  0  0  0  0  0
  -30.4590  -18.9400   18.3730 C   0  0  0  0  0  2  0  0  0  0  0  0
  -31.2640  -18.5890   20.6240 C   0  0  0  0  0  2  0  0  0  0  0  0
  -31.0950  -19.7230   19.5480 C   0  0  1  0  0  0  0  0  0  0  0  0
  -29.3260  -18.9350   19.4320 C   0  0  2  0  0  0  0  0  0  0  0  0
  -29.8930  -17.8580   20.5190 C   0  0  0  0  0  3  0  0  0  0  0  0
  -29.7310  -20.5600   19.4190 C   0  0  0  0  0  3  0  0  0  0  0  0
  -30.5320  -15.0520   20.2640 C   0  0  0  0  0  0  0  0  0  0  0  0
  -30.3830  -12.6750   19.3470 C   0  0  0  0  0  2  0  0  0  0  0  0
  -29.4300  -12.6040   18.1300 C   0  0  0  0  0  2  0  0  0  0  0  0
  -27.9740  -12.3890   18.5830 C   0  0  0  0  0  2  0  0  0  0  0  0
  -27.5730  -13.3140   19.7610 C   0  0  0  0  0  3  0  0  0  0  0  0
  -28.6560  -13.3740   20.8610 C   0  0  0  0  0  2  0  0  0  0  0  0
  -29.9160  -13.7920   20.2200 N   0  0  0  0  0  0  0  0  0  0  0  0
  -31.7400  -15.0860   20.0050 O   0  0  0  0  0  0  0  0  0  0  0  0
  -29.7690  -16.2540   20.3890 N   0  0  0  0  0  0  0  0  0  0  0  0
  -28.8100  -15.9840   20.5490 H   0  0  0  0  0  0  0  0  0  0  0  0
  -25.1870  -13.8720   20.5120 C   0  0  0  0  0  0  0  0  0  0  0  0
  -24.1270  -13.0860   20.8880 C   0  0  0  0  0  0  0  0  0  0  0  0
  -24.6000  -11.7410   20.8570 C   0  0  0  0  0  0  0  0  0  0  0  0
  -26.2400  -12.9990   20.2770 N   0  0  0  0  0  0  0  0  0  0  0  0
  -25.8930  -11.7140   20.5460 N   0  0  0  0  0  0  0  0  0  0  0  0
  -23.8770  -10.4750   21.0510 C   0  0  0  0  0  0  0  0  0  0  0  0
  -24.3190   -9.5040   21.9730 C   0  0  0  0  0  3  0  0  0  0  0  0
  -23.5940   -8.3060   22.1580 C   0  0  0  0  0  3  0  0  0  0  0  0
  -22.4090   -8.0700   21.4200 C   0  0  0  0  0  0  0  0  0  0  0  0
  -21.9840   -9.0340   20.4890 C   0  0  0  0  0  3  0  0  0  0  0  0
  -22.7080  -10.2220   20.3010 C   0  0  0  0  0  3  0  0  0  0  0  0
  -21.6540   -6.9260   21.5130 O   0  0  0  0  0  0  0  0  0  0  0  0
  -21.6370   -6.1660   22.6590 C   0  0  0  0  0  0  0  0  0  0  0  0
  -21.2540   -6.7070   23.9060 C   0  0  0  0  0  3  0  0  0  0  0  0
  -21.1850   -5.8750   25.0420 C   0  0  0  0  0  3  0  0  0  0  0  0
  -21.4860   -4.5050   24.9300 C   0  0  0  0  0  0  0  0  0  0  0  0
  -21.8610   -3.9640   23.6890 C   0  0  0  0  0  3  0  0  0  0  0  0
  -21.9350   -4.7930   22.5550 C   0  0  0  0  0  0  0  0  0  0  0  0
  -22.2750   -4.2600   21.3550 F   0  0  0  0  0  0  0  0  0  0  0  0
  -21.4120   -3.7040   26.0210 F   0  0  0  0  0  0  0  0  0  0  0  0
  -22.7280  -13.5640   21.1530 C   0  0  0  0  0  0  0  0  0  0  0  0
  -22.0000  -12.8660   22.0230 N   0  0  0  0  0  0  0  0  0  0  0  0
  -22.2870  -14.5800   20.6290 O   0  0  0  0  0  0  0  0  0  0  0  0
  -22.3670  -12.0400   22.4680 H   0  0  0  0  0  0  0  0  0  0  0  0
  -21.0630  -13.1710   22.2430 H   0  0  0  0  0  0  0  0  0  0  0  0
  -25.3350  -15.2390   20.3280 N   0  0  0  0  0  0  0  0  0  0  0  0
  -24.5520  -15.8790   20.4150 H   0  0  0  0  0  0  0  0  0  0  0  0
  -26.1630  -15.6850   19.9460 H   0  0  0  0  0  0  0  0  0  0  0  0
  -28.7460  -23.2160   19.7590 C   0  0  0  0  0  2  0  0  0  0  0  0
  -28.3800  -24.6750   20.6420 C   0  0  0  0  0  2  0  0  0  0  0  0
  -28.3770  -26.1940   20.2000 O   0  0  0  0  0  0  0  0  0  0  0  0
  -24.6170  -31.8610   23.2160 C   0  0  0  0  0  0  0  0  0  0  0  0
  -27.2690  -27.1270   20.2580 C   0  0  0  0  0  0  0  0  0  0  0  0
  -23.4350  -30.4340   21.5750 C   0  0  0  0  0  3  0  0  0  0  0  0
  -24.9100  -28.8370   20.1950 C   0  0  0  0  0  0  0  0  0  0  0  0
  -25.9860  -30.7230   21.4220 C   0  0  0  0  0  2  0  0  0  0  0  0
  -26.0790  -29.3160   20.7980 C   0  0  0  0  0  0  0  0  0  0  0  0
  -27.2590  -28.4810   20.8060 C   0  0  0  0  0  3  0  0  0  0  0  0
  -26.0660  -26.7390   19.6420 C   0  0  0  0  0  3  0  0  0  0  0  0
  -24.9130  -27.5580   19.6060 C   0  0  0  0  0  3  0  0  0  0  0  0
  -23.6790  -29.7280   20.2120 C   0  0  0  0  0  2  0  0  0  0  0  0
  -24.6980  -31.0340   22.1220 N   0  0  0  0  0  0  0  0  0  0  0  0
  -23.5310  -32.1420   23.7410 O   0  0  0  0  0  0  0  0  0  0  0  0
  -22.7520  -29.4470   22.5550 C   0  0  0  0  0  0  0  0  0  0  0  0
  -21.4230  -29.2870   22.4370 N   0  0  0  0  0  0  0  0  0  0  0  0
  -23.4210  -28.8230   23.3810 O   0  0  0  0  0  0  0  0  0  0  0  0
  -20.9420  -29.8450   21.7480 H   0  0  0  0  0  0  0  0  0  0  0  0
  -18.0380  -28.0960   22.9520 C   0  0  0  0  0  0  0  0  0  0  0  0
  -20.5980  -28.3560   23.2110 C   0  0  0  0  0  3  0  0  0  0  0  0
  -20.6930  -26.9210   22.6410 C   0  0  0  0  0  2  0  0  0  0  0  0
  -19.5900  -26.5980   21.6290 C   0  0  0  0  0  2  0  0  0  0  0  0
  -18.2110  -26.7440   22.2770 C   0  0  0  0  0  2  0  0  0  0  0  0
  -19.1590  -28.8580   23.3750 C   0  0  0  0  0  0  0  0  0  0  0  0
  -18.9400  -30.1200   23.9700 C   0  0  0  0  0  3  0  0  0  0  0  0
  -17.6350  -30.6190   24.1440 C   0  0  0  0  0  3  0  0  0  0  0  0
  -16.5300  -29.8560   23.7370 C   0  0  0  0  0  3  0  0  0  0  0  0
  -16.7290  -28.5960   23.1440 C   0  0  0  0  0  3  0  0  0  0  0  0
  -25.8950  -32.5020   23.8480 C   0  0  0  0  0  3  0  0  0  0  0  0
  -26.4010  -31.7430   25.1350 C   0  0  1  0  0  0  0  0  0  0  0  0
  -25.3000  -31.5240   26.1990 C   0  0  0  0  0  1  0  0  0  0  0  0
  -26.9840  -30.3580   24.7700 C   0  0  0  0  0  1  0  0  0  0  0  0
  -27.5460  -32.5450   25.7970 C   0  0  0  0  0  1  0  0  0  0  0  0
  -25.5780  -33.9010   24.1730 N   0  0  0  0  0  0  0  0  0  0  0  0
  -25.9130  -34.9580   23.4200 C   0  0  0  0  0  0  0  0  0  0  0  0
  -26.5840  -34.8560   22.3920 O   0  0  0  0  0  0  0  0  0  0  0  0
  -24.9830  -34.0530   24.9740 H   0  0  0  0  0  0  0  0  0  0  0  0
  -24.1860  -36.7550   23.0730 C   0  0  0  0  0  1  0  0  0  0  0  0
  -25.4280  -36.3450   23.8810 C   0  0  0  0  0  3  0  0  0  0  0  0
  -27.5600  -37.2390   24.7110 C   0  0  0  0  0  1  0  0  0  0  0  0
  -26.4550  -37.4010   23.7660 N   0  0  0  0  0  0  0  0  0  0  0  0
  -26.0490  -38.3190   23.9140 H   0  0  0  0  0  0  0  0  0  0  0  0
  1  2  1  0
  1  3  1  0
  6  4  1  6
  6  5  1  0
  7  4  1  6
  7  6  1  0
  7  8  1  0
  8 18  1  0
  8  5  1  0
  9  7  1  0
  9  6  1  0
  9  1  1  0
 10 18  1  0
 11 16  1  0
 12 13  1  0
 12 11  1  0
 14 13  1  0
 14 23  1  0
 14 15  1  0
 16 10  1  0
 16 15  1  0
 17 10  2  0
 18 19  1  0
 20 21  2  0
 21 40  1  0
 22 21  1  0
 22 25  1  0
 23 20  1  0
 23 24  1  0
 24 22  2  0
 25 26  1  0
 26 27  2  0
 28 31  1  0
 28 27  1  0
 29 28  2  0
 30 29  1  0
 30 25  2  0
 31 32  1  0
 32 33  1  0
 33 34  2  0
 35 34  1  0
 35 39  1  0
 36 35  2  0
 37 32  2  0
 37 36  1  0
 38 37  1  0
 40 41  1  0
 41 44  1  0
 41 43  1  0
 42 40  2  0
 45 46  1  0
 45 20  1  0
 47 45  1  0
 48  1  1  0
 48 49  1  0
 50 52  1  0
 50 49  1  0
 51 62  2  0
 52 57  1  0
 53 61  1  0
 53 63  1  0
 54 60  1  0
 54 56  1  0
 55 61  1  0
 56 57  2  0
 56 55  1  0
 58 52  2  0
 59 58  1  0
 59 54  2  0
 60 53  1  0
 61 51  1  0
 63 65  2  0
 64 63  1  0
 66 64  1  0
 67 76  2  0
 67 72  1  0
 68 64  1  0
 68 72  1  0
 69 68  1  0
 70 71  1  0
 70 69  1  0
 71 67  1  0
 72 73  2  0
 73 74  1  0
 75 74  2  0
 76 75  1  0
 77 51  1  0
 77 82  1  0
 77 78  1  0
 78 81  1  1
 78 79  1  0
 80 78  1  0
 82 85  1  0
 83 87  1  0
 83 82  1  0
 84 83  2  0
 87 86  1  0
 89 87  1  0
 89 90  1  0
 89 88  1  0
M  ISO  4  10 100  18 100  49 101  50 101
M  END
>  <TORSDO>  (59) 
F 19

>  <SCORE>  (59) 
-14.889

>  <name>  (59) 
59

>  <ligand_id>  (59) 
59

>  <original_smiles>  (59) 
[H]c1c([H])c([H])c2c(c1[H])C([H])([H])C([H])([H])C([H])([H])C2([H])N([H])C(=O)C1([H])N(C(=O)C([H])(N([H])C(=O)C([H])(N([H])C([H])([H])[H])C([H])([H])[H])C(C([H])([H])[H])(C([H])([H])[H])C([H])([H])[H])C([H])([H])c2c([H])c(OC([H])([H])C([H])([H])[N+]([H])([H])C3([H])C4([H])C([H])([H])C([H])(N([H])C(=O)N5C([H])([H])C([H])([H])C([H])([H])C([H])(n6nc(-c7c([H])c([H])c(Oc8c([H])c([H])c(F)c([H])c8F)c([H])c7[H])c(C(=O)N([H])[H])c6N([H])[H])C5([H])[H])C3([H])C4([H])[H])c([H])c([H])c2C1([H])[H]

>  <smiles>  (59) 
[H]c1c([H])c([H])c2c(c1[H])C([H])([H])C([H])([H])C([H])([H])C2([H])N([H])C(=O)C1([H])N(C(=O)C([H])(N([H])C(=O)C([H])(N([H])C([H])([H])[H])C([H])([H])[H])C(C([H])([H])[H])(C([H])([H])[H])C([H])([H])[H])C([H])([H])c2c([H])c(OC([H])([H])C([H])([H])[N+]([H])([H])C3([H])C4([H])C([H])([H])C([H])(N([H])C(=O)N5C([H])([H])C([H])([H])C([H])([H])C([H])(n6nc(-c7c([H])c([H])c(Oc8c([H])c([H])c(F)c([H])c8F)c([H])c7[H])c(C(=O)N([H])[H])c6N([H])[H])C5([H])[H])C3([H])C4([H])[H])c([H])c([H])c2C1([H])[H]

$$$$
60:0:0
     RDKit          3D

 88 97  0  0  1  0  0  0  0  0999 V2000
  -28.6730  -19.3910   19.1530 C   0  0  0  0  0  2  0  0  0  0  0  0
  -29.6520  -21.8220   18.7620 C   0  0  0  0  0  2  0  0  0  0  0  0
  -29.5290  -20.6000   21.1130 C   0  0  0  0  0  2  0  0  0  0  0  0
  -28.4530  -20.9410   19.0030 C   0  0  0  0  0  3  0  0  0  0  0  0
  -29.7120  -19.1790   20.2830 C   0  0  0  0  0  3  0  0  0  0  0  0
  -29.0430  -21.7970   20.1420 C   0  0  2  0  0  0  0  0  0  0  0  0
  -30.3030  -17.6660   20.8010 C   0  0  0  0  0  2  0  0  0  0  0  0
  -30.5430  -14.9790   20.3610 C   0  0  0  0  0  0  0  0  0  0  0  0
  -30.3780  -12.6410   19.3780 C   0  0  0  0  0  2  0  0  0  0  0  0
  -29.4260  -12.6070   18.1610 C   0  0  0  0  0  2  0  0  0  0  0  0
  -27.9610  -12.4180   18.6060 C   0  0  0  0  0  2  0  0  0  0  0  0
  -27.5800  -13.3230   19.8020 C   0  0  0  0  0  3  0  0  0  0  0  0
  -28.6590  -13.3120   20.9140 C   0  0  0  0  0  2  0  0  0  0  0  0
  -29.9150  -13.7380   20.2820 N   0  0  0  0  0  0  0  0  0  0  0  0
  -31.7520  -15.0140   20.1090 O   0  0  0  0  0  0  0  0  0  0  0  0
  -29.8110  -16.1890   20.5230 N   0  0  0  0  0  0  0  0  0  0  0  0
  -28.8130  -16.0520   20.5940 H   0  0  0  0  0  0  0  0  0  0  0  0
  -25.1980  -13.8880   20.5560 C   0  0  0  0  0  0  0  0  0  0  0  0
  -24.1390  -13.1080   20.9350 C   0  0  0  0  0  0  0  0  0  0  0  0
  -24.6060  -11.7580   20.8970 C   0  0  0  0  0  0  0  0  0  0  0  0
  -26.2420  -13.0150   20.3090 N   0  0  0  0  0  0  0  0  0  0  0  0
  -25.8960  -11.7290   20.5860 N   0  0  0  0  0  0  0  0  0  0  0  0
  -23.8860  -10.4900   21.0760 C   0  0  0  0  0  0  0  0  0  0  0  0
  -24.3200   -9.5140   22.0010 C   0  0  0  0  0  3  0  0  0  0  0  0
  -23.5920   -8.3180   22.1700 C   0  0  0  0  0  3  0  0  0  0  0  0
  -22.4160   -8.0850   21.4120 C   0  0  0  0  0  0  0  0  0  0  0  0
  -22.0060   -9.0510   20.4780 C   0  0  0  0  0  3  0  0  0  0  0  0
  -22.7370  -10.2390   20.3060 C   0  0  0  0  0  3  0  0  0  0  0  0
  -21.6640   -6.9370   21.4870 O   0  0  0  0  0  0  0  0  0  0  0  0
  -21.6050   -6.1950   22.6390 C   0  0  0  0  0  0  0  0  0  0  0  0
  -21.1490   -6.7450   23.8560 C   0  0  0  0  0  3  0  0  0  0  0  0
  -21.0450   -5.9300   25.0040 C   0  0  0  0  0  3  0  0  0  0  0  0
  -21.3860   -4.5660   24.9320 C   0  0  0  0  0  0  0  0  0  0  0  0
  -21.8360   -4.0150   23.7160 C   0  0  0  0  0  3  0  0  0  0  0  0
  -21.9440   -4.8270   22.5760 C   0  0  0  0  0  0  0  0  0  0  0  0
  -22.3570   -4.2910   21.4020 F   0  0  0  0  0  0  0  0  0  0  0  0
  -21.2780   -3.7770   26.0270 F   0  0  0  0  0  0  0  0  0  0  0  0
  -22.7440  -13.5820   21.2090 C   0  0  0  0  0  0  0  0  0  0  0  0
  -22.0130  -12.8700   22.0640 N   0  0  0  0  0  0  0  0  0  0  0  0
  -22.3040  -14.6100   20.6950 O   0  0  0  0  0  0  0  0  0  0  0  0
  -22.3760  -12.0270   22.4750 H   0  0  0  0  0  0  0  0  0  0  0  0
  -21.0830  -13.1760   22.3120 H   0  0  0  0  0  0  0  0  0  0  0  0
  -25.3570  -15.2560   20.3720 N   0  0  0  0  0  0  0  0  0  0  0  0
  -24.5850  -15.9090   20.4660 H   0  0  0  0  0  0  0  0  0  0  0  0
  -26.1730  -15.6740   19.9350 H   0  0  0  0  0  0  0  0  0  0  0  0
  -28.6120  -23.3270   20.7140 C   0  0  0  0  0  3  0  0  0  0  0  0
  -28.3310  -24.7400   19.8150 C   0  0  0  0  0  3  0  0  0  0  0  0
  -28.3050  -26.2260   20.3100 O   0  0  0  0  0  0  0  0  0  0  0  0
  -24.6210  -31.8950   23.2130 C   0  0  0  0  0  0  0  0  0  0  0  0
  -27.2280  -27.1810   20.1940 C   0  0  0  0  0  0  0  0  0  0  0  0
  -23.4320  -30.4970   21.5610 C   0  0  0  0  0  3  0  0  0  0  0  0
  -24.8920  -28.9240   20.1480 C   0  0  0  0  0  0  0  0  0  0  0  0
  -25.9850  -30.7630   21.4230 C   0  0  0  0  0  2  0  0  0  0  0  0
  -26.0640  -29.3730   20.7690 C   0  0  0  0  0  0  0  0  0  0  0  0
  -27.2250  -28.5150   20.7810 C   0  0  0  0  0  3  0  0  0  0  0  0
  -26.0330  -26.8430   19.5250 C   0  0  0  0  0  3  0  0  0  0  0  0
  -24.8860  -27.6730   19.5160 C   0  0  0  0  0  3  0  0  0  0  0  0
  -23.6670  -29.8200   20.1800 C   0  0  0  0  0  2  0  0  0  0  0  0
  -24.6970  -31.0730   22.1210 N   0  0  0  0  0  0  0  0  0  0  0  0
  -23.5300  -32.1830   23.7350 O   0  0  0  0  0  0  0  0  0  0  0  0
  -22.7500  -29.4910   22.5220 C   0  0  0  0  0  0  0  0  0  0  0  0
  -21.4220  -29.3240   22.3890 N   0  0  0  0  0  0  0  0  0  0  0  0
  -23.4170  -28.8670   23.3500 O   0  0  0  0  0  0  0  0  0  0  0  0
  -20.9380  -29.8760   21.6950 H   0  0  0  0  0  0  0  0  0  0  0  0
  -18.0360  -28.1470   22.8930 C   0  0  0  0  0  0  0  0  0  0  0  0
  -20.6000  -28.3890   23.1570 C   0  0  0  0  0  3  0  0  0  0  0  0
  -20.6900  -26.9600   22.5760 C   0  0  0  0  0  2  0  0  0  0  0  0
  -19.5850  -26.6500   21.5590 C   0  0  0  0  0  2  0  0  0  0  0  0
  -18.2050  -26.8000   22.2060 C   0  0  0  0  0  2  0  0  0  0  0  0
  -19.1620  -28.8970   23.3260 C   0  0  0  0  0  0  0  0  0  0  0  0
  -18.9530  -30.1560   23.9290 C   0  0  0  0  0  3  0  0  0  0  0  0
  -17.6520  -30.6650   24.1060 C   0  0  0  0  0  3  0  0  0  0  0  0
  -16.5430  -29.9100   23.6930 C   0  0  0  0  0  3  0  0  0  0  0  0
  -16.7330  -28.6550   23.0900 C   0  0  0  0  0  3  0  0  0  0  0  0
  -25.8990  -32.5300   23.8420 C   0  0  0  0  0  3  0  0  0  0  0  0
  -26.3970  -31.7740   25.1370 C   0  0  1  0  0  0  0  0  0  0  0  0
  -25.2910  -31.5540   26.1920 C   0  0  0  0  0  1  0  0  0  0  0  0
  -26.9880  -30.3900   24.7820 C   0  0  0  0  0  1  0  0  0  0  0  0
  -27.5320  -32.5780   25.8130 C   0  0  0  0  0  1  0  0  0  0  0  0
  -25.5870  -33.9340   24.1630 N   0  0  0  0  0  0  0  0  0  0  0  0
  -25.9220  -34.9860   23.4080 C   0  0  0  0  0  0  0  0  0  0  0  0
  -26.5960  -34.8820   22.3800 O   0  0  0  0  0  0  0  0  0  0  0  0
  -24.9870  -34.0870   24.9600 H   0  0  0  0  0  0  0  0  0  0  0  0
  -24.2010  -36.7890   23.0460 C   0  0  0  0  0  1  0  0  0  0  0  0
  -25.4330  -36.3740   23.8640 C   0  0  0  0  0  3  0  0  0  0  0  0
  -27.5550  -37.2640   24.7270 C   0  0  0  0  0  1  0  0  0  0  0  0
  -26.4700  -37.4250   23.7650 N   0  0  0  0  0  0  0  0  0  0  0  0
  -26.0540  -38.3440   23.9060 H   0  0  0  0  0  0  0  0  0  0  0  0
  1  5  1  0
  2  6  1  0
  4  2  1  0
  4  1  1  0
  4  6  1  0
  5  7  1  0
  5  3  1  0
  6 46  1  1
  6  3  1  0
  8 16  1  0
  9 14  1  0
 10 11  1  0
 10  9  1  0
 12 11  1  0
 12 21  1  0
 12 13  1  0
 14  8  1  0
 14 13  1  0
 15  8  2  0
 16 17  1  0
 16  7  1  0
 18 19  2  0
 19 38  1  0
 20 19  1  0
 20 23  1  0
 21 18  1  0
 21 22  1  0
 22 20  2  0
 23 24  1  0
 24 25  2  0
 26 29  1  0
 26 25  1  0
 27 26  2  0
 28 27  1  0
 28 23  2  0
 29 30  1  0
 30 31  1  0
 31 32  2  0
 33 32  1  0
 33 37  1  0
 34 33  2  0
 35 30  2  0
 35 34  1  0
 36 35  1  0
 38 39  1  0
 39 42  1  0
 39 41  1  0
 40 38  2  0
 43 44  1  0
 43 18  1  0
 45 43  1  0
 47 48  1  0
 47 46  2  0
 49 60  2  0
 50 48  1  0
 50 55  1  0
 51 59  1  0
 51 61  1  0
 52 58  1  0
 52 54  1  0
 53 59  1  0
 54 55  2  0
 54 53  1  0
 56 50  2  0
 57 56  1  0
 57 52  2  0
 58 51  1  0
 59 49  1  0
 61 63  2  0
 62 61  1  0
 64 62  1  0
 65 74  2  0
 65 70  1  0
 66 62  1  0
 66 70  1  0
 67 66  1  0
 68 69  1  0
 68 67  1  0
 69 65  1  0
 70 71  2  0
 71 72  1  0
 73 72  2  0
 74 73  1  0
 75 49  1  0
 75 80  1  0
 75 76  1  0
 76 79  1  1
 76 77  1  0
 78 76  1  0
 80 83  1  0
 81 85  1  0
 81 80  1  0
 82 81  2  0
 85 84  1  0
 87 85  1  0
 87 88  1  0
 87 86  1  0
M  ISO  4   8 100  16 100  47 101  48 101
M  END
>  <TORSDO>  (60) 
F 19

>  <SCORE>  (60) 
-15.719

>  <name>  (60) 
60

>  <ligand_id>  (60) 
60

>  <original_smiles>  (60) 
[H]c1c([H])c([H])c2c(c1[H])C([H])([H])C([H])([H])C([H])([H])C2([H])N([H])C(=O)C1([H])N(C(=O)C([H])(N([H])C(=O)C([H])(N([H])C([H])([H])[H])C([H])([H])[H])C(C([H])([H])[H])(C([H])([H])[H])C([H])([H])[H])C([H])([H])c2c([H])c(OC([H])([H])C([H])([H])C34C([H])([H])C([H])(C([H])([H])N([H])C(=O)N5C([H])([H])C([H])([H])C([H])([H])C([H])(n6nc(-c7c([H])c([H])c(Oc8c([H])c([H])c(F)c([H])c8F)c([H])c7[H])c(C(=O)N([H])[H])c6N([H])[H])C5([H])[H])C([H])([H])C3([H])C4([H])[H])c([H])c([H])c2C1([H])[H]

>  <smiles>  (60) 
[H]c1c([H])c([H])c2c(c1[H])C([H])([H])C([H])([H])C([H])([H])C2([H])N([H])C(=O)C1([H])N(C(=O)C([H])(N([H])C(=O)C([H])(N([H])C([H])([H])[H])C([H])([H])[H])C(C([H])([H])[H])(C([H])([H])[H])C([H])([H])[H])C([H])([H])c2c([H])c(OC([H])([H])C([H])([H])C34C([H])([H])C([H])(C([H])([H])N([H])C(=O)N5C([H])([H])C([H])([H])C([H])([H])C([H])(n6nc(-c7c([H])c([H])c(Oc8c([H])c([H])c(F)c([H])c8F)c([H])c7[H])c(C(=O)N([H])[H])c6N([H])[H])C5([H])[H])C([H])([H])C3([H])C4([H])[H])c([H])c([H])c2C1([H])[H]

$$$$
61:0:0
     RDKit          3D

 90 99  0  0  1  0  0  0  0  0999 V2000
  -30.0920  -23.1090   20.9240 C   0  0  0  0  0  2  0  0  0  0  0  0
  -28.3680  -21.9370   19.2710 C   0  0  0  0  0  2  0  0  0  0  0  0
  -30.6210  -21.6820   20.6390 C   0  0  0  0  0  3  0  0  0  0  0  0
  -28.6680  -22.8570   20.4610 C   0  0  1  0  0  0  0  0  0  0  0  0
  -29.2640  -21.2000   20.1790 C   0  0  1  0  0  0  0  0  0  0  0  0
  -31.6570  -21.5650   19.5500 C   0  0  0  0  0  0  0  0  0  0  0  0
  -32.7000  -20.4790   19.7650 C   0  0  0  0  0  1  0  0  0  0  0  0
  -31.7340  -22.2600   18.5330 O   0  0  0  0  0  0  0  0  0  0  0  0
  -28.9710  -19.4980   20.4850 C   0  0  0  0  0  3  0  0  0  0  0  0
  -29.9750  -18.0700   20.1750 C   0  0  0  0  0  3  0  0  0  0  0  0
  -30.4090  -15.2100   20.1630 C   0  0  0  0  0  0  0  0  0  0  0  0
  -30.3120  -12.8110   19.2270 C   0  0  0  0  0  2  0  0  0  0  0  0
  -29.3600  -12.6890   18.0120 C   0  0  0  0  0  2  0  0  0  0  0  0
  -27.9150  -12.4370   18.4770 C   0  0  0  0  0  2  0  0  0  0  0  0
  -27.5110  -13.3650   19.6510 C   0  0  0  0  0  3  0  0  0  0  0  0
  -28.5880  -13.4470   20.7540 C   0  0  0  0  0  2  0  0  0  0  0  0
  -29.8200  -13.9250   20.1110 N   0  0  0  0  0  0  0  0  0  0  0  0
  -31.6110  -15.2250   19.8640 O   0  0  0  0  0  0  0  0  0  0  0  0
  -29.6650  -16.4600   20.3460 N   0  0  0  0  0  0  0  0  0  0  0  0
  -28.7000  -16.2740   20.5790 H   0  0  0  0  0  0  0  0  0  0  0  0
  -25.1520  -13.9220   20.4460 C   0  0  0  0  0  0  0  0  0  0  0  0
  -24.0990  -13.1430   20.8350 C   0  0  0  0  0  0  0  0  0  0  0  0
  -24.5670  -11.7940   20.7910 C   0  0  0  0  0  0  0  0  0  0  0  0
  -26.1910  -13.0480   20.1810 N   0  0  0  0  0  0  0  0  0  0  0  0
  -25.8530  -11.7630   20.4570 N   0  0  0  0  0  0  0  0  0  0  0  0
  -23.8460  -10.5300   20.9920 C   0  0  0  0  0  0  0  0  0  0  0  0
  -24.2920   -9.5620   21.9180 C   0  0  0  0  0  3  0  0  0  0  0  0
  -23.5690   -8.3650   22.1090 C   0  0  0  0  0  3  0  0  0  0  0  0
  -22.3840   -8.1260   21.3740 C   0  0  0  0  0  0  0  0  0  0  0  0
  -21.9560   -9.0820   20.4360 C   0  0  0  0  0  3  0  0  0  0  0  0
  -22.6790  -10.2700   20.2430 C   0  0  0  0  0  3  0  0  0  0  0  0
  -21.6310   -6.9810   21.4740 O   0  0  0  0  0  0  0  0  0  0  0  0
  -21.5970   -6.2400   22.6280 C   0  0  0  0  0  0  0  0  0  0  0  0
  -21.1850   -6.7960   23.8590 C   0  0  0  0  0  3  0  0  0  0  0  0
  -21.0990   -5.9810   25.0060 C   0  0  0  0  0  3  0  0  0  0  0  0
  -21.4160   -4.6110   24.9220 C   0  0  0  0  0  0  0  0  0  0  0  0
  -21.8210   -4.0550   23.6960 C   0  0  0  0  0  3  0  0  0  0  0  0
  -21.9080   -4.8670   22.5520 C   0  0  0  0  0  0  0  0  0  0  0  0
  -22.2780   -4.3220   21.3680 F   0  0  0  0  0  0  0  0  0  0  0  0
  -21.3260   -3.8260   26.0210 F   0  0  0  0  0  0  0  0  0  0  0  0
  -22.7070  -13.6170   21.1300 C   0  0  0  0  0  0  0  0  0  0  0  0
  -21.9940  -12.9200   22.0070 N   0  0  0  0  0  0  0  0  0  0  0  0
  -22.2610  -14.6430   20.6170 O   0  0  0  0  0  0  0  0  0  0  0  0
  -22.3700  -12.0910   22.4430 H   0  0  0  0  0  0  0  0  0  0  0  0
  -21.0600  -13.2190   22.2460 H   0  0  0  0  0  0  0  0  0  0  0  0
  -25.3080  -15.2930   20.2660 N   0  0  0  0  0  0  0  0  0  0  0  0
  -24.5400  -15.9440   20.3850 H   0  0  0  0  0  0  0  0  0  0  0  0
  -26.1370  -15.7290   19.8850 H   0  0  0  0  0  0  0  0  0  0  0  0
  -28.0980  -24.4200   19.8800 C   0  0  0  0  0  2  0  0  0  0  0  0
  -28.2130  -25.9760   20.3300 O   0  0  0  0  0  0  0  0  0  0  0  0
  -24.6340  -31.8670   23.2330 C   0  0  0  0  0  0  0  0  0  0  0  0
  -27.1940  -27.0400   20.2120 C   0  0  0  0  0  0  0  0  0  0  0  0
  -23.4370  -30.4690   21.5970 C   0  0  0  0  0  3  0  0  0  0  0  0
  -24.8860  -28.8800   20.1650 C   0  0  0  0  0  0  0  0  0  0  0  0
  -25.9990  -30.6990   21.4430 C   0  0  0  0  0  2  0  0  0  0  0  0
  -26.0690  -29.2960   20.7880 C   0  0  0  0  0  0  0  0  0  0  0  0
  -27.2170  -28.3940   20.7930 C   0  0  0  0  0  3  0  0  0  0  0  0
  -25.9880  -26.7700   19.5260 C   0  0  0  0  0  3  0  0  0  0  0  0
  -24.8680  -27.6360   19.5140 C   0  0  0  0  0  3  0  0  0  0  0  0
  -23.6620  -29.7890   20.2180 C   0  0  0  0  0  2  0  0  0  0  0  0
  -24.7100  -31.0380   22.1440 N   0  0  0  0  0  0  0  0  0  0  0  0
  -23.5460  -32.1530   23.7590 O   0  0  0  0  0  0  0  0  0  0  0  0
  -22.7510  -29.4680   22.5620 C   0  0  0  0  0  0  0  0  0  0  0  0
  -21.4200  -29.3020   22.4410 N   0  0  0  0  0  0  0  0  0  0  0  0
  -23.4210  -28.8420   23.3880 O   0  0  0  0  0  0  0  0  0  0  0  0
  -20.9340  -29.8570   21.7500 H   0  0  0  0  0  0  0  0  0  0  0  0
  -18.0410  -28.0910   22.9520 C   0  0  0  0  0  0  0  0  0  0  0  0
  -20.5990  -28.3640   23.2140 C   0  0  0  0  0  3  0  0  0  0  0  0
  -20.7040  -26.9310   22.6430 C   0  0  0  0  0  2  0  0  0  0  0  0
  -19.6030  -26.6030   21.6300 C   0  0  0  0  0  2  0  0  0  0  0  0
  -18.2220  -26.7430   22.2750 C   0  0  0  0  0  2  0  0  0  0  0  0
  -19.1560  -28.8590   23.3780 C   0  0  0  0  0  0  0  0  0  0  0  0
  -18.9320  -30.1190   23.9760 C   0  0  0  0  0  3  0  0  0  0  0  0
  -17.6240  -30.6110   24.1470 C   0  0  0  0  0  3  0  0  0  0  0  0
  -16.5230  -29.8410   23.7340 C   0  0  0  0  0  3  0  0  0  0  0  0
  -16.7320  -28.5820   23.1430 C   0  0  0  0  0  3  0  0  0  0  0  0
  -25.9080  -32.5070   23.8630 C   0  0  0  0  0  3  0  0  0  0  0  0
  -26.4140  -31.7440   25.1490 C   0  0  1  0  0  0  0  0  0  0  0  0
  -25.3150  -31.5200   26.2140 C   0  0  0  0  0  1  0  0  0  0  0  0
  -26.9950  -30.3610   24.7800 C   0  0  0  0  0  1  0  0  0  0  0  0
  -27.5650  -32.5420   25.8110 C   0  0  0  0  0  1  0  0  0  0  0  0
  -25.5930  -33.9070   24.1940 N   0  0  0  0  0  0  0  0  0  0  0  0
  -25.9150  -34.9660   23.4380 C   0  0  0  0  0  0  0  0  0  0  0  0
  -26.5730  -34.8670   22.4000 O   0  0  0  0  0  0  0  0  0  0  0  0
  -25.0040  -34.0580   25.0000 H   0  0  0  0  0  0  0  0  0  0  0  0
  -24.1740  -36.7580   23.1250 C   0  0  0  0  0  1  0  0  0  0  0  0
  -25.4330  -36.3550   23.9070 C   0  0  0  0  0  3  0  0  0  0  0  0
  -27.5830  -37.2510   24.6920 C   0  0  0  0  0  1  0  0  0  0  0  0
  -26.4600  -37.4110   23.7710 N   0  0  0  0  0  0  0  0  0  0  0  0
  -26.0530  -38.3310   23.9250 H   0  0  0  0  0  0  0  0  0  0  0  0
  2  5  1  0
  2  4  1  0
  3  6  1  0
  3  1  1  0
  4 49  1  1
  4  1  1  0
  5  4  1  0
  5  9  1  1
  5  3  1  0
  6  7  1  0
  8  6  2  0
 10 19  1  0
 10  9  2  0
 11 19  1  0
 12 17  1  0
 13 14  1  0
 13 12  1  0
 15 14  1  0
 15 24  1  0
 15 16  1  0
 17 11  1  0
 17 16  1  0
 18 11  2  0
 19 20  1  0
 21 22  2  0
 22 41  1  0
 23 22  1  0
 23 26  1  0
 24 21  1  0
 24 25  1  0
 25 23  2  0
 26 27  1  0
 27 28  2  0
 29 32  1  0
 29 28  1  0
 30 29  2  0
 31 30  1  0
 31 26  2  0
 32 33  1  0
 33 34  1  0
 34 35  2  0
 36 35  1  0
 36 40  1  0
 37 36  2  0
 38 33  2  0
 38 37  1  0
 39 38  1  0
 41 42  1  0
 42 45  1  0
 42 44  1  0
 43 41  2  0
 46 47  1  0
 46 21  1  0
 48 46  1  0
 49 50  1  0
 51 62  2  0
 52 50  1  0
 52 57  1  0
 53 61  1  0
 53 63  1  0
 54 60  1  0
 54 56  1  0
 55 61  1  0
 56 57  2  0
 56 55  1  0
 58 52  2  0
 59 58  1  0
 59 54  2  0
 60 53  1  0
 61 51  1  0
 63 65  2  0
 64 63  1  0
 66 64  1  0
 67 76  2  0
 67 72  1  0
 68 64  1  0
 68 72  1  0
 69 68  1  0
 70 71  1  0
 70 69  1  0
 71 67  1  0
 72 73  2  0
 73 74  1  0
 75 74  2  0
 76 75  1  0
 77 51  1  0
 77 82  1  0
 77 78  1  0
 78 81  1  1
 78 79  1  0
 80 78  1  0
 82 85  1  0
 83 87  1  0
 83 82  1  0
 84 83  2  0
 87 86  1  0
 89 87  1  0
 89 90  1  0
 89 88  1  0
M  ISO  4  11 100  19 100  49 101  50 101
M  END
>  <TORSDO>  (61) 
F 20

>  <SCORE>  (61) 
-15.456

>  <name>  (61) 
61

>  <ligand_id>  (61) 
61

>  <original_smiles>  (61) 
[H]c1c([H])c([H])c2c(c1[H])C([H])([H])C([H])([H])C([H])([H])C2([H])N([H])C(=O)C1([H])N(C(=O)C([H])(N([H])C(=O)C([H])(N([H])C([H])([H])[H])C([H])([H])[H])C(C([H])([H])[H])(C([H])([H])[H])C([H])([H])[H])C([H])([H])c2c([H])c(OC([H])([H])C34C([H])([H])C([H])(C(=O)C([H])([H])[H])C3(C([H])([H])C([H])([H])N([H])C(=O)N3C([H])([H])C([H])([H])C([H])([H])C([H])(n5nc(-c6c([H])c([H])c(Oc7c([H])c([H])c(F)c([H])c7F)c([H])c6[H])c(C(=O)N([H])[H])c5N([H])[H])C3([H])[H])C4([H])[H])c([H])c([H])c2C1([H])[H]

>  <smiles>  (61) 
[H]c1c([H])c([H])c2c(c1[H])C([H])([H])C([H])([H])C([H])([H])C2([H])N([H])C(=O)C1([H])N(C(=O)C([H])(N([H])C(=O)C([H])(N([H])C([H])([H])[H])C([H])([H])[H])C(C([H])([H])[H])(C([H])([H])[H])C([H])([H])[H])C([H])([H])c2c([H])c(OC([H])([H])C34C([H])([H])C([H])(C(=O)C([H])([H])[H])C3(C([H])([H])C([H])([H])N([H])C(=O)N3C([H])([H])C([H])([H])C([H])([H])C([H])(n5nc(-c6c([H])c([H])c(Oc7c([H])c([H])c(F)c([H])c7F)c([H])c6[H])c(C(=O)N([H])[H])c5N([H])[H])C3([H])[H])C4([H])[H])c([H])c([H])c2C1([H])[H]

$$$$
62:0:0
     RDKit          3D

 90100  0  0  1  0  0  0  0  0999 V2000
  -28.6140  -20.8130   17.9730 C   0  0  0  0  0  2  0  0  0  0  0  0
  -30.4880  -20.7390   19.5570 C   0  0  0  0  0  2  0  0  0  0  0  0
  -29.7270  -21.6810   18.5930 C   0  0  1  0  0  0  0  0  0  0  0  0
  -28.2270  -20.8760   19.4760 C   0  0  2  0  0  0  0  0  0  0  0  0
  -29.3070  -19.9990   20.2160 C   0  0  0  0  0  3  0  0  0  0  0  0
  -28.5040  -22.4440   19.2130 C   0  0  0  0  0  3  0  0  0  0  0  0
  -27.4330  -23.6690   21.2230 C   0  0  0  0  0  1  0  0  0  0  0  0
  -28.5640  -23.7220   20.1910 C   0  0  0  0  0  3  0  0  0  0  0  0
  -28.4930  -25.1650   19.4490 C   0  0  0  0  0  2  0  0  0  0  0  0
  -28.3620  -26.4690   20.1740 O   0  0  0  0  0  0  0  0  0  0  0  0
  -24.5860  -31.8760   23.2200 C   0  0  0  0  0  0  0  0  0  0  0  0
  -27.2150  -27.2980   20.1340 C   0  0  0  0  0  0  0  0  0  0  0  0
  -23.3880  -30.4770   21.5760 C   0  0  0  0  0  3  0  0  0  0  0  0
  -24.8410  -28.9240   20.1500 C   0  0  0  0  0  0  0  0  0  0  0  0
  -25.9320  -30.7840   21.4060 C   0  0  0  0  0  2  0  0  0  0  0  0
  -26.0110  -29.4070   20.7490 C   0  0  0  0  0  0  0  0  0  0  0  0
  -27.1960  -28.6020   20.7360 C   0  0  0  0  0  3  0  0  0  0  0  0
  -26.0100  -26.8650   19.5430 C   0  0  0  0  0  3  0  0  0  0  0  0
  -24.8420  -27.6560   19.5470 C   0  0  0  0  0  3  0  0  0  0  0  0
  -23.6060  -29.8040   20.1960 C   0  0  0  0  0  2  0  0  0  0  0  0
  -24.6540  -31.0640   22.1240 N   0  0  0  0  0  0  0  0  0  0  0  0
  -23.5000  -32.1550   23.7520 O   0  0  0  0  0  0  0  0  0  0  0  0
  -22.7210  -29.4610   22.5350 C   0  0  0  0  0  0  0  0  0  0  0  0
  -21.3940  -29.2870   22.4080 N   0  0  0  0  0  0  0  0  0  0  0  0
  -23.3970  -28.8310   23.3520 O   0  0  0  0  0  0  0  0  0  0  0  0
  -20.9030  -29.8480   21.7270 H   0  0  0  0  0  0  0  0  0  0  0  0
  -18.0110  -28.1030   22.9140 C   0  0  0  0  0  0  0  0  0  0  0  0
  -20.5720  -28.3510   23.1780 C   0  0  0  0  0  3  0  0  0  0  0  0
  -20.6670  -26.9200   22.6000 C   0  0  0  0  0  2  0  0  0  0  0  0
  -19.5590  -26.6060   21.5890 C   0  0  0  0  0  2  0  0  0  0  0  0
  -18.1780  -26.7570   22.2330 C   0  0  0  0  0  2  0  0  0  0  0  0
  -19.1340  -28.8600   23.3420 C   0  0  0  0  0  0  0  0  0  0  0  0
  -18.9210  -30.1230   23.9360 C   0  0  0  0  0  3  0  0  0  0  0  0
  -17.6180  -30.6260   24.1140 C   0  0  0  0  0  3  0  0  0  0  0  0
  -16.5090  -29.8640   23.7040 C   0  0  0  0  0  3  0  0  0  0  0  0
  -16.7070  -28.6080   23.1040 C   0  0  0  0  0  3  0  0  0  0  0  0
  -25.8660  -32.5110   23.8470 C   0  0  0  0  0  3  0  0  0  0  0  0
  -26.3780  -31.7480   25.1300 C   0  0  1  0  0  0  0  0  0  0  0  0
  -25.2810  -31.5100   26.1960 C   0  0  0  0  0  1  0  0  0  0  0  0
  -26.9690  -30.3710   24.7500 C   0  0  0  0  0  1  0  0  0  0  0  0
  -27.5260  -32.5510   25.7910 C   0  0  0  0  0  1  0  0  0  0  0  0
  -25.5560  -33.9110   24.1740 N   0  0  0  0  0  0  0  0  0  0  0  0
  -25.8840  -34.9640   23.4140 C   0  0  0  0  0  0  0  0  0  0  0  0
  -26.5500  -34.8610   22.3800 O   0  0  0  0  0  0  0  0  0  0  0  0
  -24.9870  -34.0690   24.9930 H   0  0  0  0  0  0  0  0  0  0  0  0
  -24.1540  -36.7550   23.0650 C   0  0  0  0  0  1  0  0  0  0  0  0
  -25.3940  -36.3510   23.8770 C   0  0  0  0  0  3  0  0  0  0  0  0
  -27.5250  -37.2300   24.7170 C   0  0  0  0  0  1  0  0  0  0  0  0
  -26.4260  -37.4050   23.7710 N   0  0  0  0  0  0  0  0  0  0  0  0
  -26.0190  -38.3220   23.9310 H   0  0  0  0  0  0  0  0  0  0  0  0
  -29.1870  -18.3870   20.0020 C   0  0  0  0  0  3  0  0  0  0  0  0
  -30.2050  -17.3210   20.6450 C   0  0  0  0  0  3  0  0  0  0  0  0
  -30.5940  -14.7270   20.3930 C   0  0  0  0  0  0  0  0  0  0  0  0
  -30.3870  -12.4650   19.3730 C   0  0  0  0  0  2  0  0  0  0  0  0
  -29.4480  -12.5610   18.1510 C   0  0  0  0  0  2  0  0  0  0  0  0
  -27.9750  -12.3940   18.5760 C   0  0  0  0  0  2  0  0  0  0  0  0
  -27.6060  -13.2630   19.8100 C   0  0  0  0  0  3  0  0  0  0  0  0
  -28.6690  -13.1580   20.9260 C   0  0  0  0  0  2  0  0  0  0  0  0
  -29.9660  -13.5060   20.3330 N   0  0  0  0  0  0  0  0  0  0  0  0
  -31.7760  -14.8430   20.0610 O   0  0  0  0  0  0  0  0  0  0  0  0
  -29.8190  -15.8430   20.6340 N   0  0  0  0  0  0  0  0  0  0  0  0
  -28.8610  -15.6440   20.8810 H   0  0  0  0  0  0  0  0  0  0  0  0
  -25.2160  -13.8360   20.5490 C   0  0  0  0  0  0  0  0  0  0  0  0
  -24.1540  -13.0510   20.9130 C   0  0  0  0  0  0  0  0  0  0  0  0
  -24.6260  -11.7020   20.8710 C   0  0  0  0  0  0  0  0  0  0  0  0
  -26.2640  -12.9630   20.3030 N   0  0  0  0  0  0  0  0  0  0  0  0
  -25.9170  -11.6760   20.5610 N   0  0  0  0  0  0  0  0  0  0  0  0
  -23.9100  -10.4350   21.0560 C   0  0  0  0  0  0  0  0  0  0  0  0
  -24.3480   -9.4650   21.9830 C   0  0  0  0  0  3  0  0  0  0  0  0
  -23.6300   -8.2610   22.1540 C   0  0  0  0  0  3  0  0  0  0  0  0
  -22.4580   -8.0200   21.4000 C   0  0  0  0  0  0  0  0  0  0  0  0
  -22.0390   -8.9790   20.4600 C   0  0  0  0  0  3  0  0  0  0  0  0
  -22.7570  -10.1740   20.2860 C   0  0  0  0  0  3  0  0  0  0  0  0
  -21.7080   -6.8700   21.4820 O   0  0  0  0  0  0  0  0  0  0  0  0
  -21.6640   -6.1230   22.6300 C   0  0  0  0  0  0  0  0  0  0  0  0
  -21.2230   -6.6650   23.8570 C   0  0  0  0  0  3  0  0  0  0  0  0
  -21.1250   -5.8420   24.9960 C   0  0  0  0  0  3  0  0  0  0  0  0
  -21.4580   -4.4770   24.9120 C   0  0  0  0  0  0  0  0  0  0  0  0
  -21.8900   -3.9330   23.6890 C   0  0  0  0  0  3  0  0  0  0  0  0
  -21.9890   -4.7530   22.5510 C   0  0  0  0  0  0  0  0  0  0  0  0
  -22.3870   -4.2200   21.3720 F   0  0  0  0  0  0  0  0  0  0  0  0
  -21.3560   -3.6840   26.0030 F   0  0  0  0  0  0  0  0  0  0  0  0
  -22.7550  -13.5170   21.1880 C   0  0  0  0  0  0  0  0  0  0  0  0
  -22.0290  -12.8040   22.0440 N   0  0  0  0  0  0  0  0  0  0  0  0
  -22.3100  -14.5450   20.6800 O   0  0  0  0  0  0  0  0  0  0  0  0
  -22.4020  -11.9710   22.4760 H   0  0  0  0  0  0  0  0  0  0  0  0
  -21.0870  -13.0920   22.2680 H   0  0  0  0  0  0  0  0  0  0  0  0
  -25.3720  -15.2080   20.3850 N   0  0  0  0  0  0  0  0  0  0  0  0
  -24.6080  -15.8620   20.5190 H   0  0  0  0  0  0  0  0  0  0  0  0
  -26.2240  -15.6560   20.0700 H   0  0  0  0  0  0  0  0  0  0  0  0
  2  5  1  0
  3  1  1  6
  3  6  1  0
  3  4  1  0
  3  2  1  0
  4  1  1  6
  4  5  1  0
  5 51  1  0
  6  4  1  0
  6  8  1  0
  8  7  1  0
  9 10  1  0
  9  8  1  0
 11 22  2  0
 12 10  1  0
 12 17  1  0
 13 21  1  0
 13 23  1  0
 14 20  1  0
 14 16  1  0
 15 21  1  0
 16 15  1  0
 17 16  2  0
 18 19  1  0
 18 12  2  0
 19 14  2  0
 20 13  1  0
 21 11  1  0
 23 25  2  0
 24 23  1  0
 26 24  1  0
 27 36  2  0
 27 32  1  0
 28 24  1  0
 28 32  1  0
 29 28  1  0
 30 31  1  0
 30 29  1  0
 31 27  1  0
 32 33  2  0
 33 34  1  0
 35 34  2  0
 36 35  1  0
 37 11  1  0
 37 42  1  0
 37 38  1  0
 38 41  1  1
 38 39  1  0
 40 38  1  0
 42 45  1  0
 43 47  1  0
 43 42  1  0
 44 43  2  0
 47 46  1  0
 49 47  1  0
 49 50  1  0
 49 48  1  0
 51 52  2  0
 53 61  1  0
 54 59  1  0
 55 56  1  0
 55 54  1  0
 57 56  1  0
 57 66  1  0
 57 58  1  0
 59 53  1  0
 59 58  1  0
 60 53  2  0
 61 52  1  0
 61 62  1  0
 63 64  2  0
 64 83  1  0
 65 64  1  0
 65 68  1  0
 66 63  1  0
 66 67  1  0
 67 65  2  0
 68 69  1  0
 69 70  2  0
 71 74  1  0
 71 70  1  0
 72 71  2  0
 73 72  1  0
 73 68  2  0
 74 75  1  0
 75 76  1  0
 76 77  2  0
 78 77  1  0
 78 82  1  0
 79 78  2  0
 80 75  2  0
 80 79  1  0
 81 80  1  0
 83 84  1  0
 84 87  1  0
 84 86  1  0
 85 83  2  0
 88 89  1  0
 88 63  1  0
 90 88  1  0
M  ISO  4   9 101  10 101  53 100  61 100
M  END
>  <TORSDO>  (62) 
F 20

>  <SCORE>  (62) 
-13.897

>  <name>  (62) 
62

>  <ligand_id>  (62) 
62

>  <original_smiles>  (62) 
[H]c1c([H])c([H])c2c(c1[H])C([H])([H])C([H])([H])C([H])([H])C2([H])N([H])C(=O)C1([H])N(C(=O)C([H])(N([H])C(=O)C([H])(N([H])C([H])([H])[H])C([H])([H])[H])C(C([H])([H])[H])(C([H])([H])[H])C([H])([H])[H])C([H])([H])c2c([H])c(OC([H])([H])C([H])(C([H])([H])[H])C3([H])C4([H])C([H])([H])C([H])(C([H])([H])C([H])([H])N([H])C(=O)N5C([H])([H])C([H])([H])C([H])([H])C([H])(n6nc(-c7c([H])c([H])c(Oc8c([H])c([H])c(F)c([H])c8F)c([H])c7[H])c(C(=O)N([H])[H])c6N([H])[H])C5([H])[H])C3([H])C4([H])[H])c([H])c([H])c2C1([H])[H]

>  <smiles>  (62) 
[H]c1c([H])c([H])c2c(c1[H])C([H])([H])C([H])([H])C([H])([H])C2([H])N([H])C(=O)C1([H])N(C(=O)C([H])(N([H])C(=O)C([H])(N([H])C([H])([H])[H])C([H])([H])[H])C(C([H])([H])[H])(C([H])([H])[H])C([H])([H])[H])C([H])([H])c2c([H])c(OC([H])([H])C([H])(C([H])([H])[H])C3([H])C4([H])C([H])([H])C([H])(C([H])([H])C([H])([H])N([H])C(=O)N5C([H])([H])C([H])([H])C([H])([H])C([H])(n6nc(-c7c([H])c([H])c(Oc8c([H])c([H])c(F)c([H])c8F)c([H])c7[H])c(C(=O)N([H])[H])c6N([H])[H])C5([H])[H])C3([H])C4([H])[H])c([H])c([H])c2C1([H])[H]

$$$$
63:0:0
     RDKit          3D

 97106  0  0  1  0  0  0  0  0999 V2000
  -32.4210  -20.4940   20.9440 C   0  0  0  0  0  3  0  0  0  0  0  0
  -32.0950  -18.0940   20.7140 C   0  0  0  0  0  3  0  0  0  0  0  0
  -30.2050  -19.6290   20.4500 C   0  0  0  0  0  3  0  0  0  0  0  0
  -32.9590  -19.1890   20.9250 C   0  0  0  0  0  0  0  0  0  0  0  0
  -31.0500  -20.7530   20.7070 C   0  0  0  0  0  0  0  0  0  0  0  0
  -30.7240  -18.2890   20.4510 C   0  0  0  0  0  0  0  0  0  0  0  0
  -31.3310  -23.1100   19.6590 C   0  0  0  0  0  2  0  0  0  0  0  0
  -30.5800  -24.4610   19.6210 C   0  0  0  0  0  2  0  0  0  0  0  0
  -29.1760  -22.7730   20.6510 C   0  0  0  0  0  2  0  0  0  0  0  0
  -30.6390  -22.2570   20.7300 C   0  0  0  0  0  3  0  0  0  0  0  0
  -29.3560  -24.3310   20.5530 C   0  0  0  0  0  3  0  0  0  0  0  0
  -28.1150  -25.2170   20.1560 C   0  0  0  0  0  2  0  0  0  0  0  0
  -28.2790  -26.6700   20.2610 O   0  0  0  0  0  0  0  0  0  0  0  0
  -24.5590  -32.0280   23.2760 C   0  0  0  0  0  0  0  0  0  0  0  0
  -27.1300  -27.4640   20.2270 C   0  0  0  0  0  0  0  0  0  0  0  0
  -23.3260  -30.6160   21.6670 C   0  0  0  0  0  3  0  0  0  0  0  0
  -24.7500  -29.0410   20.2460 C   0  0  0  0  0  0  0  0  0  0  0  0
  -25.8630  -30.9270   21.4500 C   0  0  0  0  0  2  0  0  0  0  0  0
  -25.9270  -29.5480   20.8130 C   0  0  0  0  0  0  0  0  0  0  0  0
  -27.1180  -28.7720   20.7900 C   0  0  0  0  0  3  0  0  0  0  0  0
  -25.9280  -26.9970   19.6430 C   0  0  0  0  0  3  0  0  0  0  0  0
  -24.7500  -27.7680   19.6560 C   0  0  0  0  0  3  0  0  0  0  0  0
  -23.5160  -29.9150   20.2960 C   0  0  0  0  0  2  0  0  0  0  0  0
  -24.6020  -31.2090   22.1860 N   0  0  0  0  0  0  0  0  0  0  0  0
  -23.4840  -32.3200   23.8210 O   0  0  0  0  0  0  0  0  0  0  0  0
  -22.6700  -29.6170   22.6490 C   0  0  0  0  0  0  0  0  0  0  0  0
  -21.3580  -29.3800   22.4820 N   0  0  0  0  0  0  0  0  0  0  0  0
  -23.3420  -29.0550   23.5180 O   0  0  0  0  0  0  0  0  0  0  0  0
  -20.8770  -29.8780   21.7460 H   0  0  0  0  0  0  0  0  0  0  0  0
  -18.0300  -28.0220   22.8700 C   0  0  0  0  0  0  0  0  0  0  0  0
  -20.5490  -28.4480   23.2670 C   0  0  0  0  0  3  0  0  0  0  0  0
  -20.7650  -26.9910   22.7980 C   0  0  0  0  0  2  0  0  0  0  0  0
  -19.7470  -26.5400   21.7450 C   0  0  0  0  0  2  0  0  0  0  0  0
  -18.3210  -26.6460   22.2950 C   0  0  0  0  0  2  0  0  0  0  0  0
  -19.0770  -28.8740   23.3110 C   0  0  0  0  0  0  0  0  0  0  0  0
  -18.7520  -30.1580   23.8020 C   0  0  0  0  0  3  0  0  0  0  0  0
  -17.4150  -30.5910   23.8590 C   0  0  0  0  0  3  0  0  0  0  0  0
  -16.3810  -29.7370   23.4360 C   0  0  0  0  0  3  0  0  0  0  0  0
  -16.6900  -28.4550   22.9480 C   0  0  0  0  0  3  0  0  0  0  0  0
  -25.8560  -32.6600   23.8710 C   0  0  0  0  0  3  0  0  0  0  0  0
  -26.3860  -31.9030   25.1510 C   0  0  1  0  0  0  0  0  0  0  0  0
  -25.2970  -31.6430   26.2180 C   0  0  0  0  0  1  0  0  0  0  0  0
  -27.0020  -30.5370   24.7690 C   0  0  0  0  0  1  0  0  0  0  0  0
  -27.5150  -32.7270   25.8140 C   0  0  0  0  0  1  0  0  0  0  0  0
  -25.5610  -34.0640   24.1890 N   0  0  0  0  0  0  0  0  0  0  0  0
  -25.9040  -35.1060   23.4210 C   0  0  0  0  0  0  0  0  0  0  0  0
  -26.5740  -34.9860   22.3910 O   0  0  0  0  0  0  0  0  0  0  0  0
  -24.9710  -34.2330   24.9900 H   0  0  0  0  0  0  0  0  0  0  0  0
  -24.2020  -36.9180   23.0400 C   0  0  0  0  0  1  0  0  0  0  0  0
  -25.4320  -36.5040   23.8660 C   0  0  0  0  0  3  0  0  0  0  0  0
  -27.5660  -37.3670   24.7160 C   0  0  0  0  0  1  0  0  0  0  0  0
  -26.4790  -37.5430   23.7580 N   0  0  0  0  0  0  0  0  0  0  0  0
  -26.0830  -38.4690   23.8930 H   0  0  0  0  0  0  0  0  0  0  0  0
  -34.4350  -18.9760   21.1320 C   0  0  0  0  0  0  0  0  0  0  0  0
  -35.0210  -18.0960   20.3300 N   0  0  0  0  0  0  0  0  0  0  0  0
  -35.0780  -19.6300   21.9510 O   0  0  0  0  0  0  0  0  0  0  0  0
  -34.4760  -17.6020   19.6360 H   0  0  0  0  0  0  0  0  0  0  0  0
  -36.0120  -17.9270   20.3980 H   0  0  0  0  0  0  0  0  0  0  0  0
  -29.8530  -17.0710   20.0550 C   0  0  0  0  0  2  0  0  0  0  0  0
  -30.7960  -14.7120   20.3610 C   0  0  0  0  0  0  0  0  0  0  0  0
  -30.6040  -12.4630   19.3520 C   0  0  0  0  0  2  0  0  0  0  0  0
  -29.6820  -12.6000   18.1210 C   0  0  0  0  0  2  0  0  0  0  0  0
  -28.2010  -12.4410   18.5290 C   0  0  0  0  0  2  0  0  0  0  0  0
  -27.8220  -13.3020   19.7660 C   0  0  0  0  0  3  0  0  0  0  0  0
  -28.8720  -13.1570   20.8940 C   0  0  0  0  0  2  0  0  0  0  0  0
  -30.1920  -13.4850   20.3320 N   0  0  0  0  0  0  0  0  0  0  0  0
  -31.9170  -14.9010   19.8840 O   0  0  0  0  0  0  0  0  0  0  0  0
  -30.0070  -15.7500   20.7370 N   0  0  0  0  0  0  0  0  0  0  0  0
  -29.1790  -15.4530   21.2300 H   0  0  0  0  0  0  0  0  0  0  0  0
  -25.4090  -13.8620   20.4700 C   0  0  0  0  0  0  0  0  0  0  0  0
  -24.3540  -13.0700   20.8350 C   0  0  0  0  0  0  0  0  0  0  0  0
  -24.8380  -11.7270   20.8020 C   0  0  0  0  0  0  0  0  0  0  0  0
  -26.4710  -13.0000   20.2390 N   0  0  0  0  0  0  0  0  0  0  0  0
  -26.1310  -11.7110   20.4970 N   0  0  0  0  0  0  0  0  0  0  0  0
  -24.1320  -10.4530   20.9880 C   0  0  0  0  0  0  0  0  0  0  0  0
  -24.5440   -9.5150   21.9610 C   0  0  0  0  0  3  0  0  0  0  0  0
  -23.8370   -8.3040   22.1340 C   0  0  0  0  0  3  0  0  0  0  0  0
  -22.7060   -8.0230   21.3320 C   0  0  0  0  0  0  0  0  0  0  0  0
  -22.3120   -8.9490   20.3510 C   0  0  0  0  0  3  0  0  0  0  0  0
  -23.0190  -10.1520   20.1760 C   0  0  0  0  0  3  0  0  0  0  0  0
  -21.9740   -6.8630   21.4120 O   0  0  0  0  0  0  0  0  0  0  0  0
  -21.8410   -6.1730   22.5910 C   0  0  0  0  0  0  0  0  0  0  0  0
  -21.2570   -6.7600   23.7340 C   0  0  0  0  0  3  0  0  0  0  0  0
  -21.0730   -5.9940   24.9030 C   0  0  0  0  0  3  0  0  0  0  0  0
  -21.4650   -4.6420   24.9290 C   0  0  0  0  0  0  0  0  0  0  0  0
  -22.0400   -4.0550   23.7890 C   0  0  0  0  0  3  0  0  0  0  0  0
  -22.2240   -4.8180   22.6230 C   0  0  0  0  0  0  0  0  0  0  0  0
  -22.7600   -4.2390   21.5210 F   0  0  0  0  0  0  0  0  0  0  0  0
  -21.2830   -3.9050   26.0490 F   0  0  0  0  0  0  0  0  0  0  0  0
  -22.9460  -13.5240   21.1000 C   0  0  0  0  0  0  0  0  0  0  0  0
  -22.2240  -12.8190   21.9650 N   0  0  0  0  0  0  0  0  0  0  0  0
  -22.4900  -14.5420   20.5770 O   0  0  0  0  0  0  0  0  0  0  0  0
  -22.6010  -11.9990   22.4160 H   0  0  0  0  0  0  0  0  0  0  0  0
  -21.2810  -13.1100   22.1820 H   0  0  0  0  0  0  0  0  0  0  0  0
  -25.5490  -15.2350   20.2900 N   0  0  0  0  0  0  0  0  0  0  0  0
  -24.7680  -15.8760   20.3800 H   0  0  0  0  0  0  0  0  0  0  0  0
  -26.3830  -15.6810   19.9250 H   0  0  0  0  0  0  0  0  0  0  0  0
  2  4  2  0
  3  6  2  0
  3  5  1  0
  4  1  1  0
  4 54  1  0
  5  1  2  0
  6  2  1  0
  7 10  1  0
  8  7  1  0
  8 11  1  0
  9 10  1  0
 10  5  1  0
 11 12  1  0
 11  9  1  0
 12 13  1  0
 14 25  2  0
 15 13  1  0
 15 20  1  0
 16 24  1  0
 16 26  1  0
 17 23  1  0
 17 19  1  0
 18 24  1  0
 19 18  1  0
 20 19  2  0
 21 22  1  0
 21 15  2  0
 22 17  2  0
 23 16  1  0
 24 14  1  0
 26 28  2  0
 27 26  1  0
 29 27  1  0
 30 39  2  0
 30 35  1  0
 31 27  1  0
 31 35  1  0
 32 31  1  0
 33 34  1  0
 33 32  1  0
 34 30  1  0
 35 36  2  0
 36 37  1  0
 38 37  2  0
 39 38  1  0
 40 14  1  0
 40 45  1  0
 40 41  1  0
 41 44  1  1
 41 42  1  0
 43 41  1  0
 45 48  1  0
 46 50  1  0
 46 45  1  0
 47 46  2  0
 50 49  1  0
 52 50  1  0
 52 53  1  0
 52 51  1  0
 54 56  2  0
 55 58  1  0
 55 54  1  0
 57 55  1  0
 59  6  1  0
 59 68  1  0
 60 68  1  0
 61 66  1  0
 62 63  1  0
 62 61  1  0
 64 63  1  0
 64 73  1  0
 64 65  1  0
 66 60  1  0
 66 65  1  0
 67 60  2  0
 68 69  1  0
 70 71  2  0
 71 90  1  0
 72 71  1  0
 72 75  1  0
 73 70  1  0
 73 74  1  0
 74 72  2  0
 75 76  1  0
 76 77  2  0
 78 81  1  0
 78 77  1  0
 79 78  2  0
 80 79  1  0
 80 75  2  0
 81 82  1  0
 82 87  2  0
 82 83  1  0
 83 84  2  0
 84 85  1  0
 85 89  1  0
 86 85  2  0
 87 86  1  0
 88 87  1  0
 90 91  1  0
 91 94  1  0
 91 93  1  0
 92 90  2  0
 95 96  1  0
 95 70  1  0
 97 95  1  0
M  ISO  4  12 101  13 101  60 100  68 100
M  END
>  <TORSDO>  (63) 
F 20

>  <SCORE>  (63) 
-13.584

>  <name>  (63) 
63

>  <ligand_id>  (63) 
63

>  <original_smiles>  (63) 
[H]c1c([H])c([H])c2c(c1[H])C([H])([H])C([H])([H])C([H])([H])C2([H])N([H])C(=O)C1([H])N(C(=O)C([H])(N([H])C(=O)C([H])(N([H])C([H])([H])[H])C([H])([H])[H])C(C([H])([H])[H])(C([H])([H])[H])C([H])([H])[H])C([H])([H])c2c([H])c(OC([H])([H])C3([H])C([H])([H])C([H])([H])C([H])(c4c([H])c(C(=O)N([H])[H])c([H])c(C([H])([H])N([H])C(=O)N5C([H])([H])C([H])([H])C([H])([H])C([H])(n6nc(-c7c([H])c([H])c(Oc8c([H])c([H])c(F)c([H])c8F)c([H])c7[H])c(C(=O)N([H])[H])c6N([H])[H])C5([H])[H])c4[H])C3([H])[H])c([H])c([H])c2C1([H])[H]

>  <smiles>  (63) 
[H]c1c([H])c([H])c2c(c1[H])C([H])([H])C([H])([H])C([H])([H])C2([H])N([H])C(=O)C1([H])N(C(=O)C([H])(N([H])C(=O)C([H])(N([H])C([H])([H])[H])C([H])([H])[H])C(C([H])([H])[H])(C([H])([H])[H])C([H])([H])[H])C([H])([H])c2c([H])c(OC([H])([H])C3([H])C([H])([H])C([H])([H])C([H])(c4c([H])c(C(=O)N([H])[H])c([H])c(C([H])([H])N([H])C(=O)N5C([H])([H])C([H])([H])C([H])([H])C([H])(n6nc(-c7c([H])c([H])c(Oc8c([H])c([H])c(F)c([H])c8F)c([H])c7[H])c(C(=O)N([H])[H])c6N([H])[H])C5([H])[H])c4[H])C3([H])[H])c([H])c([H])c2C1([H])[H]

$$$$
64:0:0
     RDKit          3D

 91100  0  0  1  0  0  0  0  0999 V2000
  -29.0690  -22.0880   19.2910 N   0  0  0  0  0  4  0  0  0  0  0  0
  -28.0910  -21.9480   19.0970 H   0  0  0  0  0  0  0  0  0  0  0  0
  -29.5120  -22.1640   18.3890 H   0  0  0  0  0  0  0  0  0  0  0  0
  -27.5280  -19.6030   20.6300 C   0  0  0  0  0  2  0  0  0  0  0  0
  -28.7000  -20.4480   21.1520 C   0  0  0  0  0  2  0  0  0  0  0  0
  -28.3850  -19.0930   18.1370 C   0  0  0  0  0  2  0  0  0  0  0  0
  -28.0990  -18.7010   19.5610 C   0  0  0  0  0  3  0  0  0  0  0  0
  -29.5900  -20.7210   19.9260 C   0  0  0  0  0  3  0  0  0  0  0  0
  -29.4730  -19.2220   19.1790 C   0  0  2  0  0  0  0  0  0  0  0  0
  -30.6020  -17.9960   19.3040 C   0  0  0  0  0  2  0  0  0  0  0  0
  -31.0940  -15.2740   19.4820 C   0  0  0  0  0  0  0  0  0  0  0  0
  -30.9630  -12.8370   18.8120 C   0  0  0  0  0  2  0  0  0  0  0  0
  -29.9470  -12.6410   17.6610 C   0  0  0  0  0  2  0  0  0  0  0  0
  -28.5240  -12.4540   18.2160 C   0  0  0  0  0  2  0  0  0  0  0  0
  -28.1700  -13.5030   19.3010 C   0  0  0  0  0  3  0  0  0  0  0  0
  -29.2960  -13.6600   20.3460 C   0  0  0  0  0  2  0  0  0  0  0  0
  -30.5160  -14.0130   19.6090 N   0  0  0  0  0  0  0  0  0  0  0  0
  -32.2780  -15.3240   19.1420 O   0  0  0  0  0  0  0  0  0  0  0  0
  -30.3010  -16.4530   19.5310 N   0  0  0  0  0  0  0  0  0  0  0  0
  -29.3390  -16.2590   19.7610 H   0  0  0  0  0  0  0  0  0  0  0  0
  -25.9050  -14.1510   20.3040 C   0  0  0  0  0  0  0  0  0  0  0  0
  -24.8410  -13.4080   20.7330 C   0  0  0  0  0  0  0  0  0  0  0  0
  -25.2280  -12.0400   20.5850 C   0  0  0  0  0  0  0  0  0  0  0  0
  -26.8730  -13.2410   19.9150 N   0  0  0  0  0  0  0  0  0  0  0  0
  -26.4810  -11.9600   20.1500 N   0  0  0  0  0  0  0  0  0  0  0  0
  -24.4570  -10.8050   20.7760 C   0  0  0  0  0  0  0  0  0  0  0  0
  -24.8240   -9.8460   21.7450 C   0  0  0  0  0  3  0  0  0  0  0  0
  -24.0520   -8.6770   21.9240 C   0  0  0  0  0  3  0  0  0  0  0  0
  -22.8980   -8.4610   21.1340 C   0  0  0  0  0  0  0  0  0  0  0  0
  -22.5500   -9.4090   20.1560 C   0  0  0  0  0  3  0  0  0  0  0  0
  -23.3230  -10.5680   19.9740 C   0  0  0  0  0  3  0  0  0  0  0  0
  -22.1030   -7.3430   21.2200 O   0  0  0  0  0  0  0  0  0  0  0  0
  -21.8360   -6.7390   22.4230 C   0  0  0  0  0  0  0  0  0  0  0  0
  -21.1910   -7.4270   23.4760 C   0  0  0  0  0  3  0  0  0  0  0  0
  -20.8730   -6.7480   24.6690 C   0  0  0  0  0  3  0  0  0  0  0  0
  -21.1920   -5.3840   24.8110 C   0  0  0  0  0  0  0  0  0  0  0  0
  -21.8270   -4.6960   23.7610 C   0  0  0  0  0  3  0  0  0  0  0  0
  -22.1450   -5.3710   22.5720 C   0  0  0  0  0  0  0  0  0  0  0  0
  -22.7380   -4.6990   21.5550 F   0  0  0  0  0  0  0  0  0  0  0  0
  -20.8810   -4.7310   25.9540 F   0  0  0  0  0  0  0  0  0  0  0  0
  -23.5030  -13.9340   21.1590 C   0  0  0  0  0  0  0  0  0  0  0  0
  -22.8260  -13.2340   22.0620 N   0  0  0  0  0  0  0  0  0  0  0  0
  -23.0690  -15.0020   20.7260 O   0  0  0  0  0  0  0  0  0  0  0  0
  -23.1910  -12.3710   22.4380 H   0  0  0  0  0  0  0  0  0  0  0  0
  -21.9260  -13.5650   22.3820 H   0  0  0  0  0  0  0  0  0  0  0  0
  -26.1150  -15.5210   20.1840 N   0  0  0  0  0  0  0  0  0  0  0  0
  -25.3780  -16.1880   20.3880 H   0  0  0  0  0  0  0  0  0  0  0  0
  -26.9250  -15.9510   19.7600 H   0  0  0  0  0  0  0  0  0  0  0  0
  -29.1980  -23.5220   19.9860 C   0  0  0  0  0  3  0  0  0  0  0  0
  -28.2660  -24.8670   19.5630 C   0  0  0  0  0  3  0  0  0  0  0  0
  -28.4110  -26.3400   20.0660 O   0  0  0  0  0  0  0  0  0  0  0  0
  -24.6270  -31.7890   23.2750 C   0  0  0  0  0  0  0  0  0  0  0  0
  -27.3280  -27.2930   20.0280 C   0  0  0  0  0  0  0  0  0  0  0  0
  -23.4600  -30.4260   21.5850 C   0  0  0  0  0  3  0  0  0  0  0  0
  -24.9470  -28.9650   20.0810 C   0  0  0  0  0  0  0  0  0  0  0  0
  -26.0030  -30.7790   21.4180 C   0  0  0  0  0  2  0  0  0  0  0  0
  -26.1160  -29.4200   20.7060 C   0  0  0  0  0  0  0  0  0  0  0  0
  -27.3050  -28.6000   20.6640 C   0  0  0  0  0  3  0  0  0  0  0  0
  -26.1320  -26.9460   19.3590 C   0  0  0  0  0  3  0  0  0  0  0  0
  -24.9680  -27.7430   19.3930 C   0  0  0  0  0  3  0  0  0  0  0  0
  -23.6920  -29.8200   20.1760 C   0  0  0  0  0  2  0  0  0  0  0  0
  -24.7170  -31.0180   22.1480 N   0  0  0  0  0  0  0  0  0  0  0  0
  -23.5360  -32.0160   23.8200 O   0  0  0  0  0  0  0  0  0  0  0  0
  -22.8230  -29.3560   22.5060 C   0  0  0  0  0  0  0  0  0  0  0  0
  -21.5090  -29.1140   22.3480 N   0  0  0  0  0  0  0  0  0  0  0  0
  -23.5130  -28.7470   23.3270 O   0  0  0  0  0  0  0  0  0  0  0  0
  -21.0060  -29.6630   21.6650 H   0  0  0  0  0  0  0  0  0  0  0  0
  -18.1920  -27.7140   22.7490 C   0  0  0  0  0  0  0  0  0  0  0  0
  -20.7260  -28.1140   23.0780 C   0  0  0  0  0  3  0  0  0  0  0  0
  -20.9200  -26.7040   22.4740 C   0  0  0  0  0  2  0  0  0  0  0  0
  -19.8600  -26.3430   21.4290 C   0  0  0  0  0  2  0  0  0  0  0  0
  -18.4590  -26.3940   22.0440 C   0  0  0  0  0  2  0  0  0  0  0  0
  -19.2560  -28.5280   23.2190 C   0  0  0  0  0  0  0  0  0  0  0  0
  -18.9510  -29.7610   23.8380 C   0  0  0  0  0  3  0  0  0  0  0  0
  -17.6160  -30.1810   23.9890 C   0  0  0  0  0  3  0  0  0  0  0  0
  -16.5670  -29.3640   23.5330 C   0  0  0  0  0  3  0  0  0  0  0  0
  -16.8550  -28.1330   22.9180 C   0  0  0  0  0  3  0  0  0  0  0  0
  -25.8880  -32.4380   23.9200 C   0  0  0  0  0  3  0  0  0  0  0  0
  -26.3490  -31.7150   25.2470 C   0  0  1  0  0  0  0  0  0  0  0  0
  -25.2120  -31.5130   26.2740 C   0  0  0  0  0  1  0  0  0  0  0  0
  -26.9510  -30.3260   24.9340 C   0  0  0  0  0  1  0  0  0  0  0  0
  -27.4670  -32.5370   25.9290 C   0  0  0  0  0  1  0  0  0  0  0  0
  -25.5760  -33.8520   24.1910 N   0  0  0  0  0  0  0  0  0  0  0  0
  -25.9120  -34.8750   23.3950 C   0  0  0  0  0  0  0  0  0  0  0  0
  -26.5850  -34.7310   22.3710 O   0  0  0  0  0  0  0  0  0  0  0  0
  -24.9790  -34.0380   24.9840 H   0  0  0  0  0  0  0  0  0  0  0  0
  -24.1810  -36.6550   22.9800 C   0  0  0  0  0  1  0  0  0  0  0  0
  -25.4280  -36.2820   23.7990 C   0  0  0  0  0  3  0  0  0  0  0  0
  -27.5580  -37.2120   24.5900 C   0  0  0  0  0  1  0  0  0  0  0  0
  -26.4600  -37.3300   23.6360 N   0  0  0  0  0  0  0  0  0  0  0  0
  -26.0510  -38.2550   23.7350 H   0  0  0  0  0  0  0  0  0  0  0  0
  1 49  1  0
  2  1  1  0
  3  1  1  0
  4  5  1  0
  6  9  1  0
  7  6  1  0
  7  4  1  0
  8  1  1  0
  8  5  1  0
  9 10  1  6
  9  7  1  0
  9  8  1  0
 10 19  1  0
 11 19  1  0
 11 17  1  0
 12 17  1  0
 13 14  1  0
 13 12  1  0
 15 14  1  0
 15 24  1  0
 15 16  1  0
 17 16  1  0
 18 11  2  0
 19 20  1  0
 21 22  2  0
 22 41  1  0
 23 22  1  0
 23 26  1  0
 24 25  1  0
 24 21  1  0
 25 23  2  0
 26 27  1  0
 27 28  2  0
 29 32  1  0
 29 28  1  0
 30 29  2  0
 31 30  1  0
 31 26  2  0
 32 33  1  0
 33 38  2  0
 33 34  1  0
 34 35  2  0
 35 36  1  0
 36 40  1  0
 37 36  2  0
 38 37  1  0
 39 38  1  0
 41 42  1  0
 42 45  1  0
 42 44  1  0
 43 41  2  0
 46 21  1  0
 46 47  1  0
 48 46  1  0
 50 49  2  0
 50 51  1  0
 52 63  2  0
 53 51  1  0
 53 58  1  0
 54 62  1  0
 54 64  1  0
 55 61  1  0
 55 57  1  0
 56 62  1  0
 57 56  1  0
 58 57  2  0
 59 60  1  0
 59 53  2  0
 60 55  2  0
 61 54  1  0
 62 52  1  0
 64 66  2  0
 65 64  1  0
 67 65  1  0
 68 77  2  0
 68 73  1  0
 69 65  1  0
 69 73  1  0
 70 69  1  0
 71 72  1  0
 71 70  1  0
 72 68  1  0
 73 74  2  0
 74 75  1  0
 76 75  2  0
 77 76  1  0
 78 52  1  0
 78 83  1  0
 78 79  1  0
 79 82  1  1
 79 80  1  0
 81 79  1  0
 83 86  1  0
 84 88  1  0
 84 83  1  0
 85 84  2  0
 88 87  1  0
 90 91  1  0
 90 88  1  0
 90 89  1  0
M  ISO  4  11 100  19 100  50 101  51 101
M  END
>  <TORSDO>  (64) 
F 20

>  <SCORE>  (64) 
-12.175

>  <name>  (64) 
64

>  <ligand_id>  (64) 
64

>  <original_smiles>  (64) 
[H]c1c([H])c([H])c2c(c1[H])C([H])([H])C([H])([H])C([H])([H])C2([H])N([H])C(=O)C1([H])N(C(=O)C([H])(N([H])C(=O)C([H])(N([H])C([H])([H])[H])C([H])([H])[H])C(C([H])([H])[H])(C([H])([H])[H])C([H])([H])[H])C([H])([H])c2c([H])c(OC([H])([H])C([H])([H])[N+]([H])([H])C3([H])C([H])([H])C([H])([H])C4([H])C([H])([H])C43C([H])([H])N([H])C(=O)N3C([H])([H])C([H])([H])C([H])([H])C([H])(n4nc(-c5c([H])c([H])c(Oc6c([H])c([H])c(F)c([H])c6F)c([H])c5[H])c(C(=O)N([H])[H])c4N([H])[H])C3([H])[H])c([H])c([H])c2C1([H])[H]

>  <smiles>  (64) 
[H]c1c([H])c([H])c2c(c1[H])C([H])([H])C([H])([H])C([H])([H])C2([H])N([H])C(=O)C1([H])N(C(=O)C([H])(N([H])C(=O)C([H])(N([H])C([H])([H])[H])C([H])([H])[H])C(C([H])([H])[H])(C([H])([H])[H])C([H])([H])[H])C([H])([H])c2c([H])c(OC([H])([H])C([H])([H])[N+]([H])([H])C3([H])C([H])([H])C([H])([H])C4([H])C([H])([H])C43C([H])([H])N([H])C(=O)N3C([H])([H])C([H])([H])C([H])([H])C([H])(n4nc(-c5c([H])c([H])c(Oc6c([H])c([H])c(F)c([H])c6F)c([H])c5[H])c(C(=O)N([H])[H])c4N([H])[H])C3([H])[H])c([H])c([H])c2C1([H])[H]

$$$$
65:0:0
     RDKit          3D

 88 97  0  0  1  0  0  0  0  0999 V2000
  -29.4160  -18.4660   20.2990 C   0  0  0  0  0  3  0  0  0  0  0  0
  -28.4460  -21.9570   18.6830 C   0  0  0  0  0  0  0  0  0  0  0  0
  -29.5000  -16.9500   20.2610 C   0  0  0  0  0  2  0  0  0  0  0  0
  -30.2280  -19.7510   20.8470 C   0  0  0  0  0  2  0  0  0  0  0  0
  -28.4970  -20.3880   18.4850 C   0  0  0  0  0  2  0  0  0  0  0  0
  -28.3390  -19.6530   19.8370 C   0  0  0  0  0  3  0  0  0  0  0  0
  -28.8560  -22.4840   20.0870 C   0  0  0  0  0  3  0  0  0  0  0  0
  -28.9330  -20.8160   20.7710 C   0  0  0  0  0  3  0  0  0  0  0  0
  -28.1000  -22.7300   17.7430 N   0  0  0  0  0  0  0  0  0  0  0  0
  -27.8700  -22.2190   16.8960 H   0  0  0  0  0  0  0  0  0  0  0  0
  -30.3240  -15.4940   20.2480 C   0  0  0  0  0  0  0  0  0  0  0  0
  -30.3340  -13.0000   19.4090 C   0  0  0  0  0  2  0  0  0  0  0  0
  -29.4130  -12.7210   18.1920 C   0  0  0  0  0  2  0  0  0  0  0  0
  -27.9770  -12.4160   18.6510 C   0  0  0  0  0  2  0  0  0  0  0  0
  -27.5130  -13.3950   19.7550 C   0  0  0  0  0  3  0  0  0  0  0  0
  -28.5650  -13.6190   20.8610 C   0  0  0  0  0  2  0  0  0  0  0  0
  -29.7730  -14.1620   20.2120 N   0  0  0  0  0  0  0  0  0  0  0  0
  -31.5510  -15.4240   20.0550 O   0  0  0  0  0  0  0  0  0  0  0  0
  -25.1660  -13.9290   20.5780 C   0  0  0  0  0  0  0  0  0  0  0  0
  -24.1110  -13.1450   20.9490 C   0  0  0  0  0  0  0  0  0  0  0  0
  -24.5750  -11.7960   20.8840 C   0  0  0  0  0  0  0  0  0  0  0  0
  -26.2010  -13.0590   20.2930 N   0  0  0  0  0  0  0  0  0  0  0  0
  -25.8620  -11.7680   20.5470 N   0  0  0  0  0  0  0  0  0  0  0  0
  -23.8500  -10.5310   21.0620 C   0  0  0  0  0  0  0  0  0  0  0  0
  -24.2820   -9.5510   21.9830 C   0  0  0  0  0  3  0  0  0  0  0  0
  -23.5510   -8.3540   22.1510 C   0  0  0  0  0  3  0  0  0  0  0  0
  -22.3730   -8.1300   21.3990 C   0  0  0  0  0  0  0  0  0  0  0  0
  -21.9590   -9.0980   20.4680 C   0  0  0  0  0  3  0  0  0  0  0  0
  -22.6900  -10.2860   20.2980 C   0  0  0  0  0  3  0  0  0  0  0  0
  -21.6140   -6.9870   21.4780 O   0  0  0  0  0  0  0  0  0  0  0  0
  -21.5510   -6.2420   22.6290 C   0  0  0  0  0  0  0  0  0  0  0  0
  -21.0870   -6.7880   23.8450 C   0  0  0  0  0  3  0  0  0  0  0  0
  -20.9720   -5.9690   24.9860 C   0  0  0  0  0  3  0  0  0  0  0  0
  -21.3100   -4.6050   24.9110 C   0  0  0  0  0  0  0  0  0  0  0  0
  -21.7680   -4.0580   23.6990 C   0  0  0  0  0  3  0  0  0  0  0  0
  -21.8840   -4.8740   22.5610 C   0  0  0  0  0  0  0  0  0  0  0  0
  -22.3040   -4.3360   21.3900 F   0  0  0  0  0  0  0  0  0  0  0  0
  -21.1930   -3.8160   26.0060 F   0  0  0  0  0  0  0  0  0  0  0  0
  -22.7180  -13.6190   21.2480 C   0  0  0  0  0  0  0  0  0  0  0  0
  -22.0020  -12.9090   22.1110 N   0  0  0  0  0  0  0  0  0  0  0  0
  -22.2780  -14.6560   20.7520 O   0  0  0  0  0  0  0  0  0  0  0  0
  -22.3730  -12.0710   22.5320 H   0  0  0  0  0  0  0  0  0  0  0  0
  -21.0680  -13.2090   22.3540 H   0  0  0  0  0  0  0  0  0  0  0  0
  -25.3300  -15.3040   20.4280 N   0  0  0  0  0  0  0  0  0  0  0  0
  -24.5720  -15.9610   20.5800 H   0  0  0  0  0  0  0  0  0  0  0  0
  -26.1850  -15.7500   20.1200 H   0  0  0  0  0  0  0  0  0  0  0  0
  -28.0120  -24.0970   20.5250 C   0  0  0  0  0  2  0  0  0  0  0  0
  -28.2060  -25.7760   20.3150 O   0  0  0  0  0  0  0  0  0  0  0  0
  -24.6250  -31.8990   23.2150 C   0  0  0  0  0  0  0  0  0  0  0  0
  -27.1940  -26.9070   20.2910 C   0  0  0  0  0  0  0  0  0  0  0  0
  -23.4440  -30.4790   21.5900 C   0  0  0  0  0  3  0  0  0  0  0  0
  -24.9020  -28.8420   20.2020 C   0  0  0  0  0  0  0  0  0  0  0  0
  -26.0170  -30.6690   21.4620 C   0  0  0  0  0  2  0  0  0  0  0  0
  -26.0910  -29.2410   20.8260 C   0  0  0  0  0  0  0  0  0  0  0  0
  -27.2310  -28.2990   20.8350 C   0  0  0  0  0  3  0  0  0  0  0  0
  -25.9700  -26.6810   19.6180 C   0  0  0  0  0  3  0  0  0  0  0  0
  -24.8730  -27.5850   19.5760 C   0  0  0  0  0  3  0  0  0  0  0  0
  -23.6870  -29.7730   20.2260 C   0  0  0  0  0  2  0  0  0  0  0  0
  -24.7170  -31.0460   22.1410 N   0  0  0  0  0  0  0  0  0  0  0  0
  -23.5300  -32.1950   23.7240 O   0  0  0  0  0  0  0  0  0  0  0  0
  -22.7400  -29.5000   22.5670 C   0  0  0  0  0  0  0  0  0  0  0  0
  -21.4110  -29.3310   22.4340 N   0  0  0  0  0  0  0  0  0  0  0  0
  -23.3980  -28.8920   23.4140 O   0  0  0  0  0  0  0  0  0  0  0  0
  -20.9300  -29.8720   21.7280 H   0  0  0  0  0  0  0  0  0  0  0  0
  -18.0280  -28.1130   22.9420 C   0  0  0  0  0  0  0  0  0  0  0  0
  -20.5860  -28.4000   23.2130 C   0  0  0  0  0  3  0  0  0  0  0  0
  -20.6960  -26.9600   22.6570 C   0  0  0  0  0  2  0  0  0  0  0  0
  -19.6020  -26.6180   21.6430 C   0  0  0  0  0  2  0  0  0  0  0  0
  -18.2160  -26.7600   22.2790 C   0  0  0  0  0  2  0  0  0  0  0  0
  -19.1390  -28.8900   23.3660 C   0  0  0  0  0  0  0  0  0  0  0  0
  -18.9070  -30.1540   23.9510 C   0  0  0  0  0  3  0  0  0  0  0  0
  -17.5960  -30.6430   24.1130 C   0  0  0  0  0  3  0  0  0  0  0  0
  -16.5000  -29.8650   23.7030 C   0  0  0  0  0  3  0  0  0  0  0  0
  -16.7160  -28.6020   23.1240 C   0  0  0  0  0  3  0  0  0  0  0  0
  -25.8870  -32.5570   23.8500 C   0  0  0  0  0  3  0  0  0  0  0  0
  -25.5620  -33.9610   24.1640 N   0  0  0  0  0  0  0  0  0  0  0  0
  -25.9000  -35.0150   23.4100 C   0  0  0  0  0  0  0  0  0  0  0  0
  -26.5790  -34.9100   22.3860 O   0  0  0  0  0  0  0  0  0  0  0  0
  -24.9590  -34.1150   24.9580 H   0  0  0  0  0  0  0  0  0  0  0  0
  -24.1830  -36.8210   23.0380 C   0  0  0  0  0  1  0  0  0  0  0  0
  -25.4130  -36.4090   23.8630 C   0  0  0  0  0  3  0  0  0  0  0  0
  -27.5340  -37.2970   24.7270 C   0  0  0  0  0  1  0  0  0  0  0  0
  -26.4500  -37.4590   23.7620 N   0  0  0  0  0  0  0  0  0  0  0  0
  -26.0430  -38.3820   23.8940 H   0  0  0  0  0  0  0  0  0  0  0  0
  -26.3820  -31.8140   25.1540 C   0  0  1  0  0  0  0  0  0  0  0  0
  -25.2700  -31.6000   26.2090 C   0  0  0  0  0  1  0  0  0  0  0  0
  -26.9730  -30.4280   24.8120 C   0  0  0  0  0  1  0  0  0  0  0  0
  -27.5190  -32.6240   25.8180 C   0  0  0  0  0  1  0  0  0  0  0  0
  1  3  1  0
  1  4  1  0
  2  7  1  0
  5  2  1  0
  6  5  1  0
  6  1  1  0
  6  8  1  0
  7 47  1  0
  7  8  1  0
  8  4  1  0
  9  2  2  0
 10  9  1  0
 11  3  1  0
 12 17  1  0
 13 14  1  0
 13 12  1  0
 15 14  1  0
 15 22  1  0
 15 16  1  0
 17 11  1  0
 17 16  1  0
 18 11  2  0
 19 20  2  0
 20 39  1  0
 21 20  1  0
 21 24  1  0
 22 23  1  0
 22 19  1  0
 23 21  2  0
 24 25  1  0
 25 26  2  0
 27 30  1  0
 27 26  1  0
 28 27  2  0
 29 28  1  0
 29 24  2  0
 30 31  1  0
 31 32  1  0
 32 33  2  0
 34 33  1  0
 34 38  1  0
 35 34  2  0
 36 31  2  0
 36 35  1  0
 37 36  1  0
 39 40  1  0
 40 43  1  0
 40 42  1  0
 41 39  2  0
 44 19  1  0
 44 45  1  0
 46 44  1  0
 48 47  1  0
 49 60  2  0
 50 48  1  0
 50 55  1  0
 51 59  1  0
 51 61  1  0
 52 58  1  0
 52 54  1  0
 53 59  1  0
 54 55  2  0
 54 53  1  0
 56 50  2  0
 57 56  1  0
 57 52  2  0
 58 51  1  0
 59 49  1  0
 61 63  2  0
 62 61  1  0
 64 62  1  0
 65 74  2  0
 65 70  1  0
 66 62  1  0
 66 70  1  0
 67 66  1  0
 68 69  1  0
 68 67  1  0
 69 65  1  0
 70 71  2  0
 71 72  1  0
 73 72  2  0
 74 73  1  0
 75 49  1  0
 75 76  1  0
 75 85  1  0
 76 79  1  0
 77 81  1  0
 77 76  1  0
 78 77  2  0
 81 80  1  0
 83 81  1  0
 83 84  1  0
 83 82  1  0
 85 88  1  1
 85 86  1  0
 87 85  1  0
M  ISO  4   3 100  11 100  47 101  48 101
M  END
>  <TORSDO>  (65) 
F 17

>  <SCORE>  (65) 
-16.354

>  <name>  (65) 
65

>  <ligand_id>  (65) 
65

>  <original_smiles>  (65) 
[H]N=C1C([H])([H])C2([H])C(=C([H])C(=O)N3C([H])([H])C([H])([H])C([H])([H])C([H])(n4nc(-c5c([H])c([H])c(Oc6c([H])c([H])c(F)c([H])c6F)c([H])c5[H])c(C(=O)N([H])[H])c4N([H])[H])C3([H])[H])C([H])([H])C2([H])C1([H])C([H])([H])Oc1c([H])c([H])c2c(c1[H])C([H])([H])N(C(=O)C([H])(N([H])C(=O)C([H])(N([H])C([H])([H])[H])C([H])([H])[H])C(C([H])([H])[H])(C([H])([H])[H])C([H])([H])[H])C([H])(C(=O)N([H])C1([H])c3c([H])c([H])c([H])c([H])c3C([H])([H])C([H])([H])C1([H])[H])C2([H])[H]

>  <smiles>  (65) 
[H]N=C1C([H])([H])C2([H])C(=C([H])C(=O)N3C([H])([H])C([H])([H])C([H])([H])C([H])(n4nc(-c5c([H])c([H])c(Oc6c([H])c([H])c(F)c([H])c6F)c([H])c5[H])c(C(=O)N([H])[H])c4N([H])[H])C3([H])[H])C([H])([H])C2([H])C1([H])C([H])([H])Oc1c([H])c([H])c2c(c1[H])C([H])([H])N(C(=O)C([H])(N([H])C(=O)C([H])(N([H])C([H])([H])[H])C([H])([H])[H])C(C([H])([H])[H])(C([H])([H])[H])C([H])([H])[H])C([H])(C(=O)N([H])C1([H])c3c([H])c([H])c([H])c([H])c3C([H])([H])C([H])([H])C1([H])[H])C2([H])[H]

$$$$
66:0:0
     RDKit          3D

 89 98  0  0  1  0  0  0  0  0999 V2000
  -28.2070  -18.5990   18.8110 C   0  0  0  0  0  2  0  0  0  0  0  0
  -27.5600  -19.9000   19.2470 C   0  0  0  0  0  3  0  0  0  0  0  0
  -29.5010  -18.6990   19.6920 C   0  0  1  0  0  0  0  0  0  0  0  0
  -28.6560  -20.3350   20.1510 C   0  0  2  0  0  0  0  0  0  0  0  0
  -27.3290  -20.1060   20.6560 O   0  0  0  0  0  0  0  0  0  0  0  0
  -30.3440  -15.6530   20.1020 C   0  0  0  0  0  0  0  0  0  0  0  0
  -30.4240  -13.1120   19.3180 C   0  0  0  0  0  2  0  0  0  0  0  0
  -29.5020  -12.7280   18.1270 C   0  0  0  0  0  2  0  0  0  0  0  0
  -28.0790  -12.4070   18.6140 C   0  0  0  0  0  2  0  0  0  0  0  0
  -27.6050  -13.4160   19.6850 C   0  0  0  0  0  3  0  0  0  0  0  0
  -28.6630  -13.7060   20.7710 C   0  0  0  0  0  2  0  0  0  0  0  0
  -29.8340  -14.2900   20.0930 N   0  0  0  0  0  0  0  0  0  0  0  0
  -31.5690  -15.5960   19.8750 O   0  0  0  0  0  0  0  0  0  0  0  0
  -29.5630  -16.9830   20.1720 N   0  0  0  0  0  0  0  0  0  0  0  0
  -28.6210  -16.7020   20.3970 H   0  0  0  0  0  0  0  0  0  0  0  0
  -25.2820  -13.9610   20.5510 C   0  0  0  0  0  0  0  0  0  0  0  0
  -24.2200  -13.1840   20.9200 C   0  0  0  0  0  0  0  0  0  0  0  0
  -24.6730  -11.8310   20.8410 C   0  0  0  0  0  0  0  0  0  0  0  0
  -26.3020  -13.0830   20.2460 N   0  0  0  0  0  0  0  0  0  0  0  0
  -25.9570  -11.7890   20.4900 N   0  0  0  0  0  0  0  0  0  0  0  0
  -23.9360  -10.5730   21.0110 C   0  0  0  0  0  0  0  0  0  0  0  0
  -24.3450   -9.5920   21.9430 C   0  0  0  0  0  3  0  0  0  0  0  0
  -23.6060   -8.4010   22.1000 C   0  0  0  0  0  3  0  0  0  0  0  0
  -22.4400   -8.1820   21.3260 C   0  0  0  0  0  0  0  0  0  0  0  0
  -22.0510   -9.1490   20.3830 C   0  0  0  0  0  3  0  0  0  0  0  0
  -22.7920  -10.3310   20.2250 C   0  0  0  0  0  3  0  0  0  0  0  0
  -21.6690   -7.0460   21.3960 O   0  0  0  0  0  0  0  0  0  0  0  0
  -21.5500   -6.3270   22.5580 C   0  0  0  0  0  0  0  0  0  0  0  0
  -21.0000   -6.8910   23.7300 C   0  0  0  0  0  3  0  0  0  0  0  0
  -20.8320   -6.0970   24.8830 C   0  0  0  0  0  3  0  0  0  0  0  0
  -21.2040   -4.7380   24.8620 C   0  0  0  0  0  0  0  0  0  0  0  0
  -21.7510   -4.1740   23.6960 C   0  0  0  0  0  3  0  0  0  0  0  0
  -21.9170   -4.9660   22.5460 C   0  0  0  0  0  0  0  0  0  0  0  0
  -22.4230   -4.4120   21.4200 F   0  0  0  0  0  0  0  0  0  0  0  0
  -21.0350   -3.9750   25.9660 F   0  0  0  0  0  0  0  0  0  0  0  0
  -22.8350  -13.6670   21.2420 C   0  0  0  0  0  0  0  0  0  0  0  0
  -22.1220  -12.9600   22.1070 N   0  0  0  0  0  0  0  0  0  0  0  0
  -22.3960  -14.7060   20.7510 O   0  0  0  0  0  0  0  0  0  0  0  0
  -22.4880  -12.1160   22.5210 H   0  0  0  0  0  0  0  0  0  0  0  0
  -21.1950  -13.2680   22.3650 H   0  0  0  0  0  0  0  0  0  0  0  0
  -25.4480  -15.3370   20.4120 N   0  0  0  0  0  0  0  0  0  0  0  0
  -24.6880  -15.9900   20.5740 H   0  0  0  0  0  0  0  0  0  0  0  0
  -26.2840  -15.7740   20.0500 H   0  0  0  0  0  0  0  0  0  0  0  0
  -30.7510  -19.0130   18.8930 C   0  0  0  0  0  0  0  0  0  0  0  0
  -30.5360  -19.7470   17.5650 C   0  0  0  0  0  1  0  0  0  0  0  0
  -31.9020  -18.6990   19.2010 O   0  0  0  0  0  0  0  0  0  0  0  0
  -28.9890  -22.2030   20.0840 C   0  0  0  0  0  3  0  0  0  0  0  0
  -27.9900  -23.8610   20.0280 C   0  0  0  0  0  3  0  0  0  0  0  0
  -28.1950  -25.5990   20.1620 O   0  0  0  0  0  0  0  0  0  0  0  0
  -24.6790  -31.8480   23.1480 C   0  0  0  0  0  0  0  0  0  0  0  0
  -27.2170  -26.8040   20.1270 C   0  0  0  0  0  0  0  0  0  0  0  0
  -23.5030  -30.4590   21.4960 C   0  0  0  0  0  3  0  0  0  0  0  0
  -24.9560  -28.8230   20.0810 C   0  0  0  0  0  0  0  0  0  0  0  0
  -26.0830  -30.6050   21.3920 C   0  0  0  0  0  2  0  0  0  0  0  0
  -26.1500  -29.1780   20.7210 C   0  0  0  0  0  0  0  0  0  0  0  0
  -27.2670  -28.1960   20.7110 C   0  0  0  0  0  3  0  0  0  0  0  0
  -25.9900  -26.6520   19.4390 C   0  0  0  0  0  3  0  0  0  0  0  0
  -24.9110  -27.5860   19.4180 C   0  0  0  0  0  3  0  0  0  0  0  0
  -23.7530  -29.7740   20.1200 C   0  0  0  0  0  2  0  0  0  0  0  0
  -24.7790  -31.0000   22.0670 N   0  0  0  0  0  0  0  0  0  0  0  0
  -23.5810  -32.1440   23.6480 O   0  0  0  0  0  0  0  0  0  0  0  0
  -22.7830  -29.4750   22.4570 C   0  0  0  0  0  0  0  0  0  0  0  0
  -21.4530  -29.3140   22.3170 N   0  0  0  0  0  0  0  0  0  0  0  0
  -23.4310  -28.8440   23.2930 O   0  0  0  0  0  0  0  0  0  0  0  0
  -20.9860  -29.8680   21.6160 H   0  0  0  0  0  0  0  0  0  0  0  0
  -18.0580  -28.1260   22.8210 C   0  0  0  0  0  0  0  0  0  0  0  0
  -20.6190  -28.3780   23.0790 C   0  0  0  0  0  3  0  0  0  0  0  0
  -20.7100  -26.9520   22.4940 C   0  0  0  0  0  2  0  0  0  0  0  0
  -19.6110  -26.6500   21.4700 C   0  0  0  0  0  2  0  0  0  0  0  0
  -18.2320  -26.7850   22.1250 C   0  0  0  0  0  2  0  0  0  0  0  0
  -19.1800  -28.8800   23.2570 C   0  0  0  0  0  0  0  0  0  0  0  0
  -18.9620  -30.1310   23.8750 C   0  0  0  0  0  3  0  0  0  0  0  0
  -17.6580  -30.6270   24.0550 C   0  0  0  0  0  3  0  0  0  0  0  0
  -16.5500  -29.8700   23.6360 C   0  0  0  0  0  3  0  0  0  0  0  0
  -16.7530  -28.6170   23.0250 C   0  0  0  0  0  3  0  0  0  0  0  0
  -25.9340  -32.4980   23.8020 C   0  0  0  0  0  3  0  0  0  0  0  0
  -26.4200  -31.7340   25.0960 C   0  0  1  0  0  0  0  0  0  0  0  0
  -25.3160  -31.5540   26.1650 C   0  0  0  0  0  1  0  0  0  0  0  0
  -26.9570  -30.3290   24.7420 C   0  0  0  0  0  1  0  0  0  0  0  0
  -27.5950  -32.5030   25.7490 C   0  0  0  0  0  1  0  0  0  0  0  0
  -25.6080  -33.8960   24.1410 N   0  0  0  0  0  0  0  0  0  0  0  0
  -25.9290  -34.9700   23.4040 C   0  0  0  0  0  0  0  0  0  0  0  0
  -26.5900  -34.8870   22.3660 O   0  0  0  0  0  0  0  0  0  0  0  0
  -25.0140  -34.0310   24.9460 H   0  0  0  0  0  0  0  0  0  0  0  0
  -24.1860  -36.7680   23.1020 C   0  0  0  0  0  1  0  0  0  0  0  0
  -25.4410  -36.3520   23.8870 C   0  0  0  0  0  3  0  0  0  0  0  0
  -27.5750  -37.2500   24.7100 C   0  0  0  0  0  1  0  0  0  0  0  0
  -26.4690  -37.4140   23.7720 N   0  0  0  0  0  0  0  0  0  0  0  0
  -26.0570  -38.3310   23.9220 H   0  0  0  0  0  0  0  0  0  0  0  0
  1  3  1  0
  2  1  1  0
  2  4  1  0
  2  5  1  0
  3 44  1  0
  3  4  1  0
  3 14  1  1
  4 47  1  6
  4  5  1  0
  6 14  1  0
  7 12  1  0
  8  9  1  0
  8  7  1  0
 10  9  1  0
 10 19  1  0
 10 11  1  0
 12  6  1  0
 12 11  1  0
 13  6  2  0
 14 15  1  0
 16 17  2  0
 17 36  1  0
 18 17  1  0
 18 21  1  0
 19 20  1  0
 19 16  1  0
 20 18  2  0
 21 22  1  0
 22 23  2  0
 24 27  1  0
 24 23  1  0
 25 24  2  0
 26 25  1  0
 26 21  2  0
 27 28  1  0
 28 29  1  0
 29 30  2  0
 31 30  1  0
 31 35  1  0
 32 31  2  0
 33 28  2  0
 33 32  1  0
 34 33  1  0
 36 37  1  0
 37 40  1  0
 37 39  1  0
 38 36  2  0
 41 16  1  0
 41 42  1  0
 43 41  1  0
 44 46  2  0
 45 44  1  0
 48 47  2  0
 48 49  1  0
 50 61  2  0
 51 49  1  0
 51 56  1  0
 52 60  1  0
 52 62  1  0
 53 59  1  0
 53 55  1  0
 54 60  1  0
 55 54  1  0
 56 55  2  0
 57 51  2  0
 58 57  1  0
 58 53  2  0
 59 52  1  0
 60 50  1  0
 62 64  2  0
 63 62  1  0
 65 63  1  0
 66 75  2  0
 66 71  1  0
 67 63  1  0
 67 71  1  0
 68 67  1  0
 69 70  1  0
 69 68  1  0
 70 66  1  0
 71 72  2  0
 72 73  1  0
 74 73  2  0
 75 74  1  0
 76 50  1  0
 76 81  1  0
 76 77  1  0
 77 80  1  1
 77 78  1  0
 79 77  1  0
 81 84  1  0
 82 86  1  0
 82 81  1  0
 83 82  2  0
 86 85  1  0
 88 86  1  0
 88 89  1  0
 88 87  1  0
M  ISO  4   6 100  14 100  48 101  49 101
M  END
>  <TORSDO>  (66) 
F 19

>  <SCORE>  (66) 
-15.649

>  <name>  (66) 
66

>  <ligand_id>  (66) 
66

>  <original_smiles>  (66) 
[H]c1c([H])c([H])c2c(c1[H])C([H])([H])C([H])([H])C([H])([H])C2([H])N([H])C(=O)C1([H])N(C(=O)C([H])(N([H])C(=O)C([H])(N([H])C([H])([H])[H])C([H])([H])[H])C(C([H])([H])[H])(C([H])([H])[H])C([H])([H])[H])C([H])([H])c2c([H])c(OC([H])([H])C([H])([H])C34OC3([H])C([H])([H])C4(C(=O)C([H])([H])[H])N([H])C(=O)N3C([H])([H])C([H])([H])C([H])([H])C([H])(n4nc(-c5c([H])c([H])c(Oc6c([H])c([H])c(F)c([H])c6F)c([H])c5[H])c(C(=O)N([H])[H])c4N([H])[H])C3([H])[H])c([H])c([H])c2C1([H])[H]

>  <smiles>  (66) 
[H]c1c([H])c([H])c2c(c1[H])C([H])([H])C([H])([H])C([H])([H])C2([H])N([H])C(=O)C1([H])N(C(=O)C([H])(N([H])C(=O)C([H])(N([H])C([H])([H])[H])C([H])([H])[H])C(C([H])([H])[H])(C([H])([H])[H])C([H])([H])[H])C([H])([H])c2c([H])c(OC([H])([H])C([H])([H])C34OC3([H])C([H])([H])C4(C(=O)C([H])([H])[H])N([H])C(=O)N3C([H])([H])C([H])([H])C([H])([H])C([H])(n4nc(-c5c([H])c([H])c(Oc6c([H])c([H])c(F)c([H])c6F)c([H])c5[H])c(C(=O)N([H])[H])c4N([H])[H])C3([H])[H])c([H])c([H])c2C1([H])[H]

$$$$
67:0:0
     RDKit          3D

 90 99  0  0  1  0  0  0  0  0999 V2000
  -31.0420  -20.9150   21.3360 C   0  0  0  0  0  2  0  0  0  0  0  0
  -28.5550  -20.5370   19.7660 C   0  0  0  0  0  2  0  0  0  0  0  0
  -30.8580  -20.1650   20.0610 C   0  0  0  0  0  3  0  0  0  0  0  0
  -30.4830  -21.7540   20.1710 C   0  0  0  0  0  3  0  0  0  0  0  0
  -29.7000  -19.1570   19.7560 C   0  0  0  0  0  3  0  0  0  0  0  0
  -28.9680  -22.2510   20.1610 C   0  0  2  0  0  0  0  0  0  0  0  0
  -28.4950  -22.4830   21.6160 C   0  0  0  0  0  0  0  0  0  0  0  0
  -27.2550  -22.1400   21.9490 N   0  0  0  0  0  0  0  0  0  0  0  0
  -29.2270  -23.0210   22.4470 O   0  0  0  0  0  0  0  0  0  0  0  0
  -26.6410  -21.7200   21.2670 H   0  0  0  0  0  0  0  0  0  0  0  0
  -26.9150  -22.2970   22.8880 H   0  0  0  0  0  0  0  0  0  0  0  0
  -29.6640  -17.2990   20.2580 C   0  0  0  0  0  2  0  0  0  0  0  0
  -30.4450  -15.6400   19.9780 C   0  0  0  0  0  0  0  0  0  0  0  0
  -30.4870  -13.0760   19.2460 C   0  0  0  0  0  2  0  0  0  0  0  0
  -29.5710  -12.7270   18.0380 C   0  0  0  0  0  2  0  0  0  0  0  0
  -28.1320  -12.4420   18.4980 C   0  0  0  0  0  2  0  0  0  0  0  0
  -27.6690  -13.4730   19.5540 C   0  0  0  0  0  3  0  0  0  0  0  0
  -28.7150  -13.7390   20.6600 C   0  0  0  0  0  2  0  0  0  0  0  0
  -29.9270  -14.2780   20.0070 N   0  0  0  0  0  0  0  0  0  0  0  0
  -31.6530  -15.5740   19.6840 O   0  0  0  0  0  0  0  0  0  0  0  0
  -25.3340  -14.0860   20.3500 C   0  0  0  0  0  0  0  0  0  0  0  0
  -24.2550  -13.3410   20.7360 C   0  0  0  0  0  0  0  0  0  0  0  0
  -24.6820  -11.9780   20.7000 C   0  0  0  0  0  0  0  0  0  0  0  0
  -26.3460  -13.1810   20.0890 N   0  0  0  0  0  0  0  0  0  0  0  0
  -25.9690  -11.9050   20.3680 N   0  0  0  0  0  0  0  0  0  0  0  0
  -23.9170  -10.7390   20.9040 C   0  0  0  0  0  0  0  0  0  0  0  0
  -24.3270   -9.7580   21.8330 C   0  0  0  0  0  3  0  0  0  0  0  0
  -23.5600   -8.5880   22.0270 C   0  0  0  0  0  3  0  0  0  0  0  0
  -22.3680   -8.3910   21.2900 C   0  0  0  0  0  0  0  0  0  0  0  0
  -21.9760   -9.3590   20.3500 C   0  0  0  0  0  3  0  0  0  0  0  0
  -22.7420  -10.5210   20.1550 C   0  0  0  0  0  3  0  0  0  0  0  0
  -21.5740   -7.2740   21.3930 O   0  0  0  0  0  0  0  0  0  0  0  0
  -21.5190   -6.5320   22.5470 C   0  0  0  0  0  0  0  0  0  0  0  0
  -21.1230   -7.0980   23.7780 C   0  0  0  0  0  3  0  0  0  0  0  0
  -21.0140   -6.2850   24.9230 C   0  0  0  0  0  3  0  0  0  0  0  0
  -21.2900   -4.9080   24.8390 C   0  0  0  0  0  0  0  0  0  0  0  0
  -21.6800   -4.3410   23.6120 C   0  0  0  0  0  3  0  0  0  0  0  0
  -21.7900   -5.1520   22.4690 C   0  0  0  0  0  0  0  0  0  0  0  0
  -22.1450   -4.5960   21.2850 F   0  0  0  0  0  0  0  0  0  0  0  0
  -21.1790   -4.1250   25.9370 F   0  0  0  0  0  0  0  0  0  0  0  0
  -22.8770  -13.8620   21.0200 C   0  0  0  0  0  0  0  0  0  0  0  0
  -22.1430  -13.2020   21.9060 N   0  0  0  0  0  0  0  0  0  0  0  0
  -22.4650  -14.8930   20.4900 O   0  0  0  0  0  0  0  0  0  0  0  0
  -22.4920  -12.3680   22.3560 H   0  0  0  0  0  0  0  0  0  0  0  0
  -21.2180  -13.5340   22.1400 H   0  0  0  0  0  0  0  0  0  0  0  0
  -25.5350  -15.4510   20.1700 N   0  0  0  0  0  0  0  0  0  0  0  0
  -24.7910  -16.1280   20.2970 H   0  0  0  0  0  0  0  0  0  0  0  0
  -26.3940  -15.8650   19.8310 H   0  0  0  0  0  0  0  0  0  0  0  0
  -28.4220  -23.9830   19.5100 C   0  0  0  0  0  2  0  0  0  0  0  0
  -28.4550  -25.6890   19.8670 O   0  0  0  0  0  0  0  0  0  0  0  0
  -24.5970  -31.6250   22.9270 C   0  0  0  0  0  0  0  0  0  0  0  0
  -27.4170  -26.8270   19.8020 C   0  0  0  0  0  0  0  0  0  0  0  0
  -23.4970  -30.2220   21.2340 C   0  0  0  0  0  3  0  0  0  0  0  0
  -25.0390  -28.7060   19.7820 C   0  0  0  0  0  0  0  0  0  0  0  0
  -26.0610  -30.5150   21.1410 C   0  0  0  0  0  2  0  0  0  0  0  0
  -26.2060  -29.1140   20.4400 C   0  0  0  0  0  0  0  0  0  0  0  0
  -27.3780  -28.2000   20.4220 C   0  0  0  0  0  3  0  0  0  0  0  0
  -26.2090  -26.6170   19.0910 C   0  0  0  0  0  3  0  0  0  0  0  0
  -25.0760  -27.4850   19.0850 C   0  0  0  0  0  3  0  0  0  0  0  0
  -23.7820  -29.5840   19.8430 C   0  0  0  0  0  2  0  0  0  0  0  0
  -24.7400  -30.8190   21.8220 N   0  0  0  0  0  0  0  0  0  0  0  0
  -23.4860  -31.8500   23.4380 O   0  0  0  0  0  0  0  0  0  0  0  0
  -22.8270  -29.1750   22.1660 C   0  0  0  0  0  0  0  0  0  0  0  0
  -21.4970  -28.9930   22.0560 N   0  0  0  0  0  0  0  0  0  0  0  0
  -23.5140  -28.5280   22.9590 O   0  0  0  0  0  0  0  0  0  0  0  0
  -20.9900  -29.5680   21.3970 H   0  0  0  0  0  0  0  0  0  0  0  0
  -18.1390  -27.7310   22.6310 C   0  0  0  0  0  0  0  0  0  0  0  0
  -20.7080  -27.9990   22.7950 C   0  0  0  0  0  3  0  0  0  0  0  0
  -20.7870  -26.6110   22.1160 C   0  0  0  0  0  2  0  0  0  0  0  0
  -19.6420  -26.3550   21.1310 C   0  0  0  0  0  2  0  0  0  0  0  0
  -18.2900  -26.4390   21.8450 C   0  0  0  0  0  2  0  0  0  0  0  0
  -19.2720  -28.4710   23.0630 C   0  0  0  0  0  0  0  0  0  0  0  0
  -19.0720  -29.6790   23.7650 C   0  0  0  0  0  3  0  0  0  0  0  0
  -17.7730  -30.1480   24.0350 C   0  0  0  0  0  3  0  0  0  0  0  0
  -16.6550  -29.4070   23.6150 C   0  0  0  0  0  3  0  0  0  0  0  0
  -16.8400  -28.1980   22.9200 C   0  0  0  0  0  3  0  0  0  0  0  0
  -25.8200  -32.3170   23.6020 C   0  0  0  0  0  3  0  0  0  0  0  0
  -26.3620  -31.5290   24.8590 C   0  0  1  0  0  0  0  0  0  0  0  0
  -25.2710  -31.2010   25.9080 C   0  0  0  0  0  1  0  0  0  0  0  0
  -27.0160  -30.1930   24.4390 C   0  0  0  0  0  1  0  0  0  0  0  0
  -27.4660  -32.3540   25.5600 C   0  0  0  0  0  1  0  0  0  0  0  0
  -25.4160  -33.6790   24.0020 N   0  0  0  0  0  0  0  0  0  0  0  0
  -25.6690  -34.7940   23.3040 C   0  0  0  0  0  0  0  0  0  0  0  0
  -26.3260  -34.7910   22.2610 O   0  0  0  0  0  0  0  0  0  0  0  0
  -24.8250  -33.7500   24.8160 H   0  0  0  0  0  0  0  0  0  0  0  0
  -23.8150  -36.4900   23.1040 C   0  0  0  0  0  1  0  0  0  0  0  0
  -25.1100  -36.1270   23.8490 C   0  0  0  0  0  3  0  0  0  0  0  0
  -27.2060  -37.1240   24.6560 C   0  0  0  0  0  1  0  0  0  0  0  0
  -26.0650  -37.2530   23.7530 N   0  0  0  0  0  0  0  0  0  0  0  0
  -25.6030  -38.1360   23.9510 H   0  0  0  0  0  0  0  0  0  0  0  0
  2  6  1  0
  3  4  1  0
  3  1  1  0
  4  1  1  0
  5  2  1  0
  5  3  1  0
  5 12  1  0
  6 49  1  6
  6  4  1  0
  6  7  1  0
  7  8  1  0
  7  9  2  0
  8 11  1  0
 10  8  1  0
 13 19  1  0
 13 12  1  0
 14 19  1  0
 15 16  1  0
 15 14  1  0
 17 16  1  0
 17 24  1  0
 17 18  1  0
 19 18  1  0
 20 13  2  0
 21 22  2  0
 22 41  1  0
 23 22  1  0
 23 26  1  0
 24 21  1  0
 24 25  1  0
 25 23  2  0
 26 27  1  0
 27 28  2  0
 29 32  1  0
 29 28  1  0
 30 29  2  0
 31 30  1  0
 31 26  2  0
 32 33  1  0
 33 34  1  0
 34 35  2  0
 36 35  1  0
 36 40  1  0
 37 36  2  0
 38 33  2  0
 38 37  1  0
 39 38  1  0
 41 42  1  0
 42 45  1  0
 42 44  1  0
 43 41  2  0
 46 47  1  0
 46 21  1  0
 48 46  1  0
 49 50  1  0
 51 62  2  0
 52 50  1  0
 52 57  1  0
 53 61  1  0
 53 63  1  0
 54 60  1  0
 54 56  1  0
 55 61  1  0
 56 55  1  0
 57 56  2  0
 58 52  2  0
 59 58  1  0
 59 54  2  0
 60 53  1  0
 61 51  1  0
 63 65  2  0
 64 63  1  0
 66 64  1  0
 67 76  2  0
 67 72  1  0
 68 64  1  0
 68 72  1  0
 69 68  1  0
 70 71  1  0
 70 69  1  0
 71 67  1  0
 72 73  2  0
 73 74  1  0
 75 74  2  0
 76 75  1  0
 77 51  1  0
 77 82  1  0
 77 78  1  0
 78 81  1  1
 78 79  1  0
 80 78  1  0
 82 85  1  0
 83 87  1  0
 83 82  1  0
 84 83  2  0
 87 86  1  0
 89 87  1  0
 89 90  1  0
 89 88  1  0
M  ISO  4  12 100  13 100  49 101  50 101
M  END
>  <TORSDO>  (67) 
F 19

>  <SCORE>  (67) 
-15.724

>  <name>  (67) 
67

>  <ligand_id>  (67) 
67

>  <original_smiles>  (67) 
[H]c1c([H])c([H])c2c(c1[H])C([H])([H])C([H])([H])C([H])([H])C2([H])N([H])C(=O)C1([H])N(C(=O)C([H])(N([H])C(=O)C([H])(N([H])C([H])([H])[H])C([H])([H])[H])C(C([H])([H])[H])(C([H])([H])[H])C([H])([H])[H])C([H])([H])c2c([H])c(OC([H])([H])C3(C(=O)N([H])[H])C([H])([H])C([H])(C([H])([H])C(=O)N4C([H])([H])C([H])([H])C([H])([H])C([H])(n5nc(-c6c([H])c([H])c(Oc7c([H])c([H])c(F)c([H])c7F)c([H])c6[H])c(C(=O)N([H])[H])c5N([H])[H])C4([H])[H])C4([H])C([H])([H])C43[H])c([H])c([H])c2C1([H])[H]

>  <smiles>  (67) 
[H]c1c([H])c([H])c2c(c1[H])C([H])([H])C([H])([H])C([H])([H])C2([H])N([H])C(=O)C1([H])N(C(=O)C([H])(N([H])C(=O)C([H])(N([H])C([H])([H])[H])C([H])([H])[H])C(C([H])([H])[H])(C([H])([H])[H])C([H])([H])[H])C([H])([H])c2c([H])c(OC([H])([H])C3(C(=O)N([H])[H])C([H])([H])C([H])(C([H])([H])C(=O)N4C([H])([H])C([H])([H])C([H])([H])C([H])(n5nc(-c6c([H])c([H])c(Oc7c([H])c([H])c(F)c([H])c7F)c([H])c6[H])c(C(=O)N([H])[H])c5N([H])[H])C4([H])[H])C4([H])C([H])([H])C43[H])c([H])c([H])c2C1([H])[H]

$$$$
68:0:0
     RDKit          3D

 90 99  0  0  1  0  0  0  0  0999 V2000
  -29.2880  -20.9280   22.2640 C   0  0  0  0  0  2  0  0  0  0  0  0
  -30.1290  -21.0370   19.5830 C   0  0  0  0  0  2  0  0  0  0  0  0
  -28.8090  -19.9460   21.1980 C   0  0  0  0  0  3  0  0  0  0  0  0
  -29.6580  -19.5090   19.9920 C   0  0  0  0  0  3  0  0  0  0  0  0
  -28.3970  -21.4470   21.1500 C   0  0  0  0  0  3  0  0  0  0  0  0
  -29.0770  -22.1170   19.9920 N   0  0  1  0  0  4  0  0  0  0  0  0
  -28.4060  -22.0680   19.2370 H   0  0  0  0  0  0  0  0  0  0  0  0
  -31.6900  -18.4400   21.2830 C   0  0  0  0  0  1  0  0  0  0  0  0
  -30.6890  -18.1510   20.1470 C   0  0  0  0  0  3  0  0  0  0  0  0
  -30.9970  -15.3890   20.0680 C   0  0  0  0  0  0  0  0  0  0  0  0
  -30.8780  -12.9990   19.2050 C   0  0  0  0  0  2  0  0  0  0  0  0
  -29.9270  -12.8550   17.9940 C   0  0  0  0  0  2  0  0  0  0  0  0
  -28.4800  -12.6270   18.4640 C   0  0  0  0  0  2  0  0  0  0  0  0
  -28.0660  -13.6060   19.5930 C   0  0  0  0  0  3  0  0  0  0  0  0
  -29.1360  -13.7160   20.7010 C   0  0  0  0  0  2  0  0  0  0  0  0
  -30.3900  -14.1280   20.0540 N   0  0  0  0  0  0  0  0  0  0  0  0
  -32.1910  -15.4210   19.7500 O   0  0  0  0  0  0  0  0  0  0  0  0
  -30.2660  -16.6120   20.2380 N   0  0  0  0  0  0  0  0  0  0  0  0
  -29.2870  -16.4670   20.4360 H   0  0  0  0  0  0  0  0  0  0  0  0
  -25.7070  -14.1730   20.4080 C   0  0  0  0  0  0  0  0  0  0  0  0
  -24.6480  -13.3940   20.7850 C   0  0  0  0  0  0  0  0  0  0  0  0
  -25.1050  -12.0420   20.7070 C   0  0  0  0  0  0  0  0  0  0  0  0
  -26.7410  -13.2980   20.1200 N   0  0  0  0  0  0  0  0  0  0  0  0
  -26.3890  -12.0090   20.3670 N   0  0  0  0  0  0  0  0  0  0  0  0
  -24.3750  -10.7770   20.8820 C   0  0  0  0  0  0  0  0  0  0  0  0
  -24.7690   -9.8200   21.8440 C   0  0  0  0  0  3  0  0  0  0  0  0
  -24.0360   -8.6250   22.0070 C   0  0  0  0  0  3  0  0  0  0  0  0
  -22.8950   -8.3770   21.2070 C   0  0  0  0  0  0  0  0  0  0  0  0
  -22.5200   -9.3230   20.2370 C   0  0  0  0  0  3  0  0  0  0  0  0
  -23.2540  -10.5090   20.0710 C   0  0  0  0  0  3  0  0  0  0  0  0
  -22.1380   -7.2320   21.2770 O   0  0  0  0  0  0  0  0  0  0  0  0
  -21.9570   -6.5610   22.4600 C   0  0  0  0  0  0  0  0  0  0  0  0
  -21.3640   -7.1810   23.5830 C   0  0  0  0  0  3  0  0  0  0  0  0
  -21.1290   -6.4350   24.7560 C   0  0  0  0  0  3  0  0  0  0  0  0
  -21.4800   -5.0730   24.8070 C   0  0  0  0  0  0  0  0  0  0  0  0
  -22.0660   -4.4540   23.6880 C   0  0  0  0  0  3  0  0  0  0  0  0
  -22.3000   -5.1960   22.5180 C   0  0  0  0  0  0  0  0  0  0  0  0
  -22.8450   -4.5890   21.4360 F   0  0  0  0  0  0  0  0  0  0  0  0
  -21.2490   -4.3550   25.9310 F   0  0  0  0  0  0  0  0  0  0  0  0
  -23.2590  -13.8700   21.0980 C   0  0  0  0  0  0  0  0  0  0  0  0
  -22.5530  -13.1650   21.9740 N   0  0  0  0  0  0  0  0  0  0  0  0
  -22.8120  -14.9040   20.6010 O   0  0  0  0  0  0  0  0  0  0  0  0
  -22.9260  -12.3280   22.3940 H   0  0  0  0  0  0  0  0  0  0  0  0
  -21.6230  -13.4690   22.2290 H   0  0  0  0  0  0  0  0  0  0  0  0
  -25.8690  -15.5480   20.2610 N   0  0  0  0  0  0  0  0  0  0  0  0
  -25.1090  -16.1990   20.4230 H   0  0  0  0  0  0  0  0  0  0  0  0
  -26.7010  -15.9960   19.8990 H   0  0  0  0  0  0  0  0  0  0  0  0
  -29.4060  -23.6790   20.1200 C   0  0  0  0  0  3  0  0  0  0  0  0
  -28.2700  -24.9340   20.0060 C   0  0  0  0  0  3  0  0  0  0  0  0
  -28.4960  -26.4860   20.1440 O   0  0  0  0  0  0  0  0  0  0  0  0
  -24.7370  -31.9890   23.3490 C   0  0  0  0  0  0  0  0  0  0  0  0
  -27.4130  -27.4470   20.1250 C   0  0  0  0  0  0  0  0  0  0  0  0
  -23.5680  -30.6400   21.6510 C   0  0  0  0  0  3  0  0  0  0  0  0
  -25.0480  -29.1550   20.1630 C   0  0  0  0  0  0  0  0  0  0  0  0
  -26.1160  -30.9600   21.5000 C   0  0  0  0  0  2  0  0  0  0  0  0
  -26.2200  -29.5960   20.7920 C   0  0  0  0  0  0  0  0  0  0  0  0
  -27.4000  -28.7610   20.7540 C   0  0  0  0  0  3  0  0  0  0  0  0
  -26.2100  -27.1140   19.4600 C   0  0  0  0  0  3  0  0  0  0  0  0
  -25.0580  -27.9280   19.4820 C   0  0  0  0  0  3  0  0  0  0  0  0
  -23.8040  -30.0270   20.2460 C   0  0  0  0  0  2  0  0  0  0  0  0
  -24.8280  -31.2150   22.2240 N   0  0  0  0  0  0  0  0  0  0  0  0
  -23.6450  -32.2290   23.8860 O   0  0  0  0  0  0  0  0  0  0  0  0
  -22.9060  -29.5790   22.5660 C   0  0  0  0  0  0  0  0  0  0  0  0
  -21.5830  -29.3740   22.4170 N   0  0  0  0  0  0  0  0  0  0  0  0
  -23.5840  -28.9460   23.3790 O   0  0  0  0  0  0  0  0  0  0  0  0
  -21.0910  -29.9410   21.7390 H   0  0  0  0  0  0  0  0  0  0  0  0
  -18.2330  -28.0670   22.8480 C   0  0  0  0  0  0  0  0  0  0  0  0
  -20.7810  -28.3870   23.1440 C   0  0  0  0  0  3  0  0  0  0  0  0
  -20.9260  -26.9820   22.5150 C   0  0  0  0  0  2  0  0  0  0  0  0
  -19.8400  -26.6700   21.4800 C   0  0  0  0  0  2  0  0  0  0  0  0
  -18.4490  -26.7530   22.1180 C   0  0  0  0  0  2  0  0  0  0  0  0
  -19.3280  -28.8420   23.3150 C   0  0  0  0  0  0  0  0  0  0  0  0
  -19.0700  -30.0710   23.9600 C   0  0  0  0  0  3  0  0  0  0  0  0
  -17.7510  -30.5310   24.1360 C   0  0  0  0  0  3  0  0  0  0  0  0
  -16.6700  -29.7540   23.6830 C   0  0  0  0  0  3  0  0  0  0  0  0
  -16.9120  -28.5230   23.0480 C   0  0  0  0  0  3  0  0  0  0  0  0
  -26.0010  -32.6220   24.0040 C   0  0  0  0  0  3  0  0  0  0  0  0
  -26.4780  -31.8540   25.3000 C   0  0  1  0  0  0  0  0  0  0  0  0
  -25.3510  -31.6110   26.3330 C   0  0  0  0  0  1  0  0  0  0  0  0
  -27.0770  -30.4780   24.9310 C   0  0  0  0  0  1  0  0  0  0  0  0
  -27.6100  -32.6510   25.9910 C   0  0  0  0  0  1  0  0  0  0  0  0
  -25.6850  -34.0240   24.3270 N   0  0  0  0  0  0  0  0  0  0  0  0
  -26.0040  -35.0740   23.5590 C   0  0  0  0  0  0  0  0  0  0  0  0
  -26.6610  -34.9640   22.5190 O   0  0  0  0  0  0  0  0  0  0  0  0
  -25.0950  -34.1800   25.1300 H   0  0  0  0  0  0  0  0  0  0  0  0
  -24.2480  -36.8480   23.2390 C   0  0  0  0  0  1  0  0  0  0  0  0
  -25.5210  -36.4660   24.0120 C   0  0  0  0  0  3  0  0  0  0  0  0
  -27.6690  -37.3880   24.7660 C   0  0  0  0  0  1  0  0  0  0  0  0
  -26.5380  -37.5280   23.8520 N   0  0  0  0  0  0  0  0  0  0  0  0
  -26.1270  -38.4440   23.9970 H   0  0  0  0  0  0  0  0  0  0  0  0
  2  6  1  0
  2  4  1  0
  3  1  1  0
  4  9  1  0
  4  3  1  0
  5  3  1  0
  5  1  1  0
  6 48  1  0
  6  5  1  0
  6  7  1  6
  9 18  1  0
  9  8  1  0
 10 18  1  0
 11 16  1  0
 12 13  1  0
 12 11  1  0
 14 13  1  0
 14 23  1  0
 14 15  1  0
 16 10  1  0
 16 15  1  0
 17 10  2  0
 18 19  1  0
 20 21  2  0
 21 40  1  0
 22 21  1  0
 22 25  1  0
 23 24  1  0
 23 20  1  0
 24 22  2  0
 25 26  1  0
 26 27  2  0
 28 31  1  0
 28 27  1  0
 29 28  2  0
 30 29  1  0
 30 25  2  0
 31 32  1  0
 32 37  2  0
 32 33  1  0
 33 34  2  0
 34 35  1  0
 35 39  1  0
 36 35  2  0
 37 36  1  0
 38 37  1  0
 40 41  1  0
 41 44  1  0
 41 43  1  0
 42 40  2  0
 45 20  1  0
 45 46  1  0
 47 45  1  0
 49 48  2  0
 49 50  1  0
 51 62  2  0
 52 50  1  0
 52 57  1  0
 53 61  1  0
 53 63  1  0
 54 60  1  0
 54 56  1  0
 55 61  1  0
 56 55  1  0
 57 56  2  0
 58 59  1  0
 58 52  2  0
 59 54  2  0
 60 53  1  0
 61 51  1  0
 63 65  2  0
 64 63  1  0
 66 64  1  0
 67 76  2  0
 67 72  1  0
 68 64  1  0
 68 72  1  0
 69 68  1  0
 70 71  1  0
 70 69  1  0
 71 67  1  0
 72 73  2  0
 73 74  1  0
 75 74  2  0
 76 75  1  0
 77 51  1  0
 77 82  1  0
 77 78  1  0
 78 81  1  1
 78 79  1  0
 80 78  1  0
 82 85  1  0
 83 87  1  0
 83 82  1  0
 84 83  2  0
 87 86  1  0
 89 90  1  0
 89 87  1  0
 89 88  1  0
M  ISO  4  10 100  18 100  49 101  50 101
M  END
>  <TORSDO>  (68) 
F 19

>  <SCORE>  (68) 
-14.338

>  <name>  (68) 
68

>  <ligand_id>  (68) 
68

>  <original_smiles>  (68) 
[H]c1c([H])c([H])c2c(c1[H])C([H])([H])C([H])([H])C([H])([H])C2([H])N([H])C(=O)C1([H])N(C(=O)C([H])(N([H])C(=O)C([H])(N([H])C([H])([H])[H])C([H])([H])[H])C(C([H])([H])[H])(C([H])([H])[H])C([H])([H])[H])C([H])([H])c2c([H])c(OC([H])([H])C([H])([H])[N+]3([H])C([H])([H])C([H])(C([H])(N([H])C(=O)N4C([H])([H])C([H])([H])C([H])([H])C([H])(n5nc(-c6c([H])c([H])c(Oc7c([H])c([H])c(F)c([H])c7F)c([H])c6[H])c(C(=O)N([H])[H])c5N([H])[H])C4([H])[H])C([H])([H])[H])C4([H])C([H])([H])C43[H])c([H])c([H])c2C1([H])[H]

>  <smiles>  (68) 
[H]c1c([H])c([H])c2c(c1[H])C([H])([H])C([H])([H])C([H])([H])C2([H])N([H])C(=O)C1([H])N(C(=O)C([H])(N([H])C(=O)C([H])(N([H])C([H])([H])[H])C([H])([H])[H])C(C([H])([H])[H])(C([H])([H])[H])C([H])([H])[H])C([H])([H])c2c([H])c(OC([H])([H])C([H])([H])[N+]3([H])C([H])([H])C([H])(C([H])(N([H])C(=O)N4C([H])([H])C([H])([H])C([H])([H])C([H])(n5nc(-c6c([H])c([H])c(Oc7c([H])c([H])c(F)c([H])c7F)c([H])c6[H])c(C(=O)N([H])[H])c5N([H])[H])C4([H])[H])C([H])([H])[H])C4([H])C([H])([H])C43[H])c([H])c([H])c2C1([H])[H]

$$$$
69:0:0
     RDKit          3D

 90 95  0  0  1  0  0  0  0  0999 V2000
  -27.1700  -21.1000   18.7850 C   0  0  0  0  0  2  0  0  0  0  0  0
  -27.8440  -19.6650   18.7210 C   0  0  0  0  0  2  0  0  0  0  0  0
  -28.2060  -22.2170   18.6160 C   0  0  0  0  0  3  0  0  0  0  0  0
  -29.3830  -21.5920   19.3310 C   0  0  0  0  0  1  0  0  0  0  0  0
  -28.4560  -23.3920   19.6260 C   0  0  0  0  0  1  0  0  0  0  0  0
  -29.1810  -19.5770   19.5360 C   0  0  0  0  0  2  0  0  0  0  0  0
  -30.5250  -16.2870   19.2790 C   0  0  0  0  0  0  0  0  0  0  0  0
  -30.7010  -13.6320   18.5100 C   0  0  0  0  0  2  0  0  0  0  0  0
  -29.7160  -12.9850   17.4770 C   0  0  0  0  0  2  0  0  0  0  0  0
  -28.4160  -12.5240   18.1480 C   0  0  0  0  0  2  0  0  0  0  0  0
  -27.9660  -13.5580   19.1970 C   0  0  0  0  0  3  0  0  0  0  0  0
  -29.0990  -14.0800   20.1250 C   0  0  0  0  0  2  0  0  0  0  0  0
  -30.0790  -14.8390   19.2810 N   0  0  0  0  0  0  0  0  0  0  0  0
  -31.7420  -16.1900   18.9900 O   0  0  0  0  0  0  0  0  0  0  0  0
  -29.7070  -17.7150   19.4170 N   0  0  0  0  0  2  0  0  0  0  0  0
  -28.8130  -17.3000   19.6350 H   0  0  0  0  0  0  0  0  0  0  0  0
  -25.8150  -14.0330   20.4420 C   0  0  0  0  0  0  0  0  0  0  0  0
  -24.7970  -13.2470   20.8960 C   0  0  0  0  0  0  0  0  0  0  0  0
  -25.1800  -11.8990   20.6160 C   0  0  0  0  0  0  0  0  0  0  0  0
  -26.7530  -13.1730   19.9090 N   0  0  0  0  0  0  0  0  0  0  0  0
  -26.3970  -11.8700   20.0710 N   0  0  0  0  0  0  0  0  0  0  0  0
  -24.4240  -10.6480   20.7790 C   0  0  0  0  0  0  0  0  0  0  0  0
  -24.8590   -9.6270   21.6520 C   0  0  0  0  0  3  0  0  0  0  0  0
  -24.0990   -8.4470   21.8120 C   0  0  0  0  0  3  0  0  0  0  0  0
  -22.8890   -8.2790   21.0970 C   0  0  0  0  0  0  0  0  0  0  0  0
  -22.4710   -9.2880   20.2120 C   0  0  0  0  0  3  0  0  0  0  0  0
  -23.2310  -10.4590   20.0500 C   0  0  0  0  0  3  0  0  0  0  0  0
  -22.1010   -7.1560   21.1690 O   0  0  0  0  0  0  0  0  0  0  0  0
  -21.9350   -6.4640   22.3440 C   0  0  0  0  0  0  0  0  0  0  0  0
  -21.4130   -7.0790   23.5020 C   0  0  0  0  0  3  0  0  0  0  0  0
  -21.1970   -6.3160   24.6670 C   0  0  0  0  0  3  0  0  0  0  0  0
  -21.4890   -4.9390   24.6720 C   0  0  0  0  0  0  0  0  0  0  0  0
  -22.0010   -4.3230   23.5160 C   0  0  0  0  0  3  0  0  0  0  0  0
  -22.2210   -5.0850   22.3550 C   0  0  0  0  0  0  0  0  0  0  0  0
  -22.6960   -4.4820   21.2380 F   0  0  0  0  0  0  0  0  0  0  0  0
  -21.2740   -4.2030   25.7870 F   0  0  0  0  0  0  0  0  0  0  0  0
  -23.4950  -13.7340   21.4570 C   0  0  0  0  0  0  0  0  0  0  0  0
  -22.8980  -12.9760   22.3690 N   0  0  0  0  0  0  0  0  0  0  0  0
  -23.0250  -14.8230   21.1260 O   0  0  0  0  0  0  0  0  0  0  0  0
  -23.2980  -12.0950   22.6570 H   0  0  0  0  0  0  0  0  0  0  0  0
  -22.0300  -13.2820   22.7860 H   0  0  0  0  0  0  0  0  0  0  0  0
  -26.0100  -15.4110   20.3980 N   0  0  0  0  0  0  0  0  0  0  0  0
  -25.2790  -16.0540   20.6800 H   0  0  0  0  0  0  0  0  0  0  0  0
  -26.7500  -15.8490   19.8690 H   0  0  0  0  0  0  0  0  0  0  0  0
  -28.9220  -19.5670   21.0540 C   0  0  0  0  0  0  0  0  0  0  0  0
  -27.9170  -18.8340   21.5230 N   0  0  0  0  0  0  0  0  0  0  0  0
  -29.6690  -20.1660   21.8210 O   0  0  0  0  0  0  0  0  0  0  0  0
  -27.2640  -18.3840   20.9020 H   0  0  0  0  0  0  0  0  0  0  0  0
  -27.7520  -18.7920   22.5180 H   0  0  0  0  0  0  0  0  0  0  0  0
  -28.4220  -25.2850   19.3510 O   0  0  0  0  0  1  0  0  0  0  0  0
  -24.8890  -31.6780   22.7730 C   0  0  0  0  0  0  0  0  0  0  0  0
  -27.4420  -26.5930   19.4600 C   0  0  0  0  0  0  0  0  0  0  0  0
  -23.7070  -30.3510   21.0810 C   0  0  0  0  0  3  0  0  0  0  0  0
  -25.1600  -28.7590   19.5670 C   0  0  0  0  0  0  0  0  0  0  0  0
  -26.2940  -30.4700   20.9480 C   0  0  0  0  0  2  0  0  0  0  0  0
  -26.3700  -29.0490   20.2070 C   0  0  0  0  0  0  0  0  0  0  0  0
  -27.4800  -28.0080   20.1100 C   0  0  0  0  0  3  0  0  0  0  0  0
  -26.1830  -26.5870   18.7820 C   0  0  0  0  0  3  0  0  0  0  0  0
  -25.1210  -27.5600   18.8300 C   0  0  0  0  0  3  0  0  0  0  0  0
  -23.9490  -29.7160   19.6780 C   0  0  0  0  0  2  0  0  0  0  0  0
  -24.9910  -30.8710   21.6540 N   0  0  0  0  0  0  0  0  0  0  0  0
  -23.7940  -31.9390   23.3060 O   0  0  0  0  0  0  0  0  0  0  0  0
  -22.9990  -29.3280   22.0140 C   0  0  0  0  0  0  0  0  0  0  0  0
  -21.6550  -29.2280   21.9580 N   0  0  0  0  0  0  0  0  0  0  0  0
  -23.6740  -28.6200   22.7630 O   0  0  0  0  0  0  0  0  0  0  0  0
  -21.1550  -29.8480   21.3350 H   0  0  0  0  0  0  0  0  0  0  0  0
  -18.2610  -28.0950   22.6370 C   0  0  0  0  0  0  0  0  0  0  0  0
  -20.8450  -28.2460   22.6950 C   0  0  0  0  0  3  0  0  0  0  0  0
  -20.8300  -26.8820   21.9650 C   0  0  0  0  0  2  0  0  0  0  0  0
  -19.6340  -26.7160   21.0200 C   0  0  0  0  0  2  0  0  0  0  0  0
  -18.3200  -26.8310   21.7960 C   0  0  0  0  0  2  0  0  0  0  0  0
  -19.4440  -28.7680   23.0450 C   0  0  0  0  0  0  0  0  0  0  0  0
  -19.3290  -29.9520   23.8050 C   0  0  0  0  0  3  0  0  0  0  0  0
  -18.0650  -30.4650   24.1510 C   0  0  0  0  0  3  0  0  0  0  0  0
  -16.8970  -29.7910   23.7520 C   0  0  0  0  0  3  0  0  0  0  0  0
  -16.9970  -28.6050   23.0030 C   0  0  0  0  0  3  0  0  0  0  0  0
  -26.1380  -32.3250   23.4440 C   0  0  0  0  0  3  0  0  0  0  0  0
  -25.7560  -33.6550   23.9700 N   0  0  0  0  0  0  0  0  0  0  0  0
  -25.9880  -34.8280   23.3630 C   0  0  0  0  0  0  0  0  0  0  0  0
  -26.5950  -34.9080   22.2920 O   0  0  0  0  0  0  0  0  0  0  0  0
  -25.2030  -33.6590   24.8140 H   0  0  0  0  0  0  0  0  0  0  0  0
  -24.1360  -36.5410   23.4060 C   0  0  0  0  0  1  0  0  0  0  0  0
  -25.4690  -36.1150   24.0430 C   0  0  0  0  0  3  0  0  0  0  0  0
  -27.6130  -37.0450   24.8070 C   0  0  0  0  0  1  0  0  0  0  0  0
  -26.4250  -37.2450   23.9820 N   0  0  0  0  0  0  0  0  0  0  0  0
  -25.9790  -38.1100   24.2740 H   0  0  0  0  0  0  0  0  0  0  0  0
  -26.7310  -31.4480   24.6170 C   0  0  1  0  0  0  0  0  0  0  0  0
  -25.6910  -31.0550   25.6940 C   0  0  0  0  0  1  0  0  0  0  0  0
  -27.3520  -30.1400   24.0800 C   0  0  0  0  0  1  0  0  0  0  0  0
  -27.8750  -32.2160   25.3200 C   0  0  0  0  0  1  0  0  0  0  0  0
  2  1  1  0
  2  6  1  0
  3  1  1  0
  3  4  1  0
  3  5  1  0
  6 45  1  0
  7 13  1  0
  7 15  1  0
  8 13  1  0
  9 10  1  0
  9  8  1  0
 11 10  1  0
 11 20  1  0
 11 12  1  0
 13 12  1  0
 14  7  2  0
 15 16  1  0
 17 18  2  0
 18 37  1  0
 19 22  1  0
 19 18  1  0
 20 21  1  0
 20 17  1  0
 21 19  2  0
 22 23  1  0
 23 24  2  0
 25 28  1  0
 25 24  1  0
 26 25  2  0
 27 26  1  0
 27 22  2  0
 28 29  1  0
 29 34  2  0
 29 30  1  0
 30 31  2  0
 31 32  1  0
 32 36  1  0
 33 32  2  0
 34 33  1  0
 35 34  1  0
 37 38  1  0
 38 40  1  0
 38 41  1  0
 39 37  2  0
 42 17  1  0
 42 43  1  0
 44 42  1  0
 45 46  1  0
 45 47  2  0
 46 49  1  0
 48 46  1  0
 50 52  1  0
 51 62  2  0
 52 57  1  0
 53 61  1  0
 53 63  1  0
 54 60  1  0
 54 56  1  0
 55 61  1  0
 56 55  1  0
 57 56  2  0
 58 59  1  0
 58 52  2  0
 59 54  2  0
 60 53  1  0
 61 51  1  0
 63 65  2  0
 64 63  1  0
 66 64  1  0
 67 76  2  0
 67 72  1  0
 68 64  1  0
 68 72  1  0
 69 68  1  0
 70 71  1  0
 70 69  1  0
 71 67  1  0
 72 73  2  0
 73 74  1  0
 75 74  2  0
 76 75  1  0
 77 51  1  0
 77 78  1  0
 77 87  1  0
 78 81  1  0
 79 78  1  0
 79 83  1  0
 80 79  2  0
 83 82  1  0
 85 83  1  0
 85 86  1  0
 85 84  1  0
 87 90  1  1
 87 88  1  0
 89 87  1  0
M  ISO  4   5 101   7 100  15 100  50 101
M  END
>  <TORSDO>  (69) 
F 17

>  <SCORE>  (69) 
-11.762

>  <name>  (69) 
69

>  <ligand_id>  (69) 
69

>  <original_smiles>  (69) 
[H]c1c([H])c([H])c2c(c1[H])C([H])([H])C([H])([H])C([H])([H])C2([H])N([H])C(=O)C1([H])N(C(=O)C([H])(N([H])C(=O)C([H])(N([H])C([H])([H])[H])C([H])([H])[H])C(C([H])([H])[H])(C([H])([H])[H])C([H])([H])[H])C([H])([H])c2c([H])c(OC3([H])C4([H])C([H])([H])C([H])([H])C(C(=O)N([H])[H])(N([H])C(=O)N5C([H])([H])C([H])([H])C([H])([H])C([H])(n6nc(-c7c([H])c([H])c(Oc8c([H])c([H])c(F)c([H])c8F)c([H])c7[H])c(C(=O)N([H])[H])c6N([H])[H])C5([H])[H])C34[H])c([H])c([H])c2C1([H])[H]

>  <smiles>  (69) 
[H]c1c([H])c([H])c2c(c1[H])C([H])([H])C([H])([H])C([H])([H])C2([H])N([H])C(=O)C1([H])N(C(=O)C([H])(N([H])C(=O)C([H])(N([H])C([H])([H])[H])C([H])([H])[H])C(C([H])([H])[H])(C([H])([H])[H])C([H])([H])[H])C([H])([H])c2c([H])c(OC3([H])C4([H])C([H])([H])C([H])([H])C(C(=O)N([H])[H])(N([H])C(=O)N5C([H])([H])C([H])([H])C([H])([H])C([H])(n6nc(-c7c([H])c([H])c(Oc8c([H])c([H])c(F)c([H])c8F)c([H])c7[H])c(C(=O)N([H])[H])c6N([H])[H])C5([H])[H])C34[H])c([H])c([H])c2C1([H])[H]

$$$$
70:0:0
     RDKit          3D

 89 98  0  0  1  0  0  0  0  0999 V2000
  -30.3260  -22.1130   20.5680 C   0  0  0  0  0  2  0  0  0  0  0  0
  -30.1760  -20.6570   21.0550 C   0  0  0  0  0  3  0  0  0  0  0  0
  -28.7710  -20.3500   20.4330 C   0  0  0  0  0  3  0  0  0  0  0  0
  -28.8740  -22.2360   20.1280 C   0  0  0  0  0  3  0  0  0  0  0  0
  -30.9000  -19.4330   20.3740 C   0  0  0  0  0  3  0  0  0  0  0  0
  -29.6190  -18.6530   20.6270 C   0  0  0  0  0  3  0  0  0  0  0  0
  -30.2420  -15.6000   20.1490 C   0  0  0  0  0  0  0  0  0  0  0  0
  -30.2880  -13.1040   19.2350 C   0  0  0  0  0  2  0  0  0  0  0  0
  -29.3440  -12.7480   18.0530 C   0  0  0  0  0  2  0  0  0  0  0  0
  -27.9320  -12.4030   18.5550 C   0  0  0  0  0  2  0  0  0  0  0  0
  -27.4710  -13.3760   19.6660 C   0  0  0  0  0  3  0  0  0  0  0  0
  -28.5500  -13.6380   20.7410 C   0  0  0  0  0  2  0  0  0  0  0  0
  -29.6970  -14.2580   20.0400 N   0  0  0  0  0  0  0  0  0  0  0  0
  -31.4770  -15.5400   20.0060 O   0  0  0  0  0  0  0  0  0  0  0  0
  -29.4840  -16.9470   20.2170 N   0  0  0  0  0  0  0  0  0  0  0  0
  -28.5030  -16.7240   20.1230 H   0  0  0  0  0  0  0  0  0  0  0  0
  -25.1340  -13.8820   20.5260 C   0  0  0  0  0  0  0  0  0  0  0  0
  -24.0930  -13.0880   20.9170 C   0  0  0  0  0  0  0  0  0  0  0  0
  -24.5740  -11.7440   20.8480 C   0  0  0  0  0  0  0  0  0  0  0  0
  -26.1760  -13.0240   20.2300 N   0  0  0  0  0  0  0  0  0  0  0  0
  -25.8560  -11.7290   20.4920 N   0  0  0  0  0  0  0  0  0  0  0  0
  -23.8640  -10.4720   21.0380 C   0  0  0  0  0  0  0  0  0  0  0  0
  -24.3220   -9.4970   21.9520 C   0  0  0  0  0  3  0  0  0  0  0  0
  -23.6060   -8.2940   22.1330 C   0  0  0  0  0  3  0  0  0  0  0  0
  -22.4180   -8.0570   21.4030 C   0  0  0  0  0  0  0  0  0  0  0  0
  -21.9780   -9.0200   20.4780 C   0  0  0  0  0  3  0  0  0  0  0  0
  -22.6950  -10.2140   20.2930 C   0  0  0  0  0  3  0  0  0  0  0  0
  -21.6720   -6.9060   21.4960 O   0  0  0  0  0  0  0  0  0  0  0  0
  -21.6470   -6.1550   22.6440 C   0  0  0  0  0  0  0  0  0  0  0  0
  -21.2060   -6.6880   23.8750 C   0  0  0  0  0  3  0  0  0  0  0  0
  -21.1300   -5.8610   25.0130 C   0  0  0  0  0  3  0  0  0  0  0  0
  -21.4870   -4.5030   24.9230 C   0  0  0  0  0  0  0  0  0  0  0  0
  -21.9230   -3.9690   23.6970 C   0  0  0  0  0  3  0  0  0  0  0  0
  -21.9990   -4.7930   22.5610 C   0  0  0  0  0  0  0  0  0  0  0  0
  -22.3990   -4.2680   21.3780 F   0  0  0  0  0  0  0  0  0  0  0  0
  -21.4080   -3.7060   26.0150 F   0  0  0  0  0  0  0  0  0  0  0  0
  -22.7020  -13.5480   21.2340 C   0  0  0  0  0  0  0  0  0  0  0  0
  -22.0070  -12.8370   22.1120 N   0  0  0  0  0  0  0  0  0  0  0  0
  -22.2410  -14.5750   20.7360 O   0  0  0  0  0  0  0  0  0  0  0  0
  -22.3940  -12.0070   22.5360 H   0  0  0  0  0  0  0  0  0  0  0  0
  -21.0730  -13.1280   22.3680 H   0  0  0  0  0  0  0  0  0  0  0  0
  -25.2730  -15.2580   20.3640 N   0  0  0  0  0  0  0  0  0  0  0  0
  -24.4960  -15.8940   20.5060 H   0  0  0  0  0  0  0  0  0  0  0  0
  -26.0900  -15.7120   19.9790 H   0  0  0  0  0  0  0  0  0  0  0  0
  -32.2170  -18.8990   20.9420 C   0  0  0  0  0  2  0  0  0  0  0  0
  -33.3600  -20.7230   22.3760 C   0  0  0  0  0  1  0  0  0  0  0  0
  -33.3480  -19.9410   21.0530 C   0  0  0  0  0  2  0  0  0  0  0  0
  -27.9930  -23.9090   20.4770 C   0  0  0  0  0  2  0  0  0  0  0  0
  -28.1870  -25.6320   20.3180 O   0  0  0  0  0  0  0  0  0  0  0  0
  -24.6410  -31.8800   23.1920 C   0  0  0  0  0  0  0  0  0  0  0  0
  -27.1940  -26.8100   20.2840 C   0  0  0  0  0  0  0  0  0  0  0  0
  -23.4640  -30.4650   21.5630 C   0  0  0  0  0  3  0  0  0  0  0  0
  -24.9210  -28.8080   20.1820 C   0  0  0  0  0  0  0  0  0  0  0  0
  -26.0420  -30.6210   21.4510 C   0  0  0  0  0  2  0  0  0  0  0  0
  -26.1120  -29.1840   20.8160 C   0  0  0  0  0  0  0  0  0  0  0  0
  -27.2370  -28.2140   20.8300 C   0  0  0  0  0  3  0  0  0  0  0  0
  -25.9680  -26.6280   19.5980 C   0  0  0  0  0  3  0  0  0  0  0  0
  -24.8860  -27.5540   19.5490 C   0  0  0  0  0  3  0  0  0  0  0  0
  -23.7120  -29.7530   20.2020 C   0  0  0  0  0  2  0  0  0  0  0  0
  -24.7390  -31.0210   22.1220 N   0  0  0  0  0  0  0  0  0  0  0  0
  -23.5450  -32.1850   23.6920 O   0  0  0  0  0  0  0  0  0  0  0  0
  -22.7450  -29.4960   22.5390 C   0  0  0  0  0  0  0  0  0  0  0  0
  -21.4130  -29.3380   22.4040 N   0  0  0  0  0  0  0  0  0  0  0  0
  -23.3960  -28.8820   23.3880 O   0  0  0  0  0  0  0  0  0  0  0  0
  -20.9400  -29.8850   21.6990 H   0  0  0  0  0  0  0  0  0  0  0  0
  -18.0210  -28.1390   22.9090 C   0  0  0  0  0  0  0  0  0  0  0  0
  -20.5800  -28.4110   23.1810 C   0  0  0  0  0  3  0  0  0  0  0  0
  -20.6840  -26.9720   22.6240 C   0  0  0  0  0  2  0  0  0  0  0  0
  -19.5870  -26.6380   21.6070 C   0  0  0  0  0  2  0  0  0  0  0  0
  -18.2020  -26.7860   22.2420 C   0  0  0  0  0  2  0  0  0  0  0  0
  -19.1360  -28.9100   23.3350 C   0  0  0  0  0  0  0  0  0  0  0  0
  -18.9100  -30.1720   23.9230 C   0  0  0  0  0  3  0  0  0  0  0  0
  -17.6020  -30.6680   24.0850 C   0  0  0  0  0  3  0  0  0  0  0  0
  -16.5020  -29.8970   23.6710 C   0  0  0  0  0  3  0  0  0  0  0  0
  -16.7120  -28.6340   23.0890 C   0  0  0  0  0  3  0  0  0  0  0  0
  -25.9010  -32.5360   23.8340 C   0  0  0  0  0  3  0  0  0  0  0  0
  -26.3960  -31.7830   25.1310 C   0  0  1  0  0  0  0  0  0  0  0  0
  -25.2840  -31.5570   26.1850 C   0  0  0  0  0  1  0  0  0  0  0  0
  -26.9860  -30.4000   24.7770 C   0  0  0  0  0  1  0  0  0  0  0  0
  -27.5340  -32.5870   25.8020 C   0  0  0  0  0  1  0  0  0  0  0  0
  -25.5730  -33.9370   24.1630 N   0  0  0  0  0  0  0  0  0  0  0  0
  -25.8840  -35.0000   23.4090 C   0  0  0  0  0  0  0  0  0  0  0  0
  -26.5370  -34.9050   22.3670 O   0  0  0  0  0  0  0  0  0  0  0  0
  -24.9890  -34.0820   24.9740 H   0  0  0  0  0  0  0  0  0  0  0  0
  -24.1310  -36.7870   23.1130 C   0  0  0  0  0  1  0  0  0  0  0  0
  -25.4000  -36.3870   23.8830 C   0  0  0  0  0  3  0  0  0  0  0  0
  -27.5460  -37.3020   24.6550 C   0  0  0  0  0  1  0  0  0  0  0  0
  -26.4190  -37.4500   23.7380 N   0  0  0  0  0  0  0  0  0  0  0  0
  -26.0080  -38.3670   23.8890 H   0  0  0  0  0  0  0  0  0  0  0  0
  2  1  1  0
  3  6  1  0
  3  2  1  0
  4  3  1  0
  4 48  1  0
  4  1  1  0
  5  6  1  0
  5 45  1  0
  5  2  1  0
  7 15  1  0
  8 13  1  0
  9 10  1  0
  9  8  1  0
 10 11  1  0
 11 20  1  0
 11 12  1  0
 13  7  1  0
 13 12  1  0
 14  7  2  0
 15  6  1  0
 16 15  1  0
 17 18  2  0
 18 37  1  0
 19 18  1  0
 19 22  1  0
 20 21  1  0
 20 17  1  0
 21 19  2  0
 22 23  1  0
 23 24  2  0
 25 28  1  0
 25 24  1  0
 26 25  2  0
 27 26  1  0
 27 22  2  0
 28 29  1  0
 29 30  1  0
 30 31  2  0
 32 31  1  0
 32 36  1  0
 33 32  2  0
 34 29  2  0
 34 33  1  0
 35 34  1  0
 37 38  1  0
 38 41  1  0
 38 40  1  0
 39 37  2  0
 42 43  1  0
 42 17  1  0
 44 42  1  0
 45 47  1  0
 47 46  1  0
 49 48  1  0
 50 61  2  0
 50 76  1  0
 51 49  1  0
 51 56  1  0
 52 60  1  0
 52 62  1  0
 53 59  1  0
 53 55  1  0
 54 60  1  0
 55 56  2  0
 55 54  1  0
 57 51  2  0
 58 57  1  0
 58 53  2  0
 59 52  1  0
 60 50  1  0
 62 64  2  0
 63 62  1  0
 63 67  1  0
 65 63  1  0
 66 75  2  0
 66 71  1  0
 67 71  1  0
 68 67  1  0
 69 70  1  0
 69 68  1  0
 70 66  1  0
 71 72  2  0
 72 73  1  0
 74 73  2  0
 75 74  1  0
 76 81  1  0
 76 77  1  0
 77 80  1  1
 77 78  1  0
 79 77  1  0
 81 84  1  0
 82 86  1  0
 82 81  1  0
 83 82  2  0
 85 86  1  0
 88 86  1  0
 88 89  1  0
 88 87  1  0
M  ISO  4   7 100  15 100  48 101  49 101
M  END
>  <TORSDO>  (70) 
F 19

>  <SCORE>  (70) 
-16.010

>  <name>  (70) 
70

>  <ligand_id>  (70) 
70

>  <original_smiles>  (70) 
[H]c1c([H])c([H])c2c(c1[H])C([H])([H])C([H])([H])C([H])([H])C2([H])N([H])C(=O)C1([H])N(C(=O)C([H])(N([H])C(=O)C([H])(N([H])C([H])([H])[H])C([H])([H])[H])C(C([H])([H])[H])(C([H])([H])[H])C([H])([H])[H])C([H])([H])c2c([H])c(OC([H])([H])C3([H])C([H])([H])C4([H])C([H])(C([H])([H])C([H])([H])C([H])([H])[H])C([H])(N([H])C(=O)N5C([H])([H])C([H])([H])C([H])([H])C([H])(n6nc(-c7c([H])c([H])c(Oc8c([H])c([H])c(F)c([H])c8F)c([H])c7[H])c(C(=O)N([H])[H])c6N([H])[H])C5([H])[H])C34[H])c([H])c([H])c2C1([H])[H]

>  <smiles>  (70) 
[H]c1c([H])c([H])c2c(c1[H])C([H])([H])C([H])([H])C([H])([H])C2([H])N([H])C(=O)C1([H])N(C(=O)C([H])(N([H])C(=O)C([H])(N([H])C([H])([H])[H])C([H])([H])[H])C(C([H])([H])[H])(C([H])([H])[H])C([H])([H])[H])C([H])([H])c2c([H])c(OC([H])([H])C3([H])C([H])([H])C4([H])C([H])(C([H])([H])C([H])([H])C([H])([H])[H])C([H])(N([H])C(=O)N5C([H])([H])C([H])([H])C([H])([H])C([H])(n6nc(-c7c([H])c([H])c(Oc8c([H])c([H])c(F)c([H])c8F)c([H])c7[H])c(C(=O)N([H])[H])c6N([H])[H])C5([H])[H])C34[H])c([H])c([H])c2C1([H])[H]

$$$$
71:0:0
     RDKit          3D

 91 94  0  0  1  0  0  0  0  0999 V2000
  -32.6250  -19.0950   17.6430 C   0  0  0  0  0  3  0  0  0  0  0  0
  -31.2340  -19.0890   17.3850 C   0  0  0  0  0  2  0  0  0  0  0  0
  -33.1870  -19.6170   18.8460 C   0  0  0  0  0  3  0  0  0  0  0  0
  -31.1400  -19.7610   20.1410 C   0  0  0  0  0  2  0  0  0  0  0  0
  -30.4300  -19.4320   18.4750 C   0  0  0  0  0  2  0  0  0  0  0  0
  -32.4130  -20.2200   19.8800 C   0  0  0  0  0  3  0  0  0  0  0  0
  -29.6410  -20.9140   21.3010 C   0  0  0  0  0  2  0  0  0  0  0  0
  -28.5100  -20.4940   18.6510 C   0  0  0  0  0 15  0  0  0  0  0  0
  -28.3170  -22.0750   20.1910 C   0  0  0  0  0 15  0  0  0  0  0  0
  -29.6360  -20.9730   22.5350 O   0  0  0  0  0  0  0  0  0  0  0  0
  -28.1190  -24.3060   20.2220 O   0  0  0  0  0  1  0  0  0  0  0  0
  -24.7110  -31.7250   23.0340 C   0  0  0  0  0  0  0  0  0  0  0  0
  -27.2090  -25.8810   20.1950 C   0  0  0  0  0  0  0  0  0  0  0  0
  -23.5540  -30.2770   21.4300 C   0  0  0  0  0  3  0  0  0  0  0  0
  -25.0040  -28.4330   20.0990 C   0  0  0  0  0  0  0  0  0  0  0  0
  -26.1590  -30.1780   21.4020 C   0  0  0  0  0  2  0  0  0  0  0  0
  -26.2150  -28.6420   20.7680 C   0  0  0  0  0  0  0  0  0  0  0  0
  -27.2500  -27.4290   20.7600 C   0  0  0  0  0  3  0  0  0  0  0  0
  -25.9550  -26.0990   19.4670 C   0  0  0  0  0  3  0  0  0  0  0  0
  -24.9620  -27.1890   19.4220 C   0  0  0  0  0  3  0  0  0  0  0  0
  -23.8330  -29.4860   20.1030 C   0  0  0  0  0  2  0  0  0  0  0  0
  -24.8450  -30.7810   22.0080 N   0  0  0  0  0  0  0  0  0  0  0  0
  -23.6010  -32.0660   23.4930 O   0  0  0  0  0  0  0  0  0  0  0  0
  -22.7580  -29.3960   22.4390 C   0  0  0  0  0  0  0  0  0  0  0  0
  -21.4150  -29.3000   22.3300 N   0  0  0  0  0  0  0  0  0  0  0  0
  -23.3790  -28.7820   23.3080 O   0  0  0  0  0  0  0  0  0  0  0  0
  -20.9530  -29.8480   21.6170 H   0  0  0  0  0  0  0  0  0  0  0  0
  -17.9960  -28.1490   22.9150 C   0  0  0  0  0  0  0  0  0  0  0  0
  -20.5680  -28.3890   23.1200 C   0  0  0  0  0  3  0  0  0  0  0  0
  -20.6310  -26.9500   22.5560 C   0  0  0  0  0  2  0  0  0  0  0  0
  -19.5110  -26.6410   21.5590 C   0  0  0  0  0  2  0  0  0  0  0  0
  -18.1420  -26.8010   22.2270 C   0  0  0  0  0  2  0  0  0  0  0  0
  -19.1330  -28.9030   23.3170 C   0  0  0  0  0  0  0  0  0  0  0  0
  -18.9320  -30.1570   23.9330 C   0  0  0  0  0  3  0  0  0  0  0  0
  -17.6340  -30.6600   24.1420 C   0  0  0  0  0  3  0  0  0  0  0  0
  -16.5150  -29.9070   23.7490 C   0  0  0  0  0  3  0  0  0  0  0  0
  -16.6970  -28.6520   23.1410 C   0  0  0  0  0  3  0  0  0  0  0  0
  -25.9340  -32.4370   23.6980 C   0  0  0  0  0  3  0  0  0  0  0  0
  -25.5690  -33.8380   24.0340 N   0  0  0  0  0  0  0  0  0  0  0  0
  -25.8970  -34.9340   23.3340 C   0  0  0  0  0  0  0  0  0  0  0  0
  -26.5760  -34.8780   22.3070 O   0  0  0  0  0  0  0  0  0  0  0  0
  -24.9580  -33.9560   24.8280 H   0  0  0  0  0  0  0  0  0  0  0  0
  -24.1410  -36.7380   23.0630 C   0  0  0  0  0  1  0  0  0  0  0  0
  -25.3960  -36.3100   23.8440 C   0  0  0  0  0  3  0  0  0  0  0  0
  -27.5600  -37.1810   24.6400 C   0  0  0  0  0  1  0  0  0  0  0  0
  -26.4000  -37.3980   23.7790 N   0  0  0  0  0  0  0  0  0  0  0  0
  -25.9770  -38.2800   24.0570 H   0  0  0  0  0  0  0  0  0  0  0  0
  -26.4190  -31.7150   25.0180 C   0  0  1  0  0  0  0  0  0  0  0  0
  -25.2980  -31.5050   26.0660 C   0  0  0  0  0  1  0  0  0  0  0  0
  -27.0200  -30.3310   24.7050 C   0  0  0  0  0  1  0  0  0  0  0  0
  -27.5470  -32.5370   25.6860 C   0  0  0  0  0  1  0  0  0  0  0  0
  -31.9730  -21.6070   19.5710 C   0  0  0  0  0  2  0  0  0  0  0  0
  -30.4220  -21.4950   19.2100 C   0  0  0  0  0  1  0  0  0  0  0  0
  -29.8000  -16.9380   20.1500 C   0  0  0  0  0  0  0  0  0  0  0  0
  -30.2000  -14.0830   19.4330 C   0  0  0  0  0  2  0  0  0  0  0  0
  -29.5040  -13.1430   18.3450 C   0  0  0  0  0  2  0  0  0  0  0  0
  -28.2050  -12.5130   18.8440 C   0  0  0  0  0  2  0  0  0  0  0  0
  -27.5060  -13.5480   19.7300 C   0  0  0  0  0  3  0  0  0  0  0  0
  -28.4140  -14.3600   20.7520 C   0  0  0  0  0  2  0  0  0  0  0  0
  -29.3800  -15.3570   20.0450 N   0  0  0  0  0  0  0  0  0  0  0  0
  -31.0360  -16.6130   20.0800 O   0  0  0  0  0  0  0  0  0  0  0  0
  -29.1850  -18.7170   20.1630 N   0  0  0  0  0  2  0  0  0  0  0  0
  -28.1790  -18.7310   20.2600 H   0  0  0  0  0  0  0  0  0  0  0  0
  -25.1390  -13.9130   20.4800 C   0  0  0  0  0  0  0  0  0  0  0  0
  -24.1040  -13.1010   20.8360 C   0  0  0  0  0  0  0  0  0  0  0  0
  -24.6120  -11.7650   20.8020 C   0  0  0  0  0  0  0  0  0  0  0  0
  -26.2220  -13.0920   20.2630 N   0  0  0  0  0  0  0  0  0  0  0  0
  -25.9160  -11.7800   20.5000 N   0  0  0  0  0  0  0  0  0  0  0  0
  -23.8960  -10.4870   20.9850 C   0  0  0  0  0  0  0  0  0  0  0  0
  -24.3200   -9.5230   21.9260 C   0  0  0  0  0  3  0  0  0  0  0  0
  -23.5910   -8.3250   22.1070 C   0  0  0  0  0  3  0  0  0  0  0  0
  -22.4190   -8.0810   21.3510 C   0  0  0  0  0  0  0  0  0  0  0  0
  -22.0120   -9.0350   20.4010 C   0  0  0  0  0  3  0  0  0  0  0  0
  -22.7410  -10.2240   20.2180 C   0  0  0  0  0  3  0  0  0  0  0  0
  -21.6640   -6.9360   21.4410 O   0  0  0  0  0  0  0  0  0  0  0  0
  -21.6170   -6.1890   22.5920 C   0  0  0  0  0  0  0  0  0  0  0  0
  -21.1860   -6.7400   23.8180 C   0  0  0  0  0  3  0  0  0  0  0  0
  -21.0860   -5.9220   24.9610 C   0  0  0  0  0  3  0  0  0  0  0  0
  -21.4050   -4.5540   24.8800 C   0  0  0  0  0  0  0  0  0  0  0  0
  -21.8260   -4.0020   23.6580 C   0  0  0  0  0  3  0  0  0  0  0  0
  -21.9290   -4.8160   22.5170 C   0  0  0  0  0  0  0  0  0  0  0  0
  -22.3150   -4.2730   21.3370 F   0  0  0  0  0  0  0  0  0  0  0  0
  -21.3040   -3.7660   25.9760 F   0  0  0  0  0  0  0  0  0  0  0  0
  -22.6950  -13.5510   21.0810 C   0  0  0  0  0  0  0  0  0  0  0  0
  -21.9700  -12.8520   21.9450 N   0  0  0  0  0  0  0  0  0  0  0  0
  -22.2490  -14.5670   20.5470 O   0  0  0  0  0  0  0  0  0  0  0  0
  -22.3500  -12.0360   22.4030 H   0  0  0  0  0  0  0  0  0  0  0  0
  -21.0240  -13.1350   22.1540 H   0  0  0  0  0  0  0  0  0  0  0  0
  -25.2460  -15.2860   20.2810 N   0  0  0  0  0  0  0  0  0  0  0  0
  -24.4350  -15.8940   20.3270 H   0  0  0  0  0  0  0  0  0  0  0  0
  -26.0680  -15.7430   19.9070 H   0  0  0  0  0  0  0  0  0  0  0  0
  1  3  2  0
  2  1  1  0
  2  5  1  0
  3  6  1  0
  5  4  1  0
  6 52  1  0
  6  4  1  0
  7 10  2  0
 12 23  2  0
 13 11  1  0
 13 18  1  0
 14 22  1  0
 14 24  1  0
 15 21  1  0
 15 17  1  0
 16 22  1  0
 17 16  1  0
 18 17  2  0
 19 13  2  0
 20 19  1  0
 20 15  2  0
 21 14  1  0
 22 12  1  0
 24 26  2  0
 25 24  1  0
 27 25  1  0
 28 37  2  0
 28 33  1  0
 29 25  1  0
 29 33  1  0
 30 29  1  0
 31 32  1  0
 31 30  1  0
 32 28  1  0
 33 34  2  0
 34 35  1  0
 36 35  2  0
 37 36  1  0
 38 12  1  0
 38 39  1  0
 38 48  1  0
 39 42  1  0
 40 44  1  0
 40 39  1  0
 41 40  2  0
 44 43  1  0
 46 44  1  0
 46 47  1  0
 46 45  1  0
 48 51  1  1
 48 49  1  0
 50 48  1  0
 53 52  1  0
 54 62  1  0
 55 60  1  0
 56 57  1  0
 56 55  1  0
 58 57  1  0
 58 67  1  0
 58 59  1  0
 60 54  1  0
 60 59  1  0
 61 54  2  0
 62 63  1  0
 64 65  2  0
 65 84  1  0
 66 65  1  0
 66 69  1  0
 67 64  1  0
 67 68  1  0
 68 66  2  0
 69 70  1  0
 70 71  2  0
 72 75  1  0
 72 71  1  0
 73 72  2  0
 74 73  1  0
 74 69  2  0
 75 76  1  0
 76 77  1  0
 77 78  2  0
 79 78  1  0
 79 83  1  0
 80 79  2  0
 81 76  2  0
 81 80  1  0
 82 81  1  0
 84 85  1  0
 85 88  1  0
 85 87  1  0
 86 84  2  0
 89 90  1  0
 89 64  1  0
 91 89  1  0
M  ISO  4   9 101  11 101  54 100  62 100
M  END
>  <TORSDO>  (71) 
F 18

>  <SCORE>  (71) 
-15.789

>  <name>  (71) 
71

>  <ligand_id>  (71) 
71

>  <original_smiles>  (71) 
[H]c1c([H])c2c(c(C([H])([H])C([H])([H])N([H])C(=O)N3C([H])([H])C([H])([H])C([H])([H])C([H])(n4nc(-c5c([H])c([H])c(Oc6c([H])c([H])c(F)c([H])c6F)c([H])c5[H])c(C(=O)N([H])[H])c4N([H])[H])C3([H])[H])c1[H])C(=O)C([H])(Oc1c([H])c([H])c3c(c1[H])C([H])([H])N(C(=O)C([H])(N([H])C(=O)C([H])(N([H])C([H])([H])[H])C([H])([H])[H])C(C([H])([H])[H])(C([H])([H])[H])C([H])([H])[H])C([H])(C(=O)N([H])C1([H])c4c([H])c([H])c([H])c([H])c4C([H])([H])C([H])([H])C1([H])[H])C3([H])[H])C2([H])[H]

>  <smiles>  (71) 
[H]c1c([H])c2c(c(C([H])([H])C([H])([H])N([H])C(=O)N3C([H])([H])C([H])([H])C([H])([H])C([H])(n4nc(-c5c([H])c([H])c(Oc6c([H])c([H])c(F)c([H])c6F)c([H])c5[H])c(C(=O)N([H])[H])c4N([H])[H])C3([H])[H])c1[H])C(=O)C([H])(Oc1c([H])c([H])c3c(c1[H])C([H])([H])N(C(=O)C([H])(N([H])C(=O)C([H])(N([H])C([H])([H])[H])C([H])([H])[H])C(C([H])([H])[H])(C([H])([H])[H])C([H])([H])[H])C([H])(C(=O)N([H])C1([H])c4c([H])c([H])c([H])c([H])c4C([H])([H])C([H])([H])C1([H])[H])C3([H])[H])C2([H])[H]

$$$$
72:0:0
     RDKit          3D

 91 99  0  0  1  0  0  0  0  0999 V2000
  -30.7550  -22.5440   21.7640 C   0  0  0  0  0  3  0  0  0  0  0  0
  -29.9990  -23.5990   21.2120 C   0  0  0  0  0  3  0  0  0  0  0  0
  -30.4530  -21.1680   21.5830 C   0  0  0  0  0  0  0  0  0  0  0  0
  -28.8530  -23.3520   20.4430 C   0  0  0  0  0  0  0  0  0  0  0  0
  -28.5910  -21.8940   20.2000 C   0  0  0  0  0  0  0  0  0  0  0  0
  -29.4030  -20.7370   20.7140 C   0  0  0  0  0  0  0  0  0  0  0  0
  -27.3400  -21.5540   19.4070 C   0  0  0  0  0  1  0  0  0  0  0  0
  -32.6830  -19.9860   21.9840 C   0  0  0  0  0  1  0  0  0  0  0  0
  -31.2460  -20.2090   22.4650 C   0  0  0  0  0  2  0  0  0  0  0  0
  -29.0800  -19.0960   20.5460 C   0  0  0  0  0  3  0  0  0  0  0  0
  -30.1470  -17.7710   20.3640 C   0  0  0  0  0  3  0  0  0  0  0  0
  -30.5390  -15.0300   20.2780 C   0  0  0  0  0  0  0  0  0  0  0  0
  -30.4180  -12.6750   19.3250 C   0  0  0  0  0  2  0  0  0  0  0  0
  -29.4780  -12.6220   18.0980 C   0  0  0  0  0  2  0  0  0  0  0  0
  -28.0150  -12.4180   18.5340 C   0  0  0  0  0  2  0  0  0  0  0  0
  -27.6170  -13.3300   19.7230 C   0  0  0  0  0  3  0  0  0  0  0  0
  -28.6770  -13.3450   20.8420 C   0  0  0  0  0  2  0  0  0  0  0  0
  -29.9400  -13.7680   20.2230 N   0  0  0  0  0  0  0  0  0  0  0  0
  -31.7400  -15.0880   19.9910 O   0  0  0  0  0  0  0  0  0  0  0  0
  -29.7730  -16.2240   20.4480 N   0  0  0  0  0  0  0  0  0  0  0  0
  -28.7950  -16.0400   20.6190 H   0  0  0  0  0  0  0  0  0  0  0  0
  -25.2370  -13.8930   20.4740 C   0  0  0  0  0  0  0  0  0  0  0  0
  -24.1810  -13.1130   20.8450 C   0  0  0  0  0  0  0  0  0  0  0  0
  -24.6520  -11.7640   20.8100 C   0  0  0  0  0  0  0  0  0  0  0  0
  -26.2850  -13.0230   20.2260 N   0  0  0  0  0  0  0  0  0  0  0  0
  -25.9420  -11.7360   20.4950 N   0  0  0  0  0  0  0  0  0  0  0  0
  -23.9310  -10.5000   21.0010 C   0  0  0  0  0  0  0  0  0  0  0  0
  -24.3610   -9.5420   21.9460 C   0  0  0  0  0  3  0  0  0  0  0  0
  -23.6420   -8.3410   22.1260 C   0  0  0  0  0  3  0  0  0  0  0  0
  -22.4760   -8.0900   21.3630 C   0  0  0  0  0  0  0  0  0  0  0  0
  -22.0650   -9.0370   20.4080 C   0  0  0  0  0  3  0  0  0  0  0  0
  -22.7840  -10.2300   20.2270 C   0  0  0  0  0  3  0  0  0  0  0  0
  -21.7290   -6.9420   21.4510 O   0  0  0  0  0  0  0  0  0  0  0  0
  -21.6630   -6.2160   22.6120 C   0  0  0  0  0  0  0  0  0  0  0  0
  -21.2020   -6.7820   23.8210 C   0  0  0  0  0  3  0  0  0  0  0  0
  -21.0840   -5.9800   24.9740 C   0  0  0  0  0  3  0  0  0  0  0  0
  -21.4150   -4.6120   24.9170 C   0  0  0  0  0  0  0  0  0  0  0  0
  -21.8680   -4.0470   23.7130 C   0  0  0  0  0  3  0  0  0  0  0  0
  -21.9910   -4.8460   22.5630 C   0  0  0  0  0  0  0  0  0  0  0  0
  -22.4080   -4.2920   21.3990 F   0  0  0  0  0  0  0  0  0  0  0  0
  -21.2950   -3.8400   26.0210 F   0  0  0  0  0  0  0  0  0  0  0  0
  -22.7830  -13.5830   21.1180 C   0  0  0  0  0  0  0  0  0  0  0  0
  -22.0620  -12.8860   21.9870 N   0  0  0  0  0  0  0  0  0  0  0  0
  -22.3390  -14.6080   20.6000 O   0  0  0  0  0  0  0  0  0  0  0  0
  -22.4390  -12.0590   22.4290 H   0  0  0  0  0  0  0  0  0  0  0  0
  -21.1220  -13.1810   22.2120 H   0  0  0  0  0  0  0  0  0  0  0  0
  -25.3840  -15.2670   20.3030 N   0  0  0  0  0  0  0  0  0  0  0  0
  -24.6050  -15.9000   20.4270 H   0  0  0  0  0  0  0  0  0  0  0  0
  -26.2080  -15.7190   19.9270 H   0  0  0  0  0  0  0  0  0  0  0  0
  -27.9520  -24.6700   19.9890 C   0  0  0  0  0  2  0  0  0  0  0  0
  -28.2540  -26.1810   20.2630 O   0  0  0  0  0  0  0  0  0  0  0  0
  -24.6610  -31.8840   23.2510 C   0  0  0  0  0  0  0  0  0  0  0  0
  -27.2150  -27.1850   20.1790 C   0  0  0  0  0  0  0  0  0  0  0  0
  -23.4510  -30.5010   21.6080 C   0  0  0  0  0  3  0  0  0  0  0  0
  -24.8900  -28.9420   20.1590 C   0  0  0  0  0  0  0  0  0  0  0  0
  -26.0060  -30.7640   21.4310 C   0  0  0  0  0  2  0  0  0  0  0  0
  -26.0740  -29.3790   20.7700 C   0  0  0  0  0  0  0  0  0  0  0  0
  -27.2340  -28.5150   20.7640 C   0  0  0  0  0  3  0  0  0  0  0  0
  -26.0080  -26.8560   19.5220 C   0  0  0  0  0  3  0  0  0  0  0  0
  -24.8730  -27.6940   19.5170 C   0  0  0  0  0  3  0  0  0  0  0  0
  -23.6640  -29.8390   20.2210 C   0  0  0  0  0  2  0  0  0  0  0  0
  -24.7260  -31.0730   22.1500 N   0  0  0  0  0  0  0  0  0  0  0  0
  -23.5790  -32.1630   23.7870 O   0  0  0  0  0  0  0  0  0  0  0  0
  -22.7810  -29.4850   22.5670 C   0  0  0  0  0  0  0  0  0  0  0  0
  -21.4540  -29.3060   22.4390 N   0  0  0  0  0  0  0  0  0  0  0  0
  -23.4570  -28.8610   23.3890 O   0  0  0  0  0  0  0  0  0  0  0  0
  -20.9640  -29.8600   21.7500 H   0  0  0  0  0  0  0  0  0  0  0  0
  -18.0820  -28.0750   22.9360 C   0  0  0  0  0  0  0  0  0  0  0  0
  -20.6380  -28.3610   23.2100 C   0  0  0  0  0  3  0  0  0  0  0  0
  -20.7540  -26.9290   22.6360 C   0  0  0  0  0  2  0  0  0  0  0  0
  -19.6560  -26.5970   21.6200 C   0  0  0  0  0  2  0  0  0  0  0  0
  -18.2720  -26.7290   22.2600 C   0  0  0  0  0  2  0  0  0  0  0  0
  -19.1920  -28.8480   23.3690 C   0  0  0  0  0  0  0  0  0  0  0  0
  -18.9560  -30.1080   23.9620 C   0  0  0  0  0  3  0  0  0  0  0  0
  -17.6450  -30.5900   24.1300 C   0  0  0  0  0  3  0  0  0  0  0  0
  -16.5510  -29.8140   23.7120 C   0  0  0  0  0  3  0  0  0  0  0  0
  -16.7710  -28.5590   23.1190 C   0  0  0  0  0  3  0  0  0  0  0  0
  -25.9410  -32.5160   23.8770 C   0  0  0  0  0  3  0  0  0  0  0  0
  -26.4520  -31.7440   25.1550 C   0  0  1  0  0  0  0  0  0  0  0  0
  -25.3560  -31.5120   26.2230 C   0  0  0  0  0  1  0  0  0  0  0  0
  -27.0300  -30.3620   24.7690 C   0  0  0  0  0  1  0  0  0  0  0  0
  -27.6060  -32.5340   25.8140 C   0  0  0  0  0  1  0  0  0  0  0  0
  -25.6300  -33.9150   24.2130 N   0  0  0  0  0  0  0  0  0  0  0  0
  -25.9340  -34.9720   23.4470 C   0  0  0  0  0  0  0  0  0  0  0  0
  -26.5710  -34.8710   22.3960 O   0  0  0  0  0  0  0  0  0  0  0  0
  -25.0590  -34.0640   25.0300 H   0  0  0  0  0  0  0  0  0  0  0  0
  -24.1710  -36.7490   23.1740 C   0  0  0  0  0  1  0  0  0  0  0  0
  -25.4550  -36.3590   23.9230 C   0  0  0  0  0  3  0  0  0  0  0  0
  -27.6190  -37.2720   24.6400 C   0  0  0  0  0  1  0  0  0  0  0  0
  -26.4700  -37.4220   23.7520 N   0  0  0  0  0  0  0  0  0  0  0  0
  -26.0610  -38.3380   23.9110 H   0  0  0  0  0  0  0  0  0  0  0  0
  2  1  2  0
  3  1  1  0
  3  9  1  0
  4  2  1  0
  5  4  2  0
  5  6  1  0
  6  3  2  0
  7  5  1  0
  8  9  1  0
 10  6  1  0
 11 20  1  0
 11 10  2  0
 12 20  1  0
 13 18  1  0
 14 15  1  0
 14 13  1  0
 16 15  1  0
 16 25  1  0
 16 17  1  0
 18 12  1  0
 18 17  1  0
 19 12  2  0
 20 21  1  0
 22 23  2  0
 23 42  1  0
 24 23  1  0
 24 27  1  0
 25 22  1  0
 25 26  1  0
 26 24  2  0
 27 28  1  0
 28 29  2  0
 30 33  1  0
 30 29  1  0
 31 30  2  0
 32 31  1  0
 32 27  2  0
 33 34  1  0
 34 35  1  0
 35 36  2  0
 37 36  1  0
 37 41  1  0
 38 37  2  0
 39 34  2  0
 39 38  1  0
 40 39  1  0
 42 43  1  0
 43 46  1  0
 43 45  1  0
 44 42  2  0
 47 48  1  0
 47 22  1  0
 49 47  1  0
 50 51  1  0
 50  4  1  0
 52 63  2  0
 53 51  1  0
 53 58  1  0
 54 62  1  0
 54 64  1  0
 55 61  1  0
 55 57  1  0
 56 62  1  0
 57 56  1  0
 58 57  2  0
 59 53  2  0
 60 59  1  0
 60 55  2  0
 61 54  1  0
 62 52  1  0
 64 66  2  0
 65 64  1  0
 67 65  1  0
 68 77  2  0
 68 73  1  0
 69 65  1  0
 69 73  1  0
 70 69  1  0
 71 72  1  0
 71 70  1  0
 72 68  1  0
 73 74  2  0
 74 75  1  0
 76 75  2  0
 77 76  1  0
 78 52  1  0
 78 83  1  0
 78 79  1  0
 79 82  1  1
 79 80  1  0
 81 79  1  0
 83 86  1  0
 84 88  1  0
 84 83  1  0
 85 84  2  0
 88 87  1  0
 90 91  1  0
 90 88  1  0
 90 89  1  0
M  ISO  4  12 100  20 100  50 101  51 101
M  END
>  <TORSDO>  (72) 
F 20

>  <SCORE>  (72) 
-14.902

>  <name>  (72) 
72

>  <ligand_id>  (72) 
72

>  <original_smiles>  (72) 
[H]c1c([H])c([H])c2c(c1[H])C([H])([H])C([H])([H])C([H])([H])C2([H])N([H])C(=O)C1([H])N(C(=O)C([H])(N([H])C(=O)C([H])(N([H])C([H])([H])[H])C([H])([H])[H])C(C([H])([H])[H])(C([H])([H])[H])C([H])([H])[H])C([H])([H])c2c([H])c(OC([H])([H])c3c([H])c([H])c(C([H])([H])C([H])([H])[H])c(C([H])([H])C([H])([H])N([H])C(=O)N4C([H])([H])C([H])([H])C([H])([H])C([H])(n5nc(-c6c([H])c([H])c(Oc7c([H])c([H])c(F)c([H])c7F)c([H])c6[H])c(C(=O)N([H])[H])c5N([H])[H])C4([H])[H])c3C([H])([H])[H])c([H])c([H])c2C1([H])[H]

>  <smiles>  (72) 
[H]c1c([H])c([H])c2c(c1[H])C([H])([H])C([H])([H])C([H])([H])C2([H])N([H])C(=O)C1([H])N(C(=O)C([H])(N([H])C(=O)C([H])(N([H])C([H])([H])[H])C([H])([H])[H])C(C([H])([H])[H])(C([H])([H])[H])C([H])([H])[H])C([H])([H])c2c([H])c(OC([H])([H])c3c([H])c([H])c(C([H])([H])C([H])([H])[H])c(C([H])([H])C([H])([H])N([H])C(=O)N4C([H])([H])C([H])([H])C([H])([H])C([H])(n5nc(-c6c([H])c([H])c(Oc7c([H])c([H])c(F)c([H])c7F)c([H])c6[H])c(C(=O)N([H])[H])c5N([H])[H])C4([H])[H])c3C([H])([H])[H])c([H])c([H])c2C1([H])[H]

$$$$
73:0:0
     RDKit          3D

 92101  0  0  1  0  0  0  0  0999 V2000
  -30.5130  -19.6120   20.9160 C   0  0  0  0  0  0  0  0  0  0  0  0
  -30.6570  -21.0080   17.5360 C   0  0  0  0  0  2  0  0  0  0  0  0
  -29.9280  -21.0610   20.6140 C   0  0  0  0  0  3  0  0  0  0  0  0
  -30.9500  -18.7200   19.7100 C   0  0  0  0  0  3  0  0  0  0  0  0
  -30.1190  -19.8200   18.5610 C   0  0  0  0  0  3  0  0  0  0  0  0
  -29.4410  -21.1600   19.1420 C   0  0  0  0  0  3  0  0  0  0  0  0
  -29.9430  -22.3880   18.0730 C   0  0  0  0  0  3  0  0  0  0  0  0
  -30.6090  -19.2160   22.0820 O   0  0  0  0  0  0  0  0  0  0  0  0
  -31.4790  -15.9350   20.8230 C   0  0  0  0  0  0  0  0  0  0  0  0
  -31.6920  -13.3260   21.0370 C   0  0  0  0  0  2  0  0  0  0  0  0
  -31.1140  -12.5140   19.8490 C   0  0  0  0  0  2  0  0  0  0  0  0
  -29.6030  -12.2860   20.0240 C   0  0  0  0  0  2  0  0  0  0  0  0
  -28.8810  -13.5660   20.5080 C   0  0  0  0  0  3  0  0  0  0  0  0
  -29.6130  -14.2790   21.6630 C   0  0  0  0  0  2  0  0  0  0  0  0
  -30.9450  -14.6400   21.1470 N   0  0  0  0  0  0  0  0  0  0  0  0
  -32.7080  -15.9640   21.0010 O   0  0  0  0  0  0  0  0  0  0  0  0
  -30.7490  -17.0730   20.1440 N   0  0  0  0  0  0  0  0  0  0  0  0
  -29.7990  -16.7880   19.9600 H   0  0  0  0  0  0  0  0  0  0  0  0
  -26.4650  -14.2990   20.8360 C   0  0  0  0  0  0  0  0  0  0  0  0
  -25.3020  -13.6070   21.0170 C   0  0  0  0  0  0  0  0  0  0  0  0
  -25.6690  -12.2270   21.0820 C   0  0  0  0  0  0  0  0  0  0  0  0
  -27.4690  -13.3490   20.7860 N   0  0  0  0  0  0  0  0  0  0  0  0
  -26.9900  -12.0960   21.0040 N   0  0  0  0  0  0  0  0  0  0  0  0
  -24.8280  -11.0240   21.1460 C   0  0  0  0  0  0  0  0  0  0  0  0
  -25.0060  -10.0500   22.1550 C   0  0  0  0  0  3  0  0  0  0  0  0
  -24.1680   -8.9150   22.2090 C   0  0  0  0  0  3  0  0  0  0  0  0
  -23.1390   -8.7460   21.2520 C   0  0  0  0  0  0  0  0  0  0  0  0
  -22.9820   -9.7050   20.2370 C   0  0  0  0  0  3  0  0  0  0  0  0
  -23.8200  -10.8320   20.1810 C   0  0  0  0  0  3  0  0  0  0  0  0
  -22.2940   -7.6620   21.2120 O   0  0  0  0  0  0  0  0  0  0  0  0
  -21.9640   -6.9640   22.3460 C   0  0  0  0  0  0  0  0  0  0  0  0
  -21.3270   -7.5840   23.4430 C   0  0  0  0  0  3  0  0  0  0  0  0
  -20.9430   -6.8150   24.5600 C   0  0  0  0  0  3  0  0  0  0  0  0
  -21.1860   -5.4280   24.5790 C   0  0  0  0  0  0  0  0  0  0  0  0
  -21.8160   -4.8090   23.4860 C   0  0  0  0  0  3  0  0  0  0  0  0
  -22.2020   -5.5750   22.3710 C   0  0  0  0  0  0  0  0  0  0  0  0
  -22.7900   -4.9700   21.3110 F   0  0  0  0  0  0  0  0  0  0  0  0
  -20.8110   -4.6890   25.6480 F   0  0  0  0  0  0  0  0  0  0  0  0
  -23.9190  -14.1870   21.0220 C   0  0  0  0  0  0  0  0  0  0  0  0
  -22.9930  -13.5600   21.7390 N   0  0  0  0  0  0  0  0  0  0  0  0
  -23.6650  -15.2360   20.4290 O   0  0  0  0  0  0  0  0  0  0  0  0
  -23.2080  -12.7130   22.2450 H   0  0  0  0  0  0  0  0  0  0  0  0
  -22.0560  -13.9330   21.7830 H   0  0  0  0  0  0  0  0  0  0  0  0
  -26.7540  -15.6520   20.6700 N   0  0  0  0  0  0  0  0  0  0  0  0
  -26.0220  -16.3500   20.6080 H   0  0  0  0  0  0  0  0  0  0  0  0
  -27.6670  -16.0160   20.4360 H   0  0  0  0  0  0  0  0  0  0  0  0
  -28.8450  -21.4430   21.6540 C   0  0  0  0  0  2  0  0  0  0  0  0
  -27.9330  -22.6240   21.2730 C   0  0  0  0  0  2  0  0  0  0  0  0
  -25.6280  -23.6480   21.7370 C   0  0  0  0  0  1  0  0  0  0  0  0
  -26.7760  -22.7880   22.2760 C   0  0  0  0  0  2  0  0  0  0  0  0
  -29.0870  -23.7660   17.1510 C   0  0  0  0  0  2  0  0  0  0  0  0
  -29.0270  -25.4530   17.1060 O   0  0  0  0  0  0  0  0  0  0  0  0
  -25.2730  -29.8820   22.0580 C   0  0  0  0  0  0  0  0  0  0  0  0
  -27.9080  -26.3990   17.4840 C   0  0  0  0  0  0  0  0  0  0  0  0
  -24.0240  -28.7950   20.2390 C   0  0  0  0  0  3  0  0  0  0  0  0
  -25.4220  -27.8750   18.2560 C   0  0  0  0  0  0  0  0  0  0  0  0
  -26.4980  -29.4320   19.8620 C   0  0  0  0  0  2  0  0  0  0  0  0
  -26.6380  -28.2720   18.8230 C   0  0  0  0  0  0  0  0  0  0  0  0
  -27.8680  -27.5620   18.4180 C   0  0  0  0  0  3  0  0  0  0  0  0
  -26.6310  -26.1770   16.9190 C   0  0  0  0  0  3  0  0  0  0  0  0
  -25.4400  -26.8590   17.2860 C   0  0  0  0  0  3  0  0  0  0  0  0
  -24.1220  -28.5460   18.7080 C   0  0  0  0  0  2  0  0  0  0  0  0
  -25.2910  -29.3870   20.7760 N   0  0  0  0  0  0  0  0  0  0  0  0
  -24.2490  -29.8430   22.7620 O   0  0  0  0  0  0  0  0  0  0  0  0
  -23.6150  -27.4810   20.9560 C   0  0  0  0  0  0  0  0  0  0  0  0
  -22.3330  -27.0860   20.8560 N   0  0  0  0  0  0  0  0  0  0  0  0
  -24.4590  -26.8250   21.5720 O   0  0  0  0  0  0  0  0  0  0  0  0
  -21.6930  -27.6800   20.3450 H   0  0  0  0  0  0  0  0  0  0  0  0
  -19.3000  -25.1170   21.1880 C   0  0  0  0  0  0  0  0  0  0  0  0
  -21.7740  -25.8440   21.4040 C   0  0  0  0  0  3  0  0  0  0  0  0
  -22.0960  -24.6390   20.4890 C   0  0  0  0  0  2  0  0  0  0  0  0
  -20.9900  -24.3410   19.4710 C   0  0  0  0  0  2  0  0  0  0  0  0
  -19.6710  -24.0360   20.1870 C   0  0  0  0  0  2  0  0  0  0  0  0
  -20.2850  -25.9760   21.7470 C   0  0  0  0  0  0  0  0  0  0  0  0
  -19.8810  -26.9800   22.6530 C   0  0  0  0  0  3  0  0  0  0  0  0
  -18.5260  -27.1370   22.9980 C   0  0  0  0  0  3  0  0  0  0  0  0
  -17.5570  -26.2780   22.4510 C   0  0  0  0  0  3  0  0  0  0  0  0
  -17.9460  -25.2670   21.5540 C   0  0  0  0  0  3  0  0  0  0  0  0
  -26.5330  -30.5340   22.7020 C   0  0  0  0  0  3  0  0  0  0  0  0
  -27.3990  -29.5130   23.5420 C   0  0  1  0  0  0  0  0  0  0  0  0
  -26.5810  -28.7200   24.5890 C   0  0  0  0  0  1  0  0  0  0  0  0
  -28.0950  -28.4860   22.6220 C   0  0  0  0  0  1  0  0  0  0  0  0
  -28.5250  -30.2710   24.2840 C   0  0  0  0  0  1  0  0  0  0  0  0
  -26.0830  -31.6410   23.5670 N   0  0  0  0  0  0  0  0  0  0  0  0
  -26.1500  -32.9400   23.2500 C   0  0  0  0  0  0  0  0  0  0  0  0
  -26.6580  -33.3430   22.2000 O   0  0  0  0  0  0  0  0  0  0  0  0
  -25.6010  -31.3830   24.4150 H   0  0  0  0  0  0  0  0  0  0  0  0
  -24.1720  -34.4070   23.7830 C   0  0  0  0  0  1  0  0  0  0  0  0
  -25.5640  -33.9560   24.2530 C   0  0  0  0  0  3  0  0  0  0  0  0
  -27.6600  -34.8450   25.1740 C   0  0  0  0  0  1  0  0  0  0  0  0
  -26.4230  -35.1430   24.4600 N   0  0  0  0  0  0  0  0  0  0  0  0
  -25.9250  -35.8620   24.9770 H   0  0  0  0  0  0  0  0  0  0  0  0
  1  8  2  0
  2  7  1  0
  3  1  1  0
  3 47  1  0
  4 17  1  0
  4  1  1  0
  5  2  1  0
  5  6  1  0
  5  4  1  0
  6  3  1  0
  7  6  1  0
  9 16  2  0
  9 15  1  0
 10 15  1  0
 11 12  1  0
 11 10  1  0
 12 13  1  0
 13 22  1  0
 13 14  1  0
 15 14  1  0
 17  9  1  0
 18 17  1  0
 19 20  2  0
 20 39  1  0
 20 21  1  0
 21 24  1  0
 22 19  1  0
 22 23  1  0
 23 21  2  0
 24 25  1  0
 25 26  2  0
 27 26  1  0
 28 27  2  0
 29 28  1  0
 29 24  2  0
 30 27  1  0
 30 31  1  0
 31 36  2  0
 31 32  1  0
 32 33  2  0
 33 34  1  0
 34 38  1  0
 35 34  2  0
 36 35  1  0
 37 36  1  0
 39 40  1  0
 40 43  1  0
 40 42  1  0
 41 39  2  0
 44 19  1  0
 45 44  1  0
 46 44  1  0
 48 47  1  0
 48 50  1  0
 49 50  1  0
 51  7  1  0
 52 51  1  0
 52 54  1  0
 53 79  1  0
 53 64  2  0
 54 59  1  0
 55 63  1  0
 55 65  1  0
 56 62  1  0
 56 58  1  0
 57 63  1  0
 58 57  1  0
 59 58  2  0
 60 61  1  0
 60 54  2  0
 61 56  2  0
 62 55  1  0
 63 53  1  0
 65 67  2  0
 66 65  1  0
 66 70  1  0
 68 66  1  0
 69 78  2  0
 69 74  1  0
 70 74  1  0
 71 70  1  0
 72 73  1  0
 72 71  1  0
 73 69  1  0
 74 75  2  0
 75 76  1  0
 77 76  2  0
 78 77  1  0
 79 80  1  0
 79 84  1  0
 80 83  1  1
 80 81  1  0
 82 80  1  0
 84 87  1  0
 85 84  1  0
 85 89  1  0
 86 85  2  0
 88 89  1  0
 89 91  1  0
 91 92  1  0
 91 90  1  0
M  ISO  4   9 100  17 100  51 101  52 101
M  END
>  <TORSDO>  (73) 
F 20

>  <SCORE>  (73) 
-7.347

>  <name>  (73) 
73

>  <ligand_id>  (73) 
73

>  <original_smiles>  (73) 
[H]c1c([H])c([H])c2c(c1[H])C([H])([H])C([H])([H])C([H])([H])C2([H])N([H])C(=O)C1([H])N(C(=O)C([H])(N([H])C(=O)C([H])(N([H])C([H])([H])[H])C([H])([H])[H])C(C([H])([H])[H])(C([H])([H])[H])C([H])([H])[H])C([H])([H])c2c([H])c(OC([H])([H])C3([H])C([H])([H])C4([H])C([H])(N([H])C(=O)N5C([H])([H])C([H])([H])C([H])([H])C([H])(n6nc(-c7c([H])c([H])c(Oc8c([H])c([H])c(F)c([H])c8F)c([H])c7[H])c(C(=O)N([H])[H])c6N([H])[H])C5([H])[H])C(=O)C([H])(C([H])([H])C([H])([H])C([H])([H])C([H])([H])[H])C34[H])c([H])c([H])c2C1([H])[H]

>  <smiles>  (73) 
[H]c1c([H])c([H])c2c(c1[H])C([H])([H])C([H])([H])C([H])([H])C2([H])N([H])C(=O)C1([H])N(C(=O)C([H])(N([H])C(=O)C([H])(N([H])C([H])([H])[H])C([H])([H])[H])C(C([H])([H])[H])(C([H])([H])[H])C([H])([H])[H])C([H])([H])c2c([H])c(OC([H])([H])C3([H])C([H])([H])C4([H])C([H])(N([H])C(=O)N5C([H])([H])C([H])([H])C([H])([H])C([H])(n6nc(-c7c([H])c([H])c(Oc8c([H])c([H])c(F)c([H])c8F)c([H])c7[H])c(C(=O)N([H])[H])c6N([H])[H])C5([H])[H])C(=O)C([H])(C([H])([H])C([H])([H])C([H])([H])C([H])([H])[H])C34[H])c([H])c([H])c2C1([H])[H]

$$$$
74:0:0
     RDKit          3D

 88 97  0  0  1  0  0  0  0  0999 V2000
  -28.3140  -19.3720   19.1870 C   0  0  0  0  0  2  0  0  0  0  0  0
  -28.5980  -20.9310   19.3600 C   0  0  0  0  0  3  0  0  0  0  0  0
  -29.4030  -20.5150   20.5730 C   0  0  0  0  0  3  0  0  0  0  0  0
  -28.3700  -22.0490   20.4640 C   0  0  0  0  0  3  0  0  0  0  0  0
  -29.5720  -18.8000   19.9210 C   0  0  1  0  0  0  0  0  0  0  0  0
  -30.3030  -15.7220   20.2660 C   0  0  0  0  0  0  0  0  0  0  0  0
  -30.4020  -13.1740   19.4650 C   0  0  0  0  0  2  0  0  0  0  0  0
  -29.5140  -12.8040   18.2440 C   0  0  0  0  0  2  0  0  0  0  0  0
  -28.0880  -12.4540   18.6930 C   0  0  0  0  0  2  0  0  0  0  0  0
  -27.5830  -13.4410   19.7700 C   0  0  0  0  0  3  0  0  0  0  0  0
  -28.6130  -13.7350   20.8860 C   0  0  0  0  0  2  0  0  0  0  0  0
  -29.7910  -14.3520   20.2380 N   0  0  0  0  0  0  0  0  0  0  0  0
  -31.5210  -15.6700   20.0110 O   0  0  0  0  0  0  0  0  0  0  0  0
  -29.5410  -17.0790   20.3940 N   0  0  0  0  0  0  0  0  0  0  0  0
  -28.6090  -16.8550   20.7070 H   0  0  0  0  0  0  0  0  0  0  0  0
  -25.2270  -13.9600   20.5670 C   0  0  0  0  0  0  0  0  0  0  0  0
  -24.1690  -13.1740   20.9230 C   0  0  0  0  0  0  0  0  0  0  0  0
  -24.6360  -11.8250   20.8540 C   0  0  0  0  0  0  0  0  0  0  0  0
  -26.2670  -13.0930   20.2900 N   0  0  0  0  0  0  0  0  0  0  0  0
  -25.9270  -11.7990   20.5300 N   0  0  0  0  0  0  0  0  0  0  0  0
  -23.9060  -10.5590   21.0170 C   0  0  0  0  0  0  0  0  0  0  0  0
  -24.3180   -9.5820   21.9490 C   0  0  0  0  0  3  0  0  0  0  0  0
  -23.5830   -8.3860   22.1050 C   0  0  0  0  0  3  0  0  0  0  0  0
  -22.4230   -8.1590   21.3270 C   0  0  0  0  0  0  0  0  0  0  0  0
  -22.0320   -9.1250   20.3830 C   0  0  0  0  0  3  0  0  0  0  0  0
  -22.7660  -10.3110   20.2260 C   0  0  0  0  0  3  0  0  0  0  0  0
  -21.6640   -7.0160   21.3890 O   0  0  0  0  0  0  0  0  0  0  0  0
  -21.5590   -6.2800   22.5420 C   0  0  0  0  0  0  0  0  0  0  0  0
  -21.0280   -6.8300   23.7310 C   0  0  0  0  0  3  0  0  0  0  0  0
  -20.8770   -6.0210   24.8740 C   0  0  0  0  0  3  0  0  0  0  0  0
  -21.2430   -4.6630   24.8310 C   0  0  0  0  0  0  0  0  0  0  0  0
  -21.7640   -4.1100   23.6470 C   0  0  0  0  0  3  0  0  0  0  0  0
  -21.9200   -4.9180   22.5050 C   0  0  0  0  0  0  0  0  0  0  0  0
  -22.4040   -4.3770   21.3610 F   0  0  0  0  0  0  0  0  0  0  0  0
  -21.0900   -3.8830   25.9260 F   0  0  0  0  0  0  0  0  0  0  0  0
  -22.7760  -13.6470   21.2080 C   0  0  0  0  0  0  0  0  0  0  0  0
  -22.0430  -12.9290   22.0510 N   0  0  0  0  0  0  0  0  0  0  0  0
  -22.3430  -14.6900   20.7180 O   0  0  0  0  0  0  0  0  0  0  0  0
  -22.4090  -12.0870   22.4700 H   0  0  0  0  0  0  0  0  0  0  0  0
  -21.1070  -13.2270   22.2790 H   0  0  0  0  0  0  0  0  0  0  0  0
  -25.3860  -15.3350   20.4220 N   0  0  0  0  0  0  0  0  0  0  0  0
  -24.6130  -15.9790   20.5540 H   0  0  0  0  0  0  0  0  0  0  0  0
  -26.2190  -15.7840   20.0590 H   0  0  0  0  0  0  0  0  0  0  0  0
  -30.8260  -18.8540   19.0660 C   0  0  0  0  0  0  0  0  0  0  0  0
  -30.7010  -18.2820   17.6590 C   0  0  0  0  0  1  0  0  0  0  0  0
  -31.9230  -19.2980   19.4100 O   0  0  0  0  0  0  0  0  0  0  0  0
  -28.2570  -23.9010   19.9610 C   0  0  0  0  0  2  0  0  0  0  0  0
  -28.1250  -25.5860   20.4650 O   0  0  0  0  0  0  0  0  0  0  0  0
  -24.5760  -31.8690   23.2480 C   0  0  0  0  0  0  0  0  0  0  0  0
  -27.1550  -26.7890   20.3100 C   0  0  0  0  0  0  0  0  0  0  0  0
  -23.4090  -30.4500   21.6130 C   0  0  0  0  0  3  0  0  0  0  0  0
  -24.8760  -28.8050   20.2130 C   0  0  0  0  0  0  0  0  0  0  0  0
  -25.9850  -30.6100   21.5090 C   0  0  0  0  0  2  0  0  0  0  0  0
  -26.0600  -29.1730   20.8630 C   0  0  0  0  0  0  0  0  0  0  0  0
  -27.1770  -28.1880   20.8870 C   0  0  0  0  0  3  0  0  0  0  0  0
  -25.9450  -26.6340   19.5870 C   0  0  0  0  0  3  0  0  0  0  0  0
  -24.8590  -27.5620   19.5510 C   0  0  0  0  0  3  0  0  0  0  0  0
  -23.6620  -29.7460   20.2470 C   0  0  0  0  0  2  0  0  0  0  0  0
  -24.6800  -31.0100   22.1760 N   0  0  0  0  0  0  0  0  0  0  0  0
  -23.4770  -32.1660   23.7470 O   0  0  0  0  0  0  0  0  0  0  0  0
  -22.6940  -29.4750   22.5870 C   0  0  0  0  0  0  0  0  0  0  0  0
  -21.3650  -29.3070   22.4500 N   0  0  0  0  0  0  0  0  0  0  0  0
  -23.3460  -28.8710   23.4390 O   0  0  0  0  0  0  0  0  0  0  0  0
  -20.8860  -29.8470   21.7420 H   0  0  0  0  0  0  0  0  0  0  0  0
  -17.9800  -28.0750   22.9480 C   0  0  0  0  0  0  0  0  0  0  0  0
  -20.5380  -28.3700   23.2220 C   0  0  0  0  0  3  0  0  0  0  0  0
  -20.6540  -26.9340   22.6580 C   0  0  0  0  0  2  0  0  0  0  0  0
  -19.5620  -26.5940   21.6400 C   0  0  0  0  0  2  0  0  0  0  0  0
  -18.1740  -26.7270   22.2750 C   0  0  0  0  0  2  0  0  0  0  0  0
  -19.0900  -28.8530   23.3770 C   0  0  0  0  0  0  0  0  0  0  0  0
  -18.8500  -30.1110   23.9720 C   0  0  0  0  0  3  0  0  0  0  0  0
  -17.5380  -30.5940   24.1350 C   0  0  0  0  0  3  0  0  0  0  0  0
  -16.4450  -29.8140   23.7180 C   0  0  0  0  0  3  0  0  0  0  0  0
  -16.6670  -28.5560   23.1310 C   0  0  0  0  0  3  0  0  0  0  0  0
  -25.8290  -32.5340   23.8950 C   0  0  0  0  0  3  0  0  0  0  0  0
  -25.5030  -33.9440   24.1880 N   0  0  0  0  0  0  0  0  0  0  0  0
  -25.8660  -34.9930   23.4380 C   0  0  0  0  0  0  0  0  0  0  0  0
  -26.5670  -34.8760   22.4290 O   0  0  0  0  0  0  0  0  0  0  0  0
  -24.8800  -34.1090   24.9650 H   0  0  0  0  0  0  0  0  0  0  0  0
  -24.1800  -36.8180   23.0070 C   0  0  0  0  0  1  0  0  0  0  0  0
  -25.3800  -36.3940   23.8700 C   0  0  0  0  0  3  0  0  0  0  0  0
  -27.4840  -37.2670   24.7930 C   0  0  0  0  0  1  0  0  0  0  0  0
  -26.4310  -37.4330   23.7940 N   0  0  0  0  0  0  0  0  0  0  0  0
  -26.0310  -38.3610   23.9050 H   0  0  0  0  0  0  0  0  0  0  0  0
  -26.2980  -31.8080   25.2180 C   0  0  1  0  0  0  0  0  0  0  0  0
  -25.1710  -31.6160   26.2600 C   0  0  0  0  0  1  0  0  0  0  0  0
  -26.8860  -30.4150   24.9060 C   0  0  0  0  0  1  0  0  0  0  0  0
  -27.4320  -32.6210   25.8860 C   0  0  0  0  0  1  0  0  0  0  0  0
  1  5  1  0
  2  1  1  0
  2  4  1  0
  2  3  1  0
  4  3  1  0
  5 14  1  1
  5  3  1  0
  6 14  1  0
  7 12  1  0
  8  9  1  0
  8  7  1  0
  9 10  1  0
 10 19  1  0
 10 11  1  0
 12  6  1  0
 12 11  1  0
 13  6  2  0
 14 15  1  0
 16 17  2  0
 17 36  1  0
 18 17  1  0
 18 21  1  0
 19 20  1  0
 19 16  1  0
 20 18  2  0
 21 22  1  0
 22 23  2  0
 24 27  1  0
 24 23  1  0
 25 24  2  0
 26 25  1  0
 26 21  2  0
 27 28  1  0
 28 29  1  0
 29 30  2  0
 31 30  1  0
 31 35  1  0
 32 31  2  0
 33 28  2  0
 33 32  1  0
 34 33  1  0
 36 37  1  0
 37 40  1  0
 37 39  1  0
 38 36  2  0
 41 42  1  0
 41 16  1  0
 43 41  1  0
 44 46  2  0
 44  5  1  0
 45 44  1  0
 47  4  1  0
 47 48  1  0
 49 60  2  0
 49 75  1  0
 50 48  1  0
 50 55  1  0
 51 59  1  0
 51 61  1  0
 52 58  1  0
 52 54  1  0
 53 59  1  0
 54 55  2  0
 54 53  1  0
 56 50  2  0
 57 56  1  0
 57 52  2  0
 58 51  1  0
 59 49  1  0
 61 63  2  0
 62 61  1  0
 62 66  1  0
 64 62  1  0
 65 74  2  0
 65 70  1  0
 66 70  1  0
 67 66  1  0
 68 69  1  0
 68 67  1  0
 69 65  1  0
 70 71  2  0
 71 72  1  0
 73 72  2  0
 74 73  1  0
 75 76  1  0
 75 85  1  0
 76 79  1  0
 77 81  1  0
 77 76  1  0
 78 77  2  0
 80 81  1  0
 83 81  1  0
 83 84  1  0
 83 82  1  0
 85 88  1  1
 85 86  1  0
 87 85  1  0
M  ISO  4   6 100  14 100  47 101  48 101
M  END
>  <TORSDO>  (74) 
F 18

>  <SCORE>  (74) 
-16.092

>  <name>  (74) 
74

>  <ligand_id>  (74) 
74

>  <original_smiles>  (74) 
[H]c1c([H])c([H])c2c(c1[H])C([H])([H])C([H])([H])C([H])([H])C2([H])N([H])C(=O)C1([H])N(C(=O)C([H])(N([H])C(=O)C([H])(N([H])C([H])([H])[H])C([H])([H])[H])C(C([H])([H])[H])(C([H])([H])[H])C([H])([H])[H])C([H])([H])c2c([H])c(OC([H])([H])C3([H])C4([H])C([H])([H])C(C(=O)C([H])([H])[H])(N([H])C(=O)N5C([H])([H])C([H])([H])C([H])([H])C([H])(n6nc(-c7c([H])c([H])c(Oc8c([H])c([H])c(F)c([H])c8F)c([H])c7[H])c(C(=O)N([H])[H])c6N([H])[H])C5([H])[H])C34[H])c([H])c([H])c2C1([H])[H]

>  <smiles>  (74) 
[H]c1c([H])c([H])c2c(c1[H])C([H])([H])C([H])([H])C([H])([H])C2([H])N([H])C(=O)C1([H])N(C(=O)C([H])(N([H])C(=O)C([H])(N([H])C([H])([H])[H])C([H])([H])[H])C(C([H])([H])[H])(C([H])([H])[H])C([H])([H])[H])C([H])([H])c2c([H])c(OC([H])([H])C3([H])C4([H])C([H])([H])C(C(=O)C([H])([H])[H])(N([H])C(=O)N5C([H])([H])C([H])([H])C([H])([H])C([H])(n6nc(-c7c([H])c([H])c(Oc8c([H])c([H])c(F)c([H])c8F)c([H])c7[H])c(C(=O)N([H])[H])c6N([H])[H])C5([H])[H])C34[H])c([H])c([H])c2C1([H])[H]

$$$$
75:0:0
     RDKit          3D

 87 96  0  0  1  0  0  0  0  0999 V2000
  -31.6680  -21.7600   21.1380 C   0  0  0  0  0  2  0  0  0  0  0  0
  -29.2850  -22.2460   22.1970 C   0  0  0  0  0  2  0  0  0  0  0  0
  -30.7400  -22.5640   22.0130 C   0  0  0  0  0  3  0  0  0  0  0  0
  -30.5270  -22.5520   20.5150 C   0  0  0  0  0  3  0  0  0  0  0  0
  -29.0330  -22.2100   20.6760 C   0  0  1  0  0  0  0  0  0  0  0  0
  -28.8440  -20.3270   20.2400 C   0  0  0  0  0  3  0  0  0  0  0  0
  -29.8260  -18.6840   20.4730 C   0  0  0  0  0  3  0  0  0  0  0  0
  -30.3160  -15.5870   20.1800 C   0  0  0  0  0  0  0  0  0  0  0  0
  -30.3510  -13.0760   19.3050 C   0  0  0  0  0  2  0  0  0  0  0  0
  -29.4220  -12.7460   18.1010 C   0  0  0  0  0  2  0  0  0  0  0  0
  -28.0090  -12.3930   18.5810 C   0  0  0  0  0  2  0  0  0  0  0  0
  -27.5360  -13.3690   19.6800 C   0  0  0  0  0  3  0  0  0  0  0  0
  -28.5920  -13.6360   20.7810 C   0  0  0  0  0  2  0  0  0  0  0  0
  -29.7700  -14.2380   20.1120 N   0  0  0  0  0  0  0  0  0  0  0  0
  -31.5360  -15.5330   19.9370 O   0  0  0  0  0  0  0  0  0  0  0  0
  -29.5840  -16.9400   20.3280 N   0  0  0  0  0  0  0  0  0  0  0  0
  -28.6040  -16.7280   20.4540 H   0  0  0  0  0  0  0  0  0  0  0  0
  -25.1820  -13.8830   20.4860 C   0  0  0  0  0  0  0  0  0  0  0  0
  -24.1330  -13.0940   20.8690 C   0  0  0  0  0  0  0  0  0  0  0  0
  -24.6170  -11.7490   20.8260 C   0  0  0  0  0  0  0  0  0  0  0  0
  -26.2270  -13.0220   20.2160 N   0  0  0  0  0  0  0  0  0  0  0  0
  -25.9000  -11.7300   20.4820 N   0  0  0  0  0  0  0  0  0  0  0  0
  -23.9080  -10.4770   21.0300 C   0  0  0  0  0  0  0  0  0  0  0  0
  -24.3650   -9.5110   21.9530 C   0  0  0  0  0  3  0  0  0  0  0  0
  -23.6510   -8.3080   22.1400 C   0  0  0  0  0  3  0  0  0  0  0  0
  -22.4680   -8.0600   21.4040 C   0  0  0  0  0  0  0  0  0  0  0  0
  -22.0300   -9.0170   20.4710 C   0  0  0  0  0  3  0  0  0  0  0  0
  -22.7440  -10.2120   20.2830 C   0  0  0  0  0  3  0  0  0  0  0  0
  -21.7270   -6.9050   21.4990 O   0  0  0  0  0  0  0  0  0  0  0  0
  -21.7040   -6.1610   22.6500 C   0  0  0  0  0  0  0  0  0  0  0  0
  -21.2780   -6.7030   23.8830 C   0  0  0  0  0  3  0  0  0  0  0  0
  -21.2030   -5.8820   25.0250 C   0  0  0  0  0  3  0  0  0  0  0  0
  -21.5440   -4.5180   24.9360 C   0  0  0  0  0  0  0  0  0  0  0  0
  -21.9630   -3.9750   23.7090 C   0  0  0  0  0  3  0  0  0  0  0  0
  -22.0390   -4.7930   22.5690 C   0  0  0  0  0  0  0  0  0  0  0  0
  -22.4250   -4.2610   21.3840 F   0  0  0  0  0  0  0  0  0  0  0  0
  -21.4640   -3.7270   26.0320 F   0  0  0  0  0  0  0  0  0  0  0  0
  -22.7390  -13.5550   21.1620 C   0  0  0  0  0  0  0  0  0  0  0  0
  -22.0250  -12.8540   22.0370 N   0  0  0  0  0  0  0  0  0  0  0  0
  -22.2880  -14.5810   20.6520 O   0  0  0  0  0  0  0  0  0  0  0  0
  -22.3980  -12.0240   22.4710 H   0  0  0  0  0  0  0  0  0  0  0  0
  -21.0960  -13.1660   22.2770 H   0  0  0  0  0  0  0  0  0  0  0  0
  -25.3250  -15.2570   20.3190 N   0  0  0  0  0  0  0  0  0  0  0  0
  -24.5580  -15.9070   20.4560 H   0  0  0  0  0  0  0  0  0  0  0  0
  -26.1580  -15.7000   19.9430 H   0  0  0  0  0  0  0  0  0  0  0  0
  -28.0750  -23.8530   20.2680 C   0  0  0  0  0  2  0  0  0  0  0  0
  -28.2060  -25.5990   20.4200 O   0  0  0  0  0  0  0  0  0  0  0  0
  -24.6820  -31.8720   23.2570 C   0  0  0  0  0  0  0  0  0  0  0  0
  -27.2170  -26.7900   20.3220 C   0  0  0  0  0  0  0  0  0  0  0  0
  -23.4910  -30.4750   21.6170 C   0  0  0  0  0  3  0  0  0  0  0  0
  -24.9410  -28.8120   20.2260 C   0  0  0  0  0  0  0  0  0  0  0  0
  -26.0670  -30.6140   21.5030 C   0  0  0  0  0  2  0  0  0  0  0  0
  -26.1320  -29.1770   20.8600 C   0  0  0  0  0  0  0  0  0  0  0  0
  -27.2530  -28.1960   20.8710 C   0  0  0  0  0  3  0  0  0  0  0  0
  -25.9900  -26.6290   19.6230 C   0  0  0  0  0  3  0  0  0  0  0  0
  -24.9100  -27.5600   19.5830 C   0  0  0  0  0  3  0  0  0  0  0  0
  -23.7330  -29.7610   20.2530 C   0  0  0  0  0  2  0  0  0  0  0  0
  -24.7690  -31.0200   22.1770 N   0  0  0  0  0  0  0  0  0  0  0  0
  -23.5900  -32.1830   23.7640 O   0  0  0  0  0  0  0  0  0  0  0  0
  -22.7620  -29.5120   22.5930 C   0  0  0  0  0  0  0  0  0  0  0  0
  -21.4290  -29.3680   22.4610 N   0  0  0  0  0  0  0  0  0  0  0  0
  -23.4110  -28.8880   23.4380 O   0  0  0  0  0  0  0  0  0  0  0  0
  -20.9620  -29.9300   21.7630 H   0  0  0  0  0  0  0  0  0  0  0  0
  -18.0300  -28.1780   22.9570 C   0  0  0  0  0  0  0  0  0  0  0  0
  -20.5900  -28.4420   23.2310 C   0  0  0  0  0  3  0  0  0  0  0  0
  -20.6880  -27.0050   22.6680 C   0  0  0  0  0  2  0  0  0  0  0  0
  -19.5930  -26.6760   21.6470 C   0  0  0  0  0  2  0  0  0  0  0  0
  -18.2060  -26.8260   22.2820 C   0  0  0  0  0  2  0  0  0  0  0  0
  -19.1500  -28.9430   23.3840 C   0  0  0  0  0  0  0  0  0  0  0  0
  -18.9320  -30.2010   23.9860 C   0  0  0  0  0  3  0  0  0  0  0  0
  -17.6280  -30.7030   24.1560 C   0  0  0  0  0  3  0  0  0  0  0  0
  -16.5230  -29.9420   23.7360 C   0  0  0  0  0  3  0  0  0  0  0  0
  -16.7240  -28.6810   23.1460 C   0  0  0  0  0  3  0  0  0  0  0  0
  -25.9490  -32.5080   23.9020 C   0  0  0  0  0  3  0  0  0  0  0  0
  -26.4330  -31.7470   25.1990 C   0  0  1  0  0  0  0  0  0  0  0  0
  -25.3240  -31.5430   26.2560 C   0  0  0  0  0  1  0  0  0  0  0  0
  -27.0030  -30.3540   24.8480 C   0  0  0  0  0  1  0  0  0  0  0  0
  -27.5790  -32.5380   25.8730 C   0  0  0  0  0  1  0  0  0  0  0  0
  -25.6390  -33.9140   24.2350 N   0  0  0  0  0  0  0  0  0  0  0  0
  -25.9650  -34.9760   23.4830 C   0  0  0  0  0  0  0  0  0  0  0  0
  -26.6210  -34.8770   22.4430 O   0  0  0  0  0  0  0  0  0  0  0  0
  -25.0560  -34.0570   25.0450 H   0  0  0  0  0  0  0  0  0  0  0  0
  -24.2350  -36.7850   23.1880 C   0  0  0  0  0  1  0  0  0  0  0  0
  -25.4980  -36.3690   23.9590 C   0  0  0  0  0  3  0  0  0  0  0  0
  -27.6540  -37.2570   24.7310 C   0  0  0  0  0  1  0  0  0  0  0  0
  -26.5300  -37.4210   23.8150 N   0  0  0  0  0  0  0  0  0  0  0  0
  -26.1270  -38.3420   23.9700 H   0  0  0  0  0  0  0  0  0  0  0  0
  3  1  1  0
  3  2  1  0
  4  5  1  0
  4  1  1  0
  4  3  1  0
  5  6  1  0
  5  2  1  0
  6  7  2  0
  8 16  1  0
  9 14  1  0
 10 11  1  0
 10  9  1  0
 12 11  1  0
 12 21  1  0
 12 13  1  0
 14  8  1  0
 14 13  1  0
 15  8  2  0
 16 17  1  0
 16  7  1  0
 18 19  2  0
 19 38  1  0
 20 19  1  0
 20 23  1  0
 21 22  1  0
 21 18  1  0
 22 20  2  0
 23 24  1  0
 24 25  2  0
 26 29  1  0
 26 25  1  0
 27 26  2  0
 28 27  1  0
 28 23  2  0
 29 30  1  0
 30 31  1  0
 31 32  2  0
 33 32  1  0
 33 37  1  0
 34 33  2  0
 35 30  2  0
 35 34  1  0
 36 35  1  0
 38 39  1  0
 39 42  1  0
 39 41  1  0
 40 38  2  0
 43 44  1  0
 43 18  1  0
 45 43  1  0
 46 47  1  0
  5 46  1  1
 48 59  2  0
 49 47  1  0
 49 54  1  0
 50 58  1  0
 50 60  1  0
 51 57  1  0
 51 53  1  0
 52 58  1  0
 53 54  2  0
 53 52  1  0
 55 49  2  0
 56 55  1  0
 56 51  2  0
 57 50  1  0
 58 48  1  0
 60 62  2  0
 61 60  1  0
 63 61  1  0
 64 73  2  0
 64 69  1  0
 65 61  1  0
 65 69  1  0
 66 65  1  0
 67 68  1  0
 67 66  1  0
 68 64  1  0
 69 70  2  0
 70 71  1  0
 72 71  2  0
 73 72  1  0
 74 48  1  0
 74 79  1  0
 74 75  1  0
 75 78  1  1
 75 76  1  0
 77 75  1  0
 79 82  1  0
 80 84  1  0
 80 79  1  0
 81 80  2  0
 84 83  1  0
 86 84  1  0
 86 87  1  0
 86 85  1  0
M  ISO  4   8 100  16 100  46 101  47 101
M  END
>  <TORSDO>  (75) 
F 19

>  <SCORE>  (75) 
-16.713

>  <name>  (75) 
75

>  <ligand_id>  (75) 
75

>  <original_smiles>  (75) 
[H]c1c([H])c([H])c2c(c1[H])C([H])([H])C([H])([H])C([H])([H])C2([H])N([H])C(=O)C1([H])N(C(=O)C([H])(N([H])C(=O)C([H])(N([H])C([H])([H])[H])C([H])([H])[H])C(C([H])([H])[H])(C([H])([H])[H])C([H])([H])[H])C([H])([H])c2c([H])c(OC([H])([H])C3(C([H])([H])C([H])([H])N([H])C(=O)N4C([H])([H])C([H])([H])C([H])([H])C([H])(n5nc(-c6c([H])c([H])c(Oc7c([H])c([H])c(F)c([H])c7F)c([H])c6[H])c(C(=O)N([H])[H])c5N([H])[H])C4([H])[H])C([H])([H])C4([H])C([H])([H])C43[H])c([H])c([H])c2C1([H])[H]

>  <smiles>  (75) 
[H]c1c([H])c([H])c2c(c1[H])C([H])([H])C([H])([H])C([H])([H])C2([H])N([H])C(=O)C1([H])N(C(=O)C([H])(N([H])C(=O)C([H])(N([H])C([H])([H])[H])C([H])([H])[H])C(C([H])([H])[H])(C([H])([H])[H])C([H])([H])[H])C([H])([H])c2c([H])c(OC([H])([H])C3(C([H])([H])C([H])([H])N([H])C(=O)N4C([H])([H])C([H])([H])C([H])([H])C([H])(n5nc(-c6c([H])c([H])c(Oc7c([H])c([H])c(F)c([H])c7F)c([H])c6[H])c(C(=O)N([H])[H])c5N([H])[H])C4([H])[H])C([H])([H])C4([H])C([H])([H])C43[H])c([H])c([H])c2C1([H])[H]

$$$$
76:0:0
     RDKit          3D

 87 96  0  0  1  0  0  0  0  0999 V2000
  -29.5630  -22.2360   19.0260 C   0  0  0  0  0  2  0  0  0  0  0  0
  -28.6380  -19.7180   18.6040 C   0  0  0  0  0  2  0  0  0  0  0  0
  -28.6750  -21.1090   20.9180 C   0  0  0  0  0  2  0  0  0  0  0  0
  -29.7740  -20.6620   18.9160 C   0  0  0  0  0  3  0  0  0  0  0  0
  -28.4700  -22.6110   20.0790 C   0  0  0  0  0  3  0  0  0  0  0  0
  -29.1710  -19.7600   20.0190 C   0  0  2  0  0  0  0  0  0  0  0  0
  -28.1650  -24.3030   20.6720 C   0  0  0  0  0  2  0  0  0  0  0  0
  -28.2520  -25.8840   20.2010 O   0  0  0  0  0  0  0  0  0  0  0  0
  -24.6450  -31.8460   23.2180 C   0  0  0  0  0  0  0  0  0  0  0  0
  -27.2140  -26.9550   20.2400 C   0  0  0  0  0  0  0  0  0  0  0  0
  -23.4560  -30.4370   21.5870 C   0  0  0  0  0  3  0  0  0  0  0  0
  -24.9070  -28.8230   20.1840 C   0  0  0  0  0  0  0  0  0  0  0  0
  -26.0210  -30.6570   21.4370 C   0  0  0  0  0  2  0  0  0  0  0  0
  -26.0970  -29.2390   20.7950 C   0  0  0  0  0  0  0  0  0  0  0  0
  -27.2480  -28.3300   20.7900 C   0  0  0  0  0  3  0  0  0  0  0  0
  -25.9910  -26.6850   19.5900 C   0  0  0  0  0  3  0  0  0  0  0  0
  -24.8770  -27.5640   19.5640 C   0  0  0  0  0  3  0  0  0  0  0  0
  -23.6880  -29.7430   20.2180 C   0  0  0  0  0  2  0  0  0  0  0  0
  -24.7300  -31.0070   22.1340 N   0  0  0  0  0  0  0  0  0  0  0  0
  -23.5560  -32.1350   23.7390 O   0  0  0  0  0  0  0  0  0  0  0  0
  -22.7650  -29.4430   22.5580 C   0  0  0  0  0  0  0  0  0  0  0  0
  -21.4350  -29.2750   22.4350 N   0  0  0  0  0  0  0  0  0  0  0  0
  -23.4340  -28.8240   23.3900 O   0  0  0  0  0  0  0  0  0  0  0  0
  -20.9490  -29.8260   21.7410 H   0  0  0  0  0  0  0  0  0  0  0  0
  -18.0580  -28.0590   22.9580 C   0  0  0  0  0  0  0  0  0  0  0  0
  -20.6170  -28.3400   23.2150 C   0  0  0  0  0  3  0  0  0  0  0  0
  -20.7260  -26.9050   22.6510 C   0  0  0  0  0  2  0  0  0  0  0  0
  -19.6230  -26.5690   21.6400 C   0  0  0  0  0  2  0  0  0  0  0  0
  -18.2420  -26.7080   22.2850 C   0  0  0  0  0  2  0  0  0  0  0  0
  -19.1730  -28.8310   23.3790 C   0  0  0  0  0  0  0  0  0  0  0  0
  -18.9460  -30.0920   23.9720 C   0  0  0  0  0  3  0  0  0  0  0  0
  -17.6380  -30.5810   24.1460 C   0  0  0  0  0  3  0  0  0  0  0  0
  -16.5390  -29.8080   23.7380 C   0  0  0  0  0  3  0  0  0  0  0  0
  -16.7480  -28.5470   23.1510 C   0  0  0  0  0  3  0  0  0  0  0  0
  -25.9140  -32.4970   23.8450 C   0  0  0  0  0  3  0  0  0  0  0  0
  -25.5910  -33.8990   24.1720 N   0  0  0  0  0  0  0  0  0  0  0  0
  -25.9160  -34.9580   23.4190 C   0  0  0  0  0  0  0  0  0  0  0  0
  -26.5840  -34.8600   22.3870 O   0  0  0  0  0  0  0  0  0  0  0  0
  -24.9960  -34.0460   24.9750 H   0  0  0  0  0  0  0  0  0  0  0  0
  -24.1810  -36.7530   23.0810 C   0  0  0  0  0  1  0  0  0  0  0  0
  -25.4270  -36.3460   23.8830 C   0  0  0  0  0  3  0  0  0  0  0  0
  -27.5590  -37.2420   24.7080 C   0  0  0  0  0  1  0  0  0  0  0  0
  -26.4560  -37.4040   23.7670 N   0  0  0  0  0  0  0  0  0  0  0  0
  -26.0450  -38.3210   23.9160 H   0  0  0  0  0  0  0  0  0  0  0  0
  -26.4220  -31.7440   25.1370 C   0  0  1  0  0  0  0  0  0  0  0  0
  -25.3230  -31.5210   26.2020 C   0  0  0  0  0  1  0  0  0  0  0  0
  -27.0090  -30.3610   24.7760 C   0  0  0  0  0  1  0  0  0  0  0  0
  -27.5670  -32.5500   25.7960 C   0  0  0  0  0  1  0  0  0  0  0  0
  -29.9260  -18.2220   20.5370 C   0  0  0  0  0  2  0  0  0  0  0  0
  -30.4100  -15.3060   20.2600 C   0  0  0  0  0  0  0  0  0  0  0  0
  -30.3900  -12.8660   19.3630 C   0  0  0  0  0  2  0  0  0  0  0  0
  -29.4640  -12.6430   18.1420 C   0  0  0  0  0  2  0  0  0  0  0  0
  -28.0180  -12.3750   18.5900 C   0  0  0  0  0  2  0  0  0  0  0  0
  -27.5690  -13.3300   19.7240 C   0  0  0  0  0  3  0  0  0  0  0  0
  -28.6250  -13.4860   20.8380 C   0  0  0  0  0  2  0  0  0  0  0  0
  -29.8400  -14.0050   20.1860 N   0  0  0  0  0  0  0  0  0  0  0  0
  -31.6380  -15.3010   20.0900 O   0  0  0  0  0  0  0  0  0  0  0  0
  -29.6460  -16.5820   20.3270 N   0  0  0  0  0  0  0  0  0  0  0  0
  -28.6540  -16.3890   20.3320 H   0  0  0  0  0  0  0  0  0  0  0  0
  -25.2000  -13.8690   20.4900 C   0  0  0  0  0  0  0  0  0  0  0  0
  -24.1450  -13.0840   20.8590 C   0  0  0  0  0  0  0  0  0  0  0  0
  -24.6230  -11.7370   20.8290 C   0  0  0  0  0  0  0  0  0  0  0  0
  -26.2490  -13.0010   20.2430 N   0  0  0  0  0  0  0  0  0  0  0  0
  -25.9140  -11.7130   20.5180 N   0  0  0  0  0  0  0  0  0  0  0  0
  -23.9050  -10.4700   21.0220 C   0  0  0  0  0  0  0  0  0  0  0  0
  -24.3390   -9.5070   21.9580 C   0  0  0  0  0  3  0  0  0  0  0  0
  -23.6170   -8.3080   22.1390 C   0  0  0  0  0  3  0  0  0  0  0  0
  -22.4470   -8.0620   21.3830 C   0  0  0  0  0  0  0  0  0  0  0  0
  -22.0300   -9.0140   20.4360 C   0  0  0  0  0  3  0  0  0  0  0  0
  -22.7530  -10.2050   20.2530 C   0  0  0  0  0  3  0  0  0  0  0  0
  -21.6960   -6.9160   21.4730 O   0  0  0  0  0  0  0  0  0  0  0  0
  -21.6470   -6.1760   22.6280 C   0  0  0  0  0  0  0  0  0  0  0  0
  -21.2090   -6.7320   23.8500 C   0  0  0  0  0  3  0  0  0  0  0  0
  -21.1080   -5.9200   24.9960 C   0  0  0  0  0  3  0  0  0  0  0  0
  -21.4330   -4.5510   24.9210 C   0  0  0  0  0  0  0  0  0  0  0  0
  -21.8640   -3.9960   23.7040 C   0  0  0  0  0  3  0  0  0  0  0  0
  -21.9670   -4.8060   22.5600 C   0  0  0  0  0  0  0  0  0  0  0  0
  -22.3620   -4.2600   21.3830 F   0  0  0  0  0  0  0  0  0  0  0  0
  -21.3290   -3.7670   26.0200 F   0  0  0  0  0  0  0  0  0  0  0  0
  -22.7450  -13.5510   21.1270 C   0  0  0  0  0  0  0  0  0  0  0  0
  -22.0200  -12.8480   21.9900 N   0  0  0  0  0  0  0  0  0  0  0  0
  -22.3020  -14.5720   20.6040 O   0  0  0  0  0  0  0  0  0  0  0  0
  -22.3920  -12.0200   22.4330 H   0  0  0  0  0  0  0  0  0  0  0  0
  -21.0820  -13.1440   22.2180 H   0  0  0  0  0  0  0  0  0  0  0  0
  -25.3490  -15.2420   20.3130 N   0  0  0  0  0  0  0  0  0  0  0  0
  -24.5770  -15.8880   20.4330 H   0  0  0  0  0  0  0  0  0  0  0  0
  -26.1840  -15.6890   19.9610 H   0  0  0  0  0  0  0  0  0  0  0  0
  1  5  1  0
  2  6  1  0
  4  2  1  0
  4  1  1  0
  4  6  1  0
  5  7  1  0
  5  3  1  0
  6 49  1  1
  6  3  1  0
  8 10  1  0
  8  7  1  0
  9 20  2  0
 10 15  1  0
 11 19  1  0
 11 21  1  0
 12 18  1  0
 12 14  1  0
 13 19  1  0
 14 13  1  0
 15 14  2  0
 16 10  2  0
 17 16  1  0
 17 12  2  0
 18 11  1  0
 19  9  1  0
 21 23  2  0
 22 21  1  0
 24 22  1  0
 25 34  2  0
 25 30  1  0
 26 22  1  0
 26 30  1  0
 27 26  1  0
 28 29  1  0
 28 27  1  0
 29 25  1  0
 30 31  2  0
 31 32  1  0
 33 32  2  0
 34 33  1  0
 35  9  1  0
 35 36  1  0
 35 45  1  0
 36 39  1  0
 37 41  1  0
 37 36  1  0
 38 37  2  0
 41 40  1  0
 43 41  1  0
 43 44  1  0
 43 42  1  0
 45 48  1  1
 45 46  1  0
 47 45  1  0
 50 58  1  0
 51 56  1  0
 52 53  1  0
 52 51  1  0
 54 53  1  0
 54 63  1  0
 54 55  1  0
 56 50  1  0
 56 55  1  0
 57 50  2  0
 58 59  1  0
 58 49  1  0
 60 61  2  0
 61 80  1  0
 62 61  1  0
 62 65  1  0
 63 60  1  0
 63 64  1  0
 64 62  2  0
 65 66  1  0
 66 67  2  0
 68 71  1  0
 68 67  1  0
 69 68  2  0
 70 69  1  0
 70 65  2  0
 71 72  1  0
 72 73  1  0
 73 74  2  0
 75 74  1  0
 75 79  1  0
 76 75  2  0
 77 72  2  0
 77 76  1  0
 78 77  1  0
 80 81  1  0
 81 84  1  0
 81 83  1  0
 82 80  2  0
 85 86  1  0
 85 60  1  0
 87 85  1  0
M  ISO  4   7 101   8 101  50 100  58 100
M  END
>  <TORSDO>  (76) 
F 18

>  <SCORE>  (76) 
-16.628

>  <name>  (76) 
76

>  <ligand_id>  (76) 
76

>  <original_smiles>  (76) 
[H]c1c([H])c([H])c2c(c1[H])C([H])([H])C([H])([H])C([H])([H])C2([H])N([H])C(=O)C1([H])N(C(=O)C([H])(N([H])C(=O)C([H])(N([H])C([H])([H])[H])C([H])([H])[H])C(C([H])([H])[H])(C([H])([H])[H])C([H])([H])[H])C([H])([H])c2c([H])c(OC([H])([H])C3([H])C([H])([H])C4([H])C([H])([H])C4(C([H])([H])N([H])C(=O)N4C([H])([H])C([H])([H])C([H])([H])C([H])(n5nc(-c6c([H])c([H])c(Oc7c([H])c([H])c(F)c([H])c7F)c([H])c6[H])c(C(=O)N([H])[H])c5N([H])[H])C4([H])[H])C3([H])[H])c([H])c([H])c2C1([H])[H]

>  <smiles>  (76) 
[H]c1c([H])c([H])c2c(c1[H])C([H])([H])C([H])([H])C([H])([H])C2([H])N([H])C(=O)C1([H])N(C(=O)C([H])(N([H])C(=O)C([H])(N([H])C([H])([H])[H])C([H])([H])[H])C(C([H])([H])[H])(C([H])([H])[H])C([H])([H])[H])C([H])([H])c2c([H])c(OC([H])([H])C3([H])C([H])([H])C4([H])C([H])([H])C4(C([H])([H])N([H])C(=O)N4C([H])([H])C([H])([H])C([H])([H])C([H])(n5nc(-c6c([H])c([H])c(Oc7c([H])c([H])c(F)c([H])c7F)c([H])c6[H])c(C(=O)N([H])[H])c5N([H])[H])C4([H])[H])C3([H])[H])c([H])c([H])c2C1([H])[H]

$$$$
77:0:0
     RDKit          3D

 87 95  0  0  1  0  0  0  0  0999 V2000
  -28.8810  -22.2610   19.9940 C   0  0  0  0  0  0  0  0  0  0  0  0
  -29.6160  -22.4850   19.0230 O   0  0  0  0  0  0  0  0  0  0  0  0
  -28.9350  -20.4500   20.5020 C   0  0  0  0  0  2  0  0  0  0  0  0
  -29.9420  -19.2830   17.6950 C   0  0  0  0  0  2  0  0  0  0  0  0
  -30.8100  -18.9270   18.9080 C   0  0  0  0  0  2  0  0  0  0  0  0
  -28.7950  -18.5810   18.4170 C   0  0  0  0  0  2  0  0  0  0  0  0
  -29.5300  -18.7340   19.7670 C   0  0  2  0  0  0  0  0  0  0  0  0
  -30.2930  -15.6480   20.1630 C   0  0  0  0  0  0  0  0  0  0  0  0
  -30.3860  -13.1040   19.3400 C   0  0  0  0  0  2  0  0  0  0  0  0
  -29.4750  -12.7020   18.1420 C   0  0  0  0  0  2  0  0  0  0  0  0
  -28.0340  -12.3870   18.5870 C   0  0  0  0  0  2  0  0  0  0  0  0
  -27.5570  -13.3710   19.6820 C   0  0  0  0  0  3  0  0  0  0  0  0
  -28.6040  -13.6520   20.7800 C   0  0  0  0  0  2  0  0  0  0  0  0
  -29.7740  -14.2770   20.1230 N   0  0  0  0  0  0  0  0  0  0  0  0
  -31.5130  -15.5900   19.9240 O   0  0  0  0  0  0  0  0  0  0  0  0
  -29.5400  -17.0160   20.2840 N   0  0  0  0  0  0  0  0  0  0  0  0
  -28.6050  -16.7850   20.5950 H   0  0  0  0  0  0  0  0  0  0  0  0
  -25.1960  -13.8910   20.4690 C   0  0  0  0  0  0  0  0  0  0  0  0
  -24.1430  -13.1040   20.8530 C   0  0  0  0  0  0  0  0  0  0  0  0
  -24.6210  -11.7550   20.8150 C   0  0  0  0  0  0  0  0  0  0  0  0
  -26.2390  -13.0240   20.2110 N   0  0  0  0  0  0  0  0  0  0  0  0
  -25.9100  -11.7340   20.4880 N   0  0  0  0  0  0  0  0  0  0  0  0
  -23.9040  -10.4880   21.0060 C   0  0  0  0  0  0  0  0  0  0  0  0
  -24.3340   -9.5240   21.9470 C   0  0  0  0  0  3  0  0  0  0  0  0
  -23.6120   -8.3210   22.1260 C   0  0  0  0  0  3  0  0  0  0  0  0
  -22.4380   -8.0820   21.3760 C   0  0  0  0  0  0  0  0  0  0  0  0
  -22.0240   -9.0340   20.4270 C   0  0  0  0  0  3  0  0  0  0  0  0
  -22.7460  -10.2250   20.2460 C   0  0  0  0  0  3  0  0  0  0  0  0
  -21.6840   -6.9340   21.4720 O   0  0  0  0  0  0  0  0  0  0  0  0
  -21.6390   -6.1970   22.6300 C   0  0  0  0  0  0  0  0  0  0  0  0
  -21.2040   -6.7550   23.8520 C   0  0  0  0  0  3  0  0  0  0  0  0
  -21.1030   -5.9440   25.0010 C   0  0  0  0  0  3  0  0  0  0  0  0
  -21.4300   -4.5760   24.9280 C   0  0  0  0  0  0  0  0  0  0  0  0
  -21.8570   -4.0190   23.7110 C   0  0  0  0  0  3  0  0  0  0  0  0
  -21.9590   -4.8260   22.5650 C   0  0  0  0  0  0  0  0  0  0  0  0
  -22.3510   -4.2810   21.3890 F   0  0  0  0  0  0  0  0  0  0  0  0
  -21.3260   -3.7950   26.0260 F   0  0  0  0  0  0  0  0  0  0  0  0
  -22.7450  -13.5720   21.1200 C   0  0  0  0  0  0  0  0  0  0  0  0
  -22.0210  -12.8790   21.9920 N   0  0  0  0  0  0  0  0  0  0  0  0
  -22.3010  -14.5940   20.6030 O   0  0  0  0  0  0  0  0  0  0  0  0
  -22.3810  -12.0490   22.4410 H   0  0  0  0  0  0  0  0  0  0  0  0
  -21.0830  -13.1800   22.2090 H   0  0  0  0  0  0  0  0  0  0  0  0
  -25.3520  -15.2600   20.2830 N   0  0  0  0  0  0  0  0  0  0  0  0
  -24.5950  -15.9210   20.4150 H   0  0  0  0  0  0  0  0  0  0  0  0
  -26.1810  -15.6740   19.8740 H   0  0  0  0  0  0  0  0  0  0  0  0
  -28.0140  -23.8230   20.5280 C   0  0  0  0  0  2  0  0  0  0  0  0
  -28.2070  -25.5500   20.2650 O   0  0  0  0  0  0  0  0  0  0  0  0
  -24.5860  -31.8160   23.1260 C   0  0  0  0  0  0  0  0  0  0  0  0
  -27.2160  -26.7460   20.2560 C   0  0  0  0  0  0  0  0  0  0  0  0
  -23.4380  -30.3950   21.4740 C   0  0  0  0  0  3  0  0  0  0  0  0
  -24.9300  -28.7440   20.1220 C   0  0  0  0  0  0  0  0  0  0  0  0
  -26.0190  -30.5700   21.4080 C   0  0  0  0  0  2  0  0  0  0  0  0
  -26.1100  -29.1310   20.7690 C   0  0  0  0  0  0  0  0  0  0  0  0
  -27.2480  -28.1660   20.7840 C   0  0  0  0  0  3  0  0  0  0  0  0
  -25.9870  -26.5550   19.5790 C   0  0  0  0  0  3  0  0  0  0  0  0
  -24.9070  -27.4820   19.5050 C   0  0  0  0  0  3  0  0  0  0  0  0
  -23.7130  -29.6790   20.1230 C   0  0  0  0  0  2  0  0  0  0  0  0
  -24.7010  -30.9610   22.0530 N   0  0  0  0  0  0  0  0  0  0  0  0
  -23.4860  -32.1140   23.6160 O   0  0  0  0  0  0  0  0  0  0  0  0
  -22.7120  -29.4290   22.4550 C   0  0  0  0  0  0  0  0  0  0  0  0
  -21.3760  -29.2950   22.3420 N   0  0  0  0  0  0  0  0  0  0  0  0
  -23.3610  -28.7950   23.2910 O   0  0  0  0  0  0  0  0  0  0  0  0
  -20.8950  -29.8530   21.6500 H   0  0  0  0  0  0  0  0  0  0  0  0
  -17.9700  -28.1470   22.9060 C   0  0  0  0  0  0  0  0  0  0  0  0
  -20.5400  -28.3630   23.1190 C   0  0  0  0  0  3  0  0  0  0  0  0
  -20.6000  -26.9350   22.5270 C   0  0  0  0  0  2  0  0  0  0  0  0
  -19.4730  -26.6470   21.5300 C   0  0  0  0  0  2  0  0  0  0  0  0
  -18.1070  -26.8090   22.2020 C   0  0  0  0  0  2  0  0  0  0  0  0
  -19.1110  -28.8850   23.3230 C   0  0  0  0  0  0  0  0  0  0  0  0
  -18.9210  -30.1350   23.9470 C   0  0  0  0  0  3  0  0  0  0  0  0
  -17.6270  -30.6550   24.1460 C   0  0  0  0  0  3  0  0  0  0  0  0
  -16.5030  -29.9140   23.7420 C   0  0  0  0  0  3  0  0  0  0  0  0
  -16.6740  -28.6600   23.1290 C   0  0  0  0  0  3  0  0  0  0  0  0
  -25.8370  -32.4790   23.7840 C   0  0  0  0  0  3  0  0  0  0  0  0
  -26.3280  -31.7280   25.0840 C   0  0  1  0  0  0  0  0  0  0  0  0
  -25.2120  -31.4990   26.1310 C   0  0  0  0  0  1  0  0  0  0  0  0
  -26.9330  -30.3450   24.7490 C   0  0  0  0  0  1  0  0  0  0  0  0
  -27.4560  -32.5450   25.7620 C   0  0  0  0  0  1  0  0  0  0  0  0
  -25.4940  -33.8770   24.1130 N   0  0  0  0  0  0  0  0  0  0  0  0
  -25.8290  -34.9470   23.3840 C   0  0  0  0  0  0  0  0  0  0  0  0
  -26.5120  -34.8640   22.3600 O   0  0  0  0  0  0  0  0  0  0  0  0
  -24.8830  -34.0090   24.9060 H   0  0  0  0  0  0  0  0  0  0  0  0
  -24.0940  -36.7450   23.0430 C   0  0  0  0  0  1  0  0  0  0  0  0
  -25.3270  -36.3280   23.8580 C   0  0  0  0  0  3  0  0  0  0  0  0
  -27.4410  -37.2290   24.7280 C   0  0  0  0  0  1  0  0  0  0  0  0
  -26.3520  -37.3880   23.7710 N   0  0  0  0  0  0  0  0  0  0  0  0
  -25.9360  -38.3050   23.9120 H   0  0  0  0  0  0  0  0  0  0  0  0
  1  3  1  0
  1 46  1  0
  2  1  2  0
  4  6  1  0
  4  5  1  0
  5  7  1  0
  6  7  1  0
  7 16  1  0
  7  3  1  1
  8 16  1  0
  9 14  1  0
 10 11  1  0
 10  9  1  0
 12 11  1  0
 12 21  1  0
 12 13  1  0
 14  8  1  0
 14 13  1  0
 15  8  2  0
 16 17  1  0
 18 19  2  0
 19 38  1  0
 20 19  1  0
 20 23  1  0
 21 18  1  0
 21 22  1  0
 22 20  2  0
 23 24  1  0
 24 25  2  0
 26 29  1  0
 26 25  1  0
 27 26  2  0
 28 27  1  0
 28 23  2  0
 29 30  1  0
 30 31  1  0
 31 32  2  0
 33 32  1  0
 33 37  1  0
 34 33  2  0
 35 30  2  0
 35 34  1  0
 36 35  1  0
 38 39  1  0
 39 42  1  0
 39 41  1  0
 40 38  2  0
 43 44  1  0
 43 18  1  0
 45 43  1  0
 47 46  1  0
 48 59  2  0
 49 47  1  0
 49 54  1  0
 50 58  1  0
 50 60  1  0
 51 57  1  0
 51 53  1  0
 52 58  1  0
 53 54  2  0
 53 52  1  0
 55 49  2  0
 56 55  1  0
 56 51  2  0
 57 50  1  0
 58 48  1  0
 60 62  2  0
 61 60  1  0
 63 61  1  0
 64 73  2  0
 64 69  1  0
 65 61  1  0
 65 69  1  0
 66 65  1  0
 67 68  1  0
 67 66  1  0
 68 64  1  0
 69 70  2  0
 70 71  1  0
 72 71  2  0
 73 72  1  0
 74 48  1  0
 74 79  1  0
 74 75  1  0
 75 78  1  1
 75 76  1  0
 77 75  1  0
 79 82  1  0
 80 84  1  0
 80 79  1  0
 81 80  2  0
 84 83  1  0
 86 84  1  0
 86 87  1  0
 86 85  1  0
M  ISO  4   8 100  16 100  46 101  47 101
M  END
>  <TORSDO>  (77) 
F 19

>  <SCORE>  (77) 
-16.595

>  <name>  (77) 
77

>  <ligand_id>  (77) 
77

>  <original_smiles>  (77) 
[H]c1c([H])c([H])c2c(c1[H])C([H])([H])C([H])([H])C([H])([H])C2([H])N([H])C(=O)C1([H])N(C(=O)C([H])(N([H])C(=O)C([H])(N([H])C([H])([H])[H])C([H])([H])[H])C(C([H])([H])[H])(C([H])([H])[H])C([H])([H])[H])C([H])([H])c2c([H])c(OC([H])([H])C(=O)C([H])([H])C3(N([H])C(=O)N4C([H])([H])C([H])([H])C([H])([H])C([H])(n5nc(-c6c([H])c([H])c(Oc7c([H])c([H])c(F)c([H])c7F)c([H])c6[H])c(C(=O)N([H])[H])c5N([H])[H])C4([H])[H])C([H])([H])C([H])([H])C3([H])[H])c([H])c([H])c2C1([H])[H]

>  <smiles>  (77) 
[H]c1c([H])c([H])c2c(c1[H])C([H])([H])C([H])([H])C([H])([H])C2([H])N([H])C(=O)C1([H])N(C(=O)C([H])(N([H])C(=O)C([H])(N([H])C([H])([H])[H])C([H])([H])[H])C(C([H])([H])[H])(C([H])([H])[H])C([H])([H])[H])C([H])([H])c2c([H])c(OC([H])([H])C(=O)C([H])([H])C3(N([H])C(=O)N4C([H])([H])C([H])([H])C([H])([H])C([H])(n5nc(-c6c([H])c([H])c(Oc7c([H])c([H])c(F)c([H])c7F)c([H])c6[H])c(C(=O)N([H])[H])c5N([H])[H])C4([H])[H])C([H])([H])C([H])([H])C3([H])[H])c([H])c([H])c2C1([H])[H]

$$$$
78:0:0
     RDKit          3D

 89 98  0  0  1  0  0  0  0  0999 V2000
  -29.1510  -19.7870   19.9130 C   0  0  0  0  0  3  0  0  0  0  0  0
  -28.8620  -21.3120   19.1300 C   0  0  0  0  0  3  0  0  0  0  0  0
  -28.5530  -21.9400   20.4750 C   0  0  0  0  0  3  0  0  0  0  0  0
  -29.0260  -23.0230   19.4660 C   0  0  0  0  0  3  0  0  0  0  0  0
  -29.2640  -20.7140   21.1430 C   0  0  0  0  0  3  0  0  0  0  0  0
  -30.6420  -15.6370   19.7780 C   0  0  0  0  0  0  0  0  0  0  0  0
  -30.5620  -13.1620   18.9860 C   0  0  0  0  0  2  0  0  0  0  0  0
  -29.5920  -12.9400   17.8010 C   0  0  0  0  0  2  0  0  0  0  0  0
  -28.1630  -12.6800   18.3100 C   0  0  0  0  0  2  0  0  0  0  0  0
  -27.7660  -13.6660   19.4370 C   0  0  0  0  0  3  0  0  0  0  0  0
  -28.8640  -13.8500   20.5060 C   0  0  0  0  0  2  0  0  0  0  0  0
  -30.0650  -14.3320   19.8030 N   0  0  0  0  0  0  0  0  0  0  0  0
  -31.8460  -15.6000   19.4880 O   0  0  0  0  0  0  0  0  0  0  0  0
  -30.1810  -18.3690   19.7410 C   0  0  0  0  0  0  0  0  0  0  0  0
  -29.8880  -16.9170   19.8900 N   0  0  0  0  0  0  0  0  0  0  0  0
  -31.3380  -18.6630   19.4270 O   0  0  0  0  0  0  0  0  0  0  0  0
  -28.9180  -16.7570   20.1100 H   0  0  0  0  0  0  0  0  0  0  0  0
  -25.4710  -14.2530   20.3760 C   0  0  0  0  0  0  0  0  0  0  0  0
  -24.4110  -13.4880   20.7750 C   0  0  0  0  0  0  0  0  0  0  0  0
  -24.8300  -12.1280   20.6440 C   0  0  0  0  0  0  0  0  0  0  0  0
  -26.4650  -13.3610   20.0170 N   0  0  0  0  0  0  0  0  0  0  0  0
  -26.0980  -12.0730   20.2460 N   0  0  0  0  0  0  0  0  0  0  0  0
  -24.0740  -10.8800   20.8180 C   0  0  0  0  0  0  0  0  0  0  0  0
  -24.4980   -9.8770   21.7180 C   0  0  0  0  0  3  0  0  0  0  0  0
  -23.7410   -8.6970   21.8820 C   0  0  0  0  0  3  0  0  0  0  0  0
  -22.5450   -8.5130   21.1480 C   0  0  0  0  0  0  0  0  0  0  0  0
  -22.1400   -9.5040   20.2380 C   0  0  0  0  0  3  0  0  0  0  0  0
  -22.8970  -10.6760   20.0700 C   0  0  0  0  0  3  0  0  0  0  0  0
  -21.7600   -7.3880   21.2240 O   0  0  0  0  0  0  0  0  0  0  0  0
  -21.6720   -6.6460   22.3750 C   0  0  0  0  0  0  0  0  0  0  0  0
  -21.1930   -7.1990   23.5820 C   0  0  0  0  0  3  0  0  0  0  0  0
  -21.0540   -6.3840   24.7240 C   0  0  0  0  0  3  0  0  0  0  0  0
  -21.3850   -5.0170   24.6570 C   0  0  0  0  0  0  0  0  0  0  0  0
  -21.8560   -4.4630   23.4540 C   0  0  0  0  0  3  0  0  0  0  0  0
  -21.9980   -5.2760   22.3160 C   0  0  0  0  0  0  0  0  0  0  0  0
  -22.4320   -4.7340   21.1520 F   0  0  0  0  0  0  0  0  0  0  0  0
  -21.2440   -4.2310   25.7510 F   0  0  0  0  0  0  0  0  0  0  0  0
  -23.0510  -13.9940   21.1580 C   0  0  0  0  0  0  0  0  0  0  0  0
  -22.3600  -13.2810   22.0410 N   0  0  0  0  0  0  0  0  0  0  0  0
  -22.6150  -15.0530   20.7120 O   0  0  0  0  0  0  0  0  0  0  0  0
  -22.7290  -12.4250   22.4280 H   0  0  0  0  0  0  0  0  0  0  0  0
  -21.4490  -13.6010   22.3390 H   0  0  0  0  0  0  0  0  0  0  0  0
  -25.6640  -15.6260   20.2550 N   0  0  0  0  0  0  0  0  0  0  0  0
  -24.9120  -16.2840   20.4290 H   0  0  0  0  0  0  0  0  0  0  0  0
  -26.4860  -16.0600   19.8580 H   0  0  0  0  0  0  0  0  0  0  0  0
  -28.5850  -20.3470   22.3310 O   0  0  0  0  0  0  0  0  0  0  0  0
  -29.1420  -19.7200   22.7880 H   0  0  0  0  0  0  0  0  0  0  0  0
  -28.0650  -24.5030   19.1570 C   0  0  0  0  0  2  0  0  0  0  0  0
  -28.2490  -26.1390   19.3080 O   0  0  0  0  0  0  0  0  0  0  0  0
  -24.5210  -31.6110   22.9520 C   0  0  0  0  0  0  0  0  0  0  0  0
  -27.1840  -27.1820   19.3830 C   0  0  0  0  0  0  0  0  0  0  0  0
  -23.3290  -30.3150   21.2330 C   0  0  0  0  0  3  0  0  0  0  0  0
  -24.7920  -28.9320   19.6080 C   0  0  0  0  0  0  0  0  0  0  0  0
  -25.8730  -30.6750   21.0100 C   0  0  0  0  0  2  0  0  0  0  0  0
  -25.9840  -29.3400   20.2190 C   0  0  0  0  0  0  0  0  0  0  0  0
  -27.1720  -28.4880   20.0840 C   0  0  0  0  0  3  0  0  0  0  0  0
  -25.9520  -26.9280   18.7400 C   0  0  0  0  0  3  0  0  0  0  0  0
  -24.7990  -27.7500   18.8480 C   0  0  0  0  0  3  0  0  0  0  0  0
  -23.5320  -29.7760   19.7900 C   0  0  0  0  0  2  0  0  0  0  0  0
  -24.5970  -30.8900   21.7860 N   0  0  0  0  0  0  0  0  0  0  0  0
  -23.4420  -31.7930   23.5390 O   0  0  0  0  0  0  0  0  0  0  0  0
  -22.7270  -29.1970   22.1240 C   0  0  0  0  0  0  0  0  0  0  0  0
  -21.4020  -28.9740   22.0340 N   0  0  0  0  0  0  0  0  0  0  0  0
  -23.4570  -28.5350   22.8650 O   0  0  0  0  0  0  0  0  0  0  0  0
  -20.8630  -29.5630   21.4150 H   0  0  0  0  0  0  0  0  0  0  0  0
  -18.1040  -27.5650   22.5830 C   0  0  0  0  0  0  0  0  0  0  0  0
  -20.6610  -27.9240   22.7430 C   0  0  0  0  0  3  0  0  0  0  0  0
  -20.7900  -26.5660   22.0160 C   0  0  0  0  0  2  0  0  0  0  0  0
  -19.6480  -26.2970   21.0320 C   0  0  0  0  0  2  0  0  0  0  0  0
  -18.2990  -26.3050   21.7570 C   0  0  0  0  0  2  0  0  0  0  0  0
  -19.2100  -28.3330   23.0340 C   0  0  0  0  0  0  0  0  0  0  0  0
  -18.9680  -29.5110   23.7730 C   0  0  0  0  0  3  0  0  0  0  0  0
  -17.6530  -29.9220   24.0640 C   0  0  0  0  0  3  0  0  0  0  0  0
  -16.5630  -29.1520   23.6260 C   0  0  0  0  0  3  0  0  0  0  0  0
  -16.7890  -27.9740   22.8920 C   0  0  0  0  0  3  0  0  0  0  0  0
  -25.7850  -32.2600   23.5960 C   0  0  0  0  0  3  0  0  0  0  0  0
  -25.4260  -33.6210   24.0330 N   0  0  0  0  0  0  0  0  0  0  0  0
  -25.6730  -34.7390   23.3380 C   0  0  0  0  0  0  0  0  0  0  0  0
  -26.2900  -34.7360   22.2690 O   0  0  0  0  0  0  0  0  0  0  0  0
  -24.8690  -33.6940   24.8710 H   0  0  0  0  0  0  0  0  0  0  0  0
  -23.8370  -36.4600   23.2310 C   0  0  0  0  0  1  0  0  0  0  0  0
  -25.1590  -36.0730   23.9160 C   0  0  0  0  0  3  0  0  0  0  0  0
  -27.3000  -37.0300   24.6430 C   0  0  0  0  0  1  0  0  0  0  0  0
  -26.1260  -37.1850   23.7890 N   0  0  0  0  0  0  0  0  0  0  0  0
  -25.6860  -38.0740   24.0130 H   0  0  0  0  0  0  0  0  0  0  0  0
  -26.3510  -31.4300   24.8150 C   0  0  1  0  0  0  0  0  0  0  0  0
  -25.2870  -31.0910   25.8860 C   0  0  0  0  0  1  0  0  0  0  0  0
  -26.9730  -30.0990   24.3380 C   0  0  0  0  0  1  0  0  0  0  0  0
  -27.4890  -32.2210   25.5030 C   0  0  0  0  0  1  0  0  0  0  0  0
  1 14  1  0
  1  5  1  0
  2  4  1  0
  2  1  1  0
  2  3  1  0
  3  5  1  0
  4  3  1  0
  5 46  1  0
  6 12  1  0
  6 15  1  0
  7 12  1  0
  8  9  1  0
  8  7  1  0
  9 10  1  0
 10 21  1  0
 10 11  1  0
 12 11  1  0
 13  6  2  0
 14 15  1  0
 15 17  1  0
 16 14  2  0
 18 19  2  0
 19 38  1  0
 20 19  1  0
 20 23  1  0
 21 22  1  0
 21 18  1  0
 22 20  2  0
 23 24  1  0
 24 25  2  0
 26 29  1  0
 26 25  1  0
 27 26  2  0
 28 27  1  0
 28 23  2  0
 29 30  1  0
 30 31  1  0
 31 32  2  0
 33 32  1  0
 33 37  1  0
 34 33  2  0
 35 30  2  0
 35 34  1  0
 36 35  1  0
 38 39  1  0
 39 42  1  0
 39 41  1  0
 40 38  2  0
 43 18  1  0
 43 44  1  0
 45 43  1  0
 46 47  1  0
 48 49  1  0
 48  4  1  0
 49 51  1  0
 50 61  2  0
 50 76  1  0
 51 56  1  0
 52 60  1  0
 52 62  1  0
 53 59  1  0
 53 55  1  0
 54 60  1  0
 55 54  1  0
 56 55  2  0
 57 58  1  0
 57 51  2  0
 58 53  2  0
 59 52  1  0
 60 50  1  0
 62 64  2  0
 63 62  1  0
 63 67  1  0
 65 63  1  0
 66 75  2  0
 66 71  1  0
 67 71  1  0
 68 67  1  0
 69 70  1  0
 69 68  1  0
 70 66  1  0
 71 72  2  0
 72 73  1  0
 74 73  2  0
 75 74  1  0
 76 77  1  0
 76 86  1  0
 77 80  1  0
 78 82  1  0
 78 77  1  0
 79 78  2  0
 81 82  1  0
 84 82  1  0
 84 85  1  0
 84 83  1  0
 86 89  1  1
 86 87  1  0
 88 86  1  0
M  ISO  4   6 100  15 100  48 101  49 101
M  END
>  <TORSDO>  (78) 
F 18

>  <SCORE>  (78) 
-13.774

>  <name>  (78) 
78

>  <ligand_id>  (78) 
78

>  <original_smiles>  (78) 
[H]OC1([H])C([H])(C(=O)N([H])C(=O)N2C([H])([H])C([H])([H])C([H])([H])C([H])(n3nc(-c4c([H])c([H])c(Oc5c([H])c([H])c(F)c([H])c5F)c([H])c4[H])c(C(=O)N([H])[H])c3N([H])[H])C2([H])[H])C2([H])C([H])(C([H])([H])Oc3c([H])c([H])c4c(c3[H])C([H])([H])N(C(=O)C([H])(N([H])C(=O)C([H])(N([H])C([H])([H])[H])C([H])([H])[H])C(C([H])([H])[H])(C([H])([H])[H])C([H])([H])[H])C([H])(C(=O)N([H])C3([H])c5c([H])c([H])c([H])c([H])c5C([H])([H])C([H])([H])C3([H])[H])C4([H])[H])C12[H]

>  <smiles>  (78) 
[H]OC1([H])C([H])(C(=O)N([H])C(=O)N2C([H])([H])C([H])([H])C([H])([H])C([H])(n3nc(-c4c([H])c([H])c(Oc5c([H])c([H])c(F)c([H])c5F)c([H])c4[H])c(C(=O)N([H])[H])c3N([H])[H])C2([H])[H])C2([H])C([H])(C([H])([H])Oc3c([H])c([H])c4c(c3[H])C([H])([H])N(C(=O)C([H])(N([H])C(=O)C([H])(N([H])C([H])([H])[H])C([H])([H])[H])C(C([H])([H])[H])(C([H])([H])[H])C([H])([H])[H])C([H])(C(=O)N([H])C3([H])c5c([H])c([H])c([H])c([H])c5C([H])([H])C([H])([H])C3([H])[H])C4([H])[H])C12[H]

$$$$
79:0:0
     RDKit          3D

 90 98  0  0  1  0  0  0  0  0999 V2000
  -29.8030  -22.3230   18.6470 C   0  0  0  0  0  2  0  0  0  0  0  0
  -27.8000  -22.2560   18.4740 C   0  0  0  0  0  2  0  0  0  0  0  0
  -28.7490  -20.1380   19.8870 C   0  0  0  0  0  2  0  0  0  0  0  0
  -28.8590  -21.4030   17.8340 C   0  0  0  0  0  3  0  0  0  0  0  0
  -28.7180  -22.1240   19.7150 C   0  0  0  0  0  3  0  0  0  0  0  0
  -28.7970  -19.9570   18.3070 C   0  0  2  0  0  0  0  0  0  0  0  0
  -27.5460  -19.2180   17.7760 C   0  0  0  0  0  1  0  0  0  0  0  0
  -30.0350  -19.2720   17.6560 C   0  0  0  0  0  1  0  0  0  0  0  0
  -30.2540  -15.6900   20.2920 C   0  0  0  0  0  0  0  0  0  0  0  0
  -30.3710  -13.1530   19.4550 C   0  0  0  0  0  2  0  0  0  0  0  0
  -29.4980  -12.7350   18.2400 C   0  0  0  0  0  2  0  0  0  0  0  0
  -28.0690  -12.3820   18.6790 C   0  0  0  0  0  2  0  0  0  0  0  0
  -27.5380  -13.3850   19.7270 C   0  0  0  0  0  3  0  0  0  0  0  0
  -28.5540  -13.7040   20.8470 C   0  0  0  0  0  2  0  0  0  0  0  0
  -29.7240  -14.3310   20.1890 N   0  0  0  0  0  0  0  0  0  0  0  0
  -31.4950  -15.6090   20.2270 O   0  0  0  0  0  0  0  0  0  0  0  0
  -29.7020  -18.5910   20.3760 C   0  0  0  0  0  0  0  0  0  0  0  0
  -29.4890  -17.0520   20.2400 N   0  0  0  0  0  0  0  0  0  0  0  0
  -30.7760  -18.8910   20.9030 O   0  0  0  0  0  0  0  0  0  0  0  0
  -28.5250  -16.8710   20.0100 H   0  0  0  0  0  0  0  0  0  0  0  0
  -25.1590  -13.9090   20.4410 C   0  0  0  0  0  0  0  0  0  0  0  0
  -24.0980  -13.1240   20.7950 C   0  0  0  0  0  0  0  0  0  0  0  0
  -24.5810  -11.7800   20.7940 C   0  0  0  0  0  0  0  0  0  0  0  0
  -26.2150  -13.0440   20.2300 N   0  0  0  0  0  0  0  0  0  0  0  0
  -25.8820  -11.7560   20.5110 N   0  0  0  0  0  0  0  0  0  0  0  0
  -23.8610  -10.5130   20.9820 C   0  0  0  0  0  0  0  0  0  0  0  0
  -24.2740   -9.5620   21.9420 C   0  0  0  0  0  3  0  0  0  0  0  0
  -23.5500   -8.3640   22.1220 C   0  0  0  0  0  3  0  0  0  0  0  0
  -22.3970   -8.1070   21.3410 C   0  0  0  0  0  0  0  0  0  0  0  0
  -22.0030   -9.0460   20.3700 C   0  0  0  0  0  3  0  0  0  0  0  0
  -22.7290  -10.2360   20.1900 C   0  0  0  0  0  3  0  0  0  0  0  0
  -21.6460   -6.9610   21.4280 O   0  0  0  0  0  0  0  0  0  0  0  0
  -21.5680   -6.2360   22.5900 C   0  0  0  0  0  0  0  0  0  0  0  0
  -21.0890   -6.8060   23.7900 C   0  0  0  0  0  3  0  0  0  0  0  0
  -20.9600   -6.0080   24.9450 C   0  0  0  0  0  3  0  0  0  0  0  0
  -21.2990   -4.6430   24.9000 C   0  0  0  0  0  0  0  0  0  0  0  0
  -21.7680   -4.0730   23.7040 C   0  0  0  0  0  3  0  0  0  0  0  0
  -21.8990   -4.8670   22.5510 C   0  0  0  0  0  0  0  0  0  0  0  0
  -22.3320   -4.3080   21.3960 F   0  0  0  0  0  0  0  0  0  0  0  0
  -21.1670   -3.8750   26.0070 F   0  0  0  0  0  0  0  0  0  0  0  0
  -22.6900  -13.5910   21.0170 C   0  0  0  0  0  0  0  0  0  0  0  0
  -21.9420  -12.9040   21.8730 N   0  0  0  0  0  0  0  0  0  0  0  0
  -22.2610  -14.6040   20.4680 O   0  0  0  0  0  0  0  0  0  0  0  0
  -22.3030  -12.0860   22.3410 H   0  0  0  0  0  0  0  0  0  0  0  0
  -20.9960  -13.2020   22.0630 H   0  0  0  0  0  0  0  0  0  0  0  0
  -25.3100  -15.2790   20.2480 N   0  0  0  0  0  0  0  0  0  0  0  0
  -24.5310  -15.9250   20.3240 H   0  0  0  0  0  0  0  0  0  0  0  0
  -26.1560  -15.7170   19.9080 H   0  0  0  0  0  0  0  0  0  0  0  0
  -28.1550  -23.8170   20.4880 C   0  0  0  0  0  2  0  0  0  0  0  0
  -28.2060  -25.5640   20.1940 O   0  0  0  0  0  0  0  0  0  0  0  0
  -24.6320  -31.8570   23.1280 C   0  0  0  0  0  0  0  0  0  0  0  0
  -27.2000  -26.7520   20.2100 C   0  0  0  0  0  0  0  0  0  0  0  0
  -23.4590  -30.4330   21.5060 C   0  0  0  0  0  3  0  0  0  0  0  0
  -24.9200  -28.7720   20.1240 C   0  0  0  0  0  0  0  0  0  0  0  0
  -26.0380  -30.5890   21.3880 C   0  0  0  0  0  2  0  0  0  0  0  0
  -26.1130  -29.1460   20.7520 C   0  0  0  0  0  0  0  0  0  0  0  0
  -27.2410  -28.1660   20.7540 C   0  0  0  0  0  3  0  0  0  0  0  0
  -25.9640  -26.5840   19.5360 C   0  0  0  0  0  3  0  0  0  0  0  0
  -24.8830  -27.5180   19.4910 C   0  0  0  0  0  3  0  0  0  0  0  0
  -23.7090  -29.7170   20.1460 C   0  0  0  0  0  2  0  0  0  0  0  0
  -24.7350  -30.9930   22.0590 N   0  0  0  0  0  0  0  0  0  0  0  0
  -23.5350  -32.1570   23.6300 O   0  0  0  0  0  0  0  0  0  0  0  0
  -22.7450  -29.4630   22.4850 C   0  0  0  0  0  0  0  0  0  0  0  0
  -21.4110  -29.3170   22.3690 N   0  0  0  0  0  0  0  0  0  0  0  0
  -23.4020  -28.8410   23.3220 O   0  0  0  0  0  0  0  0  0  0  0  0
  -20.9290  -29.8700   21.6750 H   0  0  0  0  0  0  0  0  0  0  0  0
  -18.0170  -28.1380   22.9240 C   0  0  0  0  0  0  0  0  0  0  0  0
  -20.5840  -28.3880   23.1510 C   0  0  0  0  0  3  0  0  0  0  0  0
  -20.6650  -26.9540   22.5770 C   0  0  0  0  0  2  0  0  0  0  0  0
  -19.5470  -26.6410   21.5760 C   0  0  0  0  0  2  0  0  0  0  0  0
  -18.1750  -26.7920   22.2380 C   0  0  0  0  0  2  0  0  0  0  0  0
  -19.1470  -28.8950   23.3380 C   0  0  0  0  0  0  0  0  0  0  0  0
  -18.9400  -30.1530   23.9450 C   0  0  0  0  0  3  0  0  0  0  0  0
  -17.6400  -30.6560   24.1370 C   0  0  0  0  0  3  0  0  0  0  0  0
  -16.5260  -29.8980   23.7350 C   0  0  0  0  0  3  0  0  0  0  0  0
  -16.7160  -28.6410   23.1350 C   0  0  0  0  0  3  0  0  0  0  0  0
  -25.8880  -32.5220   23.7670 C   0  0  0  0  0  3  0  0  0  0  0  0
  -25.5510  -33.9210   24.1000 N   0  0  0  0  0  0  0  0  0  0  0  0
  -25.8860  -34.9920   23.3660 C   0  0  0  0  0  0  0  0  0  0  0  0
  -26.5680  -34.9060   22.3420 O   0  0  0  0  0  0  0  0  0  0  0  0
  -24.9430  -34.0610   24.8940 H   0  0  0  0  0  0  0  0  0  0  0  0
  -24.1590  -36.7950   23.0190 C   0  0  0  0  0  1  0  0  0  0  0  0
  -25.3900  -36.3760   23.8390 C   0  0  0  0  0  3  0  0  0  0  0  0
  -27.5070  -37.2610   24.7160 C   0  0  0  0  0  1  0  0  0  0  0  0
  -26.4210  -37.4330   23.7560 N   0  0  0  0  0  0  0  0  0  0  0  0
  -26.0100  -38.3510   23.9040 H   0  0  0  0  0  0  0  0  0  0  0  0
  -26.3920  -31.7720   25.0630 C   0  0  1  0  0  0  0  0  0  0  0  0
  -25.2870  -31.5460   26.1220 C   0  0  0  0  0  1  0  0  0  0  0  0
  -26.9850  -30.3900   24.7100 C   0  0  0  0  0  1  0  0  0  0  0  0
  -27.5320  -32.5800   25.7260 C   0  0  0  0  0  1  0  0  0  0  0  0
  1  5  1  0
  2  5  1  0
  3 17  1  0
  4  6  1  0
  4  2  1  0
  4  1  1  0
  5 49  1  0
  6  3  1  0
  6  7  1  6
  8  6  1  0
 10 15  1  0
 11 12  1  0
 11 10  1  0
 13 12  1  0
 13 24  1  0
 13 14  1  0
 15  9  1  0
 15 14  1  0
 16  9  2  0
 17 19  2  0
 18  9  1  0
 18 17  1  0
 20 18  1  0
 21 22  2  0
 22 41  1  0
 23 22  1  0
 23 26  1  0
 24 21  1  0
 24 25  1  0
 25 23  2  0
 26 27  1  0
 27 28  2  0
 29 32  1  0
 29 28  1  0
 30 29  2  0
 31 30  1  0
 31 26  2  0
 32 33  1  0
 33 34  1  0
 34 35  2  0
 36 35  1  0
 36 40  1  0
 37 36  2  0
 38 33  2  0
 38 37  1  0
 39 38  1  0
 41 42  1  0
 42 45  1  0
 42 44  1  0
 43 41  2  0
 46 47  1  0
 46 21  1  0
 48 46  1  0
 50 52  1  0
 50 49  1  0
 51 62  2  0
 52 57  1  0
 53 61  1  0
 53 63  1  0
 54 60  1  0
 54 56  1  0
 55 61  1  0
 56 57  2  0
 56 55  1  0
 58 52  2  0
 59 58  1  0
 59 54  2  0
 60 53  1  0
 61 51  1  0
 63 65  2  0
 64 63  1  0
 66 64  1  0
 67 76  2  0
 67 72  1  0
 68 64  1  0
 68 72  1  0
 69 68  1  0
 70 71  1  0
 70 69  1  0
 71 67  1  0
 72 73  2  0
 73 74  1  0
 75 74  2  0
 76 75  1  0
 77 51  1  0
 77 78  1  0
 77 87  1  0
 78 81  1  0
 79 83  1  0
 79 78  1  0
 80 79  2  0
 83 82  1  0
 85 83  1  0
 85 86  1  0
 85 84  1  0
 87 90  1  1
 87 88  1  0
 89 87  1  0
M  ISO  4   9 100  18 100  49 101  50 101
M  END
>  <TORSDO>  (79) 
F 17

>  <SCORE>  (79) 
-16.668

>  <name>  (79) 
79

>  <ligand_id>  (79) 
79

>  <original_smiles>  (79) 
[H]c1c([H])c([H])c2c(c1[H])C([H])([H])C([H])([H])C([H])([H])C2([H])N([H])C(=O)C1([H])N(C(=O)C([H])(N([H])C(=O)C([H])(N([H])C([H])([H])[H])C([H])([H])[H])C(C([H])([H])[H])(C([H])([H])[H])C([H])([H])[H])C([H])([H])c2c([H])c(OC([H])([H])C34C([H])([H])C([H])(C3([H])[H])C(C([H])([H])[H])(C([H])([H])[H])C4([H])C(=O)N([H])C(=O)N3C([H])([H])C([H])([H])C([H])([H])C([H])(n4nc(-c5c([H])c([H])c(Oc6c([H])c([H])c(F)c([H])c6F)c([H])c5[H])c(C(=O)N([H])[H])c4N([H])[H])C3([H])[H])c([H])c([H])c2C1([H])[H]

>  <smiles>  (79) 
[H]c1c([H])c([H])c2c(c1[H])C([H])([H])C([H])([H])C([H])([H])C2([H])N([H])C(=O)C1([H])N(C(=O)C([H])(N([H])C(=O)C([H])(N([H])C([H])([H])[H])C([H])([H])[H])C(C([H])([H])[H])(C([H])([H])[H])C([H])([H])[H])C([H])([H])c2c([H])c(OC([H])([H])C34C([H])([H])C([H])(C3([H])[H])C(C([H])([H])[H])(C([H])([H])[H])C4([H])C(=O)N([H])C(=O)N3C([H])([H])C([H])([H])C([H])([H])C([H])(n4nc(-c5c([H])c([H])c(Oc6c([H])c([H])c(F)c([H])c6F)c([H])c5[H])c(C(=O)N([H])[H])c4N([H])[H])C3([H])[H])c([H])c([H])c2C1([H])[H]

$$$$
80:0:0
     RDKit          3D

 93101  0  0  1  0  0  0  0  0999 V2000
  -31.7650  -20.1610   20.9630 C   0  0  0  0  0  2  0  0  0  0  0  0
  -31.8090  -20.6520   22.4010 C   0  0  0  0  0  2  0  0  0  0  0  0
  -30.2570  -19.9880   20.7270 C   0  0  0  0  0  3  0  0  0  0  0  0
  -30.6380  -21.6560   22.4400 C   0  0  0  0  0  3  0  0  0  0  0  0
  -29.6650  -21.2400   21.3870 N   0  0  1  0  0  4  0  0  0  0  0  0
  -28.8470  -20.9220   21.8840 H   0  0  0  0  0  0  0  0  0  0  0  0
  -29.7640  -20.5720   24.6420 C   0  0  0  0  0  1  0  0  0  0  0  0
  -30.6670  -22.9370   24.6570 C   0  0  0  0  0  1  0  0  0  0  0  0
  -29.9520  -21.8640   23.8200 C   0  0  0  0  0  3  0  0  0  0  0  0
  -29.7500  -18.5540   21.2790 C   0  0  0  0  0  3  0  0  0  0  0  0
  -30.7170  -17.2870   21.1320 C   0  0  0  0  0  3  0  0  0  0  0  0
  -30.9290  -14.7460   21.0650 C   0  0  0  0  0  0  0  0  0  0  0  0
  -30.7710  -12.4990   20.0290 C   0  0  0  0  0  2  0  0  0  0  0  0
  -29.9420  -12.6260   18.7330 C   0  0  0  0  0  2  0  0  0  0  0  0
  -28.4340  -12.4850   19.0340 C   0  0  0  0  0  2  0  0  0  0  0  0
  -27.9740  -13.3580   20.2320 C   0  0  0  0  0  3  0  0  0  0  0  0
  -28.9340  -13.2230   21.4340 C   0  0  0  0  0  2  0  0  0  0  0  0
  -30.2850  -13.5440   20.9530 N   0  0  0  0  0  0  0  0  0  0  0  0
  -32.1370  -14.8400   20.8310 O   0  0  0  0  0  0  0  0  0  0  0  0
  -30.1750  -15.8810   21.2150 N   0  0  0  0  0  0  0  0  0  0  0  0
  -29.1820  -15.7580   21.3490 H   0  0  0  0  0  0  0  0  0  0  0  0
  -25.5290  -13.9630   20.7440 C   0  0  0  0  0  0  0  0  0  0  0  0
  -24.4330  -13.1950   21.0210 C   0  0  0  0  0  0  0  0  0  0  0  0
  -24.8890  -11.8410   21.0300 C   0  0  0  0  0  0  0  0  0  0  0  0
  -26.5880  -13.0810   20.6000 N   0  0  0  0  0  0  0  0  0  0  0  0
  -26.2030  -11.7980   20.8330 N   0  0  0  0  0  0  0  0  0  0  0  0
  -24.1440  -10.5810   21.1530 C   0  0  0  0  0  0  0  0  0  0  0  0
  -24.5090   -9.5960   22.0950 C   0  0  0  0  0  3  0  0  0  0  0  0
  -23.7620   -8.4020   22.2090 C   0  0  0  0  0  3  0  0  0  0  0  0
  -22.6400   -8.1840   21.3750 C   0  0  0  0  0  0  0  0  0  0  0  0
  -22.2950   -9.1570   20.4210 C   0  0  0  0  0  3  0  0  0  0  0  0
  -23.0410  -10.3440   20.3070 C   0  0  0  0  0  3  0  0  0  0  0  0
  -21.8720   -7.0430   21.3970 O   0  0  0  0  0  0  0  0  0  0  0  0
  -21.7680   -6.2670   22.5230 C   0  0  0  0  0  0  0  0  0  0  0  0
  -21.3090   -6.7930   23.7500 C   0  0  0  0  0  3  0  0  0  0  0  0
  -21.1530   -5.9460   24.8650 C   0  0  0  0  0  3  0  0  0  0  0  0
  -21.4450   -4.5730   24.7550 C   0  0  0  0  0  0  0  0  0  0  0  0
  -21.8940   -4.0460   23.5320 C   0  0  0  0  0  3  0  0  0  0  0  0
  -22.0550   -4.8900   22.4190 C   0  0  0  0  0  0  0  0  0  0  0  0
  -22.4690   -4.3740   21.2370 F   0  0  0  0  0  0  0  0  0  0  0  0
  -21.2850   -3.7570   25.8230 F   0  0  0  0  0  0  0  0  0  0  0  0
  -23.0180  -13.6760   21.1720 C   0  0  0  0  0  0  0  0  0  0  0  0
  -22.2170  -12.9830   21.9740 N   0  0  0  0  0  0  0  0  0  0  0  0
  -22.6320  -14.7020   20.6150 O   0  0  0  0  0  0  0  0  0  0  0  0
  -22.5420  -12.1540   22.4500 H   0  0  0  0  0  0  0  0  0  0  0  0
  -21.2670  -13.2910   22.1180 H   0  0  0  0  0  0  0  0  0  0  0  0
  -25.7160  -15.3330   20.5780 N   0  0  0  0  0  0  0  0  0  0  0  0
  -24.9500  -15.9950   20.6350 H   0  0  0  0  0  0  0  0  0  0  0  0
  -26.5920  -15.7630   20.3150 H   0  0  0  0  0  0  0  0  0  0  0  0
  -29.1620  -22.3880   20.4840 C   0  0  0  0  0  2  0  0  0  0  0  0
  -29.2040  -23.9360   20.9710 C   0  0  0  0  0  3  0  0  0  0  0  0
  -28.2510  -25.0030   20.2570 C   0  0  0  0  0  3  0  0  0  0  0  0
  -28.4190  -26.4690   20.4950 O   0  0  0  0  0  0  0  0  0  0  0  0
  -24.6350  -31.9520   23.2870 C   0  0  0  0  0  0  0  0  0  0  0  0
  -27.3120  -27.3320   20.3650 C   0  0  0  0  0  0  0  0  0  0  0  0
  -23.4660  -30.5140   21.6550 C   0  0  0  0  0  3  0  0  0  0  0  0
  -24.9470  -28.9530   20.2770 C   0  0  0  0  0  0  0  0  0  0  0  0
  -26.0070  -30.8430   21.5080 C   0  0  0  0  0  2  0  0  0  0  0  0
  -26.1030  -29.4490   20.8930 C   0  0  0  0  0  0  0  0  0  0  0  0
  -27.2850  -28.6480   20.9360 C   0  0  0  0  0  3  0  0  0  0  0  0
  -26.1410  -26.9160   19.6900 C   0  0  0  0  0  3  0  0  0  0  0  0
  -24.9680  -27.6920   19.6670 C   0  0  0  0  0  3  0  0  0  0  0  0
  -23.7070  -29.8220   20.2890 C   0  0  0  0  0  2  0  0  0  0  0  0
  -24.7210  -31.1210   22.2070 N   0  0  0  0  0  0  0  0  0  0  0  0
  -23.5400  -32.2350   23.7950 O   0  0  0  0  0  0  0  0  0  0  0  0
  -22.7930  -29.5120   22.6230 C   0  0  0  0  0  0  0  0  0  0  0  0
  -21.4780  -29.2960   22.4520 N   0  0  0  0  0  0  0  0  0  0  0  0
  -23.4550  -28.9320   23.4870 O   0  0  0  0  0  0  0  0  0  0  0  0
  -21.0050  -29.8150   21.7260 H   0  0  0  0  0  0  0  0  0  0  0  0
  -18.1240  -27.9940   22.8300 C   0  0  0  0  0  0  0  0  0  0  0  0
  -20.6530  -28.3650   23.2250 C   0  0  0  0  0  3  0  0  0  0  0  0
  -20.8400  -26.9130   22.7270 C   0  0  0  0  0  2  0  0  0  0  0  0
  -19.8070  -26.5000   21.6740 C   0  0  0  0  0  2  0  0  0  0  0  0
  -18.3870  -26.6210   22.2330 C   0  0  0  0  0  2  0  0  0  0  0  0
  -19.1900  -28.8180   23.2830 C   0  0  0  0  0  0  0  0  0  0  0  0
  -18.8910  -30.0980   23.7990 C   0  0  0  0  0  3  0  0  0  0  0  0
  -17.5620  -30.5540   23.8730 C   0  0  0  0  0  3  0  0  0  0  0  0
  -16.5100  -29.7270   23.4390 C   0  0  0  0  0  3  0  0  0  0  0  0
  -16.7930  -28.4500   22.9220 C   0  0  0  0  0  3  0  0  0  0  0  0
  -25.9030  -32.6020   23.9200 C   0  0  0  0  0  3  0  0  0  0  0  0
  -25.5820  -34.0030   24.2270 N   0  0  0  0  0  0  0  0  0  0  0  0
  -25.9130  -35.0470   23.4540 C   0  0  0  0  0  0  0  0  0  0  0  0
  -26.5940  -34.9310   22.4310 O   0  0  0  0  0  0  0  0  0  0  0  0
  -24.9880  -34.1680   25.0260 H   0  0  0  0  0  0  0  0  0  0  0  0
  -24.1660  -36.8130   23.0590 C   0  0  0  0  0  1  0  0  0  0  0  0
  -25.4060  -36.4370   23.8840 C   0  0  0  0  0  3  0  0  0  0  0  0
  -27.5290  -37.3560   24.7080 C   0  0  0  0  0  1  0  0  0  0  0  0
  -26.4290  -37.4970   23.7580 N   0  0  0  0  0  0  0  0  0  0  0  0
  -26.0130  -38.4160   23.8900 H   0  0  0  0  0  0  0  0  0  0  0  0
  -26.4010  -31.8510   25.2150 C   0  0  1  0  0  0  0  0  0  0  0  0
  -25.2880  -31.6210   26.2650 C   0  0  0  0  0  1  0  0  0  0  0  0
  -26.9970  -30.4700   24.8520 C   0  0  0  0  0  1  0  0  0  0  0  0
  -27.5330  -32.6600   25.8900 C   0  0  0  0  0  1  0  0  0  0  0  0
  1  2  1  0
  2  4  1  0
  3  1  1  0
  3 10  1  0
  3  5  1  0
  4  9  1  0
  5  6  1  1
  5  4  1  0
  9  7  1  0
  9  8  1  0
 11 20  1  0
 11 10  2  0
 12 20  1  0
 13 18  1  0
 14 15  1  0
 14 13  1  0
 16 15  1  0
 16 25  1  0
 16 17  1  0
 18 12  1  0
 18 17  1  0
 19 12  2  0
 20 21  1  0
 22 23  2  0
 23 24  1  0
 23 42  1  0
 24 27  1  0
 25 22  1  0
 25 26  1  0
 26 24  2  0
 27 28  1  0
 28 29  2  0
 30 33  1  0
 30 29  1  0
 31 30  2  0
 32 31  1  0
 32 27  2  0
 33 34  1  0
 34 35  1  0
 35 36  2  0
 37 36  1  0
 37 41  1  0
 38 37  2  0
 39 34  2  0
 39 38  1  0
 40 39  1  0
 42 43  1  0
 43 46  1  0
 43 45  1  0
 44 42  2  0
 47 48  1  0
 47 22  1  0
 49 47  1  0
 50 51  1  0
 50  5  1  0
 52 53  1  0
 52 51  2  0
 54 65  2  0
 55 53  1  0
 55 60  1  0
 56 64  1  0
 56 66  1  0
 57 63  1  0
 57 59  1  0
 58 64  1  0
 59 60  2  0
 59 58  1  0
 61 55  2  0
 62 61  1  0
 62 57  2  0
 63 56  1  0
 64 54  1  0
 66 68  2  0
 67 66  1  0
 69 67  1  0
 70 79  2  0
 70 75  1  0
 71 67  1  0
 71 75  1  0
 72 71  1  0
 73 74  1  0
 73 72  1  0
 74 70  1  0
 75 76  2  0
 76 77  1  0
 78 77  2  0
 79 78  1  0
 80 54  1  0
 80 81  1  0
 80 90  1  0
 81 84  1  0
 82 86  1  0
 82 81  1  0
 83 82  2  0
 86 85  1  0
 88 86  1  0
 88 89  1  0
 88 87  1  0
 90 93  1  1
 90 91  1  0
 92 90  1  0
M  ISO  4  12 100  20 100  52 101  53 101
M  END
>  <TORSDO>  (80) 
F 22

>  <SCORE>  (80) 
-12.014

>  <name>  (80) 
80

>  <ligand_id>  (80) 
80

>  <original_smiles>  (80) 
[H]c1c([H])c([H])c2c(c1[H])C([H])([H])C([H])([H])C([H])([H])C2([H])N([H])C(=O)C1([H])N(C(=O)C([H])(N([H])C(=O)C([H])(N([H])C([H])([H])[H])C([H])([H])[H])C(C([H])([H])[H])(C([H])([H])[H])C([H])([H])[H])C([H])([H])c2c([H])c(OC([H])([H])C([H])([H])C([H])([H])[N+]3([H])C([H])(C([H])([H])C([H])([H])N([H])C(=O)N4C([H])([H])C([H])([H])C([H])([H])C([H])(n5nc(-c6c([H])c([H])c(Oc7c([H])c([H])c(F)c([H])c7F)c([H])c6[H])c(C(=O)N([H])[H])c5N([H])[H])C4([H])[H])C([H])([H])C([H])([H])C3([H])C([H])(C([H])([H])[H])C([H])([H])[H])c([H])c([H])c2C1([H])[H]

>  <smiles>  (80) 
[H]c1c([H])c([H])c2c(c1[H])C([H])([H])C([H])([H])C([H])([H])C2([H])N([H])C(=O)C1([H])N(C(=O)C([H])(N([H])C(=O)C([H])(N([H])C([H])([H])[H])C([H])([H])[H])C(C([H])([H])[H])(C([H])([H])[H])C([H])([H])[H])C([H])([H])c2c([H])c(OC([H])([H])C([H])([H])C([H])([H])[N+]3([H])C([H])(C([H])([H])C([H])([H])N([H])C(=O)N4C([H])([H])C([H])([H])C([H])([H])C([H])(n5nc(-c6c([H])c([H])c(Oc7c([H])c([H])c(F)c([H])c7F)c([H])c6[H])c(C(=O)N([H])[H])c5N([H])[H])C4([H])[H])C([H])([H])C([H])([H])C3([H])C([H])(C([H])([H])[H])C([H])([H])[H])c([H])c([H])c2C1([H])[H]

$$$$
81:0:0
     RDKit          3D

 89 98  0  0  1  0  0  0  0  0999 V2000
  -27.8060  -19.1370   19.4910 C   0  0  0  0  0  3  0  0  0  0  0  0
  -27.7460  -20.4240   20.3360 C   0  0  0  0  0  3  0  0  0  0  0  0
  -29.2540  -18.8680   19.1380 C   0  0  0  0  0  3  0  0  0  0  0  0
  -30.1130  -19.8200   19.9570 C   0  0  0  0  0  3  0  0  0  0  0  0
  -29.1830  -20.8660   20.6930 C   0  0  0  0  0  3  0  0  0  0  0  0
  -30.2990  -18.2410   20.0270 C   0  0  0  0  0  3  0  0  0  0  0  0
  -29.4340  -22.4220   20.3010 C   0  0  0  0  0  2  0  0  0  0  0  0
  -28.6360  -23.6840   20.9260 C   0  0  0  0  0  2  0  0  0  0  0  0
  -28.1960  -24.8990   19.9570 C   0  0  0  0  0  2  0  0  0  0  0  0
  -28.2960  -26.3580   20.3320 O   0  0  0  0  0  0  0  0  0  0  0  0
  -24.6240  -31.8680   23.2420 C   0  0  0  0  0  0  0  0  0  0  0  0
  -27.2030  -27.2480   20.2090 C   0  0  0  0  0  0  0  0  0  0  0  0
  -23.4190  -30.4770   21.5990 C   0  0  0  0  0  3  0  0  0  0  0  0
  -24.8670  -28.9270   20.1640 C   0  0  0  0  0  0  0  0  0  0  0  0
  -25.9650  -30.7630   21.4380 C   0  0  0  0  0  2  0  0  0  0  0  0
  -26.0330  -29.3830   20.7860 C   0  0  0  0  0  0  0  0  0  0  0  0
  -27.1990  -28.5540   20.8080 C   0  0  0  0  0  3  0  0  0  0  0  0
  -26.0270  -26.8820   19.5100 C   0  0  0  0  0  3  0  0  0  0  0  0
  -24.8710  -27.6850   19.5100 C   0  0  0  0  0  3  0  0  0  0  0  0
  -23.6380  -29.8150   20.2100 C   0  0  0  0  0  2  0  0  0  0  0  0
  -24.6860  -31.0570   22.1470 N   0  0  0  0  0  0  0  0  0  0  0  0
  -23.5400  -32.1530   23.7700 O   0  0  0  0  0  0  0  0  0  0  0  0
  -22.7530  -29.4590   22.5550 C   0  0  0  0  0  0  0  0  0  0  0  0
  -21.4280  -29.2890   22.4330 N   0  0  0  0  0  0  0  0  0  0  0  0
  -23.4320  -28.8270   23.3720 O   0  0  0  0  0  0  0  0  0  0  0  0
  -20.9400  -29.8610   21.7580 H   0  0  0  0  0  0  0  0  0  0  0  0
  -18.0470  -28.1020   22.9420 C   0  0  0  0  0  0  0  0  0  0  0  0
  -20.6050  -28.3510   23.2010 C   0  0  0  0  0  3  0  0  0  0  0  0
  -20.6950  -26.9210   22.6210 C   0  0  0  0  0  2  0  0  0  0  0  0
  -19.5870  -26.6050   21.6100 C   0  0  0  0  0  2  0  0  0  0  0  0
  -18.2100  -26.7550   22.2610 C   0  0  0  0  0  2  0  0  0  0  0  0
  -19.1700  -28.8610   23.3690 C   0  0  0  0  0  0  0  0  0  0  0  0
  -18.9590  -30.1220   23.9640 C   0  0  0  0  0  3  0  0  0  0  0  0
  -17.6570  -30.6270   24.1360 C   0  0  0  0  0  3  0  0  0  0  0  0
  -16.5490  -29.8680   23.7180 C   0  0  0  0  0  3  0  0  0  0  0  0
  -16.7450  -28.6080   23.1310 C   0  0  0  0  0  3  0  0  0  0  0  0
  -25.9070  -32.5010   23.8660 C   0  0  0  0  0  3  0  0  0  0  0  0
  -26.4210  -31.7320   25.1430 C   0  0  1  0  0  0  0  0  0  0  0  0
  -25.3290  -31.4970   26.2140 C   0  0  0  0  0  1  0  0  0  0  0  0
  -27.0060  -30.3520   24.7610 C   0  0  0  0  0  1  0  0  0  0  0  0
  -27.5650  -32.5310   25.8090 C   0  0  0  0  0  1  0  0  0  0  0  0
  -25.5930  -33.8970   24.1960 N   0  0  0  0  0  0  0  0  0  0  0  0
  -25.9120  -34.9540   23.4390 C   0  0  0  0  0  0  0  0  0  0  0  0
  -26.5710  -34.8590   22.4000 O   0  0  0  0  0  0  0  0  0  0  0  0
  -25.0090  -34.0480   25.0060 H   0  0  0  0  0  0  0  0  0  0  0  0
  -24.1710  -36.7460   23.1030 C   0  0  0  0  0  1  0  0  0  0  0  0
  -25.4210  -36.3400   23.9020 C   0  0  0  0  0  3  0  0  0  0  0  0
  -27.5600  -37.2370   24.7160 C   0  0  0  0  0  1  0  0  0  0  0  0
  -26.4480  -37.4000   23.7830 N   0  0  0  0  0  0  0  0  0  0  0  0
  -26.0380  -38.3180   23.9310 H   0  0  0  0  0  0  0  0  0  0  0  0
  -30.0390  -17.1710   21.1480 C   0  0  0  0  0  2  0  0  0  0  0  0
  -30.6110  -14.6490   20.4880 C   0  0  0  0  0  0  0  0  0  0  0  0
  -30.3990  -12.4390   19.3500 C   0  0  0  0  0  2  0  0  0  0  0  0
  -29.4400  -12.6150   18.1530 C   0  0  0  0  0  2  0  0  0  0  0  0
  -27.9780  -12.4240   18.5870 C   0  0  0  0  0  2  0  0  0  0  0  0
  -27.6220  -13.2700   19.8310 C   0  0  0  0  0  3  0  0  0  0  0  0
  -28.6790  -13.0870   20.9430 C   0  0  0  0  0  2  0  0  0  0  0  0
  -29.9900  -13.4280   20.3730 N   0  0  0  0  0  0  0  0  0  0  0  0
  -31.7870  -14.8000   20.1660 O   0  0  0  0  0  0  0  0  0  0  0  0
  -29.7940  -15.7110   20.8080 N   0  0  0  0  0  0  0  0  0  0  0  0
  -28.8380  -15.4210   20.9410 H   0  0  0  0  0  0  0  0  0  0  0  0
  -25.2120  -13.8820   20.4790 C   0  0  0  0  0  0  0  0  0  0  0  0
  -24.1390  -13.1190   20.8490 C   0  0  0  0  0  0  0  0  0  0  0  0
  -24.5970  -11.7660   20.8450 C   0  0  0  0  0  0  0  0  0  0  0  0
  -26.2630  -12.9960   20.2920 N   0  0  0  0  0  0  0  0  0  0  0  0
  -25.8880  -11.7170   20.5520 N   0  0  0  0  0  0  0  0  0  0  0  0
  -23.8690  -10.5080   21.0300 C   0  0  0  0  0  0  0  0  0  0  0  0
  -24.2840   -9.5360   21.9680 C   0  0  0  0  0  3  0  0  0  0  0  0
  -23.5490   -8.3440   22.1320 C   0  0  0  0  0  3  0  0  0  0  0  0
  -22.3840   -8.1140   21.3620 C   0  0  0  0  0  0  0  0  0  0  0  0
  -21.9900   -9.0730   20.4140 C   0  0  0  0  0  3  0  0  0  0  0  0
  -22.7290  -10.2540   20.2420 C   0  0  0  0  0  3  0  0  0  0  0  0
  -21.6090   -6.9820   21.4540 O   0  0  0  0  0  0  0  0  0  0  0  0
  -21.5480   -6.2390   22.6080 C   0  0  0  0  0  0  0  0  0  0  0  0
  -21.1220   -6.7990   23.8320 C   0  0  0  0  0  3  0  0  0  0  0  0
  -21.0010   -5.9830   24.9760 C   0  0  0  0  0  3  0  0  0  0  0  0
  -21.3040   -4.6090   24.8960 C   0  0  0  0  0  0  0  0  0  0  0  0
  -21.7340   -4.0520   23.6770 C   0  0  0  0  0  3  0  0  0  0  0  0
  -21.8530   -4.8670   22.5380 C   0  0  0  0  0  0  0  0  0  0  0  0
  -22.2410   -4.3200   21.3620 F   0  0  0  0  0  0  0  0  0  0  0  0
  -21.1830   -3.8230   25.9900 F   0  0  0  0  0  0  0  0  0  0  0  0
  -22.7350  -13.6020   21.1000 C   0  0  0  0  0  0  0  0  0  0  0  0
  -21.9860  -12.8990   21.9450 N   0  0  0  0  0  0  0  0  0  0  0  0
  -22.3130  -14.6330   20.5790 O   0  0  0  0  0  0  0  0  0  0  0  0
  -22.3170  -12.0360   22.3570 H   0  0  0  0  0  0  0  0  0  0  0  0
  -21.0540  -13.2100   22.1780 H   0  0  0  0  0  0  0  0  0  0  0  0
  -25.3970  -15.2440   20.2440 N   0  0  0  0  0  0  0  0  0  0  0  0
  -24.6070  -15.8750   20.2110 H   0  0  0  0  0  0  0  0  0  0  0  0
  -26.1820  -15.5870   19.7090 H   0  0  0  0  0  0  0  0  0  0  0  0
  1  2  2  0
  2  5  1  0
  3  1  1  0
  3  4  1  0
  3  6  1  0
  4  6  1  0
  4  5  1  0
  6 51  1  0
  7  5  1  0
  7  8  1  0
  9 10  1  0
  9  8  1  0
 11 22  2  0
 11 37  1  0
 12 10  1  0
 12 17  1  0
 13 21  1  0
 13 23  1  0
 14 20  1  0
 14 16  1  0
 15 21  1  0
 16 17  2  0
 16 15  1  0
 18 19  1  0
 18 12  2  0
 19 14  2  0
 20 13  1  0
 21 11  1  0
 23 25  2  0
 24 23  1  0
 24 28  1  0
 26 24  1  0
 27 36  2  0
 27 32  1  0
 28 32  1  0
 29 28  1  0
 30 31  1  0
 30 29  1  0
 31 27  1  0
 32 33  2  0
 33 34  1  0
 35 34  2  0
 36 35  1  0
 37 42  1  0
 37 38  1  0
 38 41  1  1
 38 39  1  0
 40 38  1  0
 42 45  1  0
 43 47  1  0
 43 42  1  0
 44 43  2  0
 46 47  1  0
 49 47  1  0
 49 50  1  0
 49 48  1  0
 52 60  1  0
 53 58  1  0
 54 55  1  0
 54 53  1  0
 55 56  1  0
 56 65  1  0
 56 57  1  0
 58 52  1  0
 58 57  1  0
 59 52  2  0
 60 61  1  0
 60 51  1  0
 62 63  2  0
 63 82  1  0
 64 63  1  0
 64 67  1  0
 65 62  1  0
 65 66  1  0
 66 64  2  0
 67 68  1  0
 68 69  2  0
 70 73  1  0
 70 69  1  0
 71 70  2  0
 72 71  1  0
 72 67  2  0
 73 74  1  0
 74 75  1  0
 75 76  2  0
 77 76  1  0
 77 81  1  0
 78 77  2  0
 79 74  2  0
 79 78  1  0
 80 79  1  0
 82 83  1  0
 83 86  1  0
 83 85  1  0
 84 82  2  0
 87 62  1  0
 88 87  1  0
 89 87  1  0
M  ISO  4   9 101  10 101  52 100  60 100
M  END
>  <TORSDO>  (81) 
F 20

>  <SCORE>  (81) 
-13.707

>  <name>  (81) 
81

>  <ligand_id>  (81) 
81

>  <original_smiles>  (81) 
[H]c1c([H])c([H])c2c(c1[H])C([H])([H])C([H])([H])C([H])([H])C2([H])N([H])C(=O)C1([H])N(C(=O)C([H])(N([H])C(=O)C([H])(N([H])C([H])([H])[H])C([H])([H])[H])C(C([H])([H])[H])(C([H])([H])[H])C([H])([H])[H])C([H])([H])c2c([H])c(OC([H])([H])C([H])([H])C([H])([H])C3([H])C([H])([H])C([H])([H])C4([H])C([H])(C([H])([H])N([H])C(=O)N5C([H])([H])C([H])([H])C([H])([H])C([H])(n6nc(-c7c([H])c([H])c(Oc8c([H])c([H])c(F)c([H])c8F)c([H])c7[H])c(C(=O)N([H])[H])c6N([H])[H])C5([H])[H])C34[H])c([H])c([H])c2C1([H])[H]

>  <smiles>  (81) 
[H]c1c([H])c([H])c2c(c1[H])C([H])([H])C([H])([H])C([H])([H])C2([H])N([H])C(=O)C1([H])N(C(=O)C([H])(N([H])C(=O)C([H])(N([H])C([H])([H])[H])C([H])([H])[H])C(C([H])([H])[H])(C([H])([H])[H])C([H])([H])[H])C([H])([H])c2c([H])c(OC([H])([H])C([H])([H])C([H])([H])C3([H])C([H])([H])C([H])([H])C4([H])C([H])(C([H])([H])N([H])C(=O)N5C([H])([H])C([H])([H])C([H])([H])C([H])(n6nc(-c7c([H])c([H])c(Oc8c([H])c([H])c(F)c([H])c8F)c([H])c7[H])c(C(=O)N([H])[H])c6N([H])[H])C5([H])[H])C34[H])c([H])c([H])c2C1([H])[H]

$$$$
82:0:0
     RDKit          3D

 90 96  0  0  1  0  0  0  0  0999 V2000
  -29.9010  -19.7270   20.3470 C   0  0  0  0  0  2  0  0  0  0  0  0
  -28.6880  -18.6840   18.6900 C   0  0  0  0  0  3  0  0  0  0  0  0
  -28.5070  -20.3500   18.6940 C   0  0  0  0  0  3  0  0  0  0  0  0
  -29.5850  -17.9040   19.7830 C   0  0  0  0  0  3  0  0  0  0  0  0
  -29.2850  -21.4120   19.6560 C   0  0  0  0  0  3  0  0  0  0  0  0
  -29.1590  -19.5310   17.5390 C   0  0  2  0  0  0  0  0  0  0  0  0
  -30.5220  -21.9890   18.9410 C   0  0  0  0  0  1  0  0  0  0  0  0
  -28.3700  -19.4840   16.2390 C   0  0  0  0  0  1  0  0  0  0  0  0
  -30.6390  -19.4320   17.1850 C   0  0  0  0  0  1  0  0  0  0  0  0
  -30.4220  -16.0890   19.4920 C   0  0  0  0  0  2  0  0  0  0  0  0
  -30.6320  -13.4320   18.7340 C   0  0  0  0  0  2  0  0  0  0  0  0
  -29.6530  -12.8550   17.6540 C   0  0  0  0  0  2  0  0  0  0  0  0
  -28.3270  -12.3990   18.2790 C   0  0  0  0  0  2  0  0  0  0  0  0
  -27.8710  -13.4100   19.3490 C   0  0  0  0  0  3  0  0  0  0  0  0
  -28.9920  -13.8750   20.3160 C   0  0  0  0  0  2  0  0  0  0  0  0
  -30.0220  -14.6290   19.5330 N   0  0  0  0  0  0  0  0  0  0  0  0
  -31.6210  -15.9960   19.1310 O   0  0  0  0  0  1  0  0  0  0  0  0
  -25.6670  -13.8610   20.5090 C   0  0  0  0  0  0  0  0  0  0  0  0
  -24.6550  -13.0590   20.9480 C   0  0  0  0  0  0  0  0  0  0  0  0
  -25.0860  -11.7160   20.7230 C   0  0  0  0  0  0  0  0  0  0  0  0
  -26.6480  -13.0140   20.0340 N   0  0  0  0  0  0  0  0  0  0  0  0
  -26.3210  -11.7060   20.2220 N   0  0  0  0  0  0  0  0  0  0  0  0
  -24.3590  -10.4500   20.9030 C   0  0  0  0  0  0  0  0  0  0  0  0
  -24.8160   -9.4530   21.7930 C   0  0  0  0  0  3  0  0  0  0  0  0
  -24.0820   -8.2590   21.9690 C   0  0  0  0  0  3  0  0  0  0  0  0
  -22.8770   -8.0540   21.2550 C   0  0  0  0  0  0  0  0  0  0  0  0
  -22.4380   -9.0410   20.3550 C   0  0  0  0  0  3  0  0  0  0  0  0
  -23.1720  -10.2250   20.1770 C   0  0  0  0  0  3  0  0  0  0  0  0
  -22.1100   -6.9170   21.3420 O   0  0  0  0  0  0  0  0  0  0  0  0
  -21.9670   -6.2340   22.5240 C   0  0  0  0  0  0  0  0  0  0  0  0
  -21.4280   -6.8460   23.6770 C   0  0  0  0  0  3  0  0  0  0  0  0
  -21.2320   -6.0880   24.8490 C   0  0  0  0  0  3  0  0  0  0  0  0
  -21.5640   -4.7200   24.8690 C   0  0  0  0  0  0  0  0  0  0  0  0
  -22.0940   -4.1090   23.7190 C   0  0  0  0  0  3  0  0  0  0  0  0
  -22.2930   -4.8630   22.5490 C   0  0  0  0  0  0  0  0  0  0  0  0
  -22.7850   -4.2630   21.4390 F   0  0  0  0  0  0  0  0  0  0  0  0
  -21.3700   -3.9910   25.9920 F   0  0  0  0  0  0  0  0  0  0  0  0
  -23.3250  -13.5260   21.4620 C   0  0  0  0  0  0  0  0  0  0  0  0
  -22.7250  -12.7770   22.3780 N   0  0  0  0  0  0  0  0  0  0  0  0
  -22.8390  -14.5930   21.0900 O   0  0  0  0  0  0  0  0  0  0  0  0
  -23.1420  -11.9180   22.7050 H   0  0  0  0  0  0  0  0  0  0  0  0
  -21.8360  -13.0680   22.7620 H   0  0  0  0  0  0  0  0  0  0  0  0
  -25.8240  -15.2410   20.4540 N   0  0  0  0  0  0  0  0  0  0  0  0
  -25.1130  -15.8390   20.8590 H   0  0  0  0  0  0  0  0  0  0  0  0
  -26.7270  -15.7030   20.4160 H   0  0  0  0  0  0  0  0  0  0  0  0
  -28.6540  -17.4370   20.9170 C   0  0  0  0  0  0  0  0  0  0  0  0
  -29.2900  -17.1250   22.2670 C   0  0  0  0  0  1  0  0  0  0  0  0
  -27.4370  -17.3090   20.7660 O   0  0  0  0  0  0  0  0  0  0  0  0
  -28.4280  -23.2990   20.0840 C   0  0  0  0  0 15  0  0  0  0  0  0
  -28.5060  -25.1970   20.0950 O   0  0  0  0  0  1  0  0  0  0  0  0
  -24.9460  -31.7570   23.0830 C   0  0  0  0  0  0  0  0  0  0  0  0
  -27.5390  -26.5120   20.0930 C   0  0  0  0  0  0  0  0  0  0  0  0
  -23.7980  -30.3580   21.4240 C   0  0  0  0  0  3  0  0  0  0  0  0
  -25.2760  -28.6870   20.0260 C   0  0  0  0  0  0  0  0  0  0  0  0
  -26.3880  -30.4520   21.3580 C   0  0  0  0  0  2  0  0  0  0  0  0
  -26.4700  -28.9990   20.6880 C   0  0  0  0  0  0  0  0  0  0  0  0
  -27.5730  -27.9510   20.6760 C   0  0  0  0  0  3  0  0  0  0  0  0
  -26.3040  -26.4770   19.3760 C   0  0  0  0  0  3  0  0  0  0  0  0
  -25.2480  -27.4560   19.3450 C   0  0  0  0  0  3  0  0  0  0  0  0
  -24.0720  -29.6580   20.0580 C   0  0  0  0  0  2  0  0  0  0  0  0
  -25.0700  -30.8940   22.0080 N   0  0  0  0  0  0  0  0  0  0  0  0
  -23.8400  -32.0530   23.5710 O   0  0  0  0  0  0  0  0  0  0  0  0
  -23.0560  -29.3860   22.3840 C   0  0  0  0  0  0  0  0  0  0  0  0
  -21.7250  -29.2280   22.2390 N   0  0  0  0  0  0  0  0  0  0  0  0
  -23.6950  -28.7700   23.2390 O   0  0  0  0  0  0  0  0  0  0  0  0
  -21.2540  -29.7760   21.5330 H   0  0  0  0  0  0  0  0  0  0  0  0
  -18.3380  -27.9810   22.7130 C   0  0  0  0  0  0  0  0  0  0  0  0
  -20.8950  -28.2770   22.9930 C   0  0  0  0  0  3  0  0  0  0  0  0
  -21.0130  -26.8510   22.4050 C   0  0  0  0  0  2  0  0  0  0  0  0
  -19.9220  -26.5300   21.3780 C   0  0  0  0  0  2  0  0  0  0  0  0
  -18.5340  -26.6480   22.0120 C   0  0  0  0  0  2  0  0  0  0  0  0
  -19.4450  -28.7540   23.1580 C   0  0  0  0  0  0  0  0  0  0  0  0
  -19.2030  -29.9980   23.7800 C   0  0  0  0  0  3  0  0  0  0  0  0
  -17.8890  -30.4730   23.9570 C   0  0  0  0  0  3  0  0  0  0  0  0
  -16.7980  -29.6990   23.5230 C   0  0  0  0  0  3  0  0  0  0  0  0
  -17.0240  -28.4550   22.9090 C   0  0  0  0  0  3  0  0  0  0  0  0
  -26.1850  -32.4230   23.7550 C   0  0  0  0  0  3  0  0  0  0  0  0
  -25.8340  -33.8130   24.1190 N   0  0  0  0  0  0  0  0  0  0  0  0
  -26.1330  -34.9040   23.4010 C   0  0  0  0  0  0  0  0  0  0  0  0
  -26.7870  -34.8500   22.3570 O   0  0  0  0  0  0  0  0  0  0  0  0
  -25.2470  -33.9280   24.9330 H   0  0  0  0  0  0  0  0  0  0  0  0
  -24.3530  -36.6780   23.1700 C   0  0  0  0  0  1  0  0  0  0  0  0
  -25.6340  -36.2730   23.9180 C   0  0  0  0  0  3  0  0  0  0  0  0
  -27.7730  -37.2000   24.6970 C   0  0  0  0  0  1  0  0  0  0  0  0
  -26.6360  -37.3550   23.7930 N   0  0  0  0  0  0  0  0  0  0  0  0
  -26.2120  -38.2610   23.9720 H   0  0  0  0  0  0  0  0  0  0  0  0
  -26.6760  -31.6530   25.0450 C   0  0  1  0  0  0  0  0  0  0  0  0
  -25.5570  -31.3950   26.0820 C   0  0  0  0  0  1  0  0  0  0  0  0
  -27.2900  -30.2840   24.6790 C   0  0  0  0  0  1  0  0  0  0  0  0
  -27.7980  -32.4600   25.7420 C   0  0  0  0  0  1  0  0  0  0  0  0
  2  6  1  0
  2  3  1  0
  2  4  1  0
  3  6  1  0
  3  5  1  0
  4  1  1  0
  4 46  1  0
  5  7  1  0
  5  1  1  0
  6  8  1  6
  9  6  1  0
 10 16  1  0
 11 16  1  0
 12 13  1  0
 12 11  1  0
 14 13  1  0
 14 21  1  0
 14 15  1  0
 16 15  1  0
 17 10  1  0
 18 19  2  0
 19 38  1  0
 20 23  1  0
 20 19  1  0
 21 22  1  0
 21 18  1  0
 22 20  2  0
 23 24  1  0
 24 25  2  0
 26 29  1  0
 26 25  1  0
 27 26  2  0
 28 27  1  0
 28 23  2  0
 29 30  1  0
 30 35  2  0
 30 31  1  0
 31 32  2  0
 32 33  1  0
 33 37  1  0
 34 33  2  0
 35 34  1  0
 36 35  1  0
 38 39  1  0
 39 41  1  0
 39 42  1  0
 40 38  2  0
 43 18  1  0
 43 44  1  0
 45 43  1  0
 46 47  1  0
 48 46  2  0
 51 62  2  0
 52 50  1  0
 52 57  1  0
 53 61  1  0
 53 63  1  0
 54 60  1  0
 54 56  1  0
 55 61  1  0
 56 55  1  0
 57 56  2  0
 58 52  2  0
 59 58  1  0
 59 54  2  0
 60 53  1  0
 61 51  1  0
 63 65  2  0
 64 63  1  0
 66 64  1  0
 67 76  2  0
 67 72  1  0
 68 64  1  0
 68 72  1  0
 69 68  1  0
 70 71  1  0
 70 69  1  0
 71 67  1  0
 72 73  2  0
 73 74  1  0
 75 74  2  0
 76 75  1  0
 77 51  1  0
 77 78  1  0
 77 87  1  0
 78 81  1  0
 79 83  1  0
 79 78  1  0
 80 79  2  0
 83 82  1  0
 85 83  1  0
 85 86  1  0
 85 84  1  0
 87 90  1  1
 87 88  1  0
 89 87  1  0
M  ISO  4   4 100  10 100  49 101  50 101
M  END
>  <TORSDO>  (82) 
F 18

>  <SCORE>  (82) 
-13.326

>  <name>  (82) 
82

>  <ligand_id>  (82) 
82

>  <original_smiles>  (82) 
[H]c1c([H])c([H])c2c(c1[H])C([H])([H])C([H])([H])C([H])([H])C2([H])N([H])C(=O)C1([H])N(C(=O)C([H])(N([H])C(=O)C([H])(N([H])C([H])([H])[H])C([H])([H])[H])C(C([H])([H])[H])(C([H])([H])[H])C([H])([H])[H])C([H])([H])c2c([H])c(OC([H])([H])C3(C([H])([H])[H])C([H])([H])C(C(=O)N4C([H])([H])C([H])([H])C([H])([H])C([H])(n5nc(-c6c([H])c([H])c(Oc7c([H])c([H])c(F)c([H])c7F)c([H])c6[H])c(C(=O)N([H])[H])c5N([H])[H])C4([H])[H])(C(=O)C([H])([H])[H])C4([H])C3([H])C4(C([H])([H])[H])C([H])([H])[H])c([H])c([H])c2C1([H])[H]

>  <smiles>  (82) 
[H]c1c([H])c([H])c2c(c1[H])C([H])([H])C([H])([H])C([H])([H])C2([H])N([H])C(=O)C1([H])N(C(=O)C([H])(N([H])C(=O)C([H])(N([H])C([H])([H])[H])C([H])([H])[H])C(C([H])([H])[H])(C([H])([H])[H])C([H])([H])[H])C([H])([H])c2c([H])c(OC([H])([H])C3(C([H])([H])[H])C([H])([H])C(C(=O)N4C([H])([H])C([H])([H])C([H])([H])C([H])(n5nc(-c6c([H])c([H])c(Oc7c([H])c([H])c(F)c([H])c7F)c([H])c6[H])c(C(=O)N([H])[H])c5N([H])[H])C4([H])[H])(C(=O)C([H])([H])[H])C4([H])C3([H])C4(C([H])([H])[H])C([H])([H])[H])c([H])c([H])c2C1([H])[H]

$$$$
83:0:0
     RDKit          3D

 91100  0  0  1  0  0  0  0  0999 V2000
  -28.5110  -21.1110   18.1950 C   0  0  0  0  0  2  0  0  0  0  0  0
  -28.1910  -19.3390   16.4360 C   0  0  0  0  0  2  0  0  0  0  0  0
  -28.2520  -19.9500   17.6130 C   0  0  0  0  0  3  0  0  0  0  0  0
  -28.6040  -20.9260   19.5150 C   0  0  0  0  0  3  0  0  0  0  0  0
  -28.2720  -18.0040   17.1860 C   0  0  0  0  0  2  0  0  0  0  0  0
  -28.5930  -19.1700   19.7410 C   0  0  0  0  0  3  0  0  0  0  0  0
  -27.7870  -18.7930   18.4560 C   0  0  1  0  0  0  0  0  0  0  0  0
  -25.6310  -18.5880   20.0190 C   0  0  0  0  0  1  0  0  0  0  0  0
  -26.2320  -18.8390   18.6230 C   0  0  0  0  0  2  0  0  0  0  0  0
  -28.4040  -22.3790   20.4290 C   0  0  0  0  0  2  0  0  0  0  0  0
  -27.7770  -23.9840   19.9160 C   0  0  0  0  0  2  0  0  0  0  0  0
  -27.9190  -25.5360   20.4330 O   0  0  0  0  0  0  0  0  0  0  0  0
  -24.5100  -31.6640   23.1520 C   0  0  0  0  0  0  0  0  0  0  0  0
  -26.9480  -26.6540   20.2900 C   0  0  0  0  0  0  0  0  0  0  0  0
  -23.2970  -30.2770   21.5180 C   0  0  0  0  0  3  0  0  0  0  0  0
  -24.7140  -28.5940   20.1550 C   0  0  0  0  0  0  0  0  0  0  0  0
  -25.8700  -30.3990   21.4180 C   0  0  0  0  0  2  0  0  0  0  0  0
  -25.9020  -28.9770   20.7910 C   0  0  0  0  0  0  0  0  0  0  0  0
  -27.0140  -28.0260   20.8350 C   0  0  0  0  0  3  0  0  0  0  0  0
  -25.7440  -26.4200   19.5920 C   0  0  0  0  0  3  0  0  0  0  0  0
  -24.6610  -27.3350   19.5350 C   0  0  0  0  0  3  0  0  0  0  0  0
  -23.5260  -29.5540   20.1620 C   0  0  0  0  0  2  0  0  0  0  0  0
  -24.5810  -30.8070   22.0830 N   0  0  0  0  0  0  0  0  0  0  0  0
  -23.4220  -32.0040   23.6450 O   0  0  0  0  0  0  0  0  0  0  0  0
  -22.5490  -29.3280   22.4910 C   0  0  0  0  0  0  0  0  0  0  0  0
  -21.2130  -29.2220   22.3540 N   0  0  0  0  0  0  0  0  0  0  0  0
  -23.1770  -28.6840   23.3350 O   0  0  0  0  0  0  0  0  0  0  0  0
  -20.7610  -29.7890   21.6510 H   0  0  0  0  0  0  0  0  0  0  0  0
  -17.7700  -28.2150   22.8810 C   0  0  0  0  0  0  0  0  0  0  0  0
  -20.3420  -28.3330   23.1290 C   0  0  0  0  0  3  0  0  0  0  0  0
  -20.3570  -26.8980   22.5550 C   0  0  0  0  0  2  0  0  0  0  0  0
  -19.2340  -26.6390   21.5460 C   0  0  0  0  0  2  0  0  0  0  0  0
  -17.8650  -26.8590   22.1990 C   0  0  0  0  0  2  0  0  0  0  0  0
  -18.9310  -28.9120   23.3030 C   0  0  0  0  0  0  0  0  0  0  0  0
  -18.7850  -30.1810   23.9030 C   0  0  0  0  0  3  0  0  0  0  0  0
  -17.5100  -30.7530   24.0830 C   0  0  0  0  0  3  0  0  0  0  0  0
  -16.3630  -30.0510   23.6760 C   0  0  0  0  0  3  0  0  0  0  0  0
  -16.4940  -28.7840   23.0820 C   0  0  0  0  0  3  0  0  0  0  0  0
  -25.7930  -32.2710   23.7970 C   0  0  0  0  0  3  0  0  0  0  0  0
  -26.2760  -31.4840   25.0790 C   0  0  1  0  0  0  0  0  0  0  0  0
  -25.1580  -31.2520   26.1230 C   0  0  0  0  0  1  0  0  0  0  0  0
  -26.8500  -30.1020   24.6950 C   0  0  0  0  0  1  0  0  0  0  0  0
  -27.4250  -32.2570   25.7680 C   0  0  0  0  0  1  0  0  0  0  0  0
  -25.5050  -33.6750   24.1420 N   0  0  0  0  0  0  0  0  0  0  0  0
  -25.8320  -34.7330   23.3890 C   0  0  0  0  0  0  0  0  0  0  0  0
  -26.4700  -34.6310   22.3380 O   0  0  0  0  0  0  0  0  0  0  0  0
  -24.9380  -33.8300   24.9620 H   0  0  0  0  0  0  0  0  0  0  0  0
  -24.1080  -36.5490   23.1320 C   0  0  0  0  0  1  0  0  0  0  0  0
  -25.3850  -36.1270   23.8770 C   0  0  0  0  0  3  0  0  0  0  0  0
  -27.5580  -37.0020   24.6130 C   0  0  0  0  0  1  0  0  0  0  0  0
  -26.4190  -37.1720   23.7130 N   0  0  0  0  0  0  0  0  0  0  0  0
  -26.0270  -38.0940   23.8710 H   0  0  0  0  0  0  0  0  0  0  0  0
  -29.8180  -17.8680   19.8080 C   0  0  0  0  0  2  0  0  0  0  0  0
  -30.3880  -14.9830   19.8560 C   0  0  0  0  0  0  0  0  0  0  0  0
  -30.3190  -12.5280   19.0410 C   0  0  0  0  0  2  0  0  0  0  0  0
  -29.3080  -12.3260   17.8860 C   0  0  0  0  0  2  0  0  0  0  0  0
  -27.9000  -12.0460   18.4410 C   0  0  0  0  0  2  0  0  0  0  0  0
  -27.5340  -13.0110   19.5980 C   0  0  0  0  0  3  0  0  0  0  0  0
  -28.6680  -13.1780   20.6320 C   0  0  0  0  0  2  0  0  0  0  0  0
  -29.8410  -13.6740   19.8970 N   0  0  0  0  0  0  0  0  0  0  0  0
  -31.5700  -15.0090   19.4870 O   0  0  0  0  0  0  0  0  0  0  0  0
  -29.6150  -16.2290   20.0300 N   0  0  0  0  0  0  0  0  0  0  0  0
  -28.6770  -16.0150   20.3320 H   0  0  0  0  0  0  0  0  0  0  0  0
  -25.2790  -13.5510   20.6560 C   0  0  0  0  0  0  0  0  0  0  0  0
  -24.2380  -12.7690   21.0730 C   0  0  0  0  0  0  0  0  0  0  0  0
  -24.6560  -11.4170   20.8750 C   0  0  0  0  0  0  0  0  0  0  0  0
  -26.2610  -12.6790   20.2220 N   0  0  0  0  0  0  0  0  0  0  0  0
  -25.9070  -11.3820   20.4200 N   0  0  0  0  0  0  0  0  0  0  0  0
  -23.9140  -10.1600   21.0380 C   0  0  0  0  0  0  0  0  0  0  0  0
  -24.3710   -9.1370   21.8980 C   0  0  0  0  0  3  0  0  0  0  0  0
  -23.6290   -7.9460   22.0540 C   0  0  0  0  0  3  0  0  0  0  0  0
  -22.4150   -7.7700   21.3480 C   0  0  0  0  0  0  0  0  0  0  0  0
  -21.9760   -8.7810   20.4750 C   0  0  0  0  0  3  0  0  0  0  0  0
  -22.7190   -9.9630   20.3170 C   0  0  0  0  0  3  0  0  0  0  0  0
  -21.6400   -6.6370   21.4180 O   0  0  0  0  0  0  0  0  0  0  0  0
  -21.5570   -5.8910   22.5660 C   0  0  0  0  0  0  0  0  0  0  0  0
  -21.0600   -6.4320   23.7720 C   0  0  0  0  0  3  0  0  0  0  0  0
  -20.9240   -5.6100   24.9080 C   0  0  0  0  0  3  0  0  0  0  0  0
  -21.2780   -4.2490   24.8420 C   0  0  0  0  0  0  0  0  0  0  0  0
  -21.7680   -3.7070   23.6400 C   0  0  0  0  0  3  0  0  0  0  0  0
  -21.9030   -4.5260   22.5050 C   0  0  0  0  0  0  0  0  0  0  0  0
  -22.3560   -3.9950   21.3440 F   0  0  0  0  0  0  0  0  0  0  0  0
  -21.1420   -3.4580   25.9300 F   0  0  0  0  0  0  0  0  0  0  0  0
  -22.8940  -13.2530   21.5320 C   0  0  0  0  0  0  0  0  0  0  0  0
  -22.2430  -12.5040   22.4140 N   0  0  0  0  0  0  0  0  0  0  0  0
  -22.4380  -14.3280   21.1460 O   0  0  0  0  0  0  0  0  0  0  0  0
  -22.6280  -11.6310   22.7460 H   0  0  0  0  0  0  0  0  0  0  0  0
  -21.3460  -12.8090   22.7640 H   0  0  0  0  0  0  0  0  0  0  0  0
  -25.4640  -14.9280   20.5830 N   0  0  0  0  0  0  0  0  0  0  0  0
  -24.7370  -15.5840   20.8420 H   0  0  0  0  0  0  0  0  0  0  0  0
  -26.2890  -15.3720   20.2060 H   0  0  0  0  0  0  0  0  0  0  0  0
  1  4  1  0
  2  5  1  0
  3  2  1  0
  3  1  1  0
  3  7  1  0
  4  6  1  0
  4 10  1  0
  5  7  1  0
  6 53  1  0
  7  9  1  1
  7  6  1  0
  9  8  1  0
 11 10  1  0
 11 12  1  0
 13 24  2  0
 14 12  1  0
 14 19  1  0
 15 23  1  0
 15 25  1  0
 16 22  1  0
 16 18  1  0
 17 23  1  0
 18 19  2  0
 18 17  1  0
 20 14  2  0
 21 20  1  0
 21 16  2  0
 22 15  1  0
 23 13  1  0
 25 27  2  0
 26 25  1  0
 28 26  1  0
 29 38  2  0
 29 34  1  0
 30 26  1  0
 30 34  1  0
 31 30  1  0
 32 33  1  0
 32 31  1  0
 33 29  1  0
 34 35  2  0
 35 36  1  0
 37 36  2  0
 38 37  1  0
 39 13  1  0
 39 44  1  0
 39 40  1  0
 40 43  1  1
 40 41  1  0
 42 40  1  0
 44 47  1  0
 45 49  1  0
 45 44  1  0
 46 45  2  0
 49 48  1  0
 51 52  1  0
 51 49  1  0
 51 50  1  0
 53 62  1  0
 54 60  1  0
 54 62  1  0
 55 60  1  0
 56 57  1  0
 56 55  1  0
 58 57  1  0
 58 67  1  0
 58 59  1  0
 60 59  1  0
 61 54  2  0
 62 63  1  0
 64 65  2  0
 65 84  1  0
 66 69  1  0
 66 65  1  0
 67 68  1  0
 67 64  1  0
 68 66  2  0
 69 70  1  0
 70 71  2  0
 72 75  1  0
 72 71  1  0
 73 72  2  0
 74 73  1  0
 74 69  2  0
 75 76  1  0
 76 77  1  0
 77 78  2  0
 79 78  1  0
 79 83  1  0
 80 79  2  0
 81 76  2  0
 81 80  1  0
 82 81  1  0
 84 85  1  0
 85 87  1  0
 85 88  1  0
 86 84  2  0
 89 64  1  0
 89 90  1  0
 91 89  1  0
M  ISO  4  11 101  12 101  54 100  62 100
M  END
>  <TORSDO>  (83) 
F 20

>  <SCORE>  (83) 
-12.980

>  <name>  (83) 
83

>  <ligand_id>  (83) 
83

>  <original_smiles>  (83) 
[H]C1=C(C([H])([H])C([H])([H])Oc2c([H])c([H])c3c(c2[H])C([H])([H])N(C(=O)C([H])(N([H])C(=O)C([H])(N([H])C([H])([H])[H])C([H])([H])[H])C(C([H])([H])[H])(C([H])([H])[H])C([H])([H])[H])C([H])(C(=O)N([H])C2([H])c4c([H])c([H])c([H])c([H])c4C([H])([H])C([H])([H])C2([H])[H])C3([H])[H])C([H])(C([H])([H])N([H])C(=O)N2C([H])([H])C([H])([H])C([H])([H])C([H])(n3nc(-c4c([H])c([H])c(Oc5c([H])c([H])c(F)c([H])c5F)c([H])c4[H])c(C(=O)N([H])[H])c3N([H])[H])C2([H])[H])C2(C([H])([H])C([H])([H])[H])C1=C([H])C2([H])[H]

>  <smiles>  (83) 
[H]C1=C(C([H])([H])C([H])([H])Oc2c([H])c([H])c3c(c2[H])C([H])([H])N(C(=O)C([H])(N([H])C(=O)C([H])(N([H])C([H])([H])[H])C([H])([H])[H])C(C([H])([H])[H])(C([H])([H])[H])C([H])([H])[H])C([H])(C(=O)N([H])C2([H])c4c([H])c([H])c([H])c([H])c4C([H])([H])C([H])([H])C2([H])[H])C3([H])[H])C([H])(C([H])([H])N([H])C(=O)N2C([H])([H])C([H])([H])C([H])([H])C([H])(n3nc(-c4c([H])c([H])c(Oc5c([H])c([H])c(F)c([H])c5F)c([H])c4[H])c(C(=O)N([H])[H])c3N([H])[H])C2([H])[H])C2(C([H])([H])C([H])([H])[H])C1=C([H])C2([H])[H]

$$$$
84:0:0
     RDKit          3D

 87 96  0  0  1  0  0  0  0  0999 V2000
  -28.7150  -21.1510   19.2770 C   0  0  0  0  0  2  0  0  0  0  0  0
  -29.9640  -22.3740   21.2080 C   0  0  0  0  0  2  0  0  0  0  0  0
  -28.8550  -19.8660   20.3700 C   0  0  0  0  0  3  0  0  0  0  0  0
  -28.9650  -21.2220   21.3150 C   0  0  0  0  0  3  0  0  0  0  0  0
  -28.8010  -22.4630   20.2600 C   0  0  2  0  0  0  0  0  0  0  0  0
  -30.3690  -15.5600   20.3370 C   0  0  0  0  0  0  0  0  0  0  0  0
  -30.4330  -13.0570   19.5190 C   0  0  0  0  0  2  0  0  0  0  0  0
  -29.5490  -12.7380   18.2850 C   0  0  0  0  0  2  0  0  0  0  0  0
  -28.1070  -12.4190   18.7130 C   0  0  0  0  0  2  0  0  0  0  0  0
  -27.6020  -13.4050   19.7920 C   0  0  0  0  0  3  0  0  0  0  0  0
  -28.6230  -13.6570   20.9240 C   0  0  0  0  0  2  0  0  0  0  0  0
  -29.8290  -14.2220   20.2900 N   0  0  0  0  0  0  0  0  0  0  0  0
  -31.5980  -15.5180   20.1580 O   0  0  0  0  0  0  0  0  0  0  0  0
  -29.8710  -18.3630   20.3160 C   0  0  0  0  0  0  0  0  0  0  0  0
  -29.5960  -16.8700   20.3950 N   0  0  0  0  0  0  0  0  0  0  0  0
  -31.0610  -18.6520   20.1790 O   0  0  0  0  0  0  0  0  0  0  0  0
  -28.6090  -16.6980   20.5020 H   0  0  0  0  0  0  0  0  0  0  0  0
  -25.2220  -13.9270   20.5230 C   0  0  0  0  0  0  0  0  0  0  0  0
  -24.1650  -13.1380   20.8780 C   0  0  0  0  0  0  0  0  0  0  0  0
  -24.6480  -11.7940   20.8530 C   0  0  0  0  0  0  0  0  0  0  0  0
  -26.2770  -13.0660   20.2910 N   0  0  0  0  0  0  0  0  0  0  0  0
  -25.9440  -11.7740   20.5580 N   0  0  0  0  0  0  0  0  0  0  0  0
  -23.9300  -10.5230   21.0300 C   0  0  0  0  0  0  0  0  0  0  0  0
  -24.3430   -9.5670   21.9840 C   0  0  0  0  0  3  0  0  0  0  0  0
  -23.6220   -8.3650   22.1510 C   0  0  0  0  0  3  0  0  0  0  0  0
  -22.4730   -8.1110   21.3650 C   0  0  0  0  0  0  0  0  0  0  0  0
  -22.0790   -9.0560   20.4010 C   0  0  0  0  0  3  0  0  0  0  0  0
  -22.8010  -10.2490   20.2320 C   0  0  0  0  0  3  0  0  0  0  0  0
  -21.7250   -6.9600   21.4410 O   0  0  0  0  0  0  0  0  0  0  0  0
  -21.6300   -6.2400   22.6050 C   0  0  0  0  0  0  0  0  0  0  0  0
  -21.1080   -6.8030   23.7890 C   0  0  0  0  0  3  0  0  0  0  0  0
  -20.9630   -6.0060   24.9430 C   0  0  0  0  0  3  0  0  0  0  0  0
  -21.3290   -4.6480   24.9110 C   0  0  0  0  0  0  0  0  0  0  0  0
  -21.8440   -4.0840   23.7310 C   0  0  0  0  0  3  0  0  0  0  0  0
  -21.9900   -4.8780   22.5800 C   0  0  0  0  0  0  0  0  0  0  0  0
  -22.4670   -4.3240   21.4390 F   0  0  0  0  0  0  0  0  0  0  0  0
  -21.1830   -3.8800   26.0180 F   0  0  0  0  0  0  0  0  0  0  0  0
  -22.7590  -13.6020   21.1220 C   0  0  0  0  0  0  0  0  0  0  0  0
  -22.0250  -12.9040   21.9820 N   0  0  0  0  0  0  0  0  0  0  0  0
  -22.3200  -14.6180   20.5850 O   0  0  0  0  0  0  0  0  0  0  0  0
  -22.3950  -12.0840   22.4380 H   0  0  0  0  0  0  0  0  0  0  0  0
  -21.0810  -13.1980   22.1890 H   0  0  0  0  0  0  0  0  0  0  0  0
  -25.3690  -15.3000   20.3450 N   0  0  0  0  0  0  0  0  0  0  0  0
  -24.5870  -15.9390   20.4350 H   0  0  0  0  0  0  0  0  0  0  0  0
  -26.2000  -15.7420   19.9750 H   0  0  0  0  0  0  0  0  0  0  0  0
  -27.9200  -24.0900   20.0970 C   0  0  0  0  0  2  0  0  0  0  0  0
  -28.1450  -25.7710   20.2650 O   0  0  0  0  0  0  0  0  0  0  0  0
  -24.6200  -31.8790   23.2470 C   0  0  0  0  0  0  0  0  0  0  0  0
  -27.1500  -26.9230   20.2100 C   0  0  0  0  0  0  0  0  0  0  0  0
  -23.4170  -30.4820   21.6170 C   0  0  0  0  0  3  0  0  0  0  0  0
  -24.8580  -28.8650   20.1820 C   0  0  0  0  0  0  0  0  0  0  0  0
  -25.9880  -30.6700   21.4580 C   0  0  0  0  0  2  0  0  0  0  0  0
  -26.0540  -29.2520   20.7980 C   0  0  0  0  0  0  0  0  0  0  0  0
  -27.1890  -28.3040   20.7830 C   0  0  0  0  0  3  0  0  0  0  0  0
  -25.9200  -26.7150   19.5420 C   0  0  0  0  0  3  0  0  0  0  0  0
  -24.8220  -27.6210   19.5310 C   0  0  0  0  0  3  0  0  0  0  0  0
  -23.6410  -29.7960   20.2400 C   0  0  0  0  0  2  0  0  0  0  0  0
  -24.6980  -31.0410   22.1600 N   0  0  0  0  0  0  0  0  0  0  0  0
  -23.5330  -32.1690   23.7740 O   0  0  0  0  0  0  0  0  0  0  0  0
  -22.7260  -29.4910   22.5900 C   0  0  0  0  0  0  0  0  0  0  0  0
  -21.3960  -29.3150   22.4670 N   0  0  0  0  0  0  0  0  0  0  0  0
  -23.3930  -28.8790   23.4270 O   0  0  0  0  0  0  0  0  0  0  0  0
  -20.9070  -29.8600   21.7700 H   0  0  0  0  0  0  0  0  0  0  0  0
  -18.0290  -28.0530   22.9720 C   0  0  0  0  0  0  0  0  0  0  0  0
  -20.5830  -28.3710   23.2430 C   0  0  0  0  0  3  0  0  0  0  0  0
  -20.7120  -26.9350   22.6840 C   0  0  0  0  0  2  0  0  0  0  0  0
  -19.6220  -26.5810   21.6670 C   0  0  0  0  0  2  0  0  0  0  0  0
  -18.2350  -26.7040   22.3040 C   0  0  0  0  0  2  0  0  0  0  0  0
  -19.1300  -28.8420   23.3980 C   0  0  0  0  0  0  0  0  0  0  0  0
  -18.8810  -30.1010   23.9870 C   0  0  0  0  0  3  0  0  0  0  0  0
  -17.5640  -30.5720   24.1500 C   0  0  0  0  0  3  0  0  0  0  0  0
  -16.4780  -29.7820   23.7380 C   0  0  0  0  0  3  0  0  0  0  0  0
  -16.7110  -28.5230   23.1540 C   0  0  0  0  0  3  0  0  0  0  0  0
  -25.8900  -32.5280   23.8730 C   0  0  0  0  0  3  0  0  0  0  0  0
  -25.5750  -33.9320   24.1970 N   0  0  0  0  0  0  0  0  0  0  0  0
  -25.8940  -34.9890   23.4370 C   0  0  0  0  0  0  0  0  0  0  0  0
  -26.5470  -34.8840   22.3960 O   0  0  0  0  0  0  0  0  0  0  0  0
  -24.9910  -34.0870   25.0060 H   0  0  0  0  0  0  0  0  0  0  0  0
  -24.1590  -36.7880   23.1240 C   0  0  0  0  0  1  0  0  0  0  0  0
  -25.4200  -36.3810   23.9040 C   0  0  0  0  0  3  0  0  0  0  0  0
  -27.5700  -37.2790   24.6850 C   0  0  0  0  0  1  0  0  0  0  0  0
  -26.4500  -37.4350   23.7610 N   0  0  0  0  0  0  0  0  0  0  0  0
  -26.0450  -38.3560   23.9070 H   0  0  0  0  0  0  0  0  0  0  0  0
  -26.3930  -31.7780   25.1700 C   0  0  1  0  0  0  0  0  0  0  0  0
  -25.2900  -31.5650   26.2340 C   0  0  0  0  0  1  0  0  0  0  0  0
  -26.9740  -30.3900   24.8180 C   0  0  0  0  0  1  0  0  0  0  0  0
  -27.5420  -32.5800   25.8260 C   0  0  0  0  0  1  0  0  0  0  0  0
  1  5  1  0
  1  3  1  0
  3 14  1  0
  3  4  1  0
  4  2  1  0
  5 46  1  1
  5  2  1  0
  5  4  1  0
  6 15  1  0
  7 12  1  0
  8  9  1  0
  8  7  1  0
 10  9  1  0
 10 21  1  0
 10 11  1  0
 12  6  1  0
 12 11  1  0
 13  6  2  0
 14 15  1  0
 15 17  1  0
 16 14  2  0
 18 19  2  0
 19 38  1  0
 20 19  1  0
 20 23  1  0
 21 18  1  0
 21 22  1  0
 22 20  2  0
 23 24  1  0
 24 25  2  0
 26 29  1  0
 26 25  1  0
 27 26  2  0
 28 27  1  0
 28 23  2  0
 29 30  1  0
 30 31  1  0
 31 32  2  0
 33 32  1  0
 33 37  1  0
 34 33  2  0
 35 30  2  0
 35 34  1  0
 36 35  1  0
 38 39  1  0
 39 42  1  0
 39 41  1  0
 40 38  2  0
 43 44  1  0
 43 18  1  0
 45 43  1  0
 46 47  1  0
 48 59  2  0
 49 47  1  0
 49 54  1  0
 50 58  1  0
 50 60  1  0
 51 57  1  0
 51 53  1  0
 52 58  1  0
 53 52  1  0
 54 53  2  0
 55 49  2  0
 56 55  1  0
 56 51  2  0
 57 50  1  0
 58 48  1  0
 60 62  2  0
 61 60  1  0
 63 61  1  0
 64 73  2  0
 64 69  1  0
 65 61  1  0
 65 69  1  0
 66 65  1  0
 67 68  1  0
 67 66  1  0
 68 64  1  0
 69 70  2  0
 70 71  1  0
 72 71  2  0
 73 72  1  0
 74 48  1  0
 74 75  1  0
 74 84  1  0
 75 78  1  0
 76 80  1  0
 76 75  1  0
 77 76  2  0
 80 79  1  0
 82 80  1  0
 82 83  1  0
 82 81  1  0
 84 87  1  1
 84 85  1  0
 86 84  1  0
M  ISO  4   6 100  15 100  46 101  47 101
M  END
>  <TORSDO>  (84) 
F 17

>  <SCORE>  (84) 
-16.644

>  <name>  (84) 
84

>  <ligand_id>  (84) 
84

>  <original_smiles>  (84) 
[H]c1c([H])c([H])c2c(c1[H])C([H])([H])C([H])([H])C([H])([H])C2([H])N([H])C(=O)C1([H])N(C(=O)C([H])(N([H])C(=O)C([H])(N([H])C([H])([H])[H])C([H])([H])[H])C(C([H])([H])[H])(C([H])([H])[H])C([H])([H])[H])C([H])([H])c2c([H])c(OC([H])([H])C34C([H])([H])C([H])(C(=O)N([H])C(=O)N5C([H])([H])C([H])([H])C([H])([H])C([H])(n6nc(-c7c([H])c([H])c(Oc8c([H])c([H])c(F)c([H])c8F)c([H])c7[H])c(C(=O)N([H])[H])c6N([H])[H])C5([H])[H])C3([H])C4([H])[H])c([H])c([H])c2C1([H])[H]

>  <smiles>  (84) 
[H]c1c([H])c([H])c2c(c1[H])C([H])([H])C([H])([H])C([H])([H])C2([H])N([H])C(=O)C1([H])N(C(=O)C([H])(N([H])C(=O)C([H])(N([H])C([H])([H])[H])C([H])([H])[H])C(C([H])([H])[H])(C([H])([H])[H])C([H])([H])[H])C([H])([H])c2c([H])c(OC([H])([H])C34C([H])([H])C([H])(C(=O)N([H])C(=O)N5C([H])([H])C([H])([H])C([H])([H])C([H])(n6nc(-c7c([H])c([H])c(Oc8c([H])c([H])c(F)c([H])c8F)c([H])c7[H])c(C(=O)N([H])[H])c6N([H])[H])C5([H])[H])C3([H])C4([H])[H])c([H])c([H])c2C1([H])[H]

$$$$
85:0:0
     RDKit          3D

 91101  0  0  1  0  0  0  0  0999 V2000
  -28.6760  -22.4880   20.1760 N   0  0  0  0  0  4  0  0  0  0  0  0
  -27.7090  -22.3850   19.9140 H   0  0  0  0  0  0  0  0  0  0  0  0
  -29.2100  -22.4640   19.3230 H   0  0  0  0  0  0  0  0  0  0  0  0
  -29.0190  -21.2440   20.9710 C   0  0  0  0  0  2  0  0  0  0  0  0
  -29.0010  -19.9050   20.1090 C   0  0  0  0  0  2  0  0  0  0  0  0
  -27.9360  -17.5610   19.9040 C   0  0  0  0  0  1  0  0  0  0  0  0
  -28.8190  -18.4680   20.7750 C   0  0  0  0  0  3  0  0  0  0  0  0
  -30.8040  -14.4780   20.0630 C   0  0  0  0  0  0  0  0  0  0  0  0
  -30.3570  -12.2520   19.0590 C   0  0  0  0  0  2  0  0  0  0  0  0
  -29.3970  -12.3770   17.8620 C   0  0  0  0  0  2  0  0  0  0  0  0
  -27.9400  -12.2720   18.3480 C   0  0  0  0  0  2  0  0  0  0  0  0
  -27.6470  -13.1810   19.5750 C   0  0  0  0  0  3  0  0  0  0  0  0
  -28.7460  -13.0890   20.6570 C   0  0  0  0  0  2  0  0  0  0  0  0
  -30.0360  -13.3430   20.0080 N   0  0  0  0  0  0  0  0  0  0  0  0
  -31.9070  -14.4840   19.5060 O   0  0  0  0  0  0  0  0  0  0  0  0
  -31.7880  -16.5050   21.7340 C   0  0  0  0  0  2  0  0  0  0  0  0
  -30.1220  -17.7340   21.2510 C   0  0  0  0  0  3  0  0  0  0  0  0
  -31.1270  -16.9260   20.3920 C   0  0  1  0  0  0  0  0  0  0  0  0
  -30.2680  -16.2980   21.8830 C   0  0  2  0  0  0  0  0  0  0  0  0
  -30.2960  -15.6890   20.5230 N   0  0  0  0  0  0  0  0  0  0  0  0
  -25.3100  -13.8180   20.4240 C   0  0  0  0  0  0  0  0  0  0  0  0
  -24.2480  -13.0660   20.8480 C   0  0  0  0  0  0  0  0  0  0  0  0
  -24.6760  -11.7060   20.7790 C   0  0  0  0  0  0  0  0  0  0  0  0
  -26.3200  -12.9200   20.1260 N   0  0  0  0  0  0  0  0  0  0  0  0
  -25.9480  -11.6410   20.4000 N   0  0  0  0  0  0  0  0  0  0  0  0
  -23.9280  -10.4590   20.9930 C   0  0  0  0  0  0  0  0  0  0  0  0
  -24.3620   -9.4850   21.9200 C   0  0  0  0  0  3  0  0  0  0  0  0
  -23.6120   -8.3080   22.1240 C   0  0  0  0  0  3  0  0  0  0  0  0
  -22.4130   -8.0970   21.4020 C   0  0  0  0  0  0  0  0  0  0  0  0
  -21.9980   -9.0580   20.4650 C   0  0  0  0  0  3  0  0  0  0  0  0
  -22.7480  -10.2260   20.2580 C   0  0  0  0  0  3  0  0  0  0  0  0
  -21.6350   -6.9700   21.5130 O   0  0  0  0  0  0  0  0  0  0  0  0
  -21.5840   -6.2430   22.6750 C   0  0  0  0  0  0  0  0  0  0  0  0
  -21.1880   -6.8220   23.9000 C   0  0  0  0  0  3  0  0  0  0  0  0
  -21.0820   -6.0230   25.0560 C   0  0  0  0  0  3  0  0  0  0  0  0
  -21.3630   -4.6450   24.9880 C   0  0  0  0  0  0  0  0  0  0  0  0
  -21.7530   -4.0650   23.7690 C   0  0  0  0  0  3  0  0  0  0  0  0
  -21.8610   -4.8630   22.6150 C   0  0  0  0  0  0  0  0  0  0  0  0
  -22.2160   -4.2940   21.4380 F   0  0  0  0  0  0  0  0  0  0  0  0
  -21.2570   -3.8760   26.0980 F   0  0  0  0  0  0  0  0  0  0  0  0
  -22.8800  -13.5760   21.2000 C   0  0  0  0  0  0  0  0  0  0  0  0
  -22.1830  -12.8960   22.1020 N   0  0  0  0  0  0  0  0  0  0  0  0
  -22.4430  -14.6170   20.7130 O   0  0  0  0  0  0  0  0  0  0  0  0
  -22.5500  -12.0560   22.5240 H   0  0  0  0  0  0  0  0  0  0  0  0
  -21.2670  -13.2230   22.3760 H   0  0  0  0  0  0  0  0  0  0  0  0
  -25.4890  -15.1850   20.2480 N   0  0  0  0  0  0  0  0  0  0  0  0
  -24.7550  -15.8600   20.4320 H   0  0  0  0  0  0  0  0  0  0  0  0
  -26.3450  -15.6070   19.9080 H   0  0  0  0  0  0  0  0  0  0  0  0
  -28.8480  -23.8720   20.7860 C   0  0  0  0  0  2  0  0  0  0  0  0
  -27.9840  -25.0030   20.0860 C   0  0  0  0  0  2  0  0  0  0  0  0
  -28.2410  -26.4430   20.3300 O   0  0  0  0  0  0  0  0  0  0  0  0
  -24.6310  -31.9140   23.2720 C   0  0  0  0  0  0  0  0  0  0  0  0
  -27.1510  -27.3210   20.2240 C   0  0  0  0  0  0  0  0  0  0  0  0
  -23.3990  -30.5250   21.6480 C   0  0  0  0  0  3  0  0  0  0  0  0
  -24.8170  -28.9650   20.2070 C   0  0  0  0  0  0  0  0  0  0  0  0
  -25.9400  -30.8180   21.4420 C   0  0  0  0  0  2  0  0  0  0  0  0
  -25.9940  -29.4390   20.7990 C   0  0  0  0  0  0  0  0  0  0  0  0
  -27.1670  -28.6270   20.7980 C   0  0  0  0  0  3  0  0  0  0  0  0
  -25.9570  -26.9150   19.5820 C   0  0  0  0  0  3  0  0  0  0  0  0
  -24.8000  -27.7100   19.5860 C   0  0  0  0  0  3  0  0  0  0  0  0
  -23.5920  -29.8510   20.2660 C   0  0  0  0  0  2  0  0  0  0  0  0
  -24.6760  -31.1030   22.1760 N   0  0  0  0  0  0  0  0  0  0  0  0
  -23.5570  -32.2050   23.8140 O   0  0  0  0  0  0  0  0  0  0  0  0
  -22.7370  -29.5130   22.6150 C   0  0  0  0  0  0  0  0  0  0  0  0
  -21.4120  -29.3290   22.4840 N   0  0  0  0  0  0  0  0  0  0  0  0
  -23.4140  -28.8970   23.4430 O   0  0  0  0  0  0  0  0  0  0  0  0
  -20.9260  -29.8780   21.7890 H   0  0  0  0  0  0  0  0  0  0  0  0
  -18.0340  -28.1330   22.9750 C   0  0  0  0  0  0  0  0  0  0  0  0
  -20.5900  -28.4020   23.2610 C   0  0  0  0  0  3  0  0  0  0  0  0
  -20.6990  -26.9630   22.7090 C   0  0  0  0  0  2  0  0  0  0  0  0
  -19.6060  -26.6220   21.6910 C   0  0  0  0  0  2  0  0  0  0  0  0
  -18.2180  -26.7750   22.3210 C   0  0  0  0  0  2  0  0  0  0  0  0
  -19.1480  -28.9050   23.4010 C   0  0  0  0  0  0  0  0  0  0  0  0
  -18.9190  -30.1770   23.9700 C   0  0  0  0  0  3  0  0  0  0  0  0
  -17.6110  -30.6750   24.1190 C   0  0  0  0  0  3  0  0  0  0  0  0
  -16.5120  -29.9010   23.7070 C   0  0  0  0  0  3  0  0  0  0  0  0
  -16.7260  -28.6330   23.1390 C   0  0  0  0  0  3  0  0  0  0  0  0
  -25.9280  -32.5330   23.8820 C   0  0  0  0  0  3  0  0  0  0  0  0
  -25.6320  -33.9320   24.2210 N   0  0  0  0  0  0  0  0  0  0  0  0
  -25.9580  -34.9850   23.4620 C   0  0  0  0  0  0  0  0  0  0  0  0
  -26.6150  -34.8800   22.4210 O   0  0  0  0  0  0  0  0  0  0  0  0
  -25.0500  -34.0870   25.0330 H   0  0  0  0  0  0  0  0  0  0  0  0
  -24.2470  -36.7970   23.1270 C   0  0  0  0  0  1  0  0  0  0  0  0
  -25.4870  -36.3730   23.9320 C   0  0  0  0  0  3  0  0  0  0  0  0
  -27.6340  -37.2300   24.7640 C   0  0  0  0  0  1  0  0  0  0  0  0
  -26.5280  -37.4180   23.8260 N   0  0  0  0  0  0  0  0  0  0  0  0
  -26.1310  -38.3400   23.9830 H   0  0  0  0  0  0  0  0  0  0  0  0
  -26.4530  -31.7530   25.1490 C   0  0  1  0  0  0  0  0  0  0  0  0
  -25.3690  -31.5210   26.2280 C   0  0  0  0  0  1  0  0  0  0  0  0
  -27.0240  -30.3720   24.7480 C   0  0  0  0  0  1  0  0  0  0  0  0
  -27.6140  -32.5390   25.8030 C   0  0  0  0  0  1  0  0  0  0  0  0
  1 49  1  0
  1  4  1  0
  2  1  1  0
  3  1  1  0
  5  7  1  0
  5  4  1  0
  7  6  1  0
  8 20  1  0
  9 14  1  0
 10 11  1  0
 10  9  1  0
 12 11  1  0
 12 24  1  0
 12 13  1  0
 14  8  1  0
 14 13  1  0
 15  8  2  0
 17  7  1  0
 17 19  1  0
 18 20  1  0
 18 17  1  0
 18 16  1  6
 18 19  1  0
 19 16  1  1
 20 19  1  0
 21 22  2  0
 22 41  1  0
 23 22  1  0
 23 26  1  0
 24 25  1  0
 24 21  1  0
 25 23  2  0
 26 27  1  0
 27 28  2  0
 29 32  1  0
 29 28  1  0
 30 29  2  0
 31 30  1  0
 31 26  2  0
 32 33  1  0
 33 34  1  0
 34 35  2  0
 36 35  1  0
 36 40  1  0
 37 36  2  0
 38 33  2  0
 38 37  1  0
 39 38  1  0
 41 42  1  0
 42 45  1  0
 42 44  1  0
 43 41  2  0
 46 21  1  0
 46 47  1  0
 48 46  1  0
 50 51  1  0
 50 49  1  0
 52 63  2  0
 53 51  1  0
 53 58  1  0
 54 62  1  0
 54 64  1  0
 55 61  1  0
 55 57  1  0
 56 62  1  0
 57 56  1  0
 58 57  2  0
 59 60  1  0
 59 53  2  0
 60 55  2  0
 61 54  1  0
 62 52  1  0
 64 66  2  0
 65 64  1  0
 67 65  1  0
 68 77  2  0
 68 73  1  0
 69 65  1  0
 69 73  1  0
 70 69  1  0
 71 72  1  0
 71 70  1  0
 72 68  1  0
 73 74  2  0
 74 75  1  0
 76 75  2  0
 77 76  1  0
 78 52  1  0
 78 79  1  0
 78 88  1  0
 79 82  1  0
 80 84  1  0
 80 79  1  0
 81 80  2  0
 84 83  1  0
 86 84  1  0
 86 87  1  0
 86 85  1  0
 88 91  1  1
 88 89  1  0
 90 88  1  0
M  ISO  4   8 100  20 100  50 101  51 101
M  END
>  <TORSDO>  (85) 
F 21

>  <SCORE>  (85) 
-12.877

>  <name>  (85) 
85

>  <ligand_id>  (85) 
85

>  <original_smiles>  (85) 
[H]c1c([H])c([H])c2c(c1[H])C([H])([H])C([H])([H])C([H])([H])C2([H])N([H])C(=O)C1([H])N(C(=O)C([H])(N([H])C(=O)C([H])(N([H])C([H])([H])[H])C([H])([H])[H])C(C([H])([H])[H])(C([H])([H])[H])C([H])([H])[H])C([H])([H])c2c([H])c(OC([H])([H])C([H])([H])[N+]([H])([H])C([H])([H])C([H])([H])C([H])(C([H])([H])[H])C3([H])C4([H])N(C(=O)N5C([H])([H])C([H])([H])C([H])([H])C([H])(n6nc(-c7c([H])c([H])c(Oc8c([H])c([H])c(F)c([H])c8F)c([H])c7[H])c(C(=O)N([H])[H])c6N([H])[H])C5([H])[H])C3([H])C4([H])[H])c([H])c([H])c2C1([H])[H]

>  <smiles>  (85) 
[H]c1c([H])c([H])c2c(c1[H])C([H])([H])C([H])([H])C([H])([H])C2([H])N([H])C(=O)C1([H])N(C(=O)C([H])(N([H])C(=O)C([H])(N([H])C([H])([H])[H])C([H])([H])[H])C(C([H])([H])[H])(C([H])([H])[H])C([H])([H])[H])C([H])([H])c2c([H])c(OC([H])([H])C([H])([H])[N+]([H])([H])C([H])([H])C([H])([H])C([H])(C([H])([H])[H])C3([H])C4([H])N(C(=O)N5C([H])([H])C([H])([H])C([H])([H])C([H])(n6nc(-c7c([H])c([H])c(Oc8c([H])c([H])c(F)c([H])c8F)c([H])c7[H])c(C(=O)N([H])[H])c6N([H])[H])C5([H])[H])C3([H])C4([H])[H])c([H])c([H])c2C1([H])[H]

$$$$
86:0:0
     RDKit          3D

 93103  0  0  1  0  0  0  0  0999 V2000
  -29.9020  -20.2350   20.9720 C   0  0  0  0  0  2  0  0  0  0  0  0
  -27.5030  -23.7350   19.8310 C   0  0  0  0  0  2  0  0  0  0  0  0
  -29.5380  -23.9590   20.2810 C   0  0  0  0  0  2  0  0  0  0  0  0
  -28.9440  -21.8020   18.6440 C   0  0  0  0  0  2  0  0  0  0  0  0
  -28.6850  -19.1100   19.2120 C   0  0  0  0  0  2  0  0  0  0  0  0
  -28.6870  -21.2050   20.6010 C   0  0  0  0  0  3  0  0  0  0  0  0
  -28.2810  -24.8900   20.5540 C   0  0  0  0  0  3  0  0  0  0  0  0
  -28.6900  -22.6800   19.8990 C   0  0  2  0  0  0  0  0  0  0  0  0
  -28.1750  -20.5980   19.3000 C   0  0  1  0  0  0  0  0  0  0  0  0
  -29.9570  -18.8700   20.0900 C   0  0  1  0  0  0  0  0  0  0  0  0
  -26.6630  -20.5680   19.0380 C   0  0  0  0  0  1  0  0  0  0  0  0
  -32.5740  -18.8350   19.8140 C   0  0  0  0  0  1  0  0  0  0  0  0
  -31.1890  -18.8900   19.1420 C   0  0  0  0  0  2  0  0  0  0  0  0
  -28.3310  -26.3640   20.1580 O   0  0  0  0  0  0  0  0  0  0  0  0
  -24.5760  -31.8710   23.2160 C   0  0  0  0  0  0  0  0  0  0  0  0
  -27.2100  -27.2390   20.1970 C   0  0  0  0  0  0  0  0  0  0  0  0
  -23.3940  -30.4800   21.5570 C   0  0  0  0  0  3  0  0  0  0  0  0
  -24.8600  -28.9130   20.1540 C   0  0  0  0  0  0  0  0  0  0  0  0
  -25.9430  -30.7730   21.4120 C   0  0  0  0  0  2  0  0  0  0  0  0
  -26.0280  -29.3850   20.7660 C   0  0  0  0  0  0  0  0  0  0  0  0
  -27.2080  -28.5650   20.7670 C   0  0  0  0  0  3  0  0  0  0  0  0
  -26.0150  -26.8360   19.5700 C   0  0  0  0  0  3  0  0  0  0  0  0
  -24.8610  -27.6470   19.5450 C   0  0  0  0  0  3  0  0  0  0  0  0
  -23.6300  -29.8030   20.1800 C   0  0  0  0  0  2  0  0  0  0  0  0
  -24.6570  -31.0620   22.1170 N   0  0  0  0  0  0  0  0  0  0  0  0
  -23.4850  -32.1500   23.7340 O   0  0  0  0  0  0  0  0  0  0  0  0
  -22.7120  -29.4660   22.5080 C   0  0  0  0  0  0  0  0  0  0  0  0
  -21.3870  -29.2920   22.3630 N   0  0  0  0  0  0  0  0  0  0  0  0
  -23.3770  -28.8370   23.3340 O   0  0  0  0  0  0  0  0  0  0  0  0
  -20.9090  -29.8500   21.6690 H   0  0  0  0  0  0  0  0  0  0  0  0
  -17.9980  -28.1060   22.8330 C   0  0  0  0  0  0  0  0  0  0  0  0
  -20.5570  -28.3530   23.1210 C   0  0  0  0  0  3  0  0  0  0  0  0
  -20.6560  -26.9250   22.5350 C   0  0  0  0  0  2  0  0  0  0  0  0
  -19.5590  -26.6150   21.5110 C   0  0  0  0  0  2  0  0  0  0  0  0
  -18.1730  -26.7620   22.1460 C   0  0  0  0  0  2  0  0  0  0  0  0
  -19.1180  -28.8600   23.2760 C   0  0  0  0  0  0  0  0  0  0  0  0
  -18.9000  -30.1180   23.8790 C   0  0  0  0  0  3  0  0  0  0  0  0
  -17.5950  -30.6220   24.0410 C   0  0  0  0  0  3  0  0  0  0  0  0
  -16.4910  -29.8660   23.6110 C   0  0  0  0  0  3  0  0  0  0  0  0
  -16.6930  -28.6100   23.0120 C   0  0  0  0  0  3  0  0  0  0  0  0
  -25.8480  -32.5030   23.8590 C   0  0  0  0  0  3  0  0  0  0  0  0
  -25.5380  -33.9060   24.1760 N   0  0  0  0  0  0  0  0  0  0  0  0
  -25.8870  -34.9540   23.4180 C   0  0  0  0  0  0  0  0  0  0  0  0
  -26.5690  -34.8420   22.3970 O   0  0  0  0  0  0  0  0  0  0  0  0
  -24.9330  -34.0660   24.9670 H   0  0  0  0  0  0  0  0  0  0  0  0
  -24.1750  -36.7580   23.0330 C   0  0  0  0  0  1  0  0  0  0  0  0
  -25.4020  -36.3480   23.8640 C   0  0  0  0  0  3  0  0  0  0  0  0
  -27.5250  -37.2270   24.7280 C   0  0  0  0  0  1  0  0  0  0  0  0
  -26.4420  -37.3950   23.7620 N   0  0  0  0  0  0  0  0  0  0  0  0
  -26.0390  -38.3190   23.8950 H   0  0  0  0  0  0  0  0  0  0  0  0
  -26.3350  -31.7390   25.1520 C   0  0  1  0  0  0  0  0  0  0  0  0
  -25.2180  -31.5170   26.2000 C   0  0  0  0  0  1  0  0  0  0  0  0
  -26.9160  -30.3560   24.7830 C   0  0  0  0  0  1  0  0  0  0  0  0
  -27.4770  -32.5310   25.8290 C   0  0  0  0  0  1  0  0  0  0  0  0
  -30.0340  -17.4340   20.9150 C   0  0  0  0  0  2  0  0  0  0  0  0
  -30.6050  -14.8870   20.1540 C   0  0  0  0  0  0  0  0  0  0  0  0
  -30.4170  -12.6210   19.0730 C   0  0  0  0  0  2  0  0  0  0  0  0
  -29.4300  -12.6860   17.8860 C   0  0  0  0  0  2  0  0  0  0  0  0
  -27.9770  -12.4900   18.3630 C   0  0  0  0  0  2  0  0  0  0  0  0
  -27.6350  -13.3530   19.6060 C   0  0  0  0  0  3  0  0  0  0  0  0
  -28.7320  -13.2510   20.6840 C   0  0  0  0  0  2  0  0  0  0  0  0
  -29.9930  -13.6530   20.0480 N   0  0  0  0  0  0  0  0  0  0  0  0
  -31.8080  -14.9880   19.8950 O   0  0  0  0  0  0  0  0  0  0  0  0
  -29.7950  -16.0110   20.3510 N   0  0  0  0  0  0  0  0  0  0  0  0
  -28.8170  -15.7660   20.3340 H   0  0  0  0  0  0  0  0  0  0  0  0
  -25.2700  -13.9260   20.4100 C   0  0  0  0  0  0  0  0  0  0  0  0
  -24.2190  -13.1450   20.8040 C   0  0  0  0  0  0  0  0  0  0  0  0
  -24.6880  -11.7970   20.7560 C   0  0  0  0  0  0  0  0  0  0  0  0
  -26.3110  -13.0530   20.1380 N   0  0  0  0  0  0  0  0  0  0  0  0
  -25.9700  -11.7670   20.4100 N   0  0  0  0  0  0  0  0  0  0  0  0
  -23.9730  -10.5290   20.9590 C   0  0  0  0  0  0  0  0  0  0  0  0
  -24.4220   -9.5700   21.8930 C   0  0  0  0  0  3  0  0  0  0  0  0
  -23.7060   -8.3690   22.0840 C   0  0  0  0  0  3  0  0  0  0  0  0
  -22.5270   -8.1180   21.3410 C   0  0  0  0  0  0  0  0  0  0  0  0
  -22.0980   -9.0660   20.3970 C   0  0  0  0  0  3  0  0  0  0  0  0
  -22.8150  -10.2600   20.2030 C   0  0  0  0  0  3  0  0  0  0  0  0
  -21.7830   -6.9670   21.4410 O   0  0  0  0  0  0  0  0  0  0  0  0
  -21.7400   -6.2370   22.6010 C   0  0  0  0  0  0  0  0  0  0  0  0
  -21.2880   -6.7960   23.8170 C   0  0  0  0  0  3  0  0  0  0  0  0
  -21.1910   -5.9920   24.9690 C   0  0  0  0  0  3  0  0  0  0  0  0
  -21.5370   -4.6280   24.9080 C   0  0  0  0  0  0  0  0  0  0  0  0
  -21.9820   -4.0690   23.6990 C   0  0  0  0  0  3  0  0  0  0  0  0
  -22.0810   -4.8700   22.5490 C   0  0  0  0  0  0  0  0  0  0  0  0
  -22.4910   -4.3210   21.3790 F   0  0  0  0  0  0  0  0  0  0  0  0
  -21.4370   -3.8550   26.0140 F   0  0  0  0  0  0  0  0  0  0  0  0
  -22.8270  -13.6150   21.1110 C   0  0  0  0  0  0  0  0  0  0  0  0
  -22.1220  -12.9100   21.9870 N   0  0  0  0  0  0  0  0  0  0  0  0
  -22.3720  -14.6420   20.6090 O   0  0  0  0  0  0  0  0  0  0  0  0
  -22.5030  -12.0800   22.4180 H   0  0  0  0  0  0  0  0  0  0  0  0
  -21.1890  -13.2050   22.2370 H   0  0  0  0  0  0  0  0  0  0  0  0
  -25.4210  -15.2990   20.2350 N   0  0  0  0  0  0  0  0  0  0  0  0
  -24.6510  -15.9450   20.3700 H   0  0  0  0  0  0  0  0  0  0  0  0
  -26.2470  -15.7440   19.8580 H   0  0  0  0  0  0  0  0  0  0  0  0
  8  2  1  6
  2  7  1  0
  3  7  1  0
  4  9  1  0
  5  9  1  0
  5 10  1  0
  6  1  1  0
  7 14  1  0
  8  4  1  0
  8  3  1  0
  8  6  1  0
  9 11  1  1
  9  6  1  0
 10 13  1  6
 10 55  1  0
 10  1  1  0
 13 12  1  0
 14 16  1  0
 15 26  2  0
 16 21  1  0
 17 25  1  0
 17 27  1  0
 18 24  1  0
 18 20  1  0
 19 25  1  0
 20 21  2  0
 20 19  1  0
 22 16  2  0
 23 22  1  0
 23 18  2  0
 24 17  1  0
 25 15  1  0
 27 29  2  0
 28 27  1  0
 30 28  1  0
 31 40  2  0
 31 36  1  0
 32 28  1  0
 32 36  1  0
 33 32  1  0
 34 35  1  0
 34 33  1  0
 35 31  1  0
 36 37  2  0
 37 38  1  0
 39 38  2  0
 40 39  1  0
 41 15  1  0
 41 42  1  0
 41 51  1  0
 42 45  1  0
 43 47  1  0
 43 42  1  0
 44 43  2  0
 47 46  1  0
 49 47  1  0
 49 50  1  0
 49 48  1  0
 51 54  1  1
 51 52  1  0
 53 51  1  0
 56 64  1  0
 57 62  1  0
 58 59  1  0
 58 57  1  0
 60 59  1  0
 60 69  1  0
 60 61  1  0
 62 56  1  0
 62 61  1  0
 63 56  2  0
 64 55  1  0
 65 64  1  0
 66 67  2  0
 67 86  1  0
 68 67  1  0
 68 71  1  0
 69 66  1  0
 69 70  1  0
 70 68  2  0
 71 72  1  0
 72 73  2  0
 74 77  1  0
 74 73  1  0
 75 74  2  0
 76 75  1  0
 76 71  2  0
 77 78  1  0
 78 79  1  0
 79 80  2  0
 81 80  1  0
 81 85  1  0
 82 81  2  0
 83 78  2  0
 83 82  1  0
 84 83  1  0
 86 87  1  0
 87 90  1  0
 87 89  1  0
 88 86  2  0
 91 92  1  0
 91 66  1  0
 93 91  1  0
M  ISO  4   7 101  14 101  56 100  64 100
M  END
>  <TORSDO>  (86) 
F 18

>  <SCORE>  (86) 
-14.770

>  <name>  (86) 
86

>  <ligand_id>  (86) 
86

>  <original_smiles>  (86) 
[H]c1c([H])c([H])c2c(c1[H])C([H])([H])C([H])([H])C([H])([H])C2([H])N([H])C(=O)C1([H])N(C(=O)C([H])(N([H])C(=O)C([H])(N([H])C([H])([H])[H])C([H])([H])[H])C(C([H])([H])[H])(C([H])([H])[H])C([H])([H])[H])C([H])([H])c2c([H])c(OC3([H])C([H])([H])C4(C3([H])[H])C([H])([H])C3(C([H])([H])[H])C([H])([H])C(C([H])([H])N([H])C(=O)N5C([H])([H])C([H])([H])C([H])([H])C([H])(n6nc(-c7c([H])c([H])c(Oc8c([H])c([H])c(F)c([H])c8F)c([H])c7[H])c(C(=O)N([H])[H])c6N([H])[H])C5([H])[H])(C([H])([H])C([H])([H])[H])C([H])([H])C34[H])c([H])c([H])c2C1([H])[H]

>  <smiles>  (86) 
[H]c1c([H])c([H])c2c(c1[H])C([H])([H])C([H])([H])C([H])([H])C2([H])N([H])C(=O)C1([H])N(C(=O)C([H])(N([H])C(=O)C([H])(N([H])C([H])([H])[H])C([H])([H])[H])C(C([H])([H])[H])(C([H])([H])[H])C([H])([H])[H])C([H])([H])c2c([H])c(OC3([H])C([H])([H])C4(C3([H])[H])C([H])([H])C3(C([H])([H])[H])C([H])([H])C(C([H])([H])N([H])C(=O)N5C([H])([H])C([H])([H])C([H])([H])C([H])(n6nc(-c7c([H])c([H])c(Oc8c([H])c([H])c(F)c([H])c8F)c([H])c7[H])c(C(=O)N([H])[H])c6N([H])[H])C5([H])[H])(C([H])([H])C([H])([H])[H])C([H])([H])C34[H])c([H])c([H])c2C1([H])[H]

$$$$
87:0:0
     RDKit          3D

 92101  0  0  1  0  0  0  0  0999 V2000
  -30.1530  -21.7080   20.6340 C   0  0  0  0  0  2  0  0  0  0  0  0
  -31.5020  -19.3160   19.7520 C   0  0  0  0  0  2  0  0  0  0  0  0
  -31.0740  -19.2930   21.0240 C   0  0  0  0  0  3  0  0  0  0  0  0
  -30.8710  -17.8930   21.6330 C   0  0  0  0  0  2  0  0  0  0  0  0
  -29.6330  -17.7330   19.3640 C   0  0  0  0  0  2  0  0  0  0  0  0
  -30.0330  -19.2530   19.3370 C   0  0  0  0  0  3  0  0  0  0  0  0
  -29.8490  -20.1450   20.6040 C   0  0  0  0  0  3  0  0  0  0  0  0
  -29.8020  -17.1140   20.7970 C   0  0  0  0  0  3  0  0  0  0  0  0
  -30.5900  -14.6160   20.4620 C   0  0  0  0  0  0  0  0  0  0  0  0
  -30.3850  -12.4030   19.3540 C   0  0  0  0  0  2  0  0  0  0  0  0
  -29.4360  -12.5610   18.1440 C   0  0  0  0  0  2  0  0  0  0  0  0
  -27.9620  -12.4030   18.5710 C   0  0  0  0  0  2  0  0  0  0  0  0
  -27.6100  -13.2470   19.8240 C   0  0  0  0  0  3  0  0  0  0  0  0
  -28.6660  -13.0490   20.9350 C   0  0  0  0  0  2  0  0  0  0  0  0
  -29.9830  -13.3930   20.3700 N   0  0  0  0  0  0  0  0  0  0  0  0
  -31.7230  -14.8250   20.0190 O   0  0  0  0  0  0  0  0  0  0  0  0
  -29.7780  -15.6180   20.8940 N   0  0  0  0  0  0  0  0  0  0  0  0
  -28.9030  -15.2600   21.2480 H   0  0  0  0  0  0  0  0  0  0  0  0
  -25.2100  -13.8530   20.5250 C   0  0  0  0  0  0  0  0  0  0  0  0
  -24.1410  -13.0800   20.8930 C   0  0  0  0  0  0  0  0  0  0  0  0
  -24.6040  -11.7290   20.8660 C   0  0  0  0  0  0  0  0  0  0  0  0
  -26.2560  -12.9720   20.2990 N   0  0  0  0  0  0  0  0  0  0  0  0
  -25.8950  -11.6890   20.5610 N   0  0  0  0  0  0  0  0  0  0  0  0
  -23.8780  -10.4670   21.0570 C   0  0  0  0  0  0  0  0  0  0  0  0
  -24.3160   -9.4950   21.9830 C   0  0  0  0  0  3  0  0  0  0  0  0
  -23.5910   -8.2970   22.1610 C   0  0  0  0  0  3  0  0  0  0  0  0
  -22.4140   -8.0630   21.4110 C   0  0  0  0  0  0  0  0  0  0  0  0
  -21.9950   -9.0220   20.4740 C   0  0  0  0  0  3  0  0  0  0  0  0
  -22.7210  -10.2120   20.2940 C   0  0  0  0  0  3  0  0  0  0  0  0
  -21.6600   -6.9170   21.4990 O   0  0  0  0  0  0  0  0  0  0  0  0
  -21.6240   -6.1650   22.6460 C   0  0  0  0  0  0  0  0  0  0  0  0
  -21.2030   -6.7070   23.8800 C   0  0  0  0  0  3  0  0  0  0  0  0
  -21.1150   -5.8810   25.0180 C   0  0  0  0  0  3  0  0  0  0  0  0
  -21.4380   -4.5150   24.9250 C   0  0  0  0  0  0  0  0  0  0  0  0
  -21.8510   -3.9720   23.6950 C   0  0  0  0  0  3  0  0  0  0  0  0
  -21.9410   -4.7940   22.5580 C   0  0  0  0  0  0  0  0  0  0  0  0
  -22.3200   -4.2620   21.3720 F   0  0  0  0  0  0  0  0  0  0  0  0
  -21.3460   -3.7190   26.0150 F   0  0  0  0  0  0  0  0  0  0  0  0
  -22.7430  -13.5570   21.1610 C   0  0  0  0  0  0  0  0  0  0  0  0
  -22.0150  -12.8640   22.0300 N   0  0  0  0  0  0  0  0  0  0  0  0
  -22.3040  -14.5790   20.6350 O   0  0  0  0  0  0  0  0  0  0  0  0
  -22.3830  -12.0380   22.4770 H   0  0  0  0  0  0  0  0  0  0  0  0
  -21.0770  -13.1660   22.2510 H   0  0  0  0  0  0  0  0  0  0  0  0
  -25.3740  -15.2230   20.3450 N   0  0  0  0  0  0  0  0  0  0  0  0
  -24.6040  -15.8740   20.4440 H   0  0  0  0  0  0  0  0  0  0  0  0
  -26.2180  -15.6590   19.9970 H   0  0  0  0  0  0  0  0  0  0  0  0
  -29.0330  -22.6560   20.2870 N   0  0  0  0  0  4  0  0  0  0  0  0
  -28.2430  -22.4220   20.8680 H   0  0  0  0  0  0  0  0  0  0  0  0
  -28.7630  -22.4710   19.3320 H   0  0  0  0  0  0  0  0  0  0  0  0
  -29.3270  -24.1380   20.4400 C   0  0  0  0  0  3  0  0  0  0  0  0
  -28.1530  -25.1140   20.0360 C   0  0  0  0  0  3  0  0  0  0  0  0
  -28.3430  -26.5600   20.2420 O   0  0  0  0  0  0  0  0  0  0  0  0
  -24.6080  -31.9170   23.2570 C   0  0  0  0  0  0  0  0  0  0  0  0
  -27.2080  -27.3790   20.1910 C   0  0  0  0  0  0  0  0  0  0  0  0
  -23.3960  -30.5250   21.6160 C   0  0  0  0  0  3  0  0  0  0  0  0
  -24.8390  -28.9740   20.1900 C   0  0  0  0  0  0  0  0  0  0  0  0
  -25.9340  -30.8410   21.4290 C   0  0  0  0  0  2  0  0  0  0  0  0
  -26.0080  -29.4660   20.7830 C   0  0  0  0  0  0  0  0  0  0  0  0
  -27.1950  -28.6800   20.7750 C   0  0  0  0  0  3  0  0  0  0  0  0
  -26.0130  -26.9340   19.5750 C   0  0  0  0  0  3  0  0  0  0  0  0
  -24.8410  -27.7110   19.5790 C   0  0  0  0  0  3  0  0  0  0  0  0
  -23.6050  -29.8490   20.2360 C   0  0  0  0  0  2  0  0  0  0  0  0
  -24.6650  -31.1110   22.1580 N   0  0  0  0  0  0  0  0  0  0  0  0
  -23.5280  -32.2000   23.7930 O   0  0  0  0  0  0  0  0  0  0  0  0
  -22.7320  -29.5100   22.5760 C   0  0  0  0  0  0  0  0  0  0  0  0
  -21.4050  -29.3400   22.4490 N   0  0  0  0  0  0  0  0  0  0  0  0
  -23.4080  -28.8780   23.3920 O   0  0  0  0  0  0  0  0  0  0  0  0
  -20.9190  -29.9020   21.7640 H   0  0  0  0  0  0  0  0  0  0  0  0
  -18.0180  -28.1740   22.9530 C   0  0  0  0  0  0  0  0  0  0  0  0
  -20.5790  -28.4080   23.2200 C   0  0  0  0  0  3  0  0  0  0  0  0
  -20.6670  -26.9770   22.6420 C   0  0  0  0  0  2  0  0  0  0  0  0
  -19.5610  -26.6660   21.6290 C   0  0  0  0  0  2  0  0  0  0  0  0
  -18.1820  -26.8230   22.2750 C   0  0  0  0  0  2  0  0  0  0  0  0
  -19.1460  -28.9250   23.3820 C   0  0  0  0  0  0  0  0  0  0  0  0
  -18.9390  -30.1890   23.9760 C   0  0  0  0  0  3  0  0  0  0  0  0
  -17.6390  -30.7020   24.1440 C   0  0  0  0  0  3  0  0  0  0  0  0
  -16.5270  -29.9480   23.7310 C   0  0  0  0  0  3  0  0  0  0  0  0
  -16.7180  -28.6860   23.1420 C   0  0  0  0  0  3  0  0  0  0  0  0
  -25.8970  -32.5410   23.8780 C   0  0  0  0  0  3  0  0  0  0  0  0
  -26.4110  -31.7640   25.1520 C   0  0  1  0  0  0  0  0  0  0  0  0
  -25.3190  -31.5280   26.2200 C   0  0  0  0  0  1  0  0  0  0  0  0
  -26.9880  -30.3860   24.7550 C   0  0  0  0  0  1  0  0  0  0  0  0
  -27.5650  -32.5520   25.8150 C   0  0  0  0  0  1  0  0  0  0  0  0
  -25.5930  -33.9400   24.2120 N   0  0  0  0  0  0  0  0  0  0  0  0
  -25.9110  -34.9920   23.4450 C   0  0  0  0  0  0  0  0  0  0  0  0
  -26.5620  -34.8860   22.4020 O   0  0  0  0  0  0  0  0  0  0  0  0
  -25.0150  -34.0960   25.0240 H   0  0  0  0  0  0  0  0  0  0  0  0
  -24.1700  -36.7790   23.1320 C   0  0  0  0  0  1  0  0  0  0  0  0
  -25.4340  -36.3810   23.9100 C   0  0  0  0  0  3  0  0  0  0  0  0
  -27.5870  -37.2760   24.6790 C   0  0  0  0  0  1  0  0  0  0  0  0
  -26.4600  -37.4360   23.7640 N   0  0  0  0  0  0  0  0  0  0  0  0
  -26.0560  -38.3560   23.9160 H   0  0  0  0  0  0  0  0  0  0  0  0
  3  2  1  0
  3  4  1  0
  5  8  1  0
  6  5  1  0
  6  2  1  0
  6  7  1  0
  7  1  1  0
  7  3  1  0
  8 17  1  0
  8  4  1  0
  9 17  1  0
 10 15  1  0
 11 12  1  0
 11 10  1  0
 13 12  1  0
 13 22  1  0
 13 14  1  0
 15  9  1  0
 15 14  1  0
 16  9  2  0
 17 18  1  0
 19 20  2  0
 20 39  1  0
 21 20  1  0
 21 24  1  0
 22 19  1  0
 22 23  1  0
 23 21  2  0
 24 25  1  0
 25 26  2  0
 27 30  1  0
 27 26  1  0
 28 27  2  0
 29 28  1  0
 29 24  2  0
 30 31  1  0
 31 32  1  0
 32 33  2  0
 34 33  1  0
 34 38  1  0
 35 34  2  0
 36 31  2  0
 36 35  1  0
 37 36  1  0
 39 40  1  0
 40 43  1  0
 40 42  1  0
 41 39  2  0
 44 45  1  0
 44 19  1  0
 46 44  1  0
 47 50  1  0
 47  1  1  0
 47 48  1  0
 49 47  1  0
 51 52  1  0
 51 50  2  0
 53 64  2  0
 54 52  1  0
 54 59  1  0
 55 63  1  0
 55 65  1  0
 56 62  1  0
 56 58  1  0
 57 63  1  0
 58 57  1  0
 59 58  2  0
 60 61  1  0
 60 54  2  0
 61 56  2  0
 62 55  1  0
 63 53  1  0
 65 67  2  0
 66 65  1  0
 68 66  1  0
 69 78  2  0
 69 74  1  0
 70 66  1  0
 70 74  1  0
 71 70  1  0
 72 73  1  0
 72 71  1  0
 73 69  1  0
 74 75  2  0
 75 76  1  0
 77 76  2  0
 78 77  1  0
 79 53  1  0
 79 84  1  0
 79 80  1  0
 80 83  1  1
 80 81  1  0
 82 80  1  0
 84 87  1  0
 85 89  1  0
 85 84  1  0
 86 85  2  0
 89 88  1  0
 91 89  1  0
 91 92  1  0
 91 90  1  0
M  ISO  4   9 100  17 100  51 101  52 101
M  END
>  <TORSDO>  (87) 
F 20

>  <SCORE>  (87) 
-14.034

>  <name>  (87) 
87

>  <ligand_id>  (87) 
87

>  <original_smiles>  (87) 
[H]C1=C2C([H])([H])C([H])(N([H])C(=O)N3C([H])([H])C([H])([H])C([H])([H])C([H])(n4nc(-c5c([H])c([H])c(Oc6c([H])c([H])c(F)c([H])c6F)c([H])c5[H])c(C(=O)N([H])[H])c4N([H])[H])C3([H])[H])C([H])([H])C1([H])C2([H])C([H])([H])[N+]([H])([H])C([H])([H])C([H])([H])Oc1c([H])c([H])c2c(c1[H])C([H])([H])N(C(=O)C([H])(N([H])C(=O)C([H])(N([H])C([H])([H])[H])C([H])([H])[H])C(C([H])([H])[H])(C([H])([H])[H])C([H])([H])[H])C([H])(C(=O)N([H])C1([H])c3c([H])c([H])c([H])c([H])c3C([H])([H])C([H])([H])C1([H])[H])C2([H])[H]

>  <smiles>  (87) 
[H]C1=C2C([H])([H])C([H])(N([H])C(=O)N3C([H])([H])C([H])([H])C([H])([H])C([H])(n4nc(-c5c([H])c([H])c(Oc6c([H])c([H])c(F)c([H])c6F)c([H])c5[H])c(C(=O)N([H])[H])c4N([H])[H])C3([H])[H])C([H])([H])C1([H])C2([H])C([H])([H])[N+]([H])([H])C([H])([H])C([H])([H])Oc1c([H])c([H])c2c(c1[H])C([H])([H])N(C(=O)C([H])(N([H])C(=O)C([H])(N([H])C([H])([H])[H])C([H])([H])[H])C(C([H])([H])[H])(C([H])([H])[H])C([H])([H])[H])C([H])(C(=O)N([H])C1([H])c3c([H])c([H])c([H])c([H])c3C([H])([H])C([H])([H])C1([H])[H])C2([H])[H]

$$$$
88:0:0
     RDKit          3D

 91100  0  0  1  0  0  0  0  0999 V2000
  -28.7450  -22.1800   19.9620 N   0  0  0  0  0  4  0  0  0  0  0  0
  -28.0980  -21.9650   20.7050 H   0  0  0  0  0  0  0  0  0  0  0  0
  -28.2190  -22.1190   19.1030 H   0  0  0  0  0  0  0  0  0  0  0  0
  -29.7890  -21.0370   19.9180 C   0  0  0  0  0  2  0  0  0  0  0  0
  -29.8600  -18.4880   20.9050 C   0  0  0  0  0  0  0  0  0  0  0  0
  -28.4550  -18.9100   18.7860 C   0  0  0  0  0  2  0  0  0  0  0  0
  -30.5040  -17.4360   19.9010 C   0  0  0  0  0  3  0  0  0  0  0  0
  -29.8870  -18.4150   18.8440 C   0  0  0  0  0  3  0  0  0  0  0  0
  -29.3490  -19.4770   19.8600 C   0  0  1  0  0  0  0  0  0  0  0  0
  -29.7350  -18.5490   22.1290 O   0  0  0  0  0  0  0  0  0  0  0  0
  -30.8170  -14.8170   19.8130 C   0  0  0  0  0  0  0  0  0  0  0  0
  -30.6190  -12.4700   18.9620 C   0  0  0  0  0  2  0  0  0  0  0  0
  -29.6230  -12.4450   17.7820 C   0  0  0  0  0  2  0  0  0  0  0  0
  -28.1790  -12.2700   18.2950 C   0  0  0  0  0  2  0  0  0  0  0  0
  -27.8450  -13.2160   19.4810 C   0  0  0  0  0  3  0  0  0  0  0  0
  -28.9640  -13.2280   20.5450 C   0  0  0  0  0  2  0  0  0  0  0  0
  -30.2100  -13.5780   19.8570 N   0  0  0  0  0  0  0  0  0  0  0  0
  -31.9920  -14.8990   19.4480 O   0  0  0  0  0  0  0  0  0  0  0  0
  -30.0500  -15.9670   19.9720 N   0  0  0  0  0  0  0  0  0  0  0  0
  -29.0840  -15.8230   20.2250 H   0  0  0  0  0  0  0  0  0  0  0  0
  -25.5180  -13.8100   20.3780 C   0  0  0  0  0  0  0  0  0  0  0  0
  -24.4760  -13.0380   20.8130 C   0  0  0  0  0  0  0  0  0  0  0  0
  -24.9260  -11.6850   20.7360 C   0  0  0  0  0  0  0  0  0  0  0  0
  -26.5380  -12.9270   20.0620 N   0  0  0  0  0  0  0  0  0  0  0  0
  -26.1940  -11.6420   20.3410 N   0  0  0  0  0  0  0  0  0  0  0  0
  -24.2050  -10.4250   20.9610 C   0  0  0  0  0  0  0  0  0  0  0  0
  -24.6130   -9.5070   21.9540 C   0  0  0  0  0  3  0  0  0  0  0  0
  -23.8910   -8.3120   22.1650 C   0  0  0  0  0  3  0  0  0  0  0  0
  -22.7460   -8.0270   21.3840 C   0  0  0  0  0  0  0  0  0  0  0  0
  -22.3560   -8.9350   20.3820 C   0  0  0  0  0  3  0  0  0  0  0  0
  -23.0800  -10.1200   20.1690 C   0  0  0  0  0  3  0  0  0  0  0  0
  -21.9980   -6.8800   21.4990 O   0  0  0  0  0  0  0  0  0  0  0  0
  -21.8080   -6.2640   22.7090 C   0  0  0  0  0  0  0  0  0  0  0  0
  -21.1960   -6.9280   23.7950 C   0  0  0  0  0  3  0  0  0  0  0  0
  -20.9560   -6.2350   24.9990 C   0  0  0  0  0  3  0  0  0  0  0  0
  -21.3180   -4.8800   25.1160 C   0  0  0  0  0  0  0  0  0  0  0  0
  -21.9220   -4.2150   24.0350 C   0  0  0  0  0  3  0  0  0  0  0  0
  -22.1630   -4.9050   22.8340 C   0  0  0  0  0  0  0  0  0  0  0  0
  -22.7260   -4.2540   21.7870 F   0  0  0  0  0  0  0  0  0  0  0  0
  -21.0800   -4.2130   26.2700 F   0  0  0  0  0  0  0  0  0  0  0  0
  -23.1020  -13.5210   21.1770 C   0  0  0  0  0  0  0  0  0  0  0  0
  -22.4360  -12.8320   22.0950 N   0  0  0  0  0  0  0  0  0  0  0  0
  -22.6330  -14.5450   20.6810 O   0  0  0  0  0  0  0  0  0  0  0  0
  -22.8310  -12.0050   22.5190 H   0  0  0  0  0  0  0  0  0  0  0  0
  -21.5140  -13.1350   22.3780 H   0  0  0  0  0  0  0  0  0  0  0  0
  -25.6740  -15.1820   20.1960 N   0  0  0  0  0  0  0  0  0  0  0  0
  -24.9030  -15.8260   20.3430 H   0  0  0  0  0  0  0  0  0  0  0  0
  -26.4680  -15.6150   19.7410 H   0  0  0  0  0  0  0  0  0  0  0  0
  -29.2010  -23.6580   20.1280 C   0  0  0  0  0  3  0  0  0  0  0  0
  -28.1100  -24.8620   19.9460 C   0  0  0  0  0  3  0  0  0  0  0  0
  -28.3820  -26.3310   20.2220 O   0  0  0  0  0  0  0  0  0  0  0  0
  -24.7460  -31.8300   23.3570 C   0  0  0  0  0  0  0  0  0  0  0  0
  -27.3040  -27.2600   20.1860 C   0  0  0  0  0  0  0  0  0  0  0  0
  -23.5370  -30.4940   21.6740 C   0  0  0  0  0  3  0  0  0  0  0  0
  -24.9770  -28.9630   20.2080 C   0  0  0  0  0  0  0  0  0  0  0  0
  -26.0900  -30.7610   21.5210 C   0  0  0  0  0  2  0  0  0  0  0  0
  -26.1530  -29.3970   20.8300 C   0  0  0  0  0  0  0  0  0  0  0  0
  -27.3200  -28.5600   20.8060 C   0  0  0  0  0  3  0  0  0  0  0  0
  -26.0990  -26.9040   19.5370 C   0  0  0  0  0  3  0  0  0  0  0  0
  -24.9570  -27.7250   19.5510 C   0  0  0  0  0  3  0  0  0  0  0  0
  -23.7550  -29.8610   20.2760 C   0  0  0  0  0  2  0  0  0  0  0  0
  -24.8110  -31.0450   22.2410 N   0  0  0  0  0  0  0  0  0  0  0  0
  -23.6620  -32.1070   23.8900 O   0  0  0  0  0  0  0  0  0  0  0  0
  -22.8510  -29.4590   22.6000 C   0  0  0  0  0  0  0  0  0  0  0  0
  -21.5280  -29.2810   22.4380 N   0  0  0  0  0  0  0  0  0  0  0  0
  -23.5100  -28.8230   23.4260 O   0  0  0  0  0  0  0  0  0  0  0  0
  -21.0550  -29.8480   21.7470 H   0  0  0  0  0  0  0  0  0  0  0  0
  -18.1430  -28.0610   22.8350 C   0  0  0  0  0  0  0  0  0  0  0  0
  -20.6940  -28.3290   23.1740 C   0  0  0  0  0  3  0  0  0  0  0  0
  -20.8170  -26.9070   22.5810 C   0  0  0  0  0  2  0  0  0  0  0  0
  -19.7430  -26.5940   21.5350 C   0  0  0  0  0  2  0  0  0  0  0  0
  -18.3450  -26.7230   22.1450 C   0  0  0  0  0  2  0  0  0  0  0  0
  -19.2480  -28.8220   23.3050 C   0  0  0  0  0  0  0  0  0  0  0  0
  -19.0070  -30.0750   23.9100 C   0  0  0  0  0  3  0  0  0  0  0  0
  -17.6940  -30.5670   24.0510 C   0  0  0  0  0  3  0  0  0  0  0  0
  -16.6050  -29.8020   23.5990 C   0  0  0  0  0  3  0  0  0  0  0  0
  -16.8310  -28.5510   22.9960 C   0  0  0  0  0  3  0  0  0  0  0  0
  -26.0310  -32.4310   24.0070 C   0  0  0  0  0  3  0  0  0  0  0  0
  -26.4910  -31.6550   25.3020 C   0  0  1  0  0  0  0  0  0  0  0  0
  -25.3630  -31.4540   26.3420 C   0  0  0  0  0  1  0  0  0  0  0  0
  -27.0460  -30.2600   24.9350 C   0  0  0  0  0  1  0  0  0  0  0  0
  -27.6440  -32.4230   25.9880 C   0  0  0  0  0  1  0  0  0  0  0  0
  -25.7510  -33.8400   24.3220 N   0  0  0  0  0  0  0  0  0  0  0  0
  -26.0960  -34.8770   23.5480 C   0  0  0  0  0  0  0  0  0  0  0  0
  -26.7520  -34.7480   22.5120 O   0  0  0  0  0  0  0  0  0  0  0  0
  -25.1660  -34.0160   25.1260 H   0  0  0  0  0  0  0  0  0  0  0  0
  -24.3880  -36.6950   23.2120 C   0  0  0  0  0  1  0  0  0  0  0  0
  -25.6450  -36.2830   23.9950 C   0  0  0  0  0  3  0  0  0  0  0  0
  -27.8110  -37.1520   24.7590 C   0  0  0  0  0  1  0  0  0  0  0  0
  -26.6910  -37.3160   23.8360 N   0  0  0  0  0  0  0  0  0  0  0  0
  -26.3020  -38.2460   23.9710 H   0  0  0  0  0  0  0  0  0  0  0  0
  1 49  1  0
  1  2  1  0
  3  1  1  0
  4  1  1  0
  5 10  2  0
  6  9  1  0
  7 19  1  0
  7  5  1  0
  8  6  1  0
  8  9  1  0
  8  7  1  0
  9  4  1  6
  9  5  1  0
 11 17  1  0
 11 19  1  0
 12 17  1  0
 13 14  1  0
 13 12  1  0
 15 14  1  0
 15 24  1  0
 15 16  1  0
 17 16  1  0
 18 11  2  0
 19 20  1  0
 21 22  2  0
 22 41  1  0
 23 22  1  0
 23 26  1  0
 24 25  1  0
 24 21  1  0
 25 23  2  0
 26 27  1  0
 27 28  2  0
 29 32  1  0
 29 28  1  0
 30 29  2  0
 31 30  1  0
 31 26  2  0
 32 33  1  0
 33 38  2  0
 33 34  1  0
 34 35  2  0
 35 36  1  0
 36 40  1  0
 37 36  2  0
 38 37  1  0
 39 38  1  0
 41 42  1  0
 42 45  1  0
 42 44  1  0
 43 41  2  0
 46 47  1  0
 46 21  1  0
 48 46  1  0
 50 49  2  0
 50 51  1  0
 52 63  2  0
 53 51  1  0
 53 58  1  0
 54 62  1  0
 54 64  1  0
 55 61  1  0
 55 57  1  0
 56 62  1  0
 57 56  1  0
 58 57  2  0
 59 60  1  0
 59 53  2  0
 60 55  2  0
 61 54  1  0
 62 52  1  0
 64 66  2  0
 65 64  1  0
 67 65  1  0
 68 77  2  0
 68 73  1  0
 69 65  1  0
 69 73  1  0
 70 69  1  0
 71 72  1  0
 71 70  1  0
 72 68  1  0
 73 74  2  0
 74 75  1  0
 76 75  2  0
 77 76  1  0
 78 52  1  0
 78 83  1  0
 78 79  1  0
 79 82  1  1
 79 80  1  0
 81 79  1  0
 83 86  1  0
 84 88  1  0
 84 83  1  0
 85 84  2  0
 88 87  1  0
 90 91  1  0
 90 88  1  0
 90 89  1  0
M  ISO  4  11 100  19 100  50 101  51 101
M  END
>  <TORSDO>  (88) 
F 20

>  <SCORE>  (88) 
-12.629

>  <name>  (88) 
88

>  <ligand_id>  (88) 
88

>  <original_smiles>  (88) 
[H]c1c([H])c([H])c2c(c1[H])C([H])([H])C([H])([H])C([H])([H])C2([H])N([H])C(=O)C1([H])N(C(=O)C([H])(N([H])C(=O)C([H])(N([H])C([H])([H])[H])C([H])([H])[H])C(C([H])([H])[H])(C([H])([H])[H])C([H])([H])[H])C([H])([H])c2c([H])c(OC([H])([H])C([H])([H])[N+]([H])([H])C([H])([H])C34C(=O)C([H])(N([H])C(=O)N5C([H])([H])C([H])([H])C([H])([H])C([H])(n6nc(-c7c([H])c([H])c(Oc8c([H])c([H])c(F)c([H])c8F)c([H])c7[H])c(C(=O)N([H])[H])c6N([H])[H])C5([H])[H])C3([H])C4([H])[H])c([H])c([H])c2C1([H])[H]

>  <smiles>  (88) 
[H]c1c([H])c([H])c2c(c1[H])C([H])([H])C([H])([H])C([H])([H])C2([H])N([H])C(=O)C1([H])N(C(=O)C([H])(N([H])C(=O)C([H])(N([H])C([H])([H])[H])C([H])([H])[H])C(C([H])([H])[H])(C([H])([H])[H])C([H])([H])[H])C([H])([H])c2c([H])c(OC([H])([H])C([H])([H])[N+]([H])([H])C([H])([H])C34C(=O)C([H])(N([H])C(=O)N5C([H])([H])C([H])([H])C([H])([H])C([H])(n6nc(-c7c([H])c([H])c(Oc8c([H])c([H])c(F)c([H])c8F)c([H])c7[H])c(C(=O)N([H])[H])c6N([H])[H])C5([H])[H])C3([H])C4([H])[H])c([H])c([H])c2C1([H])[H]

$$$$
89:0:0
     RDKit          3D

 92101  0  0  1  0  0  0  0  0999 V2000
  -30.3800  -21.5460   17.7810 N   0  0  0  0  0  4  0  0  0  0  0  0
  -29.4740  -21.9790   17.8160 H   0  0  0  0  0  0  0  0  0  0  0  0
  -30.1930  -20.5610   17.6910 H   0  0  0  0  0  0  0  0  0  0  0  0
  -30.1380  -21.1400   20.2490 C   0  0  0  0  0  3  0  0  0  0  0  0
  -30.9200  -20.0820   20.4090 C   0  0  0  0  0  3  0  0  0  0  0  0
  -28.7930  -20.5890   20.0410 C   0  0  0  0  0  0  0  0  0  0  0  0
  -30.3040  -18.7150   20.2950 C   0  0  0  0  0  3  0  0  0  0  0  0
  -28.8020  -19.0620   20.1820 C   0  0  0  0  0  3  0  0  0  0  0  0
  -31.0780  -21.7370   19.1930 C   0  0  0  0  0  3  0  0  0  0  0  0
  -32.2230  -20.6770   19.8860 C   0  0  0  0  0  3  0  0  0  0  0  0
  -27.7840  -21.2270   19.7320 O   0  0  0  0  0  0  0  0  0  0  0  0
  -33.1440  -20.7510   21.3030 C   0  0  0  0  0  2  0  0  0  0  0  0
  -34.7700  -20.7870   21.5960 C   0  0  0  0  0  0  0  0  0  0  0  0
  -37.2130  -20.3950   21.0130 C   0  0  0  0  0  2  0  0  0  0  0  0
  -37.6200  -21.2570   19.7960 C   0  0  0  0  0  2  0  0  0  0  0  0
  -37.2880  -20.5300   18.4780 C   0  0  0  0  0  2  0  0  0  0  0  0
  -35.8600  -19.9270   18.4880 C   0  0  0  0  0  3  0  0  0  0  0  0
  -35.5710  -19.1490   19.7880 C   0  0  0  0  0  2  0  0  0  0  0  0
  -35.7570  -20.0830   20.9070 N   0  0  0  0  0  0  0  0  0  0  0  0
  -35.1520  -21.4540   22.5650 O   0  0  0  0  0  0  0  0  0  0  0  0
  -35.0310  -19.5060   16.1030 C   0  0  0  0  0  0  0  0  0  0  0  0
  -35.0730  -18.4060   15.2920 C   0  0  0  0  0  0  0  0  0  0  0  0
  -35.6890  -17.3740   16.0620 C   0  0  0  0  0  0  0  0  0  0  0  0
  -35.6000  -19.1170   17.3030 N   0  0  0  0  0  0  0  0  0  0  0  0
  -35.9410  -17.8030   17.2930 N   0  0  0  0  0  0  0  0  0  0  0  0
  -36.1090  -16.0210   15.6770 C   0  0  0  0  0  0  0  0  0  0  0  0
  -35.3610  -14.8810   16.0450 C   0  0  0  0  0  3  0  0  0  0  0  0
  -35.7770  -13.5930   15.6480 C   0  0  0  0  0  3  0  0  0  0  0  0
  -36.9490  -13.4330   14.8710 C   0  0  0  0  0  0  0  0  0  0  0  0
  -37.7030  -14.5690   14.5270 C   0  0  0  0  0  3  0  0  0  0  0  0
  -37.2910  -15.8500   14.9270 C   0  0  0  0  0  3  0  0  0  0  0  0
  -37.4410  -12.2180   14.4600 O   0  0  0  0  0  0  0  0  0  0  0  0
  -36.7060  -11.3760   13.6660 C   0  0  0  0  0  0  0  0  0  0  0  0
  -36.1450  -11.8040   12.4430 C   0  0  0  0  0  3  0  0  0  0  0  0
  -35.4540  -10.8860   11.6260 C   0  0  0  0  0  3  0  0  0  0  0  0
  -35.3330   -9.5410   12.0240 C   0  0  0  0  0  0  0  0  0  0  0  0
  -35.8970   -9.1110   13.2370 C   0  0  0  0  0  3  0  0  0  0  0  0
  -36.5850  -10.0260   14.0550 C   0  0  0  0  0  0  0  0  0  0  0  0
  -37.1440   -9.6020   15.2140 F   0  0  0  0  0  0  0  0  0  0  0  0
  -34.6760   -8.6570   11.2360 F   0  0  0  0  0  0  0  0  0  0  0  0
  -34.6600  -18.3460   13.8510 C   0  0  0  0  0  0  0  0  0  0  0  0
  -33.7930  -17.4030   13.5000 N   0  0  0  0  0  0  0  0  0  0  0  0
  -35.0730  -19.1680   13.0330 O   0  0  0  0  0  0  0  0  0  0  0  0
  -33.4410  -16.7420   14.1770 H   0  0  0  0  0  0  0  0  0  0  0  0
  -33.4760  -17.3420   12.5430 H   0  0  0  0  0  0  0  0  0  0  0  0
  -34.5870  -20.8100   15.9150 N   0  0  0  0  0  0  0  0  0  0  0  0
  -34.2600  -21.1360   15.0120 H   0  0  0  0  0  0  0  0  0  0  0  0
  -34.7090  -21.5540   16.5890 H   0  0  0  0  0  0  0  0  0  0  0  0
  -31.0470  -21.9610   16.4120 C   0  0  0  0  0  3  0  0  0  0  0  0
  -30.2300  -22.1220   14.9500 C   0  0  0  0  0  3  0  0  0  0  0  0
  -30.9170  -22.2090   13.4280 C   0  0  0  0  0  2  0  0  0  0  0  0
  -32.3560  -22.5660   13.0020 O   0  0  0  0  0  0  0  0  0  0  0  0
  -34.5120  -27.5040   17.9440 C   0  0  0  0  0  0  0  0  0  0  0  0
  -33.0940  -23.7640   13.2680 C   0  0  0  0  0  0  0  0  0  0  0  0
  -34.5540  -28.1980   15.5740 C   0  0  0  0  0  3  0  0  0  0  0  0
  -34.3550  -26.3140   13.8360 C   0  0  0  0  0  0  0  0  0  0  0  0
  -34.9080  -25.7320   16.1950 C   0  0  0  0  0  2  0  0  0  0  0  0
  -34.2990  -25.3400   14.8400 C   0  0  0  0  0  0  0  0  0  0  0  0
  -33.6810  -24.0730   14.5560 C   0  0  0  0  0  3  0  0  0  0  0  0
  -33.2380  -24.7700   12.2880 C   0  0  0  0  0  3  0  0  0  0  0  0
  -33.8400  -26.0200   12.5610 C   0  0  0  0  0  3  0  0  0  0  0  0
  -34.9800  -27.6570   14.1810 C   0  0  0  0  0  2  0  0  0  0  0  0
  -34.6350  -27.1370   16.6310 N   0  0  0  0  0  0  0  0  0  0  0  0
  -34.3580  -28.6890   18.2720 O   0  0  0  0  0  0  0  0  0  0  0  0
  -33.1530  -28.8490   15.4710 C   0  0  0  0  0  0  0  0  0  0  0  0
  -33.1020  -30.1880   15.3740 N   0  0  0  0  0  0  0  0  0  0  0  0
  -32.1370  -28.1480   15.4600 O   0  0  0  0  0  0  0  0  0  0  0  0
  -33.9740  -30.6990   15.3660 H   0  0  0  0  0  0  0  0  0  0  0  0
  -31.8090  -33.5640   15.4920 C   0  0  0  0  0  0  0  0  0  0  0  0
  -31.8870  -30.9930   15.2310 C   0  0  0  0  0  3  0  0  0  0  0  0
  -31.5580  -31.2410   13.7390 C   0  0  0  0  0  2  0  0  0  0  0  0
  -32.1420  -32.5520   13.2020 C   0  0  0  0  0  2  0  0  0  0  0  0
  -31.6040  -33.7430   13.9990 C   0  0  0  0  0  2  0  0  0  0  0  0
  -31.9520  -32.2740   16.0710 C   0  0  0  0  0  0  0  0  0  0  0  0
  -32.1580  -32.1690   17.4620 C   0  0  0  0  0  3  0  0  0  0  0  0
  -32.2230  -33.3200   18.2700 C   0  0  0  0  0  3  0  0  0  0  0  0
  -32.0680  -34.5920   17.6930 C   0  0  0  0  0  3  0  0  0  0  0  0
  -31.8580  -34.7110   16.3090 C   0  0  0  0  0  3  0  0  0  0  0  0
  -34.5770  -26.4540   19.0970 C   0  0  0  0  0  3  0  0  0  0  0  0
  -35.5410  -26.9420   20.0960 N   0  0  0  0  0  0  0  0  0  0  0  0
  -36.7250  -26.3710   20.3580 C   0  0  0  0  0  0  0  0  0  0  0  0
  -37.0930  -25.3210   19.8210 O   0  0  0  0  0  0  0  0  0  0  0  0
  -35.3320  -27.8300   20.5320 H   0  0  0  0  0  0  0  0  0  0  0  0
  -38.9310  -27.5410   20.6740 C   0  0  0  0  0  1  0  0  0  0  0  0
  -37.6470  -27.0710   21.3760 C   0  0  0  0  0  3  0  0  0  0  0  0
  -36.8910  -26.0090   23.4600 C   0  0  0  0  0  1  0  0  0  0  0  0
  -38.0010  -26.2170   22.5320 N   0  0  0  0  0  0  0  0  0  0  0  0
  -38.7770  -26.6190   23.0510 H   0  0  0  0  0  0  0  0  0  0  0  0
  -33.1750  -26.1820   19.7690 C   0  0  1  0  0  0  0  0  0  0  0  0
  -32.8670  -27.1110   20.9670 C   0  0  0  0  0  1  0  0  0  0  0  0
  -32.0380  -26.3590   18.7380 C   0  0  0  0  0  1  0  0  0  0  0  0
  -33.1000  -24.7180   20.2600 C   0  0  0  0  0  1  0  0  0  0  0  0
  1  2  1  0
  3  1  1  0
  4  6  1  0
  4  5  1  0
  5  7  1  0
  6  8  1  0
  8  7  2  0
  9  1  1  0
  9 10  1  0
  9  4  1  0
 10  5  1  0
 10 12  1  0
 11  6  2  0
 12 13  1  0
 13 20  2  0
 15 14  1  0
 16 17  1  0
 16 15  1  0
 17 24  1  0
 17 18  1  0
 18 19  1  0
 19 14  1  0
 19 13  1  0
 21 24  1  0
 22 23  1  0
 22 21  2  0
 23 25  2  0
 25 24  1  0
 26 27  1  0
 26 23  1  0
 28 27  2  0
 29 28  1  0
 30 29  2  0
 30 31  1  0
 31 26  2  0
 32 29  1  0
 33 38  1  0
 33 32  1  0
 34 33  2  0
 35 36  2  0
 35 34  1  0
 36 37  1  0
 37 38  2  0
 38 39  1  0
 40 36  1  0
 41 22  1  0
 42 41  1  0
 42 44  1  0
 43 41  2  0
 45 42  1  0
 46 21  1  0
 46 48  1  0
 47 46  1  0
 49  1  1  0
 50 49  2  0
 51 50  1  0
 52 54  1  0
 52 51  1  0
 53 64  2  0
 54 59  1  0
 55 65  1  0
 55 63  1  0
 56 62  1  0
 56 58  1  0
 57 63  1  0
 58 57  1  0
 59 58  2  0
 60 61  1  0
 60 54  2  0
 61 56  2  0
 62 55  1  0
 63 53  1  0
 66 65  1  0
 67 65  2  0
 68 66  1  0
 69 74  2  0
 69 78  1  0
 70 66  1  0
 70 74  1  0
 71 70  1  0
 72 71  1  0
 72 73  1  0
 73 69  1  0
 74 75  1  0
 75 76  2  0
 77 76  1  0
 78 77  2  0
 79 53  1  0
 79 89  1  0
 79 80  1  0
 80 81  1  0
 80 83  1  0
 81 85  1  0
 82 81  2  0
 85 84  1  0
 85 87  1  0
 87 88  1  0
 87 86  1  0
 89 92  1  1
 89 90  1  0
 91 89  1  0
M  ISO  4  12 100  13 100  51 101  52 101
M  END
>  <TORSDO>  (89) 
F 21

>  <SCORE>  (89) 
-3.542

>  <name>  (89) 
89

>  <ligand_id>  (89) 
89

>  <original_smiles>  (89) 
[H]c1c([H])c([H])c2c(c1[H])C([H])([H])C([H])([H])C([H])([H])C2([H])N([H])C(=O)C1([H])N(C(=O)C([H])(N([H])C(=O)C([H])(N([H])C([H])([H])[H])C([H])([H])[H])C(C([H])([H])[H])(C([H])([H])[H])C([H])([H])[H])C([H])([H])c2c([H])c(OC([H])([H])C([H])([H])C([H])([H])[N+]([H])([H])C3([H])C4=C(C([H])([H])C([H])([H])C4=O)C3([H])C([H])([H])C(=O)N3C([H])([H])C([H])([H])C([H])([H])C([H])(n4nc(-c5c([H])c([H])c(Oc6c([H])c([H])c(F)c([H])c6F)c([H])c5[H])c(C(=O)N([H])[H])c4N([H])[H])C3([H])[H])c([H])c([H])c2C1([H])[H]

>  <smiles>  (89) 
[H]c1c([H])c([H])c2c(c1[H])C([H])([H])C([H])([H])C([H])([H])C2([H])N([H])C(=O)C1([H])N(C(=O)C([H])(N([H])C(=O)C([H])(N([H])C([H])([H])[H])C([H])([H])[H])C(C([H])([H])[H])(C([H])([H])[H])C([H])([H])[H])C([H])([H])c2c([H])c(OC([H])([H])C([H])([H])C([H])([H])[N+]([H])([H])C3([H])C4=C(C([H])([H])C([H])([H])C4=O)C3([H])C([H])([H])C(=O)N3C([H])([H])C([H])([H])C([H])([H])C([H])(n4nc(-c5c([H])c([H])c(Oc6c([H])c([H])c(F)c([H])c6F)c([H])c5[H])c(C(=O)N([H])[H])c4N([H])[H])C3([H])[H])c([H])c([H])c2C1([H])[H]

$$$$
90:0:0
     RDKit          3D

 87 96  0  0  1  0  0  0  0  0999 V2000
  -26.7400  -20.2820   19.6470 C   0  0  0  0  0  2  0  0  0  0  0  0
  -27.7510  -20.8150   20.6290 C   0  0  0  0  0  3  0  0  0  0  0  0
  -27.8890  -19.3960   20.0870 C   0  0  0  0  0  3  0  0  0  0  0  0
  -29.1420  -21.2500   20.2250 C   0  0  0  0  0  3  0  0  0  0  0  0
  -29.3140  -19.5950   19.6100 C   0  0  0  0  0  3  0  0  0  0  0  0
  -29.0370  -22.9080   19.5800 C   0  0  0  0  0  3  0  0  0  0  0  0
  -28.2200  -24.3730   20.1840 C   0  0  0  0  0  3  0  0  0  0  0  0
  -28.3730  -25.9770   19.9180 O   0  0  0  0  0  0  0  0  0  0  0  0
  -24.5780  -31.6910   23.0310 C   0  0  0  0  0  0  0  0  0  0  0  0
  -27.3030  -27.0000   19.9320 C   0  0  0  0  0  0  0  0  0  0  0  0
  -23.4350  -30.2950   21.3540 C   0  0  0  0  0  3  0  0  0  0  0  0
  -24.9390  -28.7720   19.9110 C   0  0  0  0  0  0  0  0  0  0  0  0
  -25.9910  -30.6030   21.2230 C   0  0  0  0  0  2  0  0  0  0  0  0
  -26.1100  -29.2130   20.5410 C   0  0  0  0  0  0  0  0  0  0  0  0
  -27.2900  -28.3510   20.5240 C   0  0  0  0  0  3  0  0  0  0  0  0
  -26.0990  -26.6940   19.2620 C   0  0  0  0  0  3  0  0  0  0  0  0
  -24.9550  -27.5320   19.2510 C   0  0  0  0  0  3  0  0  0  0  0  0
  -23.6920  -29.6490   19.9650 C   0  0  0  0  0  2  0  0  0  0  0  0
  -24.6880  -30.8880   21.9240 N   0  0  0  0  0  0  0  0  0  0  0  0
  -23.4780  -31.9330   23.5540 O   0  0  0  0  0  0  0  0  0  0  0  0
  -22.7700  -29.2550   22.2930 C   0  0  0  0  0  0  0  0  0  0  0  0
  -21.4420  -29.0710   22.1740 N   0  0  0  0  0  0  0  0  0  0  0  0
  -23.4540  -28.6150   23.0950 O   0  0  0  0  0  0  0  0  0  0  0  0
  -20.9420  -29.6420   21.5070 H   0  0  0  0  0  0  0  0  0  0  0  0
  -18.0820  -27.8080   22.6890 C   0  0  0  0  0  0  0  0  0  0  0  0
  -20.6420  -28.0950   22.9220 C   0  0  0  0  0  3  0  0  0  0  0  0
  -20.7510  -26.6870   22.2920 C   0  0  0  0  0  2  0  0  0  0  0  0
  -19.6370  -26.3890   21.2850 C   0  0  0  0  0  2  0  0  0  0  0  0
  -18.2640  -26.4890   21.9560 C   0  0  0  0  0  2  0  0  0  0  0  0
  -19.1980  -28.5690   23.1290 C   0  0  0  0  0  0  0  0  0  0  0  0
  -18.9710  -29.8010   23.7800 C   0  0  0  0  0  3  0  0  0  0  0  0
  -17.6610  -30.2740   23.9920 C   0  0  0  0  0  3  0  0  0  0  0  0
  -16.5610  -29.5090   23.5660 C   0  0  0  0  0  3  0  0  0  0  0  0
  -16.7720  -28.2790   22.9200 C   0  0  0  0  0  3  0  0  0  0  0  0
  -25.8260  -32.3560   23.6850 C   0  0  0  0  0  3  0  0  0  0  0  0
  -26.3470  -31.5780   24.9570 C   0  0  1  0  0  0  0  0  0  0  0  0
  -25.2480  -31.2960   26.0080 C   0  0  0  0  0  1  0  0  0  0  0  0
  -26.9700  -30.2210   24.5560 C   0  0  0  0  0  1  0  0  0  0  0  0
  -27.4690  -32.3910   25.6440 C   0  0  0  0  0  1  0  0  0  0  0  0
  -25.4640  -33.7360   24.0480 N   0  0  0  0  0  0  0  0  0  0  0  0
  -25.7690  -34.8250   23.3290 C   0  0  0  0  0  0  0  0  0  0  0  0
  -26.4470  -34.7730   22.3000 O   0  0  0  0  0  0  0  0  0  0  0  0
  -24.8590  -33.8470   24.8490 H   0  0  0  0  0  0  0  0  0  0  0  0
  -23.9920  -36.5830   23.0220 C   0  0  0  0  0  1  0  0  0  0  0  0
  -25.2400  -36.1860   23.8270 C   0  0  0  0  0  3  0  0  0  0  0  0
  -27.3390  -37.1130   24.7030 C   0  0  0  0  0  1  0  0  0  0  0  0
  -26.2420  -37.2720   23.7520 N   0  0  0  0  0  0  0  0  0  0  0  0
  -25.8070  -38.1750   23.9170 H   0  0  0  0  0  0  0  0  0  0  0  0
  -30.2500  -18.1350   20.0080 C   0  0  0  0  0  2  0  0  0  0  0  0
  -30.6730  -15.2600   19.7640 C   0  0  0  0  0  0  0  0  0  0  0  0
  -30.5440  -12.8200   18.9260 C   0  0  0  0  0  2  0  0  0  0  0  0
  -29.5350  -12.6200   17.7690 C   0  0  0  0  0  2  0  0  0  0  0  0
  -28.1160  -12.3860   18.3170 C   0  0  0  0  0  2  0  0  0  0  0  0
  -27.7600  -13.3760   19.4550 C   0  0  0  0  0  3  0  0  0  0  0  0
  -28.8870  -13.5180   20.4970 C   0  0  0  0  0  2  0  0  0  0  0  0
  -30.0790  -13.9750   19.7670 N   0  0  0  0  0  0  0  0  0  0  0  0
  -31.8800  -15.2520   19.4870 O   0  0  0  0  0  0  0  0  0  0  0  0
  -29.9240  -16.5220   19.8700 N   0  0  0  0  0  0  0  0  0  0  0  0
  -28.9380  -16.3340   19.9770 H   0  0  0  0  0  0  0  0  0  0  0  0
  -25.4800  -13.9860   20.4250 C   0  0  0  0  0  0  0  0  0  0  0  0
  -24.4260  -13.2290   20.8530 C   0  0  0  0  0  0  0  0  0  0  0  0
  -24.8410  -11.8670   20.7340 C   0  0  0  0  0  0  0  0  0  0  0  0
  -26.4680  -13.0870   20.0630 N   0  0  0  0  0  0  0  0  0  0  0  0
  -26.1010  -11.8040   20.3160 N   0  0  0  0  0  0  0  0  0  0  0  0
  -24.0890  -10.6220   20.9350 C   0  0  0  0  0  0  0  0  0  0  0  0
  -24.5380   -9.6200   21.8240 C   0  0  0  0  0  3  0  0  0  0  0  0
  -23.7840   -8.4430   22.0160 C   0  0  0  0  0  3  0  0  0  0  0  0
  -22.5650   -8.2580   21.3210 C   0  0  0  0  0  0  0  0  0  0  0  0
  -22.1330   -9.2480   20.4210 C   0  0  0  0  0  3  0  0  0  0  0  0
  -22.8880  -10.4180   20.2260 C   0  0  0  0  0  3  0  0  0  0  0  0
  -21.7800   -7.1350   21.4250 O   0  0  0  0  0  0  0  0  0  0  0  0
  -21.7460   -6.3860   22.5740 C   0  0  0  0  0  0  0  0  0  0  0  0
  -21.3460   -6.9360   23.8110 C   0  0  0  0  0  3  0  0  0  0  0  0
  -21.2570   -6.1140   24.9530 C   0  0  0  0  0  3  0  0  0  0  0  0
  -21.5580   -4.7420   24.8570 C   0  0  0  0  0  0  0  0  0  0  0  0
  -21.9510   -4.1910   23.6250 C   0  0  0  0  0  3  0  0  0  0  0  0
  -22.0410   -5.0100   22.4860 C   0  0  0  0  0  0  0  0  0  0  0  0
  -22.3990   -4.4700   21.2960 F   0  0  0  0  0  0  0  0  0  0  0  0
  -21.4670   -3.9500   25.9510 F   0  0  0  0  0  0  0  0  0  0  0  0
  -23.0710  -13.7400   21.2500 C   0  0  0  0  0  0  0  0  0  0  0  0
  -22.3940  -13.0400   22.1530 N   0  0  0  0  0  0  0  0  0  0  0  0
  -22.6290  -14.7940   20.7960 O   0  0  0  0  0  0  0  0  0  0  0  0
  -22.7660  -12.1870   22.5410 H   0  0  0  0  0  0  0  0  0  0  0  0
  -21.4880  -13.3640   22.4610 H   0  0  0  0  0  0  0  0  0  0  0  0
  -25.6730  -15.3570   20.2850 N   0  0  0  0  0  0  0  0  0  0  0  0
  -24.9360  -16.0250   20.4770 H   0  0  0  0  0  0  0  0  0  0  0  0
  -26.4910  -15.7830   19.8690 H   0  0  0  0  0  0  0  0  0  0  0  0
  2  1  1  0
  3  1  1  0
  3  2  1  0
  4  6  1  0
  4  2  1  0
  5 49  1  0
  5  3  1  0
  5  4  1  0
  6  7  2  0
  8 10  1  0
  8  7  1  0
  9 20  2  0
 10 15  1  0
 11 19  1  0
 11 21  1  0
 12 18  1  0
 12 14  1  0
 13 19  1  0
 14 13  1  0
 15 14  2  0
 16 10  2  0
 17 16  1  0
 17 12  2  0
 18 11  1  0
 19  9  1  0
 21 23  2  0
 22 21  1  0
 24 22  1  0
 25 34  2  0
 25 30  1  0
 26 22  1  0
 26 30  1  0
 27 26  1  0
 28 29  1  0
 28 27  1  0
 29 25  1  0
 30 31  2  0
 31 32  1  0
 33 32  2  0
 34 33  1  0
 35  9  1  0
 35 40  1  0
 35 36  1  0
 36 39  1  1
 36 37  1  0
 38 36  1  0
 40 43  1  0
 41 45  1  0
 41 40  1  0
 42 41  2  0
 45 44  1  0
 47 45  1  0
 47 48  1  0
 47 46  1  0
 50 56  1  0
 50 58  1  0
 51 56  1  0
 52 53  1  0
 52 51  1  0
 54 53  1  0
 54 63  1  0
 54 55  1  0
 56 55  1  0
 57 50  2  0
 58 59  1  0
 58 49  1  0
 60 61  2  0
 61 80  1  0
 62 61  1  0
 62 65  1  0
 63 64  1  0
 63 60  1  0
 64 62  2  0
 65 66  1  0
 66 67  2  0
 68 71  1  0
 68 67  1  0
 69 68  2  0
 70 69  1  0
 70 65  2  0
 71 72  1  0
 72 73  1  0
 73 74  2  0
 75 74  1  0
 75 79  1  0
 76 75  2  0
 77 72  2  0
 77 76  1  0
 78 77  1  0
 80 81  1  0
 81 84  1  0
 81 83  1  0
 82 80  2  0
 85 60  1  0
 85 86  1  0
 87 85  1  0
M  ISO  4   7 101   8 101  50 100  58 100
M  END
>  <TORSDO>  (90) 
F 19

>  <SCORE>  (90) 
-14.420

>  <name>  (90) 
90

>  <ligand_id>  (90) 
90

>  <original_smiles>  (90) 
[H]c1c([H])c([H])c2c(c1[H])C([H])([H])C([H])([H])C([H])([H])C2([H])N([H])C(=O)C1([H])N(C(=O)C([H])(N([H])C(=O)C([H])(N([H])C([H])([H])[H])C([H])([H])[H])C(C([H])([H])[H])(C([H])([H])[H])C([H])([H])[H])C([H])([H])c2c([H])c(OC([H])([H])C([H])([H])C3([H])C([H])(C([H])([H])N([H])C(=O)N4C([H])([H])C([H])([H])C([H])([H])C([H])(n5nc(-c6c([H])c([H])c(Oc7c([H])c([H])c(F)c([H])c7F)c([H])c6[H])c(C(=O)N([H])[H])c5N([H])[H])C4([H])[H])C4([H])C([H])([H])C34[H])c([H])c([H])c2C1([H])[H]

>  <smiles>  (90) 
[H]c1c([H])c([H])c2c(c1[H])C([H])([H])C([H])([H])C([H])([H])C2([H])N([H])C(=O)C1([H])N(C(=O)C([H])(N([H])C(=O)C([H])(N([H])C([H])([H])[H])C([H])([H])[H])C(C([H])([H])[H])(C([H])([H])[H])C([H])([H])[H])C([H])([H])c2c([H])c(OC([H])([H])C([H])([H])C3([H])C([H])(C([H])([H])N([H])C(=O)N4C([H])([H])C([H])([H])C([H])([H])C([H])(n5nc(-c6c([H])c([H])c(Oc7c([H])c([H])c(F)c([H])c7F)c([H])c6[H])c(C(=O)N([H])[H])c5N([H])[H])C4([H])[H])C4([H])C([H])([H])C34[H])c([H])c([H])c2C1([H])[H]

$$$$
91:0:0
     RDKit          3D

 88 97  0  0  1  0  0  0  0  0999 V2000
  -28.3140  -19.3720   19.1870 C   0  0  0  0  0  2  0  0  0  0  0  0
  -28.5980  -20.9310   19.3600 C   0  0  0  0  0  3  0  0  0  0  0  0
  -29.4030  -20.5150   20.5730 C   0  0  0  0  0  3  0  0  0  0  0  0
  -28.3700  -22.0490   20.4640 C   0  0  0  0  0  3  0  0  0  0  0  0
  -29.5720  -18.8000   19.9210 C   0  0  1  0  0  0  0  0  0  0  0  0
  -30.3030  -15.7220   20.2660 C   0  0  0  0  0  0  0  0  0  0  0  0
  -30.4020  -13.1740   19.4650 C   0  0  0  0  0  2  0  0  0  0  0  0
  -29.5140  -12.8040   18.2440 C   0  0  0  0  0  2  0  0  0  0  0  0
  -28.0880  -12.4540   18.6930 C   0  0  0  0  0  2  0  0  0  0  0  0
  -27.5830  -13.4410   19.7700 C   0  0  0  0  0  3  0  0  0  0  0  0
  -28.6130  -13.7350   20.8860 C   0  0  0  0  0  2  0  0  0  0  0  0
  -29.7910  -14.3520   20.2380 N   0  0  0  0  0  0  0  0  0  0  0  0
  -31.5210  -15.6700   20.0110 O   0  0  0  0  0  0  0  0  0  0  0  0
  -29.5410  -17.0790   20.3940 N   0  0  0  0  0  0  0  0  0  0  0  0
  -28.6090  -16.8550   20.7070 H   0  0  0  0  0  0  0  0  0  0  0  0
  -25.2270  -13.9600   20.5670 C   0  0  0  0  0  0  0  0  0  0  0  0
  -24.1690  -13.1740   20.9230 C   0  0  0  0  0  0  0  0  0  0  0  0
  -24.6360  -11.8250   20.8540 C   0  0  0  0  0  0  0  0  0  0  0  0
  -26.2670  -13.0930   20.2900 N   0  0  0  0  0  0  0  0  0  0  0  0
  -25.9270  -11.7990   20.5300 N   0  0  0  0  0  0  0  0  0  0  0  0
  -23.9060  -10.5590   21.0170 C   0  0  0  0  0  0  0  0  0  0  0  0
  -24.3180   -9.5820   21.9490 C   0  0  0  0  0  3  0  0  0  0  0  0
  -23.5830   -8.3860   22.1050 C   0  0  0  0  0  3  0  0  0  0  0  0
  -22.4230   -8.1590   21.3270 C   0  0  0  0  0  0  0  0  0  0  0  0
  -22.0320   -9.1250   20.3830 C   0  0  0  0  0  3  0  0  0  0  0  0
  -22.7660  -10.3110   20.2260 C   0  0  0  0  0  3  0  0  0  0  0  0
  -21.6640   -7.0160   21.3890 O   0  0  0  0  0  0  0  0  0  0  0  0
  -21.5590   -6.2800   22.5420 C   0  0  0  0  0  0  0  0  0  0  0  0
  -21.0280   -6.8300   23.7310 C   0  0  0  0  0  3  0  0  0  0  0  0
  -20.8770   -6.0210   24.8740 C   0  0  0  0  0  3  0  0  0  0  0  0
  -21.2430   -4.6630   24.8310 C   0  0  0  0  0  0  0  0  0  0  0  0
  -21.7640   -4.1100   23.6470 C   0  0  0  0  0  3  0  0  0  0  0  0
  -21.9200   -4.9180   22.5050 C   0  0  0  0  0  0  0  0  0  0  0  0
  -22.4040   -4.3770   21.3610 F   0  0  0  0  0  0  0  0  0  0  0  0
  -21.0900   -3.8830   25.9260 F   0  0  0  0  0  0  0  0  0  0  0  0
  -22.7760  -13.6470   21.2080 C   0  0  0  0  0  0  0  0  0  0  0  0
  -22.0430  -12.9290   22.0510 N   0  0  0  0  0  0  0  0  0  0  0  0
  -22.3430  -14.6900   20.7180 O   0  0  0  0  0  0  0  0  0  0  0  0
  -22.4090  -12.0870   22.4700 H   0  0  0  0  0  0  0  0  0  0  0  0
  -21.1070  -13.2270   22.2790 H   0  0  0  0  0  0  0  0  0  0  0  0
  -25.3860  -15.3350   20.4220 N   0  0  0  0  0  0  0  0  0  0  0  0
  -24.6130  -15.9790   20.5540 H   0  0  0  0  0  0  0  0  0  0  0  0
  -26.2190  -15.7840   20.0590 H   0  0  0  0  0  0  0  0  0  0  0  0
  -30.8260  -18.8540   19.0660 C   0  0  0  0  0  0  0  0  0  0  0  0
  -30.7010  -18.2820   17.6590 C   0  0  0  0  0  1  0  0  0  0  0  0
  -31.9230  -19.2980   19.4100 O   0  0  0  0  0  0  0  0  0  0  0  0
  -28.2570  -23.9010   19.9610 C   0  0  0  0  0  2  0  0  0  0  0  0
  -28.1250  -25.5860   20.4650 O   0  0  0  0  0  0  0  0  0  0  0  0
  -24.5760  -31.8690   23.2480 C   0  0  0  0  0  0  0  0  0  0  0  0
  -27.1550  -26.7890   20.3100 C   0  0  0  0  0  0  0  0  0  0  0  0
  -23.4090  -30.4500   21.6130 C   0  0  0  0  0  3  0  0  0  0  0  0
  -24.8760  -28.8050   20.2130 C   0  0  0  0  0  0  0  0  0  0  0  0
  -25.9850  -30.6100   21.5090 C   0  0  0  0  0  2  0  0  0  0  0  0
  -26.0600  -29.1730   20.8630 C   0  0  0  0  0  0  0  0  0  0  0  0
  -27.1770  -28.1880   20.8870 C   0  0  0  0  0  3  0  0  0  0  0  0
  -25.9450  -26.6340   19.5870 C   0  0  0  0  0  3  0  0  0  0  0  0
  -24.8590  -27.5620   19.5510 C   0  0  0  0  0  3  0  0  0  0  0  0
  -23.6620  -29.7460   20.2470 C   0  0  0  0  0  2  0  0  0  0  0  0
  -24.6800  -31.0100   22.1760 N   0  0  0  0  0  0  0  0  0  0  0  0
  -23.4770  -32.1660   23.7470 O   0  0  0  0  0  0  0  0  0  0  0  0
  -22.6940  -29.4750   22.5870 C   0  0  0  0  0  0  0  0  0  0  0  0
  -21.3650  -29.3070   22.4500 N   0  0  0  0  0  0  0  0  0  0  0  0
  -23.3460  -28.8710   23.4390 O   0  0  0  0  0  0  0  0  0  0  0  0
  -20.8860  -29.8470   21.7420 H   0  0  0  0  0  0  0  0  0  0  0  0
  -17.9800  -28.0750   22.9480 C   0  0  0  0  0  0  0  0  0  0  0  0
  -20.5380  -28.3700   23.2220 C   0  0  0  0  0  3  0  0  0  0  0  0
  -20.6540  -26.9340   22.6580 C   0  0  0  0  0  2  0  0  0  0  0  0
  -19.5620  -26.5940   21.6400 C   0  0  0  0  0  2  0  0  0  0  0  0
  -18.1740  -26.7270   22.2750 C   0  0  0  0  0  2  0  0  0  0  0  0
  -19.0900  -28.8530   23.3770 C   0  0  0  0  0  0  0  0  0  0  0  0
  -18.8500  -30.1110   23.9720 C   0  0  0  0  0  3  0  0  0  0  0  0
  -17.5380  -30.5940   24.1350 C   0  0  0  0  0  3  0  0  0  0  0  0
  -16.4450  -29.8140   23.7180 C   0  0  0  0  0  3  0  0  0  0  0  0
  -16.6670  -28.5560   23.1310 C   0  0  0  0  0  3  0  0  0  0  0  0
  -25.8290  -32.5340   23.8950 C   0  0  0  0  0  3  0  0  0  0  0  0
  -25.5030  -33.9440   24.1880 N   0  0  0  0  0  0  0  0  0  0  0  0
  -25.8660  -34.9930   23.4380 C   0  0  0  0  0  0  0  0  0  0  0  0
  -26.5670  -34.8760   22.4290 O   0  0  0  0  0  0  0  0  0  0  0  0
  -24.8800  -34.1090   24.9650 H   0  0  0  0  0  0  0  0  0  0  0  0
  -24.1800  -36.8180   23.0070 C   0  0  0  0  0  1  0  0  0  0  0  0
  -25.3800  -36.3940   23.8700 C   0  0  0  0  0  3  0  0  0  0  0  0
  -27.4840  -37.2670   24.7930 C   0  0  0  0  0  1  0  0  0  0  0  0
  -26.4310  -37.4330   23.7940 N   0  0  0  0  0  0  0  0  0  0  0  0
  -26.0310  -38.3610   23.9050 H   0  0  0  0  0  0  0  0  0  0  0  0
  -26.2980  -31.8080   25.2180 C   0  0  1  0  0  0  0  0  0  0  0  0
  -25.1710  -31.6160   26.2600 C   0  0  0  0  0  1  0  0  0  0  0  0
  -26.8860  -30.4150   24.9060 C   0  0  0  0  0  1  0  0  0  0  0  0
  -27.4320  -32.6210   25.8860 C   0  0  0  0  0  1  0  0  0  0  0  0
  1  5  1  0
  2  1  1  0
  2  4  1  0
  2  3  1  0
  4  3  1  0
  5 14  1  1
  5  3  1  0
  6 14  1  0
  7 12  1  0
  8  9  1  0
  8  7  1  0
  9 10  1  0
 10 19  1  0
 10 11  1  0
 12  6  1  0
 12 11  1  0
 13  6  2  0
 14 15  1  0
 16 17  2  0
 17 36  1  0
 18 17  1  0
 18 21  1  0
 19 20  1  0
 19 16  1  0
 20 18  2  0
 21 22  1  0
 22 23  2  0
 24 27  1  0
 24 23  1  0
 25 24  2  0
 26 25  1  0
 26 21  2  0
 27 28  1  0
 28 29  1  0
 29 30  2  0
 31 30  1  0
 31 35  1  0
 32 31  2  0
 33 28  2  0
 33 32  1  0
 34 33  1  0
 36 37  1  0
 37 40  1  0
 37 39  1  0
 38 36  2  0
 41 42  1  0
 41 16  1  0
 43 41  1  0
 44 46  2  0
 44  5  1  0
 45 44  1  0
 47  4  1  0
 47 48  1  0
 49 60  2  0
 49 75  1  0
 50 48  1  0
 50 55  1  0
 51 59  1  0
 51 61  1  0
 52 58  1  0
 52 54  1  0
 53 59  1  0
 54 55  2  0
 54 53  1  0
 56 50  2  0
 57 56  1  0
 57 52  2  0
 58 51  1  0
 59 49  1  0
 61 63  2  0
 62 61  1  0
 62 66  1  0
 64 62  1  0
 65 74  2  0
 65 70  1  0
 66 70  1  0
 67 66  1  0
 68 69  1  0
 68 67  1  0
 69 65  1  0
 70 71  2  0
 71 72  1  0
 73 72  2  0
 74 73  1  0
 75 76  1  0
 75 85  1  0
 76 79  1  0
 77 81  1  0
 77 76  1  0
 78 77  2  0
 80 81  1  0
 83 81  1  0
 83 84  1  0
 83 82  1  0
 85 88  1  1
 85 86  1  0
 87 85  1  0
M  ISO  4   6 100  14 100  47 101  48 101
M  END
>  <TORSDO>  (91) 
F 18

>  <SCORE>  (91) 
-16.092

>  <name>  (91) 
91

>  <ligand_id>  (91) 
91

>  <original_smiles>  (91) 
[H]c1c([H])c([H])c2c(c1[H])C([H])([H])C([H])([H])C([H])([H])C2([H])N([H])C(=O)C1([H])N(C(=O)C([H])(N([H])C(=O)C([H])(N([H])C([H])([H])[H])C([H])([H])[H])C(C([H])([H])[H])(C([H])([H])[H])C([H])([H])[H])C([H])([H])c2c([H])c(OC([H])([H])C3([H])C4([H])C([H])([H])C(C(=O)C([H])([H])[H])(N([H])C(=O)N5C([H])([H])C([H])([H])C([H])([H])C([H])(n6nc(-c7c([H])c([H])c(Oc8c([H])c([H])c(F)c([H])c8F)c([H])c7[H])c(C(=O)N([H])[H])c6N([H])[H])C5([H])[H])C34[H])c([H])c([H])c2C1([H])[H]

>  <smiles>  (91) 
[H]c1c([H])c([H])c2c(c1[H])C([H])([H])C([H])([H])C([H])([H])C2([H])N([H])C(=O)C1([H])N(C(=O)C([H])(N([H])C(=O)C([H])(N([H])C([H])([H])[H])C([H])([H])[H])C(C([H])([H])[H])(C([H])([H])[H])C([H])([H])[H])C([H])([H])c2c([H])c(OC([H])([H])C3([H])C4([H])C([H])([H])C(C(=O)C([H])([H])[H])(N([H])C(=O)N5C([H])([H])C([H])([H])C([H])([H])C([H])(n6nc(-c7c([H])c([H])c(Oc8c([H])c([H])c(F)c([H])c8F)c([H])c7[H])c(C(=O)N([H])[H])c6N([H])[H])C5([H])[H])C34[H])c([H])c([H])c2C1([H])[H]

$$$$
92:0:0
     RDKit          3D

 86 93  0  0  1  0  0  0  0  0999 V2000
  -28.9460  -22.2600   20.2660 C   0  0  0  0  0  3  0  0  0  0  0  0
  -28.7250  -20.3440   20.3040 C   0  0  0  0  0  2  0  0  0  0  0  0
  -29.7820  -18.7380   20.1840 C   0  0  0  0  0  0  0  0  0  0  0  0
  -30.2830  -15.6540   20.1410 C   0  0  0  0  0  0  0  0  0  0  0  0
  -30.3460  -13.1400   19.2770 C   0  0  0  0  0  2  0  0  0  0  0  0
  -29.4130  -12.7740   18.0880 C   0  0  0  0  0  2  0  0  0  0  0  0
  -28.0030  -12.4200   18.5860 C   0  0  0  0  0  2  0  0  0  0  0  0
  -27.5310  -13.4000   19.6830 C   0  0  0  0  0  3  0  0  0  0  0  0
  -28.5980  -13.6830   20.7640 C   0  0  0  0  0  2  0  0  0  0  0  0
  -29.7520  -14.3010   20.0730 N   0  0  0  0  0  0  0  0  0  0  0  0
  -31.5120  -15.6020   19.9440 O   0  0  0  0  0  0  0  0  0  0  0  0
  -29.5210  -16.9980   20.1920 N   0  0  0  0  0  4  0  0  0  0  0  0
  -28.5380  -16.8030   20.2960 H   0  0  0  0  0  0  0  0  0  0  0  0
  -25.1930  -13.9030   20.5430 C   0  0  0  0  0  0  0  0  0  0  0  0
  -24.1520  -13.1080   20.9270 C   0  0  0  0  0  0  0  0  0  0  0  0
  -24.6300  -11.7630   20.8480 C   0  0  0  0  0  0  0  0  0  0  0  0
  -26.2330  -13.0460   20.2420 N   0  0  0  0  0  0  0  0  0  0  0  0
  -25.9110  -11.7490   20.4930 N   0  0  0  0  0  0  0  0  0  0  0  0
  -23.9170  -10.4910   21.0300 C   0  0  0  0  0  0  0  0  0  0  0  0
  -24.3560   -9.5230   21.9580 C   0  0  0  0  0  3  0  0  0  0  0  0
  -23.6380   -8.3190   22.1320 C   0  0  0  0  0  3  0  0  0  0  0  0
  -22.4670   -8.0760   21.3760 C   0  0  0  0  0  0  0  0  0  0  0  0
  -22.0470   -9.0330   20.4360 C   0  0  0  0  0  3  0  0  0  0  0  0
  -22.7650  -10.2270   20.2610 C   0  0  0  0  0  3  0  0  0  0  0  0
  -21.7210   -6.9250   21.4580 O   0  0  0  0  0  0  0  0  0  0  0  0
  -21.6410   -6.2000   22.6200 C   0  0  0  0  0  0  0  0  0  0  0  0
  -21.1380   -6.7590   23.8140 C   0  0  0  0  0  3  0  0  0  0  0  0
  -21.0080   -5.9590   24.9680 C   0  0  0  0  0  3  0  0  0  0  0  0
  -21.3720   -4.6010   24.9260 C   0  0  0  0  0  0  0  0  0  0  0  0
  -21.8680   -4.0400   23.7360 C   0  0  0  0  0  3  0  0  0  0  0  0
  -21.9990   -4.8370   22.5860 C   0  0  0  0  0  0  0  0  0  0  0  0
  -22.4570   -4.2860   21.4360 F   0  0  0  0  0  0  0  0  0  0  0  0
  -21.2410   -3.8290   26.0320 F   0  0  0  0  0  0  0  0  0  0  0  0
  -22.7610  -13.5680   21.2480 C   0  0  0  0  0  0  0  0  0  0  0  0
  -22.0650  -12.8540   22.1250 N   0  0  0  0  0  0  0  0  0  0  0  0
  -22.3000  -14.5990   20.7580 O   0  0  0  0  0  0  0  0  0  0  0  0
  -22.4530  -12.0200   22.5440 H   0  0  0  0  0  0  0  0  0  0  0  0
  -21.1330  -13.1430   22.3830 H   0  0  0  0  0  0  0  0  0  0  0  0
  -25.3360  -15.2790   20.3910 N   0  0  0  0  0  0  0  0  0  0  0  0
  -24.5640  -15.9200   20.5400 H   0  0  0  0  0  0  0  0  0  0  0  0
  -26.1580  -15.7330   20.0160 H   0  0  0  0  0  0  0  0  0  0  0  0
  -31.0390  -18.9180   21.0320 C   0  0  0  0  0  0  0  0  0  0  0  0
  -30.9920  -18.5470   22.2220 O   0  0  0  0  0  1  0  0  0  0  0  0
  -32.0590  -19.4060   20.5100 O   0  0  0  0  0  0  0  0  0  0  0  0
  -27.9380  -23.9010   20.2320 C   0  0  0  0  0  3  0  0  0  0  0  0
  -28.1340  -25.6350   20.2940 O   0  0  0  0  0  0  0  0  0  0  0  0
  -24.6350  -31.8870   23.2190 C   0  0  0  0  0  0  0  0  0  0  0  0
  -27.1500  -26.8230   20.2460 C   0  0  0  0  0  0  0  0  0  0  0  0
  -23.4390  -30.4840   21.5910 C   0  0  0  0  0  3  0  0  0  0  0  0
  -24.8790  -28.8320   20.1840 C   0  0  0  0  0  0  0  0  0  0  0  0
  -26.0150  -30.6330   21.4570 C   0  0  0  0  0  2  0  0  0  0  0  0
  -26.0760  -29.2000   20.8080 C   0  0  0  0  0  0  0  0  0  0  0  0
  -27.1990  -28.2230   20.8060 C   0  0  0  0  0  3  0  0  0  0  0  0
  -25.9170  -26.6530   19.5680 C   0  0  0  0  0  3  0  0  0  0  0  0
  -24.8350  -27.5830   19.5400 C   0  0  0  0  0  3  0  0  0  0  0  0
  -23.6720  -29.7800   20.2240 C   0  0  0  0  0  2  0  0  0  0  0  0
  -24.7200  -31.0340   22.1410 N   0  0  0  0  0  0  0  0  0  0  0  0
  -23.5450  -32.1900   23.7320 O   0  0  0  0  0  0  0  0  0  0  0  0
  -22.7270  -29.5110   22.5690 C   0  0  0  0  0  0  0  0  0  0  0  0
  -21.3950  -29.3510   22.4420 N   0  0  0  0  0  0  0  0  0  0  0  0
  -23.3830  -28.8960   23.4120 O   0  0  0  0  0  0  0  0  0  0  0  0
  -20.9140  -29.8980   21.7400 H   0  0  0  0  0  0  0  0  0  0  0  0
  -18.0100  -28.1380   22.9590 C   0  0  0  0  0  0  0  0  0  0  0  0
  -20.5680  -28.4210   23.2220 C   0  0  0  0  0  3  0  0  0  0  0  0
  -20.6750  -26.9820   22.6620 C   0  0  0  0  0  2  0  0  0  0  0  0
  -19.5780  -26.6450   21.6480 C   0  0  0  0  0  2  0  0  0  0  0  0
  -18.1940  -26.7870   22.2890 C   0  0  0  0  0  2  0  0  0  0  0  0
  -19.1230  -28.9120   23.3810 C   0  0  0  0  0  0  0  0  0  0  0  0
  -18.8930  -30.1740   23.9720 C   0  0  0  0  0  3  0  0  0  0  0  0
  -17.5840  -30.6630   24.1400 C   0  0  0  0  0  3  0  0  0  0  0  0
  -16.4860  -29.8880   23.7300 C   0  0  0  0  0  3  0  0  0  0  0  0
  -16.6990  -28.6270   23.1460 C   0  0  0  0  0  3  0  0  0  0  0  0
  -25.9030  -32.5350   23.8520 C   0  0  0  0  0  3  0  0  0  0  0  0
  -26.4070  -31.7760   25.1430 C   0  0  1  0  0  0  0  0  0  0  0  0
  -25.3040  -31.5520   26.2050 C   0  0  0  0  0  1  0  0  0  0  0  0
  -26.9910  -30.3920   24.7800 C   0  0  0  0  0  1  0  0  0  0  0  0
  -27.5550  -32.5740   25.8050 C   0  0  0  0  0  1  0  0  0  0  0  0
  -25.5820  -33.9360   24.1900 N   0  0  0  0  0  0  0  0  0  0  0  0
  -25.8780  -35.0000   23.4310 C   0  0  0  0  0  0  0  0  0  0  0  0
  -26.5080  -34.9070   22.3740 O   0  0  0  0  0  0  0  0  0  0  0  0
  -25.0160  -34.0800   25.0120 H   0  0  0  0  0  0  0  0  0  0  0  0
  -24.1110  -36.7810   23.1870 C   0  0  0  0  0  1  0  0  0  0  0  0
  -25.4050  -36.3870   23.9180 C   0  0  0  0  0  3  0  0  0  0  0  0
  -27.5710  -37.3100   24.6200 C   0  0  0  0  0  1  0  0  0  0  0  0
  -26.4160  -37.4530   23.7390 N   0  0  0  0  0  0  0  0  0  0  0  0
  -26.0060  -38.3690   23.9000 H   0  0  0  0  0  0  0  0  0  0  0  0
  1  2  1  0
  3 12  2  0
  3  2  1  0
  3 42  1  0
  4 12  1  0
  5 10  1  0
  6  7  1  0
  6  5  1  0
  8  7  1  0
  8 17  1  0
  8  9  1  0
 10  4  1  0
 10  9  1  0
 11  4  2  0
 12 13  1  0
 14 15  2  0
 15 34  1  0
 16 15  1  0
 16 19  1  0
 17 18  1  0
 17 14  1  0
 18 16  2  0
 19 20  1  0
 20 21  2  0
 22 25  1  0
 22 21  1  0
 23 22  2  0
 24 23  1  0
 24 19  2  0
 25 26  1  0
 26 27  1  0
 27 28  2  0
 29 28  1  0
 29 33  1  0
 30 29  2  0
 31 26  2  0
 31 30  1  0
 32 31  1  0
 34 35  1  0
 35 38  1  0
 35 37  1  0
 36 34  2  0
 39 40  1  0
 39 14  1  0
 41 39  1  0
 42 43  1  0
 44 42  2  0
 45  1  2  0
 45 46  1  0
 47 58  2  0
 48 46  1  0
 48 53  1  0
 49 57  1  0
 49 59  1  0
 50 56  1  0
 50 52  1  0
 51 57  1  0
 52 51  1  0
 53 52  2  0
 54 48  2  0
 55 54  1  0
 55 50  2  0
 56 49  1  0
 57 47  1  0
 59 61  2  0
 60 59  1  0
 62 60  1  0
 63 72  2  0
 63 68  1  0
 64 60  1  0
 64 68  1  0
 65 64  1  0
 66 67  1  0
 66 65  1  0
 67 63  1  0
 68 69  2  0
 69 70  1  0
 71 70  2  0
 72 71  1  0
 73 47  1  0
 73 78  1  0
 73 74  1  0
 74 77  1  1
 74 75  1  0
 76 74  1  0
 78 81  1  0
 79 83  1  0
 79 78  1  0
 80 79  2  0
 83 82  1  0
 85 86  1  0
 85 83  1  0
 85 84  1  0
M  ISO  4   4 100  12 100  45 101  46 101
M  END
>  <TORSDO>  (92) 
F 20

>  <SCORE>  (92) 
-16.338

>  <name>  (92) 
92

>  <ligand_id>  (92) 
92

>  <original_smiles>  (92) 
[H]c1c([H])c([H])c2c(c1[H])C([H])([H])C([H])([H])C([H])([H])C2([H])N([H])C(=O)C1([H])N(C(=O)C([H])(N([H])C(=O)C([H])(N([H])C([H])([H])[H])C([H])([H])[H])C(C([H])([H])[H])(C([H])([H])[H])C([H])([H])[H])C([H])([H])c2c([H])c(OC([H])([H])C([H])([H])C([H])([H])C([H])(C(=O)[O-])N([H])C(=O)N3C([H])([H])C([H])([H])C([H])([H])C([H])(n4nc(-c5c([H])c([H])c(Oc6c([H])c([H])c(F)c([H])c6F)c([H])c5[H])c(C(=O)N([H])[H])c4N([H])[H])C3([H])[H])c([H])c([H])c2C1([H])[H]

>  <smiles>  (92) 
[H]c1c([H])c([H])c2c(c1[H])C([H])([H])C([H])([H])C([H])([H])C2([H])N([H])C(=O)C1([H])N(C(=O)C([H])(N([H])C(=O)C([H])(N([H])C([H])([H])[H])C([H])([H])[H])C(C([H])([H])[H])(C([H])([H])[H])C([H])([H])[H])C([H])([H])c2c([H])c(OC([H])([H])C([H])([H])C([H])([H])C([H])(C(=O)[O-])N([H])C(=O)N3C([H])([H])C([H])([H])C([H])([H])C([H])(n4nc(-c5c([H])c([H])c(Oc6c([H])c([H])c(F)c([H])c6F)c([H])c5[H])c(C(=O)N([H])[H])c4N([H])[H])C3([H])[H])c([H])c([H])c2C1([H])[H]

$$$$
93:0:0
     RDKit          3D

 90 98  0  0  1  0  0  0  0  0999 V2000
  -27.0710  -20.5600   18.9540 C   0  0  0  0  0  2  0  0  0  0  0  0
  -27.3630  -21.0400   20.3710 C   0  0  0  0  0  2  0  0  0  0  0  0
  -29.3290  -19.8410   19.6780 C   0  0  0  0  0  3  0  0  0  0  0  0
  -28.2270  -19.5960   18.5810 C   0  0  2  0  0  0  0  0  0  0  0  0
  -28.7610  -19.9410   17.1740 C   0  0  0  0  0  1  0  0  0  0  0  0
  -27.6860  -18.1560   18.5180 C   0  0  0  0  0  1  0  0  0  0  0  0
  -28.8140  -21.2730   20.3700 N   0  0  1  0  0  4  0  0  0  0  0  0
  -29.1120  -21.2530   21.3360 H   0  0  0  0  0  0  0  0  0  0  0  0
  -29.8740  -18.3080   20.4900 C   0  0  0  0  0  2  0  0  0  0  0  0
  -30.6410  -15.4160   20.1530 C   0  0  0  0  0  0  0  0  0  0  0  0
  -30.6490  -12.9560   19.3080 C   0  0  0  0  0  2  0  0  0  0  0  0
  -29.7230  -12.7100   18.0900 C   0  0  0  0  0  2  0  0  0  0  0  0
  -28.2730  -12.4490   18.5320 C   0  0  0  0  0  2  0  0  0  0  0  0
  -27.8200  -13.4250   19.6440 C   0  0  0  0  0  3  0  0  0  0  0  0
  -28.8700  -13.6000   20.7580 C   0  0  0  0  0  2  0  0  0  0  0  0
  -30.0880  -14.1060   20.1010 N   0  0  0  0  0  0  0  0  0  0  0  0
  -31.8730  -15.4290   20.0180 O   0  0  0  0  0  0  0  0  0  0  0  0
  -29.8360  -16.6600   20.1480 N   0  0  0  0  0  0  0  0  0  0  0  0
  -28.8720  -16.3790   20.0580 H   0  0  0  0  0  0  0  0  0  0  0  0
  -25.4510  -13.9900   20.4020 C   0  0  0  0  0  0  0  0  0  0  0  0
  -24.3910  -13.2120   20.7760 C   0  0  0  0  0  0  0  0  0  0  0  0
  -24.8610  -11.8630   20.7540 C   0  0  0  0  0  0  0  0  0  0  0  0
  -26.4940  -13.1140   20.1600 N   0  0  0  0  0  0  0  0  0  0  0  0
  -26.1520  -11.8310   20.4440 N   0  0  0  0  0  0  0  0  0  0  0  0
  -24.1360  -10.6010   20.9500 C   0  0  0  0  0  0  0  0  0  0  0  0
  -24.5510   -9.6500   21.9070 C   0  0  0  0  0  3  0  0  0  0  0  0
  -23.8220   -8.4540   22.0920 C   0  0  0  0  0  3  0  0  0  0  0  0
  -22.6660   -8.2020   21.3170 C   0  0  0  0  0  0  0  0  0  0  0  0
  -22.2710   -9.1420   20.3480 C   0  0  0  0  0  3  0  0  0  0  0  0
  -22.9990  -10.3280   20.1630 C   0  0  0  0  0  3  0  0  0  0  0  0
  -21.9090   -7.0580   21.4120 O   0  0  0  0  0  0  0  0  0  0  0  0
  -21.8150   -6.3500   22.5820 C   0  0  0  0  0  0  0  0  0  0  0  0
  -21.3070   -6.9300   23.7660 C   0  0  0  0  0  3  0  0  0  0  0  0
  -21.1640   -6.1460   24.9280 C   0  0  0  0  0  3  0  0  0  0  0  0
  -21.5190   -4.7840   24.9080 C   0  0  0  0  0  0  0  0  0  0  0  0
  -22.0230   -4.2050   23.7300 C   0  0  0  0  0  3  0  0  0  0  0  0
  -22.1670   -4.9860   22.5700 C   0  0  0  0  0  0  0  0  0  0  0  0
  -22.6320   -4.4160   21.4320 F   0  0  0  0  0  0  0  0  0  0  0  0
  -21.3770   -4.0300   26.0210 F   0  0  0  0  0  0  0  0  0  0  0  0
  -22.9930  -13.6880   21.0380 C   0  0  0  0  0  0  0  0  0  0  0  0
  -22.2650  -12.9960   21.9050 N   0  0  0  0  0  0  0  0  0  0  0  0
  -22.5570  -14.7100   20.5090 O   0  0  0  0  0  0  0  0  0  0  0  0
  -22.6370  -12.1690   22.3470 H   0  0  0  0  0  0  0  0  0  0  0  0
  -21.3240  -13.2920   22.1240 H   0  0  0  0  0  0  0  0  0  0  0  0
  -25.6100  -15.3590   20.2120 N   0  0  0  0  0  0  0  0  0  0  0  0
  -24.8390  -16.0070   20.3260 H   0  0  0  0  0  0  0  0  0  0  0  0
  -26.4280  -15.7840   19.8000 H   0  0  0  0  0  0  0  0  0  0  0  0
  -29.0490  -22.8590   19.8840 C   0  0  0  0  0  3  0  0  0  0  0  0
  -28.0820  -24.3460   20.2270 C   0  0  0  0  0  3  0  0  0  0  0  0
  -28.3010  -25.9770   20.0660 O   0  0  0  0  0  0  0  0  0  0  0  0
  -24.6400  -31.8660   23.0880 C   0  0  0  0  0  0  0  0  0  0  0  0
  -27.2630  -27.0470   20.0510 C   0  0  0  0  0  0  0  0  0  0  0  0
  -23.4660  -30.4670   21.4360 C   0  0  0  0  0  3  0  0  0  0  0  0
  -24.9380  -28.8930   20.0090 C   0  0  0  0  0  0  0  0  0  0  0  0
  -26.0300  -30.7160   21.3000 C   0  0  0  0  0  2  0  0  0  0  0  0
  -26.1210  -29.3130   20.6320 C   0  0  0  0  0  0  0  0  0  0  0  0
  -27.2780  -28.4120   20.6260 C   0  0  0  0  0  3  0  0  0  0  0  0
  -26.0460  -26.7760   19.3860 C   0  0  0  0  0  3  0  0  0  0  0  0
  -24.9250  -27.6450   19.3660 C   0  0  0  0  0  3  0  0  0  0  0  0
  -23.7070  -29.7950   20.0570 C   0  0  0  0  0  2  0  0  0  0  0  0
  -24.7330  -31.0440   21.9950 N   0  0  0  0  0  0  0  0  0  0  0  0
  -23.5470  -32.1380   23.6090 O   0  0  0  0  0  0  0  0  0  0  0  0
  -22.7830  -29.4550   22.3940 C   0  0  0  0  0  0  0  0  0  0  0  0
  -21.4520  -29.2990   22.2870 N   0  0  0  0  0  0  0  0  0  0  0  0
  -23.4590  -28.8100   23.2010 O   0  0  0  0  0  0  0  0  0  0  0  0
  -20.9600  -29.8680   21.6110 H   0  0  0  0  0  0  0  0  0  0  0  0
  -18.0660  -28.1310   22.8620 C   0  0  0  0  0  0  0  0  0  0  0  0
  -20.6360  -28.3520   23.0550 C   0  0  0  0  0  3  0  0  0  0  0  0
  -20.6990  -26.9380   22.4350 C   0  0  0  0  0  2  0  0  0  0  0  0
  -19.5620  -26.6620   21.4450 C   0  0  0  0  0  2  0  0  0  0  0  0
  -18.2020  -26.8030   22.1340 C   0  0  0  0  0  2  0  0  0  0  0  0
  -19.2080  -28.8650   23.2800 C   0  0  0  0  0  0  0  0  0  0  0  0
  -19.0230  -30.1070   23.9260 C   0  0  0  0  0  3  0  0  0  0  0  0
  -17.7310  -30.6170   24.1510 C   0  0  0  0  0  3  0  0  0  0  0  0
  -16.6030  -29.8790   23.7480 C   0  0  0  0  0  3  0  0  0  0  0  0
  -16.7720  -28.6380   23.1110 C   0  0  0  0  0  3  0  0  0  0  0  0
  -25.9020  -32.5200   23.7300 C   0  0  0  0  0  3  0  0  0  0  0  0
  -26.4170  -31.7500   25.0100 C   0  0  1  0  0  0  0  0  0  0  0  0
  -25.3170  -31.4900   26.0660 C   0  0  0  0  0  1  0  0  0  0  0  0
  -27.0220  -30.3810   24.6250 C   0  0  0  0  0  1  0  0  0  0  0  0
  -27.5510  -32.5580   25.6830 C   0  0  0  0  0  1  0  0  0  0  0  0
  -25.5640  -33.9110   24.0780 N   0  0  0  0  0  0  0  0  0  0  0  0
  -25.8870  -34.9860   23.3450 C   0  0  0  0  0  0  0  0  0  0  0  0
  -26.5620  -34.9100   22.3150 O   0  0  0  0  0  0  0  0  0  0  0  0
  -24.9620  -34.0420   24.8770 H   0  0  0  0  0  0  0  0  0  0  0  0
  -24.1460  -36.7730   23.0150 C   0  0  0  0  0  1  0  0  0  0  0  0
  -25.3810  -36.3600   23.8300 C   0  0  0  0  0  3  0  0  0  0  0  0
  -27.4920  -37.2510   24.7150 C   0  0  0  0  0  1  0  0  0  0  0  0
  -26.4060  -37.4250   23.7530 N   0  0  0  0  0  0  0  0  0  0  0  0
  -25.9900  -38.3390   23.9080 H   0  0  0  0  0  0  0  0  0  0  0  0
  1  2  1  0
  3  7  1  0
  3  9  1  0
  4  1  1  0
  4  3  1  0
  4  5  1  6
  6  4  1  0
  7  2  1  0
  7  8  1  1
 11 16  1  0
 12 13  1  0
 12 11  1  0
 14 13  1  0
 14 23  1  0
 14 15  1  0
 16 10  1  0
 16 15  1  0
 17 10  2  0
 18 10  1  0
 18  9  1  0
 19 18  1  0
 20 21  2  0
 21 40  1  0
 22 21  1  0
 22 25  1  0
 23 20  1  0
 23 24  1  0
 24 22  2  0
 25 26  1  0
 26 27  2  0
 28 31  1  0
 28 27  1  0
 29 28  2  0
 30 29  1  0
 30 25  2  0
 31 32  1  0
 32 33  1  0
 33 34  2  0
 35 34  1  0
 35 39  1  0
 36 35  2  0
 37 32  2  0
 37 36  1  0
 38 37  1  0
 40 41  1  0
 41 44  1  0
 41 43  1  0
 42 40  2  0
 45 46  1  0
 45 20  1  0
 47 45  1  0
 48 49  2  0
 48  7  1  0
 50 49  1  0
 51 62  2  0
 52 50  1  0
 52 57  1  0
 53 61  1  0
 53 63  1  0
 54 60  1  0
 54 56  1  0
 55 61  1  0
 56 55  1  0
 57 56  2  0
 58 52  2  0
 59 58  1  0
 59 54  2  0
 60 53  1  0
 61 51  1  0
 63 65  2  0
 64 63  1  0
 66 64  1  0
 67 76  2  0
 67 72  1  0
 68 64  1  0
 68 72  1  0
 69 68  1  0
 70 71  1  0
 70 69  1  0
 71 67  1  0
 72 73  2  0
 73 74  1  0
 75 74  2  0
 76 75  1  0
 77 51  1  0
 77 82  1  0
 77 78  1  0
 78 81  1  1
 78 79  1  0
 80 78  1  0
 82 85  1  0
 83 87  1  0
 83 82  1  0
 84 83  2  0
 87 86  1  0
 89 87  1  0
 89 90  1  0
 89 88  1  0
M  ISO  4  10 100  18 100  49 101  50 101
M  END
>  <TORSDO>  (93) 
F 19

>  <SCORE>  (93) 
-16.259

>  <name>  (93) 
93

>  <ligand_id>  (93) 
93

>  <original_smiles>  (93) 
[H]c1c([H])c([H])c2c(c1[H])C([H])([H])C([H])([H])C([H])([H])C2([H])N([H])C(=O)C1([H])N(C(=O)C([H])(N([H])C(=O)C([H])(N([H])C([H])([H])[H])C([H])([H])[H])C(C([H])([H])[H])(C([H])([H])[H])C([H])([H])[H])C([H])([H])c2c([H])c(OC([H])([H])C([H])([H])[N+]3([H])C([H])([H])C([H])([H])C(C([H])([H])[H])(C([H])([H])[H])C3([H])C([H])([H])N([H])C(=O)N3C([H])([H])C([H])([H])C([H])([H])C([H])(n4nc(-c5c([H])c([H])c(Oc6c([H])c([H])c(F)c([H])c6F)c([H])c5[H])c(C(=O)N([H])[H])c4N([H])[H])C3([H])[H])c([H])c([H])c2C1([H])[H]

>  <smiles>  (93) 
[H]c1c([H])c([H])c2c(c1[H])C([H])([H])C([H])([H])C([H])([H])C2([H])N([H])C(=O)C1([H])N(C(=O)C([H])(N([H])C(=O)C([H])(N([H])C([H])([H])[H])C([H])([H])[H])C(C([H])([H])[H])(C([H])([H])[H])C([H])([H])[H])C([H])([H])c2c([H])c(OC([H])([H])C([H])([H])[N+]3([H])C([H])([H])C([H])([H])C(C([H])([H])[H])(C([H])([H])[H])C3([H])C([H])([H])N([H])C(=O)N3C([H])([H])C([H])([H])C([H])([H])C([H])(n4nc(-c5c([H])c([H])c(Oc6c([H])c([H])c(F)c([H])c6F)c([H])c5[H])c(C(=O)N([H])[H])c4N([H])[H])C3([H])[H])c([H])c([H])c2C1([H])[H]

$$$$
94:0:0
     RDKit          3D

 93103  0  0  1  0  0  0  0  0999 V2000
  -28.8750  -21.5520   20.4550 C   0  0  0  0  0  2  0  0  0  0  0  0
  -29.9460  -19.4950   18.7050 C   0  0  2  0  0  0  0  0  0  0  0  0
  -28.5770  -18.9280   19.7610 C   0  0  1  0  0  0  0  0  0  0  0  0
  -29.8000  -18.0560   19.3790 C   0  0  0  0  0  3  0  0  0  0  0  0
  -29.5170  -20.1440   20.0540 C   0  0  0  0  0  3  0  0  0  0  0  0
  -28.4320  -19.3860   18.2620 C   0  0  1  0  0  0  0  0  0  0  0  0
  -27.5570  -20.6360   17.9320 C   0  0  0  0  0  1  0  0  0  0  0  0
  -27.9540  -18.3260   17.2230 C   0  0  0  0  0  1  0  0  0  0  0  0
  -30.6530  -17.2870   20.4490 C   0  0  0  0  0  2  0  0  0  0  0  0
  -30.8870  -14.7070   20.5620 C   0  0  0  0  0  0  0  0  0  0  0  0
  -30.6260  -12.5200   19.4510 C   0  0  0  0  0  2  0  0  0  0  0  0
  -29.6830  -12.7470   18.2540 C   0  0  0  0  0  2  0  0  0  0  0  0
  -28.1960  -12.6430   18.6710 C   0  0  0  0  0  2  0  0  0  0  0  0
  -27.8570  -13.4090   19.9850 C   0  0  0  0  0  3  0  0  0  0  0  0
  -28.9320  -13.0480   21.0390 C   0  0  0  0  0  2  0  0  0  0  0  0
  -30.2240  -13.5030   20.4800 N   0  0  0  0  0  0  0  0  0  0  0  0
  -32.0990  -14.7750   20.3380 O   0  0  0  0  0  0  0  0  0  0  0  0
  -30.1630  -15.8650   20.6570 N   0  0  0  0  0  0  0  0  0  0  0  0
  -29.1650  -15.7480   20.7480 H   0  0  0  0  0  0  0  0  0  0  0  0
  -25.3990  -14.0090   20.5360 C   0  0  0  0  0  0  0  0  0  0  0  0
  -24.3150  -13.2350   20.8600 C   0  0  0  0  0  0  0  0  0  0  0  0
  -24.7830  -11.8890   20.8750 C   0  0  0  0  0  0  0  0  0  0  0  0
  -26.4770  -13.1400   20.4130 N   0  0  0  0  0  0  0  0  0  0  0  0
  -26.0860  -11.8530   20.6460 N   0  0  0  0  0  0  0  0  0  0  0  0
  -24.0470  -10.6290   21.0500 C   0  0  0  0  0  0  0  0  0  0  0  0
  -24.4470   -9.6730   22.0100 C   0  0  0  0  0  3  0  0  0  0  0  0
  -23.7100   -8.4770   22.1750 C   0  0  0  0  0  3  0  0  0  0  0  0
  -22.5720   -8.2370   21.3660 C   0  0  0  0  0  0  0  0  0  0  0  0
  -22.2050   -9.1730   20.3850 C   0  0  0  0  0  3  0  0  0  0  0  0
  -22.9410  -10.3630   20.2220 C   0  0  0  0  0  3  0  0  0  0  0  0
  -21.8030   -7.0950   21.4420 O   0  0  0  0  0  0  0  0  0  0  0  0
  -21.6920   -6.3640   22.6060 C   0  0  0  0  0  0  0  0  0  0  0  0
  -21.2020   -6.9400   23.7920 C   0  0  0  0  0  3  0  0  0  0  0  0
  -21.0290   -6.1510   24.9500 C   0  0  0  0  0  3  0  0  0  0  0  0
  -21.3440   -4.7800   24.9130 C   0  0  0  0  0  0  0  0  0  0  0  0
  -21.8280   -4.1950   23.7290 C   0  0  0  0  0  3  0  0  0  0  0  0
  -21.9980   -4.9810   22.5760 C   0  0  0  0  0  0  0  0  0  0  0  0
  -22.4310   -4.4060   21.4320 F   0  0  0  0  0  0  0  0  0  0  0  0
  -21.1790   -4.0170   26.0180 F   0  0  0  0  0  0  0  0  0  0  0  0
  -22.9000  -13.7010   21.0580 C   0  0  0  0  0  0  0  0  0  0  0  0
  -22.1510  -12.9920   21.9030 N   0  0  0  0  0  0  0  0  0  0  0  0
  -22.4640  -14.7120   20.5150 O   0  0  0  0  0  0  0  0  0  0  0  0
  -22.4980  -12.1490   22.3150 H   0  0  0  0  0  0  0  0  0  0  0  0
  -21.1910  -13.2610   22.0970 H   0  0  0  0  0  0  0  0  0  0  0  0
  -25.5530  -15.3790   20.3330 N   0  0  0  0  0  0  0  0  0  0  0  0
  -24.8060  -16.0580   20.4640 H   0  0  0  0  0  0  0  0  0  0  0  0
  -26.4310  -15.8220   20.0760 H   0  0  0  0  0  0  0  0  0  0  0  0
  -29.1580  -22.8160   19.6790 N   0  0  0  0  0  4  0  0  0  0  0  0
  -28.8050  -22.6900   18.7420 H   0  0  0  0  0  0  0  0  0  0  0  0
  -30.1570  -22.9300   19.6110 H   0  0  0  0  0  0  0  0  0  0  0  0
  -28.5630  -24.0850   20.2860 C   0  0  0  0  0  3  0  0  0  0  0  0
  -28.6300  -25.4210   19.4540 C   0  0  0  0  0  3  0  0  0  0  0  0
  -28.4200  -26.6600   20.2110 O   0  0  0  0  0  0  0  0  0  0  0  0
  -24.5680  -31.9110   23.2830 C   0  0  0  0  0  0  0  0  0  0  0  0
  -27.2270  -27.3970   20.1970 C   0  0  0  0  0  0  0  0  0  0  0  0
  -23.3740  -30.5000   21.6480 C   0  0  0  0  0  3  0  0  0  0  0  0
  -24.8310  -28.9560   20.2240 C   0  0  0  0  0  0  0  0  0  0  0  0
  -25.9080  -30.8380   21.4600 C   0  0  0  0  0  2  0  0  0  0  0  0
  -25.9930  -29.4620   20.8140 C   0  0  0  0  0  0  0  0  0  0  0  0
  -27.1900  -28.6930   20.7960 C   0  0  0  0  0  3  0  0  0  0  0  0
  -26.0340  -26.9090   19.6340 C   0  0  0  0  0  3  0  0  0  0  0  0
  -24.8490  -27.6810   19.6300 C   0  0  0  0  0  3  0  0  0  0  0  0
  -23.5870  -29.8240   20.2680 C   0  0  0  0  0  2  0  0  0  0  0  0
  -24.6360  -31.1020   22.1850 N   0  0  0  0  0  0  0  0  0  0  0  0
  -23.4820  -32.1820   23.8180 O   0  0  0  0  0  0  0  0  0  0  0  0
  -22.7180  -29.4810   22.6080 C   0  0  0  0  0  0  0  0  0  0  0  0
  -21.3960  -29.2870   22.4680 N   0  0  0  0  0  0  0  0  0  0  0  0
  -23.3990  -28.8650   23.4340 O   0  0  0  0  0  0  0  0  0  0  0  0
  -20.9100  -29.8340   21.7700 H   0  0  0  0  0  0  0  0  0  0  0  0
  -18.0250  -28.0650   22.9390 C   0  0  0  0  0  0  0  0  0  0  0  0
  -20.5770  -28.3480   23.2360 C   0  0  0  0  0  3  0  0  0  0  0  0
  -20.6990  -26.9150   22.6700 C   0  0  0  0  0  2  0  0  0  0  0  0
  -19.6100  -26.5750   21.6470 C   0  0  0  0  0  2  0  0  0  0  0  0
  -18.2200  -26.7120   22.2760 C   0  0  0  0  0  2  0  0  0  0  0  0
  -19.1320  -28.8400   23.3740 C   0  0  0  0  0  0  0  0  0  0  0  0
  -18.8930  -30.1050   23.9540 C   0  0  0  0  0  3  0  0  0  0  0  0
  -17.5820  -30.5940   24.1020 C   0  0  0  0  0  3  0  0  0  0  0  0
  -16.4890  -29.8150   23.6800 C   0  0  0  0  0  3  0  0  0  0  0  0
  -16.7140  -28.5530   23.1050 C   0  0  0  0  0  3  0  0  0  0  0  0
  -25.8460  -32.5480   23.9110 C   0  0  0  0  0  3  0  0  0  0  0  0
  -25.5350  -33.9520   24.2160 N   0  0  0  0  0  0  0  0  0  0  0  0
  -25.8850  -34.9930   23.4490 C   0  0  0  0  0  0  0  0  0  0  0  0
  -26.5740  -34.8720   22.4320 O   0  0  0  0  0  0  0  0  0  0  0  0
  -24.9220  -34.1210   25.0010 H   0  0  0  0  0  0  0  0  0  0  0  0
  -24.1740  -36.7890   23.0340 C   0  0  0  0  0  1  0  0  0  0  0  0
  -25.3960  -36.3900   23.8780 C   0  0  0  0  0  3  0  0  0  0  0  0
  -27.5180  -37.2710   24.7450 C   0  0  0  0  0  1  0  0  0  0  0  0
  -26.4380  -37.4350   23.7740 N   0  0  0  0  0  0  0  0  0  0  0  0
  -26.0370  -38.3610   23.8970 H   0  0  0  0  0  0  0  0  0  0  0  0
  -26.3480  -31.7950   25.2040 C   0  0  1  0  0  0  0  0  0  0  0  0
  -25.2440  -31.5700   26.2660 C   0  0  0  0  0  1  0  0  0  0  0  0
  -26.9320  -30.4120   24.8360 C   0  0  0  0  0  1  0  0  0  0  0  0
  -27.4990  -32.5960   25.8620 C   0  0  0  0  0  1  0  0  0  0  0  0
  2  6  1  0
  2  4  1  6
  2  3  1  0
  2  5  1  0
  3  6  1  0
  3  5  1  1
  4  3  1  0
  4  9  1  0
  5  1  1  0
  6  7  1  1
  8  6  1  0
  9 18  1  0
 10 18  1  0
 11 16  1  0
 12 13  1  0
 12 11  1  0
 14 13  1  0
 14 23  1  0
 14 15  1  0
 16 10  1  0
 16 15  1  0
 17 10  2  0
 18 19  1  0
 20 21  2  0
 21 22  1  0
 21 40  1  0
 22 25  1  0
 23 20  1  0
 23 24  1  0
 24 22  2  0
 25 26  1  0
 26 27  2  0
 28 31  1  0
 28 27  1  0
 29 28  2  0
 30 29  1  0
 30 25  2  0
 31 32  1  0
 32 33  1  0
 33 34  2  0
 35 34  1  0
 35 39  1  0
 36 35  2  0
 37 32  2  0
 37 36  1  0
 38 37  1  0
 40 41  1  0
 41 44  1  0
 41 43  1  0
 42 40  2  0
 45 46  1  0
 45 20  1  0
 47 45  1  0
 48 51  1  0
 48  1  1  0
 49 48  1  0
 50 48  1  0
 52 53  1  0
 52 51  2  0
 54 65  2  0
 55 53  1  0
 55 60  1  0
 56 64  1  0
 56 66  1  0
 57 63  1  0
 57 59  1  0
 58 64  1  0
 59 58  1  0
 60 59  2  0
 61 55  2  0
 62 61  1  0
 62 57  2  0
 63 56  1  0
 64 54  1  0
 66 68  2  0
 67 66  1  0
 69 67  1  0
 70 79  2  0
 70 75  1  0
 71 67  1  0
 71 75  1  0
 72 71  1  0
 73 74  1  0
 73 72  1  0
 74 70  1  0
 75 76  2  0
 76 77  1  0
 78 77  2  0
 79 78  1  0
 80 54  1  0
 80 81  1  0
 80 90  1  0
 81 84  1  0
 82 86  1  0
 82 81  1  0
 83 82  2  0
 86 85  1  0
 88 86  1  0
 88 89  1  0
 88 87  1  0
 90 93  1  1
 90 91  1  0
 92 90  1  0
M  ISO  4  10 100  18 100  52 101  53 101
M  END
>  <TORSDO>  (94) 
F 21

>  <SCORE>  (94) 
-13.447

>  <name>  (94) 
94

>  <ligand_id>  (94) 
94

>  <original_smiles>  (94) 
[H]c1c([H])c([H])c2c(c1[H])C([H])([H])C([H])([H])C([H])([H])C2([H])N([H])C(=O)C1([H])N(C(=O)C([H])(N([H])C(=O)C([H])(N([H])C([H])([H])[H])C([H])([H])[H])C(C([H])([H])[H])(C([H])([H])[H])C([H])([H])[H])C([H])([H])c2c([H])c(OC([H])([H])C([H])([H])[N+]([H])([H])C([H])([H])C3([H])C4([H])C([H])(C([H])([H])N([H])C(=O)N5C([H])([H])C([H])([H])C([H])([H])C([H])(n6nc(-c7c([H])c([H])c(Oc8c([H])c([H])c(F)c([H])c8F)c([H])c7[H])c(C(=O)N([H])[H])c6N([H])[H])C5([H])[H])C3([H])C4(C([H])([H])[H])C([H])([H])[H])c([H])c([H])c2C1([H])[H]

>  <smiles>  (94) 
[H]c1c([H])c([H])c2c(c1[H])C([H])([H])C([H])([H])C([H])([H])C2([H])N([H])C(=O)C1([H])N(C(=O)C([H])(N([H])C(=O)C([H])(N([H])C([H])([H])[H])C([H])([H])[H])C(C([H])([H])[H])(C([H])([H])[H])C([H])([H])[H])C([H])([H])c2c([H])c(OC([H])([H])C([H])([H])[N+]([H])([H])C([H])([H])C3([H])C4([H])C([H])(C([H])([H])N([H])C(=O)N5C([H])([H])C([H])([H])C([H])([H])C([H])(n6nc(-c7c([H])c([H])c(Oc8c([H])c([H])c(F)c([H])c8F)c([H])c7[H])c(C(=O)N([H])[H])c6N([H])[H])C5([H])[H])C3([H])C4(C([H])([H])[H])C([H])([H])[H])c([H])c([H])c2C1([H])[H]

$$$$
95:0:0
     RDKit          3D

 98101  0  0  1  0  0  0  0  0999 V2000
  -28.2800  -20.6970   18.9280 C   0  0  0  0  0  3  0  0  0  0  0  0
  -28.2270  -19.2000   19.0070 C   0  0  0  0  0  3  0  0  0  0  0  0
  -29.4090  -20.7990   20.8920 C   0  0  0  0  0  3  0  0  0  0  0  0
  -28.8520  -21.6850   19.8670 C   0  0  0  0  0  0  0  0  0  0  0  0
  -28.7610  -18.3150   20.0520 C   0  0  0  0  0  0  0  0  0  0  0  0
  -29.3830  -19.2930   20.9740 C   0  0  0  0  0  0  0  0  0  0  0  0
  -30.0350  -18.7150   22.2190 C   0  0  0  0  0  1  0  0  0  0  0  0
  -28.4630  -16.5820   20.4220 C   0  0  0  0  0  3  0  0  0  0  0  0
  -29.2010  -14.9070   20.7250 C   0  0  0  0  0  3  0  0  0  0  0  0
  -34.0320  -12.4010   21.6610 C   0  0  0  0  0  0  0  0  0  0  0  0
  -33.9880  -11.4460   23.7850 C   0  0  0  0  0  2  0  0  0  0  0  0
  -33.4720  -10.1700   23.2470 C   0  0  0  0  0  2  0  0  0  0  0  0
  -31.8950  -10.4880   23.0120 C   0  0  0  0  0  2  0  0  0  0  0  0
  -31.4490  -11.9160   22.2500 C   0  0  0  0  0  3  0  0  0  0  0  0
  -32.1290  -12.9420   22.9720 C   0  0  0  0  0  2  0  0  0  0  0  0
  -33.4850  -12.4470   22.8810 N   0  0  0  0  0  0  0  0  0  0  0  0
  -34.8980  -13.2990   21.7380 O   0  0  0  0  0  0  0  0  0  0  0  0
  -30.0530  -11.9670   17.5830 C   0  0  0  0  0 15  0  0  0  0  0  0
  -28.8360  -13.3710   18.5920 C   0  0  0  0  0 15  0  0  0  0  0  0
  -31.1140  -10.4520   18.5570 C   0  0  0  0  0  1  0  0  0  0  0  0
  -30.8950   -9.9650   20.6230 C   0  0  0  0  0  1  0  0  0  0  0  0
  -28.5170  -13.2710   20.6650 C   0  0  0  0  0  1  0  0  0  0  0  0
  -29.1770  -11.4260   21.9060 C   0  0  0  0  0  1  0  0  0  0  0  0
  -32.5990  -10.7130   18.0920 C   0  0  0  0  0  2  0  0  0  0  0  0
  -32.6220   -9.9390   20.5770 C   0  0  0  0  0  2  0  0  0  0  0  0
  -33.6510  -11.5130   19.0860 C   0  0  0  0  0  2  0  0  0  0  0  0
  -28.9130  -11.5380   23.4300 C   0  0  0  0  0  1  0  0  0  0  0  0
  -33.5720  -11.3520   20.5940 N   0  0  0  0  0  0  0  0  0  0  0  0
  -30.1820  -12.1810   19.8530 C   0  0  0  0  0  0  0  0  0  0  0  0
  -28.4610  -11.5120   19.5520 C   0  0  0  0  0  0  0  0  0  0  0  0
  -28.2310  -10.4280   20.1890 C   0  0  0  0  0  2  0  0  0  0  0  0
  -30.8940  -12.2200   20.6990 N   0  0  0  0  0  2  0  0  0  0  0  0
  -29.2220  -11.5690   19.8880 N   0  0  0  0  0  0  0  0  0  0  0  0
  -27.1220   -9.7170   20.9810 C   0  0  0  0  0  0  0  0  0  0  0  0
  -26.7340   -9.6020   22.3560 C   0  0  0  0  0  3  0  0  0  0  0  0
  -25.6440   -8.7690   22.7680 C   0  0  0  0  0  3  0  0  0  0  0  0
  -24.9150   -8.0230   21.8090 C   0  0  0  0  0  0  0  0  0  0  0  0
  -25.3030   -8.1170   20.4640 C   0  0  0  0  0  3  0  0  0  0  0  0
  -26.3830   -8.9240   20.0810 C   0  0  0  0  0  3  0  0  0  0  0  0
  -23.8540   -7.1780   22.0600 O   0  0  0  0  0  0  0  0  0  0  0  0
  -23.0870   -7.2450   23.1930 C   0  0  0  0  0  0  0  0  0  0  0  0
  -22.4820   -8.4450   23.6250 C   0  0  0  0  0  3  0  0  0  0  0  0
  -21.6490   -8.4480   24.7630 C   0  0  0  0  0  3  0  0  0  0  0  0
  -21.4210   -7.2510   25.4670 C   0  0  0  0  0  0  0  0  0  0  0  0
  -22.0060   -6.0470   25.0320 C   0  0  0  0  0  3  0  0  0  0  0  0
  -22.8340   -6.0470   23.8930 C   0  0  0  0  0  0  0  0  0  0  0  0
  -23.3660   -4.8750   23.4570 F   0  0  0  0  0  0  0  0  0  0  0  0
  -20.6320   -7.2520   26.5670 F   0  0  0  0  0  0  0  0  0  0  0  0
  -27.1160  -11.7610   18.6160 C   0  0  0  0  0  0  0  0  0  0  0  0
  -25.9200  -11.9320   19.1730 N   0  0  0  0  0  0  0  0  0  0  0  0
  -27.1710  -11.8620   17.3850 O   0  0  0  0  0  0  0  0  0  0  0  0
  -25.7850  -11.8970   20.1700 H   0  0  0  0  0  0  0  0  0  0  0  0
  -25.1270  -12.0830   18.5650 H   0  0  0  0  0  0  0  0  0  0  0  0
  -31.2810  -13.0770   19.3740 N   0  0  0  0  0  4  0  0  0  0  0  0
  -30.9350  -13.5800   18.5650 H   0  0  0  0  0  0  0  0  0  0  0  0
  -31.6840  -13.7050   20.0510 H   0  0  0  0  0  0  0  0  0  0  0  0
  -28.5110  -23.4430   19.9170 C   0  0  0  0  0  2  0  0  0  0  0  0
  -29.2600  -24.9470   20.0060 O   0  0  0  0  0  0  0  0  0  0  0  0
  -25.8760  -30.6410   23.3360 C   0  0  0  0  0  0  0  0  0  0  0  0
  -28.5100  -26.2300   19.8640 C   0  0  0  0  0  0  0  0  0  0  0  0
  -24.8000  -29.5040   21.4370 C   0  0  0  0  0  3  0  0  0  0  0  0
  -26.3510  -28.2090   19.8330 C   0  0  0  0  0  0  0  0  0  0  0  0
  -27.3640  -29.7680   21.4740 C   0  0  0  0  0  2  0  0  0  0  0  0
  -27.4770  -28.4760   20.6190 C   0  0  0  0  0  0  0  0  0  0  0  0
  -28.5740  -27.5050   20.6120 C   0  0  0  0  0  3  0  0  0  0  0  0
  -27.4410  -26.1960   18.9570 C   0  0  0  0  0  3  0  0  0  0  0  0
  -26.3720  -27.1170   18.9610 C   0  0  0  0  0  3  0  0  0  0  0  0
  -25.1190  -29.0930   19.9710 C   0  0  0  0  0  2  0  0  0  0  0  0
  -26.0330  -29.9970   22.1370 N   0  0  0  0  0  0  0  0  0  0  0  0
  -24.7540  -30.8120   23.8410 O   0  0  0  0  0  0  0  0  0  0  0  0
  -24.1090  -28.3350   22.1860 C   0  0  0  0  0  0  0  0  0  0  0  0
  -22.8330  -28.0570   21.8620 N   0  0  0  0  0  0  0  0  0  0  0  0
  -24.7320  -27.6830   23.0280 O   0  0  0  0  0  0  0  0  0  0  0  0
  -22.3810  -28.6430   21.1760 H   0  0  0  0  0  0  0  0  0  0  0  0
  -19.6350  -26.3580   21.6470 C   0  0  0  0  0  0  0  0  0  0  0  0
  -22.0280  -26.9680   22.4250 C   0  0  0  0  0  3  0  0  0  0  0  0
  -22.4500  -25.6010   21.8350 C   0  0  0  0  0  2  0  0  0  0  0  0
  -21.6260  -25.1910   20.6100 C   0  0  0  0  0  2  0  0  0  0  0  0
  -20.1410  -25.0960   20.9690 C   0  0  0  0  0  2  0  0  0  0  0  0
  -20.5210  -27.2450   22.3180 C   0  0  0  0  0  0  0  0  0  0  0  0
  -20.0000  -28.4190   22.9050 C   0  0  0  0  0  3  0  0  0  0  0  0
  -18.6250  -28.7120   22.8290 C   0  0  0  0  0  3  0  0  0  0  0  0
  -17.7510  -27.8270   22.1750 C   0  0  0  0  0  3  0  0  0  0  0  0
  -18.2550  -26.6510   21.5910 C   0  0  0  0  0  3  0  0  0  0  0  0
  -27.0930  -31.2120   24.1180 C   0  0  0  0  0  3  0  0  0  0  0  0
  -27.6000  -30.2490   25.2650 C   0  0  1  0  0  0  0  0  0  0  0  0
  -26.4830  -29.7880   26.2300 C   0  0  0  0  0  1  0  0  0  0  0  0
  -28.2600  -28.9810   24.6810 C   0  0  0  0  0  1  0  0  0  0  0  0
  -28.6900  -30.9610   26.1010 C   0  0  0  0  0  1  0  0  0  0  0  0
  -26.6930  -32.5100   24.6920 N   0  0  0  0  0  0  0  0  0  0  0  0
  -27.1210  -33.7040   24.2630 C   0  0  0  0  0  0  0  0  0  0  0  0
  -27.9530  -33.8260   23.3610 O   0  0  0  0  0  0  0  0  0  0  0  0
  -25.9690  -32.4880   25.3950 H   0  0  0  0  0  0  0  0  0  0  0  0
  -25.4690  -35.5910   24.0250 C   0  0  0  0  0  1  0  0  0  0  0  0
  -26.5340  -34.9610   24.9390 C   0  0  0  0  0  3  0  0  0  0  0  0
  -28.4520  -35.5520   26.3510 C   0  0  0  0  0  1  0  0  0  0  0  0
  -27.5500  -35.9780   25.2860 N   0  0  0  0  0  0  0  0  0  0  0  0
  -27.1080  -36.8470   25.5720 H   0  0  0  0  0  0  0  0  0  0  0  0
  1  2  2  0
  1  4  1  0
  2  5  1  0
  3  6  1  0
  4 57  1  0
  4  3  2  0
  5  8  1  0
  5  6  2  0
  6  7  1  0
  8  9  2  0
 10 17  2  0
 10 16  1  0
 12 11  1  0
 13 12  1  0
 14 32  1  0
 14 15  1  0
 14 13  1  0
 16 15  1  0
 16 11  1  0
 22  9  1  0
 23 27  1  0
 24 20  1  0
 24 26  1  0
 25 28  1  0
 25 21  1  0
 26 28  1  0
 28 10  1  0
 29 33  1  0
 29 32  1  0
 30 33  2  0
 30 31  1  0
 31 34  1  0
 34 35  1  0
 35 36  2  0
 37 40  1  0
 37 36  1  0
 38 37  2  0
 39 38  1  0
 39 34  2  0
 40 41  1  0
 41 42  2  0
 41 46  1  0
 42 43  1  0
 43 44  2  0
 44 48  1  0
 45 44  1  0
 46 45  2  0
 47 46  1  0
 49 50  1  0
 49 30  1  0
 50 52  1  0
 51 49  2  0
 53 50  1  0
 54 29  2  0
 54 56  1  0
 55 54  1  0
 57 58  1  0
 59 70  2  0
 60 58  1  0
 60 65  1  0
 61 69  1  0
 61 71  1  0
 62 68  1  0
 62 64  1  0
 63 69  1  0
 64 63  1  0
 65 64  2  0
 66 67  1  0
 66 60  2  0
 67 62  2  0
 68 61  1  0
 69 59  1  0
 71 73  2  0
 72 71  1  0
 74 72  1  0
 75 80  1  0
 76 72  1  0
 77 76  1  0
 78 79  1  0
 78 77  1  0
 79 75  1  0
 80 76  1  0
 80 81  2  0
 82 81  1  0
 83 82  2  0
 84 75  2  0
 84 83  1  0
 85 59  1  0
 85 90  1  0
 85 86  1  0
 86 89  1  1
 86 87  1  0
 88 86  1  0
 90 93  1  0
 91 90  1  0
 91 95  1  0
 92 91  2  0
 95 94  1  0
 95 97  1  0
 97 98  1  0
 97 96  1  0
M  ISO  4  10 100  28 100  57 101  58 101
M  END
>  <TORSDO>  (95) 
F 19

>  <SCORE>  (95) 
1.776

>  <name>  (95) 
95

>  <ligand_id>  (95) 
95

>  <original_smiles>  (95) 
[H]c1c([H])c([H])c2c(c1[H])C([H])([H])C([H])([H])C([H])([H])C2([H])N([H])C(=O)C1([H])N(C(=O)C([H])(N([H])C(=O)C([H])(N([H])C([H])([H])[H])C([H])([H])[H])C(C([H])([H])[H])(C([H])([H])[H])C([H])([H])[H])C([H])([H])c2c([H])c(OC([H])([H])c3c([H])c([H])c(C([H])([H])C([H])([H])c4c([H])c([H])c5c(c4C([H])([H])[H])C([H])([H])N(C(=O)N4C([H])([H])C([H])([H])C([H])([H])C([H])(n6nc(-c7c([H])c([H])c(Oc8c([H])c([H])c(F)c([H])c8F)c([H])c7[H])c(C(=O)N([H])[H])c6N([H])[H])C4([H])[H])C([H])([H])C5([H])[H])c(C([H])([H])[H])c3[H])c([H])c([H])c2C1([H])[H]

>  <smiles>  (95) 
[H]c1c([H])c([H])c2c(c1[H])C([H])([H])C([H])([H])C([H])([H])C2([H])N([H])C(=O)C1([H])N(C(=O)C([H])(N([H])C(=O)C([H])(N([H])C([H])([H])[H])C([H])([H])[H])C(C([H])([H])[H])(C([H])([H])[H])C([H])([H])[H])C([H])([H])c2c([H])c(OC([H])([H])c3c([H])c([H])c(C([H])([H])C([H])([H])c4c([H])c([H])c5c(c4C([H])([H])[H])C([H])([H])N(C(=O)N4C([H])([H])C([H])([H])C([H])([H])C([H])(n6nc(-c7c([H])c([H])c(Oc8c([H])c([H])c(F)c([H])c8F)c([H])c7[H])c(C(=O)N([H])[H])c6N([H])[H])C4([H])[H])C([H])([H])C5([H])[H])c(C([H])([H])[H])c3[H])c([H])c([H])c2C1([H])[H]

$$$$
