0:0:0
     RDKit          3D

 96104  0  0  1  0  0  0  0  0999 V2000
  -31.3110  -20.7360   23.0180 C   0  0  0  0  0  2  0  0  0  0  0  0
  -30.6190  -21.2170   20.6470 C   0  0  0  0  0  2  0  0  0  0  0  0
  -31.8140  -19.3480   22.5830 C   0  0  0  0  0  2  0  0  0  0  0  0
  -31.1470  -19.8420   20.2160 C   0  0  0  0  0  2  0  0  0  0  0  0
  -31.3700  -21.7710   21.8770 C   0  0  0  0  0  3  0  0  0  0  0  0
  -31.0410  -18.8050   21.3580 C   0  0  0  0  0  3  0  0  0  0  0  0
  -30.7920  -23.1310   22.3300 C   0  0  0  0  0  2  0  0  0  0  0  0
  -30.8040  -24.1170   21.2280 N   0  0  0  0  0  4  0  0  0  0  0  0
  -30.3920  -23.6590   20.4330 H   0  0  0  0  0  0  0  0  0  0  0  0
  -31.7550  -24.3450   20.9840 H   0  0  0  0  0  0  0  0  0  0  0  0
  -30.0350  -25.3570   21.4730 C   0  0  0  0  0  2  0  0  0  0  0  0
  -29.2520  -25.7630   20.2110 C   0  0  0  0  0  2  0  0  0  0  0  0
  -28.6010  -27.1490   20.3030 C   0  0  0  0  0  2  0  0  0  0  0  0
  -27.5300  -27.1730   19.3660 O   0  0  0  0  0  0  0  0  0  0  0  0
  -24.6340  -32.0750   23.6620 C   0  0  0  0  0  0  0  0  0  0  0  0
  -26.4700  -27.9900   19.6740 C   0  0  0  0  0  0  0  0  0  0  0  0
  -23.1020  -31.0130   22.0310 C   0  0  0  0  0  3  0  0  0  0  0  0
  -24.2200  -29.6030   20.2220 C   0  0  0  0  0  0  0  0  0  0  0  0
  -25.5960  -31.2360   21.5260 C   0  0  0  0  0  2  0  0  0  0  0  0
  -25.4800  -29.9670   20.7130 C   0  0  0  0  0  0  0  0  0  0  0  0
  -26.6080  -29.1650   20.4470 C   0  0  0  0  0  3  0  0  0  0  0  0
  -25.2000  -27.6390   19.1750 C   0  0  0  0  0  3  0  0  0  0  0  0
  -24.0710  -28.4350   19.4540 C   0  0  0  0  0  3  0  0  0  0  0  0
  -23.0680  -30.5240   20.5570 C   0  0  0  0  0  2  0  0  0  0  0  0
  -24.4710  -31.4450   22.4650 N   0  0  0  0  0  0  0  0  0  0  0  0
  -23.6630  -32.3400   24.3820 O   0  0  0  0  0  0  0  0  0  0  0  0
  -22.4970  -29.9100   22.9270 C   0  0  0  0  0  0  0  0  0  0  0  0
  -21.2020  -29.6200   22.7250 N   0  0  0  0  0  0  0  0  0  0  0  0
  -23.1900  -29.3200   23.7600 O   0  0  0  0  0  0  0  0  0  0  0  0
  -20.7010  -30.1570   22.0310 H   0  0  0  0  0  0  0  0  0  0  0  0
  -18.0040  -27.9430   22.8120 C   0  0  0  0  0  0  0  0  0  0  0  0
  -20.4300  -28.5930   23.4220 C   0  0  0  0  0  3  0  0  0  0  0  0
  -20.8220  -27.1780   22.9400 C   0  0  0  0  0  2  0  0  0  0  0  0
  -19.9370  -26.6610   21.8000 C   0  0  0  0  0  2  0  0  0  0  0  0
  -18.4710  -26.6150   22.2390 C   0  0  0  0  0  2  0  0  0  0  0  0
  -18.9260  -28.8780   23.3530 C   0  0  0  0  0  0  0  0  0  0  0  0
  -18.4440  -30.1130   23.8390 C   0  0  0  0  0  3  0  0  0  0  0  0
  -17.0700  -30.4160   23.7950 C   0  0  0  0  0  3  0  0  0  0  0  0
  -16.1610  -29.4810   23.2730 C   0  0  0  0  0  3  0  0  0  0  0  0
  -16.6270  -28.2460   22.7870 C   0  0  0  0  0  3  0  0  0  0  0  0
  -26.0440  -32.5130   24.1700 C   0  0  0  0  0  3  0  0  0  0  0  0
  -25.9370  -33.9080   24.6180 N   0  0  0  0  0  0  0  0  0  0  0  0
  -26.4520  -34.9580   23.9640 C   0  0  0  0  0  0  0  0  0  0  0  0
  -27.1370  -34.8420   22.9450 O   0  0  0  0  0  0  0  0  0  0  0  0
  -25.3430  -34.0830   25.4160 H   0  0  0  0  0  0  0  0  0  0  0  0
  -25.0600  -37.0350   23.6940 C   0  0  0  0  0  1  0  0  0  0  0  0
  -26.1580  -36.3590   24.5310 C   0  0  0  0  0  3  0  0  0  0  0  0
  -28.3410  -36.7940   25.5680 C   0  0  0  0  0  1  0  0  0  0  0  0
  -27.3510  -37.2320   24.5880 N   0  0  0  0  0  0  0  0  0  0  0  0
  -27.0880  -38.1880   24.8080 H   0  0  0  0  0  0  0  0  0  0  0  0
  -26.6050  -31.5950   25.3240 C   0  0  1  0  0  0  0  0  0  0  0  0
  -25.5800  -31.3140   26.4470 C   0  0  0  0  0  1  0  0  0  0  0  0
  -27.0710  -30.2340   24.7560 C   0  0  0  0  0  1  0  0  0  0  0  0
  -27.8480  -32.2570   25.9640 C   0  0  0  0  0  1  0  0  0  0  0  0
  -31.4810  -17.3700   20.9220 C   0  0  0  0  0  3  0  0  0  0  0  0
  -31.0130  -16.6140   23.3730 C   0  0  0  0  0  1  0  0  0  0  0  0
  -31.8850  -16.4610   22.1160 C   0  0  0  0  0  2  0  0  0  0  0  0
  -30.4080  -16.7210   20.0060 C   0  0  0  0  0  2  0  0  0  0  0  0
  -30.8320  -14.2890   19.5600 C   0  0  0  0  0  0  0  0  0  0  0  0
  -30.5230  -11.9740   18.7720 C   0  0  0  0  0  2  0  0  0  0  0  0
  -29.5060  -11.9570   17.6120 C   0  0  0  0  0  2  0  0  0  0  0  0
  -28.0590  -11.8860   18.1420 C   0  0  0  0  0  2  0  0  0  0  0  0
  -27.7780  -12.9320   19.2530 C   0  0  0  0  0  3  0  0  0  0  0  0
  -28.8890  -12.8800   20.3250 C   0  0  0  0  0  2  0  0  0  0  0  0
  -30.1870  -13.0990   19.6530 N   0  0  0  0  0  0  0  0  0  0  0  0
  -31.8500  -14.4710   18.8840 O   0  0  0  0  0  0  0  0  0  0  0  0
  -30.2090  -15.2890   20.1930 N   0  0  0  0  0  0  0  0  0  0  0  0
  -29.4020  -15.0180   20.7330 H   0  0  0  0  0  0  0  0  0  0  0  0
  -25.4990  -13.6910   20.1900 C   0  0  0  0  0  0  0  0  0  0  0  0
  -24.4130  -12.9850   20.6320 C   0  0  0  0  0  0  0  0  0  0  0  0
  -24.7650  -11.6060   20.5140 C   0  0  0  0  0  0  0  0  0  0  0  0
  -26.4510  -12.7460   19.8390 N   0  0  0  0  0  0  0  0  0  0  0  0
  -26.0140  -11.4840   20.0870 N   0  0  0  0  0  0  0  0  0  0  0  0
  -23.9670  -10.3930   20.7310 C   0  0  0  0  0  0  0  0  0  0  0  0
  -24.3130   -9.4490   21.7220 C   0  0  0  0  0  3  0  0  0  0  0  0
  -23.5200   -8.2980   21.9230 C   0  0  0  0  0  3  0  0  0  0  0  0
  -22.3670   -8.0850   21.1320 C   0  0  0  0  0  0  0  0  0  0  0  0
  -22.0390   -9.0170   20.1320 C   0  0  0  0  0  3  0  0  0  0  0  0
  -22.8310  -10.1580   19.9290 C   0  0  0  0  0  3  0  0  0  0  0  0
  -21.5510   -6.9840   21.2390 O   0  0  0  0  0  0  0  0  0  0  0  0
  -21.2910   -6.3960   22.4510 C   0  0  0  0  0  0  0  0  0  0  0  0
  -20.6530   -7.0980   23.4970 C   0  0  0  0  0  3  0  0  0  0  0  0
  -20.3420   -6.4350   24.7020 C   0  0  0  0  0  3  0  0  0  0  0  0
  -20.6570   -5.0730   24.8580 C   0  0  0  0  0  0  0  0  0  0  0  0
  -21.2870   -4.3710   23.8150 C   0  0  0  0  0  3  0  0  0  0  0  0
  -21.6000   -5.0310   22.6140 C   0  0  0  0  0  0  0  0  0  0  0  0
  -22.1880   -4.3450   21.6040 F   0  0  0  0  0  0  0  0  0  0  0  0
  -20.3510   -4.4330   26.0110 F   0  0  0  0  0  0  0  0  0  0  0  0
  -23.0850  -13.5510   21.0500 C   0  0  0  0  0  0  0  0  0  0  0  0
  -22.4070  -12.8950   21.9840 N   0  0  0  0  0  0  0  0  0  0  0  0
  -22.6650  -14.6080   20.5820 O   0  0  0  0  0  0  0  0  0  0  0  0
  -22.7610  -12.0380   22.3830 H   0  0  0  0  0  0  0  0  0  0  0  0
  -21.5190  -13.2550   22.3060 H   0  0  0  0  0  0  0  0  0  0  0  0
  -25.7510  -15.0520   20.0420 N   0  0  0  0  0  0  0  0  0  0  0  0
  -25.0510  -15.7580   20.2410 H   0  0  0  0  0  0  0  0  0  0  0  0
  -26.6050  -15.4380   19.6590 H   0  0  0  0  0  0  0  0  0  0  0  0
  2  5  1  0
  3  1  1  0
  4  2  1  0
  4  6  1  0
  5  7  1  0
  5  1  1  0
  6 55  1  0
  6  3  1  0
  8 11  1  0
  8  7  1  0
  9  8  1  0
 10  8  1  0
 12 13  1  0
 12 11  1  0
 14 16  1  0
 14 13  1  0
 15 26  2  0
 16 21  1  0
 17 25  1  0
 17 27  1  0
 18 24  1  0
 18 20  1  0
 19 25  1  0
 20 19  1  0
 21 20  2  0
 22 23  1  0
 22 16  2  0
 23 18  2  0
 24 17  1  0
 25 15  1  0
 27 29  2  0
 28 27  1  0
 30 28  1  0
 31 36  1  0
 32 28  1  0
 33 32  1  0
 34 35  1  0
 34 33  1  0
 35 31  1  0
 36 32  1  0
 36 37  2  0
 38 37  1  0
 39 38  2  0
 40 31  2  0
 40 39  1  0
 41 15  1  0
 41 42  1  0
 41 51  1  0
 42 45  1  0
 43 47  1  0
 43 42  1  0
 44 43  2  0
 47 46  1  0
 47 49  1  0
 49 50  1  0
 49 48  1  0
 51 54  1  1
 51 52  1  0
 53 51  1  0
 55 58  1  0
 55 57  1  0
 57 56  1  0
 58 67  1  0
 59 65  1  0
 59 67  1  0
 60 65  1  0
 61 62  1  0
 61 60  1  0
 63 62  1  0
 63 72  1  0
 63 64  1  0
 65 64  1  0
 66 59  2  0
 67 68  1  0
 69 70  2  0
 70 89  1  0
 71 70  1  0
 71 74  1  0
 72 73  1  0
 72 69  1  0
 73 71  2  0
 74 75  1  0
 75 76  2  0
 77 80  1  0
 77 76  1  0
 78 77  2  0
 79 78  1  0
 79 74  2  0
 80 81  1  0
 81 86  2  0
 81 82  1  0
 82 83  2  0
 83 84  1  0
 84 88  1  0
 85 84  2  0
 86 85  1  0
 87 86  1  0
 89 90  1  0
 90 93  1  0
 90 92  1  0
 91 89  2  0
 94 69  1  0
 94 95  1  0
 96 94  1  0
M  ISO  4  13 101  14 101  59 100  67 100
M  END
>  <TORSDO>  (1) 
F 24

>  <SCORE>  (1) 
-8.638

>  <name>  (1) 
0

>  <ligand_id>  (1) 
0

>  <original_smiles>  (1) 
[H]c1c([H])c([H])c2c(c1[H])C([H])([H])C([H])([H])C([H])([H])C2([H])N([H])C(=O)C1([H])N(C(=O)C([H])(N([H])C(=O)C([H])(N([H])C([H])([H])[H])C([H])([H])[H])C(C([H])([H])[H])(C([H])([H])[H])C([H])([H])[H])C([H])([H])c2c([H])c(OC([H])([H])C([H])([H])C([H])([H])[N+]([H])([H])C([H])([H])C3([H])C([H])([H])C([H])([H])C([H])(C([H])(C([H])([H])N([H])C(=O)N4C([H])([H])C([H])([H])C([H])([H])C([H])(n5nc(-c6c([H])c([H])c(Oc7c([H])c([H])c(F)c([H])c7F)c([H])c6[H])c(C(=O)N([H])[H])c5N([H])[H])C4([H])[H])C([H])([H])C([H])([H])[H])C([H])([H])C3([H])[H])c([H])c([H])c2C1([H])[H]

>  <smiles>  (1) 
[H]c1c([H])c([H])c2c(c1[H])C([H])([H])C([H])([H])C([H])([H])C2([H])N([H])C(=O)C1([H])N(C(=O)C([H])(N([H])C(=O)C([H])(N([H])C([H])([H])[H])C([H])([H])[H])C(C([H])([H])[H])(C([H])([H])[H])C([H])([H])[H])C([H])([H])c2c([H])c(OC([H])([H])C([H])([H])C([H])([H])[N+]([H])([H])C([H])([H])C3([H])C([H])([H])C([H])([H])C([H])(C([H])(C([H])([H])N([H])C(=O)N4C([H])([H])C([H])([H])C([H])([H])C([H])(n5nc(-c6c([H])c([H])c(Oc7c([H])c([H])c(F)c([H])c7F)c([H])c6[H])c(C(=O)N([H])[H])c5N([H])[H])C4([H])[H])C([H])([H])C([H])([H])[H])C([H])([H])C3([H])[H])c([H])c([H])c2C1([H])[H]

$$$$
1:0:0
     RDKit          3D

 88 97  0  0  1  0  0  0  0  0999 V2000
  -29.6510  -21.1900   20.5420 C   0  0  0  0  0  3  0  0  0  0  0  0
  -29.7070  -19.8100   19.7310 C   0  0  0  0  0  3  0  0  0  0  0  0
  -30.8620  -14.6840   19.6630 C   0  0  0  0  0  0  0  0  0  0  0  0
  -30.4400  -12.5440   18.4490 C   0  0  0  0  0  2  0  0  0  0  0  0
  -29.3400  -12.7620   17.3870 C   0  0  0  0  0  2  0  0  0  0  0  0
  -27.9380  -12.5800   18.0010 C   0  0  0  0  0  2  0  0  0  0  0  0
  -27.7700  -13.3610   19.3320 C   0  0  0  0  0  3  0  0  0  0  0  0
  -28.9630  -13.1050   20.2750 C   0  0  0  0  0  2  0  0  0  0  0  0
  -30.1950  -13.4860   19.5630 N   0  0  0  0  0  0  0  0  0  0  0  0
  -31.8780  -14.9060   18.9960 O   0  0  0  0  0  0  0  0  0  0  0  0
  -29.4300  -18.3560   21.8700 C   0  0  0  0  0  2  0  0  0  0  0  0
  -30.2860  -15.8590   21.8350 C   0  0  0  0  0  2  0  0  0  0  0  0
  -29.1780  -16.8820   21.6130 C   0  0  0  0  0  3  0  0  0  0  0  0
  -30.1260  -18.4870   20.5080 C   0  0  0  0  0  3  0  0  0  0  0  0
  -29.5800  -17.0160   20.1320 C   0  0  0  0  0  3  0  0  0  0  0  0
  -30.2630  -15.6820   20.3930 N   0  0  0  0  0  0  0  0  0  0  0  0
  -25.5320  -13.9390   20.4570 C   0  0  0  0  0  0  0  0  0  0  0  0
  -24.5000  -13.1570   20.8990 C   0  0  0  0  0  0  0  0  0  0  0  0
  -24.8950  -11.8060   20.6550 C   0  0  0  0  0  0  0  0  0  0  0  0
  -26.4930  -13.0630   19.9760 N   0  0  0  0  0  0  0  0  0  0  0  0
  -26.1230  -11.7690   20.1540 N   0  0  0  0  0  0  0  0  0  0  0  0
  -24.1530  -10.5500   20.8170 C   0  0  0  0  0  0  0  0  0  0  0  0
  -24.6670   -9.4810   21.5850 C   0  0  0  0  0  3  0  0  0  0  0  0
  -23.9250   -8.2910   21.7420 C   0  0  0  0  0  3  0  0  0  0  0  0
  -22.6550   -8.1600   21.1300 C   0  0  0  0  0  0  0  0  0  0  0  0
  -22.1580   -9.2190   20.3500 C   0  0  0  0  0  3  0  0  0  0  0  0
  -22.8990  -10.4020   20.1900 C   0  0  0  0  0  3  0  0  0  0  0  0
  -21.8760   -7.0320   21.2060 O   0  0  0  0  0  0  0  0  0  0  0  0
  -21.9320   -6.1890   22.2870 C   0  0  0  0  0  0  0  0  0  0  0  0
  -21.6980   -6.6460   23.6020 C   0  0  0  0  0  3  0  0  0  0  0  0
  -21.6970   -5.7330   24.6750 C   0  0  0  0  0  3  0  0  0  0  0  0
  -21.9210   -4.3650   24.4360 C   0  0  0  0  0  0  0  0  0  0  0  0
  -22.1490   -3.9060   23.1280 C   0  0  0  0  0  3  0  0  0  0  0  0
  -22.1520   -4.8160   22.0550 C   0  0  0  0  0  0  0  0  0  0  0  0
  -22.3510   -4.3660   20.7930 F   0  0  0  0  0  0  0  0  0  0  0  0
  -21.9130   -3.4870   25.4670 F   0  0  0  0  0  0  0  0  0  0  0  0
  -23.1790  -13.6370   21.4270 C   0  0  0  0  0  0  0  0  0  0  0  0
  -22.5640  -12.8770   22.3260 N   0  0  0  0  0  0  0  0  0  0  0  0
  -22.7070  -14.7200   21.0790 O   0  0  0  0  0  0  0  0  0  0  0  0
  -22.9610  -11.9980   22.6240 H   0  0  0  0  0  0  0  0  0  0  0  0
  -21.6850  -13.1790   22.7210 H   0  0  0  0  0  0  0  0  0  0  0  0
  -25.7280  -15.3160   20.4020 N   0  0  0  0  0  0  0  0  0  0  0  0
  -25.0240  -15.9770   20.7100 H   0  0  0  0  0  0  0  0  0  0  0  0
  -26.5410  -15.7620   19.9970 H   0  0  0  0  0  0  0  0  0  0  0  0
  -28.9380  -22.4470   19.8650 C   0  0  0  0  0  2  0  0  0  0  0  0
  -29.0510  -23.8930   20.5410 C   0  0  0  0  0  3  0  0  0  0  0  0
  -28.0930  -25.0270   19.9720 C   0  0  0  0  0  3  0  0  0  0  0  0
  -28.2520  -26.4470   20.3760 O   0  0  0  0  0  0  0  0  0  0  0  0
  -24.5250  -31.9210   23.2460 C   0  0  0  0  0  0  0  0  0  0  0  0
  -27.1380  -27.3010   20.2830 C   0  0  0  0  0  0  0  0  0  0  0  0
  -23.3250  -30.4940   21.6290 C   0  0  0  0  0  3  0  0  0  0  0  0
  -24.7760  -28.9190   20.2360 C   0  0  0  0  0  0  0  0  0  0  0  0
  -25.8660  -30.8010   21.4530 C   0  0  0  0  0  2  0  0  0  0  0  0
  -25.9430  -29.4120   20.8320 C   0  0  0  0  0  0  0  0  0  0  0  0
  -27.1250  -28.6130   20.8510 C   0  0  0  0  0  3  0  0  0  0  0  0
  -25.9490  -26.8730   19.6420 C   0  0  0  0  0  3  0  0  0  0  0  0
  -24.7810  -27.6530   19.6350 C   0  0  0  0  0  3  0  0  0  0  0  0
  -23.5420  -29.7960   20.2630 C   0  0  0  0  0  2  0  0  0  0  0  0
  -24.5910  -31.0910   22.1650 N   0  0  0  0  0  0  0  0  0  0  0  0
  -23.4410  -32.2120   23.7700 O   0  0  0  0  0  0  0  0  0  0  0  0
  -22.6570  -29.4960   22.6060 C   0  0  0  0  0  0  0  0  0  0  0  0
  -21.3350  -29.3050   22.4640 N   0  0  0  0  0  0  0  0  0  0  0  0
  -23.3290  -28.8960   23.4500 O   0  0  0  0  0  0  0  0  0  0  0  0
  -20.8520  -29.8410   21.7550 H   0  0  0  0  0  0  0  0  0  0  0  0
  -17.9620  -28.0830   22.9330 C   0  0  0  0  0  0  0  0  0  0  0  0
  -20.5110  -28.3840   23.2480 C   0  0  0  0  0  3  0  0  0  0  0  0
  -20.6430  -26.9350   22.7250 C   0  0  0  0  0  2  0  0  0  0  0  0
  -19.5680  -26.5650   21.6990 C   0  0  0  0  0  2  0  0  0  0  0  0
  -18.1710  -26.7140   22.3070 C   0  0  0  0  0  2  0  0  0  0  0  0
  -19.0620  -28.8730   23.3600 C   0  0  0  0  0  0  0  0  0  0  0  0
  -18.8150  -30.1530   23.9040 C   0  0  0  0  0  3  0  0  0  0  0  0
  -17.5010  -30.6420   24.0240 C   0  0  0  0  0  3  0  0  0  0  0  0
  -16.4150  -29.8500   23.6130 C   0  0  0  0  0  3  0  0  0  0  0  0
  -16.6470  -28.5720   23.0730 C   0  0  0  0  0  3  0  0  0  0  0  0
  -25.8080  -32.5620   23.8600 C   0  0  0  0  0  3  0  0  0  0  0  0
  -26.3100  -31.8230   25.1620 C   0  0  1  0  0  0  0  0  0  0  0  0
  -25.2060  -31.6140   26.2240 C   0  0  0  0  0  1  0  0  0  0  0  0
  -26.8950  -30.4350   24.8120 C   0  0  0  0  0  1  0  0  0  0  0  0
  -27.4540  -32.6340   25.8160 C   0  0  0  0  0  1  0  0  0  0  0  0
  -25.5040  -33.9700   24.1500 N   0  0  0  0  0  0  0  0  0  0  0  0
  -25.8390  -34.9990   23.3600 C   0  0  0  0  0  0  0  0  0  0  0  0
  -26.5060  -34.8640   22.3300 O   0  0  0  0  0  0  0  0  0  0  0  0
  -24.9120  -34.1510   24.9460 H   0  0  0  0  0  0  0  0  0  0  0  0
  -24.1150  -36.7880   22.9590 C   0  0  0  0  0  1  0  0  0  0  0  0
  -25.3580  -36.4030   23.7770 C   0  0  0  0  0  3  0  0  0  0  0  0
  -27.5020  -37.3020   24.5680 C   0  0  0  0  0  1  0  0  0  0  0  0
  -26.3940  -37.4490   23.6270 N   0  0  0  0  0  0  0  0  0  0  0  0
  -25.9930  -38.3740   23.7510 H   0  0  0  0  0  0  0  0  0  0  0  0
  2  1  2  0
  3 16  1  0
  4  9  1  0
  5  6  1  0
  5  4  1  0
  7  6  1  0
  7 20  1  0
  7  8  1  0
  9  3  1  0
  9  8  1  0
 10  3  2  0
 13 12  1  0
 13 11  1  0
 14  2  1  0
 14 11  1  0
 15 16  1  0
 15 14  1  0
 15 13  1  0
 16 12  1  0
 17 18  2  0
 18 37  1  0
 19 22  1  0
 19 18  1  0
 20 21  1  0
 20 17  1  0
 21 19  2  0
 22 23  1  0
 23 24  2  0
 25 28  1  0
 25 24  1  0
 26 25  2  0
 27 26  1  0
 27 22  2  0
 28 29  1  0
 29 30  1  0
 30 31  2  0
 32 31  1  0
 32 36  1  0
 33 32  2  0
 34 29  2  0
 34 33  1  0
 35 34  1  0
 37 38  1  0
 38 40  1  0
 38 41  1  0
 39 37  2  0
 42 17  1  0
 42 43  1  0
 44 42  1  0
 45 46  1  0
 45  1  1  0
 47 48  1  0
 47 46  2  0
 49 60  2  0
 50 48  1  0
 50 55  1  0
 51 59  1  0
 51 61  1  0
 52 58  1  0
 52 54  1  0
 53 59  1  0
 54 55  2  0
 54 53  1  0
 56 50  2  0
 57 56  1  0
 57 52  2  0
 58 51  1  0
 59 49  1  0
 61 63  2  0
 62 61  1  0
 64 62  1  0
 65 74  2  0
 65 70  1  0
 66 62  1  0
 66 70  1  0
 67 66  1  0
 68 69  1  0
 68 67  1  0
 69 65  1  0
 70 71  2  0
 71 72  1  0
 73 72  2  0
 74 73  1  0
 75 49  1  0
 75 80  1  0
 75 76  1  0
 76 79  1  1
 76 77  1  0
 78 76  1  0
 80 83  1  0
 81 85  1  0
 81 80  1  0
 82 81  2  0
 85 84  1  0
 87 88  1  0
 87 85  1  0
 87 86  1  0
M  ISO  4   3 100  16 100  47 101  48 101
M  END
>  <TORSDO>  (2) 
F 20

>  <SCORE>  (2) 
-11.113

>  <name>  (2) 
1

>  <ligand_id>  (2) 
1

>  <original_smiles>  (2) 
[H]c1c([H])c([H])c2c(c1[H])C([H])([H])C([H])([H])C([H])([H])C2([H])N([H])C(=O)C1([H])N(C(=O)C([H])(N([H])C(=O)C([H])(N([H])C([H])([H])[H])C([H])([H])[H])C(C([H])([H])[H])(C([H])([H])[H])C([H])([H])[H])C([H])([H])c2c([H])c(OC([H])([H])C([H])([H])C([H])([H])C([H])([H])C([H])([H])C3([H])C([H])([H])C4([H])C([H])([H])N(C(=O)N5C([H])([H])C([H])([H])C([H])([H])C([H])(n6nc(-c7c([H])c([H])c(Oc8c([H])c([H])c(F)c([H])c8F)c([H])c7[H])c(C(=O)N([H])[H])c6N([H])[H])C5([H])[H])C43[H])c([H])c([H])c2C1([H])[H]

>  <smiles>  (2) 
[H]c1c([H])c([H])c2c(c1[H])C([H])([H])C([H])([H])C([H])([H])C2([H])N([H])C(=O)C1([H])N(C(=O)C([H])(N([H])C(=O)C([H])(N([H])C([H])([H])[H])C([H])([H])[H])C(C([H])([H])[H])(C([H])([H])[H])C([H])([H])[H])C([H])([H])c2c([H])c(OC([H])([H])C([H])([H])C([H])([H])C([H])([H])C([H])([H])C3([H])C([H])([H])C4([H])C([H])([H])N(C(=O)N5C([H])([H])C([H])([H])C([H])([H])C([H])(n6nc(-c7c([H])c([H])c(Oc8c([H])c([H])c(F)c([H])c8F)c([H])c7[H])c(C(=O)N([H])[H])c6N([H])[H])C5([H])[H])C43[H])c([H])c([H])c2C1([H])[H]

$$$$
2:0:0
     RDKit          3D

 96106  0  0  1  0  0  0  0  0999 V2000
  -30.7940  -18.3770   20.9710 C   0  0  0  0  0  0  0  0  0  0  0  0
  -30.2990  -22.6080   19.3880 C   0  0  0  0  0  2  0  0  0  0  0  0
  -31.7780  -20.4950   19.9020 C   0  0  0  0  0  2  0  0  0  0  0  0
  -30.4000  -20.6910   21.9030 C   0  0  0  0  0  3  0  0  0  0  0  0
  -31.4880  -21.9780   20.1330 C   0  0  0  0  0  3  0  0  0  0  0  0
  -30.7260  -22.1370   21.4240 C   0  0  0  0  0  3  0  0  0  0  0  0
  -29.6940  -23.0730   20.7150 C   0  0  0  0  0  3  0  0  0  0  0  0
  -31.0030  -19.7410   20.9180 N   0  0  0  0  0  0  0  0  0  0  0  0
  -30.1950  -17.8690   21.9250 O   0  0  0  0  0  0  0  0  0  0  0  0
  -31.1030  -14.9040   20.2980 C   0  0  0  0  0  0  0  0  0  0  0  0
  -30.8060  -12.6100   19.4290 C   0  0  0  0  0  2  0  0  0  0  0  0
  -29.8810  -12.5690   18.1960 C   0  0  0  0  0  2  0  0  0  0  0  0
  -28.3880  -12.5360   18.6120 C   0  0  0  0  0  2  0  0  0  0  0  0
  -28.0040  -13.4540   19.8090 C   0  0  0  0  0  3  0  0  0  0  0  0
  -29.0840  -13.4670   20.9140 C   0  0  0  0  0  2  0  0  0  0  0  0
  -30.3800  -13.7360   20.2750 N   0  0  0  0  0  0  0  0  0  0  0  0
  -32.3290  -14.8770   20.3680 O   0  0  0  0  0  0  0  0  0  0  0  0
  -30.0020  -17.0600   17.6860 C   0  0  0  0  0  2  0  0  0  0  0  0
  -30.7390  -18.0800   18.4790 C   0  0  0  0  0  2  0  0  0  0  0  0
  -29.5820  -16.0410   18.7130 C   0  0  0  0  0  2  0  0  0  0  0  0
  -31.2110  -17.4170   19.8010 C   0  0  0  0  0  3  0  0  0  0  0  0
  -30.5100  -16.0720   19.8560 N   0  0  0  0  0  0  0  0  0  0  0  0
  -25.6330  -14.1040   20.5380 C   0  0  0  0  0  0  0  0  0  0  0  0
  -24.5510  -13.3450   20.8820 C   0  0  0  0  0  0  0  0  0  0  0  0
  -24.9980  -11.9890   20.8470 C   0  0  0  0  0  0  0  0  0  0  0  0
  -26.6650  -13.2030   20.3130 N   0  0  0  0  0  0  0  0  0  0  0  0
  -26.2900  -11.9300   20.5670 N   0  0  0  0  0  0  0  0  0  0  0  0
  -24.2600  -10.7340   21.0070 C   0  0  0  0  0  0  0  0  0  0  0  0
  -24.6420   -9.7750   21.9720 C   0  0  0  0  0  3  0  0  0  0  0  0
  -23.9040   -8.5810   22.1210 C   0  0  0  0  0  3  0  0  0  0  0  0
  -22.7730   -8.3410   21.3040 C   0  0  0  0  0  0  0  0  0  0  0  0
  -22.4150   -9.2880   20.3280 C   0  0  0  0  0  3  0  0  0  0  0  0
  -23.1530  -10.4730   20.1760 C   0  0  0  0  0  3  0  0  0  0  0  0
  -22.0100   -7.2010   21.3660 O   0  0  0  0  0  0  0  0  0  0  0  0
  -21.8700   -6.4940   22.5320 C   0  0  0  0  0  0  0  0  0  0  0  0
  -21.2980   -7.0660   23.6890 C   0  0  0  0  0  3  0  0  0  0  0  0
  -21.1080   -6.2800   24.8430 C   0  0  0  0  0  3  0  0  0  0  0  0
  -21.4810   -4.9220   24.8390 C   0  0  0  0  0  0  0  0  0  0  0  0
  -22.0480   -4.3500   23.6860 C   0  0  0  0  0  3  0  0  0  0  0  0
  -22.2380   -5.1330   22.5350 C   0  0  0  0  0  0  0  0  0  0  0  0
  -22.7650   -4.5730   21.4200 F   0  0  0  0  0  0  0  0  0  0  0  0
  -21.2920   -4.1640   25.9440 F   0  0  0  0  0  0  0  0  0  0  0  0
  -23.1540  -13.8390   21.1260 C   0  0  0  0  0  0  0  0  0  0  0  0
  -22.4000  -13.1530   21.9770 N   0  0  0  0  0  0  0  0  0  0  0  0
  -22.7380  -14.8700   20.6000 O   0  0  0  0  0  0  0  0  0  0  0  0
  -22.7450  -12.3220   22.4340 H   0  0  0  0  0  0  0  0  0  0  0  0
  -21.4600  -13.4680   22.1770 H   0  0  0  0  0  0  0  0  0  0  0  0
  -25.8140  -15.4770   20.3740 N   0  0  0  0  0  0  0  0  0  0  0  0
  -25.0510  -16.1350   20.4990 H   0  0  0  0  0  0  0  0  0  0  0  0
  -26.6900  -15.9250   20.1420 H   0  0  0  0  0  0  0  0  0  0  0  0
  -30.9990  -20.4920   23.3140 C   0  0  0  0  0  0  0  0  0  0  0  0
  -30.2500  -21.1050   24.4880 C   0  0  0  0  0  1  0  0  0  0  0  0
  -32.0650  -19.9050   23.5200 O   0  0  0  0  0  0  0  0  0  0  0  0
  -29.6560  -24.6030   20.9900 C   0  0  0  0  0  2  0  0  0  0  0  0
  -28.5360  -25.3730   20.2250 C   0  0  0  0  0  2  0  0  0  0  0  0
  -28.5790  -26.8090   20.4110 O   0  0  0  0  0  0  0  0  0  0  0  0
  -24.6260  -31.9850   23.3030 C   0  0  0  0  0  0  0  0  0  0  0  0
  -27.3960  -27.5330   20.3230 C   0  0  0  0  0  0  0  0  0  0  0  0
  -23.4720  -30.5470   21.6560 C   0  0  0  0  0  3  0  0  0  0  0  0
  -24.9750  -29.0240   20.2650 C   0  0  0  0  0  0  0  0  0  0  0  0
  -25.9960  -30.9440   21.4950 C   0  0  0  0  0  2  0  0  0  0  0  0
  -26.1150  -29.5660   20.8700 C   0  0  0  0  0  0  0  0  0  0  0  0
  -27.3250  -28.8290   20.8930 C   0  0  0  0  0  3  0  0  0  0  0  0
  -26.2380  -27.0200   19.6920 C   0  0  0  0  0  3  0  0  0  0  0  0
  -25.0340  -27.7530   19.6690 C   0  0  0  0  0  3  0  0  0  0  0  0
  -23.7160  -29.8620   20.2840 C   0  0  0  0  0  2  0  0  0  0  0  0
  -24.7150  -31.1740   22.2100 N   0  0  0  0  0  0  0  0  0  0  0  0
  -23.5310  -32.2430   23.8210 O   0  0  0  0  0  0  0  0  0  0  0  0
  -22.8230  -29.5240   22.6160 C   0  0  0  0  0  0  0  0  0  0  0  0
  -21.5170  -29.2720   22.4310 N   0  0  0  0  0  0  0  0  0  0  0  0
  -23.4940  -28.9590   23.4840 O   0  0  0  0  0  0  0  0  0  0  0  0
  -21.0360  -29.7790   21.7000 H   0  0  0  0  0  0  0  0  0  0  0  0
  -18.1950  -27.8910   22.7710 C   0  0  0  0  0  0  0  0  0  0  0  0
  -20.7090  -28.3170   23.1910 C   0  0  0  0  0  3  0  0  0  0  0  0
  -20.9340  -26.8740   22.6870 C   0  0  0  0  0  2  0  0  0  0  0  0
  -19.9210  -26.4420   21.6220 C   0  0  0  0  0  2  0  0  0  0  0  0
  -18.4940  -26.5280   22.1700 C   0  0  0  0  0  2  0  0  0  0  0  0
  -19.2360  -28.7380   23.2360 C   0  0  0  0  0  0  0  0  0  0  0  0
  -18.9040  -30.0080   23.7550 C   0  0  0  0  0  3  0  0  0  0  0  0
  -17.5630  -30.4340   23.8150 C   0  0  0  0  0  3  0  0  0  0  0  0
  -16.5360  -29.5860   23.3650 C   0  0  0  0  0  3  0  0  0  0  0  0
  -16.8530  -28.3170   22.8490 C   0  0  0  0  0  3  0  0  0  0  0  0
  -25.8900  -32.6460   23.9350 C   0  0  0  0  0  3  0  0  0  0  0  0
  -26.4080  -31.8900   25.2200 C   0  0  1  0  0  0  0  0  0  0  0  0
  -25.2990  -31.5910   26.2560 C   0  0  0  0  0  1  0  0  0  0  0  0
  -27.0670  -30.5440   24.8320 C   0  0  0  0  0  1  0  0  0  0  0  0
  -27.5030  -32.7320   25.9180 C   0  0  0  0  0  1  0  0  0  0  0  0
  -25.5460  -34.0380   24.2560 N   0  0  0  0  0  0  0  0  0  0  0  0
  -25.8580  -35.0930   23.4910 C   0  0  0  0  0  0  0  0  0  0  0  0
  -26.5340  -34.9990   22.4630 O   0  0  0  0  0  0  0  0  0  0  0  0
  -24.9430  -34.1830   25.0520 H   0  0  0  0  0  0  0  0  0  0  0  0
  -24.0880  -36.8400   23.1200 C   0  0  0  0  0  1  0  0  0  0  0  0
  -25.3370  -36.4730   23.9370 C   0  0  0  0  0  3  0  0  0  0  0  0
  -27.4430  -37.4200   24.7720 C   0  0  0  0  0  1  0  0  0  0  0  0
  -26.3450  -37.5490   23.8180 N   0  0  0  0  0  0  0  0  0  0  0  0
  -25.9150  -38.4610   23.9480 H   0  0  0  0  0  0  0  0  0  0  0  0
  1  9  2  0
  2  7  1  0
  3  5  1  0
  3  8  1  0
  4 51  1  0
  5  2  1  0
  5  6  1  0
  6  4  1  0
  7 54  1  0
  7  6  1  0
  8  1  1  0
  8  4  1  0
 10 17  2  0
 11 16  1  0
 12 13  1  0
 12 11  1  0
 13 14  1  0
 14 26  1  0
 14 15  1  0
 16 10  1  0
 16 15  1  0
 18 19  1  0
 18 20  1  0
 19 21  1  0
 20 22  1  0
 21 22  1  0
 21  1  1  0
 22 10  1  0
 23 24  2  0
 24 43  1  0
 25 24  1  0
 25 28  1  0
 26 23  1  0
 26 27  1  0
 27 25  2  0
 28 29  1  0
 29 30  2  0
 31 34  1  0
 31 30  1  0
 32 31  2  0
 33 32  1  0
 33 28  2  0
 34 35  1  0
 35 40  2  0
 35 36  1  0
 36 37  2  0
 38 37  1  0
 38 42  1  0
 39 38  2  0
 40 39  1  0
 41 40  1  0
 43 44  1  0
 44 47  1  0
 44 46  1  0
 45 43  2  0
 48 49  1  0
 48 23  1  0
 50 48  1  0
 51 53  2  0
 51 52  1  0
 55 56  1  0
 55 54  1  0
 57 68  2  0
 57 83  1  0
 58 56  1  0
 58 63  1  0
 59 67  1  0
 59 69  1  0
 60 66  1  0
 60 62  1  0
 61 67  1  0
 62 63  2  0
 62 61  1  0
 64 58  2  0
 65 64  1  0
 65 60  2  0
 66 59  1  0
 67 57  1  0
 69 71  2  0
 70 69  1  0
 70 74  1  0
 72 70  1  0
 73 82  2  0
 73 78  1  0
 74 78  1  0
 75 74  1  0
 76 77  1  0
 76 75  1  0
 77 73  1  0
 78 79  2  0
 79 80  1  0
 81 80  2  0
 82 81  1  0
 83 88  1  0
 83 84  1  0
 84 87  1  1
 84 85  1  0
 86 84  1  0
 88 91  1  0
 89 93  1  0
 89 88  1  0
 90 89  2  0
 92 93  1  0
 95 93  1  0
 95 96  1  0
 95 94  1  0
M  ISO  4  10 100  22 100  55 101  56 101
M  END
>  <TORSDO>  (3) 
F 19

>  <SCORE>  (3) 
-13.646

>  <name>  (3) 
2

>  <ligand_id>  (3) 
2

>  <original_smiles>  (3) 
[H]c1c([H])c([H])c2c(c1[H])C([H])([H])C([H])([H])C([H])([H])C2([H])N([H])C(=O)C1([H])N(C(=O)C([H])(N([H])C(=O)C([H])(N([H])C([H])([H])[H])C([H])([H])[H])C(C([H])([H])[H])(C([H])([H])[H])C([H])([H])[H])C([H])([H])c2c([H])c(OC([H])([H])C([H])([H])C3([H])C([H])([H])C4([H])C([H])([H])N(C(=O)C5([H])N(C(=O)N6C([H])([H])C([H])([H])C([H])([H])C([H])(n7nc(-c8c([H])c([H])c(Oc9c([H])c([H])c(F)c([H])c9F)c([H])c8[H])c(C(=O)N([H])[H])c7N([H])[H])C6([H])[H])C([H])([H])C([H])([H])C5([H])[H])C([H])(C(=O)C([H])([H])[H])C43[H])c([H])c([H])c2C1([H])[H]

>  <smiles>  (3) 
[H]c1c([H])c([H])c2c(c1[H])C([H])([H])C([H])([H])C([H])([H])C2([H])N([H])C(=O)C1([H])N(C(=O)C([H])(N([H])C(=O)C([H])(N([H])C([H])([H])[H])C([H])([H])[H])C(C([H])([H])[H])(C([H])([H])[H])C([H])([H])[H])C([H])([H])c2c([H])c(OC([H])([H])C([H])([H])C3([H])C([H])([H])C4([H])C([H])([H])N(C(=O)C5([H])N(C(=O)N6C([H])([H])C([H])([H])C([H])([H])C([H])(n7nc(-c8c([H])c([H])c(Oc9c([H])c([H])c(F)c([H])c9F)c([H])c8[H])c(C(=O)N([H])[H])c7N([H])[H])C6([H])[H])C([H])([H])C([H])([H])C5([H])[H])C([H])(C(=O)C([H])([H])[H])C43[H])c([H])c([H])c2C1([H])[H]

$$$$
3:0:0
     RDKit          3D

 96106  0  0  1  0  0  0  0  0999 V2000
  -30.3570  -19.2440   20.0600 C   0  0  0  0  0  3  0  0  0  0  0  0
  -30.7030  -19.1580   22.4750 C   0  0  0  0  0  3  0  0  0  0  0  0
  -29.9210  -20.5820   20.2060 C   0  0  0  0  0  0  0  0  0  0  0  0
  -30.2510  -20.4990   22.6240 C   0  0  0  0  0  0  0  0  0  0  0  0
  -29.8500  -21.1890   21.4530 C   0  0  0  0  0  0  0  0  0  0  0  0
  -30.8030  -18.5270   21.2070 C   0  0  0  0  0  0  0  0  0  0  0  0
  -29.5900  -21.5730   19.1050 C   0  0  0  0  0  2  0  0  0  0  0  0
  -29.3710  -22.6290   21.3300 C   0  0  0  0  0  2  0  0  0  0  0  0
  -28.9810  -22.8120   19.8310 C   0  0  0  0  0  3  0  0  0  0  0  0
  -31.6620  -21.6020   24.5150 C   0  0  0  0  0  2  0  0  0  0  0  0
  -30.8200  -20.5850   25.2500 C   0  0  0  0  0  2  0  0  0  0  0  0
  -30.3110  -21.2070   23.9610 C   0  0  0  0  0  3  0  0  0  0  0  0
  -29.2760  -24.2230   19.1970 C   0  0  0  0  0  2  0  0  0  0  0  0
  -28.0480  -25.1820   19.2490 C   0  0  0  0  0  2  0  0  0  0  0  0
  -28.2540  -26.6120   19.0670 O   0  0  0  0  0  0  0  0  0  0  0  0
  -24.6920  -31.4740   22.9380 C   0  0  0  0  0  0  0  0  0  0  0  0
  -27.1070  -27.3960   19.1940 C   0  0  0  0  0  0  0  0  0  0  0  0
  -23.3730  -30.2460   21.2510 C   0  0  0  0  0  3  0  0  0  0  0  0
  -24.7200  -28.9050   19.5510 C   0  0  0  0  0  0  0  0  0  0  0  0
  -25.8800  -30.6500   20.9060 C   0  0  0  0  0  2  0  0  0  0  0  0
  -25.9230  -29.3610   20.1030 C   0  0  0  0  0  0  0  0  0  0  0  0
  -27.1210  -28.6180   19.9180 C   0  0  0  0  0  3  0  0  0  0  0  0
  -25.8780  -26.9870   18.6240 C   0  0  0  0  0  3  0  0  0  0  0  0
  -24.6940  -27.7220   18.8020 C   0  0  0  0  0  3  0  0  0  0  0  0
  -23.4790  -29.7350   19.7910 C   0  0  0  0  0  2  0  0  0  0  0  0
  -24.6700  -30.8000   21.7520 N   0  0  0  0  0  0  0  0  0  0  0  0
  -23.6530  -31.6700   23.5830 O   0  0  0  0  0  0  0  0  0  0  0  0
  -22.8040  -29.1130   22.1360 C   0  0  0  0  0  0  0  0  0  0  0  0
  -21.4780  -28.9060   22.0680 N   0  0  0  0  0  0  0  0  0  0  0  0
  -23.5500  -28.4270   22.8390 O   0  0  0  0  0  0  0  0  0  0  0  0
  -20.9370  -29.5200   21.4760 H   0  0  0  0  0  0  0  0  0  0  0  0
  -18.1750  -27.5250   22.5790 C   0  0  0  0  0  0  0  0  0  0  0  0
  -20.7280  -27.8720   22.7800 C   0  0  0  0  0  3  0  0  0  0  0  0
  -20.8680  -26.5020   22.0820 C   0  0  0  0  0  2  0  0  0  0  0  0
  -19.7440  -26.2120   21.0840 C   0  0  0  0  0  2  0  0  0  0  0  0
  -18.3830  -26.2450   21.7860 C   0  0  0  0  0  2  0  0  0  0  0  0
  -19.2770  -28.2980   23.0310 C   0  0  0  0  0  0  0  0  0  0  0  0
  -19.0320  -29.4990   23.7310 C   0  0  0  0  0  3  0  0  0  0  0  0
  -17.7150  -29.9260   23.9890 C   0  0  0  0  0  3  0  0  0  0  0  0
  -16.6290  -29.1480   23.5520 C   0  0  0  0  0  3  0  0  0  0  0  0
  -16.8600  -27.9510   22.8510 C   0  0  0  0  0  3  0  0  0  0  0  0
  -26.0180  -32.0530   23.5250 C   0  0  0  0  0  3  0  0  0  0  0  0
  -25.7130  -33.3810   24.0730 N   0  0  0  0  0  0  0  0  0  0  0  0
  -26.0180  -34.5390   23.4700 C   0  0  0  0  0  0  0  0  0  0  0  0
  -26.6590  -34.5980   22.4170 O   0  0  0  0  0  0  0  0  0  0  0  0
  -25.1390  -33.4080   24.9020 H   0  0  0  0  0  0  0  0  0  0  0  0
  -24.2900  -36.3630   23.4300 C   0  0  0  0  0  1  0  0  0  0  0  0
  -25.5440  -35.8380   24.1450 C   0  0  0  0  0  3  0  0  0  0  0  0
  -27.6990  -36.5830   25.0630 C   0  0  0  0  0  1  0  0  0  0  0  0
  -26.5780  -36.8930   24.1790 N   0  0  0  0  0  0  0  0  0  0  0  0
  -26.1790  -37.7770   24.4800 H   0  0  0  0  0  0  0  0  0  0  0  0
  -26.6650  -31.1270   24.6260 C   0  0  1  0  0  0  0  0  0  0  0  0
  -25.6770  -30.7110   25.7410 C   0  0  0  0  0  1  0  0  0  0  0  0
  -27.2350  -29.8370   23.9920 C   0  0  0  0  0  1  0  0  0  0  0  0
  -27.8580  -31.8590   25.2850 C   0  0  0  0  0  1  0  0  0  0  0  0
  -31.6300  -17.2190   21.0880 C   0  0  0  0  0  3  0  0  0  0  0  0
  -31.3670  -14.8470   20.1220 C   0  0  0  0  0  0  0  0  0  0  0  0
  -30.9090  -12.6250   19.1470 C   0  0  0  0  0  2  0  0  0  0  0  0
  -29.9840  -12.7710   17.9270 C   0  0  0  0  0  2  0  0  0  0  0  0
  -28.5110  -12.7080   18.3680 C   0  0  0  0  0  2  0  0  0  0  0  0
  -28.2030  -13.6340   19.5760 C   0  0  0  0  0  3  0  0  0  0  0  0
  -29.2680  -13.5170   20.6910 C   0  0  0  0  0  2  0  0  0  0  0  0
  -30.5880  -13.7230   20.0820 N   0  0  0  0  0  0  0  0  0  0  0  0
  -32.4610  -14.8490   19.5640 O   0  0  0  0  0  0  0  0  0  0  0  0
  -30.8860  -15.9680   20.7210 N   0  0  0  0  0  0  0  0  0  0  0  0
  -29.9560  -15.8900   21.1030 H   0  0  0  0  0  0  0  0  0  0  0  0
  -25.8640  -14.3350   20.3740 C   0  0  0  0  0  0  0  0  0  0  0  0
  -24.7620  -13.6070   20.7440 C   0  0  0  0  0  0  0  0  0  0  0  0
  -25.1460  -12.2350   20.6470 C   0  0  0  0  0  0  0  0  0  0  0  0
  -26.8510  -13.4070   20.0840 N   0  0  0  0  0  0  0  0  0  0  0  0
  -26.4230  -12.1360   20.3040 N   0  0  0  0  0  0  0  0  0  0  0  0
  -24.3490  -11.0090   20.8100 C   0  0  0  0  0  0  0  0  0  0  0  0
  -24.7510   -9.9760   21.6870 C   0  0  0  0  0  3  0  0  0  0  0  0
  -23.9590   -8.8180   21.8400 C   0  0  0  0  0  3  0  0  0  0  0  0
  -22.7510   -8.6850   21.1170 C   0  0  0  0  0  0  0  0  0  0  0  0
  -22.3650   -9.7050   20.2290 C   0  0  0  0  0  3  0  0  0  0  0  0
  -23.1580  -10.8540   20.0720 C   0  0  0  0  0  3  0  0  0  0  0  0
  -21.9320   -7.5830   21.1840 O   0  0  0  0  0  0  0  0  0  0  0  0
  -21.8750   -6.7910   22.3040 C   0  0  0  0  0  0  0  0  0  0  0  0
  -21.5340   -7.3140   23.5690 C   0  0  0  0  0  3  0  0  0  0  0  0
  -21.4220   -6.4540   24.6810 C   0  0  0  0  0  3  0  0  0  0  0  0
  -21.6410   -5.0730   24.5270 C   0  0  0  0  0  0  0  0  0  0  0  0
  -21.9780   -4.5490   23.2660 C   0  0  0  0  0  3  0  0  0  0  0  0
  -22.0910   -5.4050   22.1570 C   0  0  0  0  0  0  0  0  0  0  0  0
  -22.3940   -4.8920   20.9400 F   0  0  0  0  0  0  0  0  0  0  0  0
  -21.5260   -4.2460   25.5910 F   0  0  0  0  0  0  0  0  0  0  0  0
  -23.4030  -14.1540   21.0730 C   0  0  0  0  0  0  0  0  0  0  0  0
  -22.6660  -13.4780   21.9470 N   0  0  0  0  0  0  0  0  0  0  0  0
  -23.0050  -15.2130   20.5890 O   0  0  0  0  0  0  0  0  0  0  0  0
  -22.9990  -12.6200   22.3620 H   0  0  0  0  0  0  0  0  0  0  0  0
  -21.7540  -13.8240   22.2070 H   0  0  0  0  0  0  0  0  0  0  0  0
  -26.1040  -15.6990   20.2420 N   0  0  0  0  0  0  0  0  0  0  0  0
  -25.3840  -16.3980   20.3940 H   0  0  0  0  0  0  0  0  0  0  0  0
  -26.9720  -16.0950   19.9080 H   0  0  0  0  0  0  0  0  0  0  0  0
  -33.7170  -18.7780   20.7580 C   0  0  0  0  0  1  0  0  0  0  0  0
  -32.9780  -17.4940   20.3440 C   0  0  0  0  0  2  0  0  0  0  0  0
  1  3  2  0
  1  6  1  0
  2  4  1  0
  3  5  1  0
  4 12  1  0
  5  4  2  0
  6  2  2  0
  7  9  1  0
  7  3  1  0
  8  5  1  0
  9 13  1  0
  9  8  1  0
 10 11  1  0
 12 10  1  0
 12 11  1  0
 13 14  1  0
 15 17  1  0
 15 14  1  0
 16 27  2  0
 17 22  1  0
 18 26  1  0
 18 28  1  0
 19 25  1  0
 19 21  1  0
 20 26  1  0
 21 20  1  0
 22 21  2  0
 23 24  1  0
 23 17  2  0
 24 19  2  0
 25 18  1  0
 26 16  1  0
 28 30  2  0
 29 28  1  0
 31 29  1  0
 32 41  2  0
 32 37  1  0
 33 29  1  0
 33 37  1  0
 34 33  1  0
 35 36  1  0
 35 34  1  0
 36 32  1  0
 37 38  2  0
 38 39  1  0
 40 39  2  0
 41 40  1  0
 42 16  1  0
 42 43  1  0
 42 52  1  0
 43 46  1  0
 44 43  1  0
 44 48  1  0
 45 44  2  0
 48 47  1  0
 48 50  1  0
 50 51  1  0
 50 49  1  0
 52 55  1  1
 52 53  1  0
 54 52  1  0
 56 96  1  0
 56  6  1  0
 57 65  1  0
 58 63  1  0
 59 60  1  0
 59 58  1  0
 61 60  1  0
 61 70  1  0
 61 62  1  0
 63 57  1  0
 63 62  1  0
 64 57  2  0
 65 56  1  0
 65 66  1  0
 67 68  2  0
 68 87  1  0
 69 68  1  0
 69 72  1  0
 70 71  1  0
 70 67  1  0
 71 69  2  0
 72 73  1  0
 73 74  2  0
 75 78  1  0
 75 74  1  0
 76 75  2  0
 77 76  1  0
 77 72  2  0
 78 79  1  0
 79 80  1  0
 80 81  2  0
 82 81  1  0
 82 86  1  0
 83 82  2  0
 84 79  2  0
 84 83  1  0
 85 84  1  0
 87 88  1  0
 88 91  1  0
 88 90  1  0
 89 87  2  0
 92 67  1  0
 92 93  1  0
 94 92  1  0
 96 95  1  0
M  ISO  4  14 101  15 101  57 100  65 100
M  END
>  <TORSDO>  (4) 
F 21

>  <SCORE>  (4) 
-10.872

>  <name>  (4) 
3

>  <ligand_id>  (4) 
3

>  <original_smiles>  (4) 
[H]c1c([H])c([H])c2c(c1[H])C([H])([H])C([H])([H])C([H])([H])C2([H])N([H])C(=O)C1([H])N(C(=O)C([H])(N([H])C(=O)C([H])(N([H])C([H])([H])[H])C([H])([H])[H])C(C([H])([H])[H])(C([H])([H])[H])C([H])([H])[H])C([H])([H])c2c([H])c(OC([H])([H])C([H])([H])C3([H])C([H])([H])c4c([H])c(C([H])(N([H])C(=O)N5C([H])([H])C([H])([H])C([H])([H])C([H])(n6nc(-c7c([H])c([H])c(Oc8c([H])c([H])c(F)c([H])c8F)c([H])c7[H])c(C(=O)N([H])[H])c6N([H])[H])C5([H])[H])C([H])([H])C([H])([H])[H])c([H])c(C5([H])C([H])([H])C5([H])[H])c4C3([H])[H])c([H])c([H])c2C1([H])[H]

>  <smiles>  (4) 
[H]c1c([H])c([H])c2c(c1[H])C([H])([H])C([H])([H])C([H])([H])C2([H])N([H])C(=O)C1([H])N(C(=O)C([H])(N([H])C(=O)C([H])(N([H])C([H])([H])[H])C([H])([H])[H])C(C([H])([H])[H])(C([H])([H])[H])C([H])([H])[H])C([H])([H])c2c([H])c(OC([H])([H])C([H])([H])C3([H])C([H])([H])c4c([H])c(C([H])(N([H])C(=O)N5C([H])([H])C([H])([H])C([H])([H])C([H])(n6nc(-c7c([H])c([H])c(Oc8c([H])c([H])c(F)c([H])c8F)c([H])c7[H])c(C(=O)N([H])[H])c6N([H])[H])C5([H])[H])C([H])([H])C([H])([H])[H])c([H])c(C5([H])C([H])([H])C5([H])[H])c4C3([H])[H])c([H])c([H])c2C1([H])[H]

$$$$
4:0:0
     RDKit          3D

 95 99  0  0  1  0  0  0  0  0999 V2000
  -29.7040  -20.2920   21.6860 C   0  0  0  0  0  2  0  0  0  0  0  0
  -28.9850  -21.5430   20.8650 C   0  0  0  0  0  2  0  0  0  0  0  0
  -32.8330  -20.0050   22.5180 C   0  0  0  0  0  2  0  0  0  0  0  0
  -31.1250  -21.7270   18.5570 C   0  0  0  0  0 15  0  0  0  0  0  0
  -33.9930  -20.5910   20.1690 C   0  0  0  0  0  2  0  0  0  0  0  0
  -31.7020  -19.5710   21.5890 C   0  0  0  0  0  2  0  0  0  0  0  0
  -29.5750  -22.9720   19.5680 C   0  0  0  0  0 15  0  0  0  0  0  0
  -32.6180  -20.2860   19.5620 C   0  0  0  0  0  1  0  0  0  0  0  0
  -33.6930  -20.9540   21.6440 C   0  0  0  0  0  3  0  0  0  0  0  0
  -27.5940  -21.7440   21.2350 C   0  0  0  0  0  0  0  0  0  0  0  0
  -26.8840  -20.6220   21.3010 N   0  0  0  0  0  0  0  0  0  0  0  0
  -27.0760  -22.8350   21.4590 O   0  0  0  0  0  0  0  0  0  0  0  0
  -27.3180  -19.7360   21.0830 H   0  0  0  0  0  0  0  0  0  0  0  0
  -25.9110  -20.6470   21.5660 H   0  0  0  0  0  0  0  0  0  0  0  0
  -29.2690  -25.1160   19.8030 O   0  0  0  0  0  1  0  0  0  0  0  0
  -25.3330  -31.8220   23.2920 C   0  0  0  0  0  0  0  0  0  0  0  0
  -28.2730  -26.5950   19.9000 C   0  0  0  0  0  0  0  0  0  0  0  0
  -24.3290  -30.5370   21.4610 C   0  0  0  0  0  3  0  0  0  0  0  0
  -25.9370  -28.9690   19.9890 C   0  0  0  0  0  0  0  0  0  0  0  0
  -26.9310  -30.5950   21.5530 C   0  0  0  0  0  2  0  0  0  0  0  0
  -27.1000  -29.1690   20.7400 C   0  0  0  0  0  0  0  0  0  0  0  0
  -28.2090  -28.0450   20.6450 C   0  0  0  0  0  3  0  0  0  0  0  0
  -27.0510  -26.7980   19.1300 C   0  0  0  0  0  3  0  0  0  0  0  0
  -25.9970  -27.8210   19.1650 C   0  0  0  0  0  3  0  0  0  0  0  0
  -24.7080  -29.9420   20.0600 C   0  0  0  0  0  2  0  0  0  0  0  0
  -25.5610  -31.0310   22.1620 N   0  0  0  0  0  0  0  0  0  0  0  0
  -24.1880  -32.0470   23.7340 O   0  0  0  0  0  0  0  0  0  0  0  0
  -23.5460  -29.4920   22.3070 C   0  0  0  0  0  0  0  0  0  0  0  0
  -22.2200  -29.3340   22.1070 N   0  0  0  0  0  0  0  0  0  0  0  0
  -24.1610  -28.8090   23.1300 O   0  0  0  0  0  0  0  0  0  0  0  0
  -21.7620  -29.9370   21.4390 H   0  0  0  0  0  0  0  0  0  0  0  0
  -18.8310  -28.0180   22.4470 C   0  0  0  0  0  0  0  0  0  0  0  0
  -21.3920  -28.2890   22.7330 C   0  0  0  0  0  3  0  0  0  0  0  0
  -21.5050  -26.9570   21.9530 C   0  0  0  0  0  2  0  0  0  0  0  0
  -20.4060  -26.7800   20.9020 C   0  0  0  0  0  2  0  0  0  0  0  0
  -19.0250  -26.7980   21.5610 C   0  0  0  0  0  2  0  0  0  0  0  0
  -19.9410  -28.7280   22.9830 C   0  0  0  0  0  0  0  0  0  0  0  0
  -19.6980  -29.8670   23.7820 C   0  0  0  0  0  3  0  0  0  0  0  0
  -18.3830  -30.2970   24.0430 C   0  0  0  0  0  3  0  0  0  0  0  0
  -17.2910  -29.5860   23.5160 C   0  0  0  0  0  3  0  0  0  0  0  0
  -17.5160  -28.4470   22.7250 C   0  0  0  0  0  3  0  0  0  0  0  0
  -26.4880  -32.4970   24.1020 C   0  0  0  0  0  3  0  0  0  0  0  0
  -26.9270  -31.6460   25.3600 C   0  0  1  0  0  0  0  0  0  0  0  0
  -25.7600  -31.2760   26.3080 C   0  0  0  0  0  1  0  0  0  0  0  0
  -27.6060  -30.3280   24.9350 C   0  0  0  0  0  1  0  0  0  0  0  0
  -27.9780  -32.4300   26.1800 C   0  0  0  0  0  1  0  0  0  0  0  0
  -26.0460  -33.8370   24.5650 N   0  0  0  0  0  0  0  0  0  0  0  0
  -26.3600  -35.0110   23.9960 C   0  0  0  0  0  0  0  0  0  0  0  0
  -27.0890  -35.0850   23.0050 O   0  0  0  0  0  0  0  0  0  0  0  0
  -25.3900  -33.8460   25.3320 H   0  0  0  0  0  0  0  0  0  0  0  0
  -24.5500  -36.7680   23.8190 C   0  0  0  0  0  1  0  0  0  0  0  0
  -25.7840  -36.3080   24.6140 C   0  0  0  0  0  3  0  0  0  0  0  0
  -27.8320  -37.1990   25.6460 C   0  0  0  0  0  1  0  0  0  0  0  0
  -26.7580  -37.4210   24.6820 N   0  0  0  0  0  0  0  0  0  0  0  0
  -26.2920  -38.2930   24.9220 H   0  0  0  0  0  0  0  0  0  0  0  0
  -32.7800  -22.0800   21.4220 C   0  0  0  0  0  2  0  0  0  0  0  0
  -31.2510  -21.6100   21.1850 C   0  0  0  0  0  1  0  0  0  0  0  0
  -30.8400  -17.3880   20.6510 C   0  0  0  0  0  0  0  0  0  0  0  0
  -31.3340  -14.5720   20.0020 C   0  0  0  0  0  2  0  0  0  0  0  0
  -30.7390  -13.6140   18.8790 C   0  0  0  0  0  2  0  0  0  0  0  0
  -29.4010  -12.9950   19.2770 C   0  0  0  0  0  2  0  0  0  0  0  0
  -28.6200  -14.0390   20.0840 C   0  0  0  0  0  3  0  0  0  0  0  0
  -29.4290  -14.8620   21.1690 C   0  0  0  0  0  2  0  0  0  0  0  0
  -30.4400  -15.8290   20.5150 N   0  0  0  0  0  0  0  0  0  0  0  0
  -32.0790  -17.0770   20.7180 O   0  0  0  0  0  0  0  0  0  0  0  0
  -30.2250  -19.1480   20.6280 N   0  0  2  0  0  4  0  0  0  0  0  0
  -29.2290  -19.1790   20.4650 H   0  0  0  0  0  0  0  0  0  0  0  0
  -26.2060  -14.4030   20.6860 C   0  0  0  0  0  0  0  0  0  0  0  0
  -25.1430  -13.5820   20.9260 C   0  0  0  0  0  0  0  0  0  0  0  0
  -25.6470  -12.2460   20.8700 C   0  0  0  0  0  0  0  0  0  0  0  0
  -27.2970  -13.5810   20.5060 N   0  0  0  0  0  0  0  0  0  0  0  0
  -26.9700  -12.2640   20.6660 N   0  0  0  0  0  0  0  0  0  0  0  0
  -24.9190  -10.9660   20.9480 C   0  0  0  0  0  0  0  0  0  0  0  0
  -25.2490   -9.9780   21.9030 C   0  0  0  0  0  3  0  0  0  0  0  0
  -24.5100   -8.7770   21.9790 C   0  0  0  0  0  3  0  0  0  0  0  0
  -23.4260   -8.5500   21.0990 C   0  0  0  0  0  0  0  0  0  0  0  0
  -23.1120   -9.5260   20.1370 C   0  0  0  0  0  3  0  0  0  0  0  0
  -23.8520  -10.7200   20.0600 C   0  0  0  0  0  3  0  0  0  0  0  0
  -22.6690   -7.4010   21.0830 O   0  0  0  0  0  0  0  0  0  0  0  0
  -22.4130   -6.6870   22.2270 C   0  0  0  0  0  0  0  0  0  0  0  0
  -21.7770   -7.2730   23.3430 C   0  0  0  0  0  3  0  0  0  0  0  0
  -21.4700   -6.4850   24.4710 C   0  0  0  0  0  3  0  0  0  0  0  0
  -21.7890   -5.1150   24.4840 C   0  0  0  0  0  0  0  0  0  0  0  0
  -22.4180   -4.5290   23.3720 C   0  0  0  0  0  3  0  0  0  0  0  0
  -22.7260   -5.3120   22.2450 C   0  0  0  0  0  0  0  0  0  0  0  0
  -23.3110   -4.7350   21.1680 F   0  0  0  0  0  0  0  0  0  0  0  0
  -21.4890   -4.3580   25.5660 F   0  0  0  0  0  0  0  0  0  0  0  0
  -23.7210  -14.0280   21.0900 C   0  0  0  0  0  0  0  0  0  0  0  0
  -22.9410  -13.3030   21.8810 N   0  0  0  0  0  0  0  0  0  0  0  0
  -23.3130  -15.0590   20.5560 O   0  0  0  0  0  0  0  0  0  0  0  0
  -23.2900  -12.4710   22.3360 H   0  0  0  0  0  0  0  0  0  0  0  0
  -21.9830  -13.5810   22.0360 H   0  0  0  0  0  0  0  0  0  0  0  0
  -26.3350  -15.7820   20.5660 N   0  0  0  0  0  0  0  0  0  0  0  0
  -25.5350  -16.4040   20.6260 H   0  0  0  0  0  0  0  0  0  0  0  0
  -27.1920  -16.2580   20.3200 H   0  0  0  0  0  0  0  0  0  0  0  0
  2 10  1  0
  2  1  1  0
  5  9  1  0
  6  3  1  0
  8  5  1  0
  9  3  1  0
 10 11  1  0
 10 12  2  0
 11 14  1  0
 13 11  1  0
 15 17  1  0
 16 27  2  0
 17 22  1  0
 18 26  1  0
 18 28  1  0
 19 25  1  0
 19 21  1  0
 20 26  1  0
 21 20  1  0
 22 21  2  0
 23 24  1  0
 23 17  2  0
 24 19  2  0
 25 18  1  0
 26 16  1  0
 28 30  2  0
 29 28  1  0
 31 29  1  0
 32 41  2  0
 32 37  1  0
 33 29  1  0
 33 37  1  0
 34 33  1  0
 35 36  1  0
 35 34  1  0
 36 32  1  0
 37 38  2  0
 38 39  1  0
 40 39  2  0
 41 40  1  0
 42 16  1  0
 42 47  1  0
 42 43  1  0
 43 46  1  1
 43 44  1  0
 45 43  1  0
 47 50  1  0
 48 47  1  0
 48 52  1  0
 49 48  2  0
 52 51  1  0
 52 54  1  0
 54 55  1  0
 54 53  1  0
 56  9  1  0
 57 56  1  0
 58 65  2  0
 59 64  1  0
 60 61  1  0
 60 59  1  0
 62 61  1  0
 62 71  1  0
 62 63  1  0
 64 58  1  0
 64 63  1  0
 66 58  1  0
 66  6  1  0
 66  1  1  0
 66 67  1  6
 68 69  2  0
 69 88  1  0
 70 69  1  0
 70 73  1  0
 71 72  1  0
 71 68  1  0
 72 70  2  0
 73 74  1  0
 74 75  2  0
 76 75  1  0
 77 76  2  0
 78 77  1  0
 78 73  2  0
 79 76  1  0
 79 80  1  0
 80 85  2  0
 80 81  1  0
 81 82  2  0
 82 83  1  0
 83 87  1  0
 84 83  2  0
 85 84  1  0
 86 85  1  0
 88 89  1  0
 89 92  1  0
 89 91  1  0
 90 88  2  0
 93 94  1  0
 93 68  1  0
 95 93  1  0
M  ISO  4   7 101  15 101  58 100  66 100
M  END
>  <TORSDO>  (5) 
F 19

>  <SCORE>  (5) 
-9.752

>  <name>  (5) 
4

>  <ligand_id>  (5) 
4

>  <original_smiles>  (5) 
[H]C1=C(C(=O)N([H])[H])C([H])(Oc2c([H])c([H])c3c(c2[H])C([H])([H])N(C(=O)C([H])(N([H])C(=O)C([H])(N([H])C([H])([H])[H])C([H])([H])[H])C(C([H])([H])[H])(C([H])([H])[H])C([H])([H])[H])C([H])(C(=O)N([H])C2([H])c4c([H])c([H])c([H])c([H])c4C([H])([H])C([H])([H])C2([H])[H])C3([H])[H])C([H])([H])C2([H])C([H])([H])C([H])(C([H])([H])C([H])([H])N([H])C(=O)N3C([H])([H])C([H])([H])C([H])([H])C([H])(n4nc(-c5c([H])c([H])c(Oc6c([H])c([H])c(F)c([H])c6F)c([H])c5[H])c(C(=O)N([H])[H])c4N([H])[H])C3([H])[H])C([H])([H])C12[H]

>  <smiles>  (5) 
[H]C1=C(C(=O)N([H])[H])C([H])(Oc2c([H])c([H])c3c(c2[H])C([H])([H])N(C(=O)C([H])(N([H])C(=O)C([H])(N([H])C([H])([H])[H])C([H])([H])[H])C(C([H])([H])[H])(C([H])([H])[H])C([H])([H])[H])C([H])(C(=O)N([H])C2([H])c4c([H])c([H])c([H])c([H])c4C([H])([H])C([H])([H])C2([H])[H])C3([H])[H])C([H])([H])C2([H])C([H])([H])C([H])(C([H])([H])C([H])([H])N([H])C(=O)N3C([H])([H])C([H])([H])C([H])([H])C([H])(n4nc(-c5c([H])c([H])c(Oc6c([H])c([H])c(F)c([H])c6F)c([H])c5[H])c(C(=O)N([H])[H])c4N([H])[H])C3([H])[H])C([H])([H])C12[H]

$$$$
5:0:0
     RDKit          3D

 89 98  0  0  1  0  0  0  0  0999 V2000
  -29.9330  -21.9930   21.7010 C   0  0  0  0  0  2  0  0  0  0  0  0
  -29.5860  -19.2890   21.9990 C   0  0  0  0  0  2  0  0  0  0  0  0
  -28.7500  -21.1660   19.7090 C   0  0  0  0  0  2  0  0  0  0  0  0
  -30.3450  -20.5180   21.4300 C   0  0  0  0  0  3  0  0  0  0  0  0
  -29.8300  -20.0910   20.0710 C   0  0  0  0  0  3  0  0  0  0  0  0
  -28.8160  -22.4140   20.6910 C   0  0  0  0  0  3  0  0  0  0  0  0
  -29.5430  -18.6140   20.6020 C   0  0  0  0  0  3  0  0  0  0  0  0
  -28.8790  -23.8990   20.0380 C   0  0  0  0  0  3  0  0  0  0  0  0
  -28.3130  -25.1870   20.8220 C   0  0  0  0  0  3  0  0  0  0  0  0
  -28.4340  -26.5610   20.2490 O   0  0  0  0  0  0  0  0  0  0  0  0
  -24.6140  -31.9340   23.2440 C   0  0  0  0  0  0  0  0  0  0  0  0
  -27.3010  -27.3910   20.2360 C   0  0  0  0  0  0  0  0  0  0  0  0
  -23.4340  -30.5120   21.6070 C   0  0  0  0  0  3  0  0  0  0  0  0
  -24.9130  -28.9690   20.1980 C   0  0  0  0  0  0  0  0  0  0  0  0
  -25.9690  -30.8680   21.4230 C   0  0  0  0  0  2  0  0  0  0  0  0
  -26.0750  -29.4850   20.7870 C   0  0  0  0  0  0  0  0  0  0  0  0
  -27.2740  -28.7120   20.7850 C   0  0  0  0  0  3  0  0  0  0  0  0
  -26.1170  -26.9210   19.6290 C   0  0  0  0  0  3  0  0  0  0  0  0
  -24.9350  -27.6920   19.6110 C   0  0  0  0  0  3  0  0  0  0  0  0
  -23.6630  -29.8280   20.2330 C   0  0  0  0  0  2  0  0  0  0  0  0
  -24.6910  -31.1230   22.1480 N   0  0  0  0  0  0  0  0  0  0  0  0
  -23.5250  -32.1980   23.7750 O   0  0  0  0  0  0  0  0  0  0  0  0
  -22.7790  -29.4930   22.5700 C   0  0  0  0  0  0  0  0  0  0  0  0
  -21.4550  -29.3070   22.4480 N   0  0  0  0  0  0  0  0  0  0  0  0
  -23.4650  -28.8730   23.3880 O   0  0  0  0  0  0  0  0  0  0  0  0
  -20.9600  -29.8600   21.7600 H   0  0  0  0  0  0  0  0  0  0  0  0
  -18.0840  -28.0970   22.9680 C   0  0  0  0  0  0  0  0  0  0  0  0
  -20.6450  -28.3630   23.2200 C   0  0  0  0  0  3  0  0  0  0  0  0
  -20.7450  -26.9330   22.6380 C   0  0  0  0  0  2  0  0  0  0  0  0
  -19.6370  -26.6120   21.6300 C   0  0  0  0  0  2  0  0  0  0  0  0
  -18.2600  -26.7510   22.2860 C   0  0  0  0  0  2  0  0  0  0  0  0
  -19.2040  -28.8620   23.3930 C   0  0  0  0  0  0  0  0  0  0  0  0
  -18.9850  -30.1200   23.9920 C   0  0  0  0  0  3  0  0  0  0  0  0
  -17.6810  -30.6190   24.1680 C   0  0  0  0  0  3  0  0  0  0  0  0
  -16.5750  -29.8490   23.7600 C   0  0  0  0  0  3  0  0  0  0  0  0
  -16.7780  -28.5920   23.1660 C   0  0  0  0  0  3  0  0  0  0  0  0
  -25.8840  -32.5870   23.8680 C   0  0  0  0  0  3  0  0  0  0  0  0
  -26.3940  -31.8410   25.1620 C   0  0  1  0  0  0  0  0  0  0  0  0
  -25.2910  -31.6070   26.2230 C   0  0  0  0  0  1  0  0  0  0  0  0
  -26.9970  -30.4660   24.7940 C   0  0  0  0  0  1  0  0  0  0  0  0
  -27.5310  -32.6560   25.8220 C   0  0  0  0  0  1  0  0  0  0  0  0
  -25.5570  -33.9880   24.1770 N   0  0  0  0  0  0  0  0  0  0  0  0
  -25.8980  -35.0350   23.4140 C   0  0  0  0  0  0  0  0  0  0  0  0
  -26.5850  -34.9240   22.3950 O   0  0  0  0  0  0  0  0  0  0  0  0
  -24.9400  -34.1430   24.9600 H   0  0  0  0  0  0  0  0  0  0  0  0
  -24.1760  -36.8230   23.0020 C   0  0  0  0  0  1  0  0  0  0  0  0
  -25.3960  -36.4260   23.8490 C   0  0  0  0  0  3  0  0  0  0  0  0
  -27.5080  -37.3210   24.7250 C   0  0  0  0  0  1  0  0  0  0  0  0
  -26.4290  -37.4810   23.7540 N   0  0  0  0  0  0  0  0  0  0  0  0
  -26.0170  -38.4010   23.8860 H   0  0  0  0  0  0  0  0  0  0  0  0
  -30.5100  -17.3700   20.2740 C   0  0  0  0  0  2  0  0  0  0  0  0
  -30.7460  -14.8020   20.0930 C   0  0  0  0  0  0  0  0  0  0  0  0
  -30.4750  -12.5670   19.0250 C   0  0  0  0  0  2  0  0  0  0  0  0
  -29.4850  -12.6650   17.8460 C   0  0  0  0  0  2  0  0  0  0  0  0
  -28.0340  -12.4870   18.3350 C   0  0  0  0  0  2  0  0  0  0  0  0
  -27.7150  -13.3500   19.5840 C   0  0  0  0  0  3  0  0  0  0  0  0
  -28.8200  -13.2400   20.6580 C   0  0  0  0  0  2  0  0  0  0  0  0
  -30.0930  -13.5960   20.0200 N   0  0  0  0  0  0  0  0  0  0  0  0
  -31.8990  -14.9110   19.6670 O   0  0  0  0  0  0  0  0  0  0  0  0
  -30.0370  -15.9360   20.4450 N   0  0  0  0  0  0  0  0  0  0  0  0
  -29.0760  -15.8030   20.7250 H   0  0  0  0  0  0  0  0  0  0  0  0
  -25.3550  -13.9060   20.4290 C   0  0  0  0  0  0  0  0  0  0  0  0
  -24.3130  -13.1160   20.8330 C   0  0  0  0  0  0  0  0  0  0  0  0
  -24.7860  -11.7700   20.7540 C   0  0  0  0  0  0  0  0  0  0  0  0
  -26.3940  -13.0440   20.1290 N   0  0  0  0  0  0  0  0  0  0  0  0
  -26.0610  -11.7520   20.3860 N   0  0  0  0  0  0  0  0  0  0  0  0
  -24.0790  -10.4970   20.9480 C   0  0  0  0  0  0  0  0  0  0  0  0
  -24.5320   -9.5330   21.8770 C   0  0  0  0  0  3  0  0  0  0  0  0
  -23.8230   -8.3260   22.0610 C   0  0  0  0  0  3  0  0  0  0  0  0
  -22.6470   -8.0730   21.3160 C   0  0  0  0  0  0  0  0  0  0  0  0
  -22.2130   -9.0240   20.3750 C   0  0  0  0  0  3  0  0  0  0  0  0
  -22.9220  -10.2220   20.1890 C   0  0  0  0  0  3  0  0  0  0  0  0
  -21.9070   -6.9180   21.4120 O   0  0  0  0  0  0  0  0  0  0  0  0
  -21.8380   -6.2030   22.5800 C   0  0  0  0  0  0  0  0  0  0  0  0
  -21.3500   -6.7750   23.7750 C   0  0  0  0  0  3  0  0  0  0  0  0
  -21.2290   -5.9850   24.9350 C   0  0  0  0  0  3  0  0  0  0  0  0
  -21.5840   -4.6230   24.9020 C   0  0  0  0  0  0  0  0  0  0  0  0
  -22.0650   -4.0500   23.7120 C   0  0  0  0  0  3  0  0  0  0  0  0
  -22.1870   -4.8370   22.5540 C   0  0  0  0  0  0  0  0  0  0  0  0
  -22.6310   -4.2750   21.4040 F   0  0  0  0  0  0  0  0  0  0  0  0
  -21.4590   -3.8620   26.0150 F   0  0  0  0  0  0  0  0  0  0  0  0
  -22.9260  -13.5750   21.1760 C   0  0  0  0  0  0  0  0  0  0  0  0
  -22.2430  -12.8560   22.0610 N   0  0  0  0  0  0  0  0  0  0  0  0
  -22.4580  -14.6080   20.6980 O   0  0  0  0  0  0  0  0  0  0  0  0
  -22.6340  -12.0240   22.4780 H   0  0  0  0  0  0  0  0  0  0  0  0
  -21.3150  -13.1490   22.3360 H   0  0  0  0  0  0  0  0  0  0  0  0
  -25.5000  -15.2800   20.2750 N   0  0  0  0  0  0  0  0  0  0  0  0
  -24.7390  -15.9290   20.4540 H   0  0  0  0  0  0  0  0  0  0  0  0
  -26.3250  -15.7360   19.9060 H   0  0  0  0  0  0  0  0  0  0  0  0
  3  6  1  0
  4  1  1  0
  4  2  1  0
  5  3  1  0
  5  7  1  0
  5  4  1  0
  6  8  1  0
  6  1  1  0
  7 51  1  0
  7  2  1  0
  8  9  2  0
 10  9  1  0
 11 22  2  0
 12 10  1  0
 12 17  1  0
 13 21  1  0
 13 23  1  0
 14 20  1  0
 14 16  1  0
 15 21  1  0
 16 15  1  0
 17 16  2  0
 18 12  2  0
 19 18  1  0
 19 14  2  0
 20 13  1  0
 21 11  1  0
 23 25  2  0
 24 23  1  0
 26 24  1  0
 27 36  2  0
 27 32  1  0
 28 24  1  0
 28 32  1  0
 29 28  1  0
 30 31  1  0
 30 29  1  0
 31 27  1  0
 32 33  2  0
 33 34  1  0
 35 34  2  0
 36 35  1  0
 37 11  1  0
 37 42  1  0
 37 38  1  0
 38 41  1  1
 38 39  1  0
 40 38  1  0
 42 45  1  0
 43 47  1  0
 43 42  1  0
 44 43  2  0
 47 46  1  0
 49 47  1  0
 49 50  1  0
 49 48  1  0
 51 60  1  0
 52 60  1  0
 53 58  1  0
 54 55  1  0
 54 53  1  0
 56 55  1  0
 56 65  1  0
 56 57  1  0
 58 52  1  0
 58 57  1  0
 59 52  2  0
 60 61  1  0
 62 63  2  0
 63 82  1  0
 64 63  1  0
 64 67  1  0
 65 66  1  0
 65 62  1  0
 66 64  2  0
 67 68  1  0
 68 69  2  0
 70 73  1  0
 70 69  1  0
 71 70  2  0
 72 71  1  0
 72 67  2  0
 73 74  1  0
 74 75  1  0
 75 76  2  0
 77 76  1  0
 77 81  1  0
 78 77  2  0
 79 74  2  0
 79 78  1  0
 80 79  1  0
 82 83  1  0
 83 86  1  0
 83 85  1  0
 84 82  2  0
 87 62  1  0
 87 88  1  0
 89 87  1  0
M  ISO  4   9 101  10 101  52 100  60 100
M  END
>  <TORSDO>  (6) 
F 19

>  <SCORE>  (6) 
-13.174

>  <name>  (6) 
5

>  <ligand_id>  (6) 
5

>  <original_smiles>  (6) 
[H]c1c([H])c([H])c2c(c1[H])C([H])([H])C([H])([H])C([H])([H])C2([H])N([H])C(=O)C1([H])N(C(=O)C([H])(N([H])C(=O)C([H])(N([H])C([H])([H])[H])C([H])([H])[H])C(C([H])([H])[H])(C([H])([H])[H])C([H])([H])[H])C([H])([H])c2c([H])c(OC([H])([H])C([H])([H])C3([H])C([H])([H])C4([H])C([H])([H])C([H])(C([H])([H])N([H])C(=O)N5C([H])([H])C([H])([H])C([H])([H])C([H])(n6nc(-c7c([H])c([H])c(Oc8c([H])c([H])c(F)c([H])c8F)c([H])c7[H])c(C(=O)N([H])[H])c6N([H])[H])C5([H])[H])C4([H])C3([H])[H])c([H])c([H])c2C1([H])[H]

>  <smiles>  (6) 
[H]c1c([H])c([H])c2c(c1[H])C([H])([H])C([H])([H])C([H])([H])C2([H])N([H])C(=O)C1([H])N(C(=O)C([H])(N([H])C(=O)C([H])(N([H])C([H])([H])[H])C([H])([H])[H])C(C([H])([H])[H])(C([H])([H])[H])C([H])([H])[H])C([H])([H])c2c([H])c(OC([H])([H])C([H])([H])C3([H])C([H])([H])C4([H])C([H])([H])C([H])(C([H])([H])N([H])C(=O)N5C([H])([H])C([H])([H])C([H])([H])C([H])(n6nc(-c7c([H])c([H])c(Oc8c([H])c([H])c(F)c([H])c8F)c([H])c7[H])c(C(=O)N([H])[H])c6N([H])[H])C5([H])[H])C4([H])C3([H])[H])c([H])c([H])c2C1([H])[H]

$$$$
6:0:0
     RDKit          3D

 96105  0  0  1  0  0  0  0  0999 V2000
  -30.1450  -19.1810   21.3120 C   0  0  0  0  0  2  0  0  0  0  0  0
  -30.2020  -17.7850   19.2890 C   0  0  0  0  0  2  0  0  0  0  0  0
  -31.0830  -19.7970   20.2700 C   0  0  0  0  0  3  0  0  0  0  0  0
  -29.8020  -17.7740   20.7840 C   0  0  0  0  0  3  0  0  0  0  0  0
  -30.5780  -19.2370   18.9310 C   0  0  0  0  0  3  0  0  0  0  0  0
  -32.1580  -21.8080   21.5220 C   0  0  0  0  0  2  0  0  0  0  0  0
  -32.6290  -21.9050   20.0940 C   0  0  0  0  0  2  0  0  0  0  0  0
  -31.2630  -21.3170   20.3900 C   0  0  1  0  0  0  0  0  0  0  0  0
  -30.0450  -22.1240   19.9020 C   0  0  0  0  0  2  0  0  0  0  0  0
  -29.8180  -23.4590   20.6420 C   0  0  0  0  0  2  0  0  0  0  0  0
  -28.7130  -24.3560   20.0550 C   0  0  0  0  0  2  0  0  0  0  0  0
  -28.4730  -25.6000   20.9350 C   0  0  0  0  0  2  0  0  0  0  0  0
  -28.4440  -26.7960   20.1600 O   0  0  0  0  0  0  0  0  0  0  0  0
  -24.5950  -31.8980   23.2830 C   0  0  0  0  0  0  0  0  0  0  0  0
  -27.2640  -27.4890   20.2020 C   0  0  0  0  0  0  0  0  0  0  0  0
  -23.3980  -30.4910   21.6370 C   0  0  0  0  0  3  0  0  0  0  0  0
  -24.8580  -28.9560   20.2210 C   0  0  0  0  0  0  0  0  0  0  0  0
  -25.9170  -30.8680   21.4400 C   0  0  0  0  0  2  0  0  0  0  0  0
  -26.0110  -29.4960   20.8060 C   0  0  0  0  0  0  0  0  0  0  0  0
  -27.2200  -28.7700   20.7890 C   0  0  0  0  0  3  0  0  0  0  0  0
  -26.0950  -26.9450   19.6280 C   0  0  0  0  0  3  0  0  0  0  0  0
  -24.8910  -27.6770   19.6350 C   0  0  0  0  0  3  0  0  0  0  0  0
  -23.6110  -29.8100   20.2590 C   0  0  0  0  0  2  0  0  0  0  0  0
  -24.6560  -31.0980   22.1810 N   0  0  0  0  0  0  0  0  0  0  0  0
  -23.5120  -32.1680   23.8180 O   0  0  0  0  0  0  0  0  0  0  0  0
  -22.7460  -29.4690   22.5970 C   0  0  0  0  0  0  0  0  0  0  0  0
  -21.4240  -29.2820   22.4600 N   0  0  0  0  0  0  0  0  0  0  0  0
  -23.4270  -28.8480   23.4170 O   0  0  0  0  0  0  0  0  0  0  0  0
  -20.9370  -29.8380   21.7700 H   0  0  0  0  0  0  0  0  0  0  0  0
  -18.0500  -28.0800   22.9390 C   0  0  0  0  0  0  0  0  0  0  0  0
  -20.6040  -28.3430   23.2270 C   0  0  0  0  0  3  0  0  0  0  0  0
  -20.7150  -26.9130   22.6500 C   0  0  0  0  0  2  0  0  0  0  0  0
  -19.6190  -26.5890   21.6290 C   0  0  0  0  0  2  0  0  0  0  0  0
  -18.2330  -26.7310   22.2640 C   0  0  0  0  0  2  0  0  0  0  0  0
  -19.1640  -28.8450   23.3760 C   0  0  0  0  0  0  0  0  0  0  0  0
  -18.9390  -30.1090   23.9620 C   0  0  0  0  0  3  0  0  0  0  0  0
  -17.6350  -30.6110   24.1160 C   0  0  0  0  0  3  0  0  0  0  0  0
  -16.5340  -29.8450   23.6960 C   0  0  0  0  0  3  0  0  0  0  0  0
  -16.7420  -28.5810   23.1140 C   0  0  0  0  0  3  0  0  0  0  0  0
  -25.8790  -32.5310   23.9070 C   0  0  0  0  0  3  0  0  0  0  0  0
  -26.3860  -31.7700   25.1910 C   0  0  1  0  0  0  0  0  0  0  0  0
  -25.2850  -31.5400   26.2530 C   0  0  0  0  0  1  0  0  0  0  0  0
  -26.9700  -30.3890   24.8110 C   0  0  0  0  0  1  0  0  0  0  0  0
  -27.5350  -32.5660   25.8530 C   0  0  0  0  0  1  0  0  0  0  0  0
  -25.5720  -33.9330   24.2190 N   0  0  0  0  0  0  0  0  0  0  0  0
  -25.9170  -34.9740   23.4500 C   0  0  0  0  0  0  0  0  0  0  0  0
  -26.5970  -34.8570   22.4270 O   0  0  0  0  0  0  0  0  0  0  0  0
  -24.9650  -34.0960   25.0080 H   0  0  0  0  0  0  0  0  0  0  0  0
  -24.1960  -36.7660   23.0610 C   0  0  0  0  0  1  0  0  0  0  0  0
  -25.4290  -36.3680   23.8870 C   0  0  0  0  0  3  0  0  0  0  0  0
  -27.5590  -37.2530   24.7310 C   0  0  0  0  0  1  0  0  0  0  0  0
  -26.4660  -37.4160   23.7730 N   0  0  0  0  0  0  0  0  0  0  0  0
  -26.0620  -38.3380   23.9090 H   0  0  0  0  0  0  0  0  0  0  0  0
  -32.9010  -18.7050   17.8700 C   0  0  0  0  0  1  0  0  0  0  0  0
  -31.5390  -19.4160   17.7160 C   0  0  0  0  0  3  0  0  0  0  0  0
  -29.7620  -19.9280   15.9040 C   0  0  0  0  0  1  0  0  0  0  0  0
  -30.8940  -19.0040   16.3750 C   0  0  0  0  0  2  0  0  0  0  0  0
  -30.4890  -16.6530   21.5990 C   0  0  0  0  0  2  0  0  0  0  0  0
  -30.6650  -14.4130   20.4720 C   0  0  0  0  0  0  0  0  0  0  0  0
  -30.3310  -12.3230   19.2050 C   0  0  0  0  0  2  0  0  0  0  0  0
  -29.3680  -12.5720   18.0270 C   0  0  0  0  0  2  0  0  0  0  0  0
  -27.9000  -12.4390   18.4750 C   0  0  0  0  0  2  0  0  0  0  0  0
  -27.5910  -13.2350   19.7720 C   0  0  0  0  0  3  0  0  0  0  0  0
  -28.6550  -12.9410   20.8500 C   0  0  0  0  0  2  0  0  0  0  0  0
  -29.9760  -13.2590   20.2800 N   0  0  0  0  0  0  0  0  0  0  0  0
  -31.7540  -14.6540   19.9450 O   0  0  0  0  0  0  0  0  0  0  0  0
  -30.0260  -15.3180   21.2250 N   0  0  0  0  0  0  0  0  0  0  0  0
  -29.1300  -15.0230   21.5820 H   0  0  0  0  0  0  0  0  0  0  0  0
  -25.1960  -13.8500   20.4940 C   0  0  0  0  0  0  0  0  0  0  0  0
  -24.1290  -13.0800   20.8730 C   0  0  0  0  0  0  0  0  0  0  0  0
  -24.5900  -11.7260   20.8390 C   0  0  0  0  0  0  0  0  0  0  0  0
  -26.2390  -12.9670   20.2580 N   0  0  0  0  0  0  0  0  0  0  0  0
  -25.8770  -11.6850   20.5200 N   0  0  0  0  0  0  0  0  0  0  0  0
  -23.8660  -10.4630   21.0350 C   0  0  0  0  0  0  0  0  0  0  0  0
  -24.3130   -9.4910   21.9560 C   0  0  0  0  0  3  0  0  0  0  0  0
  -23.5910   -8.2930   22.1400 C   0  0  0  0  0  3  0  0  0  0  0  0
  -22.4050   -8.0590   21.4020 C   0  0  0  0  0  0  0  0  0  0  0  0
  -21.9770   -9.0220   20.4710 C   0  0  0  0  0  3  0  0  0  0  0  0
  -22.7000  -10.2100   20.2860 C   0  0  0  0  0  3  0  0  0  0  0  0
  -21.6540   -6.9130   21.4950 O   0  0  0  0  0  0  0  0  0  0  0  0
  -21.6300   -6.1580   22.6400 C   0  0  0  0  0  0  0  0  0  0  0  0
  -21.2350   -6.6990   23.8820 C   0  0  0  0  0  3  0  0  0  0  0  0
  -21.1600   -5.8710   25.0190 C   0  0  0  0  0  3  0  0  0  0  0  0
  -21.4680   -4.5020   24.9140 C   0  0  0  0  0  0  0  0  0  0  0  0
  -21.8570   -3.9610   23.6760 C   0  0  0  0  0  3  0  0  0  0  0  0
  -21.9340   -4.7870   22.5420 C   0  0  0  0  0  0  0  0  0  0  0  0
  -22.2880   -4.2550   21.3470 F   0  0  0  0  0  0  0  0  0  0  0  0
  -21.3890   -3.7030   26.0040 F   0  0  0  0  0  0  0  0  0  0  0  0
  -22.7340  -13.5560   21.1600 C   0  0  0  0  0  0  0  0  0  0  0  0
  -22.0140  -12.8580   22.0310 N   0  0  0  0  0  0  0  0  0  0  0  0
  -22.2950  -14.5850   20.6480 O   0  0  0  0  0  0  0  0  0  0  0  0
  -22.3830  -12.0270   22.4680 H   0  0  0  0  0  0  0  0  0  0  0  0
  -21.0800  -13.1620   22.2680 H   0  0  0  0  0  0  0  0  0  0  0  0
  -25.3640  -15.2210   20.3140 N   0  0  0  0  0  0  0  0  0  0  0  0
  -24.5990  -15.8790   20.4070 H   0  0  0  0  0  0  0  0  0  0  0  0
  -26.2190  -15.6550   19.9920 H   0  0  0  0  0  0  0  0  0  0  0  0
  2  4  1  0
  3  8  1  0
  3  1  1  0
  4  1  1  0
  4 58  1  0
  5 55  1  0
  5  2  1  0
  5  3  1  0
  7  8  1  0
  7  6  1  0
  8  6  1  0
  8  9  1  6
  9 10  1  0
 11 10  1  0
 11 12  1  0
 13 15  1  0
 13 12  1  0
 14 25  2  0
 15 20  1  0
 16 24  1  0
 16 26  1  0
 17 23  1  0
 17 19  1  0
 18 24  1  0
 19 18  1  0
 20 19  2  0
 21 22  1  0
 21 15  2  0
 22 17  2  0
 23 16  1  0
 24 14  1  0
 26 28  2  0
 27 26  1  0
 29 27  1  0
 30 39  2  0
 30 35  1  0
 31 27  1  0
 31 35  1  0
 32 31  1  0
 33 34  1  0
 33 32  1  0
 34 30  1  0
 35 36  2  0
 36 37  1  0
 38 37  2  0
 39 38  1  0
 40 14  1  0
 40 45  1  0
 40 41  1  0
 41 44  1  1
 41 42  1  0
 43 41  1  0
 45 48  1  0
 46 50  1  0
 46 45  1  0
 47 46  2  0
 50 49  1  0
 52 50  1  0
 52 53  1  0
 52 51  1  0
 55 54  1  0
 56 57  1  0
 57 55  1  0
 59 67  1  0
 60 65  1  0
 61 62  1  0
 61 60  1  0
 63 62  1  0
 63 72  1  0
 63 64  1  0
 65 59  1  0
 65 64  1  0
 66 59  2  0
 67 68  1  0
 67 58  1  0
 69 70  2  0
 70 89  1  0
 71 70  1  0
 71 74  1  0
 72 69  1  0
 72 73  1  0
 73 71  2  0
 74 75  1  0
 75 76  2  0
 77 80  1  0
 77 76  1  0
 78 77  2  0
 79 78  1  0
 79 74  2  0
 80 81  1  0
 81 82  1  0
 82 83  2  0
 84 83  1  0
 84 88  1  0
 85 84  2  0
 86 81  2  0
 86 85  1  0
 87 86  1  0
 89 90  1  0
 90 93  1  0
 90 92  1  0
 91 89  2  0
 94 95  1  0
 94 69  1  0
 96 94  1  0
M  ISO  4  12 101  13 101  59 100  67 100
M  END
>  <TORSDO>  (7) 
F 24

>  <SCORE>  (7) 
-12.637

>  <name>  (7) 
6

>  <ligand_id>  (7) 
6

>  <original_smiles>  (7) 
[H]c1c([H])c([H])c2c(c1[H])C([H])([H])C([H])([H])C([H])([H])C2([H])N([H])C(=O)C1([H])N(C(=O)C([H])(N([H])C(=O)C([H])(N([H])C([H])([H])[H])C([H])([H])[H])C(C([H])([H])[H])(C([H])([H])[H])C([H])([H])[H])C([H])([H])c2c([H])c(OC([H])([H])C([H])([H])C([H])([H])C([H])([H])C3(C4([H])C([H])([H])C([H])(C([H])([H])N([H])C(=O)N5C([H])([H])C([H])([H])C([H])([H])C([H])(n6nc(-c7c([H])c([H])c(Oc8c([H])c([H])c(F)c([H])c8F)c([H])c7[H])c(C(=O)N([H])[H])c6N([H])[H])C5([H])[H])C([H])([H])C4([H])C([H])(C([H])([H])[H])C([H])([H])C([H])([H])[H])C([H])([H])C3([H])[H])c([H])c([H])c2C1([H])[H]

>  <smiles>  (7) 
[H]c1c([H])c([H])c2c(c1[H])C([H])([H])C([H])([H])C([H])([H])C2([H])N([H])C(=O)C1([H])N(C(=O)C([H])(N([H])C(=O)C([H])(N([H])C([H])([H])[H])C([H])([H])[H])C(C([H])([H])[H])(C([H])([H])[H])C([H])([H])[H])C([H])([H])c2c([H])c(OC([H])([H])C([H])([H])C([H])([H])C([H])([H])C3(C4([H])C([H])([H])C([H])(C([H])([H])N([H])C(=O)N5C([H])([H])C([H])([H])C([H])([H])C([H])(n6nc(-c7c([H])c([H])c(Oc8c([H])c([H])c(F)c([H])c8F)c([H])c7[H])c(C(=O)N([H])[H])c6N([H])[H])C5([H])[H])C([H])([H])C4([H])C([H])(C([H])([H])[H])C([H])([H])C([H])([H])[H])C([H])([H])C3([H])[H])c([H])c([H])c2C1([H])[H]

$$$$
7:0:0
     RDKit          3D

 94103  0  0  1  0  0  0  0  0999 V2000
  -29.4370  -21.4600   21.3320 C   0  0  0  0  0  0  0  0  0  0  0  0
  -28.3900  -21.4100   21.9850 O   0  0  0  0  0  0  0  0  0  0  0  0
  -29.5640  -18.1010   19.6090 C   0  0  0  0  0  2  0  0  0  0  0  0
  -29.3440  -19.6280   19.5480 C   0  0  0  0  0  2  0  0  0  0  0  0
  -31.4980  -19.8570   21.1060 C   0  0  0  0  0  2  0  0  0  0  0  0
  -30.3580  -19.0560   21.6920 C   0  0  0  0  0  3  0  0  0  0  0  0
  -29.8420  -17.7580   21.0890 C   0  0  0  0  0  3  0  0  0  0  0  0
  -30.0620  -20.2010   20.7580 C   0  0  1  0  0  0  0  0  0  0  0  0
  -30.7800  -16.5370   21.2960 C   0  0  0  0  0  3  0  0  0  0  0  0
  -30.5810  -14.4800   19.8540 C   0  0  0  0  0  0  0  0  0  0  0  0
  -30.0820  -12.4460   18.5420 C   0  0  0  0  0  2  0  0  0  0  0  0
  -29.0340  -12.7450   17.4530 C   0  0  0  0  0  2  0  0  0  0  0  0
  -27.6060  -12.6060   18.0140 C   0  0  0  0  0  2  0  0  0  0  0  0
  -27.4130  -13.3730   19.3490 C   0  0  0  0  0  3  0  0  0  0  0  0
  -28.5560  -13.0490   20.3350 C   0  0  0  0  0  2  0  0  0  0  0  0
  -29.8370  -13.3560   19.6710 N   0  0  0  0  0  0  0  0  0  0  0  0
  -31.5820  -14.7410   19.1800 O   0  0  0  0  0  0  0  0  0  0  0  0
  -30.1420  -15.3040   20.8170 N   0  0  0  0  0  0  0  0  0  0  0  0
  -29.3060  -15.0090   21.2990 H   0  0  0  0  0  0  0  0  0  0  0  0
  -25.0890  -13.9900   20.2720 C   0  0  0  0  0  0  0  0  0  0  0  0
  -24.0480  -13.2210   20.7170 C   0  0  0  0  0  0  0  0  0  0  0  0
  -24.4880  -11.8650   20.6170 C   0  0  0  0  0  0  0  0  0  0  0  0
  -26.1010  -13.1040   19.9350 N   0  0  0  0  0  0  0  0  0  0  0  0
  -25.7460  -11.8200   20.1960 N   0  0  0  0  0  0  0  0  0  0  0  0
  -23.7660  -10.6060   20.8430 C   0  0  0  0  0  0  0  0  0  0  0  0
  -24.2500   -9.6290   21.7420 C   0  0  0  0  0  3  0  0  0  0  0  0
  -23.5290   -8.4350   21.9570 C   0  0  0  0  0  3  0  0  0  0  0  0
  -22.3110   -8.2090   21.2730 C   0  0  0  0  0  0  0  0  0  0  0  0
  -21.8450   -9.1750   20.3630 C   0  0  0  0  0  3  0  0  0  0  0  0
  -22.5670  -10.3610   20.1470 C   0  0  0  0  0  3  0  0  0  0  0  0
  -21.5560   -7.0670   21.4000 O   0  0  0  0  0  0  0  0  0  0  0  0
  -21.5520   -6.3310   22.5570 C   0  0  0  0  0  0  0  0  0  0  0  0
  -21.1990   -6.8990   23.8000 C   0  0  0  0  0  3  0  0  0  0  0  0
  -21.1410   -6.0900   24.9520 C   0  0  0  0  0  3  0  0  0  0  0  0
  -21.4270   -4.7140   24.8630 C   0  0  0  0  0  0  0  0  0  0  0  0
  -21.7730   -4.1460   23.6240 C   0  0  0  0  0  3  0  0  0  0  0  0
  -21.8330   -4.9520   22.4740 C   0  0  0  0  0  0  0  0  0  0  0  0
  -22.1470   -4.3960   21.2800 F   0  0  0  0  0  0  0  0  0  0  0  0
  -21.3630   -3.9350   25.9680 F   0  0  0  0  0  0  0  0  0  0  0  0
  -22.6860  -13.7060   21.1230 C   0  0  0  0  0  0  0  0  0  0  0  0
  -22.0330  -13.0010   22.0420 N   0  0  0  0  0  0  0  0  0  0  0  0
  -22.2120  -14.7430   20.6610 O   0  0  0  0  0  0  0  0  0  0  0  0
  -22.4310  -12.1620   22.4370 H   0  0  0  0  0  0  0  0  0  0  0  0
  -21.1230  -13.3070   22.3550 H   0  0  0  0  0  0  0  0  0  0  0  0
  -25.2550  -15.3630   20.1110 N   0  0  0  0  0  0  0  0  0  0  0  0
  -24.5090  -16.0240   20.3040 H   0  0  0  0  0  0  0  0  0  0  0  0
  -26.0850  -15.8010   19.7340 H   0  0  0  0  0  0  0  0  0  0  0  0
  -32.0720  -15.1240   23.0290 C   0  0  0  0  0  1  0  0  0  0  0  0
  -31.1900  -16.3570   22.7750 C   0  0  0  0  0  2  0  0  0  0  0  0
  -30.1420  -22.8040   21.0710 C   0  0  0  0  0  2  0  0  0  0  0  0
  -29.2750  -24.0600   21.3440 C   0  0  0  0  0  2  0  0  0  0  0  0
  -30.0600  -25.3830   21.1990 C   0  0  0  0  0  2  0  0  0  0  0  0
  -29.1870  -26.6540   21.2920 C   0  0  0  0  0  2  0  0  0  0  0  0
  -28.3500  -26.7070   20.1440 O   0  0  0  0  0  0  0  0  0  0  0  0
  -24.5610  -31.9570   23.2210 C   0  0  0  0  0  0  0  0  0  0  0  0
  -27.2190  -27.4880   20.2100 C   0  0  0  0  0  0  0  0  0  0  0  0
  -23.3560  -30.5260   21.6010 C   0  0  0  0  0  3  0  0  0  0  0  0
  -24.8140  -28.9700   20.2040 C   0  0  0  0  0  0  0  0  0  0  0  0
  -25.8780  -30.8910   21.3970 C   0  0  0  0  0  2  0  0  0  0  0  0
  -25.9680  -29.5080   20.7890 C   0  0  0  0  0  0  0  0  0  0  0  0
  -27.1740  -28.7700   20.8040 C   0  0  0  0  0  3  0  0  0  0  0  0
  -26.0560  -26.9650   19.6140 C   0  0  0  0  0  3  0  0  0  0  0  0
  -24.8500  -27.6920   19.6170 C   0  0  0  0  0  3  0  0  0  0  0  0
  -23.5670  -29.8230   20.2340 C   0  0  0  0  0  2  0  0  0  0  0  0
  -24.6160  -31.1410   22.1320 N   0  0  0  0  0  0  0  0  0  0  0  0
  -23.4810  -32.2360   23.7580 O   0  0  0  0  0  0  0  0  0  0  0  0
  -22.7090  -29.5190   22.5800 C   0  0  0  0  0  0  0  0  0  0  0  0
  -21.3870  -29.3250   22.4500 N   0  0  0  0  0  0  0  0  0  0  0  0
  -23.3930  -28.9140   23.4090 O   0  0  0  0  0  0  0  0  0  0  0  0
  -20.8960  -29.8650   21.7510 H   0  0  0  0  0  0  0  0  0  0  0  0
  -18.0190  -28.1150   22.9490 C   0  0  0  0  0  0  0  0  0  0  0  0
  -20.5720  -28.3980   23.2340 C   0  0  0  0  0  3  0  0  0  0  0  0
  -20.6900  -26.9560   22.6880 C   0  0  0  0  0  2  0  0  0  0  0  0
  -19.5970  -26.6040   21.6740 C   0  0  0  0  0  2  0  0  0  0  0  0
  -18.2100  -26.7530   22.3040 C   0  0  0  0  0  2  0  0  0  0  0  0
  -19.1280  -28.8940   23.3710 C   0  0  0  0  0  0  0  0  0  0  0  0
  -18.8980  -30.1690   23.9320 C   0  0  0  0  0  3  0  0  0  0  0  0
  -17.5880  -30.6650   24.0760 C   0  0  0  0  0  3  0  0  0  0  0  0
  -16.4920  -29.8840   23.6710 C   0  0  0  0  0  3  0  0  0  0  0  0
  -16.7090  -28.6110   23.1130 C   0  0  0  0  0  3  0  0  0  0  0  0
  -25.8480  -32.5990   23.8280 C   0  0  0  0  0  3  0  0  0  0  0  0
  -25.5380  -34.0010   24.1400 N   0  0  0  0  0  0  0  0  0  0  0  0
  -25.8750  -35.0430   23.3680 C   0  0  0  0  0  0  0  0  0  0  0  0
  -26.5520  -34.9260   22.3430 O   0  0  0  0  0  0  0  0  0  0  0  0
  -24.9370  -34.1640   24.9340 H   0  0  0  0  0  0  0  0  0  0  0  0
  -24.1500  -36.8290   22.9750 C   0  0  0  0  0  1  0  0  0  0  0  0
  -25.3830  -36.4350   23.8040 C   0  0  0  0  0  3  0  0  0  0  0  0
  -27.5120  -37.3260   24.6440 C   0  0  0  0  0  1  0  0  0  0  0  0
  -26.4170  -37.4870   23.6900 N   0  0  0  0  0  0  0  0  0  0  0  0
  -26.0110  -38.4090   23.8260 H   0  0  0  0  0  0  0  0  0  0  0  0
  -26.3760  -31.8430   25.1090 C   0  0  1  0  0  0  0  0  0  0  0  0
  -25.2890  -31.6110   26.1840 C   0  0  0  0  0  1  0  0  0  0  0  0
  -26.9620  -30.4640   24.7260 C   0  0  0  0  0  1  0  0  0  0  0  0
  -27.5260  -32.6490   25.7570 C   0  0  0  0  0  1  0  0  0  0  0  0
  1  2  2  0
  3  7  1  0
  4  3  1  0
  4  8  1  0
  6  5  1  0
  7  9  1  0
  7  6  1  0
  8  5  1  0
  8  1  1  1
  8  6  1  0
  9 49  1  0
 10 18  1  0
 11 16  1  0
 12 13  1  0
 12 11  1  0
 14 13  1  0
 14 23  1  0
 14 15  1  0
 16 10  1  0
 16 15  1  0
 17 10  2  0
 18  9  1  0
 18 19  1  0
 20 21  2  0
 21 40  1  0
 22 21  1  0
 22 25  1  0
 23 24  1  0
 23 20  1  0
 24 22  2  0
 25 26  1  0
 26 27  2  0
 28 31  1  0
 28 27  1  0
 29 28  2  0
 30 29  1  0
 30 25  2  0
 31 32  1  0
 32 33  1  0
 33 34  2  0
 35 34  1  0
 35 39  1  0
 36 35  2  0
 37 32  2  0
 37 36  1  0
 38 37  1  0
 40 41  1  0
 41 44  1  0
 41 43  1  0
 42 40  2  0
 45 20  1  0
 45 46  1  0
 47 45  1  0
 49 48  1  0
 50  1  1  0
 50 51  1  0
 52 53  1  0
 52 51  1  0
 54 56  1  0
 54 53  1  0
 55 66  2  0
 56 61  1  0
 57 65  1  0
 57 67  1  0
 58 64  1  0
 58 60  1  0
 59 65  1  0
 60 61  2  0
 60 59  1  0
 62 63  1  0
 62 56  2  0
 63 58  2  0
 64 57  1  0
 65 55  1  0
 67 69  2  0
 68 67  1  0
 70 68  1  0
 71 80  2  0
 71 76  1  0
 72 68  1  0
 72 76  1  0
 73 72  1  0
 74 75  1  0
 74 73  1  0
 75 71  1  0
 76 77  2  0
 77 78  1  0
 79 78  2  0
 80 79  1  0
 81 55  1  0
 81 82  1  0
 81 91  1  0
 82 85  1  0
 83 87  1  0
 83 82  1  0
 84 83  2  0
 87 86  1  0
 89 87  1  0
 89 90  1  0
 89 88  1  0
 91 94  1  1
 91 92  1  0
 93 91  1  0
M  ISO  4  10 100  18 100  53 101  54 101
M  END
>  <TORSDO>  (8) 
F 23

>  <SCORE>  (8) 
-9.093

>  <name>  (8) 
7

>  <ligand_id>  (8) 
7

>  <original_smiles>  (8) 
[H]c1c([H])c([H])c2c(c1[H])C([H])([H])C([H])([H])C([H])([H])C2([H])N([H])C(=O)C1([H])N(C(=O)C([H])(N([H])C(=O)C([H])(N([H])C([H])([H])[H])C([H])([H])[H])C(C([H])([H])[H])(C([H])([H])[H])C([H])([H])[H])C([H])([H])c2c([H])c(OC([H])([H])C([H])([H])C([H])([H])C([H])([H])C(=O)C34C([H])([H])C([H])([H])C([H])(C([H])(N([H])C(=O)N5C([H])([H])C([H])([H])C([H])([H])C([H])(n6nc(-c7c([H])c([H])c(Oc8c([H])c([H])c(F)c([H])c8F)c([H])c7[H])c(C(=O)N([H])[H])c6N([H])[H])C5([H])[H])C([H])([H])C([H])([H])[H])C3([H])C4([H])[H])c([H])c([H])c2C1([H])[H]

>  <smiles>  (8) 
[H]c1c([H])c([H])c2c(c1[H])C([H])([H])C([H])([H])C([H])([H])C2([H])N([H])C(=O)C1([H])N(C(=O)C([H])(N([H])C(=O)C([H])(N([H])C([H])([H])[H])C([H])([H])[H])C(C([H])([H])[H])(C([H])([H])[H])C([H])([H])[H])C([H])([H])c2c([H])c(OC([H])([H])C([H])([H])C([H])([H])C([H])([H])C(=O)C34C([H])([H])C([H])([H])C([H])(C([H])(N([H])C(=O)N5C([H])([H])C([H])([H])C([H])([H])C([H])(n6nc(-c7c([H])c([H])c(Oc8c([H])c([H])c(F)c([H])c8F)c([H])c7[H])c(C(=O)N([H])[H])c6N([H])[H])C5([H])[H])C([H])([H])C([H])([H])[H])C3([H])C4([H])[H])c([H])c([H])c2C1([H])[H]

$$$$
8:0:0
     RDKit          3D

 95104  0  0  1  0  0  0  0  0999 V2000
  -29.7210  -18.6800   18.6560 C   0  0  0  0  0  2  0  0  0  0  0  0
  -30.6720  -21.1220   18.1130 C   0  0  0  0  0  2  0  0  0  0  0  0
  -29.1760  -19.6160   20.7600 C   0  0  0  0  0  2  0  0  0  0  0  0
  -29.5170  -20.2670   18.5880 C   0  0  0  0  0  3  0  0  0  0  0  0
  -29.8760  -18.1600   20.1180 C   0  0  0  0  0  3  0  0  0  0  0  0
  -29.4590  -21.1110   19.9270 C   0  0  2  0  0  0  0  0  0  0  0  0
  -30.9860  -21.4510   19.5870 C   0  0  2  0  0  0  0  0  0  0  0  0
  -30.3750  -15.2580   20.2990 C   0  0  0  0  0  0  0  0  0  0  0  0
  -30.3310  -12.8080   19.4570 C   0  0  0  0  0  2  0  0  0  0  0  0
  -29.4250  -12.6420   18.2120 C   0  0  0  0  0  2  0  0  0  0  0  0
  -27.9650  -12.3960   18.6290 C   0  0  0  0  0  2  0  0  0  0  0  0
  -27.5190  -13.3440   19.7720 C   0  0  0  0  0  3  0  0  0  0  0  0
  -28.5640  -13.4650   20.9000 C   0  0  0  0  0  2  0  0  0  0  0  0
  -29.8030  -13.9580   20.2780 N   0  0  0  0  0  0  0  0  0  0  0  0
  -31.5920  -15.2550   20.0590 O   0  0  0  0  0  0  0  0  0  0  0  0
  -29.6160  -16.5300   20.3790 N   0  0  0  0  0  0  0  0  0  0  0  0
  -28.6450  -16.3390   20.5810 H   0  0  0  0  0  0  0  0  0  0  0  0
  -25.1480  -13.8990   20.5180 C   0  0  0  0  0  0  0  0  0  0  0  0
  -24.0860  -13.1220   20.8850 C   0  0  0  0  0  0  0  0  0  0  0  0
  -24.5550  -11.7730   20.8580 C   0  0  0  0  0  0  0  0  0  0  0  0
  -26.1910  -13.0260   20.2780 N   0  0  0  0  0  0  0  0  0  0  0  0
  -25.8490  -11.7400   20.5500 N   0  0  0  0  0  0  0  0  0  0  0  0
  -23.8270  -10.5100   21.0470 C   0  0  0  0  0  0  0  0  0  0  0  0
  -24.2550   -9.5410   21.9800 C   0  0  0  0  0  3  0  0  0  0  0  0
  -23.5250   -8.3470   22.1560 C   0  0  0  0  0  3  0  0  0  0  0  0
  -22.3510   -8.1130   21.4030 C   0  0  0  0  0  0  0  0  0  0  0  0
  -21.9410   -9.0700   20.4580 C   0  0  0  0  0  3  0  0  0  0  0  0
  -22.6730  -10.2560   20.2800 C   0  0  0  0  0  3  0  0  0  0  0  0
  -21.5920   -6.9720   21.4910 O   0  0  0  0  0  0  0  0  0  0  0  0
  -21.5450   -6.2250   22.6400 C   0  0  0  0  0  0  0  0  0  0  0  0
  -21.1250   -6.7750   23.8710 C   0  0  0  0  0  3  0  0  0  0  0  0
  -21.0260   -5.9540   25.0130 C   0  0  0  0  0  3  0  0  0  0  0  0
  -21.3350   -4.5850   24.9250 C   0  0  0  0  0  0  0  0  0  0  0  0
  -21.7460   -4.0340   23.6990 C   0  0  0  0  0  3  0  0  0  0  0  0
  -21.8490   -4.8500   22.5600 C   0  0  0  0  0  0  0  0  0  0  0  0
  -22.2270   -4.3100   21.3760 F   0  0  0  0  0  0  0  0  0  0  0  0
  -21.2290   -3.7940   26.0200 F   0  0  0  0  0  0  0  0  0  0  0  0
  -22.6880  -13.6000   21.1440 C   0  0  0  0  0  0  0  0  0  0  0  0
  -21.9510  -12.9080   22.0040 N   0  0  0  0  0  0  0  0  0  0  0  0
  -22.2610  -14.6290   20.6210 O   0  0  0  0  0  0  0  0  0  0  0  0
  -22.3040  -12.0740   22.4520 H   0  0  0  0  0  0  0  0  0  0  0  0
  -21.0160  -13.2220   22.2270 H   0  0  0  0  0  0  0  0  0  0  0  0
  -25.3050  -15.2730   20.3400 N   0  0  0  0  0  0  0  0  0  0  0  0
  -24.5220  -15.9110   20.4320 H   0  0  0  0  0  0  0  0  0  0  0  0
  -26.1380  -15.7190   19.9790 H   0  0  0  0  0  0  0  0  0  0  0  0
  -31.2650  -22.9030   19.6960 N   0  0  0  0  0  4  0  0  0  0  0  0
  -30.5380  -23.4320   19.2500 H   0  0  0  0  0  0  0  0  0  0  0  0
  -32.1330  -23.1570   19.2540 H   0  0  0  0  0  0  0  0  0  0  0  0
  -31.3260  -23.1840   20.6600 H   0  0  0  0  0  0  0  0  0  0  0  0
  -28.4270  -22.6280   19.8700 C   0  0  0  0  0  2  0  0  0  0  0  0
  -28.3990  -24.3050   20.5880 C   0  0  0  0  0  2  0  0  0  0  0  0
  -28.3030  -25.9060   20.1480 O   0  0  0  0  0  0  0  0  0  0  0  0
  -24.6380  -31.8580   23.1980 C   0  0  0  0  0  0  0  0  0  0  0  0
  -27.2280  -26.9460   20.2290 C   0  0  0  0  0  0  0  0  0  0  0  0
  -23.4500  -30.4460   21.5700 C   0  0  0  0  0  3  0  0  0  0  0  0
  -24.9070  -28.8190   20.1730 C   0  0  0  0  0  0  0  0  0  0  0  0
  -26.0210  -30.6500   21.4340 C   0  0  0  0  0  2  0  0  0  0  0  0
  -26.0960  -29.2340   20.7890 C   0  0  0  0  0  0  0  0  0  0  0  0
  -27.2470  -28.3230   20.7850 C   0  0  0  0  0  3  0  0  0  0  0  0
  -25.9980  -26.6730   19.5960 C   0  0  0  0  0  3  0  0  0  0  0  0
  -24.8780  -27.5530   19.5640 C   0  0  0  0  0  3  0  0  0  0  0  0
  -23.6890  -29.7460   20.2040 C   0  0  0  0  0  2  0  0  0  0  0  0
  -24.7250  -31.0140   22.1200 N   0  0  0  0  0  0  0  0  0  0  0  0
  -23.5450  -32.1560   23.7100 O   0  0  0  0  0  0  0  0  0  0  0  0
  -22.7530  -29.4600   22.5420 C   0  0  0  0  0  0  0  0  0  0  0  0
  -21.4210  -29.3050   22.4230 N   0  0  0  0  0  0  0  0  0  0  0  0
  -23.4170  -28.8330   23.3720 O   0  0  0  0  0  0  0  0  0  0  0  0
  -20.9400  -29.8670   21.7360 H   0  0  0  0  0  0  0  0  0  0  0  0
  -18.0290  -28.1250   22.9610 C   0  0  0  0  0  0  0  0  0  0  0  0
  -20.5940  -28.3770   23.2010 C   0  0  0  0  0  3  0  0  0  0  0  0
  -20.6800  -26.9410   22.6300 C   0  0  0  0  0  2  0  0  0  0  0  0
  -19.5670  -26.6260   21.6230 C   0  0  0  0  0  2  0  0  0  0  0  0
  -18.1930  -26.7780   22.2790 C   0  0  0  0  0  2  0  0  0  0  0  0
  -19.1570  -28.8860   23.3780 C   0  0  0  0  0  0  0  0  0  0  0  0
  -18.9480  -30.1450   23.9800 C   0  0  0  0  0  3  0  0  0  0  0  0
  -17.6450  -30.6460   24.1650 C   0  0  0  0  0  3  0  0  0  0  0  0
  -16.5350  -29.8850   23.7590 C   0  0  0  0  0  3  0  0  0  0  0  0
  -16.7290  -28.6260   23.1630 C   0  0  0  0  0  3  0  0  0  0  0  0
  -25.9030  -32.5080   23.8320 C   0  0  0  0  0  3  0  0  0  0  0  0
  -25.5790  -33.9090   24.1550 N   0  0  0  0  0  0  0  0  0  0  0  0
  -25.9170  -34.9680   23.4090 C   0  0  0  0  0  0  0  0  0  0  0  0
  -26.5910  -34.8670   22.3800 O   0  0  0  0  0  0  0  0  0  0  0  0
  -24.9770  -34.0610   24.9510 H   0  0  0  0  0  0  0  0  0  0  0  0
  -24.1870  -36.7670   23.0640 C   0  0  0  0  0  1  0  0  0  0  0  0
  -25.4260  -36.3560   23.8720 C   0  0  0  0  0  3  0  0  0  0  0  0
  -27.5580  -37.2430   24.7060 C   0  0  0  0  0  1  0  0  0  0  0  0
  -26.4570  -37.4110   23.7650 N   0  0  0  0  0  0  0  0  0  0  0  0
  -26.0480  -38.3290   23.9190 H   0  0  0  0  0  0  0  0  0  0  0  0
  -26.4030  -31.7570   25.1280 C   0  0  1  0  0  0  0  0  0  0  0  0
  -25.2970  -31.5310   26.1900 C   0  0  0  0  0  1  0  0  0  0  0  0
  -26.9960  -30.3750   24.7730 C   0  0  0  0  0  1  0  0  0  0  0  0
  -27.5520  -32.5600   25.7840 C   0  0  0  0  0  1  0  0  0  0  0  0
  -32.1680  -20.7180   20.3020 C   0  0  0  0  0  2  0  0  0  0  0  0
  -34.0310  -21.0810   18.4750 C   0  0  0  0  0  1  0  0  0  0  0  0
  -33.2740  -20.1010   19.3990 C   0  0  0  0  0  2  0  0  0  0  0  0
  1  5  1  0
  2  7  1  0
  4  2  1  0
  4  1  1  0
  4  6  1  0
  5 16  1  0
  5  3  1  0
  6 50  1  6
  6  3  1  0
  7 46  1  0
  7  6  1  0
  7 93  1  1
  8 16  1  0
  9 14  1  0
 10 11  1  0
 10  9  1  0
 12 11  1  0
 12 21  1  0
 12 13  1  0
 14  8  1  0
 14 13  1  0
 15  8  2  0
 16 17  1  0
 18 19  2  0
 19 38  1  0
 20 19  1  0
 20 23  1  0
 21 18  1  0
 21 22  1  0
 22 20  2  0
 23 24  1  0
 24 25  2  0
 26 29  1  0
 26 25  1  0
 27 26  2  0
 28 27  1  0
 28 23  2  0
 29 30  1  0
 30 31  1  0
 31 32  2  0
 33 32  1  0
 33 37  1  0
 34 33  2  0
 35 30  2  0
 35 34  1  0
 36 35  1  0
 38 39  1  0
 39 42  1  0
 39 41  1  0
 40 38  2  0
 43 44  1  0
 43 18  1  0
 45 43  1  0
 46 49  1  0
 47 46  1  0
 48 46  1  0
 50 51  1  0
 52 54  1  0
 52 51  1  0
 53 64  2  0
 54 59  1  0
 55 63  1  0
 55 65  1  0
 56 62  1  0
 56 58  1  0
 57 63  1  0
 58 57  1  0
 59 58  2  0
 60 54  2  0
 61 60  1  0
 61 56  2  0
 62 55  1  0
 63 53  1  0
 65 67  2  0
 66 65  1  0
 68 66  1  0
 69 78  2  0
 69 74  1  0
 70 66  1  0
 70 74  1  0
 71 70  1  0
 72 73  1  0
 72 71  1  0
 73 69  1  0
 74 75  2  0
 75 76  1  0
 77 76  2  0
 78 77  1  0
 79 53  1  0
 79 80  1  0
 79 89  1  0
 80 83  1  0
 81 85  1  0
 81 80  1  0
 82 81  2  0
 85 84  1  0
 87 85  1  0
 87 88  1  0
 87 86  1  0
 89 92  1  1
 89 90  1  0
 91 89  1  0
 94 95  1  0
 95 93  1  0
M  ISO  4   8 100  16 100  51 101  52 101
M  END
>  <TORSDO>  (9) 
F 21

>  <SCORE>  (9) 
-14.976

>  <name>  (9) 
8

>  <ligand_id>  (9) 
8

>  <original_smiles>  (9) 
[H]c1c([H])c([H])c2c(c1[H])C([H])([H])C([H])([H])C([H])([H])C2([H])N([H])C(=O)C1([H])N(C(=O)C([H])(N([H])C(=O)C([H])(N([H])C([H])([H])[H])C([H])([H])[H])C(C([H])([H])[H])(C([H])([H])[H])C([H])([H])[H])C([H])([H])c2c([H])c(OC([H])([H])C([H])([H])C34C([H])([H])C([H])(N([H])C(=O)N5C([H])([H])C([H])([H])C([H])([H])C([H])(n6nc(-c7c([H])c([H])c(Oc8c([H])c([H])c(F)c([H])c8F)c([H])c7[H])c(C(=O)N([H])[H])c6N([H])[H])C5([H])[H])C([H])([H])C3([H])C([H])([H])C4(C([H])([H])C([H])([H])C([H])([H])[H])[N+]([H])([H])[H])c([H])c([H])c2C1([H])[H]

>  <smiles>  (9) 
[H]c1c([H])c([H])c2c(c1[H])C([H])([H])C([H])([H])C([H])([H])C2([H])N([H])C(=O)C1([H])N(C(=O)C([H])(N([H])C(=O)C([H])(N([H])C([H])([H])[H])C([H])([H])[H])C(C([H])([H])[H])(C([H])([H])[H])C([H])([H])[H])C([H])([H])c2c([H])c(OC([H])([H])C([H])([H])C34C([H])([H])C([H])(N([H])C(=O)N5C([H])([H])C([H])([H])C([H])([H])C([H])(n6nc(-c7c([H])c([H])c(Oc8c([H])c([H])c(F)c([H])c8F)c([H])c7[H])c(C(=O)N([H])[H])c6N([H])[H])C5([H])[H])C([H])([H])C3([H])C([H])([H])C4(C([H])([H])C([H])([H])C([H])([H])[H])[N+]([H])([H])[H])c([H])c([H])c2C1([H])[H]

$$$$
9:0:0
     RDKit          3D

 92101  0  0  1  0  0  0  0  0999 V2000
  -29.7090  -20.7540   18.7500 C   0  0  0  0  0  3  0  0  0  0  0  0
  -29.1460  -21.9680   19.1740 C   0  0  0  0  0  3  0  0  0  0  0  0
  -29.8990  -20.0070   21.0450 C   0  0  0  0  0  3  0  0  0  0  0  0
  -30.1170  -19.7710   19.6730 C   0  0  0  0  0  0  0  0  0  0  0  0
  -28.9750  -22.2400   20.5440 C   0  0  0  0  0  0  0  0  0  0  0  0
  -29.3320  -21.2320   21.4870 C   0  0  0  0  0  0  0  0  0  0  0  0
  -29.1430  -21.4380   22.9820 C   0  0  0  0  0  1  0  0  0  0  0  0
  -30.1110  -17.4710   18.4260 C   0  0  0  0  0  2  0  0  0  0  0  0
  -30.8540  -18.5980   19.0870 C   0  0  0  0  0  3  0  0  0  0  0  0
  -31.0930  -17.1620   19.5420 C   0  0  0  0  0  3  0  0  0  0  0  0
  -30.6130  -16.2610   20.7070 C   0  0  0  0  0  2  0  0  0  0  0  0
  -31.2430  -14.8460   20.5370 C   0  0  0  0  0  0  0  0  0  0  0  0
  -30.8970  -12.6430   19.5200 C   0  0  0  0  0  2  0  0  0  0  0  0
  -30.0330  -12.8210   18.2570 C   0  0  0  0  0  2  0  0  0  0  0  0
  -28.5410  -12.7180   18.6230 C   0  0  0  0  0  2  0  0  0  0  0  0
  -28.1520  -13.6250   19.8210 C   0  0  0  0  0  3  0  0  0  0  0  0
  -29.1570  -13.4980   20.9880 C   0  0  0  0  0  2  0  0  0  0  0  0
  -30.5090  -13.7040   20.4620 N   0  0  0  0  0  0  0  0  0  0  0  0
  -32.4460  -14.8230   20.2710 O   0  0  0  0  0  0  0  0  0  0  0  0
  -25.7510  -14.2770   20.4730 C   0  0  0  0  0  0  0  0  0  0  0  0
  -24.6510  -13.5250   20.7910 C   0  0  0  0  0  0  0  0  0  0  0  0
  -25.0810  -12.1640   20.7580 C   0  0  0  0  0  0  0  0  0  0  0  0
  -26.7800  -13.3730   20.2600 N   0  0  0  0  0  0  0  0  0  0  0  0
  -26.3790  -12.0960   20.4920 N   0  0  0  0  0  0  0  0  0  0  0  0
  -24.3160  -10.9170   20.9030 C   0  0  0  0  0  0  0  0  0  0  0  0
  -24.6910   -9.9230   21.8330 C   0  0  0  0  0  3  0  0  0  0  0  0
  -23.9270   -8.7420   21.9650 C   0  0  0  0  0  3  0  0  0  0  0  0
  -22.7760   -8.5470   21.1660 C   0  0  0  0  0  0  0  0  0  0  0  0
  -22.4220   -9.5290   20.2240 C   0  0  0  0  0  3  0  0  0  0  0  0
  -23.1850  -10.7010   20.0900 C   0  0  0  0  0  3  0  0  0  0  0  0
  -21.9900   -7.4210   21.2070 O   0  0  0  0  0  0  0  0  0  0  0  0
  -21.8740   -6.6660   22.3460 C   0  0  0  0  0  0  0  0  0  0  0  0
  -21.4080   -7.2140   23.5610 C   0  0  0  0  0  3  0  0  0  0  0  0
  -21.2390   -6.3870   24.6890 C   0  0  0  0  0  3  0  0  0  0  0  0
  -21.5250   -5.0110   24.6030 C   0  0  0  0  0  0  0  0  0  0  0  0
  -21.9830   -4.4610   23.3920 C   0  0  0  0  0  3  0  0  0  0  0  0
  -22.1540   -5.2870   22.2680 C   0  0  0  0  0  0  0  0  0  0  0  0
  -22.5760   -4.7480   21.0990 F   0  0  0  0  0  0  0  0  0  0  0  0
  -21.3540   -4.2140   25.6840 F   0  0  0  0  0  0  0  0  0  0  0  0
  -23.2570  -14.0340   21.0210 C   0  0  0  0  0  0  0  0  0  0  0  0
  -22.4830  -13.3490   21.8540 N   0  0  0  0  0  0  0  0  0  0  0  0
  -22.8650  -15.0760   20.5000 O   0  0  0  0  0  0  0  0  0  0  0  0
  -22.8150  -12.5050   22.3010 H   0  0  0  0  0  0  0  0  0  0  0  0
  -21.5460  -13.6700   22.0500 H   0  0  0  0  0  0  0  0  0  0  0  0
  -25.9590  -15.6440   20.3260 N   0  0  0  0  0  0  0  0  0  0  0  0
  -25.2100  -16.3200   20.4240 H   0  0  0  0  0  0  0  0  0  0  0  0
  -26.8350  -16.0660   20.0480 H   0  0  0  0  0  0  0  0  0  0  0  0
  -28.4040  -23.6130   20.9250 C   0  0  0  0  0  2  0  0  0  0  0  0
  -29.5380  -25.7070   21.8320 C   0  0  0  0  0  1  0  0  0  0  0  0
  -29.3340  -24.8240   20.5880 C   0  0  0  0  0  3  0  0  0  0  0  0
  -28.8970  -25.6490   19.3340 C   0  0  0  0  0  2  0  0  0  0  0  0
  -28.7640  -27.0750   19.5440 O   0  0  0  0  0  0  0  0  0  0  0  0
  -24.6140  -31.6960   23.0480 C   0  0  0  0  0  0  0  0  0  0  0  0
  -27.5150  -27.6720   19.6180 C   0  0  0  0  0  0  0  0  0  0  0  0
  -23.4780  -30.2990   21.3570 C   0  0  0  0  0  3  0  0  0  0  0  0
  -25.0060  -28.9870   19.7980 C   0  0  0  0  0  0  0  0  0  0  0  0
  -25.9580  -30.8850   21.1090 C   0  0  0  0  0  2  0  0  0  0  0  0
  -26.1380  -29.5660   20.3810 C   0  0  0  0  0  0  0  0  0  0  0  0
  -27.3930  -28.9190   20.2830 C   0  0  0  0  0  3  0  0  0  0  0  0
  -26.3510  -27.1110   19.0390 C   0  0  0  0  0  3  0  0  0  0  0  0
  -25.1080  -27.7620   19.1240 C   0  0  0  0  0  3  0  0  0  0  0  0
  -23.7000  -29.7330   19.9310 C   0  0  0  0  0  2  0  0  0  0  0  0
  -24.7020  -30.9720   21.8970 N   0  0  0  0  0  0  0  0  0  0  0  0
  -23.5310  -31.8370   23.6330 O   0  0  0  0  0  0  0  0  0  0  0  0
  -22.9530  -29.1630   22.2650 C   0  0  0  0  0  0  0  0  0  0  0  0
  -21.6610  -28.8290   22.1210 N   0  0  0  0  0  0  0  0  0  0  0  0
  -23.7050  -28.5880   23.0570 O   0  0  0  0  0  0  0  0  0  0  0  0
  -21.1060  -29.3530   21.4560 H   0  0  0  0  0  0  0  0  0  0  0  0
  -18.4730  -27.1660   22.4860 C   0  0  0  0  0  0  0  0  0  0  0  0
  -20.9620  -27.7700   22.8480 C   0  0  0  0  0  3  0  0  0  0  0  0
  -21.2790  -26.3830   22.2460 C   0  0  0  0  0  2  0  0  0  0  0  0
  -20.2630  -25.9360   21.1890 C   0  0  0  0  0  2  0  0  0  0  0  0
  -18.8560  -25.8720   21.7900 C   0  0  0  0  0  2  0  0  0  0  0  0
  -19.4620  -28.0650   22.9690 C   0  0  0  0  0  0  0  0  0  0  0  0
  -19.0500  -29.2710   23.5780 C   0  0  0  0  0  3  0  0  0  0  0  0
  -17.6830  -29.5830   23.7080 C   0  0  0  0  0  3  0  0  0  0  0  0
  -16.7100  -28.6840   23.2410 C   0  0  0  0  0  3  0  0  0  0  0  0
  -17.1060  -27.4780   22.6360 C   0  0  0  0  0  3  0  0  0  0  0  0
  -25.8600  -32.4000   23.6700 C   0  0  0  0  0  3  0  0  0  0  0  0
  -25.4460  -33.7490   24.0750 N   0  0  0  0  0  0  0  0  0  0  0  0
  -25.6830  -34.8600   23.3650 C   0  0  0  0  0  0  0  0  0  0  0  0
  -26.3450  -34.8600   22.3240 O   0  0  0  0  0  0  0  0  0  0  0  0
  -24.8560  -33.8160   24.8910 H   0  0  0  0  0  0  0  0  0  0  0  0
  -23.8150  -36.5240   23.1120 C   0  0  0  0  0  1  0  0  0  0  0  0
  -25.0930  -36.1810   23.8950 C   0  0  0  0  0  3  0  0  0  0  0  0
  -27.1630  -37.1890   24.7510 C   0  0  0  0  0  1  0  0  0  0  0  0
  -26.0380  -37.3180   23.8260 N   0  0  0  0  0  0  0  0  0  0  0  0
  -25.5630  -38.1950   24.0240 H   0  0  0  0  0  0  0  0  0  0  0  0
  -26.4710  -31.6120   24.8940 C   0  0  1  0  0  0  0  0  0  0  0  0
  -25.4290  -31.2400   25.9740 C   0  0  0  0  0  1  0  0  0  0  0  0
  -27.1450  -30.3030   24.4160 C   0  0  0  0  0  1  0  0  0  0  0  0
  -27.5780  -32.4590   25.5630 C   0  0  0  0  0  1  0  0  0  0  0  0
  1  2  2  0
  1  4  1  0
  2  5  1  0
  3  6  1  0
  4  3  2  0
  5 48  1  0
  5  6  2  0
  6  7  1  0
  8  9  1  0
  8 10  1  0
  9 10  1  0
  9  4  1  0
 10 11  1  0
 12 11  1  0
 13 18  1  0
 14 15  1  0
 14 13  1  0
 16 15  1  0
 16 23  1  0
 16 17  1  0
 18 12  1  0
 18 17  1  0
 19 12  2  0
 20 21  2  0
 21 40  1  0
 22 21  1  0
 22 25  1  0
 23 20  1  0
 23 24  1  0
 24 22  2  0
 25 26  1  0
 26 27  2  0
 28 31  1  0
 28 27  1  0
 29 28  2  0
 30 29  1  0
 30 25  2  0
 31 32  1  0
 32 33  1  0
 33 34  2  0
 35 34  1  0
 35 39  1  0
 36 35  2  0
 37 32  2  0
 37 36  1  0
 38 37  1  0
 40 41  1  0
 41 44  1  0
 41 43  1  0
 42 40  2  0
 45 46  1  0
 45 20  1  0
 47 45  1  0
 50 48  1  0
 50 49  1  0
 51 52  1  0
 51 50  1  0
 52 54  1  0
 53 64  2  0
 54 59  1  0
 55 63  1  0
 55 65  1  0
 56 62  1  0
 56 58  1  0
 57 63  1  0
 58 57  1  0
 59 58  2  0
 60 61  1  0
 60 54  2  0
 61 56  2  0
 62 55  1  0
 63 53  1  0
 65 67  2  0
 66 65  1  0
 68 66  1  0
 69 78  2  0
 69 74  1  0
 70 66  1  0
 70 74  1  0
 71 70  1  0
 72 73  1  0
 72 71  1  0
 73 69  1  0
 74 75  2  0
 75 76  1  0
 77 76  2  0
 78 77  1  0
 79 53  1  0
 79 80  1  0
 79 89  1  0
 80 83  1  0
 81 85  1  0
 81 80  1  0
 82 81  2  0
 85 84  1  0
 87 85  1  0
 87 88  1  0
 87 86  1  0
 89 92  1  1
 89 90  1  0
 91 89  1  0
M  ISO  4  11 100  12 100  51 101  52 101
M  END
>  <TORSDO>  (10) 
F 21

>  <SCORE>  (10) 
-11.804

>  <name>  (10) 
9

>  <ligand_id>  (10) 
9

>  <original_smiles>  (10) 
[H]c1c([H])c([H])c2c(c1[H])C([H])([H])C([H])([H])C([H])([H])C2([H])N([H])C(=O)C1([H])N(C(=O)C([H])(N([H])C(=O)C([H])(N([H])C([H])([H])[H])C([H])([H])[H])C(C([H])([H])[H])(C([H])([H])[H])C([H])([H])[H])C([H])([H])c2c([H])c(OC([H])([H])C([H])(C([H])([H])[H])C([H])([H])c3c([H])c([H])c(C4([H])C([H])([H])C4([H])C([H])([H])C(=O)N4C([H])([H])C([H])([H])C([H])([H])C([H])(n5nc(-c6c([H])c([H])c(Oc7c([H])c([H])c(F)c([H])c7F)c([H])c6[H])c(C(=O)N([H])[H])c5N([H])[H])C4([H])[H])c([H])c3C([H])([H])[H])c([H])c([H])c2C1([H])[H]

>  <smiles>  (10) 
[H]c1c([H])c([H])c2c(c1[H])C([H])([H])C([H])([H])C([H])([H])C2([H])N([H])C(=O)C1([H])N(C(=O)C([H])(N([H])C(=O)C([H])(N([H])C([H])([H])[H])C([H])([H])[H])C(C([H])([H])[H])(C([H])([H])[H])C([H])([H])[H])C([H])([H])c2c([H])c(OC([H])([H])C([H])(C([H])([H])[H])C([H])([H])c3c([H])c([H])c(C4([H])C([H])([H])C4([H])C([H])([H])C(=O)N4C([H])([H])C([H])([H])C([H])([H])C([H])(n5nc(-c6c([H])c([H])c(Oc7c([H])c([H])c(F)c([H])c7F)c([H])c6[H])c(C(=O)N([H])[H])c5N([H])[H])C4([H])[H])c([H])c3C([H])([H])[H])c([H])c([H])c2C1([H])[H]

$$$$
10:0:0
     RDKit          3D

 94103  0  0  1  0  0  0  0  0999 V2000
  -28.4990  -22.9060   23.3470 C   0  0  0  0  0  2  0  0  0  0  0  0
  -30.0230  -22.8200   23.2490 C   0  0  0  0  0  2  0  0  0  0  0  0
  -28.0120  -23.2840   21.9380 C   0  0  0  0  0  2  0  0  0  0  0  0
  -30.3070  -22.4430   21.7850 C   0  0  0  0  0  3  0  0  0  0  0  0
  -29.2390  -23.2430   20.9950 C   0  0  0  0  0  3  0  0  0  0  0  0
  -30.3010  -20.5550   20.0980 C   0  0  0  0  0  3  0  0  0  0  0  0
  -30.4130  -19.9230   22.4420 C   0  0  0  0  0  3  0  0  0  0  0  0
  -30.5010  -19.2120   19.7290 C   0  0  0  0  0  3  0  0  0  0  0  0
  -30.6390  -18.5780   22.0730 C   0  0  0  0  0  3  0  0  0  0  0  0
  -30.3030  -20.9380   21.4560 C   0  0  0  0  0  0  0  0  0  0  0  0
  -30.7360  -18.2300   20.7120 C   0  0  0  0  0  0  0  0  0  0  0  0
  -31.3460  -16.9090   20.2770 C   0  0  0  0  0  2  0  0  0  0  0  0
  -31.2130  -14.5210   20.0440 C   0  0  0  0  0  0  0  0  0  0  0  0
  -30.7370  -12.3890   18.9350 C   0  0  0  0  0  2  0  0  0  0  0  0
  -29.7540  -12.6430   17.7770 C   0  0  0  0  0  2  0  0  0  0  0  0
  -28.3020  -12.5460   18.2790 C   0  0  0  0  0  2  0  0  0  0  0  0
  -28.0510  -13.3690   19.5750 C   0  0  0  0  0  3  0  0  0  0  0  0
  -29.1650  -13.1510   20.6240 C   0  0  0  0  0  2  0  0  0  0  0  0
  -30.4570  -13.3950   19.9720 N   0  0  0  0  0  0  0  0  0  0  0  0
  -32.3270  -14.5910   19.5180 O   0  0  0  0  0  0  0  0  0  0  0  0
  -30.6480  -15.6410   20.5330 N   0  0  0  0  0  0  0  0  0  0  0  0
  -29.7120  -15.6320   20.9060 H   0  0  0  0  0  0  0  0  0  0  0  0
  -25.7180  -13.9830   20.4630 C   0  0  0  0  0  0  0  0  0  0  0  0
  -24.6590  -13.2140   20.8670 C   0  0  0  0  0  0  0  0  0  0  0  0
  -25.0900  -11.8560   20.7510 C   0  0  0  0  0  0  0  0  0  0  0  0
  -26.7270  -13.0940   20.1280 N   0  0  0  0  0  0  0  0  0  0  0  0
  -26.3570  -11.8070   20.3580 N   0  0  0  0  0  0  0  0  0  0  0  0
  -24.3480  -10.6010   20.9330 C   0  0  0  0  0  0  0  0  0  0  0  0
  -24.7470   -9.6410   21.8880 C   0  0  0  0  0  3  0  0  0  0  0  0
  -24.0080   -8.4500   22.0570 C   0  0  0  0  0  3  0  0  0  0  0  0
  -22.8550   -8.2120   21.2710 C   0  0  0  0  0  0  0  0  0  0  0  0
  -22.4770   -9.1620   20.3050 C   0  0  0  0  0  3  0  0  0  0  0  0
  -23.2180  -10.3420   20.1330 C   0  0  0  0  0  3  0  0  0  0  0  0
  -22.0880   -7.0750   21.3480 O   0  0  0  0  0  0  0  0  0  0  0  0
  -21.8820   -6.4250   22.5390 C   0  0  0  0  0  0  0  0  0  0  0  0
  -21.2720   -7.0640   23.6410 C   0  0  0  0  0  3  0  0  0  0  0  0
  -21.0170   -6.3400   24.8220 C   0  0  0  0  0  3  0  0  0  0  0  0
  -21.3620   -4.9770   24.9020 C   0  0  0  0  0  0  0  0  0  0  0  0
  -21.9640   -4.3380   23.8040 C   0  0  0  0  0  3  0  0  0  0  0  0
  -22.2210   -5.0600   22.6250 C   0  0  0  0  0  0  0  0  0  0  0  0
  -22.7830   -4.4340   21.5630 F   0  0  0  0  0  0  0  0  0  0  0  0
  -21.1100   -4.2780   26.0340 F   0  0  0  0  0  0  0  0  0  0  0  0
  -23.2940  -13.7060   21.2490 C   0  0  0  0  0  0  0  0  0  0  0  0
  -22.6120  -12.9960   22.1420 N   0  0  0  0  0  0  0  0  0  0  0  0
  -22.8420  -14.7550   20.7930 O   0  0  0  0  0  0  0  0  0  0  0  0
  -22.9900  -12.1460   22.5330 H   0  0  0  0  0  0  0  0  0  0  0  0
  -21.6970  -13.3070   22.4360 H   0  0  0  0  0  0  0  0  0  0  0  0
  -25.9010  -15.3560   20.3340 N   0  0  0  0  0  0  0  0  0  0  0  0
  -25.1650  -16.0220   20.5440 H   0  0  0  0  0  0  0  0  0  0  0  0
  -26.7370  -15.7950   19.9690 H   0  0  0  0  0  0  0  0  0  0  0  0
  -29.6970  -24.6640   20.5800 C   0  0  0  0  0  0  0  0  0  0  0  0
  -30.6960  -25.2070   21.0660 O   0  0  0  0  0  0  0  0  0  0  0  0
  -28.8440  -25.3790   19.5270 C   0  0  0  0  0  2  0  0  0  0  0  0
  -28.8950  -26.8060   19.7040 O   0  0  0  0  0  0  0  0  0  0  0  0
  -24.7970  -31.5390   23.0710 C   0  0  0  0  0  0  0  0  0  0  0  0
  -27.6860  -27.4670   19.7160 C   0  0  0  0  0  0  0  0  0  0  0  0
  -23.6720  -30.1720   21.3430 C   0  0  0  0  0  3  0  0  0  0  0  0
  -25.2100  -28.8290   19.8190 C   0  0  0  0  0  0  0  0  0  0  0  0
  -26.1740  -30.6900   21.1770 C   0  0  0  0  0  2  0  0  0  0  0  0
  -26.3340  -29.3730   20.4500 C   0  0  0  0  0  0  0  0  0  0  0  0
  -27.5750  -28.6970   20.4000 C   0  0  0  0  0  3  0  0  0  0  0  0
  -26.5450  -26.9530   19.0530 C   0  0  0  0  0  3  0  0  0  0  0  0
  -25.3110  -27.6190   19.1160 C   0  0  0  0  0  3  0  0  0  0  0  0
  -23.9170  -29.6020   19.9210 C   0  0  0  0  0  2  0  0  0  0  0  0
  -24.8980  -30.8140   21.9210 N   0  0  0  0  0  0  0  0  0  0  0  0
  -23.7030  -31.7080   23.6260 O   0  0  0  0  0  0  0  0  0  0  0  0
  -23.0910  -29.0510   22.2340 C   0  0  0  0  0  0  0  0  0  0  0  0
  -21.7860  -28.7750   22.0740 N   0  0  0  0  0  0  0  0  0  0  0  0
  -23.8100  -28.4330   23.0230 O   0  0  0  0  0  0  0  0  0  0  0  0
  -21.2620  -29.3320   21.4150 H   0  0  0  0  0  0  0  0  0  0  0  0
  -18.5100  -27.3000   22.4430 C   0  0  0  0  0  0  0  0  0  0  0  0
  -21.0340  -27.7380   22.7790 C   0  0  0  0  0  3  0  0  0  0  0  0
  -21.2590  -26.3510   22.1330 C   0  0  0  0  0  2  0  0  0  0  0  0
  -20.2030  -25.9970   21.0830 C   0  0  0  0  0  2  0  0  0  0  0  0
  -18.8020  -26.0050   21.7040 C   0  0  0  0  0  2  0  0  0  0  0  0
  -19.5580  -28.1220   22.9350 C   0  0  0  0  0  0  0  0  0  0  0  0
  -19.2340  -29.3360   23.5790 C   0  0  0  0  0  3  0  0  0  0  0  0
  -17.8920  -29.7280   23.7420 C   0  0  0  0  0  3  0  0  0  0  0  0
  -16.8570  -28.9010   23.2700 C   0  0  0  0  0  3  0  0  0  0  0  0
  -17.1660  -27.6890   22.6270 C   0  0  0  0  0  3  0  0  0  0  0  0
  -26.0450  -32.2080   23.7280 C   0  0  0  0  0  3  0  0  0  0  0  0
  -26.5890  -31.4170   24.9800 C   0  0  1  0  0  0  0  0  0  0  0  0
  -25.5020  -31.0880   26.0300 C   0  0  0  0  0  1  0  0  0  0  0  0
  -27.2410  -30.0850   24.5430 C   0  0  0  0  0  1  0  0  0  0  0  0
  -27.6940  -32.2420   25.6830 C   0  0  0  0  0  1  0  0  0  0  0  0
  -25.6690  -33.5770   24.1040 N   0  0  0  0  0  0  0  0  0  0  0  0
  -25.9570  -34.6700   23.3840 C   0  0  0  0  0  0  0  0  0  0  0  0
  -26.6430  -34.6350   22.3590 O   0  0  0  0  0  0  0  0  0  0  0  0
  -25.0730  -33.6780   24.9120 H   0  0  0  0  0  0  0  0  0  0  0  0
  -24.1460  -36.3840   23.0620 C   0  0  0  0  0  1  0  0  0  0  0  0
  -25.3940  -36.0160   23.8820 C   0  0  0  0  0  3  0  0  0  0  0  0
  -27.4650  -36.9780   24.7830 C   0  0  0  0  0  1  0  0  0  0  0  0
  -26.3730  -37.1220   23.8230 N   0  0  0  0  0  0  0  0  0  0  0  0
  -25.9170  -38.0150   23.9920 H   0  0  0  0  0  0  0  0  0  0  0  0
  2  1  1  0
  3  1  1  0
  4 10  1  0
  4  2  1  0
  5 51  1  0
  5  4  1  0
  5  3  1  0
  6 10  1  0
  8  6  2  0
  8 11  1  0
  9  7  1  0
 10  7  2  0
 11  9  2  0
 12 21  1  0
 12 11  1  0
 13 21  1  0
 14 19  1  0
 15 16  1  0
 15 14  1  0
 17 16  1  0
 17 26  1  0
 17 18  1  0
 19 13  1  0
 19 18  1  0
 20 13  2  0
 21 22  1  0
 23 24  2  0
 24 43  1  0
 25 24  1  0
 25 28  1  0
 26 27  1  0
 26 23  1  0
 27 25  2  0
 28 29  1  0
 29 30  2  0
 31 34  1  0
 31 30  1  0
 32 31  2  0
 33 32  1  0
 33 28  2  0
 34 35  1  0
 35 40  2  0
 35 36  1  0
 36 37  2  0
 37 38  1  0
 38 42  1  0
 39 38  2  0
 40 39  1  0
 41 40  1  0
 43 44  1  0
 44 47  1  0
 44 46  1  0
 45 43  2  0
 48 23  1  0
 48 49  1  0
 50 48  1  0
 51 52  2  0
 53 54  1  0
 53 51  1  0
 54 56  1  0
 55 66  2  0
 56 61  1  0
 57 65  1  0
 57 67  1  0
 58 64  1  0
 58 60  1  0
 59 65  1  0
 60 59  1  0
 61 60  2  0
 62 63  1  0
 62 56  2  0
 63 58  2  0
 64 57  1  0
 65 55  1  0
 67 69  2  0
 68 67  1  0
 70 68  1  0
 71 80  2  0
 71 76  1  0
 72 68  1  0
 72 76  1  0
 73 72  1  0
 74 75  1  0
 74 73  1  0
 75 71  1  0
 76 77  2  0
 77 78  1  0
 79 78  2  0
 80 79  1  0
 81 55  1  0
 81 86  1  0
 81 82  1  0
 82 85  1  1
 82 83  1  0
 84 82  1  0
 86 89  1  0
 87 91  1  0
 87 86  1  0
 88 87  2  0
 91 90  1  0
 93 91  1  0
 93 94  1  0
 93 92  1  0
M  ISO  4  13 100  21 100  53 101  54 101
M  END
>  <TORSDO>  (11) 
F 20

>  <SCORE>  (11) 
-11.096

>  <name>  (11) 
10

>  <ligand_id>  (11) 
10

>  <original_smiles>  (11) 
[H]c1c([H])c([H])c2c(c1[H])C([H])([H])C([H])([H])C([H])([H])C2([H])N([H])C(=O)C1([H])N(C(=O)C([H])(N([H])C(=O)C([H])(N([H])C([H])([H])[H])C([H])([H])[H])C(C([H])([H])[H])(C([H])([H])[H])C([H])([H])[H])C([H])([H])c2c([H])c(OC([H])([H])C(=O)C3([H])C([H])([H])C([H])([H])C([H])([H])C3([H])c3c([H])c([H])c(C([H])([H])N([H])C(=O)N4C([H])([H])C([H])([H])C([H])([H])C([H])(n5nc(-c6c([H])c([H])c(Oc7c([H])c([H])c(F)c([H])c7F)c([H])c6[H])c(C(=O)N([H])[H])c5N([H])[H])C4([H])[H])c([H])c3[H])c([H])c([H])c2C1([H])[H]

>  <smiles>  (11) 
[H]c1c([H])c([H])c2c(c1[H])C([H])([H])C([H])([H])C([H])([H])C2([H])N([H])C(=O)C1([H])N(C(=O)C([H])(N([H])C(=O)C([H])(N([H])C([H])([H])[H])C([H])([H])[H])C(C([H])([H])[H])(C([H])([H])[H])C([H])([H])[H])C([H])([H])c2c([H])c(OC([H])([H])C(=O)C3([H])C([H])([H])C([H])([H])C([H])([H])C3([H])c3c([H])c([H])c(C([H])([H])N([H])C(=O)N4C([H])([H])C([H])([H])C([H])([H])C([H])(n5nc(-c6c([H])c([H])c(Oc7c([H])c([H])c(F)c([H])c7F)c([H])c6[H])c(C(=O)N([H])[H])c5N([H])[H])C4([H])[H])c([H])c3[H])c([H])c([H])c2C1([H])[H]

$$$$
11:0:0
     RDKit          3D

 93102  0  0  1  0  0  0  0  0999 V2000
  -30.1230  -23.8900   19.2930 C   0  0  0  0  0  2  0  0  0  0  0  0
  -30.7270  -21.3920   19.2180 C   0  0  0  0  0  2  0  0  0  0  0  0
  -28.9050  -22.2650   20.8320 C   0  0  0  0  0  2  0  0  0  0  0  0
  -28.8770  -19.5820   19.9380 C   0  0  0  0  0  2  0  0  0  0  0  0
  -30.3070  -19.9510   21.2870 C   0  0  0  0  0  2  0  0  0  0  0  0
  -30.4750  -22.6810   18.4020 C   0  0  0  0  0  3  0  0  0  0  0  0
  -28.7840  -23.6590   19.9940 C   0  0  0  0  0  3  0  0  0  0  0  0
  -30.0640  -18.6660   20.4230 C   0  0  0  0  0  3  0  0  0  0  0  0
  -29.6590  -20.9410   20.2460 C   0  0  1  0  0  0  0  0  0  0  0  0
  -31.6950  -22.9610   17.5050 C   0  0  0  0  0  0  0  0  0  0  0  0
  -32.0420  -21.9210   16.4490 C   0  0  0  0  0  1  0  0  0  0  0  0
  -32.3920  -23.9720   17.6360 O   0  0  0  0  0  0  0  0  0  0  0  0
  -30.0490  -17.2340   21.1830 C   0  0  0  0  0  2  0  0  0  0  0  0
  -30.5850  -14.7630   20.3760 C   0  0  0  0  0  0  0  0  0  0  0  0
  -30.4120  -12.4940   19.3330 C   0  0  0  0  0  2  0  0  0  0  0  0
  -29.4590  -12.5500   18.1190 C   0  0  0  0  0  2  0  0  0  0  0  0
  -27.9930  -12.3650   18.5630 C   0  0  0  0  0  2  0  0  0  0  0  0
  -27.6170  -13.2550   19.7770 C   0  0  0  0  0  3  0  0  0  0  0  0
  -28.6860  -13.1680   20.8870 C   0  0  0  0  0  2  0  0  0  0  0  0
  -29.9700  -13.5380   20.2800 N   0  0  0  0  0  0  0  0  0  0  0  0
  -31.7890  -14.8790   20.1270 O   0  0  0  0  0  0  0  0  0  0  0  0
  -29.7750  -15.8710   20.5570 N   0  0  0  0  0  0  0  0  0  0  0  0
  -28.7950  -15.6360   20.5380 H   0  0  0  0  0  0  0  0  0  0  0  0
  -25.2320  -13.8340   20.5220 C   0  0  0  0  0  0  0  0  0  0  0  0
  -24.1730  -13.0550   20.8980 C   0  0  0  0  0  0  0  0  0  0  0  0
  -24.6440  -11.7060   20.8670 C   0  0  0  0  0  0  0  0  0  0  0  0
  -26.2790  -12.9610   20.2790 N   0  0  0  0  0  0  0  0  0  0  0  0
  -25.9340  -11.6760   20.5530 N   0  0  0  0  0  0  0  0  0  0  0  0
  -23.9260  -10.4400   21.0620 C   0  0  0  0  0  0  0  0  0  0  0  0
  -24.3670   -9.4760   21.9930 C   0  0  0  0  0  3  0  0  0  0  0  0
  -23.6490   -8.2740   22.1750 C   0  0  0  0  0  3  0  0  0  0  0  0
  -22.4740   -8.0300   21.4250 C   0  0  0  0  0  0  0  0  0  0  0  0
  -22.0530   -8.9850   20.4810 C   0  0  0  0  0  3  0  0  0  0  0  0
  -22.7730  -10.1770   20.2990 C   0  0  0  0  0  3  0  0  0  0  0  0
  -21.7270   -6.8800   21.5170 O   0  0  0  0  0  0  0  0  0  0  0  0
  -21.6940   -6.1330   22.6670 C   0  0  0  0  0  0  0  0  0  0  0  0
  -21.2650   -6.6780   23.8980 C   0  0  0  0  0  3  0  0  0  0  0  0
  -21.1800   -5.8570   25.0400 C   0  0  0  0  0  3  0  0  0  0  0  0
  -21.5120   -4.4920   24.9530 C   0  0  0  0  0  0  0  0  0  0  0  0
  -21.9320   -3.9460   23.7270 C   0  0  0  0  0  3  0  0  0  0  0  0
  -22.0200   -4.7650   22.5870 C   0  0  0  0  0  0  0  0  0  0  0  0
  -22.4060   -4.2290   21.4030 F   0  0  0  0  0  0  0  0  0  0  0  0
  -21.4210   -3.7010   26.0460 F   0  0  0  0  0  0  0  0  0  0  0  0
  -22.7720  -13.5260   21.1670 C   0  0  0  0  0  0  0  0  0  0  0  0
  -22.0460  -12.8270   22.0310 N   0  0  0  0  0  0  0  0  0  0  0  0
  -22.3300  -14.5480   20.6460 O   0  0  0  0  0  0  0  0  0  0  0  0
  -22.4180  -12.0010   22.4760 H   0  0  0  0  0  0  0  0  0  0  0  0
  -21.1070  -13.1260   22.2530 H   0  0  0  0  0  0  0  0  0  0  0  0
  -25.3830  -15.2060   20.3400 N   0  0  0  0  0  0  0  0  0  0  0  0
  -24.6010  -15.8410   20.4430 H   0  0  0  0  0  0  0  0  0  0  0  0
  -26.2080  -15.6520   19.9590 H   0  0  0  0  0  0  0  0  0  0  0  0
  -28.2500  -25.0090   20.7470 C   0  0  0  0  0  2  0  0  0  0  0  0
  -28.3630  -26.4090   20.1970 O   0  0  0  0  0  0  0  0  0  0  0  0
  -24.6180  -31.8780   23.2330 C   0  0  0  0  0  0  0  0  0  0  0  0
  -27.2450  -27.2770   20.2070 C   0  0  0  0  0  0  0  0  0  0  0  0
  -23.4210  -30.4780   21.5870 C   0  0  0  0  0  3  0  0  0  0  0  0
  -24.8800  -28.9140   20.1740 C   0  0  0  0  0  0  0  0  0  0  0  0
  -25.9640  -30.7840   21.4190 C   0  0  0  0  0  2  0  0  0  0  0  0
  -26.0490  -29.4000   20.7740 C   0  0  0  0  0  0  0  0  0  0  0  0
  -27.2360  -28.5980   20.7710 C   0  0  0  0  0  3  0  0  0  0  0  0
  -26.0520  -26.8470   19.5920 C   0  0  0  0  0  3  0  0  0  0  0  0
  -24.8860  -27.6430   19.5730 C   0  0  0  0  0  3  0  0  0  0  0  0
  -23.6440  -29.7970   20.2110 C   0  0  0  0  0  2  0  0  0  0  0  0
  -24.6870  -31.0680   22.1350 N   0  0  0  0  0  0  0  0  0  0  0  0
  -23.5310  -32.1570   23.7620 O   0  0  0  0  0  0  0  0  0  0  0  0
  -22.7510  -29.4650   22.5480 C   0  0  0  0  0  0  0  0  0  0  0  0
  -21.4240  -29.2910   22.4220 N   0  0  0  0  0  0  0  0  0  0  0  0
  -23.4280  -28.8390   23.3690 O   0  0  0  0  0  0  0  0  0  0  0  0
  -20.9350  -29.8490   21.7360 H   0  0  0  0  0  0  0  0  0  0  0  0
  -18.0450  -28.1080   22.9400 C   0  0  0  0  0  0  0  0  0  0  0  0
  -20.6050  -28.3550   23.1950 C   0  0  0  0  0  3  0  0  0  0  0  0
  -20.6970  -26.9250   22.6140 C   0  0  0  0  0  2  0  0  0  0  0  0
  -19.5880  -26.6130   21.6040 C   0  0  0  0  0  2  0  0  0  0  0  0
  -18.2110  -26.7620   22.2570 C   0  0  0  0  0  2  0  0  0  0  0  0
  -19.1700  -28.8630   23.3670 C   0  0  0  0  0  0  0  0  0  0  0  0
  -18.9590  -30.1230   23.9680 C   0  0  0  0  0  3  0  0  0  0  0  0
  -17.6570  -30.6290   24.1430 C   0  0  0  0  0  3  0  0  0  0  0  0
  -16.5480  -29.8710   23.7300 C   0  0  0  0  0  3  0  0  0  0  0  0
  -16.7420  -28.6120   23.1360 C   0  0  0  0  0  3  0  0  0  0  0  0
  -25.8980  -32.5130   23.8600 C   0  0  0  0  0  3  0  0  0  0  0  0
  -26.4080  -31.7460   25.1420 C   0  0  1  0  0  0  0  0  0  0  0  0
  -25.3100  -31.5150   26.2070 C   0  0  0  0  0  1  0  0  0  0  0  0
  -26.9920  -30.3660   24.7640 C   0  0  0  0  0  1  0  0  0  0  0  0
  -27.5550  -32.5440   25.8070 C   0  0  0  0  0  1  0  0  0  0  0  0
  -25.5840  -33.9100   24.1880 N   0  0  0  0  0  0  0  0  0  0  0  0
  -25.9120  -34.9640   23.4280 C   0  0  0  0  0  0  0  0  0  0  0  0
  -26.5800  -34.8620   22.3950 O   0  0  0  0  0  0  0  0  0  0  0  0
  -24.9900  -34.0640   24.9910 H   0  0  0  0  0  0  0  0  0  0  0  0
  -24.1800  -36.7560   23.0810 C   0  0  0  0  0  1  0  0  0  0  0  0
  -25.4240  -36.3530   23.8870 C   0  0  0  0  0  3  0  0  0  0  0  0
  -27.5590  -37.2450   24.7110 C   0  0  0  0  0  1  0  0  0  0  0  0
  -26.4550  -37.4080   23.7690 N   0  0  0  0  0  0  0  0  0  0  0  0
  -26.0470  -38.3260   23.9170 H   0  0  0  0  0  0  0  0  0  0  0  0
  1  7  1  0
  9  4  1  6
  4  8  1  0
  6 10  1  0
  6  2  1  0
  6  1  1  0
  7 52  1  0
  7  3  1  0
  8 13  1  0
  8  5  1  0
  9  2  1  0
  9  3  1  0
  9  5  1  0
 10 12  2  0
 11 10  1  0
 14 22  1  0
 15 20  1  0
 16 17  1  0
 16 15  1  0
 18 17  1  0
 18 27  1  0
 18 19  1  0
 20 14  1  0
 20 19  1  0
 21 14  2  0
 22 13  1  0
 23 22  1  0
 24 25  2  0
 25 44  1  0
 26 25  1  0
 26 29  1  0
 27 24  1  0
 27 28  1  0
 28 26  2  0
 29 30  1  0
 30 31  2  0
 32 35  1  0
 32 31  1  0
 33 32  2  0
 34 33  1  0
 34 29  2  0
 35 36  1  0
 36 37  1  0
 37 38  2  0
 39 38  1  0
 39 43  1  0
 40 39  2  0
 41 36  2  0
 41 40  1  0
 42 41  1  0
 44 45  1  0
 45 48  1  0
 45 47  1  0
 46 44  2  0
 49 50  1  0
 49 24  1  0
 51 49  1  0
 53 55  1  0
 53 52  1  0
 54 65  2  0
 55 60  1  0
 56 64  1  0
 56 66  1  0
 57 63  1  0
 57 59  1  0
 58 64  1  0
 59 58  1  0
 60 59  2  0
 61 55  2  0
 62 61  1  0
 62 57  2  0
 63 56  1  0
 64 54  1  0
 66 68  2  0
 67 66  1  0
 69 67  1  0
 70 79  2  0
 70 75  1  0
 71 67  1  0
 71 75  1  0
 72 71  1  0
 73 74  1  0
 73 72  1  0
 74 70  1  0
 75 76  2  0
 76 77  1  0
 78 77  2  0
 79 78  1  0
 80 54  1  0
 80 85  1  0
 80 81  1  0
 81 84  1  1
 81 82  1  0
 83 81  1  0
 85 88  1  0
 86 90  1  0
 86 85  1  0
 87 86  2  0
 90 89  1  0
 92 90  1  0
 92 93  1  0
 92 91  1  0
M  ISO  4  14 100  22 100  52 101  53 101
M  END
>  <TORSDO>  (12) 
F 19

>  <SCORE>  (12) 
-14.303

>  <name>  (12) 
11

>  <ligand_id>  (12) 
11

>  <original_smiles>  (12) 
[H]c1c([H])c([H])c2c(c1[H])C([H])([H])C([H])([H])C([H])([H])C2([H])N([H])C(=O)C1([H])N(C(=O)C([H])(N([H])C(=O)C([H])(N([H])C([H])([H])[H])C([H])([H])[H])C(C([H])([H])[H])(C([H])([H])[H])C([H])([H])[H])C([H])([H])c2c([H])c(OC([H])([H])C3([H])C([H])([H])C([H])(C(=O)C([H])([H])[H])C([H])([H])C4(C3([H])[H])C([H])([H])C([H])(C([H])([H])N([H])C(=O)N3C([H])([H])C([H])([H])C([H])([H])C([H])(n5nc(-c6c([H])c([H])c(Oc7c([H])c([H])c(F)c([H])c7F)c([H])c6[H])c(C(=O)N([H])[H])c5N([H])[H])C3([H])[H])C4([H])[H])c([H])c([H])c2C1([H])[H]

>  <smiles>  (12) 
[H]c1c([H])c([H])c2c(c1[H])C([H])([H])C([H])([H])C([H])([H])C2([H])N([H])C(=O)C1([H])N(C(=O)C([H])(N([H])C(=O)C([H])(N([H])C([H])([H])[H])C([H])([H])[H])C(C([H])([H])[H])(C([H])([H])[H])C([H])([H])[H])C([H])([H])c2c([H])c(OC([H])([H])C3([H])C([H])([H])C([H])(C(=O)C([H])([H])[H])C([H])([H])C4(C3([H])[H])C([H])([H])C([H])(C([H])([H])N([H])C(=O)N3C([H])([H])C([H])([H])C([H])([H])C([H])(n5nc(-c6c([H])c([H])c(Oc7c([H])c([H])c(F)c([H])c7F)c([H])c6[H])c(C(=O)N([H])[H])c5N([H])[H])C3([H])[H])C4([H])[H])c([H])c([H])c2C1([H])[H]

$$$$
12:0:0
     RDKit          3D

 90 95  0  0  1  0  0  0  0  0999 V2000
  -26.9360  -19.9990   20.4800 C   0  0  0  0  0  2  0  0  0  0  0  0
  -28.1490  -20.5220   20.6750 C   0  0  0  0  0  3  0  0  0  0  0  0
  -29.0000  -19.0500   21.0210 C   0  0  0  0  0  2  0  0  0  0  0  0
  -27.7820  -20.6770   18.4380 C   0  0  0  0  0  2  0  0  0  0  0  0
  -27.7670  -17.8770   19.3580 C   0  0  0  0  0  2  0  0  0  0  0  0
  -27.0350  -19.3670   19.1400 C   0  0  0  0  0  3  0  0  0  0  0  0
  -28.4160  -21.7280   19.4390 C   0  0  0  0  0  3  0  0  0  0  0  0
  -28.3720  -17.4210   20.8210 C   0  0  0  0  0  2  0  0  0  0  0  0
  -27.7950  -23.5370   19.2410 C   0  0  0  0  0  2  0  0  0  0  0  0
  -28.2190  -25.2280   18.7760 O   0  0  0  0  0  0  0  0  0  0  0  0
  -25.1060  -31.1330   22.5470 C   0  0  0  0  0  0  0  0  0  0  0  0
  -27.3720  -26.5120   18.8290 C   0  0  0  0  0  0  0  0  0  0  0  0
  -23.8530  -29.9810   20.7820 C   0  0  0  0  0  3  0  0  0  0  0  0
  -25.2180  -28.6190   19.0500 C   0  0  0  0  0  0  0  0  0  0  0  0
  -26.4110  -30.1760   20.5560 C   0  0  0  0  0  2  0  0  0  0  0  0
  -26.4340  -28.8380   19.7060 C   0  0  0  0  0  0  0  0  0  0  0  0
  -27.5060  -27.8110   19.5610 C   0  0  0  0  0  3  0  0  0  0  0  0
  -26.1740  -26.5290   18.0890 C   0  0  0  0  0  3  0  0  0  0  0  0
  -25.1380  -27.5050   18.1920 C   0  0  0  0  0  3  0  0  0  0  0  0
  -24.0250  -29.5490   19.2930 C   0  0  0  0  0  2  0  0  0  0  0  0
  -25.1540  -30.4510   21.3520 N   0  0  0  0  0  0  0  0  0  0  0  0
  -24.0390  -31.3300   23.1630 O   0  0  0  0  0  0  0  0  0  0  0  0
  -23.2130  -28.8310   21.6120 C   0  0  0  0  0  0  0  0  0  0  0  0
  -21.8770  -28.6660   21.5400 N   0  0  0  0  0  0  0  0  0  0  0  0
  -23.9390  -28.0880   22.2770 O   0  0  0  0  0  0  0  0  0  0  0  0
  -21.3430  -29.3280   20.9930 H   0  0  0  0  0  0  0  0  0  0  0  0
  -18.5550  -27.3220   22.0730 C   0  0  0  0  0  0  0  0  0  0  0  0
  -21.1220  -27.6060   22.2110 C   0  0  0  0  0  3  0  0  0  0  0  0
  -21.2090  -26.2850   21.4150 C   0  0  0  0  0  2  0  0  0  0  0  0
  -20.0470  -26.0970   20.4310 C   0  0  0  0  0  2  0  0  0  0  0  0
  -18.7060  -26.1030   21.1750 C   0  0  0  0  0  2  0  0  0  0  0  0
  -19.6900  -28.0340   22.5460 C   0  0  0  0  0  0  0  0  0  0  0  0
  -19.4920  -29.1740   23.3530 C   0  0  0  0  0  3  0  0  0  0  0  0
  -18.1930  -29.6070   23.6850 C   0  0  0  0  0  3  0  0  0  0  0  0
  -17.0760  -28.8890   23.2270 C   0  0  0  0  0  3  0  0  0  0  0  0
  -17.2570  -27.7480   22.4260 C   0  0  0  0  0  3  0  0  0  0  0  0
  -26.3990  -31.7080   23.2050 C   0  0  0  0  0  3  0  0  0  0  0  0
  -27.1000  -30.6870   24.1870 C   0  0  1  0  0  0  0  0  0  0  0  0
  -26.1480  -30.1030   25.2590 C   0  0  0  0  0  1  0  0  0  0  0  0
  -27.7160  -29.4960   23.4150 C   0  0  0  0  0  1  0  0  0  0  0  0
  -28.2730  -31.3820   24.9210 C   0  0  0  0  0  1  0  0  0  0  0  0
  -26.0390  -32.9370   23.9370 N   0  0  0  0  0  0  0  0  0  0  0  0
  -26.2670  -34.1830   23.5050 C   0  0  0  0  0  0  0  0  0  0  0  0
  -26.8690  -34.4250   22.4570 O   0  0  0  0  0  0  0  0  0  0  0  0
  -25.4940  -32.8240   24.7810 H   0  0  0  0  0  0  0  0  0  0  0  0
  -24.4460  -35.9030   23.7750 C   0  0  0  0  0  1  0  0  0  0  0  0
  -25.7500  -35.3510   24.3720 C   0  0  0  0  0  3  0  0  0  0  0  0
  -27.8860  -36.0820   25.3390 C   0  0  0  0  0  1  0  0  0  0  0  0
  -26.7260  -36.4520   24.5310 N   0  0  0  0  0  0  0  0  0  0  0  0
  -26.2900  -37.2630   24.9620 H   0  0  0  0  0  0  0  0  0  0  0  0
  -29.1430  -15.6440   21.2660 C   0  0  0  0  0  1  0  0  0  0  0  0
  -29.6830  -13.9690   20.5910 C   0  0  0  0  0  1  0  0  0  0  0  0
  -32.0220  -14.2240   18.3730 C   0  0  0  0  0  0  0  0  0  0  0  0
  -31.2720  -12.0020   19.6880 C   0  0  0  0  0  1  0  0  0  0  0  0
  -29.9970  -11.4150   18.6410 C   0  0  0  0  0  2  0  0  0  0  0  0
  -28.8150  -12.4240   17.8600 C   0  0  0  0  0  2  0  0  0  0  0  0
  -28.2580  -13.8370   18.4870 C   0  0  0  0  0  3  0  0  0  0  0  0
  -29.4790  -15.2100   18.6090 C   0  0  0  0  0  1  0  0  0  0  0  0
  -31.2370  -13.9970   19.1690 N   0  0  0  0  0  0  0  0  0  0  0  0
  -33.0730  -14.4800   17.8470 O   0  0  0  0  0  0  0  0  0  0  0  0
  -30.9070  -13.7120   18.5460 N   0  0  0  0  0  2  0  0  0  0  0  0
  -30.4450  -13.4180   17.7290 H   0  0  0  0  0  0  0  0  0  0  0  0
  -26.3360  -14.1740   20.1090 C   0  0  0  0  0  0  0  0  0  0  0  0
  -25.3770  -13.3850   20.7120 C   0  0  0  0  0  0  0  0  0  0  0  0
  -25.6790  -11.9970   20.4280 C   0  0  0  0  0  0  0  0  0  0  0  0
  -27.2460  -13.3830   19.4860 N   0  0  0  0  0  0  0  0  0  0  0  0
  -26.8830  -12.0550   19.7130 N   0  0  0  0  0  0  0  0  0  0  0  0
  -24.8550  -10.7700   20.6640 C   0  0  0  0  0  0  0  0  0  0  0  0
  -25.2070   -9.8230   21.5870 C   0  0  0  0  0  3  0  0  0  0  0  0
  -24.4100   -8.6460   21.8510 C   0  0  0  0  0  3  0  0  0  0  0  0
  -23.1770   -8.4680   21.1530 C   0  0  0  0  0  0  0  0  0  0  0  0
  -22.7780   -9.4730   20.2570 C   0  0  0  0  0  3  0  0  0  0  0  0
  -23.6120  -10.6260   20.0400 C   0  0  0  0  0  3  0  0  0  0  0  0
  -22.3300   -7.4040   21.3020 O   0  0  0  0  0  0  0  0  0  0  0  0
  -22.1490   -6.7980   22.5090 C   0  0  0  0  0  0  0  0  0  0  0  0
  -21.7260   -7.4940   23.6760 C   0  0  0  0  0  3  0  0  0  0  0  0
  -21.4780   -6.7700   24.8580 C   0  0  0  0  0  3  0  0  0  0  0  0
  -21.6690   -5.3810   24.8780 C   0  0  0  0  0  0  0  0  0  0  0  0
  -22.0760   -4.6800   23.7310 C   0  0  0  0  0  3  0  0  0  0  0  0
  -22.3090   -5.3920   22.5370 C   0  0  0  0  0  0  0  0  0  0  0  0
  -22.6720   -4.7350   21.4260 F   0  0  0  0  0  0  0  0  0  0  0  0
  -21.4250   -4.6720   26.0390 F   0  0  0  0  0  0  0  0  0  0  0  0
  -24.0820  -13.9050   21.2590 C   0  0  0  0  0  0  0  0  0  0  0  0
  -23.4640  -13.2620   22.2330 N   0  0  0  0  0  0  0  0  0  0  0  0
  -23.6630  -14.9380   20.8470 O   0  0  0  0  0  0  0  0  0  0  0  0
  -23.8150  -12.3920   22.5830 H   0  0  0  0  0  0  0  0  0  0  0  0
  -22.6390  -13.6470   22.6640 H   0  0  0  0  0  0  0  0  0  0  0  0
  -26.4520  -15.5610   19.9580 N   0  0  0  0  0  0  0  0  0  0  0  0
  -27.3790  -15.8130   19.4830 H   0  0  0  0  0  0  0  0  0  0  0  0
  -25.6280  -16.2510   19.7090 H   0  0  0  0  0  0  0  0  0  0  0  0
  2  1  1  0
  2  3  1  0
  4  7  1  0
  5  8  1  0
  6  4  1  0
  6  5  1  0
  6  1  1  0
  7  9  1  0
  7  2  1  0
  8  3  1  0
 10 12  1  0
 10  9  1  0
 11 22  2  0
 12 17  1  0
 13 21  1  0
 13 23  1  0
 14 20  1  0
 14 16  1  0
 15 21  1  0
 16 15  1  0
 17 16  2  0
 18 19  1  0
 18 12  2  0
 19 14  2  0
 20 13  1  0
 21 11  1  0
 23 25  2  0
 24 23  1  0
 26 24  1  0
 27 36  2  0
 27 32  1  0
 28 24  1  0
 28 32  1  0
 29 28  1  0
 30 31  1  0
 30 29  1  0
 31 27  1  0
 32 33  2  0
 33 34  1  0
 35 34  2  0
 36 35  1  0
 37 11  1  0
 37 42  1  0
 37 38  1  0
 38 41  1  1
 38 39  1  0
 40 38  1  0
 42 45  1  0
 43 42  1  0
 43 47  1  0
 44 43  2  0
 47 46  1  0
 47 49  1  0
 49 50  1  0
 49 48  1  0
 52 51  1  0
 53 59  2  0
 55 54  1  0
 56 57  1  0
 56 55  1  0
 57 58  1  0
 57 66  1  0
 60 53  2  0
 61 59  1  0
 62 61  1  0
 63 64  2  0
 64 83  1  0
 65 68  1  0
 65 64  1  0
 66 67  1  0
 66 63  1  0
 67 65  2  0
 68 69  1  0
 69 70  2  0
 71 74  1  0
 71 70  1  0
 72 71  2  0
 73 72  1  0
 73 68  2  0
 74 75  1  0
 75 80  2  0
 75 76  1  0
 76 77  2  0
 77 78  1  0
 78 82  1  0
 79 78  2  0
 80 79  1  0
 81 80  1  0
 83 84  1  0
 84 86  1  0
 84 87  1  0
 85 83  2  0
 88 63  1  0
 89 88  1  0
 90 88  1  0
M  ISO  4   9 101  10 101  53 100  61 100
M  END
>  <TORSDO>  (13) 
F 19

>  <SCORE>  (13) 
-9.704

>  <name>  (13) 
12

>  <ligand_id>  (13) 
12

>  <original_smiles>  (13) 
[H]C1=C2C([H])([H])C([H])(C([H])([H])C([H])([H])N([H])C(=O)N3C([H])([H])C([H])([H])C([H])([H])C([H])(n4nc(-c5c([H])c([H])c(Oc6c([H])c([H])c(F)c([H])c6F)c([H])c5[H])c(C(=O)N([H])[H])c4N([H])[H])C3([H])[H])C([H])([H])C1([H])C([H])([H])C2([H])C([H])([H])Oc1c([H])c([H])c2c(c1[H])C([H])([H])N(C(=O)C([H])(N([H])C(=O)C([H])(N([H])C([H])([H])[H])C([H])([H])[H])C(C([H])([H])[H])(C([H])([H])[H])C([H])([H])[H])C([H])(C(=O)N([H])C1([H])c3c([H])c([H])c([H])c([H])c3C([H])([H])C([H])([H])C1([H])[H])C2([H])[H]

>  <smiles>  (13) 
[H]C1=C2C([H])([H])C([H])(C([H])([H])C([H])([H])N([H])C(=O)N3C([H])([H])C([H])([H])C([H])([H])C([H])(n4nc(-c5c([H])c([H])c(Oc6c([H])c([H])c(F)c([H])c6F)c([H])c5[H])c(C(=O)N([H])[H])c4N([H])[H])C3([H])[H])C([H])([H])C1([H])C([H])([H])C2([H])C([H])([H])Oc1c([H])c([H])c2c(c1[H])C([H])([H])N(C(=O)C([H])(N([H])C(=O)C([H])(N([H])C([H])([H])[H])C([H])([H])[H])C(C([H])([H])[H])(C([H])([H])[H])C([H])([H])[H])C([H])(C(=O)N([H])C1([H])c3c([H])c([H])c([H])c([H])c3C([H])([H])C([H])([H])C1([H])[H])C2([H])[H]

$$$$
13:0:0
     RDKit          3D

 91100  0  0  1  0  0  0  0  0999 V2000
  -30.1490  -21.7600   19.6120 C   0  0  0  0  0  2  0  0  0  0  0  0
  -30.4180  -23.7090   21.4260 C   0  0  0  0  0  2  0  0  0  0  0  0
  -28.4110  -22.2480   22.2520 C   0  0  0  0  0  2  0  0  0  0  0  0
  -29.8460  -23.3310   20.0340 C   0  0  0  0  0  3  0  0  0  0  0  0
  -28.2430  -22.0410   20.7050 C   0  0  0  0  0  3  0  0  0  0  0  0
  -29.3790  -20.6270   20.4180 C   0  0  0  0  0  3  0  0  0  0  0  0
  -28.3270  -23.7830   20.0390 C   0  0  0  0  0  3  0  0  0  0  0  0
  -29.7540  -22.9830   22.6530 C   0  0  2  0  0  0  0  0  0  0  0  0
  -29.4380  -24.0230   23.7580 C   0  0  0  0  0  1  0  0  0  0  0  0
  -30.7730  -21.9960   23.2700 C   0  0  0  0  0  3  0  0  0  0  0  0
  -30.5320  -21.3860   24.3160 O   0  0  0  0  0  0  0  0  0  0  0  0
  -28.2440  -25.5460   20.2440 O   0  0  0  0  0  0  0  0  0  0  0  0
  -24.7160  -31.8110   23.1500 C   0  0  0  0  0  0  0  0  0  0  0  0
  -27.2340  -26.7270   20.1650 C   0  0  0  0  0  0  0  0  0  0  0  0
  -23.5190  -30.4030   21.5270 C   0  0  0  0  0  3  0  0  0  0  0  0
  -24.9580  -28.7500   20.1100 C   0  0  0  0  0  0  0  0  0  0  0  0
  -26.0940  -30.5480   21.3890 C   0  0  0  0  0  2  0  0  0  0  0  0
  -26.1530  -29.1130   20.7390 C   0  0  0  0  0  0  0  0  0  0  0  0
  -27.2720  -28.1300   20.7340 C   0  0  0  0  0  3  0  0  0  0  0  0
  -26.0020  -26.5680   19.4780 C   0  0  0  0  0  3  0  0  0  0  0  0
  -24.9210  -27.5040   19.4570 C   0  0  0  0  0  3  0  0  0  0  0  0
  -23.7490  -29.7010   20.1580 C   0  0  0  0  0  2  0  0  0  0  0  0
  -24.7990  -30.9540   22.0740 N   0  0  0  0  0  0  0  0  0  0  0  0
  -23.6280  -32.1120   23.6660 O   0  0  0  0  0  0  0  0  0  0  0  0
  -22.8100  -29.4320   22.5090 C   0  0  0  0  0  0  0  0  0  0  0  0
  -21.4760  -29.2810   22.3990 N   0  0  0  0  0  0  0  0  0  0  0  0
  -23.4740  -28.8090   23.3420 O   0  0  0  0  0  0  0  0  0  0  0  0
  -20.9890  -29.8330   21.7060 H   0  0  0  0  0  0  0  0  0  0  0  0
  -18.0940  -28.0730   22.9520 C   0  0  0  0  0  0  0  0  0  0  0  0
  -20.6570  -28.3490   23.1850 C   0  0  0  0  0  3  0  0  0  0  0  0
  -20.7550  -26.9130   22.6220 C   0  0  0  0  0  2  0  0  0  0  0  0
  -19.6450  -26.5830   21.6190 C   0  0  0  0  0  2  0  0  0  0  0  0
  -18.2700  -26.7250   22.2750 C   0  0  0  0  0  2  0  0  0  0  0  0
  -19.2140  -28.8420   23.3650 C   0  0  0  0  0  0  0  0  0  0  0  0
  -18.9940  -30.1030   23.9640 C   0  0  0  0  0  3  0  0  0  0  0  0
  -17.6880  -30.5920   24.1530 C   0  0  0  0  0  3  0  0  0  0  0  0
  -16.5820  -29.8220   23.7520 C   0  0  0  0  0  3  0  0  0  0  0  0
  -16.7870  -28.5640   23.1570 C   0  0  0  0  0  3  0  0  0  0  0  0
  -25.9840  -32.4650   23.7770 C   0  0  0  0  0  3  0  0  0  0  0  0
  -25.6550  -33.8610   24.1330 N   0  0  0  0  0  0  0  0  0  0  0  0
  -25.9540  -34.9400   23.3980 C   0  0  0  0  0  0  0  0  0  0  0  0
  -26.5950  -34.8690   22.3470 O   0  0  0  0  0  0  0  0  0  0  0  0
  -25.0810  -33.9880   24.9530 H   0  0  0  0  0  0  0  0  0  0  0  0
  -24.1890  -36.7260   23.1570 C   0  0  0  0  0  1  0  0  0  0  0  0
  -25.4690  -36.3170   23.9040 C   0  0  0  0  0  3  0  0  0  0  0  0
  -27.6230  -37.2250   24.6620 C   0  0  0  0  0  1  0  0  0  0  0  0
  -26.4810  -37.3890   23.7670 N   0  0  0  0  0  0  0  0  0  0  0  0
  -26.0680  -38.3010   23.9480 H   0  0  0  0  0  0  0  0  0  0  0  0
  -26.5120  -31.6970   25.0550 C   0  0  1  0  0  0  0  0  0  0  0  0
  -25.4240  -31.4610   26.1290 C   0  0  0  0  0  1  0  0  0  0  0  0
  -27.0970  -30.3200   24.6740 C   0  0  0  0  0  1  0  0  0  0  0  0
  -27.6600  -32.4980   25.7110 C   0  0  0  0  0  1  0  0  0  0  0  0
  -29.6050  -18.7580   19.8800 C   0  0  0  0  0  2  0  0  0  0  0  0
  -30.3110  -15.6590   20.2670 C   0  0  0  0  0  0  0  0  0  0  0  0
  -30.3910  -13.0950   19.5100 C   0  0  0  0  0  2  0  0  0  0  0  0
  -29.5310  -12.7170   18.2700 C   0  0  0  0  0  2  0  0  0  0  0  0
  -28.0830  -12.4010   18.6740 C   0  0  0  0  0  2  0  0  0  0  0  0
  -27.5710  -13.3880   19.7470 C   0  0  0  0  0  3  0  0  0  0  0  0
  -28.5820  -13.6870   20.8810 C   0  0  0  0  0  2  0  0  0  0  0  0
  -29.7810  -14.2930   20.2540 N   0  0  0  0  0  0  0  0  0  0  0  0
  -31.5270  -15.5870   20.0150 O   0  0  0  0  0  0  0  0  0  0  0  0
  -29.5790  -17.0390   20.3820 N   0  0  0  0  0  0  0  0  0  0  0  0
  -28.6470  -16.8290   20.7080 H   0  0  0  0  0  0  0  0  0  0  0  0
  -25.1930  -13.9220   20.4580 C   0  0  0  0  0  0  0  0  0  0  0  0
  -24.1290  -13.1480   20.8200 C   0  0  0  0  0  0  0  0  0  0  0  0
  -24.6000  -11.7990   20.8130 C   0  0  0  0  0  0  0  0  0  0  0  0
  -26.2440  -13.0510   20.2440 N   0  0  0  0  0  0  0  0  0  0  0  0
  -25.9010  -11.7640   20.5250 N   0  0  0  0  0  0  0  0  0  0  0  0
  -23.8660  -10.5410   21.0080 C   0  0  0  0  0  0  0  0  0  0  0  0
  -24.2820   -9.5780   21.9550 C   0  0  0  0  0  3  0  0  0  0  0  0
  -23.5450   -8.3880   22.1410 C   0  0  0  0  0  3  0  0  0  0  0  0
  -22.3740   -8.1520   21.3800 C   0  0  0  0  0  0  0  0  0  0  0  0
  -21.9800   -9.1000   20.4190 C   0  0  0  0  0  3  0  0  0  0  0  0
  -22.7180  -10.2810   20.2330 C   0  0  0  0  0  3  0  0  0  0  0  0
  -21.6140   -7.0090   21.4660 O   0  0  0  0  0  0  0  0  0  0  0  0
  -21.5560   -6.2710   22.6210 C   0  0  0  0  0  0  0  0  0  0  0  0
  -21.1310   -6.8310   23.8450 C   0  0  0  0  0  3  0  0  0  0  0  0
  -21.0230   -6.0200   24.9930 C   0  0  0  0  0  3  0  0  0  0  0  0
  -21.3270   -4.6480   24.9150 C   0  0  0  0  0  0  0  0  0  0  0  0
  -21.7420   -4.0850   23.6940 C   0  0  0  0  0  3  0  0  0  0  0  0
  -21.8550   -4.8940   22.5510 C   0  0  0  0  0  0  0  0  0  0  0  0
  -22.2350   -4.3430   21.3750 F   0  0  0  0  0  0  0  0  0  0  0  0
  -21.2180   -3.8660   26.0140 F   0  0  0  0  0  0  0  0  0  0  0  0
  -22.7260  -13.6290   21.0550 C   0  0  0  0  0  0  0  0  0  0  0  0
  -21.9820  -12.9500   21.9190 N   0  0  0  0  0  0  0  0  0  0  0  0
  -22.3010  -14.6430   20.5070 O   0  0  0  0  0  0  0  0  0  0  0  0
  -22.3400  -12.1280   22.3840 H   0  0  0  0  0  0  0  0  0  0  0  0
  -21.0390  -13.2550   22.1120 H   0  0  0  0  0  0  0  0  0  0  0  0
  -25.3540  -15.2920   20.2610 N   0  0  0  0  0  0  0  0  0  0  0  0
  -24.5820  -15.9440   20.3380 H   0  0  0  0  0  0  0  0  0  0  0  0
  -26.2030  -15.7190   19.9160 H   0  0  0  0  0  0  0  0  0  0  0  0
  1  6  1  0
  2  8  1  0
  3  8  1  0
  4  1  1  0
  4  7  1  0
  4  2  1  0
  5  3  1  0
  6 53  1  0
  6  5  1  0
  7 12  1  0
  7  5  1  0
  8 10  1  0
  8  9  1  1
 10 11  2  0
 13 24  2  0
 14 12  1  0
 14 19  1  0
 15 23  1  0
 15 25  1  0
 16 22  1  0
 16 18  1  0
 17 23  1  0
 18 17  1  0
 19 18  2  0
 20 14  2  0
 21 20  1  0
 21 16  2  0
 22 15  1  0
 23 13  1  0
 25 27  2  0
 26 25  1  0
 28 26  1  0
 29 38  2  0
 29 34  1  0
 30 26  1  0
 30 34  1  0
 31 30  1  0
 32 33  1  0
 32 31  1  0
 33 29  1  0
 34 35  2  0
 35 36  1  0
 37 36  2  0
 38 37  1  0
 39 13  1  0
 39 40  1  0
 39 49  1  0
 40 43  1  0
 41 45  1  0
 41 40  1  0
 42 41  2  0
 45 44  1  0
 47 45  1  0
 47 48  1  0
 47 46  1  0
 49 52  1  1
 49 50  1  0
 51 49  1  0
 53 62  1  0
 54 62  1  0
 55 60  1  0
 56 57  1  0
 56 55  1  0
 58 57  1  0
 58 67  1  0
 58 59  1  0
 60 54  1  0
 60 59  1  0
 61 54  2  0
 62 63  1  0
 64 65  2  0
 65 84  1  0
 66 65  1  0
 66 69  1  0
 67 64  1  0
 67 68  1  0
 68 66  2  0
 69 70  1  0
 70 71  2  0
 72 75  1  0
 72 71  1  0
 73 72  2  0
 74 73  1  0
 74 69  2  0
 75 76  1  0
 76 77  1  0
 77 78  2  0
 79 78  1  0
 79 83  1  0
 80 79  2  0
 81 76  2  0
 81 80  1  0
 82 81  1  0
 84 85  1  0
 85 88  1  0
 85 87  1  0
 86 84  2  0
 89 90  1  0
 89 64  1  0
 91 89  1  0
M  ISO  4   7 101  12 101  54 100  62 100
M  END
>  <TORSDO>  (14) 
F 18

>  <SCORE>  (14) 
-16.066

>  <name>  (14) 
13

>  <ligand_id>  (14) 
13

>  <original_smiles>  (14) 
[H]C(=O)C1(C([H])([H])[H])C([H])([H])C2([H])C([H])([H])C([H])(C([H])([H])N([H])C(=O)N3C([H])([H])C([H])([H])C([H])([H])C([H])(n4nc(-c5c([H])c([H])c(Oc6c([H])c([H])c(F)c([H])c6F)c([H])c5[H])c(C(=O)N([H])[H])c4N([H])[H])C3([H])[H])C([H])(C1([H])[H])C2([H])Oc1c([H])c([H])c2c(c1[H])C([H])([H])N(C(=O)C([H])(N([H])C(=O)C([H])(N([H])C([H])([H])[H])C([H])([H])[H])C(C([H])([H])[H])(C([H])([H])[H])C([H])([H])[H])C([H])(C(=O)N([H])C1([H])c3c([H])c([H])c([H])c([H])c3C([H])([H])C([H])([H])C1([H])[H])C2([H])[H]

>  <smiles>  (14) 
[H]C(=O)C1(C([H])([H])[H])C([H])([H])C2([H])C([H])([H])C([H])(C([H])([H])N([H])C(=O)N3C([H])([H])C([H])([H])C([H])([H])C([H])(n4nc(-c5c([H])c([H])c(Oc6c([H])c([H])c(F)c([H])c6F)c([H])c5[H])c(C(=O)N([H])[H])c4N([H])[H])C3([H])[H])C([H])(C1([H])[H])C2([H])Oc1c([H])c([H])c2c(c1[H])C([H])([H])N(C(=O)C([H])(N([H])C(=O)C([H])(N([H])C([H])([H])[H])C([H])([H])[H])C(C([H])([H])[H])(C([H])([H])[H])C([H])([H])[H])C([H])(C(=O)N([H])C1([H])c3c([H])c([H])c([H])c([H])c3C([H])([H])C([H])([H])C1([H])[H])C2([H])[H]

$$$$
14:0:0
     RDKit          3D

 91 99  0  0  1  0  0  0  0  0999 V2000
  -30.4650  -21.4460   19.1120 C   0  0  0  0  0  2  0  0  0  0  0  0
  -28.9580  -19.6010   18.4330 C   0  0  0  0  0  2  0  0  0  0  0  0
  -29.3910  -21.3520   20.2220 C   0  0  0  0  0  3  0  0  0  0  0  0
  -29.0750  -19.6030   19.9650 C   0  0  0  0  0  3  0  0  0  0  0  0
  -30.0010  -20.6100   17.8780 C   0  0  1  0  0  0  0  0  0  0  0  0
  -29.3650  -21.4890   16.7710 C   0  0  0  0  0  1  0  0  0  0  0  0
  -31.2040  -19.8790   17.2350 C   0  0  0  0  0  1  0  0  0  0  0  0
  -28.4160  -22.8100   20.0530 C   0  0  0  0  0  0  0  0  0  0  0  0
  -27.4510  -22.6960   19.2940 O   0  0  0  0  0  0  0  0  0  0  0  0
  -28.5260  -24.3790   20.8120 C   0  0  0  0  0  2  0  0  0  0  0  0
  -28.3940  -25.9070   20.2160 O   0  0  0  0  0  0  0  0  0  0  0  0
  -24.7030  -31.8190   23.2320 C   0  0  0  0  0  0  0  0  0  0  0  0
  -27.3300  -26.9370   20.3090 C   0  0  0  0  0  0  0  0  0  0  0  0
  -23.5390  -30.4000   21.5900 C   0  0  0  0  0  3  0  0  0  0  0  0
  -25.0160  -28.7840   20.2120 C   0  0  0  0  0  0  0  0  0  0  0  0
  -26.1040  -30.6270   21.4790 C   0  0  0  0  0  2  0  0  0  0  0  0
  -26.1920  -29.2090   20.8440 C   0  0  0  0  0  0  0  0  0  0  0  0
  -27.3520  -28.3130   20.8550 C   0  0  0  0  0  3  0  0  0  0  0  0
  -26.1160  -26.6510   19.6450 C   0  0  0  0  0  3  0  0  0  0  0  0
  -24.9970  -27.5250   19.5920 C   0  0  0  0  0  3  0  0  0  0  0  0
  -23.7950  -29.7050   20.2240 C   0  0  0  0  0  2  0  0  0  0  0  0
  -24.8010  -30.9740   22.1550 N   0  0  0  0  0  0  0  0  0  0  0  0
  -23.6050  -32.1130   23.7300 O   0  0  0  0  0  0  0  0  0  0  0  0
  -22.8310  -29.4090   22.5510 C   0  0  0  0  0  0  0  0  0  0  0  0
  -21.4990  -29.2600   22.4210 N   0  0  0  0  0  0  0  0  0  0  0  0
  -23.4850  -28.7740   23.3820 O   0  0  0  0  0  0  0  0  0  0  0  0
  -21.0250  -29.8330   21.7350 H   0  0  0  0  0  0  0  0  0  0  0  0
  -18.0940  -28.0910   22.9120 C   0  0  0  0  0  0  0  0  0  0  0  0
  -20.6560  -28.3300   23.1820 C   0  0  0  0  0  3  0  0  0  0  0  0
  -20.7440  -26.8950   22.6030 C   0  0  0  0  0  2  0  0  0  0  0  0
  -19.6420  -26.5870   21.5850 C   0  0  0  0  0  2  0  0  0  0  0  0
  -18.2590  -26.7430   22.2260 C   0  0  0  0  0  2  0  0  0  0  0  0
  -19.2190  -28.8430   23.3430 C   0  0  0  0  0  0  0  0  0  0  0  0
  -19.0110  -30.1030   23.9430 C   0  0  0  0  0  3  0  0  0  0  0  0
  -17.7110  -30.6140   24.1110 C   0  0  0  0  0  3  0  0  0  0  0  0
  -16.6010  -29.8580   23.6980 C   0  0  0  0  0  3  0  0  0  0  0  0
  -16.7920  -28.5980   23.1030 C   0  0  0  0  0  3  0  0  0  0  0  0
  -25.9640  -32.4680   23.8810 C   0  0  0  0  0  3  0  0  0  0  0  0
  -26.4470  -31.7190   25.1860 C   0  0  1  0  0  0  0  0  0  0  0  0
  -25.3250  -31.4950   26.2300 C   0  0  0  0  0  1  0  0  0  0  0  0
  -27.0390  -30.3330   24.8430 C   0  0  0  0  0  1  0  0  0  0  0  0
  -27.5860  -32.5210   25.8570 C   0  0  0  0  0  1  0  0  0  0  0  0
  -25.6430  -33.8740   24.1920 N   0  0  0  0  0  0  0  0  0  0  0  0
  -25.9840  -34.9250   23.4340 C   0  0  0  0  0  0  0  0  0  0  0  0
  -26.6630  -34.8120   22.4110 O   0  0  0  0  0  0  0  0  0  0  0  0
  -25.0390  -34.0320   24.9870 H   0  0  0  0  0  0  0  0  0  0  0  0
  -24.2620  -36.7210   23.0500 C   0  0  0  0  0  1  0  0  0  0  0  0
  -25.4950  -36.3200   23.8750 C   0  0  0  0  0  3  0  0  0  0  0  0
  -27.6250  -37.2080   24.7170 C   0  0  0  0  0  1  0  0  0  0  0  0
  -26.5330  -37.3680   23.7610 N   0  0  0  0  0  0  0  0  0  0  0  0
  -26.1330  -38.2930   23.8950 H   0  0  0  0  0  0  0  0  0  0  0  0
  -30.4120  -18.2780   21.8600 C   0  0  0  0  0  1  0  0  0  0  0  0
  -30.0320  -18.1360   20.3760 C   0  0  0  0  0  3  0  0  0  0  0  0
  -30.4750  -15.2350   20.0750 C   0  0  0  0  0  0  0  0  0  0  0  0
  -30.4020  -12.8110   19.1580 C   0  0  0  0  0  2  0  0  0  0  0  0
  -29.4400  -12.6000   17.9640 C   0  0  0  0  0  2  0  0  0  0  0  0
  -28.0110  -12.3260   18.4600 C   0  0  0  0  0  2  0  0  0  0  0  0
  -27.5910  -13.2910   19.5940 C   0  0  0  0  0  3  0  0  0  0  0  0
  -28.6750  -13.4500   20.6800 C   0  0  0  0  0  2  0  0  0  0  0  0
  -29.8830  -13.9460   20.0000 N   0  0  0  0  0  0  0  0  0  0  0  0
  -31.6990  -15.2170   19.8870 O   0  0  0  0  0  0  0  0  0  0  0  0
  -29.7250  -16.5110   20.1580 N   0  0  0  0  0  0  0  0  0  0  0  0
  -28.7330  -16.3350   20.1180 H   0  0  0  0  0  0  0  0  0  0  0  0
  -25.2450  -13.8360   20.4360 C   0  0  0  0  0  0  0  0  0  0  0  0
  -24.1980  -13.0500   20.8300 C   0  0  0  0  0  0  0  0  0  0  0  0
  -24.6680  -11.7040   20.7710 C   0  0  0  0  0  0  0  0  0  0  0  0
  -26.2810  -12.9670   20.1490 N   0  0  0  0  0  0  0  0  0  0  0  0
  -25.9500  -11.6780   20.4240 N   0  0  0  0  0  0  0  0  0  0  0  0
  -23.9490  -10.4370   20.9710 C   0  0  0  0  0  0  0  0  0  0  0  0
  -24.3950   -9.4720   21.9000 C   0  0  0  0  0  3  0  0  0  0  0  0
  -23.6740   -8.2730   22.0880 C   0  0  0  0  0  3  0  0  0  0  0  0
  -22.4930   -8.0310   21.3510 C   0  0  0  0  0  0  0  0  0  0  0  0
  -22.0650   -8.9840   20.4100 C   0  0  0  0  0  3  0  0  0  0  0  0
  -22.7870  -10.1750   20.2190 C   0  0  0  0  0  3  0  0  0  0  0  0
  -21.7430   -6.8830   21.4510 O   0  0  0  0  0  0  0  0  0  0  0  0
  -21.6990   -6.1490   22.6080 C   0  0  0  0  0  0  0  0  0  0  0  0
  -21.2510   -6.7060   23.8250 C   0  0  0  0  0  3  0  0  0  0  0  0
  -21.1550   -5.9010   24.9770 C   0  0  0  0  0  3  0  0  0  0  0  0
  -21.4970   -4.5350   24.9120 C   0  0  0  0  0  0  0  0  0  0  0  0
  -21.9370   -3.9770   23.7000 C   0  0  0  0  0  3  0  0  0  0  0  0
  -22.0360   -4.7820   22.5510 C   0  0  0  0  0  0  0  0  0  0  0  0
  -22.4410   -4.2340   21.3800 F   0  0  0  0  0  0  0  0  0  0  0  0
  -21.3970   -3.7570   26.0160 F   0  0  0  0  0  0  0  0  0  0  0  0
  -22.8070  -13.5220   21.1390 C   0  0  0  0  0  0  0  0  0  0  0  0
  -22.1010  -12.8170   22.0170 N   0  0  0  0  0  0  0  0  0  0  0  0
  -22.3550  -14.5510   20.6380 O   0  0  0  0  0  0  0  0  0  0  0  0
  -22.4820  -11.9870   22.4480 H   0  0  0  0  0  0  0  0  0  0  0  0
  -21.1690  -13.1150   22.2650 H   0  0  0  0  0  0  0  0  0  0  0  0
  -25.3910  -15.2100   20.2680 N   0  0  0  0  0  0  0  0  0  0  0  0
  -24.6180  -15.8510   20.4180 H   0  0  0  0  0  0  0  0  0  0  0  0
  -26.2200  -15.6690   19.9130 H   0  0  0  0  0  0  0  0  0  0  0  0
  1  3  1  0
  2  4  1  0
  3  8  1  0
  4  3  1  0
  4 53  1  0
  5  2  1  0
  5  1  1  0
  5  6  1  6
  7  5  1  0
  8 10  1  0
  9  8  2  0
 11 13  1  0
 11 10  1  0
 12 23  2  0
 13 18  1  0
 14 22  1  0
 14 24  1  0
 15 21  1  0
 15 17  1  0
 16 22  1  0
 17 18  2  0
 17 16  1  0
 19 13  2  0
 20 19  1  0
 20 15  2  0
 21 14  1  0
 22 12  1  0
 24 26  2  0
 25 24  1  0
 27 25  1  0
 28 37  2  0
 28 33  1  0
 29 25  1  0
 29 33  1  0
 30 29  1  0
 31 32  1  0
 31 30  1  0
 32 28  1  0
 33 34  2  0
 34 35  1  0
 36 35  2  0
 37 36  1  0
 38 12  1  0
 38 43  1  0
 38 39  1  0
 39 42  1  1
 39 40  1  0
 41 39  1  0
 43 46  1  0
 44 48  1  0
 44 43  1  0
 45 44  2  0
 48 47  1  0
 50 48  1  0
 50 51  1  0
 50 49  1  0
 53 52  1  0
 54 62  1  0
 55 60  1  0
 56 57  1  0
 56 55  1  0
 58 57  1  0
 58 67  1  0
 58 59  1  0
 60 54  1  0
 60 59  1  0
 61 54  2  0
 62 53  1  0
 63 62  1  0
 64 65  2  0
 65 84  1  0
 66 65  1  0
 66 69  1  0
 67 68  1  0
 67 64  1  0
 68 66  2  0
 69 70  1  0
 70 71  2  0
 72 75  1  0
 72 71  1  0
 73 72  2  0
 74 73  1  0
 74 69  2  0
 75 76  1  0
 76 77  1  0
 77 78  2  0
 79 78  1  0
 79 83  1  0
 80 79  2  0
 81 76  2  0
 81 80  1  0
 82 81  1  0
 84 85  1  0
 85 88  1  0
 85 87  1  0
 86 84  2  0
 89 90  1  0
 89 64  1  0
 91 89  1  0
M  ISO  4  10 101  11 101  54 100  62 100
M  END
>  <TORSDO>  (15) 
F 19

>  <SCORE>  (15) 
-15.562

>  <name>  (15) 
14

>  <ligand_id>  (15) 
14

>  <original_smiles>  (15) 
[H]c1c([H])c([H])c2c(c1[H])C([H])([H])C([H])([H])C([H])([H])C2([H])N([H])C(=O)C1([H])N(C(=O)C([H])(N([H])C(=O)C([H])(N([H])C([H])([H])[H])C([H])([H])[H])C(C([H])([H])[H])(C([H])([H])[H])C([H])([H])[H])C([H])([H])c2c([H])c(OC([H])([H])C(=O)C3([H])C([H])([H])C(C([H])([H])[H])(C([H])([H])[H])C([H])([H])C3([H])C([H])(N([H])C(=O)N3C([H])([H])C([H])([H])C([H])([H])C([H])(n4nc(-c5c([H])c([H])c(Oc6c([H])c([H])c(F)c([H])c6F)c([H])c5[H])c(C(=O)N([H])[H])c4N([H])[H])C3([H])[H])C([H])([H])[H])c([H])c([H])c2C1([H])[H]

>  <smiles>  (15) 
[H]c1c([H])c([H])c2c(c1[H])C([H])([H])C([H])([H])C([H])([H])C2([H])N([H])C(=O)C1([H])N(C(=O)C([H])(N([H])C(=O)C([H])(N([H])C([H])([H])[H])C([H])([H])[H])C(C([H])([H])[H])(C([H])([H])[H])C([H])([H])[H])C([H])([H])c2c([H])c(OC([H])([H])C(=O)C3([H])C([H])([H])C(C([H])([H])[H])(C([H])([H])[H])C([H])([H])C3([H])C([H])(N([H])C(=O)N3C([H])([H])C([H])([H])C([H])([H])C([H])(n4nc(-c5c([H])c([H])c(Oc6c([H])c([H])c(F)c([H])c6F)c([H])c5[H])c(C(=O)N([H])[H])c4N([H])[H])C3([H])[H])C([H])([H])[H])c([H])c([H])c2C1([H])[H]

$$$$
15:0:0
     RDKit          3D

 90 99  0  0  1  0  0  0  0  0999 V2000
  -30.5070  -15.4450   20.4410 C   0  0  0  0  0  0  0  0  0  0  0  0
  -30.4550  -13.0350   19.4630 C   0  0  0  0  0  2  0  0  0  0  0  0
  -29.5510  -12.8160   18.2270 C   0  0  0  0  0  2  0  0  0  0  0  0
  -28.1020  -12.5360   18.6620 C   0  0  0  0  0  2  0  0  0  0  0  0
  -27.6460  -13.4770   19.8030 C   0  0  0  0  0  3  0  0  0  0  0  0
  -28.6860  -13.6280   20.9310 C   0  0  0  0  0  2  0  0  0  0  0  0
  -29.8950  -14.1670   20.2980 N   0  0  0  0  0  0  0  0  0  0  0  0
  -31.7290  -15.3780   20.2320 O   0  0  0  0  0  0  0  0  0  0  0  0
  -28.9370  -20.4130   19.2020 C   0  0  0  0  0  2  0  0  0  0  0  0
  -29.3660  -17.8940   21.4290 C   0  0  0  0  0  2  0  0  0  0  0  0
  -30.1270  -17.7530   19.2370 C   0  0  0  0  0  3  0  0  0  0  0  0
  -30.0240  -19.3400   19.6270 C   0  0  0  0  0  3  0  0  0  0  0  0
  -29.5880  -19.5570   21.0470 C   0  0  0  0  0  3  0  0  0  0  0  0
  -28.6920  -21.0280   20.6290 C   0  0  0  0  0  3  0  0  0  0  0  0
  -29.8660  -16.7980   20.3900 N   0  0  0  0  0  0  0  0  0  0  0  0
  -25.2650  -13.9890   20.5440 C   0  0  0  0  0  0  0  0  0  0  0  0
  -24.2150  -13.1820   20.9020 C   0  0  0  0  0  0  0  0  0  0  0  0
  -24.7110  -11.8440   20.8650 C   0  0  0  0  0  0  0  0  0  0  0  0
  -26.3240  -13.1340   20.3040 N   0  0  0  0  0  0  0  0  0  0  0  0
  -26.0050  -11.8410   20.5690 N   0  0  0  0  0  0  0  0  0  0  0  0
  -24.0090  -10.5620   21.0320 C   0  0  0  0  0  0  0  0  0  0  0  0
  -24.4200   -9.6130   21.9910 C   0  0  0  0  0  3  0  0  0  0  0  0
  -23.7100   -8.4030   22.1510 C   0  0  0  0  0  3  0  0  0  0  0  0
  -22.5790   -8.1330   21.3470 C   0  0  0  0  0  0  0  0  0  0  0  0
  -22.1870   -9.0720   20.3770 C   0  0  0  0  0  3  0  0  0  0  0  0
  -22.8980  -10.2720   20.2160 C   0  0  0  0  0  3  0  0  0  0  0  0
  -21.8430   -6.9720   21.4160 O   0  0  0  0  0  0  0  0  0  0  0  0
  -21.7210   -6.2630   22.5840 C   0  0  0  0  0  0  0  0  0  0  0  0
  -21.1810   -6.8440   23.7510 C   0  0  0  0  0  3  0  0  0  0  0  0
  -21.0000   -6.0620   24.9100 C   0  0  0  0  0  3  0  0  0  0  0  0
  -21.3520   -4.6990   24.9030 C   0  0  0  0  0  0  0  0  0  0  0  0
  -21.8900   -4.1180   23.7410 C   0  0  0  0  0  3  0  0  0  0  0  0
  -22.0680   -4.8970   22.5830 C   0  0  0  0  0  0  0  0  0  0  0  0
  -22.5590   -4.3240   21.4590 F   0  0  0  0  0  0  0  0  0  0  0  0
  -21.1760   -3.9470   26.0130 F   0  0  0  0  0  0  0  0  0  0  0  0
  -22.8040  -13.6280   21.1530 C   0  0  0  0  0  0  0  0  0  0  0  0
  -22.0830  -12.9090   22.0100 N   0  0  0  0  0  0  0  0  0  0  0  0
  -22.3480  -14.6410   20.6270 O   0  0  0  0  0  0  0  0  0  0  0  0
  -22.4620  -12.0890   22.4590 H   0  0  0  0  0  0  0  0  0  0  0  0
  -21.1320  -13.1830   22.2180 H   0  0  0  0  0  0  0  0  0  0  0  0
  -25.4070  -15.3630   20.3690 N   0  0  0  0  0  0  0  0  0  0  0  0
  -24.6380  -16.0190   20.4880 H   0  0  0  0  0  0  0  0  0  0  0  0
  -26.2350  -15.8040   19.9860 H   0  0  0  0  0  0  0  0  0  0  0  0
  -29.0850  -17.4350   18.1480 C   0  0  0  0  0  0  0  0  0  0  0  0
  -29.3920  -17.8500   16.7160 C   0  0  0  0  0  1  0  0  0  0  0  0
  -28.0170  -16.8650   18.3890 O   0  0  0  0  0  0  0  0  0  0  0  0
  -30.3400  -23.1580   20.3970 C   0  0  0  0  0  1  0  0  0  0  0  0
  -28.9440  -22.8180   20.9190 C   0  0  0  0  0  3  0  0  0  0  0  0
  -27.9680  -24.3270   20.6050 C   0  0  0  0  0  2  0  0  0  0  0  0
  -28.2310  -25.9720   20.7240 O   0  0  0  0  0  0  0  0  0  0  0  0
  -24.7150  -32.0700   23.4460 C   0  0  0  0  0  0  0  0  0  0  0  0
  -27.2520  -27.0990   20.5860 C   0  0  0  0  0  0  0  0  0  0  0  0
  -23.5330  -30.6730   21.7930 C   0  0  0  0  0  3  0  0  0  0  0  0
  -24.9890  -29.0220   20.4340 C   0  0  0  0  0  0  0  0  0  0  0  0
  -26.1130  -30.8460   21.7020 C   0  0  0  0  0  2  0  0  0  0  0  0
  -26.1720  -29.4220   21.0700 C   0  0  0  0  0  0  0  0  0  0  0  0
  -27.3010  -28.4850   21.1110 C   0  0  0  0  0  3  0  0  0  0  0  0
  -26.0440  -26.8520   19.8940 C   0  0  0  0  0  3  0  0  0  0  0  0
  -24.9530  -27.7600   19.8210 C   0  0  0  0  0  3  0  0  0  0  0  0
  -23.7890  -29.9660   20.4280 C   0  0  0  0  0  2  0  0  0  0  0  0
  -24.8070  -31.2270   22.3660 N   0  0  0  0  0  0  0  0  0  0  0  0
  -23.6220  -32.3860   23.9430 O   0  0  0  0  0  0  0  0  0  0  0  0
  -22.8100  -29.7010   22.7660 C   0  0  0  0  0  0  0  0  0  0  0  0
  -21.4860  -29.5270   22.6010 N   0  0  0  0  0  0  0  0  0  0  0  0
  -23.4470  -29.1020   23.6370 O   0  0  0  0  0  0  0  0  0  0  0  0
  -21.0290  -30.0690   21.8820 H   0  0  0  0  0  0  0  0  0  0  0  0
  -18.0870  -28.3020   23.0180 C   0  0  0  0  0  0  0  0  0  0  0  0
  -20.6370  -28.6000   23.3630 C   0  0  0  0  0  3  0  0  0  0  0  0
  -20.7690  -27.1520   22.8300 C   0  0  0  0  0  2  0  0  0  0  0  0
  -19.7000  -26.7920   21.7910 C   0  0  0  0  0  2  0  0  0  0  0  0
  -18.2970  -26.9320   22.3940 C   0  0  0  0  0  2  0  0  0  0  0  0
  -19.1860  -29.0880   23.4620 C   0  0  0  0  0  0  0  0  0  0  0  0
  -18.9360  -30.3630   24.0160 C   0  0  0  0  0  3  0  0  0  0  0  0
  -17.6220  -30.8550   24.1200 C   0  0  0  0  0  3  0  0  0  0  0  0
  -16.5400  -30.0740   23.6850 C   0  0  0  0  0  3  0  0  0  0  0  0
  -16.7720  -28.7940   23.1500 C   0  0  0  0  0  3  0  0  0  0  0  0
  -25.9840  -32.6990   24.0970 C   0  0  0  0  0  3  0  0  0  0  0  0
  -25.6830  -34.1070   24.4070 N   0  0  0  0  0  0  0  0  0  0  0  0
  -26.0150  -35.1520   23.6340 C   0  0  0  0  0  0  0  0  0  0  0  0
  -26.6700  -35.0280   22.5960 O   0  0  0  0  0  0  0  0  0  0  0  0
  -25.0840  -34.2750   25.2010 H   0  0  0  0  0  0  0  0  0  0  0  0
  -24.2780  -36.9470   23.3150 C   0  0  0  0  0  1  0  0  0  0  0  0
  -25.5500  -36.5540   24.0830 C   0  0  0  0  0  3  0  0  0  0  0  0
  -27.7130  -37.4560   24.8140 C   0  0  0  0  0  1  0  0  0  0  0  0
  -26.5790  -37.6010   23.9050 N   0  0  0  0  0  0  0  0  0  0  0  0
  -26.1820  -38.5260   24.0360 H   0  0  0  0  0  0  0  0  0  0  0  0
  -26.4530  -31.9430   25.4010 C   0  0  1  0  0  0  0  0  0  0  0  0
  -25.3220  -31.7160   26.4320 C   0  0  0  0  0  1  0  0  0  0  0  0
  -27.0510  -30.5570   25.0620 C   0  0  0  0  0  1  0  0  0  0  0  0
  -27.5790  -32.7480   26.0940 C   0  0  0  0  0  1  0  0  0  0  0  0
  2  7  1  0
  3  4  1  0
  3  2  1  0
  5  4  1  0
  5 19  1  0
  5  6  1  0
  7  1  1  0
  7  6  1  0
  8  1  2  0
  9 14  1  0
 11 44  1  0
 11 12  1  0
 11 15  1  0
 12  9  1  0
 12 13  1  0
 13 10  1  0
 14 48  1  0
 14 13  1  0
 15  1  1  0
 15 10  1  0
 16 17  2  0
 17 36  1  0
 18 17  1  0
 18 21  1  0
 19 16  1  0
 19 20  1  0
 20 18  2  0
 21 22  1  0
 22 23  2  0
 24 27  1  0
 24 23  1  0
 25 24  2  0
 26 25  1  0
 26 21  2  0
 27 28  1  0
 28 29  1  0
 29 30  2  0
 31 30  1  0
 31 35  1  0
 32 31  2  0
 33 28  2  0
 33 32  1  0
 34 33  1  0
 36 37  1  0
 37 40  1  0
 37 39  1  0
 38 36  2  0
 41 42  1  0
 41 16  1  0
 43 41  1  0
 44 46  2  0
 45 44  1  0
 48 47  1  0
 49 50  1  0
 49 48  1  0
 51 62  2  0
 52 50  1  0
 52 57  1  0
 53 61  1  0
 53 63  1  0
 54 56  1  0
 55 61  1  0
 56 57  2  0
 56 55  1  0
 58 52  2  0
 59 58  1  0
 59 54  2  0
 60 54  1  0
 60 53  1  0
 61 51  1  0
 63 65  2  0
 64 63  1  0
 66 64  1  0
 67 76  2  0
 67 72  1  0
 68 64  1  0
 68 72  1  0
 69 68  1  0
 70 71  1  0
 70 69  1  0
 71 67  1  0
 72 73  2  0
 73 74  1  0
 75 74  2  0
 76 75  1  0
 77 51  1  0
 77 78  1  0
 77 87  1  0
 78 81  1  0
 79 83  1  0
 79 78  1  0
 80 79  2  0
 83 82  1  0
 85 86  1  0
 85 83  1  0
 85 84  1  0
 87 90  1  1
 87 88  1  0
 89 87  1  0
M  ISO  4   1 100  15 100  49 101  50 101
M  END
>  <TORSDO>  (16) 
F 18

>  <SCORE>  (16) 
-14.683

>  <name>  (16) 
15

>  <ligand_id>  (16) 
15

>  <original_smiles>  (16) 
[H]c1c([H])c([H])c2c(c1[H])C([H])([H])C([H])([H])C([H])([H])C2([H])N([H])C(=O)C1([H])N(C(=O)C([H])(N([H])C(=O)C([H])(N([H])C([H])([H])[H])C([H])([H])[H])C(C([H])([H])[H])(C([H])([H])[H])C([H])([H])[H])C([H])([H])c2c([H])c(OC([H])([H])C([H])(C([H])([H])[H])C3([H])C([H])([H])C4([H])C([H])(C(=O)C([H])([H])[H])N(C(=O)N5C([H])([H])C([H])([H])C([H])([H])C([H])(n6nc(-c7c([H])c([H])c(Oc8c([H])c([H])c(F)c([H])c8F)c([H])c7[H])c(C(=O)N([H])[H])c6N([H])[H])C5([H])[H])C([H])([H])C43[H])c([H])c([H])c2C1([H])[H]

>  <smiles>  (16) 
[H]c1c([H])c([H])c2c(c1[H])C([H])([H])C([H])([H])C([H])([H])C2([H])N([H])C(=O)C1([H])N(C(=O)C([H])(N([H])C(=O)C([H])(N([H])C([H])([H])[H])C([H])([H])[H])C(C([H])([H])[H])(C([H])([H])[H])C([H])([H])[H])C([H])([H])c2c([H])c(OC([H])([H])C([H])(C([H])([H])[H])C3([H])C([H])([H])C4([H])C([H])(C(=O)C([H])([H])[H])N(C(=O)N5C([H])([H])C([H])([H])C([H])([H])C([H])(n6nc(-c7c([H])c([H])c(Oc8c([H])c([H])c(F)c([H])c8F)c([H])c7[H])c(C(=O)N([H])[H])c6N([H])[H])C5([H])[H])C([H])([H])C43[H])c([H])c([H])c2C1([H])[H]

$$$$
16:0:0
     RDKit          3D

 95104  0  0  1  0  0  0  0  0999 V2000
  -28.6050  -20.8340   22.1030 C   0  0  0  0  0  2  0  0  0  0  0  0
  -28.6220  -22.3140   21.6300 C   0  0  0  0  0  2  0  0  0  0  0  0
  -30.0140  -18.4680   18.7420 C   0  0  0  0  0  2  0  0  0  0  0  0
  -29.3240  -18.4670   21.1090 C   0  0  0  0  0  2  0  0  0  0  0  0
  -30.1290  -20.0780   18.7320 C   0  0  0  0  0  3  0  0  0  0  0  0
  -29.4900  -20.0480   21.1330 C   0  0  0  0  0  3  0  0  0  0  0  0
  -29.2350  -20.8190   19.8080 C   0  0  0  0  0  3  0  0  0  0  0  0
  -29.3080  -22.4030   20.2410 C   0  0  0  0  0  3  0  0  0  0  0  0
  -30.2560  -17.6890   20.0990 C   0  0  0  0  0  3  0  0  0  0  0  0
  -30.8490  -15.0400   19.8670 C   0  0  0  0  0  0  0  0  0  0  0  0
  -30.6660  -12.7120   18.9400 C   0  0  0  0  0  2  0  0  0  0  0  0
  -29.6580  -12.7140   17.7690 C   0  0  0  0  0  2  0  0  0  0  0  0
  -28.2160  -12.5320   18.2860 C   0  0  0  0  0  2  0  0  0  0  0  0
  -27.8950  -13.4570   19.4900 C   0  0  0  0  0  3  0  0  0  0  0  0
  -29.0140  -13.4200   20.5530 C   0  0  0  0  0  2  0  0  0  0  0  0
  -30.2620  -13.7900   19.8750 N   0  0  0  0  0  0  0  0  0  0  0  0
  -32.0190  -15.1570   19.4890 O   0  0  0  0  0  0  0  0  0  0  0  0
  -30.0340  -16.1520   20.0960 N   0  0  0  0  0  0  0  0  0  0  0  0
  -29.0940  -15.8830   20.3440 H   0  0  0  0  0  0  0  0  0  0  0  0
  -25.5820  -14.0640   20.4180 C   0  0  0  0  0  0  0  0  0  0  0  0
  -24.5270  -13.2980   20.8300 C   0  0  0  0  0  0  0  0  0  0  0  0
  -24.9540  -11.9400   20.7050 C   0  0  0  0  0  0  0  0  0  0  0  0
  -26.5830  -13.1750   20.0650 N   0  0  0  0  0  0  0  0  0  0  0  0
  -26.2170  -11.8880   20.3010 N   0  0  0  0  0  0  0  0  0  0  0  0
  -24.2100  -10.6860   20.8900 C   0  0  0  0  0  0  0  0  0  0  0  0
  -24.6190   -9.7150   21.8300 C   0  0  0  0  0  3  0  0  0  0  0  0
  -23.8760   -8.5280   22.0030 C   0  0  0  0  0  3  0  0  0  0  0  0
  -22.7100   -8.3020   21.2350 C   0  0  0  0  0  0  0  0  0  0  0  0
  -22.3190   -9.2610   20.2820 C   0  0  0  0  0  3  0  0  0  0  0  0
  -23.0630  -10.4410   20.1080 C   0  0  0  0  0  3  0  0  0  0  0  0
  -21.9400   -7.1670   21.3150 O   0  0  0  0  0  0  0  0  0  0  0  0
  -21.7830   -6.4870   22.4980 C   0  0  0  0  0  0  0  0  0  0  0  0
  -21.2120   -7.0970   23.6370 C   0  0  0  0  0  3  0  0  0  0  0  0
  -21.0040   -6.3440   24.8080 C   0  0  0  0  0  3  0  0  0  0  0  0
  -21.3540   -4.9790   24.8410 C   0  0  0  0  0  0  0  0  0  0  0  0
  -21.9160   -4.3700   23.7060 C   0  0  0  0  0  3  0  0  0  0  0  0
  -22.1260   -5.1210   22.5370 C   0  0  0  0  0  0  0  0  0  0  0  0
  -22.6490   -4.5230   21.4390 F   0  0  0  0  0  0  0  0  0  0  0  0
  -21.1470   -4.2530   25.9650 F   0  0  0  0  0  0  0  0  0  0  0  0
  -23.1650  -13.7930   21.2210 C   0  0  0  0  0  0  0  0  0  0  0  0
  -22.4900  -13.0860   22.1200 N   0  0  0  0  0  0  0  0  0  0  0  0
  -22.7110  -14.8410   20.7630 O   0  0  0  0  0  0  0  0  0  0  0  0
  -22.8710  -12.2370   22.5120 H   0  0  0  0  0  0  0  0  0  0  0  0
  -21.5790  -13.4010   22.4220 H   0  0  0  0  0  0  0  0  0  0  0  0
  -25.7660  -15.4380   20.2870 N   0  0  0  0  0  0  0  0  0  0  0  0
  -25.0150  -16.0960   20.4680 H   0  0  0  0  0  0  0  0  0  0  0  0
  -26.5770  -15.8760   19.8710 H   0  0  0  0  0  0  0  0  0  0  0  0
  -31.6020  -20.5220   18.7480 C   0  0  0  0  0  0  0  0  0  0  0  0
  -32.0380  -21.2360   17.7180 N   0  0  0  0  0  0  0  0  0  0  0  0
  -32.3620  -20.2130   19.6630 O   0  0  0  0  0  0  0  0  0  0  0  0
  -31.4150  -21.4790   16.9590 H   0  0  0  0  0  0  0  0  0  0  0  0
  -33.0020  -21.5370   17.6770 H   0  0  0  0  0  0  0  0  0  0  0  0
  -28.7890  -23.7270   19.4040 C   0  0  0  0  0  2  0  0  0  0  0  0
  -28.4510  -25.1530   20.1630 C   0  0  0  0  0  2  0  0  0  0  0  0
  -28.4400  -26.5430   19.5500 O   0  0  0  0  0  0  0  0  0  0  0  0
  -24.6500  -31.7450   23.0250 C   0  0  0  0  0  0  0  0  0  0  0  0
  -27.3060  -27.3880   19.6580 C   0  0  0  0  0  0  0  0  0  0  0  0
  -23.4430  -30.3960   21.3480 C   0  0  0  0  0  3  0  0  0  0  0  0
  -24.8980  -28.9610   19.7990 C   0  0  0  0  0  0  0  0  0  0  0  0
  -25.9670  -30.7970   21.1060 C   0  0  0  0  0  2  0  0  0  0  0  0
  -26.0740  -29.4500   20.3830 C   0  0  0  0  0  0  0  0  0  0  0  0
  -27.2830  -28.6810   20.2930 C   0  0  0  0  0  3  0  0  0  0  0  0
  -26.1020  -26.9630   19.0610 C   0  0  0  0  0  3  0  0  0  0  0  0
  -24.9180  -27.7280   19.1270 C   0  0  0  0  0  3  0  0  0  0  0  0
  -23.6380  -29.8000   19.9290 C   0  0  0  0  0  2  0  0  0  0  0  0
  -24.7070  -30.9970   21.8830 N   0  0  0  0  0  0  0  0  0  0  0  0
  -23.5750  -31.9570   23.6070 O   0  0  0  0  0  0  0  0  0  0  0  0
  -22.8410  -29.3100   22.2730 C   0  0  0  0  0  0  0  0  0  0  0  0
  -21.5200  -29.0830   22.1680 N   0  0  0  0  0  0  0  0  0  0  0  0
  -23.5630  -28.6760   23.0480 O   0  0  0  0  0  0  0  0  0  0  0  0
  -20.9930  -29.6480   21.5180 H   0  0  0  0  0  0  0  0  0  0  0  0
  -18.2130  -27.7020   22.6690 C   0  0  0  0  0  0  0  0  0  0  0  0
  -20.7600  -28.0740   22.9090 C   0  0  0  0  0  3  0  0  0  0  0  0
  -20.9190  -26.6750   22.2690 C   0  0  0  0  0  2  0  0  0  0  0  0
  -19.8160  -26.3470   21.2580 C   0  0  0  0  0  2  0  0  0  0  0  0
  -18.4400  -26.3960   21.9280 C   0  0  0  0  0  2  0  0  0  0  0  0
  -19.3010  -28.4980   23.1150 C   0  0  0  0  0  0  0  0  0  0  0  0
  -19.0330  -29.7200   23.7700 C   0  0  0  0  0  3  0  0  0  0  0  0
  -17.7090  -30.1470   23.9820 C   0  0  0  0  0  3  0  0  0  0  0  0
  -16.6350  -29.3490   23.5510 C   0  0  0  0  0  3  0  0  0  0  0  0
  -16.8880  -28.1290   22.9000 C   0  0  0  0  0  3  0  0  0  0  0  0
  -25.9280  -32.3900   23.6420 C   0  0  0  0  0  3  0  0  0  0  0  0
  -26.5020  -31.5790   24.8690 C   0  0  1  0  0  0  0  0  0  0  0  0
  -25.4440  -31.2580   25.9520 C   0  0  0  0  0  1  0  0  0  0  0  0
  -27.1190  -30.2410   24.4020 C   0  0  0  0  0  1  0  0  0  0  0  0
  -27.6420  -32.3820   25.5420 C   0  0  0  0  0  1  0  0  0  0  0  0
  -25.5850  -33.7610   24.0500 N   0  0  0  0  0  0  0  0  0  0  0  0
  -25.8750  -34.8620   23.3420 C   0  0  0  0  0  0  0  0  0  0  0  0
  -26.5280  -34.8300   22.2960 O   0  0  0  0  0  0  0  0  0  0  0  0
  -25.0010  -33.8570   24.8680 H   0  0  0  0  0  0  0  0  0  0  0  0
  -24.0920  -36.6240   23.1140 C   0  0  0  0  0  1  0  0  0  0  0  0
  -25.3600  -36.2110   23.8800 C   0  0  0  0  0  3  0  0  0  0  0  0
  -27.4820  -37.1160   24.7230 C   0  0  0  0  0  1  0  0  0  0  0  0
  -26.3610  -37.2980   23.8050 N   0  0  0  0  0  0  0  0  0  0  0  0
  -25.9320  -38.1980   24.0020 H   0  0  0  0  0  0  0  0  0  0  0  0
  2  1  1  0
  3  9  1  0
  5  3  1  0
  5 48  1  0
  5  7  1  0
  6  4  1  0
  6  1  1  0
  7  8  1  0
  7  6  1  0
  8  2  1  0
  9  4  1  0
 10 16  1  0
 10 18  1  0
 11 16  1  0
 12 13  1  0
 12 11  1  0
 13 14  1  0
 14 23  1  0
 14 15  1  0
 16 15  1  0
 17 10  2  0
 18  9  1  0
 18 19  1  0
 20 21  2  0
 21 40  1  0
 22 21  1  0
 22 25  1  0
 23 24  1  0
 23 20  1  0
 24 22  2  0
 25 26  1  0
 26 27  2  0
 28 31  1  0
 28 27  1  0
 29 28  2  0
 30 29  1  0
 30 25  2  0
 31 32  1  0
 32 37  2  0
 32 33  1  0
 33 34  2  0
 34 35  1  0
 35 39  1  0
 36 35  2  0
 37 36  1  0
 38 37  1  0
 40 41  1  0
 41 44  1  0
 41 43  1  0
 42 40  2  0
 45 20  1  0
 45 46  1  0
 47 45  1  0
 48 50  2  0
 49 48  1  0
 51 49  1  0
 52 49  1  0
 53 54  1  0
 53  8  1  0
 55 57  1  0
 55 54  1  0
 56 67  2  0
 56 82  1  0
 57 62  1  0
 58 66  1  0
 58 68  1  0
 59 65  1  0
 59 61  1  0
 60 66  1  0
 61 60  1  0
 62 61  2  0
 63 64  1  0
 63 57  2  0
 64 59  2  0
 65 58  1  0
 66 56  1  0
 68 70  2  0
 69 68  1  0
 69 73  1  0
 71 69  1  0
 72 81  2  0
 72 77  1  0
 73 77  1  0
 74 73  1  0
 75 76  1  0
 75 74  1  0
 76 72  1  0
 77 78  2  0
 78 79  1  0
 80 79  2  0
 81 80  1  0
 82 87  1  0
 82 83  1  0
 83 86  1  1
 83 84  1  0
 85 83  1  0
 87 90  1  0
 88 92  1  0
 88 87  1  0
 89 88  2  0
 91 92  1  0
 94 92  1  0
 94 95  1  0
 94 93  1  0
M  ISO  4  10 100  18 100  54 101  55 101
M  END
>  <TORSDO>  (17) 
F 19

>  <SCORE>  (17) 
-12.460

>  <name>  (17) 
16

>  <ligand_id>  (17) 
16

>  <original_smiles>  (17) 
[H]c1c([H])c([H])c2c(c1[H])C([H])([H])C([H])([H])C([H])([H])C2([H])N([H])C(=O)C1([H])N(C(=O)C([H])(N([H])C(=O)C([H])(N([H])C([H])([H])[H])C([H])([H])[H])C(C([H])([H])[H])(C([H])([H])[H])C([H])([H])[H])C([H])([H])c2c([H])c(OC([H])([H])C([H])([H])C3([H])C([H])([H])C([H])([H])C4([H])C([H])([H])C([H])(N([H])C(=O)N5C([H])([H])C([H])([H])C([H])([H])C([H])(n6nc(-c7c([H])c([H])c(Oc8c([H])c([H])c(F)c([H])c8F)c([H])c7[H])c(C(=O)N([H])[H])c6N([H])[H])C5([H])[H])C([H])([H])C([H])(C(=O)N([H])[H])C34[H])c([H])c([H])c2C1([H])[H]

>  <smiles>  (17) 
[H]c1c([H])c([H])c2c(c1[H])C([H])([H])C([H])([H])C([H])([H])C2([H])N([H])C(=O)C1([H])N(C(=O)C([H])(N([H])C(=O)C([H])(N([H])C([H])([H])[H])C([H])([H])[H])C(C([H])([H])[H])(C([H])([H])[H])C([H])([H])[H])C([H])([H])c2c([H])c(OC([H])([H])C([H])([H])C3([H])C([H])([H])C([H])([H])C4([H])C([H])([H])C([H])(N([H])C(=O)N5C([H])([H])C([H])([H])C([H])([H])C([H])(n6nc(-c7c([H])c([H])c(Oc8c([H])c([H])c(F)c([H])c8F)c([H])c7[H])c(C(=O)N([H])[H])c6N([H])[H])C5([H])[H])C([H])([H])C([H])(C(=O)N([H])[H])C34[H])c([H])c([H])c2C1([H])[H]

$$$$
17:0:0
     RDKit          3D

 93102  0  0  1  0  0  0  0  0999 V2000
  -29.2050  -20.1370   20.7060 C   0  0  0  0  0  3  0  0  0  0  0  0
  -28.6760  -21.3430   20.3370 C   0  0  0  0  0  0  0  0  0  0  0  0
  -30.7230  -14.7500   20.5850 C   0  0  0  0  0  0  0  0  0  0  0  0
  -30.5040  -12.5230   19.5530 C   0  0  0  0  0  2  0  0  0  0  0  0
  -29.5860  -12.6490   18.3200 C   0  0  0  0  0  2  0  0  0  0  0  0
  -28.1030  -12.5040   18.7210 C   0  0  0  0  0  2  0  0  0  0  0  0
  -27.7210  -13.3670   19.9530 C   0  0  0  0  0  3  0  0  0  0  0  0
  -28.7620  -13.2170   21.0840 C   0  0  0  0  0  2  0  0  0  0  0  0
  -30.0680  -13.5540   20.5090 N   0  0  0  0  0  0  0  0  0  0  0  0
  -31.9470  -14.7930   20.4220 O   0  0  0  0  0  0  0  0  0  0  0  0
  -27.9900  -17.1440   18.6820 C   0  0  0  0  0  2  0  0  0  0  0  0
  -29.3390  -16.7360   18.0300 C   0  0  0  0  0  2  0  0  0  0  0  0
  -30.6800  -18.1970   19.6510 C   0  0  0  0  0  2  0  0  0  0  0  0
  -28.9040  -16.5480   20.9570 C   0  0  0  0  0  2  0  0  0  0  0  0
  -29.2960  -18.8680   19.8270 C   0  0  0  0  0  3  0  0  0  0  0  0
  -28.2780  -17.7170   20.0970 C   0  0  0  0  0  3  0  0  0  0  0  0
  -30.4640  -16.7400   19.1080 C   0  0  0  0  0  3  0  0  0  0  0  0
  -29.9940  -15.8560   20.2080 N   0  0  0  0  0  0  0  0  0  0  0  0
  -25.3150  -13.9830   20.6230 C   0  0  0  0  0  0  0  0  0  0  0  0
  -24.2380  -13.2100   20.9620 C   0  0  0  0  0  0  0  0  0  0  0  0
  -24.7000  -11.8600   20.9360 C   0  0  0  0  0  0  0  0  0  0  0  0
  -26.3630  -13.1000   20.4100 N   0  0  0  0  0  0  0  0  0  0  0  0
  -25.9970  -11.8190   20.6610 N   0  0  0  0  0  0  0  0  0  0  0  0
  -23.9720  -10.5980   21.0990 C   0  0  0  0  0  0  0  0  0  0  0  0
  -24.3740   -9.6330   22.0480 C   0  0  0  0  0  3  0  0  0  0  0  0
  -23.6440   -8.4330   22.2000 C   0  0  0  0  0  3  0  0  0  0  0  0
  -22.5010   -8.1930   21.4020 C   0  0  0  0  0  0  0  0  0  0  0  0
  -22.1200   -9.1470   20.4410 C   0  0  0  0  0  3  0  0  0  0  0  0
  -22.8500  -10.3370   20.2880 C   0  0  0  0  0  3  0  0  0  0  0  0
  -21.7450   -7.0480   21.4650 O   0  0  0  0  0  0  0  0  0  0  0  0
  -21.6400   -6.3190   22.6220 C   0  0  0  0  0  0  0  0  0  0  0  0
  -21.1100   -6.8740   23.8080 C   0  0  0  0  0  3  0  0  0  0  0  0
  -20.9580   -6.0690   24.9550 C   0  0  0  0  0  3  0  0  0  0  0  0
  -21.3230   -4.7090   24.9150 C   0  0  0  0  0  0  0  0  0  0  0  0
  -21.8460   -4.1540   23.7330 C   0  0  0  0  0  3  0  0  0  0  0  0
  -22.0010   -4.9570   22.5890 C   0  0  0  0  0  0  0  0  0  0  0  0
  -22.4860   -4.4130   21.4480 F   0  0  0  0  0  0  0  0  0  0  0  0
  -21.1690   -3.9330   26.0130 F   0  0  0  0  0  0  0  0  0  0  0  0
  -22.8340  -13.6880   21.1990 C   0  0  0  0  0  0  0  0  0  0  0  0
  -22.0890  -12.9920   22.0490 N   0  0  0  0  0  0  0  0  0  0  0  0
  -22.4090  -14.7130   20.6660 O   0  0  0  0  0  0  0  0  0  0  0  0
  -22.4460  -12.1630   22.5000 H   0  0  0  0  0  0  0  0  0  0  0  0
  -21.1450  -13.2920   22.2500 H   0  0  0  0  0  0  0  0  0  0  0  0
  -25.4760  -15.3560   20.4610 N   0  0  0  0  0  0  0  0  0  0  0  0
  -24.7050  -16.0010   20.5840 H   0  0  0  0  0  0  0  0  0  0  0  0
  -26.3360  -15.8090   20.1830 H   0  0  0  0  0  0  0  0  0  0  0  0
  -28.6550  -22.4740   21.2810 C   0  0  0  0  0  3  0  0  0  0  0  0
  -28.3560  -23.7580   20.9520 C   0  0  0  0  0  3  0  0  0  0  0  0
  -28.1880  -24.9280   21.9250 C   0  0  0  0  0  2  0  0  0  0  0  0
  -28.9240  -26.2400   21.5410 C   0  0  0  0  0  2  0  0  0  0  0  0
  -28.4880  -26.8240   20.3080 O   0  0  0  0  0  0  0  0  0  0  0  0
  -24.5330  -31.9730   23.3270 C   0  0  0  0  0  0  0  0  0  0  0  0
  -27.3250  -27.5600   20.3480 C   0  0  0  0  0  0  0  0  0  0  0  0
  -23.3860  -30.5330   21.6720 C   0  0  0  0  0  3  0  0  0  0  0  0
  -24.9020  -29.0130   20.2920 C   0  0  0  0  0  0  0  0  0  0  0  0
  -25.9080  -30.9450   21.5200 C   0  0  0  0  0  2  0  0  0  0  0  0
  -26.0350  -29.5660   20.9050 C   0  0  0  0  0  0  0  0  0  0  0  0
  -27.2490  -28.8440   20.9390 C   0  0  0  0  0  3  0  0  0  0  0  0
  -26.1830  -27.0250   19.7220 C   0  0  0  0  0  3  0  0  0  0  0  0
  -24.9690  -27.7390   19.7010 C   0  0  0  0  0  3  0  0  0  0  0  0
  -23.6390  -29.8450   20.3030 C   0  0  0  0  0  2  0  0  0  0  0  0
  -24.6250  -31.1670   22.2310 N   0  0  0  0  0  0  0  0  0  0  0  0
  -23.4360  -32.2260   23.8460 O   0  0  0  0  0  0  0  0  0  0  0  0
  -22.7380  -29.5060   22.6290 C   0  0  0  0  0  0  0  0  0  0  0  0
  -21.4220  -29.2960   22.4760 N   0  0  0  0  0  0  0  0  0  0  0  0
  -23.4170  -28.9010   23.4630 O   0  0  0  0  0  0  0  0  0  0  0  0
  -20.9340  -29.8330   21.7740 H   0  0  0  0  0  0  0  0  0  0  0  0
  -18.0570  -28.0590   22.9390 C   0  0  0  0  0  0  0  0  0  0  0  0
  -20.6080  -28.3480   23.2390 C   0  0  0  0  0  3  0  0  0  0  0  0
  -20.7350  -26.9180   22.6620 C   0  0  0  0  0  2  0  0  0  0  0  0
  -19.6490  -26.5850   21.6360 C   0  0  0  0  0  2  0  0  0  0  0  0
  -18.2570  -26.7130   22.2640 C   0  0  0  0  0  2  0  0  0  0  0  0
  -19.1620  -28.8350   23.3820 C   0  0  0  0  0  0  0  0  0  0  0  0
  -18.9230  -30.0950   23.9700 C   0  0  0  0  0  3  0  0  0  0  0  0
  -17.6100  -30.5820   24.1220 C   0  0  0  0  0  3  0  0  0  0  0  0
  -16.5190  -29.8050   23.6950 C   0  0  0  0  0  3  0  0  0  0  0  0
  -16.7430  -28.5450   23.1110 C   0  0  0  0  0  3  0  0  0  0  0  0
  -25.7940  -32.6360   23.9650 C   0  0  0  0  0  3  0  0  0  0  0  0
  -26.2890  -31.9000   25.2710 C   0  0  1  0  0  0  0  0  0  0  0  0
  -25.1650  -31.6460   26.3030 C   0  0  0  0  0  1  0  0  0  0  0  0
  -26.9250  -30.5350   24.9210 C   0  0  0  0  0  1  0  0  0  0  0  0
  -27.3930  -32.7380   25.9580 C   0  0  0  0  0  1  0  0  0  0  0  0
  -25.4650  -34.0380   24.2500 N   0  0  0  0  0  0  0  0  0  0  0  0
  -25.8130  -35.0730   23.4720 C   0  0  0  0  0  0  0  0  0  0  0  0
  -26.5160  -34.9480   22.4660 O   0  0  0  0  0  0  0  0  0  0  0  0
  -24.8450  -34.2100   25.0280 H   0  0  0  0  0  0  0  0  0  0  0  0
  -24.0900  -36.8430   23.0000 C   0  0  0  0  0  1  0  0  0  0  0  0
  -25.2980  -36.4680   23.8750 C   0  0  0  0  0  3  0  0  0  0  0  0
  -27.3850  -37.3880   24.7810 C   0  0  0  0  0  1  0  0  0  0  0  0
  -26.3270  -37.5260   23.7830 N   0  0  0  0  0  0  0  0  0  0  0  0
  -25.9100  -38.4460   23.8900 H   0  0  0  0  0  0  0  0  0  0  0  0
  -29.0540  -21.9360   17.8870 C   0  0  0  0  0  1  0  0  0  0  0  0
  -28.0350  -21.5320   18.9610 C   0  0  0  0  0  2  0  0  0  0  0  0
  2  1  2  0
  2 47  1  0
  4  9  1  0
  5  6  1  0
  5  4  1  0
  7  6  1  0
  7 22  1  0
  7  8  1  0
  9  3  1  0
  9  8  1  0
 10  3  2  0
 12 11  1  0
 13 15  1  0
 15 16  1  0
 15  1  1  0
 16 11  1  0
 16 14  1  0
 17 12  1  0
 17 13  1  0
 17 18  1  0
 18  3  1  0
 18 14  1  0
 19 20  2  0
 20 39  1  0
 21 20  1  0
 21 24  1  0
 22 19  1  0
 22 23  1  0
 23 21  2  0
 24 25  1  0
 25 26  2  0
 27 30  1  0
 27 26  1  0
 28 27  2  0
 29 28  1  0
 29 24  2  0
 30 31  1  0
 31 32  1  0
 32 33  2  0
 34 33  1  0
 34 38  1  0
 35 34  2  0
 36 31  2  0
 36 35  1  0
 37 36  1  0
 39 40  1  0
 40 43  1  0
 40 42  1  0
 41 39  2  0
 44 45  1  0
 44 19  1  0
 46 44  1  0
 48 47  2  0
 48 49  1  0
 50 49  1  0
 51 53  1  0
 51 50  1  0
 52 63  2  0
 53 58  1  0
 54 62  1  0
 54 64  1  0
 55 61  1  0
 55 57  1  0
 56 62  1  0
 57 58  2  0
 57 56  1  0
 59 53  2  0
 60 59  1  0
 60 55  2  0
 61 54  1  0
 62 52  1  0
 64 66  2  0
 65 64  1  0
 67 65  1  0
 68 77  2  0
 68 73  1  0
 69 65  1  0
 69 73  1  0
 70 69  1  0
 71 72  1  0
 71 70  1  0
 72 68  1  0
 73 74  2  0
 74 75  1  0
 76 75  2  0
 77 76  1  0
 78 52  1  0
 78 83  1  0
 78 79  1  0
 79 82  1  1
 79 80  1  0
 81 79  1  0
 83 86  1  0
 84 88  1  0
 84 83  1  0
 85 84  2  0
 88 87  1  0
 90 88  1  0
 90 91  1  0
 90 89  1  0
 92 93  1  0
 93  2  1  0
M  ISO  4   3 100  18 100  50 101  51 101
M  END
>  <TORSDO>  (18) 
F 20

>  <SCORE>  (18) 
-13.585

>  <name>  (18) 
17

>  <ligand_id>  (18) 
17

>  <original_smiles>  (18) 
[H]C(C(=C([H])C1([H])C([H])([H])C2([H])N(C(=O)N3C([H])([H])C([H])([H])C([H])([H])C([H])(n4nc(-c5c([H])c([H])c(Oc6c([H])c([H])c(F)c([H])c6F)c([H])c5[H])c(C(=O)N([H])[H])c4N([H])[H])C3([H])[H])C([H])([H])C1([H])C([H])([H])C2([H])[H])C([H])([H])C([H])([H])[H])=C([H])C([H])([H])C([H])([H])Oc1c([H])c([H])c2c(c1[H])C([H])([H])N(C(=O)C([H])(N([H])C(=O)C([H])(N([H])C([H])([H])[H])C([H])([H])[H])C(C([H])([H])[H])(C([H])([H])[H])C([H])([H])[H])C([H])(C(=O)N([H])C1([H])c3c([H])c([H])c([H])c([H])c3C([H])([H])C([H])([H])C1([H])[H])C2([H])[H]

>  <smiles>  (18) 
[H]C(C(=C([H])C1([H])C([H])([H])C2([H])N(C(=O)N3C([H])([H])C([H])([H])C([H])([H])C([H])(n4nc(-c5c([H])c([H])c(Oc6c([H])c([H])c(F)c([H])c6F)c([H])c5[H])c(C(=O)N([H])[H])c4N([H])[H])C3([H])[H])C([H])([H])C1([H])C([H])([H])C2([H])[H])C([H])([H])C([H])([H])[H])=C([H])C([H])([H])C([H])([H])Oc1c([H])c([H])c2c(c1[H])C([H])([H])N(C(=O)C([H])(N([H])C(=O)C([H])(N([H])C([H])([H])[H])C([H])([H])[H])C(C([H])([H])[H])(C([H])([H])[H])C([H])([H])[H])C([H])(C(=O)N([H])C1([H])c3c([H])c([H])c([H])c([H])c3C([H])([H])C([H])([H])C1([H])[H])C2([H])[H]

$$$$
18:0:0
     RDKit          3D

 90 99  0  0  1  0  0  0  0  0999 V2000
  -31.2570  -22.5070   20.4790 C   0  0  0  0  0  2  0  0  0  0  0  0
  -31.0990  -20.0360   21.4370 C   0  0  0  0  0  2  0  0  0  0  0  0
  -28.8890  -21.9100   20.0980 C   0  0  0  0  0  2  0  0  0  0  0  0
  -31.1720  -21.0020   20.2490 C   0  0  0  0  0  3  0  0  0  0  0  0
  -29.7420  -20.6400   19.8890 C   0  0  0  0  0  3  0  0  0  0  0  0
  -29.8100  -23.0300   20.6740 C   0  0  0  0  0  3  0  0  0  0  0  0
  -29.8000  -19.4380   20.8820 C   0  0  0  0  0  3  0  0  0  0  0  0
  -29.6330  -24.4910   20.1270 C   0  0  0  0  0  2  0  0  0  0  0  0
  -28.3000  -25.2310   20.4350 C   0  0  0  0  0  2  0  0  0  0  0  0
  -28.3890  -26.6550   20.1550 O   0  0  0  0  0  0  0  0  0  0  0  0
  -24.5920  -31.8910   23.2280 C   0  0  0  0  0  0  0  0  0  0  0  0
  -27.2160  -27.3960   20.1670 C   0  0  0  0  0  0  0  0  0  0  0  0
  -23.3770  -30.4800   21.6040 C   0  0  0  0  0  3  0  0  0  0  0  0
  -24.8220  -28.9300   20.1810 C   0  0  0  0  0  0  0  0  0  0  0  0
  -25.9060  -30.8280   21.3900 C   0  0  0  0  0  2  0  0  0  0  0  0
  -25.9880  -29.4510   20.7570 C   0  0  0  0  0  0  0  0  0  0  0  0
  -27.1870  -28.6950   20.7410 C   0  0  0  0  0  3  0  0  0  0  0  0
  -26.0290  -26.9030   19.5790 C   0  0  0  0  0  3  0  0  0  0  0  0
  -24.8400  -27.6560   19.5900 C   0  0  0  0  0  3  0  0  0  0  0  0
  -23.5800  -29.7930   20.2280 C   0  0  0  0  0  2  0  0  0  0  0  0
  -24.6440  -31.0820   22.1310 N   0  0  0  0  0  0  0  0  0  0  0  0
  -23.5140  -32.1680   23.7720 O   0  0  0  0  0  0  0  0  0  0  0  0
  -22.7300  -29.4650   22.5740 C   0  0  0  0  0  0  0  0  0  0  0  0
  -21.4040  -29.2820   22.4560 N   0  0  0  0  0  0  0  0  0  0  0  0
  -23.4180  -28.8440   23.3880 O   0  0  0  0  0  0  0  0  0  0  0  0
  -20.9110  -29.8360   21.7700 H   0  0  0  0  0  0  0  0  0  0  0  0
  -18.0330  -28.0900   22.9770 C   0  0  0  0  0  0  0  0  0  0  0  0
  -20.5920  -28.3500   23.2360 C   0  0  0  0  0  3  0  0  0  0  0  0
  -20.6920  -26.9150   22.6690 C   0  0  0  0  0  2  0  0  0  0  0  0
  -19.5850  -26.5860   21.6620 C   0  0  0  0  0  2  0  0  0  0  0  0
  -18.2060  -26.7350   22.3110 C   0  0  0  0  0  2  0  0  0  0  0  0
  -19.1530  -28.8540   23.3980 C   0  0  0  0  0  0  0  0  0  0  0  0
  -18.9370  -30.1220   23.9810 C   0  0  0  0  0  3  0  0  0  0  0  0
  -17.6340  -30.6250   24.1480 C   0  0  0  0  0  3  0  0  0  0  0  0
  -16.5270  -29.8570   23.7440 C   0  0  0  0  0  3  0  0  0  0  0  0
  -16.7280  -28.5920   23.1640 C   0  0  0  0  0  3  0  0  0  0  0  0
  -25.8810  -32.5260   23.8370 C   0  0  0  0  0  3  0  0  0  0  0  0
  -26.4170  -31.7520   25.1030 C   0  0  1  0  0  0  0  0  0  0  0  0
  -25.3390  -31.5050   26.1840 C   0  0  0  0  0  1  0  0  0  0  0  0
  -27.0010  -30.3780   24.6970 C   0  0  0  0  0  1  0  0  0  0  0  0
  -27.5740  -32.5470   25.7530 C   0  0  0  0  0  1  0  0  0  0  0  0
  -25.5690  -33.9210   24.1760 N   0  0  0  0  0  0  0  0  0  0  0  0
  -25.8870  -34.9770   23.4160 C   0  0  0  0  0  0  0  0  0  0  0  0
  -26.5450  -34.8810   22.3770 O   0  0  0  0  0  0  0  0  0  0  0  0
  -24.9820  -34.0700   24.9830 H   0  0  0  0  0  0  0  0  0  0  0  0
  -24.1410  -36.7580   23.0910 C   0  0  0  0  0  1  0  0  0  0  0  0
  -25.3970  -36.3610   23.8830 C   0  0  0  0  0  3  0  0  0  0  0  0
  -27.5410  -37.2550   24.6790 C   0  0  0  0  0  1  0  0  0  0  0  0
  -26.4220  -37.4210   23.7560 N   0  0  0  0  0  0  0  0  0  0  0  0
  -26.0130  -38.3380   23.9160 H   0  0  0  0  0  0  0  0  0  0  0  0
  -29.7840  -17.9700   20.3620 C   0  0  0  0  0  2  0  0  0  0  0  0
  -30.3400  -16.9020   21.3530 C   0  0  0  0  0  2  0  0  0  0  0  0
  -30.6410  -14.5100   20.5110 C   0  0  0  0  0  0  0  0  0  0  0  0
  -30.3610  -12.3450   19.3430 C   0  0  0  0  0  2  0  0  0  0  0  0
  -29.4260  -12.5470   18.1330 C   0  0  0  0  0  2  0  0  0  0  0  0
  -27.9480  -12.4080   18.5530 C   0  0  0  0  0  2  0  0  0  0  0  0
  -27.6030  -13.2490   19.8120 C   0  0  0  0  0  3  0  0  0  0  0  0
  -28.6480  -13.0180   20.9260 C   0  0  0  0  0  2  0  0  0  0  0  0
  -29.9760  -13.3290   20.3670 N   0  0  0  0  0  0  0  0  0  0  0  0
  -31.7730  -14.6980   20.0580 O   0  0  0  0  0  0  0  0  0  0  0  0
  -29.9250  -15.5110   21.0650 N   0  0  0  0  0  0  0  0  0  0  0  0
  -28.9970  -15.2540   21.3670 H   0  0  0  0  0  0  0  0  0  0  0  0
  -25.2010  -13.8740   20.4910 C   0  0  0  0  0  0  0  0  0  0  0  0
  -24.1270  -13.1100   20.8570 C   0  0  0  0  0  0  0  0  0  0  0  0
  -24.5820  -11.7560   20.8440 C   0  0  0  0  0  0  0  0  0  0  0  0
  -26.2440  -12.9860   20.2800 N   0  0  0  0  0  0  0  0  0  0  0  0
  -25.8740  -11.7080   20.5490 N   0  0  0  0  0  0  0  0  0  0  0  0
  -23.8490  -10.4990   21.0400 C   0  0  0  0  0  0  0  0  0  0  0  0
  -24.2820   -9.5290   21.9700 C   0  0  0  0  0  3  0  0  0  0  0  0
  -23.5490   -8.3350   22.1530 C   0  0  0  0  0  3  0  0  0  0  0  0
  -22.3700   -8.1040   21.4060 C   0  0  0  0  0  0  0  0  0  0  0  0
  -21.9560   -9.0630   20.4640 C   0  0  0  0  0  3  0  0  0  0  0  0
  -22.6890  -10.2480   20.2790 C   0  0  0  0  0  3  0  0  0  0  0  0
  -21.6090   -6.9640   21.4970 O   0  0  0  0  0  0  0  0  0  0  0  0
  -21.5760   -6.2120   22.6450 C   0  0  0  0  0  0  0  0  0  0  0  0
  -21.1940   -6.7620   23.8870 C   0  0  0  0  0  3  0  0  0  0  0  0
  -21.1090   -5.9370   25.0260 C   0  0  0  0  0  3  0  0  0  0  0  0
  -21.3930   -4.5620   24.9230 C   0  0  0  0  0  0  0  0  0  0  0  0
  -21.7690   -4.0110   23.6860 C   0  0  0  0  0  3  0  0  0  0  0  0
  -21.8570   -4.8340   22.5490 C   0  0  0  0  0  0  0  0  0  0  0  0
  -22.1990   -4.2940   21.3550 F   0  0  0  0  0  0  0  0  0  0  0  0
  -21.3040   -3.7670   26.0160 F   0  0  0  0  0  0  0  0  0  0  0  0
  -22.7280  -13.5960   21.1110 C   0  0  0  0  0  0  0  0  0  0  0  0
  -21.9900  -12.9120   21.9790 N   0  0  0  0  0  0  0  0  0  0  0  0
  -22.2980  -14.6150   20.5740 O   0  0  0  0  0  0  0  0  0  0  0  0
  -22.3490  -12.0870   22.4360 H   0  0  0  0  0  0  0  0  0  0  0  0
  -21.0510  -13.2200   22.1910 H   0  0  0  0  0  0  0  0  0  0  0  0
  -25.3760  -15.2420   20.3010 N   0  0  0  0  0  0  0  0  0  0  0  0
  -24.6140  -15.9040   20.3960 H   0  0  0  0  0  0  0  0  0  0  0  0
  -26.2330  -15.6720   19.9770 H   0  0  0  0  0  0  0  0  0  0  0  0
  1  6  1  0
  3  6  1  0
  4  1  1  0
  4  2  1  0
  5  3  1  0
  5  4  1  0
  5  7  1  0
  6  8  1  0
  7 51  1  0
  7  2  1  0
  8  9  1  0
 10 12  1  0
 10  9  1  0
 11 22  2  0
 12 17  1  0
 13 21  1  0
 13 23  1  0
 14 20  1  0
 14 16  1  0
 15 21  1  0
 16 15  1  0
 17 16  2  0
 18 19  1  0
 18 12  2  0
 19 14  2  0
 20 13  1  0
 21 11  1  0
 23 25  2  0
 24 23  1  0
 26 24  1  0
 27 36  2  0
 27 32  1  0
 28 24  1  0
 28 32  1  0
 29 28  1  0
 30 31  1  0
 30 29  1  0
 31 27  1  0
 32 33  2  0
 33 34  1  0
 35 34  2  0
 36 35  1  0
 37 11  1  0
 37 42  1  0
 37 38  1  0
 38 41  1  1
 38 39  1  0
 40 38  1  0
 42 45  1  0
 43 47  1  0
 43 42  1  0
 44 43  2  0
 47 46  1  0
 49 47  1  0
 49 50  1  0
 49 48  1  0
 51 52  1  0
 53 61  1  0
 54 59  1  0
 55 56  1  0
 55 54  1  0
 57 56  1  0
 57 66  1  0
 57 58  1  0
 59 53  1  0
 59 58  1  0
 60 53  2  0
 61 52  1  0
 61 62  1  0
 63 64  2  0
 64 83  1  0
 65 64  1  0
 65 68  1  0
 66 63  1  0
 66 67  1  0
 67 65  2  0
 68 69  1  0
 69 70  2  0
 71 74  1  0
 71 70  1  0
 72 71  2  0
 73 72  1  0
 73 68  2  0
 74 75  1  0
 75 76  1  0
 76 77  2  0
 78 77  1  0
 78 82  1  0
 79 78  2  0
 80 75  2  0
 80 79  1  0
 81 80  1  0
 83 84  1  0
 84 87  1  0
 84 86  1  0
 85 83  2  0
 88 89  1  0
 88 63  1  0
 90 88  1  0
M  ISO  4   9 101  10 101  53 100  61 100
M  END
>  <TORSDO>  (19) 
F 20

>  <SCORE>  (19) 
-13.880

>  <name>  (19) 
18

>  <ligand_id>  (19) 
18

>  <original_smiles>  (19) 
[H]c1c([H])c([H])c2c(c1[H])C([H])([H])C([H])([H])C([H])([H])C2([H])N([H])C(=O)C1([H])N(C(=O)C([H])(N([H])C(=O)C([H])(N([H])C([H])([H])[H])C([H])([H])[H])C(C([H])([H])[H])(C([H])([H])[H])C([H])([H])[H])C([H])([H])c2c([H])c(OC([H])([H])C([H])([H])C3([H])C([H])([H])C4([H])C([H])([H])C([H])(C([H])([H])C([H])([H])N([H])C(=O)N5C([H])([H])C([H])([H])C([H])([H])C([H])(n6nc(-c7c([H])c([H])c(Oc8c([H])c([H])c(F)c([H])c8F)c([H])c7[H])c(C(=O)N([H])[H])c6N([H])[H])C5([H])[H])C4([H])C3([H])[H])c([H])c([H])c2C1([H])[H]

>  <smiles>  (19) 
[H]c1c([H])c([H])c2c(c1[H])C([H])([H])C([H])([H])C([H])([H])C2([H])N([H])C(=O)C1([H])N(C(=O)C([H])(N([H])C(=O)C([H])(N([H])C([H])([H])[H])C([H])([H])[H])C(C([H])([H])[H])(C([H])([H])[H])C([H])([H])[H])C([H])([H])c2c([H])c(OC([H])([H])C([H])([H])C3([H])C([H])([H])C4([H])C([H])([H])C([H])(C([H])([H])C([H])([H])N([H])C(=O)N5C([H])([H])C([H])([H])C([H])([H])C([H])(n6nc(-c7c([H])c([H])c(Oc8c([H])c([H])c(F)c([H])c8F)c([H])c7[H])c(C(=O)N([H])[H])c6N([H])[H])C5([H])[H])C4([H])C3([H])[H])c([H])c([H])c2C1([H])[H]

$$$$
19:0:0
     RDKit          3D

 93102  0  0  1  0  0  0  0  0999 V2000
  -31.6290  -20.4200   19.7040 C   0  0  0  0  0  2  0  0  0  0  0  0
  -30.5410  -20.0730   18.6860 C   0  0  0  0  0  2  0  0  0  0  0  0
  -30.0750  -22.2990   20.7250 C   0  0  0  0  0  2  0  0  0  0  0  0
  -30.5190  -20.8330   20.6760 C   0  0  0  0  0  3  0  0  0  0  0  0
  -28.9300  -22.4200   19.7010 C   0  0  0  0  0  3  0  0  0  0  0  0
  -29.5270  -19.9880   19.8530 C   0  0  1  0  0  0  0  0  0  0  0  0
  -28.4550  -21.0110   19.7220 O   0  0  0  0  0  0  0  0  0  0  0  0
  -26.6560  -23.3390   19.0090 C   0  0  0  0  0  1  0  0  0  0  0  0
  -27.9190  -23.7010   19.8240 C   0  0  1  0  0  0  0  0  0  0  0  0
  -26.6940  -22.8610   21.9880 C   0  0  0  0  0  1  0  0  0  0  0  0
  -27.4890  -23.9810   21.2890 C   0  0  0  0  0  2  0  0  0  0  0  0
  -28.5170  -25.0790   19.2010 C   0  0  0  0  0  2  0  0  0  0  0  0
  -28.3520  -26.4600   19.7470 O   0  0  0  0  0  0  0  0  0  0  0  0
  -24.5100  -31.6170   22.9780 C   0  0  0  0  0  0  0  0  0  0  0  0
  -27.1980  -27.2610   19.6840 C   0  0  0  0  0  0  0  0  0  0  0  0
  -23.3190  -30.2660   21.2840 C   0  0  0  0  0  3  0  0  0  0  0  0
  -24.7940  -28.8170   19.7650 C   0  0  0  0  0  0  0  0  0  0  0  0
  -25.8450  -30.6580   21.0850 C   0  0  0  0  0  2  0  0  0  0  0  0
  -25.9520  -29.3080   20.3780 C   0  0  0  0  0  0  0  0  0  0  0  0
  -27.1520  -28.5370   20.3360 C   0  0  0  0  0  3  0  0  0  0  0  0
  -26.0270  -26.8370   19.0270 C   0  0  0  0  0  3  0  0  0  0  0  0
  -24.8340  -27.5910   19.0790 C   0  0  0  0  0  3  0  0  0  0  0  0
  -23.5340  -29.6540   19.8710 C   0  0  0  0  0  2  0  0  0  0  0  0
  -24.5760  -30.8640   21.8400 N   0  0  0  0  0  0  0  0  0  0  0  0
  -23.4270  -31.8410   23.5400 O   0  0  0  0  0  0  0  0  0  0  0  0
  -22.6920  -29.1930   22.2050 C   0  0  0  0  0  0  0  0  0  0  0  0
  -21.3640  -29.0060   22.1080 N   0  0  0  0  0  0  0  0  0  0  0  0
  -23.4000  -28.5310   22.9700 O   0  0  0  0  0  0  0  0  0  0  0  0
  -20.8450  -29.5980   21.4750 H   0  0  0  0  0  0  0  0  0  0  0  0
  -18.0150  -27.7560   22.6430 C   0  0  0  0  0  0  0  0  0  0  0  0
  -20.5790  -28.0130   22.8450 C   0  0  0  0  0  3  0  0  0  0  0  0
  -20.6660  -26.6210   22.1750 C   0  0  0  0  0  2  0  0  0  0  0  0
  -19.5350  -26.3590   21.1780 C   0  0  0  0  0  2  0  0  0  0  0  0
  -18.1760  -26.4530   21.8770 C   0  0  0  0  0  2  0  0  0  0  0  0
  -19.1440  -28.4950   23.0850 C   0  0  0  0  0  0  0  0  0  0  0  0
  -18.9390  -29.7180   23.7620 C   0  0  0  0  0  3  0  0  0  0  0  0
  -17.6390  -30.1990   24.0000 C   0  0  0  0  0  3  0  0  0  0  0  0
  -16.5250  -29.4530   23.5780 C   0  0  0  0  0  3  0  0  0  0  0  0
  -16.7150  -28.2320   22.9060 C   0  0  0  0  0  3  0  0  0  0  0  0
  -25.7840  -32.2530   23.6160 C   0  0  0  0  0  3  0  0  0  0  0  0
  -25.4410  -33.6200   24.0320 N   0  0  0  0  0  0  0  0  0  0  0  0
  -25.7200  -34.7240   23.3270 C   0  0  0  0  0  0  0  0  0  0  0  0
  -26.3640  -34.7030   22.2750 O   0  0  0  0  0  0  0  0  0  0  0  0
  -24.8680  -33.7080   24.8580 H   0  0  0  0  0  0  0  0  0  0  0  0
  -23.9240  -36.4740   23.1330 C   0  0  0  0  0  1  0  0  0  0  0  0
  -25.2040  -36.0660   23.8800 C   0  0  0  0  0  3  0  0  0  0  0  0
  -27.3340  -36.9790   24.6910 C   0  0  0  0  0  1  0  0  0  0  0  0
  -26.1950  -37.1610   23.7960 N   0  0  0  0  0  0  0  0  0  0  0  0
  -25.7600  -38.0540   24.0140 H   0  0  0  0  0  0  0  0  0  0  0  0
  -26.3480  -31.4280   24.8400 C   0  0  1  0  0  0  0  0  0  0  0  0
  -25.2850  -31.1040   25.9170 C   0  0  0  0  0  1  0  0  0  0  0  0
  -26.9550  -30.0910   24.3620 C   0  0  0  0  0  1  0  0  0  0  0  0
  -27.4900  -32.2160   25.5250 C   0  0  0  0  0  1  0  0  0  0  0  0
  -29.1010  -18.4860   20.2810 C   0  0  0  0  0  3  0  0  0  0  0  0
  -30.2040  -17.3030   20.3090 C   0  0  0  0  0  3  0  0  0  0  0  0
  -30.5550  -14.7260   20.3330 C   0  0  0  0  0  0  0  0  0  0  0  0
  -30.3440  -12.4380   19.3750 C   0  0  0  0  0  2  0  0  0  0  0  0
  -29.4120  -12.5000   18.1450 C   0  0  0  0  0  2  0  0  0  0  0  0
  -27.9410  -12.3500   18.5780 C   0  0  0  0  0  2  0  0  0  0  0  0
  -27.5700  -13.2720   19.7710 C   0  0  0  0  0  3  0  0  0  0  0  0
  -28.6210  -13.1890   20.9000 C   0  0  0  0  0  2  0  0  0  0  0  0
  -29.9230  -13.5080   20.3030 N   0  0  0  0  0  0  0  0  0  0  0  0
  -31.7370  -14.8250   19.9940 O   0  0  0  0  0  0  0  0  0  0  0  0
  -29.7830  -15.8540   20.5200 N   0  0  0  0  0  0  0  0  0  0  0  0
  -28.8100  -15.6860   20.7310 H   0  0  0  0  0  0  0  0  0  0  0  0
  -25.1930  -13.8990   20.5000 C   0  0  0  0  0  0  0  0  0  0  0  0
  -24.1190  -13.1400   20.8760 C   0  0  0  0  0  0  0  0  0  0  0  0
  -24.5630  -11.7810   20.8440 C   0  0  0  0  0  0  0  0  0  0  0  0
  -26.2230  -13.0050   20.2610 N   0  0  0  0  0  0  0  0  0  0  0  0
  -25.8520  -11.7260   20.5320 N   0  0  0  0  0  0  0  0  0  0  0  0
  -23.8210  -10.5290   21.0390 C   0  0  0  0  0  0  0  0  0  0  0  0
  -24.2570   -9.5510   21.9590 C   0  0  0  0  0  3  0  0  0  0  0  0
  -23.5190   -8.3610   22.1410 C   0  0  0  0  0  3  0  0  0  0  0  0
  -22.3310   -8.1440   21.4040 C   0  0  0  0  0  0  0  0  0  0  0  0
  -21.9140   -9.1110   20.4710 C   0  0  0  0  0  3  0  0  0  0  0  0
  -22.6530  -10.2910   20.2880 C   0  0  0  0  0  3  0  0  0  0  0  0
  -21.5650   -7.0090   21.4950 O   0  0  0  0  0  0  0  0  0  0  0  0
  -21.5380   -6.2480   22.6360 C   0  0  0  0  0  0  0  0  0  0  0  0
  -21.1710   -6.7920   23.8870 C   0  0  0  0  0  3  0  0  0  0  0  0
  -21.0920   -5.9600   25.0210 C   0  0  0  0  0  3  0  0  0  0  0  0
  -21.3670   -4.5840   24.9070 C   0  0  0  0  0  0  0  0  0  0  0  0
  -21.7240   -4.0400   23.6610 C   0  0  0  0  0  3  0  0  0  0  0  0
  -21.8070   -4.8690   22.5290 C   0  0  0  0  0  0  0  0  0  0  0  0
  -22.1330   -4.3350   21.3280 F   0  0  0  0  0  0  0  0  0  0  0  0
  -21.2820   -3.7830   25.9940 F   0  0  0  0  0  0  0  0  0  0  0  0
  -22.7290  -13.6340   21.1490 C   0  0  0  0  0  0  0  0  0  0  0  0
  -21.9970  -12.9520   22.0230 N   0  0  0  0  0  0  0  0  0  0  0  0
  -22.3000  -14.6600   20.6210 O   0  0  0  0  0  0  0  0  0  0  0  0
  -22.3570  -12.1190   22.4660 H   0  0  0  0  0  0  0  0  0  0  0  0
  -21.0630  -13.2640   22.2500 H   0  0  0  0  0  0  0  0  0  0  0  0
  -25.3760  -15.2680   20.3180 N   0  0  0  0  0  0  0  0  0  0  0  0
  -24.6170  -15.9310   20.4260 H   0  0  0  0  0  0  0  0  0  0  0  0
  -26.2160  -15.6880   19.9380 H   0  0  0  0  0  0  0  0  0  0  0  0
  2  1  1  0
  2  6  1  0
  4  1  1  0
  4  3  1  0
  5  7  1  0
  5  9  1  0
  5  3  1  0
  6 54  1  1
  6  4  1  0
  7  6  1  0
  9  8  1  6
  9 11  1  0
 11 10  1  0
 12 13  1  0
 12  9  1  0
 14 25  2  0
 15 13  1  0
 15 20  1  0
 16 24  1  0
 16 26  1  0
 17 23  1  0
 17 19  1  0
 18 24  1  0
 19 18  1  0
 20 19  2  0
 21 22  1  0
 21 15  2  0
 22 17  2  0
 23 16  1  0
 24 14  1  0
 26 28  2  0
 27 26  1  0
 29 27  1  0
 30 39  2  0
 30 35  1  0
 31 27  1  0
 31 35  1  0
 32 31  1  0
 33 34  1  0
 33 32  1  0
 34 30  1  0
 35 36  2  0
 36 37  1  0
 38 37  2  0
 39 38  1  0
 40 14  1  0
 40 41  1  0
 40 50  1  0
 41 44  1  0
 42 46  1  0
 42 41  1  0
 43 42  2  0
 46 45  1  0
 48 46  1  0
 48 49  1  0
 48 47  1  0
 50 53  1  1
 50 51  1  0
 52 50  1  0
 54 55  2  0
 55 64  1  0
 56 64  1  0
 57 62  1  0
 58 59  1  0
 58 57  1  0
 60 59  1  0
 60 69  1  0
 60 61  1  0
 62 56  1  0
 62 61  1  0
 63 56  2  0
 64 65  1  0
 66 67  2  0
 67 86  1  0
 68 67  1  0
 68 71  1  0
 69 66  1  0
 69 70  1  0
 70 68  2  0
 71 72  1  0
 72 73  2  0
 74 77  1  0
 74 73  1  0
 75 74  2  0
 76 75  1  0
 76 71  2  0
 77 78  1  0
 78 79  1  0
 79 80  2  0
 81 80  1  0
 81 85  1  0
 82 81  2  0
 83 78  2  0
 83 82  1  0
 84 83  1  0
 86 87  1  0
 87 90  1  0
 87 89  1  0
 88 86  2  0
 91 92  1  0
 91 66  1  0
 93 91  1  0
M  ISO  4  12 101  13 101  56 100  64 100
M  END
>  <TORSDO>  (20) 
F 21

>  <SCORE>  (20) 
-12.825

>  <name>  (20) 
19

>  <ligand_id>  (20) 
19

>  <original_smiles>  (20) 
[H]c1c([H])c([H])c2c(c1[H])C([H])([H])C([H])([H])C([H])([H])C2([H])N([H])C(=O)C1([H])N(C(=O)C([H])(N([H])C(=O)C([H])(N([H])C([H])([H])[H])C([H])([H])[H])C(C([H])([H])[H])(C([H])([H])[H])C([H])([H])[H])C([H])([H])c2c([H])c(OC([H])([H])C(C([H])([H])[H])(C([H])([H])C([H])([H])[H])C3([H])OC4(C([H])([H])C([H])([H])N([H])C(=O)N5C([H])([H])C([H])([H])C([H])([H])C([H])(n6nc(-c7c([H])c([H])c(Oc8c([H])c([H])c(F)c([H])c8F)c([H])c7[H])c(C(=O)N([H])[H])c6N([H])[H])C5([H])[H])C([H])([H])C([H])([H])C4([H])C3([H])[H])c([H])c([H])c2C1([H])[H]

>  <smiles>  (20) 
[H]c1c([H])c([H])c2c(c1[H])C([H])([H])C([H])([H])C([H])([H])C2([H])N([H])C(=O)C1([H])N(C(=O)C([H])(N([H])C(=O)C([H])(N([H])C([H])([H])[H])C([H])([H])[H])C(C([H])([H])[H])(C([H])([H])[H])C([H])([H])[H])C([H])([H])c2c([H])c(OC([H])([H])C(C([H])([H])[H])(C([H])([H])C([H])([H])[H])C3([H])OC4(C([H])([H])C([H])([H])N([H])C(=O)N5C([H])([H])C([H])([H])C([H])([H])C([H])(n6nc(-c7c([H])c([H])c(Oc8c([H])c([H])c(F)c([H])c8F)c([H])c7[H])c(C(=O)N([H])[H])c6N([H])[H])C5([H])[H])C([H])([H])C([H])([H])C4([H])C3([H])[H])c([H])c([H])c2C1([H])[H]

$$$$
20:0:0
     RDKit          3D

 94103  0  0  1  0  0  0  0  0999 V2000
  -30.9680  -22.9540   21.3660 C   0  0  0  0  0  3  0  0  0  0  0  0
  -30.4810  -21.7680   20.7870 C   0  0  0  0  0  3  0  0  0  0  0  0
  -30.2020  -24.1330   21.3360 C   0  0  0  0  0  3  0  0  0  0  0  0
  -29.2210  -21.7280   20.1550 C   0  0  0  0  0  0  0  0  0  0  0  0
  -28.9320  -24.1550   20.7240 C   0  0  0  0  0  0  0  0  0  0  0  0
  -28.4420  -22.9440   20.1190 C   0  0  0  0  0  0  0  0  0  0  0  0
  -27.7520  -19.5430   20.0320 C   0  0  0  0  0  2  0  0  0  0  0  0
  -28.7930  -20.4410   19.4310 C   0  0  0  0  0  3  0  0  0  0  0  0
  -29.0840  -18.9220   19.6850 C   0  0  0  0  0  3  0  0  0  0  0  0
  -29.7950  -18.1880   20.8340 C   0  0  0  0  0  2  0  0  0  0  0  0
  -30.7240  -16.9970   20.4180 C   0  0  0  0  0  2  0  0  0  0  0  0
  -30.7810  -14.5270   19.9680 C   0  0  0  0  0  0  0  0  0  0  0  0
  -30.4000  -12.3110   18.9410 C   0  0  0  0  0  2  0  0  0  0  0  0
  -29.4240  -12.4630   17.7560 C   0  0  0  0  0  2  0  0  0  0  0  0
  -27.9650  -12.3640   18.2390 C   0  0  0  0  0  2  0  0  0  0  0  0
  -27.6790  -13.2730   19.4640 C   0  0  0  0  0  3  0  0  0  0  0  0
  -28.7670  -13.1130   20.5490 C   0  0  0  0  0  2  0  0  0  0  0  0
  -30.0710  -13.3630   19.9200 N   0  0  0  0  0  0  0  0  0  0  0  0
  -31.9080  -14.6280   19.4780 O   0  0  0  0  0  0  0  0  0  0  0  0
  -30.1390  -15.6300   20.4310 N   0  0  0  0  0  0  0  0  0  0  0  0
  -29.2030  -15.5110   20.7890 H   0  0  0  0  0  0  0  0  0  0  0  0
  -25.3380  -13.9620   20.2750 C   0  0  0  0  0  0  0  0  0  0  0  0
  -24.2600  -13.2260   20.6870 C   0  0  0  0  0  0  0  0  0  0  0  0
  -24.6710  -11.8600   20.6370 C   0  0  0  0  0  0  0  0  0  0  0  0
  -26.3390  -13.0450   19.9990 N   0  0  0  0  0  0  0  0  0  0  0  0
  -25.9440  -11.7750   20.2750 N   0  0  0  0  0  0  0  0  0  0  0  0
  -23.9070  -10.6230   20.8540 C   0  0  0  0  0  0  0  0  0  0  0  0
  -24.3330   -9.6430   21.7770 C   0  0  0  0  0  3  0  0  0  0  0  0
  -23.5710   -8.4730   21.9810 C   0  0  0  0  0  3  0  0  0  0  0  0
  -22.3680   -8.2740   21.2630 C   0  0  0  0  0  0  0  0  0  0  0  0
  -21.9610   -9.2430   20.3270 C   0  0  0  0  0  3  0  0  0  0  0  0
  -22.7230  -10.4050   20.1200 C   0  0  0  0  0  3  0  0  0  0  0  0
  -21.5770   -7.1570   21.3780 O   0  0  0  0  0  0  0  0  0  0  0  0
  -21.5280   -6.4270   22.5390 C   0  0  0  0  0  0  0  0  0  0  0  0
  -21.1580   -7.0080   23.7710 C   0  0  0  0  0  3  0  0  0  0  0  0
  -21.0540   -6.2050   24.9260 C   0  0  0  0  0  3  0  0  0  0  0  0
  -21.3100   -4.8240   24.8490 C   0  0  0  0  0  0  0  0  0  0  0  0
  -21.6720   -4.2420   23.6210 C   0  0  0  0  0  3  0  0  0  0  0  0
  -21.7790   -5.0420   22.4690 C   0  0  0  0  0  0  0  0  0  0  0  0
  -22.1080   -4.4720   21.2850 F   0  0  0  0  0  0  0  0  0  0  0  0
  -21.2020   -4.0510   25.9550 F   0  0  0  0  0  0  0  0  0  0  0  0
  -22.8920  -13.7530   21.0180 C   0  0  0  0  0  0  0  0  0  0  0  0
  -22.1780  -13.0830   21.9170 N   0  0  0  0  0  0  0  0  0  0  0  0
  -22.4680  -14.7920   20.5160 O   0  0  0  0  0  0  0  0  0  0  0  0
  -22.5330  -12.2400   22.3440 H   0  0  0  0  0  0  0  0  0  0  0  0
  -21.2630  -13.4160   22.1830 H   0  0  0  0  0  0  0  0  0  0  0  0
  -25.5470  -15.3260   20.0920 N   0  0  0  0  0  0  0  0  0  0  0  0
  -24.8140  -16.0150   20.2310 H   0  0  0  0  0  0  0  0  0  0  0  0
  -26.4010  -15.7280   19.7270 H   0  0  0  0  0  0  0  0  0  0  0  0
  -27.1070  -22.9600   19.3600 C   0  0  0  0  0  2  0  0  0  0  0  0
  -25.4280  -23.6290   21.2570 C   0  0  0  0  0  1  0  0  0  0  0  0
  -25.8470  -22.6150   20.1840 C   0  0  0  0  0  2  0  0  0  0  0  0
  -28.0940  -25.4510   20.8910 C   0  0  0  0  0  2  0  0  0  0  0  0
  -28.3800  -26.6080   20.0530 O   0  0  0  0  0  0  0  0  0  0  0  0
  -24.6120  -31.8550   23.1270 C   0  0  0  0  0  0  0  0  0  0  0  0
  -27.2840  -27.4540   19.9830 C   0  0  0  0  0  0  0  0  0  0  0  0
  -23.4240  -30.4720   21.4590 C   0  0  0  0  0  3  0  0  0  0  0  0
  -24.8940  -28.9790   20.0000 C   0  0  0  0  0  0  0  0  0  0  0  0
  -25.9520  -30.8490   21.2760 C   0  0  0  0  0  2  0  0  0  0  0  0
  -26.0510  -29.4900   20.6040 C   0  0  0  0  0  0  0  0  0  0  0  0
  -27.2560  -28.7370   20.5900 C   0  0  0  0  0  3  0  0  0  0  0  0
  -26.1160  -26.9850   19.3480 C   0  0  0  0  0  3  0  0  0  0  0  0
  -24.9230  -27.7280   19.3640 C   0  0  0  0  0  3  0  0  0  0  0  0
  -23.6430  -29.8260   20.0660 C   0  0  0  0  0  2  0  0  0  0  0  0
  -24.6810  -31.0730   22.0120 N   0  0  0  0  0  0  0  0  0  0  0  0
  -23.5270  -32.1070   23.6690 O   0  0  0  0  0  0  0  0  0  0  0  0
  -22.7770  -29.4280   22.4000 C   0  0  0  0  0  0  0  0  0  0  0  0
  -21.4480  -29.2620   22.2930 N   0  0  0  0  0  0  0  0  0  0  0  0
  -23.4690  -28.7730   23.1850 O   0  0  0  0  0  0  0  0  0  0  0  0
  -20.9500  -29.8430   21.6340 H   0  0  0  0  0  0  0  0  0  0  0  0
  -18.0670  -28.1140   22.8600 C   0  0  0  0  0  0  0  0  0  0  0  0
  -20.6380  -28.3090   23.0510 C   0  0  0  0  0  3  0  0  0  0  0  0
  -20.6890  -26.9010   22.4120 C   0  0  0  0  0  2  0  0  0  0  0  0
  -19.5460  -26.6470   21.4240 C   0  0  0  0  0  2  0  0  0  0  0  0
  -18.1910  -26.7910   22.1220 C   0  0  0  0  0  2  0  0  0  0  0  0
  -19.2160  -28.8340   23.2830 C   0  0  0  0  0  0  0  0  0  0  0  0
  -19.0450  -30.0740   23.9350 C   0  0  0  0  0  3  0  0  0  0  0  0
  -17.7580  -30.5950   24.1660 C   0  0  0  0  0  3  0  0  0  0  0  0
  -16.6240  -29.8710   23.7590 C   0  0  0  0  0  3  0  0  0  0  0  0
  -16.7800  -28.6310   23.1110 C   0  0  0  0  0  3  0  0  0  0  0  0
  -25.8900  -32.4890   23.7600 C   0  0  0  0  0  3  0  0  0  0  0  0
  -25.5680  -33.8790   24.1090 N   0  0  0  0  0  0  0  0  0  0  0  0
  -25.8900  -34.9440   23.3630 C   0  0  0  0  0  0  0  0  0  0  0  0
  -26.5580  -34.8590   22.3290 O   0  0  0  0  0  0  0  0  0  0  0  0
  -24.9730  -34.0180   24.9130 H   0  0  0  0  0  0  0  0  0  0  0  0
  -24.1390  -36.7220   23.0380 C   0  0  0  0  0  1  0  0  0  0  0  0
  -25.3890  -36.3220   23.8370 C   0  0  0  0  0  3  0  0  0  0  0  0
  -27.5210  -37.2200   24.6630 C   0  0  0  0  0  1  0  0  0  0  0  0
  -26.4110  -37.3870   23.7290 N   0  0  0  0  0  0  0  0  0  0  0  0
  -25.9960  -38.3010   23.8880 H   0  0  0  0  0  0  0  0  0  0  0  0
  -26.4120  -31.7030   25.0250 C   0  0  1  0  0  0  0  0  0  0  0  0
  -25.3220  -31.4390   26.0900 C   0  0  0  0  0  1  0  0  0  0  0  0
  -27.0060  -30.3350   24.6100 C   0  0  0  0  0  1  0  0  0  0  0  0
  -27.5570  -32.4950   25.6990 C   0  0  0  0  0  1  0  0  0  0  0  0
  2  1  2  0
  3  1  1  0
  4  2  1  0
  5 53  1  0
  5  3  2  0
  6  4  2  0
  6  5  1  0
  8  9  1  0
  8  7  1  0
  8  4  1  0
  9  7  1  0
  9 10  1  0
 11 20  1  0
 11 10  1  0
 12 20  1  0
 13 18  1  0
 14 15  1  0
 14 13  1  0
 16 15  1  0
 16 25  1  0
 16 17  1  0
 18 12  1  0
 18 17  1  0
 19 12  2  0
 20 21  1  0
 22 23  2  0
 23 42  1  0
 24 23  1  0
 24 27  1  0
 25 22  1  0
 25 26  1  0
 26 24  2  0
 27 28  1  0
 28 29  2  0
 30 33  1  0
 30 29  1  0
 31 30  2  0
 32 31  1  0
 32 27  2  0
 33 34  1  0
 34 35  1  0
 35 36  2  0
 37 36  1  0
 37 41  1  0
 38 37  2  0
 39 34  2  0
 39 38  1  0
 40 39  1  0
 42 43  1  0
 43 46  1  0
 43 45  1  0
 44 42  2  0
 47 48  1  0
 47 22  1  0
 49 47  1  0
 50  6  1  0
 50 52  1  0
 52 51  1  0
 54 53  1  0
 55 66  2  0
 56 54  1  0
 56 61  1  0
 57 65  1  0
 57 67  1  0
 58 64  1  0
 58 60  1  0
 59 65  1  0
 60 59  1  0
 61 60  2  0
 62 63  1  0
 62 56  2  0
 63 58  2  0
 64 57  1  0
 65 55  1  0
 67 69  2  0
 68 67  1  0
 70 68  1  0
 71 80  2  0
 71 76  1  0
 72 68  1  0
 72 76  1  0
 73 72  1  0
 74 75  1  0
 74 73  1  0
 75 71  1  0
 76 77  2  0
 77 78  1  0
 79 78  2  0
 80 79  1  0
 81 55  1  0
 81 82  1  0
 81 91  1  0
 82 85  1  0
 83 87  1  0
 83 82  1  0
 84 83  2  0
 87 86  1  0
 89 87  1  0
 89 90  1  0
 89 88  1  0
 91 94  1  1
 91 92  1  0
 93 91  1  0
M  ISO  4  12 100  20 100  53 101  54 101
M  END
>  <TORSDO>  (21) 
F 22

>  <SCORE>  (21) 
-12.865

>  <name>  (21) 
20

>  <ligand_id>  (21) 
20

>  <original_smiles>  (21) 
[H]c1c([H])c([H])c2c(c1[H])C([H])([H])C([H])([H])C([H])([H])C2([H])N([H])C(=O)C1([H])N(C(=O)C([H])(N([H])C(=O)C([H])(N([H])C([H])([H])[H])C([H])([H])[H])C(C([H])([H])[H])(C([H])([H])[H])C([H])([H])[H])C([H])([H])c2c([H])c(OC([H])([H])c3c([H])c([H])c([H])c(C4([H])C([H])([H])C4([H])C([H])([H])C([H])([H])N([H])C(=O)N4C([H])([H])C([H])([H])C([H])([H])C([H])(n5nc(-c6c([H])c([H])c(Oc7c([H])c([H])c(F)c([H])c7F)c([H])c6[H])c(C(=O)N([H])[H])c5N([H])[H])C4([H])[H])c3C([H])([H])C([H])([H])C([H])([H])[H])c([H])c([H])c2C1([H])[H]

>  <smiles>  (21) 
[H]c1c([H])c([H])c2c(c1[H])C([H])([H])C([H])([H])C([H])([H])C2([H])N([H])C(=O)C1([H])N(C(=O)C([H])(N([H])C(=O)C([H])(N([H])C([H])([H])[H])C([H])([H])[H])C(C([H])([H])[H])(C([H])([H])[H])C([H])([H])[H])C([H])([H])c2c([H])c(OC([H])([H])c3c([H])c([H])c([H])c(C4([H])C([H])([H])C4([H])C([H])([H])C([H])([H])N([H])C(=O)N4C([H])([H])C([H])([H])C([H])([H])C([H])(n5nc(-c6c([H])c([H])c(Oc7c([H])c([H])c(F)c([H])c7F)c([H])c6[H])c(C(=O)N([H])[H])c5N([H])[H])C4([H])[H])c3C([H])([H])C([H])([H])C([H])([H])[H])c([H])c([H])c2C1([H])[H]

$$$$
21:0:0
     RDKit          3D

 90 99  0  0  1  0  0  0  0  0999 V2000
  -31.3380  -21.7340   21.8630 C   0  0  0  0  0  2  0  0  0  0  0  0
  -31.3350  -20.5410   20.9030 C   0  0  0  0  0  2  0  0  0  0  0  0
  -29.6270  -20.1070   22.6360 C   0  0  0  0  0  2  0  0  0  0  0  0
  -29.9180  -21.5860   22.3740 C   0  0  0  0  0  3  0  0  0  0  0  0
  -28.9680  -21.4060   21.1720 C   0  0  0  0  0  3  0  0  0  0  0  0
  -29.8980  -20.0660   21.1140 C   0  0  1  0  0  0  0  0  0  0  0  0
  -28.9330  -22.6490   20.1700 C   0  0  0  0  0  2  0  0  0  0  0  0
  -28.5790  -24.1100   20.7480 C   0  0  0  0  0  3  0  0  0  0  0  0
  -28.7510  -25.3550   19.7600 C   0  0  0  0  0  3  0  0  0  0  0  0
  -28.6290  -26.7550   20.2330 O   0  0  0  0  0  0  0  0  0  0  0  0
  -24.6980  -31.9620   23.1910 C   0  0  0  0  0  0  0  0  0  0  0  0
  -27.4620  -27.5270   20.1290 C   0  0  0  0  0  0  0  0  0  0  0  0
  -23.5450  -30.5530   21.5170 C   0  0  0  0  0  3  0  0  0  0  0  0
  -25.0530  -29.0660   20.0790 C   0  0  0  0  0  0  0  0  0  0  0  0
  -26.0680  -30.9590   21.3550 C   0  0  0  0  0  2  0  0  0  0  0  0
  -26.1950  -29.5900   20.7000 C   0  0  0  0  0  0  0  0  0  0  0  0
  -27.4000  -28.8290   20.7150 C   0  0  0  0  0  3  0  0  0  0  0  0
  -26.3010  -27.0530   19.4820 C   0  0  0  0  0  3  0  0  0  0  0  0
  -25.1110  -27.8080   19.4590 C   0  0  0  0  0  3  0  0  0  0  0  0
  -23.7880  -29.9020   20.1270 C   0  0  0  0  0  2  0  0  0  0  0  0
  -24.7870  -31.1770   22.0780 N   0  0  0  0  0  0  0  0  0  0  0  0
  -23.6040  -32.1970   23.7220 O   0  0  0  0  0  0  0  0  0  0  0  0
  -22.9090  -29.5030   22.4610 C   0  0  0  0  0  0  0  0  0  0  0  0
  -21.5840  -29.3110   22.3470 N   0  0  0  0  0  0  0  0  0  0  0  0
  -23.6060  -28.8690   23.2590 O   0  0  0  0  0  0  0  0  0  0  0  0
  -21.0830  -29.8820   21.6790 H   0  0  0  0  0  0  0  0  0  0  0  0
  -18.2210  -28.0850   22.8750 C   0  0  0  0  0  0  0  0  0  0  0  0
  -20.7840  -28.3430   23.1000 C   0  0  0  0  0  3  0  0  0  0  0  0
  -20.8750  -26.9330   22.4720 C   0  0  0  0  0  2  0  0  0  0  0  0
  -19.7540  -26.6460   21.4690 C   0  0  0  0  0  2  0  0  0  0  0  0
  -18.3840  -26.7650   22.1390 C   0  0  0  0  0  2  0  0  0  0  0  0
  -19.3480  -28.8330   23.3100 C   0  0  0  0  0  0  0  0  0  0  0  0
  -19.1420  -30.0720   23.9550 C   0  0  0  0  0  3  0  0  0  0  0  0
  -17.8410  -30.5660   24.1660 C   0  0  0  0  0  3  0  0  0  0  0  0
  -16.7290  -29.8140   23.7500 C   0  0  0  0  0  3  0  0  0  0  0  0
  -16.9200  -28.5760   23.1100 C   0  0  0  0  0  3  0  0  0  0  0  0
  -25.9590  -32.6200   23.8330 C   0  0  0  0  0  3  0  0  0  0  0  0
  -25.6230  -34.0160   24.1380 N   0  0  0  0  0  0  0  0  0  0  0  0
  -25.9510  -35.0660   23.3740 C   0  0  0  0  0  0  0  0  0  0  0  0
  -26.6390  -34.9640   22.3540 O   0  0  0  0  0  0  0  0  0  0  0  0
  -25.0290  -34.1770   24.9380 H   0  0  0  0  0  0  0  0  0  0  0  0
  -24.2010  -36.8260   22.9710 C   0  0  0  0  0  1  0  0  0  0  0  0
  -25.4310  -36.4500   23.8090 C   0  0  0  0  0  3  0  0  0  0  0  0
  -27.5320  -37.3760   24.6760 C   0  0  0  0  0  1  0  0  0  0  0  0
  -26.4460  -37.5210   23.7110 N   0  0  0  0  0  0  0  0  0  0  0  0
  -26.0200  -38.4330   23.8490 H   0  0  0  0  0  0  0  0  0  0  0  0
  -26.4580  -31.8730   25.1320 C   0  0  1  0  0  0  0  0  0  0  0  0
  -25.3420  -31.6280   26.1770 C   0  0  0  0  0  1  0  0  0  0  0  0
  -27.0740  -30.5020   24.7640 C   0  0  0  0  0  1  0  0  0  0  0  0
  -27.5860  -32.6920   25.8030 C   0  0  0  0  0  1  0  0  0  0  0  0
  -29.6170  -18.6460   20.4160 C   0  0  0  0  0  3  0  0  0  0  0  0
  -30.5450  -17.3940   20.8520 C   0  0  0  0  0  3  0  0  0  0  0  0
  -30.9030  -14.9080   20.0620 C   0  0  0  0  0  0  0  0  0  0  0  0
  -30.6620  -12.6680   18.9690 C   0  0  0  0  0  2  0  0  0  0  0  0
  -29.6680  -12.7680   17.7890 C   0  0  0  0  0  2  0  0  0  0  0  0
  -28.2140  -12.6100   18.2800 C   0  0  0  0  0  2  0  0  0  0  0  0
  -27.9070  -13.4890   19.5200 C   0  0  0  0  0  3  0  0  0  0  0  0
  -29.0000  -13.3350   20.5970 C   0  0  0  0  0  2  0  0  0  0  0  0
  -30.2780  -13.6870   19.9690 N   0  0  0  0  0  0  0  0  0  0  0  0
  -32.0480  -15.0630   19.6260 O   0  0  0  0  0  0  0  0  0  0  0  0
  -30.1480  -15.9660   20.5240 N   0  0  0  0  0  0  0  0  0  0  0  0
  -29.2150  -15.7040   20.8120 H   0  0  0  0  0  0  0  0  0  0  0  0
  -25.5620  -14.1260   20.3480 C   0  0  0  0  0  0  0  0  0  0  0  0
  -24.4950  -13.3700   20.7500 C   0  0  0  0  0  0  0  0  0  0  0  0
  -24.9270  -12.0080   20.6780 C   0  0  0  0  0  0  0  0  0  0  0  0
  -26.5770  -13.2260   20.0550 N   0  0  0  0  0  0  0  0  0  0  0  0
  -26.2010  -11.9480   20.3130 N   0  0  0  0  0  0  0  0  0  0  0  0
  -24.1840  -10.7590   20.8830 C   0  0  0  0  0  0  0  0  0  0  0  0
  -24.5970   -9.7980   21.8340 C   0  0  0  0  0  3  0  0  0  0  0  0
  -23.8550   -8.6130   22.0210 C   0  0  0  0  0  3  0  0  0  0  0  0
  -22.6870   -8.3780   21.2580 C   0  0  0  0  0  0  0  0  0  0  0  0
  -22.2940   -9.3250   20.2980 C   0  0  0  0  0  3  0  0  0  0  0  0
  -23.0350  -10.5030   20.1070 C   0  0  0  0  0  3  0  0  0  0  0  0
  -21.9180   -7.2430   21.3540 O   0  0  0  0  0  0  0  0  0  0  0  0
  -21.8000   -6.5520   22.5330 C   0  0  0  0  0  0  0  0  0  0  0  0
  -21.2830   -7.1520   23.7010 C   0  0  0  0  0  3  0  0  0  0  0  0
  -21.1130   -6.3860   24.8720 C   0  0  0  0  0  3  0  0  0  0  0  0
  -21.4530   -5.0200   24.8750 C   0  0  0  0  0  0  0  0  0  0  0  0
  -21.9630   -4.4180   23.7110 C   0  0  0  0  0  3  0  0  0  0  0  0
  -22.1330   -5.1820   22.5430 C   0  0  0  0  0  0  0  0  0  0  0  0
  -22.6050   -4.5920   21.4180 F   0  0  0  0  0  0  0  0  0  0  0  0
  -21.2840   -4.2810   25.9960 F   0  0  0  0  0  0  0  0  0  0  0  0
  -23.1240  -13.8710   21.0950 C   0  0  0  0  0  0  0  0  0  0  0  0
  -22.4250  -13.1780   21.9880 N   0  0  0  0  0  0  0  0  0  0  0  0
  -22.6800  -14.9100   20.6060 O   0  0  0  0  0  0  0  0  0  0  0  0
  -22.7950  -12.3340   22.4010 H   0  0  0  0  0  0  0  0  0  0  0  0
  -21.5080  -13.4980   22.2680 H   0  0  0  0  0  0  0  0  0  0  0  0
  -25.7500  -15.4950   20.1830 N   0  0  0  0  0  0  0  0  0  0  0  0
  -24.9980  -16.1620   20.3190 H   0  0  0  0  0  0  0  0  0  0  0  0
  -26.5870  -15.9170   19.8020 H   0  0  0  0  0  0  0  0  0  0  0  0
  2  6  1  0
  2  1  1  0
  4  1  1  0
  4  3  1  0
  5  7  1  0
  5  4  1  0
  6 51  1  6
  6  5  1  0
  6  3  1  0
  7  8  1  0
  9 10  1  0
  9  8  2  0
 11 22  2  0
 12 10  1  0
 12 17  1  0
 13 21  1  0
 13 23  1  0
 14 20  1  0
 14 16  1  0
 15 21  1  0
 16 17  2  0
 16 15  1  0
 18 12  2  0
 19 18  1  0
 19 14  2  0
 20 13  1  0
 21 11  1  0
 23 25  2  0
 24 23  1  0
 26 24  1  0
 27 36  2  0
 27 32  1  0
 28 24  1  0
 28 32  1  0
 29 28  1  0
 30 31  1  0
 30 29  1  0
 31 27  1  0
 32 33  2  0
 33 34  1  0
 35 34  2  0
 36 35  1  0
 37 11  1  0
 37 38  1  0
 37 47  1  0
 38 41  1  0
 39 43  1  0
 39 38  1  0
 40 39  2  0
 43 42  1  0
 45 43  1  0
 45 46  1  0
 45 44  1  0
 47 50  1  1
 47 48  1  0
 49 47  1  0
 51 52  2  0
 53 61  1  0
 54 59  1  0
 55 56  1  0
 55 54  1  0
 57 56  1  0
 57 66  1  0
 57 58  1  0
 59 53  1  0
 59 58  1  0
 60 53  2  0
 61 62  1  0
 61 52  1  0
 63 64  2  0
 64 83  1  0
 65 64  1  0
 65 68  1  0
 66 67  1  0
 66 63  1  0
 67 65  2  0
 68 69  1  0
 69 70  2  0
 71 74  1  0
 71 70  1  0
 72 71  2  0
 73 72  1  0
 73 68  2  0
 74 75  1  0
 75 80  2  0
 75 76  1  0
 76 77  2  0
 77 78  1  0
 78 82  1  0
 79 78  2  0
 80 79  1  0
 81 80  1  0
 83 84  1  0
 84 87  1  0
 84 86  1  0
 85 83  2  0
 88 89  1  0
 88 63  1  0
 90 88  1  0
M  ISO  4   9 101  10 101  53 100  61 100
M  END
>  <TORSDO>  (22) 
F 21

>  <SCORE>  (22) 
-12.286

>  <name>  (22) 
21

>  <ligand_id>  (22) 
21

>  <original_smiles>  (22) 
[H]c1c([H])c([H])c2c(c1[H])C([H])([H])C([H])([H])C([H])([H])C2([H])N([H])C(=O)C1([H])N(C(=O)C([H])(N([H])C(=O)C([H])(N([H])C([H])([H])[H])C([H])([H])[H])C(C([H])([H])[H])(C([H])([H])[H])C([H])([H])[H])C([H])([H])c2c([H])c(OC([H])([H])C([H])([H])C([H])([H])C3([H])C4([H])C([H])([H])C([H])([H])C3(C([H])([H])C([H])([H])N([H])C(=O)N3C([H])([H])C([H])([H])C([H])([H])C([H])(n5nc(-c6c([H])c([H])c(Oc7c([H])c([H])c(F)c([H])c7F)c([H])c6[H])c(C(=O)N([H])[H])c5N([H])[H])C3([H])[H])C4([H])[H])c([H])c([H])c2C1([H])[H]

>  <smiles>  (22) 
[H]c1c([H])c([H])c2c(c1[H])C([H])([H])C([H])([H])C([H])([H])C2([H])N([H])C(=O)C1([H])N(C(=O)C([H])(N([H])C(=O)C([H])(N([H])C([H])([H])[H])C([H])([H])[H])C(C([H])([H])[H])(C([H])([H])[H])C([H])([H])[H])C([H])([H])c2c([H])c(OC([H])([H])C([H])([H])C([H])([H])C3([H])C4([H])C([H])([H])C([H])([H])C3(C([H])([H])C([H])([H])N([H])C(=O)N3C([H])([H])C([H])([H])C([H])([H])C([H])(n5nc(-c6c([H])c([H])c(Oc7c([H])c([H])c(F)c([H])c7F)c([H])c6[H])c(C(=O)N([H])[H])c5N([H])[H])C3([H])[H])C4([H])[H])c([H])c([H])c2C1([H])[H]

$$$$
22:0:0
     RDKit          3D

 92100  0  0  1  0  0  0  0  0999 V2000
  -30.2960  -22.0640   20.4810 C   0  0  0  0  0  3  0  0  0  0  0  0
  -30.4980  -20.6520   20.4320 C   0  0  0  0  0  3  0  0  0  0  0  0
  -28.4170  -21.8390   19.0000 C   0  0  0  0  0  3  0  0  0  0  0  0
  -29.2750  -22.7000   19.7290 C   0  0  0  0  0  0  0  0  0  0  0  0
  -29.6770  -19.7870   19.6590 C   0  0  0  0  0  0  0  0  0  0  0  0
  -28.5940  -20.4210   18.9770 C   0  0  0  0  0  0  0  0  0  0  0  0
  -27.6240  -19.6010   18.1470 C   0  0  0  0  0  1  0  0  0  0  0  0
  -29.2220  -24.2630   19.5520 C   0  0  0  0  0  3  0  0  0  0  0  0
  -28.2970  -25.1600   20.4620 C   0  0  0  0  0  3  0  0  0  0  0  0
  -28.4110  -26.6190   20.2450 O   0  0  0  0  0  0  0  0  0  0  0  0
  -24.5890  -31.9410   23.2300 C   0  0  0  0  0  0  0  0  0  0  0  0
  -27.2560  -27.4060   20.2260 C   0  0  0  0  0  0  0  0  0  0  0  0
  -23.3950  -30.5130   21.6030 C   0  0  0  0  0  3  0  0  0  0  0  0
  -24.8610  -28.9580   20.1980 C   0  0  0  0  0  0  0  0  0  0  0  0
  -25.9260  -30.8640   21.4110 C   0  0  0  0  0  2  0  0  0  0  0  0
  -26.0200  -29.4770   20.7920 C   0  0  0  0  0  0  0  0  0  0  0  0
  -27.2190  -28.7110   20.8000 C   0  0  0  0  0  3  0  0  0  0  0  0
  -26.0830  -26.9350   19.5980 C   0  0  0  0  0  3  0  0  0  0  0  0
  -24.8910  -27.6870   19.5980 C   0  0  0  0  0  3  0  0  0  0  0  0
  -23.6140  -29.8160   20.2320 C   0  0  0  0  0  2  0  0  0  0  0  0
  -24.6560  -31.1230   22.1390 N   0  0  0  0  0  0  0  0  0  0  0  0
  -23.5040  -32.2150   23.7640 O   0  0  0  0  0  0  0  0  0  0  0  0
  -22.7430  -29.5040   22.5750 C   0  0  0  0  0  0  0  0  0  0  0  0
  -21.4180  -29.3140   22.4500 N   0  0  0  0  0  0  0  0  0  0  0  0
  -23.4270  -28.8930   23.4000 O   0  0  0  0  0  0  0  0  0  0  0  0
  -20.9230  -29.8650   21.7620 H   0  0  0  0  0  0  0  0  0  0  0  0
  -18.0560  -28.0910   22.9540 C   0  0  0  0  0  0  0  0  0  0  0  0
  -20.6100  -28.3730   23.2270 C   0  0  0  0  0  3  0  0  0  0  0  0
  -20.7270  -26.9380   22.6630 C   0  0  0  0  0  2  0  0  0  0  0  0
  -19.6270  -26.5970   21.6510 C   0  0  0  0  0  2  0  0  0  0  0  0
  -18.2450  -26.7350   22.2950 C   0  0  0  0  0  2  0  0  0  0  0  0
  -19.1670  -28.8660   23.3810 C   0  0  0  0  0  0  0  0  0  0  0  0
  -18.9370  -30.1340   23.9570 C   0  0  0  0  0  3  0  0  0  0  0  0
  -17.6290  -30.6270   24.1130 C   0  0  0  0  0  3  0  0  0  0  0  0
  -16.5310  -29.8490   23.7050 C   0  0  0  0  0  3  0  0  0  0  0  0
  -16.7460  -28.5850   23.1290 C   0  0  0  0  0  3  0  0  0  0  0  0
  -25.8680  -32.5890   23.8460 C   0  0  0  0  0  3  0  0  0  0  0  0
  -25.5420  -33.9820   24.1820 N   0  0  0  0  0  0  0  0  0  0  0  0
  -25.8560  -35.0420   23.4260 C   0  0  0  0  0  0  0  0  0  0  0  0
  -26.5250  -34.9520   22.3930 O   0  0  0  0  0  0  0  0  0  0  0  0
  -24.9420  -34.1250   24.9810 H   0  0  0  0  0  0  0  0  0  0  0  0
  -24.1070  -36.8170   23.0780 C   0  0  0  0  0  1  0  0  0  0  0  0
  -25.3500  -36.4230   23.8880 C   0  0  0  0  0  3  0  0  0  0  0  0
  -27.4730  -37.3310   24.7230 C   0  0  0  0  0  1  0  0  0  0  0  0
  -26.3690  -37.4900   23.7810 N   0  0  0  0  0  0  0  0  0  0  0  0
  -25.9490  -38.4040   23.9330 H   0  0  0  0  0  0  0  0  0  0  0  0
  -26.4010  -31.8210   25.1180 C   0  0  1  0  0  0  0  0  0  0  0  0
  -25.3190  -31.5610   26.1900 C   0  0  0  0  0  1  0  0  0  0  0  0
  -27.0040  -30.4550   24.7150 C   0  0  0  0  0  1  0  0  0  0  0  0
  -27.5370  -32.6340   25.7800 C   0  0  0  0  0  1  0  0  0  0  0  0
  -30.0600  -18.2660   19.4420 C   0  0  0  0  0  2  0  0  0  0  0  0
  -29.9690  -17.2440   20.6470 C   0  0  0  0  0  3  0  0  0  0  0  0
  -30.7130  -14.7370   20.0390 C   0  0  0  0  0  0  0  0  0  0  0  0
  -30.4860  -12.5080   18.9550 C   0  0  0  0  0  2  0  0  0  0  0  0
  -29.4760  -12.6320   17.7940 C   0  0  0  0  0  2  0  0  0  0  0  0
  -28.0210  -12.4800   18.2860 C   0  0  0  0  0  2  0  0  0  0  0  0
  -27.7210  -13.3360   19.5460 C   0  0  0  0  0  3  0  0  0  0  0  0
  -28.8320  -13.1540   20.6040 C   0  0  0  0  0  2  0  0  0  0  0  0
  -30.1100  -13.5100   19.9670 N   0  0  0  0  0  0  0  0  0  0  0  0
  -31.8800  -14.9130   19.6800 O   0  0  0  0  0  0  0  0  0  0  0  0
  -29.8620  -15.7640   20.3530 N   0  0  0  0  0  0  0  0  0  0  0  0
  -28.9280  -15.4150   20.5060 H   0  0  0  0  0  0  0  0  0  0  0  0
  -25.3720  -13.9510   20.3850 C   0  0  0  0  0  0  0  0  0  0  0  0
  -24.3140  -13.1850   20.7910 C   0  0  0  0  0  0  0  0  0  0  0  0
  -24.7610  -11.8290   20.7180 C   0  0  0  0  0  0  0  0  0  0  0  0
  -26.3940  -13.0640   20.0910 N   0  0  0  0  0  0  0  0  0  0  0  0
  -26.0360  -11.7810   20.3530 N   0  0  0  0  0  0  0  0  0  0  0  0
  -24.0290  -10.5720   20.9170 C   0  0  0  0  0  0  0  0  0  0  0  0
  -24.4590   -9.6090   21.8560 C   0  0  0  0  0  3  0  0  0  0  0  0
  -23.7300   -8.4150   22.0440 C   0  0  0  0  0  3  0  0  0  0  0  0
  -22.5550   -8.1750   21.2930 C   0  0  0  0  0  0  0  0  0  0  0  0
  -22.1410   -9.1280   20.3450 C   0  0  0  0  0  3  0  0  0  0  0  0
  -22.8720  -10.3120   20.1540 C   0  0  0  0  0  3  0  0  0  0  0  0
  -21.7970   -7.0340   21.3920 O   0  0  0  0  0  0  0  0  0  0  0  0
  -21.7050   -6.3320   22.5680 C   0  0  0  0  0  0  0  0  0  0  0  0
  -21.2300   -6.9240   23.7560 C   0  0  0  0  0  3  0  0  0  0  0  0
  -21.0860   -6.1450   24.9220 C   0  0  0  0  0  3  0  0  0  0  0  0
  -21.4100   -4.7750   24.8990 C   0  0  0  0  0  0  0  0  0  0  0  0
  -21.8780   -4.1820   23.7140 C   0  0  0  0  0  3  0  0  0  0  0  0
  -22.0230   -4.9590   22.5500 C   0  0  0  0  0  0  0  0  0  0  0  0
  -22.4540   -4.3800   21.4040 F   0  0  0  0  0  0  0  0  0  0  0  0
  -21.2640   -4.0220   26.0150 F   0  0  0  0  0  0  0  0  0  0  0  0
  -22.9340  -13.6710   21.1290 C   0  0  0  0  0  0  0  0  0  0  0  0
  -22.2400  -12.9740   22.0190 N   0  0  0  0  0  0  0  0  0  0  0  0
  -22.4840  -14.7060   20.6370 O   0  0  0  0  0  0  0  0  0  0  0  0
  -22.6190  -12.1370   22.4420 H   0  0  0  0  0  0  0  0  0  0  0  0
  -21.3150  -13.2830   22.2870 H   0  0  0  0  0  0  0  0  0  0  0  0
  -25.5420  -15.3250   20.2230 N   0  0  0  0  0  0  0  0  0  0  0  0
  -24.7870  -15.9800   20.4030 H   0  0  0  0  0  0  0  0  0  0  0  0
  -26.3600  -15.7660   19.8260 H   0  0  0  0  0  0  0  0  0  0  0  0
  -30.9200  -16.6090   22.9560 C   0  0  0  0  0  1  0  0  0  0  0  0
  -31.0130  -17.5390   21.7390 C   0  0  0  0  0  2  0  0  0  0  0  0
  2  1  1  0
  3  4  1  0
  4  1  2  0
  5  2  2  0
  6  3  2  0
  6  5  1  0
  7  6  1  0
  8  4  1  0
  8  9  2  0
 10  9  1  0
 11 22  2  0
 12 10  1  0
 12 17  1  0
 13 21  1  0
 13 23  1  0
 14 20  1  0
 14 16  1  0
 15 21  1  0
 16 17  2  0
 16 15  1  0
 18 19  1  0
 18 12  2  0
 19 14  2  0
 20 13  1  0
 21 11  1  0
 23 25  2  0
 24 23  1  0
 26 24  1  0
 27 36  2  0
 27 32  1  0
 28 24  1  0
 28 32  1  0
 29 28  1  0
 30 31  1  0
 30 29  1  0
 31 27  1  0
 32 33  2  0
 33 34  1  0
 35 34  2  0
 36 35  1  0
 37 11  1  0
 37 38  1  0
 37 47  1  0
 38 41  1  0
 39 43  1  0
 39 38  1  0
 40 39  2  0
 43 42  1  0
 45 43  1  0
 45 46  1  0
 45 44  1  0
 47 50  1  1
 47 48  1  0
 49 47  1  0
 51  5  1  0
 52 51  1  0
 52 92  1  0
 53 61  1  0
 54 59  1  0
 55 56  1  0
 55 54  1  0
 57 56  1  0
 57 66  1  0
 57 58  1  0
 59 53  1  0
 59 58  1  0
 60 53  2  0
 61 62  1  0
 61 52  1  0
 63 64  2  0
 64 83  1  0
 65 64  1  0
 65 68  1  0
 66 67  1  0
 66 63  1  0
 67 65  2  0
 68 69  1  0
 69 70  2  0
 71 74  1  0
 71 70  1  0
 72 71  2  0
 73 72  1  0
 73 68  2  0
 74 75  1  0
 75 76  1  0
 76 77  2  0
 78 77  1  0
 78 82  1  0
 79 78  2  0
 80 75  2  0
 80 79  1  0
 81 80  1  0
 83 84  1  0
 84 87  1  0
 84 86  1  0
 85 83  2  0
 88 63  1  0
 88 89  1  0
 90 88  1  0
 92 91  1  0
M  ISO  4   9 101  10 101  53 100  61 100
M  END
>  <TORSDO>  (23) 
F 21

>  <SCORE>  (23) 
-13.180

>  <name>  (23) 
22

>  <ligand_id>  (23) 
22

>  <original_smiles>  (23) 
[H]c1c([H])c([H])c2c(c1[H])C([H])([H])C([H])([H])C([H])([H])C2([H])N([H])C(=O)C1([H])N(C(=O)C([H])(N([H])C(=O)C([H])(N([H])C([H])([H])[H])C([H])([H])[H])C(C([H])([H])[H])(C([H])([H])[H])C([H])([H])[H])C([H])([H])c2c([H])c(OC([H])([H])C([H])([H])c3c([H])c([H])c(C([H])([H])C([H])(N([H])C(=O)N4C([H])([H])C([H])([H])C([H])([H])C([H])(n5nc(-c6c([H])c([H])c(Oc7c([H])c([H])c(F)c([H])c7F)c([H])c6[H])c(C(=O)N([H])[H])c5N([H])[H])C4([H])[H])C([H])([H])C([H])([H])[H])c(C([H])([H])[H])c3[H])c([H])c([H])c2C1([H])[H]

>  <smiles>  (23) 
[H]c1c([H])c([H])c2c(c1[H])C([H])([H])C([H])([H])C([H])([H])C2([H])N([H])C(=O)C1([H])N(C(=O)C([H])(N([H])C(=O)C([H])(N([H])C([H])([H])[H])C([H])([H])[H])C(C([H])([H])[H])(C([H])([H])[H])C([H])([H])[H])C([H])([H])c2c([H])c(OC([H])([H])C([H])([H])c3c([H])c([H])c(C([H])([H])C([H])(N([H])C(=O)N4C([H])([H])C([H])([H])C([H])([H])C([H])(n5nc(-c6c([H])c([H])c(Oc7c([H])c([H])c(F)c([H])c7F)c([H])c6[H])c(C(=O)N([H])[H])c5N([H])[H])C4([H])[H])C([H])([H])C([H])([H])[H])c(C([H])([H])[H])c3[H])c([H])c([H])c2C1([H])[H]

$$$$
23:0:0
     RDKit          3D

 94101  0  0  1  0  0  0  0  0999 V2000
  -29.7430  -21.0450   19.6990 N   0  0  0  0  0  4  0  0  0  0  0  0
  -29.1660  -20.9810   18.8760 H   0  0  0  0  0  0  0  0  0  0  0  0
  -29.1610  -20.8680   20.5020 H   0  0  0  0  0  0  0  0  0  0  0  0
  -30.8000  -20.0030   19.6090 C   0  0  0  0  0  2  0  0  0  0  0  0
  -30.2740  -18.6040   19.1910 C   0  0  0  0  0  2  0  0  0  0  0  0
  -29.5560  -17.8040   20.3130 C   0  0  0  0  0  3  0  0  0  0  0  0
  -27.1770  -18.1920   19.3660 C   0  0  0  0  0  1  0  0  0  0  0  0
  -28.2390  -17.1710   19.8050 C   0  0  0  0  0  2  0  0  0  0  0  0
  -30.5040  -16.7830   21.0390 C   0  0  0  0  0  3  0  0  0  0  0  0
  -30.7640  -14.4250   20.1470 C   0  0  0  0  0  0  0  0  0  0  0  0
  -30.4510  -12.2400   19.0410 C   0  0  0  0  0  2  0  0  0  0  0  0
  -29.4660  -12.3990   17.8660 C   0  0  0  0  0  2  0  0  0  0  0  0
  -28.0070  -12.2600   18.3460 C   0  0  0  0  0  2  0  0  0  0  0  0
  -27.7010  -13.1320   19.5910 C   0  0  0  0  0  3  0  0  0  0  0  0
  -28.7910  -12.9420   20.6700 C   0  0  0  0  0  2  0  0  0  0  0  0
  -30.0980  -13.2420   20.0560 N   0  0  0  0  0  0  0  0  0  0  0  0
  -31.8470  -14.6370   19.5950 O   0  0  0  0  0  0  0  0  0  0  0  0
  -30.1040  -15.3890   20.8090 N   0  0  0  0  0  0  0  0  0  0  0  0
  -29.2150  -15.1110   21.1960 H   0  0  0  0  0  0  0  0  0  0  0  0
  -25.3270  -13.7520   20.3770 C   0  0  0  0  0  0  0  0  0  0  0  0
  -24.2700  -12.9840   20.7860 C   0  0  0  0  0  0  0  0  0  0  0  0
  -24.7260  -11.6320   20.7410 C   0  0  0  0  0  0  0  0  0  0  0  0
  -26.3620  -12.8670   20.1150 N   0  0  0  0  0  0  0  0  0  0  0  0
  -26.0040  -11.5860   20.3880 N   0  0  0  0  0  0  0  0  0  0  0  0
  -24.0010  -10.3740   20.9570 C   0  0  0  0  0  0  0  0  0  0  0  0
  -24.4500   -9.4170   21.8940 C   0  0  0  0  0  3  0  0  0  0  0  0
  -23.7280   -8.2210   22.0970 C   0  0  0  0  0  3  0  0  0  0  0  0
  -22.5450   -7.9740   21.3630 C   0  0  0  0  0  0  0  0  0  0  0  0
  -22.1160   -8.9190   20.4140 C   0  0  0  0  0  3  0  0  0  0  0  0
  -22.8370  -10.1070   20.2100 C   0  0  0  0  0  3  0  0  0  0  0  0
  -21.7900   -6.8320   21.4770 O   0  0  0  0  0  0  0  0  0  0  0  0
  -21.7510   -6.1100   22.6420 C   0  0  0  0  0  0  0  0  0  0  0  0
  -21.3190   -6.6820   23.8590 C   0  0  0  0  0  3  0  0  0  0  0  0
  -21.2270   -5.8840   25.0170 C   0  0  0  0  0  3  0  0  0  0  0  0
  -21.5540   -4.5170   24.9600 C   0  0  0  0  0  0  0  0  0  0  0  0
  -21.9790   -3.9440   23.7470 C   0  0  0  0  0  3  0  0  0  0  0  0
  -22.0740   -4.7380   22.5920 C   0  0  0  0  0  0  0  0  0  0  0  0
  -22.4610   -4.1760   21.4210 F   0  0  0  0  0  0  0  0  0  0  0  0
  -21.4580   -3.7480   26.0700 F   0  0  0  0  0  0  0  0  0  0  0  0
  -22.8850  -13.4680   21.1070 C   0  0  0  0  0  0  0  0  0  0  0  0
  -22.1870  -12.7740   21.9990 N   0  0  0  0  0  0  0  0  0  0  0  0
  -22.4320  -14.4950   20.6030 O   0  0  0  0  0  0  0  0  0  0  0  0
  -22.5660  -11.9430   22.4280 H   0  0  0  0  0  0  0  0  0  0  0  0
  -21.2590  -13.0790   22.2560 H   0  0  0  0  0  0  0  0  0  0  0  0
  -25.4830  -15.1200   20.1870 N   0  0  0  0  0  0  0  0  0  0  0  0
  -24.7120  -15.7660   20.3180 H   0  0  0  0  0  0  0  0  0  0  0  0
  -26.3130  -15.5640   19.8190 H   0  0  0  0  0  0  0  0  0  0  0  0
  -31.2160  -18.3270   22.9830 C   0  0  0  0  0  1  0  0  0  0  0  0
  -30.5510  -17.0070   22.5650 C   0  0  0  0  0  2  0  0  0  0  0  0
  -30.2670  -22.4340   19.7770 C   0  0  0  0  0  2  0  0  0  0  0  0
  -29.1730  -23.5240   19.6380 C   0  0  0  0  0  2  0  0  0  0  0  0
  -29.7600  -24.9310   19.3650 C   0  0  0  0  0  2  0  0  0  0  0  0
  -28.7160  -26.0170   19.0220 C   0  0  0  0  0  2  0  0  0  0  0  0
  -28.3550  -26.7720   20.1830 O   0  0  0  0  0  0  0  0  0  0  0  0
  -24.5830  -31.9650   23.2610 C   0  0  0  0  0  0  0  0  0  0  0  0
  -27.1770  -27.4930   20.1640 C   0  0  0  0  0  0  0  0  0  0  0  0
  -23.3520  -30.5560   21.6440 C   0  0  0  0  0  3  0  0  0  0  0  0
  -24.7810  -29.0020   20.2130 C   0  0  0  0  0  0  0  0  0  0  0  0
  -25.8770  -30.9000   21.4160 C   0  0  0  0  0  2  0  0  0  0  0  0
  -25.9470  -29.5240   20.7850 C   0  0  0  0  0  0  0  0  0  0  0  0
  -27.1430  -28.7710   20.7680 C   0  0  0  0  0  3  0  0  0  0  0  0
  -25.9830  -26.9750   19.6100 C   0  0  0  0  0  3  0  0  0  0  0  0
  -24.7920  -27.7250   19.6290 C   0  0  0  0  0  3  0  0  0  0  0  0
  -23.5420  -29.8660   20.2670 C   0  0  0  0  0  2  0  0  0  0  0  0
  -24.6240  -31.1550   22.1650 N   0  0  0  0  0  0  0  0  0  0  0  0
  -23.5100  -32.2450   23.8120 O   0  0  0  0  0  0  0  0  0  0  0  0
  -22.7080  -29.5430   22.6200 C   0  0  0  0  0  0  0  0  0  0  0  0
  -21.3850  -29.3520   22.4960 N   0  0  0  0  0  0  0  0  0  0  0  0
  -23.3960  -28.9330   23.4420 O   0  0  0  0  0  0  0  0  0  0  0  0
  -20.8920  -29.8980   21.8030 H   0  0  0  0  0  0  0  0  0  0  0  0
  -18.0200  -28.1340   22.9980 C   0  0  0  0  0  0  0  0  0  0  0  0
  -20.5730  -28.4220   23.2800 C   0  0  0  0  0  3  0  0  0  0  0  0
  -20.6940  -26.9810   22.7330 C   0  0  0  0  0  2  0  0  0  0  0  0
  -19.6010  -26.6270   21.7190 C   0  0  0  0  0  2  0  0  0  0  0  0
  -18.2140  -26.7720   22.3520 C   0  0  0  0  0  2  0  0  0  0  0  0
  -19.1290  -28.9150   23.4200 C   0  0  0  0  0  0  0  0  0  0  0  0
  -18.8950  -30.1870   23.9830 C   0  0  0  0  0  3  0  0  0  0  0  0
  -17.5850  -30.6810   24.1300 C   0  0  0  0  0  3  0  0  0  0  0  0
  -16.4910  -29.8970   23.7250 C   0  0  0  0  0  3  0  0  0  0  0  0
  -16.7090  -28.6260   23.1660 C   0  0  0  0  0  3  0  0  0  0  0  0
  -25.8800  -32.5940   23.8610 C   0  0  0  0  0  3  0  0  0  0  0  0
  -26.4130  -31.8270   25.1320 C   0  0  1  0  0  0  0  0  0  0  0  0
  -25.3350  -31.5960   26.2170 C   0  0  0  0  0  1  0  0  0  0  0  0
  -26.9880  -30.4480   24.7360 C   0  0  0  0  0  1  0  0  0  0  0  0
  -27.5740  -32.6220   25.7750 C   0  0  0  0  0  1  0  0  0  0  0  0
  -25.5820  -33.9940   24.1840 N   0  0  0  0  0  0  0  0  0  0  0  0
  -25.9180  -35.0410   23.4180 C   0  0  0  0  0  0  0  0  0  0  0  0
  -26.5850  -34.9280   22.3850 O   0  0  0  0  0  0  0  0  0  0  0  0
  -24.9900  -34.1580   24.9870 H   0  0  0  0  0  0  0  0  0  0  0  0
  -24.2060  -36.8460   23.0490 C   0  0  0  0  0  1  0  0  0  0  0  0
  -25.4390  -36.4350   23.8690 C   0  0  0  0  0  3  0  0  0  0  0  0
  -27.5770  -37.3020   24.7090 C   0  0  0  0  0  1  0  0  0  0  0  0
  -26.4820  -37.4780   23.7590 N   0  0  0  0  0  0  0  0  0  0  0  0
  -26.0830  -38.4020   23.9010 H   0  0  0  0  0  0  0  0  0  0  0  0
  1 50  1  0
  1  3  1  0
  2  1  1  0
  4  1  1  0
  5  4  1  0
  6  5  1  0
  6  9  1  0
  7  8  1  0
  8  6  1  0
  9 49  1  0
 10 18  1  0
 11 16  1  0
 12 13  1  0
 12 11  1  0
 14 13  1  0
 14 23  1  0
 14 15  1  0
 16 10  1  0
 16 15  1  0
 17 10  2  0
 18  9  1  0
 18 19  1  0
 20 21  2  0
 21 40  1  0
 22 21  1  0
 22 25  1  0
 23 20  1  0
 23 24  1  0
 24 22  2  0
 25 26  1  0
 26 27  2  0
 28 31  1  0
 28 27  1  0
 29 28  2  0
 30 29  1  0
 30 25  2  0
 31 32  1  0
 32 33  1  0
 33 34  2  0
 35 34  1  0
 35 39  1  0
 36 35  2  0
 37 32  2  0
 37 36  1  0
 38 37  1  0
 40 41  1  0
 41 44  1  0
 41 43  1  0
 42 40  2  0
 45 46  1  0
 45 20  1  0
 47 45  1  0
 49 48  1  0
 51 50  1  0
 52 51  1  0
 53 52  1  0
 53 54  1  0
 55 66  2  0
 56 54  1  0
 56 61  1  0
 57 65  1  0
 57 67  1  0
 58 64  1  0
 58 60  1  0
 59 65  1  0
 60 59  1  0
 61 60  2  0
 62 63  1  0
 62 56  2  0
 63 58  2  0
 64 57  1  0
 65 55  1  0
 67 69  2  0
 68 67  1  0
 70 68  1  0
 71 80  2  0
 71 76  1  0
 72 68  1  0
 72 76  1  0
 73 72  1  0
 74 75  1  0
 74 73  1  0
 75 71  1  0
 76 77  2  0
 77 78  1  0
 79 78  2  0
 80 79  1  0
 81 55  1  0
 81 86  1  0
 81 82  1  0
 82 85  1  1
 82 83  1  0
 84 82  1  0
 86 89  1  0
 87 91  1  0
 87 86  1  0
 88 87  2  0
 91 90  1  0
 93 91  1  0
 93 94  1  0
 93 92  1  0
M  ISO  4  10 100  18 100  53 101  54 101
M  END
>  <TORSDO>  (24) 
F 26

>  <SCORE>  (24) 
-11.637

>  <name>  (24) 
23

>  <ligand_id>  (24) 
23

>  <original_smiles>  (24) 
[H]c1c([H])c([H])c2c(c1[H])C([H])([H])C([H])([H])C([H])([H])C2([H])N([H])C(=O)C1([H])N(C(=O)C([H])(N([H])C(=O)C([H])(N([H])C([H])([H])[H])C([H])([H])[H])C(C([H])([H])[H])(C([H])([H])[H])C([H])([H])[H])C([H])([H])c2c([H])c(OC([H])([H])C([H])([H])C([H])([H])C([H])([H])[N+]([H])([H])C([H])([H])C([H])([H])C([H])(C([H])([H])C([H])([H])[H])C([H])(N([H])C(=O)N3C([H])([H])C([H])([H])C([H])([H])C([H])(n4nc(-c5c([H])c([H])c(Oc6c([H])c([H])c(F)c([H])c6F)c([H])c5[H])c(C(=O)N([H])[H])c4N([H])[H])C3([H])[H])C([H])([H])C([H])([H])[H])c([H])c([H])c2C1([H])[H]

>  <smiles>  (24) 
[H]c1c([H])c([H])c2c(c1[H])C([H])([H])C([H])([H])C([H])([H])C2([H])N([H])C(=O)C1([H])N(C(=O)C([H])(N([H])C(=O)C([H])(N([H])C([H])([H])[H])C([H])([H])[H])C(C([H])([H])[H])(C([H])([H])[H])C([H])([H])[H])C([H])([H])c2c([H])c(OC([H])([H])C([H])([H])C([H])([H])C([H])([H])[N+]([H])([H])C([H])([H])C([H])([H])C([H])(C([H])([H])C([H])([H])[H])C([H])(N([H])C(=O)N3C([H])([H])C([H])([H])C([H])([H])C([H])(n4nc(-c5c([H])c([H])c(Oc6c([H])c([H])c(F)c([H])c6F)c([H])c5[H])c(C(=O)N([H])[H])c4N([H])[H])C3([H])[H])C([H])([H])C([H])([H])[H])c([H])c([H])c2C1([H])[H]

$$$$
24:0:0
     RDKit          3D

 94102  0  0  1  0  0  0  0  0999 V2000
  -31.3550  -20.6020   18.7420 C   0  0  0  0  0  3  0  0  0  0  0  0
  -31.3520  -19.3940   19.4520 C   0  0  0  0  0  3  0  0  0  0  0  0
  -31.1930  -21.8250   19.4160 C   0  0  0  0  0  0  0  0  0  0  0  0
  -31.1680  -19.3730   20.8470 C   0  0  0  0  0  0  0  0  0  0  0  0
  -31.0360  -21.8400   20.8320 C   0  0  0  0  0  0  0  0  0  0  0  0
  -31.0050  -20.6020   21.5510 C   0  0  0  0  0  0  0  0  0  0  0  0
  -30.8840  -23.1760   21.5610 C   0  0  0  0  0  1  0  0  0  0  0  0
  -32.0920  -20.7460   23.8610 C   0  0  0  0  0  1  0  0  0  0  0  0
  -30.7850  -20.5860   23.0670 C   0  0  0  0  0  2  0  0  0  0  0  0
  -31.1650  -23.0880   18.5610 C   0  0  0  0  0  2  0  0  0  0  0  0
  -29.7630  -23.7100   18.4570 C   0  0  0  0  0  2  0  0  0  0  0  0
  -29.6720  -25.0920   19.1220 C   0  0  0  0  0  2  0  0  0  0  0  0
  -28.2860  -25.7190   18.9590 C   0  0  0  0  0  2  0  0  0  0  0  0
  -28.2970  -27.0150   19.5500 O   0  0  0  0  0  0  0  0  0  0  0  0
  -24.6270  -31.8200   23.2690 C   0  0  0  0  0  0  0  0  0  0  0  0
  -27.1040  -27.6950   19.6570 C   0  0  0  0  0  0  0  0  0  0  0  0
  -23.3400  -30.5960   21.5460 C   0  0  0  0  0  3  0  0  0  0  0  0
  -24.7160  -29.1840   19.9290 C   0  0  0  0  0  0  0  0  0  0  0  0
  -25.8570  -30.9570   21.2740 C   0  0  0  0  0  2  0  0  0  0  0  0
  -25.9000  -29.6480   20.5130 C   0  0  0  0  0  0  0  0  0  0  0  0
  -27.0960  -28.9130   20.3730 C   0  0  0  0  0  3  0  0  0  0  0  0
  -25.8950  -27.2350   19.0790 C   0  0  0  0  0  3  0  0  0  0  0  0
  -24.7050  -27.9750   19.2120 C   0  0  0  0  0  3  0  0  0  0  0  0
  -23.4890  -30.0520   20.1000 C   0  0  0  0  0  2  0  0  0  0  0  0
  -24.6300  -31.1340   22.0890 N   0  0  0  0  0  0  0  0  0  0  0  0
  -23.5720  -32.0450   23.8760 O   0  0  0  0  0  0  0  0  0  0  0  0
  -22.7170  -29.4920   22.4270 C   0  0  0  0  0  0  0  0  0  0  0  0
  -21.3900  -29.3200   22.3220 N   0  0  0  0  0  0  0  0  0  0  0  0
  -23.4230  -28.7970   23.1650 O   0  0  0  0  0  0  0  0  0  0  0  0
  -20.8830  -29.9440   21.7080 H   0  0  0  0  0  0  0  0  0  0  0  0
  -18.0330  -28.0550   22.7650 C   0  0  0  0  0  0  0  0  0  0  0  0
  -20.5910  -28.3150   23.0230 C   0  0  0  0  0  3  0  0  0  0  0  0
  -20.6960  -26.9340   22.3350 C   0  0  0  0  0  2  0  0  0  0  0  0
  -19.5840  -26.6810   21.3130 C   0  0  0  0  0  2  0  0  0  0  0  0
  -18.2110  -26.7630   21.9840 C   0  0  0  0  0  2  0  0  0  0  0  0
  -19.1510  -28.7910   23.2410 C   0  0  0  0  0  0  0  0  0  0  0  0
  -18.9300  -30.0000   23.9340 C   0  0  0  0  0  3  0  0  0  0  0  0
  -17.6240  -30.4750   24.1540 C   0  0  0  0  0  3  0  0  0  0  0  0
  -16.5210  -29.7370   23.6920 C   0  0  0  0  0  3  0  0  0  0  0  0
  -16.7260  -28.5280   23.0070 C   0  0  0  0  0  3  0  0  0  0  0  0
  -25.9450  -32.3750   23.8960 C   0  0  0  0  0  3  0  0  0  0  0  0
  -25.6830  -33.7550   24.3280 N   0  0  0  0  0  0  0  0  0  0  0  0
  -26.0610  -34.8460   23.6490 C   0  0  0  0  0  0  0  0  0  0  0  0
  -26.7400  -34.7930   22.6210 O   0  0  0  0  0  0  0  0  0  0  0  0
  -25.0920  -33.8700   25.1390 H   0  0  0  0  0  0  0  0  0  0  0  0
  -24.4160  -36.7310   23.3860 C   0  0  0  0  0  1  0  0  0  0  0  0
  -25.6140  -36.2150   24.1980 C   0  0  0  0  0  3  0  0  0  0  0  0
  -27.7550  -36.9480   25.1560 C   0  0  0  0  0  1  0  0  0  0  0  0
  -26.6910  -37.2290   24.1970 N   0  0  0  0  0  0  0  0  0  0  0  0
  -26.3170  -38.1530   24.3950 H   0  0  0  0  0  0  0  0  0  0  0  0
  -26.4750  -31.5040   25.0990 C   0  0  1  0  0  0  0  0  0  0  0  0
  -25.4120  -31.2150   26.1870 C   0  0  0  0  0  1  0  0  0  0  0  0
  -27.0080  -30.1450   24.5860 C   0  0  0  0  0  1  0  0  0  0  0  0
  -27.6680  -32.2200   25.7770 C   0  0  0  0  0  1  0  0  0  0  0  0
  -31.1310  -17.9870   21.5040 C   0  0  0  0  0  2  0  0  0  0  0  0
  -29.8280  -17.2310   21.1420 C   0  0  0  0  0  2  0  0  0  0  0  0
  -30.4800  -14.8660   20.6210 C   0  0  0  0  0  0  0  0  0  0  0  0
  -30.2920  -12.7120   19.4390 C   0  0  0  0  0  2  0  0  0  0  0  0
  -29.3400  -12.8550   18.2340 C   0  0  0  0  0  2  0  0  0  0  0  0
  -27.8740  -12.6390   18.6500 C   0  0  0  0  0  2  0  0  0  0  0  0
  -27.4870  -13.4530   19.9130 C   0  0  0  0  0  3  0  0  0  0  0  0
  -28.5490  -13.2860   21.0290 C   0  0  0  0  0  2  0  0  0  0  0  0
  -29.8670  -13.6590   20.4810 N   0  0  0  0  0  0  0  0  0  0  0  0
  -31.5180  -15.1580   20.0200 O   0  0  0  0  0  0  0  0  0  0  0  0
  -29.8150  -15.7720   21.3530 N   0  0  0  0  0  0  0  0  0  0  0  0
  -29.0120  -15.4100   21.8450 H   0  0  0  0  0  0  0  0  0  0  0  0
  -25.0610  -13.9290   20.6400 C   0  0  0  0  0  0  0  0  0  0  0  0
  -24.0320  -13.0970   20.9990 C   0  0  0  0  0  0  0  0  0  0  0  0
  -24.5570  -11.7700   20.9380 C   0  0  0  0  0  0  0  0  0  0  0  0
  -26.1450  -13.1030   20.3860 N   0  0  0  0  0  0  0  0  0  0  0  0
  -25.8450  -11.7970   20.6240 N   0  0  0  0  0  0  0  0  0  0  0  0
  -23.8880  -10.4710   21.1030 C   0  0  0  0  0  0  0  0  0  0  0  0
  -24.3540   -9.5190   22.0360 C   0  0  0  0  0  3  0  0  0  0  0  0
  -23.6880   -8.2850   22.1920 C   0  0  0  0  0  3  0  0  0  0  0  0
  -22.5460   -7.9900   21.4110 C   0  0  0  0  0  0  0  0  0  0  0  0
  -22.0990   -8.9320   20.4660 C   0  0  0  0  0  3  0  0  0  0  0  0
  -22.7670  -10.1600   20.3110 C   0  0  0  0  0  3  0  0  0  0  0  0
  -21.8500   -6.8080   21.4740 O   0  0  0  0  0  0  0  0  0  0  0  0
  -21.7880   -6.0680   22.6280 C   0  0  0  0  0  0  0  0  0  0  0  0
  -21.2530   -6.5980   23.8240 C   0  0  0  0  0  3  0  0  0  0  0  0
  -21.1440   -5.7840   24.9680 C   0  0  0  0  0  3  0  0  0  0  0  0
  -21.5580   -4.4390   24.9180 C   0  0  0  0  0  0  0  0  0  0  0  0
  -22.0810   -3.9060   23.7270 C   0  0  0  0  0  3  0  0  0  0  0  0
  -22.1910   -4.7200   22.5860 C   0  0  0  0  0  0  0  0  0  0  0  0
  -22.6780   -4.1960   21.4330 F   0  0  0  0  0  0  0  0  0  0  0  0
  -21.4460   -3.6520   26.0150 F   0  0  0  0  0  0  0  0  0  0  0  0
  -22.6150  -13.5000   21.2880 C   0  0  0  0  0  0  0  0  0  0  0  0
  -21.9290  -12.7550   22.1460 N   0  0  0  0  0  0  0  0  0  0  0  0
  -22.1220  -14.5100   20.7860 O   0  0  0  0  0  0  0  0  0  0  0  0
  -22.3410  -11.9400   22.5760 H   0  0  0  0  0  0  0  0  0  0  0  0
  -20.9770  -13.0030   22.3760 H   0  0  0  0  0  0  0  0  0  0  0  0
  -25.1650  -15.3100   20.4970 N   0  0  0  0  0  0  0  0  0  0  0  0
  -24.3740  -15.9350   20.6270 H   0  0  0  0  0  0  0  0  0  0  0  0
  -25.9960  -15.7860   20.1670 H   0  0  0  0  0  0  0  0  0  0  0  0
  1  3  2  0
  1  2  1  0
  2  4  2  0
  3  5  1  0
  4 55  1  0
  4  6  1  0
  5  6  2  0
  5  7  1  0
  6  9  1  0
  9  8  1  0
 10  3  1  0
 11 10  1  0
 11 12  1  0
 13 12  1  0
 13 14  1  0
 14 16  1  0
 15 26  2  0
 16 21  1  0
 17 25  1  0
 17 27  1  0
 18 24  1  0
 18 20  1  0
 19 25  1  0
 20 19  1  0
 21 20  2  0
 22 23  1  0
 22 16  2  0
 23 18  2  0
 24 17  1  0
 25 15  1  0
 27 29  2  0
 28 27  1  0
 30 28  1  0
 31 40  2  0
 31 36  1  0
 32 28  1  0
 32 36  1  0
 33 32  1  0
 34 35  1  0
 34 33  1  0
 35 31  1  0
 36 37  2  0
 37 38  1  0
 39 38  2  0
 40 39  1  0
 41 15  1  0
 41 42  1  0
 41 51  1  0
 42 45  1  0
 43 47  1  0
 43 42  1  0
 44 43  2  0
 47 46  1  0
 49 47  1  0
 49 50  1  0
 49 48  1  0
 51 54  1  1
 51 52  1  0
 53 51  1  0
 56 65  1  0
 56 55  1  0
 57 65  1  0
 58 63  1  0
 59 60  1  0
 59 58  1  0
 61 60  1  0
 61 70  1  0
 61 62  1  0
 63 57  1  0
 63 62  1  0
 64 57  2  0
 65 66  1  0
 67 68  2  0
 68 87  1  0
 69 68  1  0
 69 72  1  0
 70 71  1  0
 70 67  1  0
 71 69  2  0
 72 73  1  0
 73 74  2  0
 75 78  1  0
 75 74  1  0
 76 75  2  0
 77 76  1  0
 77 72  2  0
 78 79  1  0
 79 80  1  0
 80 81  2  0
 82 81  1  0
 82 86  1  0
 83 82  2  0
 84 79  2  0
 84 83  1  0
 85 84  1  0
 87 88  1  0
 88 91  1  0
 88 90  1  0
 89 87  2  0
 92 93  1  0
 92 67  1  0
 94 92  1  0
M  ISO  4  13 101  14 101  57 100  65 100
M  END
>  <TORSDO>  (25) 
F 23

>  <SCORE>  (25) 
-12.739

>  <name>  (25) 
24

>  <ligand_id>  (25) 
24

>  <original_smiles>  (25) 
[H]c1c([H])c([H])c2c(c1[H])C([H])([H])C([H])([H])C([H])([H])C2([H])N([H])C(=O)C1([H])N(C(=O)C([H])(N([H])C(=O)C([H])(N([H])C([H])([H])[H])C([H])([H])[H])C(C([H])([H])[H])(C([H])([H])[H])C([H])([H])[H])C([H])([H])c2c([H])c(OC([H])([H])C([H])([H])C([H])([H])C([H])([H])c3c([H])c([H])c(C([H])([H])C([H])([H])N([H])C(=O)N4C([H])([H])C([H])([H])C([H])([H])C([H])(n5nc(-c6c([H])c([H])c(Oc7c([H])c([H])c(F)c([H])c7F)c([H])c6[H])c(C(=O)N([H])[H])c5N([H])[H])C4([H])[H])c(C([H])([H])C([H])([H])[H])c3C([H])([H])[H])c([H])c([H])c2C1([H])[H]

>  <smiles>  (25) 
[H]c1c([H])c([H])c2c(c1[H])C([H])([H])C([H])([H])C([H])([H])C2([H])N([H])C(=O)C1([H])N(C(=O)C([H])(N([H])C(=O)C([H])(N([H])C([H])([H])[H])C([H])([H])[H])C(C([H])([H])[H])(C([H])([H])[H])C([H])([H])[H])C([H])([H])c2c([H])c(OC([H])([H])C([H])([H])C([H])([H])C([H])([H])c3c([H])c([H])c(C([H])([H])C([H])([H])N([H])C(=O)N4C([H])([H])C([H])([H])C([H])([H])C([H])(n5nc(-c6c([H])c([H])c(Oc7c([H])c([H])c(F)c([H])c7F)c([H])c6[H])c(C(=O)N([H])[H])c5N([H])[H])C4([H])[H])c(C([H])([H])C([H])([H])[H])c3C([H])([H])[H])c([H])c([H])c2C1([H])[H]

$$$$
25:0:0
     RDKit          3D

 92101  0  0  1  0  0  0  0  0999 V2000
  -29.3620  -22.1390   18.8790 C   0  0  0  0  0  2  0  0  0  0  0  0
  -27.0640  -21.3500   19.3610 C   0  0  0  0  0  2  0  0  0  0  0  0
  -29.8790  -20.6730   19.0360 C   0  0  0  0  0  2  0  0  0  0  0  0
  -27.5760  -19.8960   19.5470 C   0  0  0  0  0  2  0  0  0  0  0  0
  -28.7090  -21.3240   21.0190 C   0  0  0  0  0  2  0  0  0  0  0  0
  -28.1920  -22.2860   19.8760 C   0  0  1  0  0  0  0  0  0  0  0  0
  -28.9960  -20.0270   20.1360 C   0  0  2  0  0  0  0  0  0  0  0  0
  -27.5980  -23.8130   20.0000 C   0  0  0  0  0  2  0  0  0  0  0  0
  -28.3710  -25.1110   20.5510 C   0  0  0  0  0  2  0  0  0  0  0  0
  -28.2820  -26.5130   20.0190 O   0  0  0  0  0  0  0  0  0  0  0  0
  -24.5710  -31.8970   23.2050 C   0  0  0  0  0  0  0  0  0  0  0  0
  -27.1430  -27.3270   20.1050 C   0  0  0  0  0  0  0  0  0  0  0  0
  -23.3530  -30.5020   21.5760 C   0  0  0  0  0  3  0  0  0  0  0  0
  -24.7870  -28.9600   20.1220 C   0  0  0  0  0  0  0  0  0  0  0  0
  -25.8900  -30.8220   21.3610 C   0  0  0  0  0  2  0  0  0  0  0  0
  -25.9660  -29.4440   20.7050 C   0  0  0  0  0  0  0  0  0  0  0  0
  -27.1470  -28.6370   20.6890 C   0  0  0  0  0  3  0  0  0  0  0  0
  -25.9500  -26.9030   19.4930 C   0  0  0  0  0  3  0  0  0  0  0  0
  -24.7830  -27.6930   19.5120 C   0  0  0  0  0  3  0  0  0  0  0  0
  -23.5470  -29.8340   20.1910 C   0  0  0  0  0  2  0  0  0  0  0  0
  -24.6260  -31.0860   22.1070 N   0  0  0  0  0  0  0  0  0  0  0  0
  -23.4900  -32.1770   23.7490 O   0  0  0  0  0  0  0  0  0  0  0  0
  -22.7100  -29.4730   22.5350 C   0  0  0  0  0  0  0  0  0  0  0  0
  -21.3860  -29.2860   22.4150 N   0  0  0  0  0  0  0  0  0  0  0  0
  -23.3990  -28.8480   23.3460 O   0  0  0  0  0  0  0  0  0  0  0  0
  -20.8860  -29.8340   21.7290 H   0  0  0  0  0  0  0  0  0  0  0  0
  -18.0220  -28.0850   22.9360 C   0  0  0  0  0  0  0  0  0  0  0  0
  -20.5810  -28.3410   23.1880 C   0  0  0  0  0  3  0  0  0  0  0  0
  -20.6850  -26.9200   22.5920 C   0  0  0  0  0  2  0  0  0  0  0  0
  -19.5730  -26.6050   21.5870 C   0  0  0  0  0  2  0  0  0  0  0  0
  -18.1970  -26.7430   22.2460 C   0  0  0  0  0  2  0  0  0  0  0  0
  -19.1440  -28.8440   23.3640 C   0  0  0  0  0  0  0  0  0  0  0  0
  -18.9310  -30.1050   23.9630 C   0  0  0  0  0  3  0  0  0  0  0  0
  -17.6270  -30.6040   24.1470 C   0  0  0  0  0  3  0  0  0  0  0  0
  -16.5200  -29.8360   23.7440 C   0  0  0  0  0  3  0  0  0  0  0  0
  -16.7180  -28.5800   23.1420 C   0  0  0  0  0  3  0  0  0  0  0  0
  -25.8610  -32.5300   23.8140 C   0  0  0  0  0  3  0  0  0  0  0  0
  -25.5560  -33.9300   24.1470 N   0  0  0  0  0  0  0  0  0  0  0  0
  -25.8970  -34.9820   23.3930 C   0  0  0  0  0  0  0  0  0  0  0  0
  -26.5730  -34.8750   22.3660 O   0  0  0  0  0  0  0  0  0  0  0  0
  -24.9470  -34.0890   24.9360 H   0  0  0  0  0  0  0  0  0  0  0  0
  -24.1880  -36.7850   23.0200 C   0  0  0  0  0  1  0  0  0  0  0  0
  -25.4130  -36.3720   23.8490 C   0  0  0  0  0  3  0  0  0  0  0  0
  -27.5380  -37.2360   24.7230 C   0  0  0  0  0  1  0  0  0  0  0  0
  -26.4560  -37.4160   23.7580 N   0  0  0  0  0  0  0  0  0  0  0  0
  -26.0570  -38.3410   23.8950 H   0  0  0  0  0  0  0  0  0  0  0  0
  -26.3860  -31.7590   25.0860 C   0  0  1  0  0  0  0  0  0  0  0  0
  -25.2930  -31.5250   26.1550 C   0  0  0  0  0  1  0  0  0  0  0  0
  -26.9660  -30.3780   24.6960 C   0  0  0  0  0  1  0  0  0  0  0  0
  -27.5410  -32.5500   25.7420 C   0  0  0  0  0  1  0  0  0  0  0  0
  -29.5280  -18.6310   20.8200 C   0  0  0  0  0  2  0  0  0  0  0  0
  -30.2270  -17.3640   20.0520 C   0  0  0  0  0  3  0  0  0  0  0  0
  -30.8550  -14.8360   20.4350 C   0  0  0  0  0  0  0  0  0  0  0  0
  -30.6510  -12.5910   19.3790 C   0  0  0  0  0  2  0  0  0  0  0  0
  -29.7490  -12.7550   18.1360 C   0  0  0  0  0  2  0  0  0  0  0  0
  -28.2680  -12.5770   18.5230 C   0  0  0  0  0  2  0  0  0  0  0  0
  -27.8820  -13.4190   19.7700 C   0  0  0  0  0  3  0  0  0  0  0  0
  -28.9120  -13.2640   20.9120 C   0  0  0  0  0  2  0  0  0  0  0  0
  -30.2280  -13.6160   20.3590 N   0  0  0  0  0  0  0  0  0  0  0  0
  -32.0400  -14.9410   20.1020 O   0  0  0  0  0  0  0  0  0  0  0  0
  -30.0600  -15.9540   20.6310 N   0  0  0  0  0  0  0  0  0  0  0  0
  -29.1300  -15.7300   20.9600 H   0  0  0  0  0  0  0  0  0  0  0  0
  -25.4710  -14.0120   20.4080 C   0  0  0  0  0  0  0  0  0  0  0  0
  -24.3960  -13.2370   20.7610 C   0  0  0  0  0  0  0  0  0  0  0  0
  -24.8690  -11.8900   20.7700 C   0  0  0  0  0  0  0  0  0  0  0  0
  -26.5250  -13.1340   20.2210 N   0  0  0  0  0  0  0  0  0  0  0  0
  -26.1680  -11.8540   20.4990 N   0  0  0  0  0  0  0  0  0  0  0  0
  -24.1450  -10.6270   20.9650 C   0  0  0  0  0  0  0  0  0  0  0  0
  -24.5520   -9.6820   21.9320 C   0  0  0  0  0  3  0  0  0  0  0  0
  -23.8240   -8.4850   22.1120 C   0  0  0  0  0  3  0  0  0  0  0  0
  -22.6770   -8.2260   21.3250 C   0  0  0  0  0  0  0  0  0  0  0  0
  -22.2900   -9.1610   20.3490 C   0  0  0  0  0  3  0  0  0  0  0  0
  -23.0190  -10.3490   20.1680 C   0  0  0  0  0  3  0  0  0  0  0  0
  -21.9250   -7.0790   21.4110 O   0  0  0  0  0  0  0  0  0  0  0  0
  -21.8320   -6.3650   22.5780 C   0  0  0  0  0  0  0  0  0  0  0  0
  -21.3500   -6.9460   23.7730 C   0  0  0  0  0  3  0  0  0  0  0  0
  -21.2090   -6.1570   24.9310 C   0  0  0  0  0  3  0  0  0  0  0  0
  -21.5380   -4.7870   24.8950 C   0  0  0  0  0  0  0  0  0  0  0  0
  -22.0130   -4.2070   23.7050 C   0  0  0  0  0  3  0  0  0  0  0  0
  -22.1550   -4.9940   22.5500 C   0  0  0  0  0  0  0  0  0  0  0  0
  -22.5930   -4.4250   21.4000 F   0  0  0  0  0  0  0  0  0  0  0  0
  -21.3940   -4.0280   26.0050 F   0  0  0  0  0  0  0  0  0  0  0  0
  -22.9920  -13.7140   20.9760 C   0  0  0  0  0  0  0  0  0  0  0  0
  -22.2460  -13.0300   21.8380 N   0  0  0  0  0  0  0  0  0  0  0  0
  -22.5670  -14.7250   20.4240 O   0  0  0  0  0  0  0  0  0  0  0  0
  -22.6090  -12.2120   22.3030 H   0  0  0  0  0  0  0  0  0  0  0  0
  -21.3020  -13.3300   22.0350 H   0  0  0  0  0  0  0  0  0  0  0  0
  -25.6250  -15.3780   20.2120 N   0  0  0  0  0  0  0  0  0  0  0  0
  -24.8300  -16.0040   20.2690 H   0  0  0  0  0  0  0  0  0  0  0  0
  -26.4640  -15.8300   19.8690 H   0  0  0  0  0  0  0  0  0  0  0  0
  -31.1660  -17.5300   17.6430 C   0  0  0  0  0  1  0  0  0  0  0  0
  -29.9300  -17.2680   18.5280 C   0  0  0  0  0  2  0  0  0  0  0  0
  1  3  1  0
  1  6  1  0
  2  4  1  0
  2  6  1  0
  3  7  1  0
  4  7  1  0
  6  8  1  1
  6  5  1  0
  7 51  1  1
  7  5  1  0
  8  9  1  0
 10 12  1  0
 10  9  1  0
 11 22  2  0
 12 17  1  0
 13 21  1  0
 13 23  1  0
 14 20  1  0
 14 16  1  0
 15 21  1  0
 16 15  1  0
 17 16  2  0
 18 19  1  0
 18 12  2  0
 19 14  2  0
 20 13  1  0
 21 11  1  0
 23 25  2  0
 24 23  1  0
 26 24  1  0
 27 36  2  0
 27 32  1  0
 28 24  1  0
 28 32  1  0
 29 28  1  0
 30 31  1  0
 30 29  1  0
 31 27  1  0
 32 33  2  0
 33 34  1  0
 35 34  2  0
 36 35  1  0
 37 11  1  0
 37 38  1  0
 37 47  1  0
 38 41  1  0
 39 43  1  0
 39 38  1  0
 40 39  2  0
 43 42  1  0
 45 43  1  0
 45 46  1  0
 45 44  1  0
 47 50  1  1
 47 48  1  0
 49 47  1  0
 52 92  1  0
 52 61  1  0
 52 51  1  0
 53 61  1  0
 54 59  1  0
 55 56  1  0
 55 54  1  0
 57 56  1  0
 57 66  1  0
 57 58  1  0
 59 53  1  0
 59 58  1  0
 60 53  2  0
 61 62  1  0
 63 64  2  0
 64 65  1  0
 64 83  1  0
 65 68  1  0
 66 63  1  0
 66 67  1  0
 67 65  2  0
 68 69  1  0
 69 70  2  0
 71 74  1  0
 71 70  1  0
 72 71  2  0
 73 72  1  0
 73 68  2  0
 74 75  1  0
 75 76  1  0
 76 77  2  0
 78 77  1  0
 78 82  1  0
 79 78  2  0
 80 75  2  0
 80 79  1  0
 81 80  1  0
 83 84  1  0
 84 87  1  0
 84 86  1  0
 85 83  2  0
 88 89  1  0
 88 63  1  0
 90 88  1  0
 91 92  1  0
M  ISO  4   9 101  10 101  53 100  61 100
M  END
>  <TORSDO>  (26) 
F 21

>  <SCORE>  (26) 
-13.165

>  <name>  (26) 
25

>  <ligand_id>  (26) 
25

>  <original_smiles>  (26) 
[H]c1c([H])c([H])c2c(c1[H])C([H])([H])C([H])([H])C([H])([H])C2([H])N([H])C(=O)C1([H])N(C(=O)C([H])(N([H])C(=O)C([H])(N([H])C([H])([H])[H])C([H])([H])[H])C(C([H])([H])[H])(C([H])([H])[H])C([H])([H])[H])C([H])([H])c2c([H])c(OC([H])([H])C([H])([H])C34C([H])([H])C([H])([H])C(C([H])([H])C([H])(N([H])C(=O)N5C([H])([H])C([H])([H])C([H])([H])C([H])(n6nc(-c7c([H])c([H])c(Oc8c([H])c([H])c(F)c([H])c8F)c([H])c7[H])c(C(=O)N([H])[H])c6N([H])[H])C5([H])[H])C([H])([H])C([H])([H])[H])(C([H])([H])C3([H])[H])C4([H])[H])c([H])c([H])c2C1([H])[H]

>  <smiles>  (26) 
[H]c1c([H])c([H])c2c(c1[H])C([H])([H])C([H])([H])C([H])([H])C2([H])N([H])C(=O)C1([H])N(C(=O)C([H])(N([H])C(=O)C([H])(N([H])C([H])([H])[H])C([H])([H])[H])C(C([H])([H])[H])(C([H])([H])[H])C([H])([H])[H])C([H])([H])c2c([H])c(OC([H])([H])C([H])([H])C34C([H])([H])C([H])([H])C(C([H])([H])C([H])(N([H])C(=O)N5C([H])([H])C([H])([H])C([H])([H])C([H])(n6nc(-c7c([H])c([H])c(Oc8c([H])c([H])c(F)c([H])c8F)c([H])c7[H])c(C(=O)N([H])[H])c6N([H])[H])C5([H])[H])C([H])([H])C([H])([H])[H])(C([H])([H])C3([H])[H])C4([H])[H])c([H])c([H])c2C1([H])[H]

$$$$
26:0:0
     RDKit          3D

 99108  0  0  1  0  0  0  0  0999 V2000
  -29.0660  -17.6010   20.0180 C   0  0  0  0  0  2  0  0  0  0  0  0
  -30.9900  -17.0620   21.5480 C   0  0  0  0  0  2  0  0  0  0  0  0
  -28.8360  -16.0730   20.0450 C   0  0  0  0  0  2  0  0  0  0  0  0
  -31.1200  -15.6140   21.0200 C   0  0  0  0  0  2  0  0  0  0  0  0
  -30.7550  -15.3830   18.4950 C   0  0  0  0  0  2  0  0  0  0  0  0
  -31.5370  -14.0900   18.2550 C   0  0  0  0  0  2  0  0  0  0  0  0
  -29.7760  -13.7050   19.9070 C   0  0  0  0  0  2  0  0  0  0  0  0
  -30.4680  -18.0440   20.4930 C   0  0  0  0  0  3  0  0  0  0  0  0
  -30.1180  -15.2240   19.8880 C   0  0  2  0  0  0  0  0  0  0  0  0
  -30.6580  -12.9670   18.8540 C   0  0  2  0  0  0  0  0  0  0  0  0
  -31.4660  -11.8610   19.4490 N   0  0  0  0  0  4  0  0  0  0  0  0
  -32.0630  -11.4690   18.7380 H   0  0  0  0  0  0  0  0  0  0  0  0
  -30.8220  -11.1340   19.7170 H   0  0  0  0  0  0  0  0  0  0  0  0
  -32.3090  -12.1830   20.6290 C   0  0  0  0  0  2  0  0  0  0  0  0
  -32.6870  -10.9400   21.4580 C   0  0  0  0  0  2  0  0  0  0  0  0
  -33.2920  -11.3160   22.8260 C   0  0  0  0  0  2  0  0  0  0  0  0
  -34.0900  -10.2020   23.5360 C   0  0  0  0  0  2  0  0  0  0  0  0
  -33.3580   -8.9730   23.6020 O   0  0  0  0  0  0  0  0  0  0  0  0
  -39.1720   -5.5850   21.3350 C   0  0  0  0  0  0  0  0  0  0  0  0
  -33.8790   -7.9810   22.8120 C   0  0  0  0  0  0  0  0  0  0  0  0
  -37.1140   -5.2230   20.0060 C   0  0  0  0  0  3  0  0  0  0  0  0
  -34.9470   -6.0340   21.0770 C   0  0  0  0  0  0  0  0  0  0  0  0
  -36.9830   -5.7390   22.5040 C   0  0  0  0  0  2  0  0  0  0  0  0
  -35.6490   -6.4010   22.2320 C   0  0  0  0  0  0  0  0  0  0  0  0
  -35.1190   -7.3720   23.1050 C   0  0  0  0  0  3  0  0  0  0  0  0
  -33.1620   -7.5790   21.6670 C   0  0  0  0  0  3  0  0  0  0  0  0
  -33.7000   -6.6190   20.7890 C   0  0  0  0  0  3  0  0  0  0  0  0
  -35.5900   -4.9920   20.1910 C   0  0  0  0  0  2  0  0  0  0  0  0
  -37.8100   -5.5470   21.2930 N   0  0  0  0  0  0  0  0  0  0  0  0
  -39.8510   -5.3120   20.3350 O   0  0  0  0  0  0  0  0  0  0  0  0
  -37.3220   -6.2920   18.9120 C   0  0  0  0  0  0  0  0  0  0  0  0
  -37.2220   -5.8710   17.6420 N   0  0  0  0  0  0  0  0  0  0  0  0
  -37.5360   -7.4700   19.2100 O   0  0  0  0  0  0  0  0  0  0  0  0
  -37.0620   -4.8850   17.4850 H   0  0  0  0  0  0  0  0  0  0  0  0
  -37.1820   -5.8090   14.0270 C   0  0  0  0  0  0  0  0  0  0  0  0
  -37.3330   -6.7040   16.4450 C   0  0  0  0  0  3  0  0  0  0  0  0
  -35.9990   -7.4310   16.1550 C   0  0  0  0  0  2  0  0  0  0  0  0
  -35.0980   -6.6850   15.1670 C   0  0  0  0  0  2  0  0  0  0  0  0
  -35.8250   -6.4670   13.8370 C   0  0  0  0  0  2  0  0  0  0  0  0
  -37.8840   -5.9090   15.2570 C   0  0  0  0  0  0  0  0  0  0  0  0
  -39.1310   -5.2620   15.3890 C   0  0  0  0  0  3  0  0  0  0  0  0
  -39.6750   -4.5210   14.3230 C   0  0  0  0  0  3  0  0  0  0  0  0
  -38.9790   -4.4310   13.1060 C   0  0  0  0  0  3  0  0  0  0  0  0
  -37.7390   -5.0780   12.9560 C   0  0  0  0  0  3  0  0  0  0  0  0
  -39.9420   -5.9480   22.6440 C   0  0  0  0  0  3  0  0  0  0  0  0
  -41.0290   -4.9740   22.8050 N   0  0  0  0  0  0  0  0  0  0  0  0
  -40.9870   -3.9160   23.6260 C   0  0  0  0  0  0  0  0  0  0  0  0
  -40.0440   -3.7000   24.3920 O   0  0  0  0  0  0  0  0  0  0  0  0
  -41.8100   -5.0590   22.1700 H   0  0  0  0  0  0  0  0  0  0  0  0
  -41.7840   -1.6720   22.8250 C   0  0  0  0  0  1  0  0  0  0  0  0
  -42.1800   -2.9440   23.5930 C   0  0  0  0  0  3  0  0  0  0  0  0
  -43.3320   -3.6930   25.6280 C   0  0  0  0  0  1  0  0  0  0  0  0
  -42.6820   -2.5820   24.9370 N   0  0  0  0  0  0  0  0  0  0  0  0
  -43.3440   -1.8130   24.8810 H   0  0  0  0  0  0  0  0  0  0  0  0
  -40.5070   -7.4200   22.6440 C   0  0  1  0  0  0  0  0  0  0  0  0
  -41.3350   -7.7660   21.3830 C   0  0  0  0  0  1  0  0  0  0  0  0
  -39.3540   -8.4440   22.7490 C   0  0  0  0  0  1  0  0  0  0  0  0
  -41.4020   -7.6400   23.8850 C   0  0  0  0  0  1  0  0  0  0  0  0
  -28.8050  -11.2560   18.1280 C   0  0  0  0  0  1  0  0  0  0  0  0
  -29.7730  -12.3810   17.7150 C   0  0  0  0  0  2  0  0  0  0  0  0
  -30.5060  -19.5030   20.9940 C   0  0  0  0  0  2  0  0  0  0  0  0
  -29.6930  -21.4740   19.7360 C   0  0  0  0  0  0  0  0  0  0  0  0
  -28.5850  -22.9940   18.1560 C   0  0  0  0  0  2  0  0  0  0  0  0
  -27.4790  -22.2510   17.3830 C   0  0  0  0  0  2  0  0  0  0  0  0
  -28.0580  -21.5690   16.1320 C   0  0  0  0  0  2  0  0  0  0  0  0
  -29.3180  -20.7210   16.4460 C   0  0  0  0  0  3  0  0  0  0  0  0
  -30.3270  -21.5290   17.2910 C   0  0  0  0  0  2  0  0  0  0  0  0
  -29.6380  -22.0260   18.4990 N   0  0  0  0  0  0  0  0  0  0  0  0
  -28.9740  -21.8330   20.6740 O   0  0  0  0  0  0  0  0  0  0  0  0
  -30.5420  -20.4500   19.8780 N   0  0  0  0  0  0  0  0  0  0  0  0
  -31.1380  -20.2350   19.0930 H   0  0  0  0  0  0  0  0  0  0  0  0
  -30.2610  -18.9070   14.8750 C   0  0  0  0  0  0  0  0  0  0  0  0
  -30.7310  -18.9640   13.5910 C   0  0  0  0  0  0  0  0  0  0  0  0
  -30.6430  -20.3350   13.1990 C   0  0  0  0  0  0  0  0  0  0  0  0
  -29.9230  -20.2080   15.2170 N   0  0  0  0  0  0  0  0  0  0  0  0
  -30.2050  -21.0750   14.2100 N   0  0  0  0  0  0  0  0  0  0  0  0
  -30.8960  -20.9780   11.9030 C   0  0  0  0  0  0  0  0  0  0  0  0
  -31.8470  -22.0130   11.7630 C   0  0  0  0  0  3  0  0  0  0  0  0
  -32.0820  -22.6040   10.5030 C   0  0  0  0  0  3  0  0  0  0  0  0
  -31.3670  -22.1570    9.3650 C   0  0  0  0  0  0  0  0  0  0  0  0
  -30.4080  -21.1390    9.5140 C   0  0  0  0  0  3  0  0  0  0  0  0
  -30.1710  -20.5560   10.7700 C   0  0  0  0  0  3  0  0  0  0  0  0
  -31.5140  -22.6890    8.1070 O   0  0  0  0  0  0  0  0  0  0  0  0
  -32.7040  -23.2290    7.6860 C   0  0  0  0  0  0  0  0  0  0  0  0
  -33.9000  -22.4780    7.6700 C   0  0  0  0  0  3  0  0  0  0  0  0
  -35.0850  -23.0520    7.1690 C   0  0  0  0  0  3  0  0  0  0  0  0
  -35.0750  -24.3710    6.6750 C   0  0  0  0  0  0  0  0  0  0  0  0
  -33.8840  -25.1190    6.6820 C   0  0  0  0  0  3  0  0  0  0  0  0
  -32.7000  -24.5480    7.1860 C   0  0  0  0  0  0  0  0  0  0  0  0
  -31.5500  -25.2630    7.1740 F   0  0  0  0  0  0  0  0  0  0  0  0
  -36.2100  -24.9220    6.1870 F   0  0  0  0  0  0  0  0  0  0  0  0
  -31.1490  -17.8010   12.7380 C   0  0  0  0  0  0  0  0  0  0  0  0
  -32.1220  -18.0060   11.8570 N   0  0  0  0  0  0  0  0  0  0  0  0
  -30.6500  -16.6850   12.8850 O   0  0  0  0  0  0  0  0  0  0  0  0
  -32.5480  -18.9140   11.7520 H   0  0  0  0  0  0  0  0  0  0  0  0
  -32.4510  -17.2430   11.2830 H   0  0  0  0  0  0  0  0  0  0  0  0
  -30.0720  -17.8580   15.7660 N   0  0  0  0  0  0  0  0  0  0  0  0
  -30.2660  -16.8990   15.5070 H   0  0  0  0  0  0  0  0  0  0  0  0
  -29.6410  -17.9460   16.6750 H   0  0  0  0  0  0  0  0  0  0  0  0
  1  3  1  0
  1  8  1  0
  4  2  1  0
  6  5  1  0
  6 10  1  0
  8 61  1  0
  8  2  1  0
  9  5  1  6
  9  7  1  0
  9  3  1  0
  9  4  1  0
 10 60  1  6
 10 11  1  0
 10  7  1  0
 11 13  1  0
 11 14  1  0
 12 11  1  0
 14 15  1  0
 15 16  1  0
 16 17  1  0
 17 18  1  0
 20 25  1  0
 20 18  1  0
 21 31  1  0
 21 28  1  0
 21 29  1  0
 22 24  1  0
 24 23  1  0
 24 25  2  0
 26 20  2  0
 27 22  2  0
 27 26  1  0
 28 22  1  0
 29 19  1  0
 29 23  1  0
 30 19  2  0
 31 33  2  0
 32 31  1  0
 34 32  1  0
 35 40  1  0
 36 32  1  0
 37 36  1  0
 38 37  1  0
 39 35  1  0
 39 38  1  0
 40 41  2  0
 40 36  1  0
 42 41  1  0
 43 42  2  0
 44 43  1  0
 44 35  2  0
 45 19  1  0
 45 46  1  0
 46 47  1  0
 47 48  2  0
 49 46  1  0
 51 50  1  0
 51 47  1  0
 51 53  1  0
 53 52  1  0
 54 53  1  0
 55 45  1  0
 55 57  1  1
 55 58  1  0
 56 55  1  0
 60 59  1  0
 62 70  1  0
 62 69  2  0
 63 68  1  0
 64 63  1  0
 65 66  1  0
 65 64  1  0
 66 75  1  0
 66 67  1  0
 67 68  1  0
 68 62  1  0
 70 61  1  0
 71 70  1  0
 72 75  1  0
 72 97  1  0
 73 72  2  0
 74 73  1  0
 74 76  2  0
 76 75  1  0
 77 74  1  0
 78 77  1  0
 79 78  2  0
 80 81  2  0
 80 79  1  0
 81 82  1  0
 82 77  2  0
 83 80  1  0
 84 83  1  0
 85 84  1  0
 86 85  2  0
 87 88  2  0
 87 86  1  0
 88 89  1  0
 89 84  2  0
 90 89  1  0
 91 87  1  0
 92 94  2  0
 92 73  1  0
 93 92  1  0
 95 93  1  0
 96 93  1  0
 97 99  1  0
 98 97  1  0
M  ISO  4  17 101  18 101  62 100  70 100
M  END
>  <TORSDO>  (27) 
F 23

>  <SCORE>  (27) 
-2.678

>  <name>  (27) 
26

>  <ligand_id>  (27) 
26

>  <original_smiles>  (27) 
[H]c1c([H])c([H])c2c(c1[H])C([H])([H])C([H])([H])C([H])([H])C2([H])N([H])C(=O)C1([H])N(C(=O)C([H])(N([H])C(=O)C([H])(N([H])C([H])([H])[H])C([H])([H])[H])C(C([H])([H])[H])(C([H])([H])[H])C([H])([H])[H])C([H])([H])c2c([H])c(OC([H])([H])C([H])([H])C([H])([H])C([H])([H])[N+]([H])([H])C3(C([H])([H])C([H])([H])[H])C([H])([H])C([H])([H])C4(C([H])([H])C([H])([H])C([H])(C([H])([H])N([H])C(=O)N5C([H])([H])C([H])([H])C([H])([H])C([H])(n6nc(-c7c([H])c([H])c(Oc8c([H])c([H])c(F)c([H])c8F)c([H])c7[H])c(C(=O)N([H])[H])c6N([H])[H])C5([H])[H])C([H])([H])C4([H])[H])C3([H])[H])c([H])c([H])c2C1([H])[H]

>  <smiles>  (27) 
[H]c1c([H])c([H])c2c(c1[H])C([H])([H])C([H])([H])C([H])([H])C2([H])N([H])C(=O)C1([H])N(C(=O)C([H])(N([H])C(=O)C([H])(N([H])C([H])([H])[H])C([H])([H])[H])C(C([H])([H])[H])(C([H])([H])[H])C([H])([H])[H])C([H])([H])c2c([H])c(OC([H])([H])C([H])([H])C([H])([H])C([H])([H])[N+]([H])([H])C3(C([H])([H])C([H])([H])[H])C([H])([H])C([H])([H])C4(C([H])([H])C([H])([H])C([H])(C([H])([H])N([H])C(=O)N5C([H])([H])C([H])([H])C([H])([H])C([H])(n6nc(-c7c([H])c([H])c(Oc8c([H])c([H])c(F)c([H])c8F)c([H])c7[H])c(C(=O)N([H])[H])c6N([H])[H])C5([H])[H])C([H])([H])C4([H])[H])C3([H])[H])c([H])c([H])c2C1([H])[H]

$$$$
27:0:0
     RDKit          3D

 98107  0  0  1  0  0  0  0  0999 V2000
  -30.9420  -18.1260   21.0270 C   0  0  0  0  0  2  0  0  0  0  0  0
  -30.9550  -14.9130   20.3660 C   0  0  0  0  0  0  0  0  0  0  0  0
  -30.5960  -12.7890   19.1940 C   0  0  0  0  0  2  0  0  0  0  0  0
  -29.6510  -13.0360   18.0000 C   0  0  0  0  0  2  0  0  0  0  0  0
  -28.1780  -12.9260   18.4350 C   0  0  0  0  0  2  0  0  0  0  0  0
  -27.8530  -13.6920   19.7470 C   0  0  0  0  0  3  0  0  0  0  0  0
  -28.9270  -13.4640   20.8320 C   0  0  0  0  0  2  0  0  0  0  0  0
  -30.2290  -13.7670   20.2240 N   0  0  0  0  0  0  0  0  0  0  0  0
  -32.1830  -14.8690   20.4410 O   0  0  0  0  0  0  0  0  0  0  0  0
  -29.8710  -20.3250   17.1100 C   0  0  0  0  0  2  0  0  0  0  0  0
  -30.9060  -19.3470   17.6550 C   0  0  0  0  0  2  0  0  0  0  0  0
  -29.0730  -19.0960   16.6900 C   0  0  0  0  0  2  0  0  0  0  0  0
  -30.2350  -16.8670   17.3480 C   0  0  0  0  0  2  0  0  0  0  0  0
  -31.1620  -16.2530   18.3960 C   0  0  0  0  0  2  0  0  0  0  0  0
  -29.1160  -18.1280   19.1730 C   0  0  0  0  0  3  0  0  0  0  0  0
  -29.8890  -17.2560   20.2430 C   0  0  0  0  0  3  0  0  0  0  0  0
  -29.8050  -18.2620   17.7780 C   0  0  1  0  0  0  0  0  0  0  0  0
  -30.4520  -15.9830   19.6650 N   0  0  0  0  0  0  0  0  0  0  0  0
  -25.4290  -14.2440   20.4150 C   0  0  0  0  0  0  0  0  0  0  0  0
  -24.3710  -13.4550   20.7660 C   0  0  0  0  0  0  0  0  0  0  0  0
  -24.8670  -12.1160   20.7710 C   0  0  0  0  0  0  0  0  0  0  0  0
  -26.5020  -13.3900   20.2190 N   0  0  0  0  0  0  0  0  0  0  0  0
  -26.1670  -12.1040   20.5030 N   0  0  0  0  0  0  0  0  0  0  0  0
  -24.1660  -10.8420   20.9570 C   0  0  0  0  0  0  0  0  0  0  0  0
  -24.5670   -9.9180   21.9460 C   0  0  0  0  0  3  0  0  0  0  0  0
  -23.8630   -8.7070   22.1210 C   0  0  0  0  0  3  0  0  0  0  0  0
  -22.7440   -8.4140   21.3060 C   0  0  0  0  0  0  0  0  0  0  0  0
  -22.3630   -9.3260   20.3070 C   0  0  0  0  0  3  0  0  0  0  0  0
  -23.0690  -10.5280   20.1300 C   0  0  0  0  0  3  0  0  0  0  0  0
  -22.0140   -7.2530   21.3900 O   0  0  0  0  0  0  0  0  0  0  0  0
  -21.8800   -6.5720   22.5730 C   0  0  0  0  0  0  0  0  0  0  0  0
  -21.3240   -7.1750   23.7220 C   0  0  0  0  0  3  0  0  0  0  0  0
  -21.1410   -6.4170   24.8960 C   0  0  0  0  0  3  0  0  0  0  0  0
  -21.5050   -5.0570   24.9210 C   0  0  0  0  0  0  0  0  0  0  0  0
  -22.0550   -4.4540   23.7760 C   0  0  0  0  0  3  0  0  0  0  0  0
  -22.2390   -5.2090   22.6050 C   0  0  0  0  0  0  0  0  0  0  0  0
  -22.7520   -4.6180   21.4980 F   0  0  0  0  0  0  0  0  0  0  0  0
  -21.3220   -4.3270   26.0460 F   0  0  0  0  0  0  0  0  0  0  0  0
  -22.9540  -13.9060   20.9740 C   0  0  0  0  0  0  0  0  0  0  0  0
  -22.2150  -13.2220   21.8410 N   0  0  0  0  0  0  0  0  0  0  0  0
  -22.5100  -14.9010   20.4040 O   0  0  0  0  0  0  0  0  0  0  0  0
  -22.5880  -12.4190   22.3250 H   0  0  0  0  0  0  0  0  0  0  0  0
  -21.2640  -13.5070   22.0230 H   0  0  0  0  0  0  0  0  0  0  0  0
  -25.5530  -15.6090   20.2150 N   0  0  0  0  0  0  0  0  0  0  0  0
  -24.6850  -16.1340   20.1760 H   0  0  0  0  0  0  0  0  0  0  0  0
  -26.1910  -15.8840   19.4720 H   0  0  0  0  0  0  0  0  0  0  0  0
  -27.6200  -17.7820   19.0830 C   0  0  0  0  0  0  0  0  0  0  0  0
  -26.6470  -18.7930   19.6730 C   0  0  0  0  0  1  0  0  0  0  0  0
  -27.2060  -16.7540   18.5460 O   0  0  0  0  0  0  0  0  0  0  0  0
  -30.4730  -19.5030   21.6290 C   0  0  0  0  0  3  0  0  0  0  0  0
  -30.7560  -20.8020   20.7970 C   0  0  0  0  0  3  0  0  0  0  0  0
  -30.3150  -22.0810   21.4400 N   0  0  0  0  0  4  0  0  0  0  0  0
  -31.0510  -22.3940   22.0540 H   0  0  0  0  0  0  0  0  0  0  0  0
  -29.5050  -21.8980   22.0100 H   0  0  0  0  0  0  0  0  0  0  0  0
  -29.9700  -23.1790   20.4810 C   0  0  0  0  0  2  0  0  0  0  0  0
  -29.6860  -24.5810   21.1160 C   0  0  0  0  0  2  0  0  0  0  0  0
  -29.0230  -25.5770   20.1180 C   0  0  0  0  0  2  0  0  0  0  0  0
  -28.8380  -26.9200   20.6380 O   0  0  0  0  0  0  0  0  0  0  0  0
  -24.6630  -32.0210   23.3660 C   0  0  0  0  0  0  0  0  0  0  0  0
  -27.6300  -27.5990   20.5090 C   0  0  0  0  0  0  0  0  0  0  0  0
  -23.5970  -30.5470   21.6920 C   0  0  0  0  0  3  0  0  0  0  0  0
  -25.1790  -29.0450   20.3700 C   0  0  0  0  0  0  0  0  0  0  0  0
  -26.1190  -30.9880   21.6230 C   0  0  0  0  0  2  0  0  0  0  0  0
  -26.2860  -29.6090   21.0110 C   0  0  0  0  0  0  0  0  0  0  0  0
  -27.5080  -28.8930   21.0800 C   0  0  0  0  0  3  0  0  0  0  0  0
  -26.4970  -27.0690   19.8400 C   0  0  0  0  0  3  0  0  0  0  0  0
  -25.2810  -27.7750   19.7830 C   0  0  0  0  0  3  0  0  0  0  0  0
  -23.9040  -29.8570   20.3370 C   0  0  0  0  0  2  0  0  0  0  0  0
  -24.8080  -31.2020   22.2850 N   0  0  0  0  0  0  0  0  0  0  0  0
  -23.5450  -32.2610   23.8440 O   0  0  0  0  0  0  0  0  0  0  0  0
  -22.9360  -29.5160   22.6360 C   0  0  0  0  0  0  0  0  0  0  0  0
  -21.6310  -29.2680   22.4350 N   0  0  0  0  0  0  0  0  0  0  0  0
  -23.5960  -28.9420   23.5070 O   0  0  0  0  0  0  0  0  0  0  0  0
  -21.1600  -29.7850   21.7060 H   0  0  0  0  0  0  0  0  0  0  0  0
  -18.2930  -27.9230   22.7580 C   0  0  0  0  0  0  0  0  0  0  0  0
  -20.8140  -28.3100   23.1780 C   0  0  0  0  0  3  0  0  0  0  0  0
  -21.0190  -26.8730   22.6460 C   0  0  0  0  0  2  0  0  0  0  0  0
  -19.9990  -26.4740   21.5760 C   0  0  0  0  0  2  0  0  0  0  0  0
  -18.5740  -26.5680   22.1300 C   0  0  0  0  0  2  0  0  0  0  0  0
  -19.3460  -28.7470   23.2360 C   0  0  0  0  0  0  0  0  0  0  0  0
  -19.0330  -30.0130   23.7790 C   0  0  0  0  0  3  0  0  0  0  0  0
  -17.6980  -30.4540   23.8510 C   0  0  0  0  0  3  0  0  0  0  0  0
  -16.6580  -29.6290   23.3910 C   0  0  0  0  0  3  0  0  0  0  0  0
  -16.9560  -28.3640   22.8500 C   0  0  0  0  0  3  0  0  0  0  0  0
  -25.8900  -32.7130   24.0380 C   0  0  0  0  0  3  0  0  0  0  0  0
  -25.5210  -34.1110   24.2990 N   0  0  0  0  0  0  0  0  0  0  0  0
  -25.8560  -35.1430   23.5150 C   0  0  0  0  0  0  0  0  0  0  0  0
  -26.5770  -35.0230   22.5200 O   0  0  0  0  0  0  0  0  0  0  0  0
  -24.8850  -34.2750   25.0650 H   0  0  0  0  0  0  0  0  0  0  0  0
  -24.0810  -36.8540   23.0180 C   0  0  0  0  0  1  0  0  0  0  0  0
  -25.3020  -36.5310   23.8930 C   0  0  0  0  0  3  0  0  0  0  0  0
  -27.3690  -37.5280   24.7670 C   0  0  0  0  0  1  0  0  0  0  0  0
  -26.3020  -37.6150   23.7740 N   0  0  0  0  0  0  0  0  0  0  0  0
  -25.8580  -38.5250   23.8640 H   0  0  0  0  0  0  0  0  0  0  0  0
  -26.3530  -32.0000   25.3680 C   0  0  1  0  0  0  0  0  0  0  0  0
  -25.2030  -31.7470   26.3710 C   0  0  0  0  0  1  0  0  0  0  0  0
  -27.0160  -30.6380   25.0560 C   0  0  0  0  0  1  0  0  0  0  0  0
  -27.4250  -32.8610   26.0770 C   0  0  0  0  0  1  0  0  0  0  0  0
  1 50  1  0
  2  9  2  0
  3  8  1  0
  4  5  1  0
  4  3  1  0
  6  5  1  0
  6 22  1  0
  6  7  1  0
  8  2  1  0
  8  7  1  0
 10 11  1  0
 17 11  1  1
 12 10  1  0
 12 17  1  0
 13 17  1  0
 13 14  1  0
 14 18  1  0
 15 47  1  0
 15 16  1  0
 16  1  1  0
 17 15  1  0
 18 16  1  0
 18  2  1  0
 19 20  2  0
 20 21  1  0
 20 39  1  0
 21 24  1  0
 22 19  1  0
 22 23  1  0
 23 21  2  0
 24 25  1  0
 25 26  2  0
 27 30  1  0
 27 26  1  0
 28 27  2  0
 29 28  1  0
 29 24  2  0
 30 31  1  0
 31 36  2  0
 31 32  1  0
 32 33  2  0
 33 34  1  0
 34 38  1  0
 35 34  2  0
 36 35  1  0
 37 36  1  0
 39 40  1  0
 40 43  1  0
 40 42  1  0
 41 39  2  0
 44 19  1  0
 45 44  1  0
 46 44  1  0
 47 48  1  0
 49 47  2  0
 51 52  1  0
 51 50  2  0
 52 54  1  0
 52 53  1  0
 55 56  1  0
 55 52  1  0
 57 58  1  0
 57 56  1  0
 59 70  2  0
 60 58  1  0
 60 65  1  0
 61 69  1  0
 61 71  1  0
 62 64  1  0
 63 69  1  0
 64 65  2  0
 64 63  1  0
 66 60  2  0
 67 66  1  0
 67 62  2  0
 68 62  1  0
 68 61  1  0
 69 59  1  0
 71 73  2  0
 72 71  1  0
 74 72  1  0
 75 84  2  0
 75 80  1  0
 76 72  1  0
 76 80  1  0
 77 76  1  0
 78 79  1  0
 78 77  1  0
 79 75  1  0
 80 81  2  0
 81 82  1  0
 83 82  2  0
 84 83  1  0
 85 59  1  0
 85 86  1  0
 85 95  1  0
 86 89  1  0
 87 91  1  0
 87 86  1  0
 88 87  2  0
 91 90  1  0
 93 94  1  0
 93 91  1  0
 93 92  1  0
 95 98  1  1
 95 96  1  0
 97 95  1  0
M  ISO  4   2 100  18 100  57 101  58 101
M  END
>  <TORSDO>  (28) 
F 23

>  <SCORE>  (28) 
-11.490

>  <name>  (28) 
27

>  <ligand_id>  (28) 
27

>  <original_smiles>  (28) 
[H]c1c([H])c([H])c2c(c1[H])C([H])([H])C([H])([H])C([H])([H])C2([H])N([H])C(=O)C1([H])N(C(=O)C([H])(N([H])C(=O)C([H])(N([H])C([H])([H])[H])C([H])([H])[H])C(C([H])([H])[H])(C([H])([H])[H])C([H])([H])[H])C([H])([H])c2c([H])c(OC([H])([H])C([H])([H])C([H])([H])[N+]([H])([H])C([H])([H])C([H])([H])C([H])([H])C3([H])N(C(=O)N4C([H])([H])C([H])([H])C([H])([H])C([H])(n5nc(-c6c([H])c([H])c(Oc7c([H])c([H])c(F)c([H])c7F)c([H])c6[H])c(C(=O)N([H])[H])c5N([H])[H])C4([H])[H])C([H])([H])C([H])([H])C4(C([H])([H])C([H])([H])C4([H])[H])C3([H])C(=O)C([H])([H])[H])c([H])c([H])c2C1([H])[H]

>  <smiles>  (28) 
[H]c1c([H])c([H])c2c(c1[H])C([H])([H])C([H])([H])C([H])([H])C2([H])N([H])C(=O)C1([H])N(C(=O)C([H])(N([H])C(=O)C([H])(N([H])C([H])([H])[H])C([H])([H])[H])C(C([H])([H])[H])(C([H])([H])[H])C([H])([H])[H])C([H])([H])c2c([H])c(OC([H])([H])C([H])([H])C([H])([H])[N+]([H])([H])C([H])([H])C([H])([H])C([H])([H])C3([H])N(C(=O)N4C([H])([H])C([H])([H])C([H])([H])C([H])(n5nc(-c6c([H])c([H])c(Oc7c([H])c([H])c(F)c([H])c7F)c([H])c6[H])c(C(=O)N([H])[H])c5N([H])[H])C4([H])[H])C([H])([H])C([H])([H])C4(C([H])([H])C([H])([H])C4([H])[H])C3([H])C(=O)C([H])([H])[H])c([H])c([H])c2C1([H])[H]

$$$$
28:0:0
     RDKit          3D

 92101  0  0  1  0  0  0  0  0999 V2000
  -28.1810  -19.1950   19.9430 C   0  0  0  0  0  2  0  0  0  0  0  0
  -26.6470  -21.3040   19.3530 C   0  0  0  0  0  2  0  0  0  0  0  0
  -28.9100  -19.4000   17.6180 C   0  0  0  0  0  2  0  0  0  0  0  0
  -27.0610  -19.8560   19.1510 C   0  0  0  0  0  3  0  0  0  0  0  0
  -27.6320  -20.2150   17.7900 C   0  0  0  0  0  3  0  0  0  0  0  0
  -28.9570  -18.4640   18.8430 C   0  0  0  0  0  3  0  0  0  0  0  0
  -27.5970  -21.7110   18.2110 C   0  0  0  0  0  3  0  0  0  0  0  0
  -30.3470  -17.8880   19.1670 C   0  0  0  0  0  2  0  0  0  0  0  0
  -30.3230  -16.6700   20.1140 C   0  0  0  0  0  2  0  0  0  0  0  0
  -32.0240  -14.7250   20.3590 C   0  0  0  0  0  0  0  0  0  0  0  0
  -31.6480  -12.3360   19.9450 C   0  0  0  0  0  2  0  0  0  0  0  0
  -30.8370  -12.1390   18.6490 C   0  0  0  0  0  2  0  0  0  0  0  0
  -29.3260  -12.1850   18.9420 C   0  0  0  0  0  2  0  0  0  0  0  0
  -28.9230  -13.4070   19.8090 C   0  0  0  0  0  3  0  0  0  0  0  0
  -29.8620  -13.5600   21.0320 C   0  0  0  0  0  2  0  0  0  0  0  0
  -31.2330  -13.6280   20.5120 N   0  0  0  0  0  0  0  0  0  0  0  0
  -33.2400  -14.6410   20.1960 O   0  0  0  0  0  0  0  0  0  0  0  0
  -31.4920  -15.8370   19.8270 N   0  0  0  0  0  0  0  0  0  0  0  0
  -32.2210  -16.3700   19.3700 H   0  0  0  0  0  0  0  0  0  0  0  0
  -26.5960  -14.3670   20.3360 C   0  0  0  0  0  0  0  0  0  0  0  0
  -25.4020  -13.7760   20.6360 C   0  0  0  0  0  0  0  0  0  0  0  0
  -25.6570  -12.3730   20.6320 C   0  0  0  0  0  0  0  0  0  0  0  0
  -27.5170  -13.3430   20.1960 N   0  0  0  0  0  0  0  0  0  0  0  0
  -26.9460  -12.1330   20.4260 N   0  0  0  0  0  0  0  0  0  0  0  0
  -24.7340  -11.2410   20.7490 C   0  0  0  0  0  0  0  0  0  0  0  0
  -25.0260  -10.1360   21.5760 C   0  0  0  0  0  3  0  0  0  0  0  0
  -24.1150   -9.0660   21.6870 C   0  0  0  0  0  3  0  0  0  0  0  0
  -22.8940   -9.0970   20.9690 C   0  0  0  0  0  0  0  0  0  0  0  0
  -22.6200  -10.1880   20.1250 C   0  0  0  0  0  3  0  0  0  0  0  0
  -23.5330  -11.2500   20.0130 C   0  0  0  0  0  3  0  0  0  0  0  0
  -21.9600   -8.0900   20.9960 O   0  0  0  0  0  0  0  0  0  0  0  0
  -21.9010   -7.1950   22.0340 C   0  0  0  0  0  0  0  0  0  0  0  0
  -21.7730   -7.6170   23.3750 C   0  0  0  0  0  3  0  0  0  0  0  0
  -21.6440   -6.6620   24.4030 C   0  0  0  0  0  3  0  0  0  0  0  0
  -21.6330   -5.2900   24.0920 C   0  0  0  0  0  0  0  0  0  0  0  0
  -21.7570   -4.8690   22.7560 C   0  0  0  0  0  3  0  0  0  0  0  0
  -21.8870   -5.8200   21.7300 C   0  0  0  0  0  0  0  0  0  0  0  0
  -21.9830   -5.4110   20.4430 F   0  0  0  0  0  0  0  0  0  0  0  0
  -21.5010   -4.3730   25.0780 F   0  0  0  0  0  0  0  0  0  0  0  0
  -24.0800  -14.4690   20.8130 C   0  0  0  0  0  0  0  0  0  0  0  0
  -23.2170  -13.9310   21.6690 N   0  0  0  0  0  0  0  0  0  0  0  0
  -23.8250  -15.5200   20.2290 O   0  0  0  0  0  0  0  0  0  0  0  0
  -23.4350  -13.0790   22.1650 H   0  0  0  0  0  0  0  0  0  0  0  0
  -22.3270  -14.3780   21.8320 H   0  0  0  0  0  0  0  0  0  0  0  0
  -26.9600  -15.6850   20.1360 N   0  0  0  0  0  0  0  0  0  0  0  0
  -26.2860  -16.4430   20.1660 H   0  0  0  0  0  0  0  0  0  0  0  0
  -27.8780  -15.9770   19.8300 H   0  0  0  0  0  0  0  0  0  0  0  0
  -28.8650  -22.5290   18.5220 C   0  0  0  0  0  2  0  0  0  0  0  0
  -28.5620  -23.7300   19.4430 C   0  0  0  0  0  2  0  0  0  0  0  0
  -29.6360  -24.8290   19.5450 C   0  0  0  0  0  2  0  0  0  0  0  0
  -29.3190  -25.7980   20.7160 C   0  0  0  0  0  2  0  0  0  0  0  0
  -29.3360  -27.1930   20.3960 O   0  0  0  0  0  0  0  0  0  0  0  0
  -24.7040  -31.7730   23.3090 C   0  0  0  0  0  0  0  0  0  0  0  0
  -28.0950  -27.7820   20.3400 C   0  0  0  0  0  0  0  0  0  0  0  0
  -23.8120  -30.2960   21.5440 C   0  0  0  0  0  3  0  0  0  0  0  0
  -25.5480  -28.9900   20.2100 C   0  0  0  0  0  0  0  0  0  0  0  0
  -26.2890  -30.9530   21.5690 C   0  0  0  0  0  2  0  0  0  0  0  0
  -26.5850  -29.6270   20.8980 C   0  0  0  0  0  0  0  0  0  0  0  0
  -27.8670  -29.0340   20.9620 C   0  0  0  0  0  3  0  0  0  0  0  0
  -27.0340  -27.1560   19.6520 C   0  0  0  0  0  3  0  0  0  0  0  0
  -25.7640  -27.7540   19.5790 C   0  0  0  0  0  3  0  0  0  0  0  0
  -24.2070  -29.6880   20.1730 C   0  0  0  0  0  2  0  0  0  0  0  0
  -24.9470  -31.0230   22.1970 N   0  0  0  0  0  0  0  0  0  0  0  0
  -23.5570  -31.8900   23.7600 O   0  0  0  0  0  0  0  0  0  0  0  0
  -23.2190  -29.1700   22.4160 C   0  0  0  0  0  0  0  0  0  0  0  0
  -21.9270  -28.8690   22.2030 N   0  0  0  0  0  0  0  0  0  0  0  0
  -23.9140  -28.5770   23.2430 O   0  0  0  0  0  0  0  0  0  0  0  0
  -21.4230  -29.4020   21.5070 H   0  0  0  0  0  0  0  0  0  0  0  0
  -18.6570  -27.3680   22.4680 C   0  0  0  0  0  0  0  0  0  0  0  0
  -21.1690  -27.8190   22.8840 C   0  0  0  0  0  3  0  0  0  0  0  0
  -21.4260  -26.4450   22.2280 C   0  0  0  0  0  2  0  0  0  0  0  0
  -20.4060  -26.0940   21.1450 C   0  0  0  0  0  2  0  0  0  0  0  0
  -18.9820  -26.0960   21.7080 C   0  0  0  0  0  2  0  0  0  0  0  0
  -19.6870  -28.1870   23.0040 C   0  0  0  0  0  0  0  0  0  0  0  0
  -19.3340  -29.4000   23.6400 C   0  0  0  0  0  3  0  0  0  0  0  0
  -17.9860  -29.7800   23.7680 C   0  0  0  0  0  3  0  0  0  0  0  0
  -16.9710  -28.9500   23.2590 C   0  0  0  0  0  3  0  0  0  0  0  0
  -17.3070  -27.7490   22.6080 C   0  0  0  0  0  3  0  0  0  0  0  0
  -25.8480  -32.5240   24.0550 C   0  0  0  0  0  3  0  0  0  0  0  0
  -25.4090  -33.9120   24.2360 N   0  0  0  0  0  0  0  0  0  0  0  0
  -25.8030  -34.9390   23.4690 C   0  0  0  0  0  0  0  0  0  0  0  0
  -26.6370  -34.8220   22.5670 O   0  0  0  0  0  0  0  0  0  0  0  0
  -24.6800  -34.0750   24.9120 H   0  0  0  0  0  0  0  0  0  0  0  0
  -24.0480  -36.5810   22.7290 C   0  0  0  0  0  1  0  0  0  0  0  0
  -25.1690  -36.3150   23.7460 C   0  0  0  0  0  3  0  0  0  0  0  0
  -27.0890  -37.3930   24.8300 C   0  0  0  0  0  1  0  0  0  0  0  0
  -26.1420  -37.4270   23.7180 N   0  0  0  0  0  0  0  0  0  0  0  0
  -25.6670  -38.3250   23.7330 H   0  0  0  0  0  0  0  0  0  0  0  0
  -26.2270  -31.8710   25.4420 C   0  0  1  0  0  0  0  0  0  0  0  0
  -25.0130  -31.6300   26.3670 C   0  0  0  0  0  1  0  0  0  0  0  0
  -26.9330  -30.5120   25.2300 C   0  0  0  0  0  1  0  0  0  0  0  0
  -27.2290  -32.7780   26.1910 C   0  0  0  0  0  1  0  0  0  0  0  0
  3  6  1  0
  4  2  1  0
  4  1  1  0
  5  3  1  0
  5  7  1  0
  5  4  1  0
  6  8  1  0
  6  1  1  0
  7 48  1  0
  7  2  1  0
  8  9  1  0
 10 16  1  0
 11 16  1  0
 12 13  1  0
 12 11  1  0
 14 13  1  0
 14 23  1  0
 14 15  1  0
 16 15  1  0
 17 10  2  0
 18  9  1  0
 18 10  1  0
 19 18  1  0
 20 21  2  0
 21 40  1  0
 22 21  1  0
 22 25  1  0
 23 20  1  0
 23 24  1  0
 24 22  2  0
 25 26  1  0
 26 27  2  0
 28 31  1  0
 28 27  1  0
 29 28  2  0
 30 29  1  0
 30 25  2  0
 31 32  1  0
 32 33  1  0
 33 34  2  0
 35 34  1  0
 35 39  1  0
 36 35  2  0
 37 32  2  0
 37 36  1  0
 38 37  1  0
 40 41  1  0
 41 44  1  0
 41 43  1  0
 42 40  2  0
 45 46  1  0
 45 20  1  0
 47 45  1  0
 48 49  1  0
 49 50  1  0
 50 51  1  0
 52 51  1  0
 53 64  2  0
 54 52  1  0
 54 59  1  0
 55 63  1  0
 55 65  1  0
 56 58  1  0
 57 63  1  0
 58 59  2  0
 58 57  1  0
 60 54  2  0
 61 60  1  0
 61 56  2  0
 62 56  1  0
 62 55  1  0
 63 53  1  0
 65 67  2  0
 66 65  1  0
 68 66  1  0
 69 78  2  0
 69 74  1  0
 70 66  1  0
 70 74  1  0
 71 70  1  0
 72 73  1  0
 72 71  1  0
 73 69  1  0
 74 75  2  0
 75 76  1  0
 77 76  2  0
 78 77  1  0
 79 53  1  0
 79 80  1  0
 79 89  1  0
 80 83  1  0
 81 85  1  0
 81 80  1  0
 82 81  2  0
 85 84  1  0
 87 88  1  0
 87 85  1  0
 87 86  1  0
 89 92  1  1
 89 90  1  0
 91 89  1  0
M  ISO  4  10 100  18 100  51 101  52 101
M  END
>  <TORSDO>  (29) 
F 22

>  <SCORE>  (29) 
-10.873

>  <name>  (29) 
28

>  <ligand_id>  (29) 
28

>  <original_smiles>  (29) 
[H]c1c([H])c([H])c2c(c1[H])C([H])([H])C([H])([H])C([H])([H])C2([H])N([H])C(=O)C1([H])N(C(=O)C([H])(N([H])C(=O)C([H])(N([H])C([H])([H])[H])C([H])([H])[H])C(C([H])([H])[H])(C([H])([H])[H])C([H])([H])[H])C([H])([H])c2c([H])c(OC([H])([H])C([H])([H])C([H])([H])C([H])([H])C3([H])C([H])([H])C4([H])C([H])([H])C([H])(C([H])([H])C([H])([H])N([H])C(=O)N5C([H])([H])C([H])([H])C([H])([H])C([H])(n6nc(-c7c([H])c([H])c(Oc8c([H])c([H])c(F)c([H])c8F)c([H])c7[H])c(C(=O)N([H])[H])c6N([H])[H])C5([H])[H])C([H])([H])C34[H])c([H])c([H])c2C1([H])[H]

>  <smiles>  (29) 
[H]c1c([H])c([H])c2c(c1[H])C([H])([H])C([H])([H])C([H])([H])C2([H])N([H])C(=O)C1([H])N(C(=O)C([H])(N([H])C(=O)C([H])(N([H])C([H])([H])[H])C([H])([H])[H])C(C([H])([H])[H])(C([H])([H])[H])C([H])([H])[H])C([H])([H])c2c([H])c(OC([H])([H])C([H])([H])C([H])([H])C([H])([H])C3([H])C([H])([H])C4([H])C([H])([H])C([H])(C([H])([H])C([H])([H])N([H])C(=O)N5C([H])([H])C([H])([H])C([H])([H])C([H])(n6nc(-c7c([H])c([H])c(Oc8c([H])c([H])c(F)c([H])c8F)c([H])c7[H])c(C(=O)N([H])[H])c6N([H])[H])C5([H])[H])C([H])([H])C34[H])c([H])c([H])c2C1([H])[H]

$$$$
29:0:0
     RDKit          3D

 96104  0  0  1  0  0  0  0  0999 V2000
  -31.2940  -20.9930   21.6480 C   0  0  0  0  0  3  0  0  0  0  0  0
  -29.4100  -20.7390   19.6810 C   0  0  0  0  0  3  0  0  0  0  0  0
  -30.7880  -22.1740   21.0580 C   0  0  0  0  0  0  0  0  0  0  0  0
  -30.9250  -19.6840   21.2580 C   0  0  0  0  0  0  0  0  0  0  0  0
  -29.7470  -22.1410   20.0880 C   0  0  0  0  0  0  0  0  0  0  0  0
  -29.9950  -19.4600   20.2160 C   0  0  0  0  0  0  0  0  0  0  0  0
  -31.5340  -23.4550   21.4040 C   0  0  0  0  0  1  0  0  0  0  0  0
  -31.6660  -18.5260   21.8970 C   0  0  0  0  0  1  0  0  0  0  0  0
  -29.3180  -23.5870   19.3640 C   0  0  0  0  0  2  0  0  0  0  0  0
  -28.2260  -24.8470   19.7650 C   0  0  0  0  0  3  0  0  0  0  0  0
  -28.4190  -25.5630   22.2850 C   0  0  0  0  0  1  0  0  0  0  0  0
  -27.6080  -24.8230   21.2030 C   0  0  0  0  0  3  0  0  0  0  0  0
  -27.8870  -22.5520   22.5140 C   0  0  0  0  0  1  0  0  0  0  0  0
  -26.9960  -23.4700   21.6600 C   0  0  0  0  0  2  0  0  0  0  0  0
  -28.3380  -26.3690   19.3570 O   0  0  0  0  0  0  0  0  0  0  0  0
  -24.6460  -31.6980   22.9360 C   0  0  0  0  0  0  0  0  0  0  0  0
  -27.2410  -27.3160   19.4390 C   0  0  0  0  0  0  0  0  0  0  0  0
  -23.4240  -30.4120   21.2220 C   0  0  0  0  0  3  0  0  0  0  0  0
  -24.8630  -28.9980   19.6280 C   0  0  0  0  0  0  0  0  0  0  0  0
  -25.9630  -30.7590   20.9950 C   0  0  0  0  0  2  0  0  0  0  0  0
  -26.0510  -29.4240   20.2340 C   0  0  0  0  0  0  0  0  0  0  0  0
  -27.2380  -28.6000   20.1280 C   0  0  0  0  0  3  0  0  0  0  0  0
  -26.0180  -27.0000   18.8030 C   0  0  0  0  0  3  0  0  0  0  0  0
  -24.8580  -27.8010   18.9010 C   0  0  0  0  0  3  0  0  0  0  0  0
  -23.6160  -29.8580   19.7850 C   0  0  0  0  0  2  0  0  0  0  0  0
  -24.6970  -30.9780   21.7740 N   0  0  0  0  0  0  0  0  0  0  0  0
  -23.5730  -31.9020   23.5260 O   0  0  0  0  0  0  0  0  0  0  0  0
  -22.8100  -29.3100   22.1210 C   0  0  0  0  0  0  0  0  0  0  0  0
  -21.4820  -29.1120   22.0340 N   0  0  0  0  0  0  0  0  0  0  0  0
  -23.5300  -28.6330   22.8610 O   0  0  0  0  0  0  0  0  0  0  0  0
  -20.9500  -29.7130   21.4180 H   0  0  0  0  0  0  0  0  0  0  0  0
  -18.1470  -27.8230   22.6140 C   0  0  0  0  0  0  0  0  0  0  0  0
  -20.7180  -28.0880   22.7530 C   0  0  0  0  0  3  0  0  0  0  0  0
  -20.7950  -26.7260   22.0240 C   0  0  0  0  0  2  0  0  0  0  0  0
  -19.6350  -26.4960   21.0500 C   0  0  0  0  0  2  0  0  0  0  0  0
  -18.2940  -26.5550   21.7880 C   0  0  0  0  0  2  0  0  0  0  0  0
  -19.2860  -28.5520   23.0530 C   0  0  0  0  0  0  0  0  0  0  0  0
  -19.0940  -29.7430   23.7870 C   0  0  0  0  0  3  0  0  0  0  0  0
  -17.7980  -30.2040   24.0860 C   0  0  0  0  0  3  0  0  0  0  0  0
  -16.6780  -29.4710   23.6610 C   0  0  0  0  0  3  0  0  0  0  0  0
  -16.8530  -28.2820   22.9320 C   0  0  0  0  0  3  0  0  0  0  0  0
  -25.9280  -32.3200   23.5700 C   0  0  0  0  0  3  0  0  0  0  0  0
  -25.5760  -33.6560   24.0800 N   0  0  0  0  0  0  0  0  0  0  0  0
  -25.8300  -34.8070   23.4440 C   0  0  0  0  0  0  0  0  0  0  0  0
  -26.4460  -34.8590   22.3770 O   0  0  0  0  0  0  0  0  0  0  0  0
  -25.0310  -33.6850   24.9280 H   0  0  0  0  0  0  0  0  0  0  0  0
  -24.0150  -36.5490   23.3990 C   0  0  0  0  0  1  0  0  0  0  0  0
  -25.3150  -36.1080   24.0910 C   0  0  0  0  0  3  0  0  0  0  0  0
  -27.4530  -36.9920   24.9180 C   0  0  0  0  0  1  0  0  0  0  0  0
  -26.2960  -37.2140   24.0550 N   0  0  0  0  0  0  0  0  0  0  0  0
  -25.8590  -38.0900   24.3290 H   0  0  0  0  0  0  0  0  0  0  0  0
  -26.5400  -31.4350   24.7240 C   0  0  1  0  0  0  0  0  0  0  0  0
  -25.5170  -31.0350   25.8120 C   0  0  0  0  0  1  0  0  0  0  0  0
  -27.1530  -30.1360   24.1510 C   0  0  0  0  0  1  0  0  0  0  0  0
  -27.6960  -32.1950   25.4140 C   0  0  0  0  0  1  0  0  0  0  0  0
  -29.9160  -17.9090   19.5870 C   0  0  0  0  0  0  0  0  0  0  0  0
  -30.6790  -15.3020   20.2580 C   0  0  0  0  0  0  0  0  0  0  0  0
  -30.6100  -12.8890   19.4770 C   0  0  0  0  0  2  0  0  0  0  0  0
  -29.7030  -12.7660   18.2320 C   0  0  0  0  0  2  0  0  0  0  0  0
  -28.2300  -12.5700   18.6420 C   0  0  0  0  0  2  0  0  0  0  0  0
  -27.7960  -13.5140   19.7960 C   0  0  0  0  0  3  0  0  0  0  0  0
  -28.8440  -13.6060   20.9280 C   0  0  0  0  0  2  0  0  0  0  0  0
  -30.1100  -14.0240   20.3100 N   0  0  0  0  0  0  0  0  0  0  0  0
  -31.8720  -15.3620   19.9410 O   0  0  0  0  0  0  0  0  0  0  0  0
  -29.8810  -16.4910   20.3280 N   0  0  0  0  0  4  0  0  0  0  0  0
  -28.9610  -16.2870   20.6900 H   0  0  0  0  0  0  0  0  0  0  0  0
  -25.4140  -14.0820   20.5340 C   0  0  0  0  0  0  0  0  0  0  0  0
  -24.3490  -13.3040   20.8910 C   0  0  0  0  0  0  0  0  0  0  0  0
  -24.8120  -11.9530   20.8430 C   0  0  0  0  0  0  0  0  0  0  0  0
  -26.4580  -13.2060   20.2870 N   0  0  0  0  0  0  0  0  0  0  0  0
  -26.1060  -11.9180   20.5380 N   0  0  0  0  0  0  0  0  0  0  0  0
  -24.0800  -10.6900   21.0160 C   0  0  0  0  0  0  0  0  0  0  0  0
  -24.5010   -9.7160   21.9470 C   0  0  0  0  0  3  0  0  0  0  0  0
  -23.7730   -8.5180   22.1080 C   0  0  0  0  0  3  0  0  0  0  0  0
  -22.6060   -8.2880   21.3400 C   0  0  0  0  0  0  0  0  0  0  0  0
  -22.2050   -9.2510   20.3980 C   0  0  0  0  0  3  0  0  0  0  0  0
  -22.9350  -10.4410   20.2340 C   0  0  0  0  0  3  0  0  0  0  0  0
  -21.8500   -7.1440   21.4110 O   0  0  0  0  0  0  0  0  0  0  0  0
  -21.7830   -6.3950   22.5580 C   0  0  0  0  0  0  0  0  0  0  0  0
  -21.3120   -6.9370   23.7750 C   0  0  0  0  0  3  0  0  0  0  0  0
  -21.1940   -6.1170   24.9140 C   0  0  0  0  0  3  0  0  0  0  0  0
  -21.5350   -4.7520   24.8380 C   0  0  0  0  0  0  0  0  0  0  0  0
  -21.9950   -4.2070   23.6240 C   0  0  0  0  0  3  0  0  0  0  0  0
  -22.1160   -5.0270   22.4880 C   0  0  0  0  0  0  0  0  0  0  0  0
  -22.5410   -4.4930   21.3180 F   0  0  0  0  0  0  0  0  0  0  0  0
  -21.4130   -3.9600   25.9280 F   0  0  0  0  0  0  0  0  0  0  0  0
  -22.9520  -13.7810   21.1630 C   0  0  0  0  0  0  0  0  0  0  0  0
  -22.2220  -13.0770   22.0200 N   0  0  0  0  0  0  0  0  0  0  0  0
  -22.5160  -14.8100   20.6500 O   0  0  0  0  0  0  0  0  0  0  0  0
  -22.5880  -12.2460   22.4580 H   0  0  0  0  0  0  0  0  0  0  0  0
  -21.2820  -13.3750   22.2420 H   0  0  0  0  0  0  0  0  0  0  0  0
  -25.5750  -15.4570   20.3720 N   0  0  0  0  0  0  0  0  0  0  0  0
  -24.7980  -16.1000   20.4820 H   0  0  0  0  0  0  0  0  0  0  0  0
  -26.4110  -15.9010   20.0180 H   0  0  0  0  0  0  0  0  0  0  0  0
  -28.8960  -16.6470   17.5320 C   0  0  0  0  0  1  0  0  0  0  0  0
  -28.8800  -17.8940   18.4350 C   0  0  0  0  0  2  0  0  0  0  0  0
  2  5  2  0
  2  6  1  0
  3  7  1  0
  3  1  2  0
  4  1  1  0
  4  8  1  0
  5  3  1  0
  6  4  2  0
  9  5  1  0
 10  9  1  0
 10 12  1  0
 12 14  1  0
 12 11  1  0
 14 13  1  0
 15 17  1  0
 15 10  1  0
 16 27  2  0
 17 22  1  0
 18 26  1  0
 18 28  1  0
 19 25  1  0
 19 21  1  0
 20 26  1  0
 21 20  1  0
 22 21  2  0
 23 24  1  0
 23 17  2  0
 24 19  2  0
 25 18  1  0
 26 16  1  0
 28 30  2  0
 29 28  1  0
 31 29  1  0
 32 41  2  0
 32 37  1  0
 33 29  1  0
 33 37  1  0
 34 33  1  0
 35 36  1  0
 35 34  1  0
 36 32  1  0
 37 38  2  0
 38 39  1  0
 40 39  2  0
 41 40  1  0
 42 16  1  0
 42 43  1  0
 42 52  1  0
 43 46  1  0
 44 43  1  0
 44 48  1  0
 45 44  2  0
 48 47  1  0
 50 48  1  0
 50 51  1  0
 50 49  1  0
 52 55  1  1
 52 53  1  0
 54 52  1  0
 56  6  1  0
 56 65  2  3
 57 63  1  0
 57 65  1  0
 58 63  1  0
 59 60  1  0
 59 58  1  0
 61 60  1  0
 61 70  1  0
 61 62  1  0
 63 62  1  0
 64 57  2  0
 65 66  1  0
 67 68  2  0
 68 87  1  0
 69 68  1  0
 69 72  1  0
 70 67  1  0
 70 71  1  0
 71 69  2  0
 72 73  1  0
 73 74  2  0
 75 78  1  0
 75 74  1  0
 76 75  2  0
 77 76  1  0
 77 72  2  0
 78 79  1  0
 79 80  1  0
 80 81  2  0
 82 81  1  0
 82 86  1  0
 83 82  2  0
 84 79  2  0
 84 83  1  0
 85 84  1  0
 87 88  1  0
 88 91  1  0
 88 90  1  0
 89 87  2  0
 92 93  1  0
 92 67  1  0
 94 92  1  0
 95 96  1  0
 96 56  1  0
M  ISO  4  10 101  15 101  57 100  65 100
M  END
>  <TORSDO>  (30) 
F 22

>  <SCORE>  (30) 
-10.588

>  <name>  (30) 
29

>  <ligand_id>  (30) 
29

>  <original_smiles>  (30) 
[H]c1c([H])c([H])c2c(c1[H])C([H])([H])C([H])([H])C([H])([H])C2([H])N([H])C(=O)C1([H])N(C(=O)C([H])(N([H])C(=O)C([H])(N([H])C([H])([H])[H])C([H])([H])[H])C(C([H])([H])[H])(C([H])([H])[H])C([H])([H])[H])C([H])([H])c2c([H])c(OC([H])(C([H])([H])c3c([H])c(C([H])(N([H])C(=O)N4C([H])([H])C([H])([H])C([H])([H])C([H])(n5nc(-c6c([H])c([H])c(Oc7c([H])c([H])c(F)c([H])c7F)c([H])c6[H])c(C(=O)N([H])[H])c5N([H])[H])C4([H])[H])C([H])([H])C([H])([H])[H])c(C([H])([H])[H])c([H])c3C([H])([H])[H])C([H])(C([H])([H])[H])C([H])([H])C([H])([H])[H])c([H])c([H])c2C1([H])[H]

>  <smiles>  (30) 
[H]c1c([H])c([H])c2c(c1[H])C([H])([H])C([H])([H])C([H])([H])C2([H])N([H])C(=O)C1([H])N(C(=O)C([H])(N([H])C(=O)C([H])(N([H])C([H])([H])[H])C([H])([H])[H])C(C([H])([H])[H])(C([H])([H])[H])C([H])([H])[H])C([H])([H])c2c([H])c(OC([H])(C([H])([H])c3c([H])c(C([H])(N([H])C(=O)N4C([H])([H])C([H])([H])C([H])([H])C([H])(n5nc(-c6c([H])c([H])c(Oc7c([H])c([H])c(F)c([H])c7F)c([H])c6[H])c(C(=O)N([H])[H])c5N([H])[H])C4([H])[H])C([H])([H])C([H])([H])[H])c(C([H])([H])[H])c([H])c3C([H])([H])[H])C([H])(C([H])([H])[H])C([H])([H])C([H])([H])[H])c([H])c([H])c2C1([H])[H]

$$$$
30:0:0
     RDKit          3D

 93103  0  0  1  0  0  0  0  0999 V2000
  -30.9960  -22.2590   20.5330 C   0  0  0  0  0  0  0  0  0  0  0  0
  -28.3550  -23.2190   19.1770 C   0  0  0  0  0  2  0  0  0  0  0  0
  -29.6620  -22.9050   20.8260 C   0  0  0  0  0  3  0  0  0  0  0  0
  -30.8110  -20.9000   19.8680 C   0  0  0  0  0  3  0  0  0  0  0  0
  -28.6310  -22.0280   20.1280 C   0  0  0  0  0  3  0  0  0  0  0  0
  -29.3310  -20.7460   19.6500 C   0  0  0  0  0  3  0  0  0  0  0  0
  -29.2130  -24.1760   20.0340 C   0  0  0  0  0  3  0  0  0  0  0  0
  -30.0710  -19.7160   20.5330 C   0  0  2  0  0  0  0  0  0  0  0  0
  -32.1190  -22.7100   20.7710 O   0  0  0  0  0  0  0  0  0  0  0  0
  -30.9260  -20.0470   22.9580 C   0  0  0  0  0  1  0  0  0  0  0  0
  -29.7480  -19.6910   22.0350 C   0  0  0  0  0  2  0  0  0  0  0  0
  -28.5430  -25.3600   20.8050 C   0  0  0  0  0  2  0  0  0  0  0  0
  -28.6770  -26.6980   20.2410 O   0  0  0  0  0  0  0  0  0  0  0  0
  -24.6700  -31.8340   23.2540 C   0  0  0  0  0  0  0  0  0  0  0  0
  -27.5170  -27.4590   20.2170 C   0  0  0  0  0  0  0  0  0  0  0  0
  -23.5480  -30.4030   21.5800 C   0  0  0  0  0  3  0  0  0  0  0  0
  -25.0830  -28.9230   20.1740 C   0  0  0  0  0  0  0  0  0  0  0  0
  -26.0690  -30.8390   21.4390 C   0  0  0  0  0  2  0  0  0  0  0  0
  -26.2160  -29.4730   20.7900 C   0  0  0  0  0  0  0  0  0  0  0  0
  -27.4390  -28.7510   20.8030 C   0  0  0  0  0  3  0  0  0  0  0  0
  -26.3680  -26.9400   19.5840 C   0  0  0  0  0  3  0  0  0  0  0  0
  -25.1570  -27.6600   19.5640 C   0  0  0  0  0  3  0  0  0  0  0  0
  -23.8090  -29.7410   20.2000 C   0  0  0  0  0  2  0  0  0  0  0  0
  -24.7790  -31.0420   22.1500 N   0  0  0  0  0  0  0  0  0  0  0  0
  -23.5680  -32.0650   23.7720 O   0  0  0  0  0  0  0  0  0  0  0  0
  -22.9090  -29.3550   22.5200 C   0  0  0  0  0  0  0  0  0  0  0  0
  -21.5990  -29.1140   22.3500 N   0  0  0  0  0  0  0  0  0  0  0  0
  -23.5920  -28.7630   23.3600 O   0  0  0  0  0  0  0  0  0  0  0  0
  -21.1070  -29.6490   21.6480 H   0  0  0  0  0  0  0  0  0  0  0  0
  -18.2700  -27.7560   22.7280 C   0  0  0  0  0  0  0  0  0  0  0  0
  -20.8000  -28.1390   23.0930 C   0  0  0  0  0  3  0  0  0  0  0  0
  -20.9930  -26.7130   22.5250 C   0  0  0  0  0  2  0  0  0  0  0  0
  -19.9450  -26.3360   21.4730 C   0  0  0  0  0  2  0  0  0  0  0  0
  -18.5360  -26.4160   22.0660 C   0  0  0  0  0  2  0  0  0  0  0  0
  -19.3330  -28.5720   23.1970 C   0  0  0  0  0  0  0  0  0  0  0  0
  -19.0340  -29.8250   23.7730 C   0  0  0  0  0  3  0  0  0  0  0  0
  -17.7010  -30.2640   23.8880 C   0  0  0  0  0  3  0  0  0  0  0  0
  -16.6510  -29.4450   23.4380 C   0  0  0  0  0  3  0  0  0  0  0  0
  -16.9360  -28.1930   22.8640 C   0  0  0  0  0  3  0  0  0  0  0  0
  -25.9190  -32.5040   23.9050 C   0  0  0  0  0  3  0  0  0  0  0  0
  -26.4140  -31.7650   25.2090 C   0  0  1  0  0  0  0  0  0  0  0  0
  -25.2880  -31.4850   26.2320 C   0  0  0  0  0  1  0  0  0  0  0  0
  -27.0740  -30.4130   24.8520 C   0  0  0  0  0  1  0  0  0  0  0  0
  -27.4990  -32.6140   25.9130 C   0  0  0  0  0  1  0  0  0  0  0  0
  -25.5680  -33.8990   24.2030 N   0  0  0  0  0  0  0  0  0  0  0  0
  -25.9070  -34.9490   23.4410 C   0  0  0  0  0  0  0  0  0  0  0  0
  -26.6170  -34.8460   22.4370 O   0  0  0  0  0  0  0  0  0  0  0  0
  -24.9380  -34.0510   24.9780 H   0  0  0  0  0  0  0  0  0  0  0  0
  -24.1570  -36.7000   22.9950 C   0  0  0  0  0  1  0  0  0  0  0  0
  -25.3740  -36.3320   23.8600 C   0  0  0  0  0  3  0  0  0  0  0  0
  -27.4460  -37.2830   24.7730 C   0  0  0  0  0  1  0  0  0  0  0  0
  -26.3890  -37.4050   23.7730 N   0  0  0  0  0  0  0  0  0  0  0  0
  -25.9560  -38.3180   23.8800 H   0  0  0  0  0  0  0  0  0  0  0  0
  -30.1860  -18.2480   19.9850 C   0  0  0  0  0  2  0  0  0  0  0  0
  -31.0990  -17.2160   20.7470 C   0  0  0  0  0  2  0  0  0  0  0  0
  -31.4520  -14.7140   20.2180 C   0  0  0  0  0  0  0  0  0  0  0  0
  -31.1460  -12.4700   19.2130 C   0  0  0  0  0  2  0  0  0  0  0  0
  -30.1950  -12.5920   18.0020 C   0  0  0  0  0  2  0  0  0  0  0  0
  -28.7200  -12.5100   18.4460 C   0  0  0  0  0  2  0  0  0  0  0  0
  -28.4050  -13.4370   19.6500 C   0  0  0  0  0  3  0  0  0  0  0  0
  -29.4600  -13.2670   20.7660 C   0  0  0  0  0  2  0  0  0  0  0  0
  -30.7800  -13.5280   20.1700 N   0  0  0  0  0  0  0  0  0  0  0  0
  -32.6080  -14.8370   19.8060 O   0  0  0  0  0  0  0  0  0  0  0  0
  -30.7080  -15.7880   20.5900 N   0  0  0  0  0  0  0  0  0  0  0  0
  -29.7620  -15.5610   20.8610 H   0  0  0  0  0  0  0  0  0  0  0  0
  -26.0690  -14.1720   20.4370 C   0  0  0  0  0  0  0  0  0  0  0  0
  -24.9580  -13.4570   20.7960 C   0  0  0  0  0  0  0  0  0  0  0  0
  -25.3270  -12.0810   20.7000 C   0  0  0  0  0  0  0  0  0  0  0  0
  -27.0480  -13.2320   20.1480 N   0  0  0  0  0  0  0  0  0  0  0  0
  -26.6050  -11.9680   20.3640 N   0  0  0  0  0  0  0  0  0  0  0  0
  -24.5220  -10.8630   20.8520 C   0  0  0  0  0  0  0  0  0  0  0  0
  -24.8570   -9.8680   21.7970 C   0  0  0  0  0  3  0  0  0  0  0  0
  -24.0570   -8.7140   21.9360 C   0  0  0  0  0  3  0  0  0  0  0  0
  -22.9070   -8.5470   21.1300 C   0  0  0  0  0  0  0  0  0  0  0  0
  -22.5890   -9.5290   20.1750 C   0  0  0  0  0  3  0  0  0  0  0  0
  -23.3890  -10.6750   20.0340 C   0  0  0  0  0  3  0  0  0  0  0  0
  -22.0850   -7.4460   21.1780 O   0  0  0  0  0  0  0  0  0  0  0  0
  -21.8720   -6.7570   22.3450 C   0  0  0  0  0  0  0  0  0  0  0  0
  -21.2780   -7.3660   23.4710 C   0  0  0  0  0  3  0  0  0  0  0  0
  -21.0140   -6.6020   24.6260 C   0  0  0  0  0  3  0  0  0  0  0  0
  -21.3340   -5.2320   24.6530 C   0  0  0  0  0  0  0  0  0  0  0  0
  -21.9220   -4.6230   23.5300 C   0  0  0  0  0  3  0  0  0  0  0  0
  -22.1870   -5.3840   22.3780 C   0  0  0  0  0  0  0  0  0  0  0  0
  -22.7330   -4.7880   21.2910 F   0  0  0  0  0  0  0  0  0  0  0  0
  -21.0740   -4.4970   25.7600 F   0  0  0  0  0  0  0  0  0  0  0  0
  -23.6020  -14.0150   21.1160 C   0  0  0  0  0  0  0  0  0  0  0  0
  -22.8520  -13.3420   21.9820 N   0  0  0  0  0  0  0  0  0  0  0  0
  -23.2180  -15.0800   20.6350 O   0  0  0  0  0  0  0  0  0  0  0  0
  -23.1770  -12.4780   22.3920 H   0  0  0  0  0  0  0  0  0  0  0  0
  -21.9420  -13.6950   22.2390 H   0  0  0  0  0  0  0  0  0  0  0  0
  -26.3250  -15.5340   20.3120 N   0  0  0  0  0  0  0  0  0  0  0  0
  -25.6050  -16.2330   20.4580 H   0  0  0  0  0  0  0  0  0  0  0  0
  -27.1910  -15.9260   19.9640 H   0  0  0  0  0  0  0  0  0  0  0  0
  1  9  2  0
  2  7  1  0
  3  1  1  0
  4  1  1  0
  4  8  1  0
  5  2  1  0
  5  3  1  0
  6  4  1  0
  6  5  1  0
  6  8  1  0
  7 12  1  0
  7  3  1  0
  8 11  1  1
 11 10  1  0
 13 12  1  0
 14 25  2  0
 14 40  1  0
 15 13  1  0
 15 20  1  0
 16 24  1  0
 16 26  1  0
 17 23  1  0
 17 19  1  0
 18 24  1  0
 19 20  2  0
 19 18  1  0
 21 15  2  0
 22 21  1  0
 22 17  2  0
 23 16  1  0
 24 14  1  0
 26 28  2  0
 27 26  1  0
 27 31  1  0
 29 27  1  0
 30 39  2  0
 30 35  1  0
 31 35  1  0
 32 31  1  0
 33 34  1  0
 33 32  1  0
 34 30  1  0
 35 36  2  0
 36 37  1  0
 38 37  2  0
 39 38  1  0
 40 45  1  0
 40 41  1  0
 41 44  1  1
 41 42  1  0
 43 41  1  0
 45 48  1  0
 46 50  1  0
 46 45  1  0
 47 46  2  0
 49 50  1  0
 52 50  1  0
 52 53  1  0
 52 51  1  0
 54  8  1  0
 54 55  1  0
 56 64  1  0
 57 62  1  0
 58 59  1  0
 58 57  1  0
 59 60  1  0
 60 69  1  0
 60 61  1  0
 62 56  1  0
 62 61  1  0
 63 56  2  0
 64 55  1  0
 64 65  1  0
 66 67  2  0
 67 86  1  0
 68 67  1  0
 68 71  1  0
 69 70  1  0
 69 66  1  0
 70 68  2  0
 71 72  1  0
 72 73  2  0
 74 77  1  0
 74 73  1  0
 75 74  2  0
 76 75  1  0
 76 71  2  0
 77 78  1  0
 78 83  2  0
 78 79  1  0
 79 80  2  0
 80 81  1  0
 81 85  1  0
 82 81  2  0
 83 82  1  0
 84 83  1  0
 86 87  1  0
 87 90  1  0
 87 89  1  0
 88 86  2  0
 91 66  1  0
 91 92  1  0
 93 91  1  0
M  ISO  4  12 101  13 101  56 100  64 100
M  END
>  <TORSDO>  (31) 
F 20

>  <SCORE>  (31) 
-12.376

>  <name>  (31) 
30

>  <ligand_id>  (31) 
30

>  <original_smiles>  (31) 
[H]c1c([H])c([H])c2c(c1[H])C([H])([H])C([H])([H])C([H])([H])C2([H])N([H])C(=O)C1([H])N(C(=O)C([H])(N([H])C(=O)C([H])(N([H])C([H])([H])[H])C([H])([H])[H])C(C([H])([H])[H])(C([H])([H])[H])C([H])([H])[H])C([H])([H])c2c([H])c(OC([H])([H])C3([H])C([H])([H])C4([H])C3([H])C(=O)C3([H])C4([H])C3(C([H])([H])C([H])([H])[H])C([H])([H])C([H])([H])N([H])C(=O)N3C([H])([H])C([H])([H])C([H])([H])C([H])(n4nc(-c5c([H])c([H])c(Oc6c([H])c([H])c(F)c([H])c6F)c([H])c5[H])c(C(=O)N([H])[H])c4N([H])[H])C3([H])[H])c([H])c([H])c2C1([H])[H]

>  <smiles>  (31) 
[H]c1c([H])c([H])c2c(c1[H])C([H])([H])C([H])([H])C([H])([H])C2([H])N([H])C(=O)C1([H])N(C(=O)C([H])(N([H])C(=O)C([H])(N([H])C([H])([H])[H])C([H])([H])[H])C(C([H])([H])[H])(C([H])([H])[H])C([H])([H])[H])C([H])([H])c2c([H])c(OC([H])([H])C3([H])C([H])([H])C4([H])C3([H])C(=O)C3([H])C4([H])C3(C([H])([H])C([H])([H])[H])C([H])([H])C([H])([H])N([H])C(=O)N3C([H])([H])C([H])([H])C([H])([H])C([H])(n4nc(-c5c([H])c([H])c(Oc6c([H])c([H])c(F)c([H])c6F)c([H])c5[H])c(C(=O)N([H])[H])c4N([H])[H])C3([H])[H])c([H])c([H])c2C1([H])[H]

$$$$
31:0:0
     RDKit          3D

 93102  0  0  1  0  0  0  0  0999 V2000
  -31.0930  -20.8340   19.9640 C   0  0  0  0  0  3  0  0  0  0  0  0
  -29.0130  -19.6380   19.7630 C   0  0  0  0  0  3  0  0  0  0  0  0
  -30.4150  -19.6400   19.6900 C   0  0  0  0  0  0  0  0  0  0  0  0
  -30.4320  -22.0590   20.1480 C   0  0  0  0  0  0  0  0  0  0  0  0
  -28.3120  -20.8530   19.9570 C   0  0  0  0  0  0  0  0  0  0  0  0
  -29.0070  -22.1070   20.0380 C   0  0  0  0  0  0  0  0  0  0  0  0
  -31.3690  -23.2270   20.4190 C   0  0  0  0  0  1  0  0  0  0  0  0
  -26.7940  -20.7410   20.0430 C   0  0  0  0  0  1  0  0  0  0  0  0
  -30.8550  -17.3900   18.3660 C   0  0  0  0  0  2  0  0  0  0  0  0
  -31.2820  -18.4890   19.2850 C   0  0  0  0  0  3  0  0  0  0  0  0
  -31.3160  -17.0640   19.7870 C   0  0  0  0  0  3  0  0  0  0  0  0
  -30.4040  -16.0640   20.5230 C   0  0  0  0  0  2  0  0  0  0  0  0
  -30.9440  -14.6470   20.1740 C   0  0  0  0  0  0  0  0  0  0  0  0
  -30.5260  -12.4450   19.1810 C   0  0  0  0  0  2  0  0  0  0  0  0
  -29.6070  -12.6020   17.9580 C   0  0  0  0  0  2  0  0  0  0  0  0
  -28.1330  -12.4940   18.3910 C   0  0  0  0  0  2  0  0  0  0  0  0
  -27.7960  -13.4090   19.5990 C   0  0  0  0  0  3  0  0  0  0  0  0
  -28.8590  -13.3310   20.7190 C   0  0  0  0  0  2  0  0  0  0  0  0
  -30.1790  -13.5240   20.1220 N   0  0  0  0  0  0  0  0  0  0  0  0
  -32.1080  -14.6000   19.7770 O   0  0  0  0  0  0  0  0  0  0  0  0
  -25.4270  -14.0290   20.3770 C   0  0  0  0  0  0  0  0  0  0  0  0
  -24.3560  -13.2630   20.7620 C   0  0  0  0  0  0  0  0  0  0  0  0
  -24.7990  -11.9080   20.7130 C   0  0  0  0  0  0  0  0  0  0  0  0
  -26.4540  -13.1370   20.1140 N   0  0  0  0  0  0  0  0  0  0  0  0
  -26.0830  -11.8550   20.3770 N   0  0  0  0  0  0  0  0  0  0  0  0
  -24.0610  -10.6550   20.9090 C   0  0  0  0  0  0  0  0  0  0  0  0
  -24.5030   -9.6700   21.8180 C   0  0  0  0  0  3  0  0  0  0  0  0
  -23.7630   -8.4830   22.0010 C   0  0  0  0  0  3  0  0  0  0  0  0
  -22.5670   -8.2710   21.2760 C   0  0  0  0  0  0  0  0  0  0  0  0
  -22.1460   -9.2450   20.3550 C   0  0  0  0  0  3  0  0  0  0  0  0
  -22.8840  -10.4240   20.1680 C   0  0  0  0  0  3  0  0  0  0  0  0
  -21.7920   -7.1400   21.3740 O   0  0  0  0  0  0  0  0  0  0  0  0
  -21.7760   -6.3730   22.5120 C   0  0  0  0  0  0  0  0  0  0  0  0
  -21.3970   -6.9040   23.7630 C   0  0  0  0  0  3  0  0  0  0  0  0
  -21.3220   -6.0650   24.8930 C   0  0  0  0  0  3  0  0  0  0  0  0
  -21.6220   -4.6940   24.7740 C   0  0  0  0  0  0  0  0  0  0  0  0
  -21.9960   -4.1610   23.5270 C   0  0  0  0  0  3  0  0  0  0  0  0
  -22.0710   -4.9990   22.3990 C   0  0  0  0  0  0  0  0  0  0  0  0
  -22.4100   -4.4740   21.1970 F   0  0  0  0  0  0  0  0  0  0  0  0
  -21.5460   -3.8850   25.8570 F   0  0  0  0  0  0  0  0  0  0  0  0
  -22.9750  -13.7620   21.0650 C   0  0  0  0  0  0  0  0  0  0  0  0
  -22.2510  -13.0730   21.9440 N   0  0  0  0  0  0  0  0  0  0  0  0
  -22.5470  -14.7940   20.5570 O   0  0  0  0  0  0  0  0  0  0  0  0
  -22.6080  -12.2370   22.3820 H   0  0  0  0  0  0  0  0  0  0  0  0
  -21.3230  -13.3940   22.1830 H   0  0  0  0  0  0  0  0  0  0  0  0
  -25.6030  -15.3960   20.2100 N   0  0  0  0  0  0  0  0  0  0  0  0
  -24.8370  -16.0520   20.3410 H   0  0  0  0  0  0  0  0  0  0  0  0
  -26.4530  -15.8390   19.8860 H   0  0  0  0  0  0  0  0  0  0  0  0
  -28.1960  -23.4140   19.8450 C   0  0  0  0  0  2  0  0  0  0  0  0
  -27.5360  -25.2080   21.4680 C   0  0  0  0  0  1  0  0  0  0  0  0
  -28.6340  -24.7650   20.4820 C   0  0  0  0  0  3  0  0  0  0  0  0
  -28.9540  -25.8480   19.3950 C   0  0  0  0  0  2  0  0  0  0  0  0
  -28.8020  -27.1910   19.8120 O   0  0  0  0  0  0  0  0  0  0  0  0
  -24.6960  -31.7470   23.2170 C   0  0  0  0  0  0  0  0  0  0  0  0
  -27.5590  -27.7770   19.7990 C   0  0  0  0  0  0  0  0  0  0  0  0
  -23.5630  -30.4610   21.4320 C   0  0  0  0  0  3  0  0  0  0  0  0
  -25.0920  -29.1420   19.8840 C   0  0  0  0  0  0  0  0  0  0  0  0
  -26.0580  -30.9710   21.2850 C   0  0  0  0  0  2  0  0  0  0  0  0
  -26.2130  -29.6700   20.5380 C   0  0  0  0  0  0  0  0  0  0  0  0
  -27.4420  -28.9900   20.5010 C   0  0  0  0  0  3  0  0  0  0  0  0
  -26.4190  -27.2460   19.1460 C   0  0  0  0  0  3  0  0  0  0  0  0
  -25.1890  -27.9270   19.1880 C   0  0  0  0  0  3  0  0  0  0  0  0
  -23.8090  -29.9290   19.9940 C   0  0  0  0  0  2  0  0  0  0  0  0
  -24.7900  -31.0660   22.0410 N   0  0  0  0  0  0  0  0  0  0  0  0
  -23.6000  -31.9170   23.7700 O   0  0  0  0  0  0  0  0  0  0  0  0
  -22.9620  -29.3210   22.2810 C   0  0  0  0  0  0  0  0  0  0  0  0
  -21.6460  -29.1010   22.1310 N   0  0  0  0  0  0  0  0  0  0  0  0
  -23.6730  -28.6400   23.0260 O   0  0  0  0  0  0  0  0  0  0  0  0
  -21.1350  -29.7040   21.5020 H   0  0  0  0  0  0  0  0  0  0  0  0
  -18.3110  -27.7850   22.5380 C   0  0  0  0  0  0  0  0  0  0  0  0
  -20.8660  -28.0660   22.8040 C   0  0  0  0  0  3  0  0  0  0  0  0
  -20.9890  -26.7150   22.0650 C   0  0  0  0  0  2  0  0  0  0  0  0
  -19.8780  -26.4870   21.0350 C   0  0  0  0  0  2  0  0  0  0  0  0
  -18.5040  -26.5260   21.7110 C   0  0  0  0  0  2  0  0  0  0  0  0
  -19.4210  -28.5150   23.0390 C   0  0  0  0  0  0  0  0  0  0  0  0
  -19.1890  -29.6990   23.7740 C   0  0  0  0  0  3  0  0  0  0  0  0
  -17.8790  -30.1520   24.0100 C   0  0  0  0  0  3  0  0  0  0  0  0
  -16.7830  -29.4170   23.5270 C   0  0  0  0  0  3  0  0  0  0  0  0
  -16.9990  -28.2350   22.7950 C   0  0  0  0  0  3  0  0  0  0  0  0
  -25.9540  -32.3670   23.9050 C   0  0  0  0  0  3  0  0  0  0  0  0
  -25.6150  -33.7410   24.2900 N   0  0  0  0  0  0  0  0  0  0  0  0
  -25.9490  -34.8320   23.5850 C   0  0  0  0  0  0  0  0  0  0  0  0
  -26.6530  -34.7880   22.5730 O   0  0  0  0  0  0  0  0  0  0  0  0
  -24.9840  -33.8440   25.0710 H   0  0  0  0  0  0  0  0  0  0  0  0
  -24.1880  -36.5990   23.2590 C   0  0  0  0  0  1  0  0  0  0  0  0
  -25.4140  -36.1860   24.0880 C   0  0  0  0  0  3  0  0  0  0  0  0
  -27.5020  -37.0810   25.0200 C   0  0  0  0  0  1  0  0  0  0  0  0
  -26.4240  -37.2660   24.0530 N   0  0  0  0  0  0  0  0  0  0  0  0
  -25.9890  -38.1680   24.2310 H   0  0  0  0  0  0  0  0  0  0  0  0
  -26.4530  -31.5380   25.1540 C   0  0  1  0  0  0  0  0  0  0  0  0
  -25.3340  -31.2320   26.1760 C   0  0  0  0  0  1  0  0  0  0  0  0
  -27.0700  -30.1900   24.7070 C   0  0  0  0  0  1  0  0  0  0  0  0
  -27.5700  -32.3110   25.8920 C   0  0  0  0  0  1  0  0  0  0  0  0
  1  4  1  0
  2  5  2  0
  3  2  1  0
  3  1  2  0
  4  7  1  0
  5  6  1  0
  5  8  1  0
  6  4  2  0
  9 10  1  0
  9 11  1  0
 10  3  1  0
 10 11  1  0
 11 12  1  0
 13 12  1  0
 14 19  1  0
 15 16  1  0
 15 14  1  0
 17 16  1  0
 17 24  1  0
 17 18  1  0
 19 13  1  0
 19 18  1  0
 20 13  2  0
 21 22  2  0
 22 41  1  0
 23 22  1  0
 23 26  1  0
 24 25  1  0
 24 21  1  0
 25 23  2  0
 26 27  1  0
 27 28  2  0
 29 32  1  0
 29 28  1  0
 30 29  2  0
 31 30  1  0
 31 26  2  0
 32 33  1  0
 33 34  1  0
 34 35  2  0
 36 35  1  0
 36 40  1  0
 37 36  2  0
 38 33  2  0
 38 37  1  0
 39 38  1  0
 41 42  1  0
 42 45  1  0
 42 44  1  0
 43 41  2  0
 46 47  1  0
 46 21  1  0
 48 46  1  0
 49  6  1  0
 49 51  1  0
 51 50  1  0
 52 53  1  0
 52 51  1  0
 54 65  2  0
 55 53  1  0
 55 60  1  0
 56 64  1  0
 56 66  1  0
 57 63  1  0
 57 59  1  0
 58 64  1  0
 59 58  1  0
 60 59  2  0
 61 62  1  0
 61 55  2  0
 62 57  2  0
 63 56  1  0
 64 54  1  0
 66 68  2  0
 67 66  1  0
 69 67  1  0
 70 79  2  0
 70 75  1  0
 71 67  1  0
 71 75  1  0
 72 71  1  0
 73 74  1  0
 73 72  1  0
 74 70  1  0
 75 76  2  0
 76 77  1  0
 78 77  2  0
 79 78  1  0
 80 54  1  0
 80 81  1  0
 80 90  1  0
 81 84  1  0
 82 86  1  0
 82 81  1  0
 83 82  2  0
 86 85  1  0
 88 86  1  0
 88 89  1  0
 88 87  1  0
 90 93  1  1
 90 91  1  0
 92 90  1  0
M  ISO  4  12 100  13 100  52 101  53 101
M  END
>  <TORSDO>  (32) 
F 21

>  <SCORE>  (32) 
-12.178

>  <name>  (32) 
31

>  <ligand_id>  (32) 
31

>  <original_smiles>  (32) 
[H]c1c([H])c([H])c2c(c1[H])C([H])([H])C([H])([H])C([H])([H])C2([H])N([H])C(=O)C1([H])N(C(=O)C([H])(N([H])C(=O)C([H])(N([H])C([H])([H])[H])C([H])([H])[H])C(C([H])([H])[H])(C([H])([H])[H])C([H])([H])[H])C([H])([H])c2c([H])c(OC([H])([H])C([H])(C([H])([H])[H])C([H])([H])c3c(C([H])([H])[H])c([H])c(C4([H])C([H])([H])C4([H])C([H])([H])C(=O)N4C([H])([H])C([H])([H])C([H])([H])C([H])(n5nc(-c6c([H])c([H])c(Oc7c([H])c([H])c(F)c([H])c7F)c([H])c6[H])c(C(=O)N([H])[H])c5N([H])[H])C4([H])[H])c([H])c3C([H])([H])[H])c([H])c([H])c2C1([H])[H]

>  <smiles>  (32) 
[H]c1c([H])c([H])c2c(c1[H])C([H])([H])C([H])([H])C([H])([H])C2([H])N([H])C(=O)C1([H])N(C(=O)C([H])(N([H])C(=O)C([H])(N([H])C([H])([H])[H])C([H])([H])[H])C(C([H])([H])[H])(C([H])([H])[H])C([H])([H])[H])C([H])([H])c2c([H])c(OC([H])([H])C([H])(C([H])([H])[H])C([H])([H])c3c(C([H])([H])[H])c([H])c(C4([H])C([H])([H])C4([H])C([H])([H])C(=O)N4C([H])([H])C([H])([H])C([H])([H])C([H])(n5nc(-c6c([H])c([H])c(Oc7c([H])c([H])c(F)c([H])c7F)c([H])c6[H])c(C(=O)N([H])[H])c5N([H])[H])C4([H])[H])c([H])c3C([H])([H])[H])c([H])c([H])c2C1([H])[H]

$$$$
32:0:0
     RDKit          3D

 95104  0  0  1  0  0  0  0  0999 V2000
  -29.1180  -21.6900   22.7980 C   0  0  0  0  0  2  0  0  0  0  0  0
  -28.4680  -20.7180   21.7880 C   0  0  0  0  0  2  0  0  0  0  0  0
  -30.6160  -22.8420   21.0510 C   0  0  0  0  0  2  0  0  0  0  0  0
  -30.7700  -20.5870   21.5180 C   0  0  0  0  0  2  0  0  0  0  0  0
  -29.5920  -22.2720   20.0120 C   0  0  1  0  0  0  0  0  0  0  0  0
  -30.5610  -21.8830   22.2560 C   0  0  2  0  0  0  0  0  0  0  0  0
  -29.5010  -20.6590   20.6450 C   0  0  2  0  0  0  0  0  0  0  0  0
  -28.4800  -23.5320   20.0780 C   0  0  0  0  0  0  0  0  0  0  0  0
  -27.3970  -23.3570   20.6420 O   0  0  0  0  0  0  0  0  0  0  0  0
  -28.7290  -25.0320   19.4170 C   0  0  0  0  0  2  0  0  0  0  0  0
  -28.5460  -26.3840   20.1550 O   0  0  0  0  0  0  0  0  0  0  0  0
  -24.6400  -31.7960   23.1810 C   0  0  0  0  0  0  0  0  0  0  0  0
  -27.4520  -27.3040   20.0370 C   0  0  0  0  0  0  0  0  0  0  0  0
  -23.5300  -30.4180   21.4630 C   0  0  0  0  0  3  0  0  0  0  0  0
  -25.0640  -28.9530   20.0100 C   0  0  0  0  0  0  0  0  0  0  0  0
  -26.0730  -30.7860   21.3640 C   0  0  0  0  0  2  0  0  0  0  0  0
  -26.2080  -29.4230   20.6650 C   0  0  0  0  0  0  0  0  0  0  0  0
  -27.3950  -28.6090   20.6700 C   0  0  0  0  0  3  0  0  0  0  0  0
  -26.2790  -26.9270   19.3470 C   0  0  0  0  0  3  0  0  0  0  0  0
  -25.1110  -27.7200   19.3410 C   0  0  0  0  0  3  0  0  0  0  0  0
  -23.8050  -29.8020   20.0640 C   0  0  0  0  0  2  0  0  0  0  0  0
  -24.7670  -31.0170   22.0610 N   0  0  0  0  0  0  0  0  0  0  0  0
  -23.5320  -32.0220   23.6880 O   0  0  0  0  0  0  0  0  0  0  0  0
  -22.8700  -29.3500   22.3740 C   0  0  0  0  0  0  0  0  0  0  0  0
  -21.5510  -29.1430   22.2220 N   0  0  0  0  0  0  0  0  0  0  0  0
  -23.5510  -28.7160   23.1870 O   0  0  0  0  0  0  0  0  0  0  0  0
  -21.0540  -29.7090   21.5510 H   0  0  0  0  0  0  0  0  0  0  0  0
  -18.1990  -27.8450   22.6450 C   0  0  0  0  0  0  0  0  0  0  0  0
  -20.7510  -28.1510   22.9450 C   0  0  0  0  0  3  0  0  0  0  0  0
  -20.8900  -26.7520   22.3040 C   0  0  0  0  0  2  0  0  0  0  0  0
  -19.8030  -26.4520   21.2680 C   0  0  0  0  0  2  0  0  0  0  0  0
  -18.4130  -26.5350   21.9060 C   0  0  0  0  0  2  0  0  0  0  0  0
  -19.2980  -28.6110   23.1200 C   0  0  0  0  0  0  0  0  0  0  0  0
  -19.0470  -29.8390   23.7710 C   0  0  0  0  0  3  0  0  0  0  0  0
  -17.7310  -30.2990   23.9550 C   0  0  0  0  0  3  0  0  0  0  0  0
  -16.6470  -29.5290   23.5000 C   0  0  0  0  0  3  0  0  0  0  0  0
  -16.8810  -28.3050   22.8490 C   0  0  0  0  0  3  0  0  0  0  0  0
  -25.8800  -32.4600   23.8540 C   0  0  0  0  0  3  0  0  0  0  0  0
  -25.5330  -33.8550   24.1640 N   0  0  0  0  0  0  0  0  0  0  0  0
  -25.8810  -34.9140   23.4220 C   0  0  0  0  0  0  0  0  0  0  0  0
  -26.5950  -34.8190   22.4210 O   0  0  0  0  0  0  0  0  0  0  0  0
  -24.9070  -34.0040   24.9430 H   0  0  0  0  0  0  0  0  0  0  0  0
  -24.1440  -36.6820   22.9930 C   0  0  0  0  0  1  0  0  0  0  0  0
  -25.3550  -36.2970   23.8570 C   0  0  0  0  0  3  0  0  0  0  0  0
  -27.4310  -37.2180   24.7870 C   0  0  0  0  0  1  0  0  0  0  0  0
  -26.3750  -37.3640   23.7900 N   0  0  0  0  0  0  0  0  0  0  0  0
  -25.9480  -38.2790   23.9140 H   0  0  0  0  0  0  0  0  0  0  0  0
  -26.3470  -31.7070   25.1590 C   0  0  1  0  0  0  0  0  0  0  0  0
  -25.2060  -31.4460   26.1690 C   0  0  0  0  0  1  0  0  0  0  0  0
  -26.9860  -30.3440   24.8080 C   0  0  0  0  0  1  0  0  0  0  0  0
  -27.4410  -32.5320   25.8780 C   0  0  0  0  0  1  0  0  0  0  0  0
  -31.5540  -21.7390   18.3060 C   0  0  0  0  0  1  0  0  0  0  0  0
  -30.1050  -22.1980   18.5400 C   0  0  0  0  0  2  0  0  0  0  0  0
  -31.6430  -21.3190   24.5620 C   0  0  0  0  0  1  0  0  0  0  0  0
  -31.6110  -22.2370   23.3260 C   0  0  0  0  0  2  0  0  0  0  0  0
  -29.4640  -19.1520   19.8690 C   0  0  0  0  0  2  0  0  0  0  0  0
  -30.2820  -17.7800   20.4260 C   0  0  0  0  0  2  0  0  0  0  0  0
  -30.7570  -15.1070   19.9720 C   0  0  0  0  0  0  0  0  0  0  0  0
  -30.6060  -12.7790   18.9870 C   0  0  0  0  0  2  0  0  0  0  0  0
  -29.6250  -12.7540   17.7940 C   0  0  0  0  0  2  0  0  0  0  0  0
  -28.1740  -12.5540   18.2760 C   0  0  0  0  0  2  0  0  0  0  0  0
  -27.8170  -13.4640   19.4810 C   0  0  0  0  0  3  0  0  0  0  0  0
  -28.9120  -13.4480   20.5650 C   0  0  0  0  0  2  0  0  0  0  0  0
  -30.1580  -13.8560   19.9080 N   0  0  0  0  0  0  0  0  0  0  0  0
  -31.9640  -15.1800   19.7210 O   0  0  0  0  0  0  0  0  0  0  0  0
  -29.9580  -16.2710   20.1180 N   0  0  0  0  0  0  0  0  0  0  0  0
  -28.9730  -16.0600   20.1490 H   0  0  0  0  0  0  0  0  0  0  0  0
  -25.4660  -14.0460   20.3070 C   0  0  0  0  0  0  0  0  0  0  0  0
  -24.4140  -13.2710   20.7080 C   0  0  0  0  0  0  0  0  0  0  0  0
  -24.8760  -11.9200   20.6590 C   0  0  0  0  0  0  0  0  0  0  0  0
  -26.4970  -13.1660   20.0260 N   0  0  0  0  0  0  0  0  0  0  0  0
  -26.1550  -11.8810   20.3070 N   0  0  0  0  0  0  0  0  0  0  0  0
  -24.1540  -10.6580   20.8660 C   0  0  0  0  0  0  0  0  0  0  0  0
  -24.5660   -9.7230   21.8400 C   0  0  0  0  0  3  0  0  0  0  0  0
  -23.8460   -8.5260   22.0350 C   0  0  0  0  0  3  0  0  0  0  0  0
  -22.6960   -8.2550   21.2540 C   0  0  0  0  0  0  0  0  0  0  0  0
  -22.3040   -9.1790   20.2690 C   0  0  0  0  0  3  0  0  0  0  0  0
  -23.0260  -10.3660   20.0740 C   0  0  0  0  0  3  0  0  0  0  0  0
  -21.9480   -7.1080   21.3560 O   0  0  0  0  0  0  0  0  0  0  0  0
  -21.8190   -6.4350   22.5450 C   0  0  0  0  0  0  0  0  0  0  0  0
  -21.2640   -7.0480   23.6900 C   0  0  0  0  0  3  0  0  0  0  0  0
  -21.0850   -6.3000   24.8710 C   0  0  0  0  0  3  0  0  0  0  0  0
  -21.4480   -4.9420   24.9070 C   0  0  0  0  0  0  0  0  0  0  0  0
  -21.9970   -4.3290   23.7670 C   0  0  0  0  0  3  0  0  0  0  0  0
  -22.1770   -5.0720   22.5880 C   0  0  0  0  0  0  0  0  0  0  0  0
  -22.6840   -4.4730   21.4850 F   0  0  0  0  0  0  0  0  0  0  0  0
  -21.2700   -4.2220   26.0380 F   0  0  0  0  0  0  0  0  0  0  0  0
  -23.0250  -13.7490   21.0220 C   0  0  0  0  0  0  0  0  0  0  0  0
  -22.3260  -13.0560   21.9140 N   0  0  0  0  0  0  0  0  0  0  0  0
  -22.5720  -14.7710   20.5120 O   0  0  0  0  0  0  0  0  0  0  0  0
  -22.7060  -12.2250   22.3440 H   0  0  0  0  0  0  0  0  0  0  0  0
  -21.3980  -13.3570   22.1710 H   0  0  0  0  0  0  0  0  0  0  0  0
  -25.6250  -15.4170   20.1230 N   0  0  0  0  0  0  0  0  0  0  0  0
  -24.8600  -16.0700   20.2550 H   0  0  0  0  0  0  0  0  0  0  0  0
  -26.4460  -15.8490   19.7180 H   0  0  0  0  0  0  0  0  0  0  0  0
  2  1  1  0
  3  6  1  0
  4  6  1  0
  5 53  1  6
  5  8  1  0
  5  7  1  0
  5  3  1  0
  6  1  1  0
  6 55  1  1
  7 56  1  6
  7  4  1  0
  7  2  1  0
  8  9  2  0
 10  8  1  0
 10 11  1  0
 12 23  2  0
 13 11  1  0
 13 18  1  0
 14 22  1  0
 14 24  1  0
 15 21  1  0
 15 17  1  0
 16 22  1  0
 17 18  2  0
 17 16  1  0
 19 13  2  0
 20 19  1  0
 20 15  2  0
 21 14  1  0
 22 12  1  0
 24 26  2  0
 25 24  1  0
 27 25  1  0
 28 37  2  0
 28 33  1  0
 29 25  1  0
 29 33  1  0
 30 29  1  0
 31 32  1  0
 31 30  1  0
 32 28  1  0
 33 34  2  0
 34 35  1  0
 36 35  2  0
 37 36  1  0
 38 12  1  0
 38 39  1  0
 38 48  1  0
 39 42  1  0
 40 44  1  0
 40 39  1  0
 41 40  2  0
 44 43  1  0
 46 44  1  0
 46 47  1  0
 46 45  1  0
 48 51  1  1
 48 49  1  0
 50 48  1  0
 52 53  1  0
 55 54  1  0
 56 57  1  0
 58 66  1  0
 59 64  1  0
 60 61  1  0
 60 59  1  0
 62 61  1  0
 62 71  1  0
 62 63  1  0
 64 58  1  0
 64 63  1  0
 65 58  2  0
 66 67  1  0
 66 57  1  0
 68 69  2  0
 69 88  1  0
 70 69  1  0
 70 73  1  0
 71 72  1  0
 71 68  1  0
 72 70  2  0
 73 74  1  0
 74 75  2  0
 76 79  1  0
 76 75  1  0
 77 76  2  0
 78 77  1  0
 78 73  2  0
 79 80  1  0
 80 85  2  0
 80 81  1  0
 81 82  2  0
 82 83  1  0
 83 87  1  0
 84 83  2  0
 85 84  1  0
 86 85  1  0
 88 89  1  0
 89 92  1  0
 89 91  1  0
 90 88  2  0
 93 94  1  0
 93 68  1  0
 95 93  1  0
M  ISO  4  10 101  11 101  58 100  66 100
M  END
>  <TORSDO>  (33) 
F 22

>  <SCORE>  (33) 
-12.344

>  <name>  (33) 
32

>  <ligand_id>  (33) 
32

>  <original_smiles>  (33) 
[H]c1c([H])c([H])c2c(c1[H])C([H])([H])C([H])([H])C([H])([H])C2([H])N([H])C(=O)C1([H])N(C(=O)C([H])(N([H])C(=O)C([H])(N([H])C([H])([H])[H])C([H])([H])[H])C(C([H])([H])[H])(C([H])([H])[H])C([H])([H])[H])C([H])([H])c2c([H])c(OC([H])([H])C(=O)C3(C([H])([H])C([H])([H])[H])C([H])([H])C4(C([H])([H])C([H])([H])[H])C([H])([H])C([H])([H])C3(C([H])([H])C([H])([H])N([H])C(=O)N3C([H])([H])C([H])([H])C([H])([H])C([H])(n5nc(-c6c([H])c([H])c(Oc7c([H])c([H])c(F)c([H])c7F)c([H])c6[H])c(C(=O)N([H])[H])c5N([H])[H])C3([H])[H])C4([H])[H])c([H])c([H])c2C1([H])[H]

>  <smiles>  (33) 
[H]c1c([H])c([H])c2c(c1[H])C([H])([H])C([H])([H])C([H])([H])C2([H])N([H])C(=O)C1([H])N(C(=O)C([H])(N([H])C(=O)C([H])(N([H])C([H])([H])[H])C([H])([H])[H])C(C([H])([H])[H])(C([H])([H])[H])C([H])([H])[H])C([H])([H])c2c([H])c(OC([H])([H])C(=O)C3(C([H])([H])C([H])([H])[H])C([H])([H])C4(C([H])([H])C([H])([H])[H])C([H])([H])C([H])([H])C3(C([H])([H])C([H])([H])N([H])C(=O)N3C([H])([H])C([H])([H])C([H])([H])C([H])(n5nc(-c6c([H])c([H])c(Oc7c([H])c([H])c(F)c([H])c7F)c([H])c6[H])c(C(=O)N([H])[H])c5N([H])[H])C3([H])[H])C4([H])[H])c([H])c([H])c2C1([H])[H]

$$$$
33:0:0
     RDKit          3D

 92101  0  0  1  0  0  0  0  0999 V2000
  -31.1940  -20.8830   17.5840 C   0  0  0  0  0  2  0  0  0  0  0  0
  -30.0430  -21.9270   17.6030 C   0  0  0  0  0  2  0  0  0  0  0  0
  -31.7650  -18.7890   19.0960 C   0  0  0  0  0  2  0  0  0  0  0  0
  -29.4200  -19.1500   19.3510 C   0  0  0  0  0  3  0  0  0  0  0  0
  -31.3880  -20.3210   19.0190 C   0  0  0  0  0  3  0  0  0  0  0  0
  -30.0350  -20.6190   19.6960 C   0  0  0  0  0  3  0  0  0  0  0  0
  -29.7070  -22.1340   19.0780 C   0  0  0  0  0  3  0  0  0  0  0  0
  -30.5370  -17.9670   19.5680 C   0  0  0  0  0  3  0  0  0  0  0  0
  -28.0950  -18.8700   20.0660 C   0  0  0  0  0  0  0  0  0  0  0  0
  -27.9240  -19.3610   21.4970 C   0  0  0  0  0  1  0  0  0  0  0  0
  -27.1920  -18.2470   19.5060 O   0  0  0  0  0  0  0  0  0  0  0  0
  -30.2100  -16.5370   17.4650 C   0  0  0  0  0  1  0  0  0  0  0  0
  -30.3570  -16.3970   18.9980 C   0  0  0  0  0  3  0  0  0  0  0  0
  -31.3020  -15.0580   19.2920 C   0  0  0  0  0  0  0  0  0  0  0  0
  -31.1930  -12.5680   18.8910 C   0  0  0  0  0  2  0  0  0  0  0  0
  -30.1810  -12.3020   17.7500 C   0  0  0  0  0  2  0  0  0  0  0  0
  -28.7400  -12.2080   18.2950 C   0  0  0  0  0  2  0  0  0  0  0  0
  -28.4050  -13.3280   19.3160 C   0  0  0  0  0  3  0  0  0  0  0  0
  -29.5360  -13.5360   20.3420 C   0  0  0  0  0  2  0  0  0  0  0  0
  -30.7740  -13.8060   19.6000 N   0  0  0  0  0  0  0  0  0  0  0  0
  -32.4970  -15.0970   18.9790 O   0  0  0  0  0  0  0  0  0  0  0  0
  -26.2190  -14.1020   20.3990 C   0  0  0  0  0  0  0  0  0  0  0  0
  -25.1130  -13.4200   20.8220 C   0  0  0  0  0  0  0  0  0  0  0  0
  -25.3950  -12.0360   20.6060 C   0  0  0  0  0  0  0  0  0  0  0  0
  -27.1070  -13.1380   19.9490 N   0  0  0  0  0  0  0  0  0  0  0  0
  -26.6260  -11.8830   20.1360 N   0  0  0  0  0  0  0  0  0  0  0  0
  -24.5400  -10.8530   20.7630 C   0  0  0  0  0  0  0  0  0  0  0  0
  -24.8780   -9.8120   21.6540 C   0  0  0  0  0  3  0  0  0  0  0  0
  -24.0290   -8.6940   21.8020 C   0  0  0  0  0  3  0  0  0  0  0  0
  -22.8290   -8.6100   21.0570 C   0  0  0  0  0  0  0  0  0  0  0  0
  -22.5100   -9.6390   20.1540 C   0  0  0  0  0  3  0  0  0  0  0  0
  -23.3580  -10.7490   20.0040 C   0  0  0  0  0  3  0  0  0  0  0  0
  -21.9570   -7.5500   21.1170 O   0  0  0  0  0  0  0  0  0  0  0  0
  -21.7400   -6.8610   22.2830 C   0  0  0  0  0  0  0  0  0  0  0  0
  -21.2110   -7.4880   23.4320 C   0  0  0  0  0  3  0  0  0  0  0  0
  -20.9400   -6.7270   24.5880 C   0  0  0  0  0  3  0  0  0  0  0  0
  -21.1890   -5.3420   24.5930 C   0  0  0  0  0  0  0  0  0  0  0  0
  -21.7120   -4.7160   23.4480 C   0  0  0  0  0  3  0  0  0  0  0  0
  -21.9840   -5.4740   22.2950 C   0  0  0  0  0  0  0  0  0  0  0  0
  -22.4680   -4.8600   21.1880 F   0  0  0  0  0  0  0  0  0  0  0  0
  -20.9220   -4.6100   25.6990 F   0  0  0  0  0  0  0  0  0  0  0  0
  -23.8270  -14.0230   21.3090 C   0  0  0  0  0  0  0  0  0  0  0  0
  -23.1270  -13.3330   22.2020 N   0  0  0  0  0  0  0  0  0  0  0  0
  -23.4610  -15.1350   20.9340 O   0  0  0  0  0  0  0  0  0  0  0  0
  -23.4400  -12.4290   22.5240 H   0  0  0  0  0  0  0  0  0  0  0  0
  -22.2670  -13.7140   22.5700 H   0  0  0  0  0  0  0  0  0  0  0  0
  -26.5360  -15.4560   20.3330 N   0  0  0  0  0  0  0  0  0  0  0  0
  -25.8810  -16.1790   20.6110 H   0  0  0  0  0  0  0  0  0  0  0  0
  -27.3980  -15.8330   19.9590 H   0  0  0  0  0  0  0  0  0  0  0  0
  -28.6060  -23.3240   19.4760 C   0  0  0  0  0  2  0  0  0  0  0  0
  -28.6250  -24.8550   18.8030 C   0  0  0  0  0  2  0  0  0  0  0  0
  -28.4960  -26.2300   19.4870 O   0  0  0  0  0  0  0  0  0  0  0  0
  -24.7360  -31.5170   22.8500 C   0  0  0  0  0  0  0  0  0  0  0  0
  -27.3780  -27.1260   19.4540 C   0  0  0  0  0  0  0  0  0  0  0  0
  -23.5390  -30.2090   21.1360 C   0  0  0  0  0  3  0  0  0  0  0  0
  -24.9990  -28.7780   19.5760 C   0  0  0  0  0  0  0  0  0  0  0  0
  -26.0790  -30.5600   20.9470 C   0  0  0  0  0  2  0  0  0  0  0  0
  -26.1710  -29.2210   20.1980 C   0  0  0  0  0  0  0  0  0  0  0  0
  -27.3570  -28.4090   20.1250 C   0  0  0  0  0  3  0  0  0  0  0  0
  -26.1750  -26.7680   18.8070 C   0  0  0  0  0  3  0  0  0  0  0  0
  -25.0100  -27.5670   18.8670 C   0  0  0  0  0  3  0  0  0  0  0  0
  -23.7510  -29.6360   19.7080 C   0  0  0  0  0  2  0  0  0  0  0  0
  -24.8050  -30.7800   21.7000 N   0  0  0  0  0  0  0  0  0  0  0  0
  -23.6560  -31.7360   23.4170 O   0  0  0  0  0  0  0  0  0  0  0  0
  -22.9060  -29.1190   22.0350 C   0  0  0  0  0  0  0  0  0  0  0  0
  -21.5710  -28.9650   21.9640 N   0  0  0  0  0  0  0  0  0  0  0  0
  -23.6150  -28.4160   22.7600 O   0  0  0  0  0  0  0  0  0  0  0  0
  -21.0530  -29.5850   21.3570 H   0  0  0  0  0  0  0  0  0  0  0  0
  -18.2050  -27.7930   22.5950 C   0  0  0  0  0  0  0  0  0  0  0  0
  -20.7830  -27.9660   22.6900 C   0  0  0  0  0  3  0  0  0  0  0  0
  -20.7990  -26.6030   21.9590 C   0  0  0  0  0  2  0  0  0  0  0  0
  -19.6150  -26.4200   21.0040 C   0  0  0  0  0  2  0  0  0  0  0  0
  -18.2890  -26.5240   21.7640 C   0  0  0  0  0  2  0  0  0  0  0  0
  -19.3750  -28.4780   23.0170 C   0  0  0  0  0  0  0  0  0  0  0  0
  -19.2390  -29.6710   23.7600 C   0  0  0  0  0  3  0  0  0  0  0  0
  -17.9660  -30.1770   24.0820 C   0  0  0  0  0  3  0  0  0  0  0  0
  -16.8100  -29.4870   23.6750 C   0  0  0  0  0  3  0  0  0  0  0  0
  -16.9320  -28.2960   22.9360 C   0  0  0  0  0  3  0  0  0  0  0  0
  -26.0120  -32.1390   23.4950 C   0  0  0  0  0  3  0  0  0  0  0  0
  -26.5720  -31.2930   24.7050 C   0  0  1  0  0  0  0  0  0  0  0  0
  -25.5080  -30.9630   25.7780 C   0  0  0  0  0  1  0  0  0  0  0  0
  -27.1700  -29.9560   24.2120 C   0  0  0  0  0  1  0  0  0  0  0  0
  -27.7220  -32.0620   25.3950 C   0  0  0  0  0  1  0  0  0  0  0  0
  -25.6720  -33.5020   23.9350 N   0  0  0  0  0  0  0  0  0  0  0  0
  -25.9780  -34.6200   23.2640 C   0  0  0  0  0  0  0  0  0  0  0  0
  -26.6410  -34.6150   22.2240 O   0  0  0  0  0  0  0  0  0  0  0  0
  -25.0810  -33.5780   24.7500 H   0  0  0  0  0  0  0  0  0  0  0  0
  -24.2110  -36.4020   23.0690 C   0  0  0  0  0  1  0  0  0  0  0  0
  -25.4660  -35.9580   23.8370 C   0  0  0  0  0  3  0  0  0  0  0  0
  -27.5770  -36.8310   24.7390 C   0  0  0  0  0  1  0  0  0  0  0  0
  -26.4760  -37.0390   23.8040 N   0  0  0  0  0  0  0  0  0  0  0  0
  -26.0470  -37.9370   24.0120 H   0  0  0  0  0  0  0  0  0  0  0  0
  1  2  1  0
  2  7  1  0
  3  8  1  0
  4  8  1  0
  4  6  1  0
  4  9  1  0
  5  1  1  0
  5  3  1  0
  5  6  1  0
  7 50  1  0
  7  6  1  0
  9 10  1  0
 11  9  2  0
 12 13  1  0
 13 14  1  0
 13  8  1  0
 14 20  1  0
 15 20  1  0
 16 17  1  0
 16 15  1  0
 17 18  1  0
 18 25  1  0
 18 19  1  0
 20 19  1  0
 21 14  2  0
 22 23  2  0
 23 42  1  0
 24 27  1  0
 24 23  1  0
 25 26  1  0
 25 22  1  0
 26 24  2  0
 27 28  1  0
 28 29  2  0
 30 33  1  0
 30 29  1  0
 31 30  2  0
 32 31  1  0
 32 27  2  0
 33 34  1  0
 34 39  2  0
 34 35  1  0
 35 36  2  0
 36 37  1  0
 37 41  1  0
 38 37  2  0
 39 38  1  0
 40 39  1  0
 42 43  1  0
 43 45  1  0
 43 46  1  0
 44 42  2  0
 47 22  1  0
 47 48  1  0
 49 47  1  0
 51 50  1  0
 51 52  1  0
 53 64  2  0
 53 79  1  0
 54 52  1  0
 54 59  1  0
 55 63  1  0
 55 65  1  0
 56 62  1  0
 56 58  1  0
 57 63  1  0
 58 57  1  0
 59 58  2  0
 60 61  1  0
 60 54  2  0
 61 56  2  0
 62 55  1  0
 63 53  1  0
 65 67  2  0
 66 65  1  0
 66 70  1  0
 68 66  1  0
 69 78  2  0
 69 74  1  0
 70 74  1  0
 71 70  1  0
 72 73  1  0
 72 71  1  0
 73 69  1  0
 74 75  2  0
 75 76  1  0
 77 76  2  0
 78 77  1  0
 79 84  1  0
 79 80  1  0
 80 83  1  1
 80 81  1  0
 82 80  1  0
 84 87  1  0
 85 89  1  0
 85 84  1  0
 86 85  2  0
 88 89  1  0
 91 89  1  0
 91 92  1  0
 91 90  1  0
M  ISO  4  13 100  14 100  51 101  52 101
M  END
>  <TORSDO>  (34) 
F 20

>  <SCORE>  (34) 
-9.050

>  <name>  (34) 
33

>  <ligand_id>  (34) 
33

>  <original_smiles>  (34) 
[H]c1c([H])c([H])c2c(c1[H])C([H])([H])C([H])([H])C([H])([H])C2([H])N([H])C(=O)C1([H])N(C(=O)C([H])(N([H])C(=O)C([H])(N([H])C([H])([H])[H])C([H])([H])[H])C(C([H])([H])[H])(C([H])([H])[H])C([H])([H])[H])C([H])([H])c2c([H])c(OC([H])([H])C([H])([H])C3([H])C([H])([H])C([H])([H])C4([H])C([H])([H])C([H])(C([H])(C(=O)N5C([H])([H])C([H])([H])C([H])([H])C([H])(n6nc(-c7c([H])c([H])c(Oc8c([H])c([H])c(F)c([H])c8F)c([H])c7[H])c(C(=O)N([H])[H])c6N([H])[H])C5([H])[H])C([H])([H])[H])C([H])(C(=O)C([H])([H])[H])C34[H])c([H])c([H])c2C1([H])[H]

>  <smiles>  (34) 
[H]c1c([H])c([H])c2c(c1[H])C([H])([H])C([H])([H])C([H])([H])C2([H])N([H])C(=O)C1([H])N(C(=O)C([H])(N([H])C(=O)C([H])(N([H])C([H])([H])[H])C([H])([H])[H])C(C([H])([H])[H])(C([H])([H])[H])C([H])([H])[H])C([H])([H])c2c([H])c(OC([H])([H])C([H])([H])C3([H])C([H])([H])C([H])([H])C4([H])C([H])([H])C([H])(C([H])(C(=O)N5C([H])([H])C([H])([H])C([H])([H])C([H])(n6nc(-c7c([H])c([H])c(Oc8c([H])c([H])c(F)c([H])c8F)c([H])c7[H])c(C(=O)N([H])[H])c6N([H])[H])C5([H])[H])C([H])([H])[H])C([H])(C(=O)C([H])([H])[H])C34[H])c([H])c([H])c2C1([H])[H]

$$$$
34:0:0
     RDKit          3D

 94103  0  0  1  0  0  0  0  0999 V2000
  -28.1240  -18.3660   20.3790 C   0  0  0  0  0  2  0  0  0  0  0  0
  -28.7980  -20.5260   21.2240 C   0  0  0  0  0  2  0  0  0  0  0  0
  -27.5920  -19.8020   20.6060 C   0  0  0  0  0  3  0  0  0  0  0  0
  -29.6230  -18.6090   20.1800 C   0  0  0  0  0  3  0  0  0  0  0  0
  -29.6880  -20.2340   20.0070 C   0  0  0  0  0  3  0  0  0  0  0  0
  -27.4560  -20.5960   19.2850 C   0  0  0  0  0  3  0  0  0  0  0  0
  -26.7030  -19.9190   18.1280 C   0  0  0  0  0  1  0  0  0  0  0  0
  -28.8540  -20.9560   18.9340 N   0  0  1  0  0  4  0  0  0  0  0  0
  -29.0680  -20.5030   18.0580 H   0  0  0  0  0  0  0  0  0  0  0  0
  -30.4670  -17.4310   19.4900 C   0  0  0  0  0  2  0  0  0  0  0  0
  -30.9970  -14.8950   19.9840 C   0  0  0  0  0  0  0  0  0  0  0  0
  -30.8430  -12.4830   19.3790 C   0  0  0  0  0  2  0  0  0  0  0  0
  -29.9410  -12.3570   18.1320 C   0  0  0  0  0  2  0  0  0  0  0  0
  -28.4620  -12.2440   18.5470 C   0  0  0  0  0  2  0  0  0  0  0  0
  -28.0460  -13.3240   19.5810 C   0  0  0  0  0  3  0  0  0  0  0  0
  -29.0720  -13.4280   20.7320 C   0  0  0  0  0  2  0  0  0  0  0  0
  -30.3880  -13.6730   20.1300 N   0  0  0  0  0  0  0  0  0  0  0  0
  -32.1840  -14.9720   19.6570 O   0  0  0  0  0  0  0  0  0  0  0  0
  -30.1880  -16.0110   19.9860 N   0  0  0  0  0  0  0  0  0  0  0  0
  -29.2290  -15.8180   20.2330 H   0  0  0  0  0  0  0  0  0  0  0  0
  -25.6990  -14.0390   20.3310 C   0  0  0  0  0  0  0  0  0  0  0  0
  -24.5940  -13.3190   20.6990 C   0  0  0  0  0  0  0  0  0  0  0  0
  -24.9800  -11.9460   20.6520 C   0  0  0  0  0  0  0  0  0  0  0  0
  -26.6890  -13.1060   20.0770 N   0  0  0  0  0  0  0  0  0  0  0  0
  -26.2660  -11.8410   20.3340 N   0  0  0  0  0  0  0  0  0  0  0  0
  -24.1850  -10.7220   20.8350 C   0  0  0  0  0  0  0  0  0  0  0  0
  -24.5900   -9.7030   21.7250 C   0  0  0  0  0  3  0  0  0  0  0  0
  -23.7980   -8.5450   21.8940 C   0  0  0  0  0  3  0  0  0  0  0  0
  -22.5890   -8.3990   21.1760 C   0  0  0  0  0  0  0  0  0  0  0  0
  -22.2020   -9.4060   20.2760 C   0  0  0  0  0  3  0  0  0  0  0  0
  -22.9930  -10.5550   20.1030 C   0  0  0  0  0  3  0  0  0  0  0  0
  -21.7710   -7.2980   21.2580 O   0  0  0  0  0  0  0  0  0  0  0  0
  -21.7580   -6.4950   22.3700 C   0  0  0  0  0  0  0  0  0  0  0  0
  -21.4450   -7.0010   23.6510 C   0  0  0  0  0  3  0  0  0  0  0  0
  -21.3740   -6.1270   24.7550 C   0  0  0  0  0  3  0  0  0  0  0  0
  -21.6060   -4.7500   24.5800 C   0  0  0  0  0  0  0  0  0  0  0  0
  -21.9130   -4.2440   23.3040 C   0  0  0  0  0  3  0  0  0  0  0  0
  -21.9860   -5.1150   22.2030 C   0  0  0  0  0  0  0  0  0  0  0  0
  -22.2640   -4.6200   20.9730 F   0  0  0  0  0  0  0  0  0  0  0  0
  -21.5300   -3.9090   25.6370 F   0  0  0  0  0  0  0  0  0  0  0  0
  -23.2260  -13.8710   20.9810 C   0  0  0  0  0  0  0  0  0  0  0  0
  -22.4690  -13.2110   21.8510 N   0  0  0  0  0  0  0  0  0  0  0  0
  -22.8410  -14.9190   20.4640 O   0  0  0  0  0  0  0  0  0  0  0  0
  -22.7940  -12.3620   22.2880 H   0  0  0  0  0  0  0  0  0  0  0  0
  -21.5520  -13.5620   22.0860 H   0  0  0  0  0  0  0  0  0  0  0  0
  -25.9360  -15.3980   20.1630 N   0  0  0  0  0  0  0  0  0  0  0  0
  -25.1980  -16.0850   20.2680 H   0  0  0  0  0  0  0  0  0  0  0  0
  -26.7820  -15.7760   19.7600 H   0  0  0  0  0  0  0  0  0  0  0  0
  -29.1420  -22.4670   18.6970 C   0  0  0  0  0  2  0  0  0  0  0  0
  -28.0080  -23.6620   18.6850 C   0  0  0  0  0  3  0  0  0  0  0  0
  -26.2190  -23.3400   20.6050 C   0  0  0  0  0  1  0  0  0  0  0  0
  -27.5050  -24.0320   20.1160 C   0  0  0  0  0  2  0  0  0  0  0  0
  -28.3920  -25.0300   17.8960 C   0  0  0  0  0  2  0  0  0  0  0  0
  -28.3610  -26.4160   18.4600 O   0  0  0  0  0  0  0  0  0  0  0  0
  -24.8200  -31.1040   22.6310 C   0  0  0  0  0  0  0  0  0  0  0  0
  -27.2120  -27.2140   18.6070 C   0  0  0  0  0  0  0  0  0  0  0  0
  -23.5000  -29.9950   20.8620 C   0  0  0  0  0  3  0  0  0  0  0  0
  -24.8400  -28.7560   19.0660 C   0  0  0  0  0  0  0  0  0  0  0  0
  -26.0110  -30.3980   20.5380 C   0  0  0  0  0  2  0  0  0  0  0  0
  -26.0480  -29.1600   19.6470 C   0  0  0  0  0  0  0  0  0  0  0  0
  -27.2310  -28.4000   19.4090 C   0  0  0  0  0  3  0  0  0  0  0  0
  -25.9810  -26.8600   18.0170 C   0  0  0  0  0  3  0  0  0  0  0  0
  -24.8090  -27.6160   18.2410 C   0  0  0  0  0  3  0  0  0  0  0  0
  -23.6040  -29.5810   19.3690 C   0  0  0  0  0  2  0  0  0  0  0  0
  -24.8010  -30.5080   21.4020 N   0  0  0  0  0  0  0  0  0  0  0  0
  -23.7810  -31.2550   23.2900 O   0  0  0  0  0  0  0  0  0  0  0  0
  -22.9260  -28.8110   21.6740 C   0  0  0  0  0  0  0  0  0  0  0  0
  -21.5940  -28.6300   21.6210 N   0  0  0  0  0  0  0  0  0  0  0  0
  -23.6740  -28.0640   22.3120 O   0  0  0  0  0  0  0  0  0  0  0  0
  -21.0480  -29.2910   21.0880 H   0  0  0  0  0  0  0  0  0  0  0  0
  -18.2850  -27.2600   22.1390 C   0  0  0  0  0  0  0  0  0  0  0  0
  -20.8500  -27.5460   22.2660 C   0  0  0  0  0  3  0  0  0  0  0  0
  -20.9370  -26.2420   21.4370 C   0  0  0  0  0  2  0  0  0  0  0  0
  -19.7630  -26.0630   20.4700 C   0  0  0  0  0  2  0  0  0  0  0  0
  -18.4350  -26.0500   21.2330 C   0  0  0  0  0  2  0  0  0  0  0  0
  -19.4180  -27.9700   22.6140 C   0  0  0  0  0  0  0  0  0  0  0  0
  -19.2240  -29.1040   23.4310 C   0  0  0  0  0  3  0  0  0  0  0  0
  -17.9270  -29.5290   23.7760 C   0  0  0  0  0  3  0  0  0  0  0  0
  -16.8080  -28.8150   23.3140 C   0  0  0  0  0  3  0  0  0  0  0  0
  -16.9870  -27.6810   22.5010 C   0  0  0  0  0  3  0  0  0  0  0  0
  -26.1440  -31.6450   23.2570 C   0  0  0  0  0  3  0  0  0  0  0  0
  -25.8380  -32.9290   23.9040 N   0  0  0  0  0  0  0  0  0  0  0  0
  -26.1140  -34.1310   23.3790 C   0  0  0  0  0  0  0  0  0  0  0  0
  -26.7210  -34.2720   22.3140 O   0  0  0  0  0  0  0  0  0  0  0  0
  -25.2940  -32.8890   24.7530 H   0  0  0  0  0  0  0  0  0  0  0  0
  -24.3570  -35.9270   23.5190 C   0  0  0  0  0  1  0  0  0  0  0  0
  -25.6410  -35.3730   24.1590 C   0  0  0  0  0  3  0  0  0  0  0  0
  -27.8100  -36.0890   25.0610 C   0  0  0  0  0  1  0  0  0  0  0  0
  -26.6600  -36.4430   24.2330 N   0  0  0  0  0  0  0  0  0  0  0  0
  -26.2570  -37.3010   24.6010 H   0  0  0  0  0  0  0  0  0  0  0  0
  -26.7950  -30.6450   24.2890 C   0  0  1  0  0  0  0  0  0  0  0  0
  -25.8190  -30.1520   25.3830 C   0  0  0  0  0  1  0  0  0  0  0  0
  -27.3570  -29.4000   23.5660 C   0  0  0  0  0  1  0  0  0  0  0  0
  -27.9960  -31.3250   24.9900 C   0  0  0  0  0  1  0  0  0  0  0  0
  3  1  1  0
  3  2  1  0
  4 10  1  0
  4  1  1  0
  5  4  1  0
  5  2  1  0
  6  7  1  0
  6  3  1  0
  8  6  1  0
  8  5  1  0
  8  9  1  6
 10 19  1  0
 11 19  1  0
 11 17  1  0
 12 17  1  0
 13 14  1  0
 13 12  1  0
 15 14  1  0
 15 24  1  0
 15 16  1  0
 17 16  1  0
 18 11  2  0
 19 20  1  0
 21 22  2  0
 22 41  1  0
 23 22  1  0
 23 26  1  0
 24 21  1  0
 24 25  1  0
 25 23  2  0
 26 27  1  0
 27 28  2  0
 29 32  1  0
 29 28  1  0
 30 29  2  0
 31 30  1  0
 31 26  2  0
 32 33  1  0
 33 34  1  0
 34 35  2  0
 36 35  1  0
 36 40  1  0
 37 36  2  0
 38 33  2  0
 38 37  1  0
 39 38  1  0
 41 42  1  0
 42 45  1  0
 42 44  1  0
 43 41  2  0
 46 47  1  0
 46 21  1  0
 48 46  1  0
 49  8  1  0
 50 53  1  0
 50 49  1  0
 50 52  1  0
 52 51  1  0
 53 54  1  0
 54 56  1  0
 55 66  2  0
 56 61  1  0
 57 65  1  0
 57 67  1  0
 58 64  1  0
 58 60  1  0
 59 65  1  0
 60 59  1  0
 61 60  2  0
 62 63  1  0
 62 56  2  0
 63 58  2  0
 64 57  1  0
 65 55  1  0
 67 69  2  0
 68 67  1  0
 70 68  1  0
 71 80  2  0
 71 76  1  0
 72 68  1  0
 72 76  1  0
 73 72  1  0
 74 75  1  0
 74 73  1  0
 75 71  1  0
 76 77  2  0
 77 78  1  0
 79 78  2  0
 80 79  1  0
 81 55  1  0
 81 82  1  0
 81 91  1  0
 82 85  1  0
 83 82  1  0
 83 87  1  0
 84 83  2  0
 87 86  1  0
 87 89  1  0
 89 90  1  0
 89 88  1  0
 91 94  1  1
 91 92  1  0
 93 91  1  0
M  ISO  4  11 100  19 100  53 101  54 101
M  END
>  <TORSDO>  (35) 
F 21

>  <SCORE>  (35) 
-10.485

>  <name>  (35) 
34

>  <ligand_id>  (35) 
34

>  <original_smiles>  (35) 
[H]c1c([H])c([H])c2c(c1[H])C([H])([H])C([H])([H])C([H])([H])C2([H])N([H])C(=O)C1([H])N(C(=O)C([H])(N([H])C(=O)C([H])(N([H])C([H])([H])[H])C([H])([H])[H])C(C([H])([H])[H])(C([H])([H])[H])C([H])([H])[H])C([H])([H])c2c([H])c(OC([H])([H])C([H])(C([H])([H])C([H])([H])[H])C([H])([H])[N+]3([H])C([H])(C([H])([H])[H])C4([H])C([H])([H])C([H])(C([H])([H])N([H])C(=O)N5C([H])([H])C([H])([H])C([H])([H])C([H])(n6nc(-c7c([H])c([H])c(Oc8c([H])c([H])c(F)c([H])c8F)c([H])c7[H])c(C(=O)N([H])[H])c6N([H])[H])C5([H])[H])C3([H])C4([H])[H])c([H])c([H])c2C1([H])[H]

>  <smiles>  (35) 
[H]c1c([H])c([H])c2c(c1[H])C([H])([H])C([H])([H])C([H])([H])C2([H])N([H])C(=O)C1([H])N(C(=O)C([H])(N([H])C(=O)C([H])(N([H])C([H])([H])[H])C([H])([H])[H])C(C([H])([H])[H])(C([H])([H])[H])C([H])([H])[H])C([H])([H])c2c([H])c(OC([H])([H])C([H])(C([H])([H])C([H])([H])[H])C([H])([H])[N+]3([H])C([H])(C([H])([H])[H])C4([H])C([H])([H])C([H])(C([H])([H])N([H])C(=O)N5C([H])([H])C([H])([H])C([H])([H])C([H])(n6nc(-c7c([H])c([H])c(Oc8c([H])c([H])c(F)c([H])c8F)c([H])c7[H])c(C(=O)N([H])[H])c6N([H])[H])C5([H])[H])C3([H])C4([H])[H])c([H])c([H])c2C1([H])[H]

$$$$
35:0:0
     RDKit          3D

 92101  0  0  1  0  0  0  0  0999 V2000
  -30.0720  -21.7430   22.5710 C   0  0  0  0  0  3  0  0  0  0  0  0
  -29.4690  -22.9840   22.2770 C   0  0  0  0  0  3  0  0  0  0  0  0
  -28.9650  -20.7460   20.6660 C   0  0  0  0  0  3  0  0  0  0  0  0
  -29.8340  -20.6000   21.7730 C   0  0  0  0  0  0  0  0  0  0  0  0
  -28.6080  -23.1340   21.1700 C   0  0  0  0  0  0  0  0  0  0  0  0
  -28.3610  -21.9950   20.3570 C   0  0  0  0  0  0  0  0  0  0  0  0
  -27.4360  -22.0780   19.1560 C   0  0  0  0  0  1  0  0  0  0  0  0
  -31.8650  -19.0250   21.5180 C   0  0  0  0  0  2  0  0  0  0  0  0
  -30.5280  -19.2960   22.1370 C   0  0  0  0  0  3  0  0  0  0  0  0
  -30.7310  -18.0510   21.2460 C   0  0  0  0  0  3  0  0  0  0  0  0
  -30.9290  -16.6380   21.8230 C   0  0  0  0  0  2  0  0  0  0  0  0
  -30.8630  -14.5700   20.3720 C   0  0  0  0  0  0  0  0  0  0  0  0
  -30.5240  -12.4560   19.1240 C   0  0  0  0  0  2  0  0  0  0  0  0
  -29.5580  -12.6760   17.9450 C   0  0  0  0  0  2  0  0  0  0  0  0
  -28.0930  -12.5230   18.4000 C   0  0  0  0  0  2  0  0  0  0  0  0
  -27.7810  -13.3350   19.6850 C   0  0  0  0  0  3  0  0  0  0  0  0
  -28.8550  -13.0890   20.7660 C   0  0  0  0  0  2  0  0  0  0  0  0
  -30.1670  -13.4140   20.1810 N   0  0  0  0  0  0  0  0  0  0  0  0
  -31.9440  -14.7970   19.8230 O   0  0  0  0  0  0  0  0  0  0  0  0
  -30.2800  -15.4780   21.1820 N   0  0  0  0  0  0  0  0  0  0  0  0
  -29.3630  -15.2290   21.5250 H   0  0  0  0  0  0  0  0  0  0  0  0
  -25.3970  -13.9330   20.4440 C   0  0  0  0  0  0  0  0  0  0  0  0
  -24.3360  -13.1530   20.8260 C   0  0  0  0  0  0  0  0  0  0  0  0
  -24.7980  -11.8030   20.7740 C   0  0  0  0  0  0  0  0  0  0  0  0
  -26.4370  -13.0540   20.1850 N   0  0  0  0  0  0  0  0  0  0  0  0
  -26.0810  -11.7670   20.4380 N   0  0  0  0  0  0  0  0  0  0  0  0
  -24.0750  -10.5380   20.9660 C   0  0  0  0  0  0  0  0  0  0  0  0
  -24.5090   -9.5740   21.9020 C   0  0  0  0  0  3  0  0  0  0  0  0
  -23.7860   -8.3750   22.0820 C   0  0  0  0  0  3  0  0  0  0  0  0
  -22.6150   -8.1330   21.3250 C   0  0  0  0  0  0  0  0  0  0  0  0
  -22.2000   -9.0870   20.3800 C   0  0  0  0  0  3  0  0  0  0  0  0
  -22.9230  -10.2770   20.1970 C   0  0  0  0  0  3  0  0  0  0  0  0
  -21.8650   -6.9850   21.4120 O   0  0  0  0  0  0  0  0  0  0  0  0
  -21.7960   -6.2580   22.5730 C   0  0  0  0  0  0  0  0  0  0  0  0
  -21.3290   -6.8240   23.7790 C   0  0  0  0  0  3  0  0  0  0  0  0
  -21.2050   -6.0230   24.9310 C   0  0  0  0  0  3  0  0  0  0  0  0
  -21.5420   -4.6560   24.8800 C   0  0  0  0  0  0  0  0  0  0  0  0
  -22.0040   -4.0900   23.6780 C   0  0  0  0  0  3  0  0  0  0  0  0
  -22.1270   -4.8880   22.5290 C   0  0  0  0  0  0  0  0  0  0  0  0
  -22.5510   -4.3330   21.3670 F   0  0  0  0  0  0  0  0  0  0  0  0
  -21.4180   -3.8840   25.9850 F   0  0  0  0  0  0  0  0  0  0  0  0
  -22.9440  -13.6290   21.1290 C   0  0  0  0  0  0  0  0  0  0  0  0
  -22.2350  -12.9290   22.0080 N   0  0  0  0  0  0  0  0  0  0  0  0
  -22.4950  -14.6570   20.6240 O   0  0  0  0  0  0  0  0  0  0  0  0
  -22.6090  -12.0960   22.4360 H   0  0  0  0  0  0  0  0  0  0  0  0
  -21.3040  -13.2330   22.2540 H   0  0  0  0  0  0  0  0  0  0  0  0
  -25.5580  -15.3040   20.2780 N   0  0  0  0  0  0  0  0  0  0  0  0
  -24.7960  -15.9580   20.4140 H   0  0  0  0  0  0  0  0  0  0  0  0
  -26.4030  -15.7500   19.9420 H   0  0  0  0  0  0  0  0  0  0  0  0
  -27.9310  -24.5030   20.9500 C   0  0  0  0  0  2  0  0  0  0  0  0
  -28.5650  -25.4080   19.8590 C   0  0  0  0  0  2  0  0  0  0  0  0
  -28.5070  -26.8170   20.1720 O   0  0  0  0  0  0  0  0  0  0  0  0
  -24.6230  -31.9200   23.2300 C   0  0  0  0  0  0  0  0  0  0  0  0
  -27.3060  -27.5030   20.1490 C   0  0  0  0  0  0  0  0  0  0  0  0
  -23.4290  -30.5170   21.5800 C   0  0  0  0  0  3  0  0  0  0  0  0
  -24.8950  -28.9940   20.1480 C   0  0  0  0  0  0  0  0  0  0  0  0
  -25.9460  -30.8980   21.3790 C   0  0  0  0  0  2  0  0  0  0  0  0
  -26.0450  -29.5270   20.7410 C   0  0  0  0  0  0  0  0  0  0  0  0
  -27.2510  -28.7910   20.7330 C   0  0  0  0  0  3  0  0  0  0  0  0
  -26.1360  -26.9840   19.5500 C   0  0  0  0  0  3  0  0  0  0  0  0
  -24.9370  -27.7230   19.5490 C   0  0  0  0  0  3  0  0  0  0  0  0
  -23.6430  -29.8450   20.1960 C   0  0  0  0  0  2  0  0  0  0  0  0
  -24.6860  -31.1270   22.1230 N   0  0  0  0  0  0  0  0  0  0  0  0
  -23.5400  -32.1810   23.7730 O   0  0  0  0  0  0  0  0  0  0  0  0
  -22.7870  -29.4890   22.5370 C   0  0  0  0  0  0  0  0  0  0  0  0
  -21.4630  -29.3010   22.4120 N   0  0  0  0  0  0  0  0  0  0  0  0
  -23.4770  -28.8610   23.3460 O   0  0  0  0  0  0  0  0  0  0  0  0
  -20.9620  -29.8680   21.7410 H   0  0  0  0  0  0  0  0  0  0  0  0
  -18.0970  -28.0980   22.9190 C   0  0  0  0  0  0  0  0  0  0  0  0
  -20.6560  -28.3490   23.1770 C   0  0  0  0  0  3  0  0  0  0  0  0
  -20.7540  -26.9300   22.5710 C   0  0  0  0  0  2  0  0  0  0  0  0
  -19.6440  -26.6250   21.5620 C   0  0  0  0  0  2  0  0  0  0  0  0
  -18.2680  -26.7590   22.2200 C   0  0  0  0  0  2  0  0  0  0  0  0
  -19.2180  -28.8510   23.3550 C   0  0  0  0  0  0  0  0  0  0  0  0
  -19.0060  -30.1060   23.9650 C   0  0  0  0  0  3  0  0  0  0  0  0
  -17.7040  -30.6070   24.1490 C   0  0  0  0  0  3  0  0  0  0  0  0
  -16.5960  -29.8510   23.7300 C   0  0  0  0  0  3  0  0  0  0  0  0
  -16.7920  -28.5990   23.1190 C   0  0  0  0  0  3  0  0  0  0  0  0
  -25.9060  -32.5580   23.8540 C   0  0  0  0  0  3  0  0  0  0  0  0
  -26.4170  -31.7940   25.1360 C   0  0  1  0  0  0  0  0  0  0  0  0
  -25.3200  -31.5520   26.1990 C   0  0  0  0  0  1  0  0  0  0  0  0
  -27.0140  -30.4210   24.7490 C   0  0  0  0  0  1  0  0  0  0  0  0
  -27.5570  -32.6000   25.8040 C   0  0  0  0  0  1  0  0  0  0  0  0
  -25.5880  -33.9580   24.1800 N   0  0  0  0  0  0  0  0  0  0  0  0
  -25.9240  -35.0100   23.4220 C   0  0  0  0  0  0  0  0  0  0  0  0
  -26.6090  -34.9050   22.4010 O   0  0  0  0  0  0  0  0  0  0  0  0
  -24.9770  -34.1100   24.9680 H   0  0  0  0  0  0  0  0  0  0  0  0
  -24.2010  -36.8010   23.0280 C   0  0  0  0  0  1  0  0  0  0  0  0
  -25.4240  -36.3980   23.8660 C   0  0  0  0  0  3  0  0  0  0  0  0
  -27.5380  -37.2880   24.7420 C   0  0  0  0  0  1  0  0  0  0  0  0
  -26.4570  -37.4530   23.7750 N   0  0  0  0  0  0  0  0  0  0  0  0
  -26.0470  -38.3720   23.9050 H   0  0  0  0  0  0  0  0  0  0  0  0
  2  1  1  0
  3  4  1  0
  4  1  2  0
  5  2  2  0
  6  3  2  0
  6  5  1  0
  7  6  1  0
  8  9  1  0
  9  4  1  0
 10  8  1  0
 10 11  1  0
 10  9  1  0
 12 20  1  0
 13 18  1  0
 14 15  1  0
 14 13  1  0
 16 15  1  0
 16 25  1  0
 16 17  1  0
 18 12  1  0
 18 17  1  0
 19 12  2  0
 20 21  1  0
 20 11  1  0
 22 23  2  0
 23 42  1  0
 24 23  1  0
 24 27  1  0
 25 26  1  0
 25 22  1  0
 26 24  2  0
 27 28  1  0
 28 29  2  0
 30 33  1  0
 30 29  1  0
 31 30  2  0
 32 31  1  0
 32 27  2  0
 33 34  1  0
 34 35  1  0
 35 36  2  0
 37 36  1  0
 37 41  1  0
 38 37  2  0
 39 34  2  0
 39 38  1  0
 40 39  1  0
 42 43  1  0
 43 46  1  0
 43 45  1  0
 44 42  2  0
 47 48  1  0
 47 22  1  0
 49 47  1  0
 50  5  1  0
 51 52  1  0
 51 50  1  0
 53 64  2  0
 54 52  1  0
 54 59  1  0
 55 63  1  0
 55 65  1  0
 56 62  1  0
 56 58  1  0
 57 63  1  0
 58 57  1  0
 59 58  2  0
 60 54  2  0
 61 60  1  0
 61 56  2  0
 62 55  1  0
 63 53  1  0
 65 67  2  0
 66 65  1  0
 68 66  1  0
 69 78  2  0
 69 74  1  0
 70 66  1  0
 70 74  1  0
 71 70  1  0
 72 73  1  0
 72 71  1  0
 73 69  1  0
 74 75  2  0
 75 76  1  0
 77 76  2  0
 78 77  1  0
 79 53  1  0
 79 84  1  0
 79 80  1  0
 80 83  1  1
 80 81  1  0
 82 80  1  0
 84 87  1  0
 85 89  1  0
 85 84  1  0
 86 85  2  0
 89 88  1  0
 91 89  1  0
 91 92  1  0
 91 90  1  0
M  ISO  4  12 100  20 100  51 101  52 101
M  END
>  <TORSDO>  (36) 
F 20

>  <SCORE>  (36) 
-14.030

>  <name>  (36) 
35

>  <ligand_id>  (36) 
35

>  <original_smiles>  (36) 
[H]c1c([H])c([H])c2c(c1[H])C([H])([H])C([H])([H])C([H])([H])C2([H])N([H])C(=O)C1([H])N(C(=O)C([H])(N([H])C(=O)C([H])(N([H])C([H])([H])[H])C([H])([H])[H])C(C([H])([H])[H])(C([H])([H])[H])C([H])([H])[H])C([H])([H])c2c([H])c(OC([H])([H])C([H])([H])c3c([H])c([H])c(C4([H])C([H])([H])C4([H])C([H])([H])N([H])C(=O)N4C([H])([H])C([H])([H])C([H])([H])C([H])(n5nc(-c6c([H])c([H])c(Oc7c([H])c([H])c(F)c([H])c7F)c([H])c6[H])c(C(=O)N([H])[H])c5N([H])[H])C4([H])[H])c([H])c3C([H])([H])[H])c([H])c([H])c2C1([H])[H]

>  <smiles>  (36) 
[H]c1c([H])c([H])c2c(c1[H])C([H])([H])C([H])([H])C([H])([H])C2([H])N([H])C(=O)C1([H])N(C(=O)C([H])(N([H])C(=O)C([H])(N([H])C([H])([H])[H])C([H])([H])[H])C(C([H])([H])[H])(C([H])([H])[H])C([H])([H])[H])C([H])([H])c2c([H])c(OC([H])([H])C([H])([H])c3c([H])c([H])c(C4([H])C([H])([H])C4([H])C([H])([H])N([H])C(=O)N4C([H])([H])C([H])([H])C([H])([H])C([H])(n5nc(-c6c([H])c([H])c(Oc7c([H])c([H])c(F)c([H])c7F)c([H])c6[H])c(C(=O)N([H])[H])c5N([H])[H])C4([H])[H])c([H])c3C([H])([H])[H])c([H])c([H])c2C1([H])[H]

$$$$
36:0:0
     RDKit          3D

 89 98  0  0  1  0  0  0  0  0999 V2000
  -28.3920  -19.4590   21.4090 C   0  0  0  0  0  2  0  0  0  0  0  0
  -28.3470  -21.8590   20.3910 C   0  0  0  0  0  2  0  0  0  0  0  0
  -30.7440  -21.0420   20.0310 C   0  0  0  0  0  2  0  0  0  0  0  0
  -27.9670  -20.3760   20.2720 C   0  0  0  0  0  3  0  0  0  0  0  0
  -28.9370  -19.2160   20.0350 C   0  0  0  0  0  3  0  0  0  0  0  0
  -29.6730  -22.2770   19.7200 C   0  0  0  0  0  3  0  0  0  0  0  0
  -30.3920  -19.4560   19.6680 C   0  0  0  0  0  3  0  0  0  0  0  0
  -29.9730  -23.9020   20.0410 C   0  0  0  0  0  3  0  0  0  0  0  0
  -28.9030  -25.1650   19.7720 C   0  0  0  0  0  3  0  0  0  0  0  0
  -29.0200  -26.6420   20.2290 O   0  0  0  0  0  0  0  0  0  0  0  0
  -24.7540  -31.7830   23.3100 C   0  0  0  0  0  0  0  0  0  0  0  0
  -27.8960  -27.5380   20.1500 C   0  0  0  0  0  0  0  0  0  0  0  0
  -23.7870  -30.4450   21.4800 C   0  0  0  0  0  3  0  0  0  0  0  0
  -25.4500  -29.1000   20.0610 C   0  0  0  0  0  0  0  0  0  0  0  0
  -26.3160  -30.9060   21.5370 C   0  0  0  0  0  2  0  0  0  0  0  0
  -26.5430  -29.5810   20.7910 C   0  0  0  0  0  0  0  0  0  0  0  0
  -27.7680  -28.8190   20.8200 C   0  0  0  0  0  3  0  0  0  0  0  0
  -26.7700  -27.1530   19.3890 C   0  0  0  0  0  3  0  0  0  0  0  0
  -25.5750  -27.9000   19.3450 C   0  0  0  0  0  3  0  0  0  0  0  0
  -24.1580  -29.9010   20.0750 C   0  0  0  0  0  2  0  0  0  0  0  0
  -24.9670  -31.0620   22.1670 N   0  0  0  0  0  0  0  0  0  0  0  0
  -23.6130  -31.9470   23.7690 O   0  0  0  0  0  0  0  0  0  0  0  0
  -23.1180  -29.3170   22.3050 C   0  0  0  0  0  0  0  0  0  0  0  0
  -21.8010  -29.1210   22.1190 N   0  0  0  0  0  0  0  0  0  0  0  0
  -23.7880  -28.6240   23.0760 O   0  0  0  0  0  0  0  0  0  0  0  0
  -21.3160  -29.7360   21.4810 H   0  0  0  0  0  0  0  0  0  0  0  0
  -18.4250  -27.8620   22.4950 C   0  0  0  0  0  0  0  0  0  0  0  0
  -20.9890  -28.0830   22.7600 C   0  0  0  0  0  3  0  0  0  0  0  0
  -21.0790  -26.7480   21.9840 C   0  0  0  0  0  2  0  0  0  0  0  0
  -19.9610  -26.5730   20.9510 C   0  0  0  0  0  2  0  0  0  0  0  0
  -18.5880  -26.6240   21.6290 C   0  0  0  0  0  2  0  0  0  0  0  0
  -19.5520  -28.5550   23.0130 C   0  0  0  0  0  0  0  0  0  0  0  0
  -19.3430  -29.7190   23.7850 C   0  0  0  0  0  3  0  0  0  0  0  0
  -18.0410  -30.1880   24.0440 C   0  0  0  0  0  3  0  0  0  0  0  0
  -16.9300  -29.4900   23.5400 C   0  0  0  0  0  3  0  0  0  0  0  0
  -17.1230  -28.3280   22.7710 C   0  0  0  0  0  3  0  0  0  0  0  0
  -25.9300  -32.4530   24.0830 C   0  0  0  0  0  3  0  0  0  0  0  0
  -26.2670  -31.7300   25.4460 C   0  0  1  0  0  0  0  0  0  0  0  0
  -25.0350  -31.5060   26.3530 C   0  0  0  0  0  1  0  0  0  0  0  0
  -26.9190  -30.3520   25.1910 C   0  0  0  0  0  1  0  0  0  0  0  0
  -27.2980  -32.5660   26.2400 C   0  0  0  0  0  1  0  0  0  0  0  0
  -25.5660  -33.8570   24.3230 N   0  0  0  0  0  0  0  0  0  0  0  0
  -25.9260  -34.8840   23.5430 C   0  0  0  0  0  0  0  0  0  0  0  0
  -26.6650  -34.7530   22.5640 O   0  0  0  0  0  0  0  0  0  0  0  0
  -24.9160  -34.0310   25.0760 H   0  0  0  0  0  0  0  0  0  0  0  0
  -24.1600  -36.6030   23.0280 C   0  0  0  0  0  1  0  0  0  0  0  0
  -25.3800  -36.2800   23.9060 C   0  0  0  0  0  3  0  0  0  0  0  0
  -27.4430  -37.2890   24.7780 C   0  0  0  0  0  1  0  0  0  0  0  0
  -26.3840  -37.3580   23.7730 N   0  0  0  0  0  0  0  0  0  0  0  0
  -25.9430  -38.2720   23.8410 H   0  0  0  0  0  0  0  0  0  0  0  0
  -31.3600  -18.1600   20.1150 C   0  0  0  0  0  2  0  0  0  0  0  0
  -31.6480  -15.4500   20.1160 C   0  0  0  0  0  0  0  0  0  0  0  0
  -31.4560  -13.0600   19.3180 C   0  0  0  0  0  2  0  0  0  0  0  0
  -30.5230  -12.9710   18.0900 C   0  0  0  0  0  2  0  0  0  0  0  0
  -29.0530  -12.8320   18.5300 C   0  0  0  0  0  2  0  0  0  0  0  0
  -28.6710  -13.8400   19.6470 C   0  0  0  0  0  3  0  0  0  0  0  0
  -29.7250  -13.8900   20.7730 C   0  0  0  0  0  2  0  0  0  0  0  0
  -31.0080  -14.2170   20.1410 N   0  0  0  0  0  0  0  0  0  0  0  0
  -32.8510  -15.4690   19.8410 O   0  0  0  0  0  0  0  0  0  0  0  0
  -30.9100  -16.6560   20.1940 N   0  0  0  0  0  0  0  0  0  0  0  0
  -29.9250  -16.5190   20.3600 H   0  0  0  0  0  0  0  0  0  0  0  0
  -26.3520  -14.5350   20.4790 C   0  0  0  0  0  0  0  0  0  0  0  0
  -25.2430  -13.8120   20.8260 C   0  0  0  0  0  0  0  0  0  0  0  0
  -25.6100  -12.4380   20.6960 C   0  0  0  0  0  0  0  0  0  0  0  0
  -27.3260  -13.6040   20.1590 N   0  0  0  0  0  0  0  0  0  0  0  0
  -26.8900  -12.3330   20.3540 N   0  0  0  0  0  0  0  0  0  0  0  0
  -24.8000  -11.2190   20.8200 C   0  0  0  0  0  0  0  0  0  0  0  0
  -25.1390  -10.1960   21.7330 C   0  0  0  0  0  3  0  0  0  0  0  0
  -24.3310   -9.0430   21.8470 C   0  0  0  0  0  3  0  0  0  0  0  0
  -23.1700   -8.9060   21.0490 C   0  0  0  0  0  0  0  0  0  0  0  0
  -22.8510   -9.9170   20.1260 C   0  0  0  0  0  3  0  0  0  0  0  0
  -23.6580  -11.0620   20.0090 C   0  0  0  0  0  3  0  0  0  0  0  0
  -22.3410   -7.8110   21.0750 O   0  0  0  0  0  0  0  0  0  0  0  0
  -22.0610   -7.1480   22.2430 C   0  0  0  0  0  0  0  0  0  0  0  0
  -21.4380   -7.7910   23.3350 C   0  0  0  0  0  3  0  0  0  0  0  0
  -21.1060   -7.0550   24.4900 C   0  0  0  0  0  3  0  0  0  0  0  0
  -21.3870   -5.6770   24.5520 C   0  0  0  0  0  0  0  0  0  0  0  0
  -22.0010   -5.0340   23.4640 C   0  0  0  0  0  3  0  0  0  0  0  0
  -22.3350   -5.7660   22.3110 C   0  0  0  0  0  0  0  0  0  0  0  0
  -22.9080   -5.1380   21.2570 F   0  0  0  0  0  0  0  0  0  0  0  0
  -21.0600   -4.9670   25.6580 F   0  0  0  0  0  0  0  0  0  0  0  0
  -23.8880  -14.3660   21.1590 C   0  0  0  0  0  0  0  0  0  0  0  0
  -23.1480  -13.6910   22.0300 N   0  0  0  0  0  0  0  0  0  0  0  0
  -23.4990  -15.4310   20.6800 O   0  0  0  0  0  0  0  0  0  0  0  0
  -23.4780  -12.8280   22.4370 H   0  0  0  0  0  0  0  0  0  0  0  0
  -22.2390  -14.0420   22.2970 H   0  0  0  0  0  0  0  0  0  0  0  0
  -26.6050  -15.9000   20.3830 N   0  0  0  0  0  0  0  0  0  0  0  0
  -25.8790  -16.5900   20.5410 H   0  0  0  0  0  0  0  0  0  0  0  0
  -27.4580  -16.3010   20.0150 H   0  0  0  0  0  0  0  0  0  0  0  0
  4  2  1  0
  4  1  1  0
  5  4  1  0
  5  1  1  0
  6  3  1  0
  6  8  1  0
  6  2  1  0
  7  3  1  0
  7  5  1  0
  7 51  1  0
  9  8  2  0
  9 10  1  0
 11 22  2  0
 12 10  1  0
 12 17  1  0
 13 21  1  0
 13 23  1  0
 14 20  1  0
 14 16  1  0
 15 21  1  0
 16 17  2  0
 16 15  1  0
 18 12  2  0
 19 18  1  0
 19 14  2  0
 20 13  1  0
 21 11  1  0
 23 25  2  0
 24 23  1  0
 26 24  1  0
 27 36  2  0
 27 32  1  0
 28 24  1  0
 28 32  1  0
 29 28  1  0
 30 31  1  0
 30 29  1  0
 31 27  1  0
 32 33  2  0
 33 34  1  0
 35 34  2  0
 36 35  1  0
 37 11  1  0
 37 42  1  0
 37 38  1  0
 38 41  1  1
 38 39  1  0
 40 38  1  0
 42 45  1  0
 43 47  1  0
 43 42  1  0
 44 43  2  0
 47 46  1  0
 49 50  1  0
 49 47  1  0
 49 48  1  0
 51 60  1  0
 52 58  1  0
 52 60  1  0
 53 58  1  0
 54 55  1  0
 54 53  1  0
 56 55  1  0
 56 65  1  0
 56 57  1  0
 58 57  1  0
 59 52  2  0
 60 61  1  0
 62 63  2  0
 63 82  1  0
 64 67  1  0
 64 63  1  0
 65 66  1  0
 65 62  1  0
 66 64  2  0
 67 68  1  0
 68 69  2  0
 70 73  1  0
 70 69  1  0
 71 70  2  0
 72 71  1  0
 72 67  2  0
 73 74  1  0
 74 79  2  0
 74 75  1  0
 75 76  2  0
 76 77  1  0
 77 81  1  0
 78 77  2  0
 79 78  1  0
 80 79  1  0
 82 83  1  0
 83 86  1  0
 83 85  1  0
 84 82  2  0
 87 62  1  0
 87 88  1  0
 89 87  1  0
M  ISO  4   9 101  10 101  52 100  60 100
M  END
>  <TORSDO>  (37) 
F 19

>  <SCORE>  (37) 
-10.972

>  <name>  (37) 
36

>  <ligand_id>  (37) 
36

>  <original_smiles>  (37) 
[H]c1c([H])c([H])c2c(c1[H])C([H])([H])C([H])([H])C([H])([H])C2([H])N([H])C(=O)C1([H])N(C(=O)C([H])(N([H])C(=O)C([H])(N([H])C([H])([H])[H])C([H])([H])[H])C(C([H])([H])[H])(C([H])([H])[H])C([H])([H])[H])C([H])([H])c2c([H])c(OC([H])([H])C([H])([H])C3([H])C([H])([H])C([H])(C([H])([H])N([H])C(=O)N4C([H])([H])C([H])([H])C([H])([H])C([H])(n5nc(-c6c([H])c([H])c(Oc7c([H])c([H])c(F)c([H])c7F)c([H])c6[H])c(C(=O)N([H])[H])c5N([H])[H])C4([H])[H])C4([H])C([H])([H])C4([H])C3([H])[H])c([H])c([H])c2C1([H])[H]

>  <smiles>  (37) 
[H]c1c([H])c([H])c2c(c1[H])C([H])([H])C([H])([H])C([H])([H])C2([H])N([H])C(=O)C1([H])N(C(=O)C([H])(N([H])C(=O)C([H])(N([H])C([H])([H])[H])C([H])([H])[H])C(C([H])([H])[H])(C([H])([H])[H])C([H])([H])[H])C([H])([H])c2c([H])c(OC([H])([H])C([H])([H])C3([H])C([H])([H])C([H])(C([H])([H])N([H])C(=O)N4C([H])([H])C([H])([H])C([H])([H])C([H])(n5nc(-c6c([H])c([H])c(Oc7c([H])c([H])c(F)c([H])c7F)c([H])c6[H])c(C(=O)N([H])[H])c5N([H])[H])C4([H])[H])C4([H])C([H])([H])C4([H])C3([H])[H])c([H])c([H])c2C1([H])[H]

$$$$
37:0:0
     RDKit          3D

 91100  0  0  1  0  0  0  0  0999 V2000
  -30.2820  -19.9500   19.5170 C   0  0  0  0  0  2  0  0  0  0  0  0
  -28.4900  -18.2680   18.7520 C   0  0  0  0  0  2  0  0  0  0  0  0
  -29.3110  -21.1860   19.1580 C   0  0  0  0  0  3  0  0  0  0  0  0
  -29.6900  -18.4640   19.6950 C   0  0  0  0  0  3  0  0  0  0  0  0
  -27.4370  -19.3290   19.0050 C   0  0  0  0  0  3  0  0  0  0  0  0
  -27.8500  -20.7680   19.2370 C   0  0  0  0  0  3  0  0  0  0  0  0
  -27.2960  -20.3260   17.9860 O   0  0  0  0  0  0  0  0  0  0  0  0
  -29.5300  -22.5960   19.8510 C   0  0  0  0  0  0  0  0  0  0  0  0
  -30.1300  -22.6500   20.9290 O   0  0  0  0  0  0  0  0  0  0  0  0
  -29.0310  -23.9440   19.1760 C   0  0  0  0  0  2  0  0  0  0  0  0
  -28.3750  -25.0980   20.0730 C   0  0  0  0  0  2  0  0  0  0  0  0
  -28.4770  -26.5310   19.6860 O   0  0  0  0  0  0  0  0  0  0  0  0
  -24.4770  -31.5600   23.0060 C   0  0  0  0  0  0  0  0  0  0  0  0
  -27.3210  -27.3230   19.7170 C   0  0  0  0  0  0  0  0  0  0  0  0
  -23.3610  -30.2340   21.2480 C   0  0  0  0  0  3  0  0  0  0  0  0
  -24.8970  -28.8340   19.7560 C   0  0  0  0  0  0  0  0  0  0  0  0
  -25.8850  -30.6630   21.1370 C   0  0  0  0  0  2  0  0  0  0  0  0
  -26.0330  -29.3330   20.4050 C   0  0  0  0  0  0  0  0  0  0  0  0
  -27.2530  -28.5920   20.3670 C   0  0  0  0  0  3  0  0  0  0  0  0
  -26.1600  -26.8660   19.0580 C   0  0  0  0  0  3  0  0  0  0  0  0
  -24.9610  -27.6080   19.0730 C   0  0  0  0  0  3  0  0  0  0  0  0
  -23.6280  -29.6600   19.8320 C   0  0  0  0  0  2  0  0  0  0  0  0
  -24.5930  -30.8340   21.8550 N   0  0  0  0  0  0  0  0  0  0  0  0
  -23.3740  -31.7570   23.5340 O   0  0  0  0  0  0  0  0  0  0  0  0
  -22.7170  -29.1310   22.1220 C   0  0  0  0  0  0  0  0  0  0  0  0
  -21.3900  -28.9600   21.9970 N   0  0  0  0  0  0  0  0  0  0  0  0
  -23.4090  -28.4360   22.8690 O   0  0  0  0  0  0  0  0  0  0  0  0
  -20.8910  -29.5740   21.3700 H   0  0  0  0  0  0  0  0  0  0  0  0
  -18.0100  -27.7670   22.5040 C   0  0  0  0  0  0  0  0  0  0  0  0
  -20.5830  -27.9520   22.6890 C   0  0  0  0  0  3  0  0  0  0  0  0
  -20.6290  -26.5960   21.9460 C   0  0  0  0  0  2  0  0  0  0  0  0
  -19.4790  -26.4130   20.9520 C   0  0  0  0  0  2  0  0  0  0  0  0
  -18.1300  -26.5030   21.6690 C   0  0  0  0  0  2  0  0  0  0  0  0
  -19.1610  -28.4570   22.9690 C   0  0  0  0  0  0  0  0  0  0  0  0
  -18.9930  -29.6450   23.7120 C   0  0  0  0  0  3  0  0  0  0  0  0
  -17.7060  -30.1440   23.9910 C   0  0  0  0  0  3  0  0  0  0  0  0
  -16.5700  -29.4490   23.5410 C   0  0  0  0  0  3  0  0  0  0  0  0
  -16.7230  -28.2620   22.8020 C   0  0  0  0  0  3  0  0  0  0  0  0
  -25.7200  -32.1920   23.7040 C   0  0  0  0  0  3  0  0  0  0  0  0
  -26.1890  -31.3920   24.9810 C   0  0  1  0  0  0  0  0  0  0  0  0
  -25.0540  -31.1190   25.9970 C   0  0  0  0  0  1  0  0  0  0  0  0
  -26.7990  -30.0310   24.5760 C   0  0  0  0  0  1  0  0  0  0  0  0
  -27.3070  -32.1750   25.7080 C   0  0  0  0  0  1  0  0  0  0  0  0
  -25.3760  -33.5750   24.0590 N   0  0  0  0  0  0  0  0  0  0  0  0
  -25.7220  -34.6540   23.3430 C   0  0  0  0  0  0  0  0  0  0  0  0
  -26.4340  -34.5880   22.3380 O   0  0  0  0  0  0  0  0  0  0  0  0
  -24.7480  -33.6980   24.8410 H   0  0  0  0  0  0  0  0  0  0  0  0
  -23.9750  -36.4250   22.9790 C   0  0  0  0  0  1  0  0  0  0  0  0
  -25.1960  -36.0220   23.8190 C   0  0  0  0  0  3  0  0  0  0  0  0
  -27.2820  -36.9300   24.7470 C   0  0  0  0  0  1  0  0  0  0  0  0
  -26.2150  -37.0950   23.7620 N   0  0  0  0  0  0  0  0  0  0  0  0
  -25.7880  -38.0060   23.9080 H   0  0  0  0  0  0  0  0  0  0  0  0
  -30.7420  -17.2570   19.6180 C   0  0  0  0  0  2  0  0  0  0  0  0
  -31.0720  -14.7290   19.9210 C   0  0  0  0  0  0  0  0  0  0  0  0
  -30.7620  -12.4210   19.0570 C   0  0  0  0  0  2  0  0  0  0  0  0
  -29.8040  -12.4740   17.8490 C   0  0  0  0  0  2  0  0  0  0  0  0
  -28.3400  -12.3620   18.3160 C   0  0  0  0  0  2  0  0  0  0  0  0
  -28.0160  -13.3350   19.4820 C   0  0  0  0  0  3  0  0  0  0  0  0
  -29.0940  -13.2810   20.5920 C   0  0  0  0  0  2  0  0  0  0  0  0
  -30.3970  -13.5360   19.9590 N   0  0  0  0  0  0  0  0  0  0  0  0
  -32.2310  -14.7880   19.5010 O   0  0  0  0  0  0  0  0  0  0  0  0
  -30.3620  -15.8860   20.1290 N   0  0  0  0  0  0  0  0  0  0  0  0
  -29.4140  -15.7670   20.4540 H   0  0  0  0  0  0  0  0  0  0  0  0
  -25.6750  -14.0240   20.2860 C   0  0  0  0  0  0  0  0  0  0  0  0
  -24.5920  -13.2910   20.6890 C   0  0  0  0  0  0  0  0  0  0  0  0
  -25.0010  -11.9240   20.6440 C   0  0  0  0  0  0  0  0  0  0  0  0
  -26.6750  -13.1040   20.0170 N   0  0  0  0  0  0  0  0  0  0  0  0
  -26.2780  -11.8360   20.2980 N   0  0  0  0  0  0  0  0  0  0  0  0
  -24.2330  -10.6890   20.8590 C   0  0  0  0  0  0  0  0  0  0  0  0
  -24.6410   -9.7170   21.7980 C   0  0  0  0  0  3  0  0  0  0  0  0
  -23.8750   -8.5490   22.0010 C   0  0  0  0  0  3  0  0  0  0  0  0
  -22.6840   -8.3450   21.2660 C   0  0  0  0  0  0  0  0  0  0  0  0
  -22.2960   -9.3030   20.3130 C   0  0  0  0  0  3  0  0  0  0  0  0
  -23.0600  -10.4630   20.1080 C   0  0  0  0  0  3  0  0  0  0  0  0
  -21.8910   -7.2280   21.3770 O   0  0  0  0  0  0  0  0  0  0  0  0
  -21.8150   -6.5080   22.5430 C   0  0  0  0  0  0  0  0  0  0  0  0
  -21.3790   -7.0950   23.7510 C   0  0  0  0  0  3  0  0  0  0  0  0
  -21.2520   -6.3050   24.9110 C   0  0  0  0  0  3  0  0  0  0  0  0
  -21.5520   -4.9320   24.8640 C   0  0  0  0  0  0  0  0  0  0  0  0
  -21.9810   -4.3440   23.6620 C   0  0  0  0  0  3  0  0  0  0  0  0
  -22.1090   -5.1310   22.5030 C   0  0  0  0  0  0  0  0  0  0  0  0
  -22.5070   -4.5590   21.3420 F   0  0  0  0  0  0  0  0  0  0  0  0
  -21.4170   -4.1690   25.9760 F   0  0  0  0  0  0  0  0  0  0  0  0
  -23.2220  -13.8160   21.0030 C   0  0  0  0  0  0  0  0  0  0  0  0
  -22.5030  -13.1580   21.9060 N   0  0  0  0  0  0  0  0  0  0  0  0
  -22.7970  -14.8430   20.4780 O   0  0  0  0  0  0  0  0  0  0  0  0
  -22.8610  -12.3290   22.3520 H   0  0  0  0  0  0  0  0  0  0  0  0
  -21.5800  -13.4870   22.1490 H   0  0  0  0  0  0  0  0  0  0  0  0
  -25.8820  -15.3870   20.1040 N   0  0  0  0  0  0  0  0  0  0  0  0
  -25.1290  -16.0570   20.2090 H   0  0  0  0  0  0  0  0  0  0  0  0
  -26.7250  -15.7970   19.7230 H   0  0  0  0  0  0  0  0  0  0  0  0
  1  4  1  0
  2  4  1  0
  3  6  1  0
  3  1  1  0
  3  8  1  0
  4 53  1  0
  5  2  1  0
  5  6  1  0
  6  7  1  0
  7  5  1  0
  8  9  2  0
 10  8  1  0
 10 11  1  0
 12 14  1  0
 12 11  1  0
 13 24  2  0
 14 19  1  0
 15 23  1  0
 15 25  1  0
 16 22  1  0
 16 18  1  0
 17 23  1  0
 18 17  1  0
 19 18  2  0
 20 21  1  0
 20 14  2  0
 21 16  2  0
 22 15  1  0
 23 13  1  0
 25 27  2  0
 26 25  1  0
 28 26  1  0
 29 38  2  0
 29 34  1  0
 30 26  1  0
 30 34  1  0
 31 30  1  0
 32 33  1  0
 32 31  1  0
 33 29  1  0
 34 35  2  0
 35 36  1  0
 37 36  2  0
 38 37  1  0
 39 13  1  0
 39 44  1  0
 39 40  1  0
 40 43  1  1
 40 41  1  0
 42 40  1  0
 44 47  1  0
 45 49  1  0
 45 44  1  0
 46 45  2  0
 49 48  1  0
 51 49  1  0
 51 52  1  0
 51 50  1  0
 53 62  1  0
 54 60  1  0
 54 62  1  0
 55 60  1  0
 56 57  1  0
 56 55  1  0
 58 57  1  0
 58 67  1  0
 58 59  1  0
 60 59  1  0
 61 54  2  0
 62 63  1  0
 64 65  2  0
 65 84  1  0
 66 65  1  0
 66 69  1  0
 67 64  1  0
 67 68  1  0
 68 66  2  0
 69 70  1  0
 70 71  2  0
 72 75  1  0
 72 71  1  0
 73 72  2  0
 74 73  1  0
 74 69  2  0
 75 76  1  0
 76 77  1  0
 77 78  2  0
 79 78  1  0
 79 83  1  0
 80 79  2  0
 81 76  2  0
 81 80  1  0
 82 81  1  0
 84 85  1  0
 85 88  1  0
 85 87  1  0
 86 84  2  0
 89 90  1  0
 89 64  1  0
 91 89  1  0
M  ISO  4  11 101  12 101  54 100  62 100
M  END
>  <TORSDO>  (38) 
F 20

>  <SCORE>  (38) 
-13.227

>  <name>  (38) 
37

>  <ligand_id>  (38) 
37

>  <original_smiles>  (38) 
[H]c1c([H])c([H])c2c(c1[H])C([H])([H])C([H])([H])C([H])([H])C2([H])N([H])C(=O)C1([H])N(C(=O)C([H])(N([H])C(=O)C([H])(N([H])C([H])([H])[H])C([H])([H])[H])C(C([H])([H])[H])(C([H])([H])[H])C([H])([H])[H])C([H])([H])c2c([H])c(OC([H])([H])C([H])([H])C(=O)C3([H])C([H])([H])C([H])(C([H])([H])N([H])C(=O)N4C([H])([H])C([H])([H])C([H])([H])C([H])(n5nc(-c6c([H])c([H])c(Oc7c([H])c([H])c(F)c([H])c7F)c([H])c6[H])c(C(=O)N([H])[H])c5N([H])[H])C4([H])[H])C([H])([H])C4([H])OC43[H])c([H])c([H])c2C1([H])[H]

>  <smiles>  (38) 
[H]c1c([H])c([H])c2c(c1[H])C([H])([H])C([H])([H])C([H])([H])C2([H])N([H])C(=O)C1([H])N(C(=O)C([H])(N([H])C(=O)C([H])(N([H])C([H])([H])[H])C([H])([H])[H])C(C([H])([H])[H])(C([H])([H])[H])C([H])([H])[H])C([H])([H])c2c([H])c(OC([H])([H])C([H])([H])C(=O)C3([H])C([H])([H])C([H])(C([H])([H])N([H])C(=O)N4C([H])([H])C([H])([H])C([H])([H])C([H])(n5nc(-c6c([H])c([H])c(Oc7c([H])c([H])c(F)c([H])c7F)c([H])c6[H])c(C(=O)N([H])[H])c5N([H])[H])C4([H])[H])C([H])([H])C4([H])OC43[H])c([H])c([H])c2C1([H])[H]

$$$$
38:0:0
     RDKit          3D

 91100  0  0  1  0  0  0  0  0999 V2000
  -29.1810  -19.2410   21.0700 C   0  0  0  0  0  3  0  0  0  0  0  0
  -28.7030  -20.5770   21.1310 C   0  0  0  0  0  3  0  0  0  0  0  0
  -29.8370  -18.7430   19.9210 C   0  0  0  0  0  0  0  0  0  0  0  0
  -28.8690  -21.4800   20.0530 C   0  0  0  0  0  0  0  0  0  0  0  0
  -30.0420  -19.6620   18.8450 C   0  0  0  0  0  0  0  0  0  0  0  0
  -29.5840  -21.0160   18.9170 C   0  0  0  0  0  0  0  0  0  0  0  0
  -30.7470  -19.1940   17.5690 C   0  0  0  0  0  1  0  0  0  0  0  0
  -29.8260  -21.9550   17.7370 C   0  0  0  0  0  1  0  0  0  0  0  0
  -29.3200  -16.3810   19.1040 C   0  0  0  0  0  2  0  0  0  0  0  0
  -30.3110  -17.2780   19.7920 C   0  0  0  0  0  3  0  0  0  0  0  0
  -29.8380  -15.9370   20.4520 C   0  0  0  0  0  3  0  0  0  0  0  0
  -30.6890  -14.6660   20.3240 C   0  0  0  0  0  0  0  0  0  0  0  0
  -30.4320  -12.4380   19.3010 C   0  0  0  0  0  2  0  0  0  0  0  0
  -29.4840  -12.6010   18.0920 C   0  0  0  0  0  2  0  0  0  0  0  0
  -28.0120  -12.4610   18.5300 C   0  0  0  0  0  2  0  0  0  0  0  0
  -27.6720  -13.3170   19.7780 C   0  0  0  0  0  3  0  0  0  0  0  0
  -28.7410  -13.1630   20.8820 C   0  0  0  0  0  2  0  0  0  0  0  0
  -30.0560  -13.4570   20.2970 N   0  0  0  0  0  0  0  0  0  0  0  0
  -31.8730  -14.7680   19.9910 O   0  0  0  0  0  0  0  0  0  0  0  0
  -25.2880  -13.9180   20.5250 C   0  0  0  0  0  0  0  0  0  0  0  0
  -24.2240  -13.1440   20.9020 C   0  0  0  0  0  0  0  0  0  0  0  0
  -24.6860  -11.7940   20.8650 C   0  0  0  0  0  0  0  0  0  0  0  0
  -26.3300  -13.0370   20.2790 N   0  0  0  0  0  0  0  0  0  0  0  0
  -25.9740  -11.7550   20.5450 N   0  0  0  0  0  0  0  0  0  0  0  0
  -23.9630  -10.5300   21.0590 C   0  0  0  0  0  0  0  0  0  0  0  0
  -24.4030   -9.5630   21.9890 C   0  0  0  0  0  3  0  0  0  0  0  0
  -23.6810   -8.3640   22.1710 C   0  0  0  0  0  3  0  0  0  0  0  0
  -22.5050   -8.1240   21.4210 C   0  0  0  0  0  0  0  0  0  0  0  0
  -22.0850   -9.0800   20.4780 C   0  0  0  0  0  3  0  0  0  0  0  0
  -22.8090  -10.2700   20.2960 C   0  0  0  0  0  3  0  0  0  0  0  0
  -21.7530   -6.9790   21.5120 O   0  0  0  0  0  0  0  0  0  0  0  0
  -21.7060   -6.2400   22.6670 C   0  0  0  0  0  0  0  0  0  0  0  0
  -21.2610   -6.7920   23.8890 C   0  0  0  0  0  3  0  0  0  0  0  0
  -21.1610   -5.9780   25.0340 C   0  0  0  0  0  3  0  0  0  0  0  0
  -21.4960   -4.6130   24.9610 C   0  0  0  0  0  0  0  0  0  0  0  0
  -21.9340   -4.0600   23.7450 C   0  0  0  0  0  3  0  0  0  0  0  0
  -22.0350   -4.8710   22.6000 C   0  0  0  0  0  0  0  0  0  0  0  0
  -22.4370   -4.3280   21.4260 F   0  0  0  0  0  0  0  0  0  0  0  0
  -21.3940   -3.8280   26.0590 F   0  0  0  0  0  0  0  0  0  0  0  0
  -22.8290  -13.6200   21.1880 C   0  0  0  0  0  0  0  0  0  0  0  0
  -22.1100  -12.9190   22.0560 N   0  0  0  0  0  0  0  0  0  0  0  0
  -22.3870  -14.6490   20.6780 O   0  0  0  0  0  0  0  0  0  0  0  0
  -22.4800  -12.0860   22.4900 H   0  0  0  0  0  0  0  0  0  0  0  0
  -21.1750  -13.2200   22.2940 H   0  0  0  0  0  0  0  0  0  0  0  0
  -25.4510  -15.2890   20.3500 N   0  0  0  0  0  0  0  0  0  0  0  0
  -24.6890  -15.9470   20.4780 H   0  0  0  0  0  0  0  0  0  0  0  0
  -26.3050  -15.7300   20.0340 H   0  0  0  0  0  0  0  0  0  0  0  0
  -28.1360  -22.8540   20.0560 C   0  0  0  0  0  2  0  0  0  0  0  0
  -28.9230  -24.1620   20.4310 C   0  0  0  0  0  2  0  0  0  0  0  0
  -28.6010  -25.4270   19.5500 C   0  0  0  0  0  2  0  0  0  0  0  0
  -28.4480  -26.7050   20.2380 O   0  0  0  0  0  0  0  0  0  0  0  0
  -24.5840  -31.9280   23.2530 C   0  0  0  0  0  0  0  0  0  0  0  0
  -27.2620  -27.4400   20.1930 C   0  0  0  0  0  0  0  0  0  0  0  0
  -23.3950  -30.5180   21.6100 C   0  0  0  0  0  3  0  0  0  0  0  0
  -24.8620  -28.9840   20.1950 C   0  0  0  0  0  0  0  0  0  0  0  0
  -25.9270  -30.8740   21.4280 C   0  0  0  0  0  2  0  0  0  0  0  0
  -26.0200  -29.5000   20.7860 C   0  0  0  0  0  0  0  0  0  0  0  0
  -27.2180  -28.7370   20.7780 C   0  0  0  0  0  3  0  0  0  0  0  0
  -26.0660  -26.9510   19.6120 C   0  0  0  0  0  3  0  0  0  0  0  0
  -24.8830  -27.7100   19.6070 C   0  0  0  0  0  3  0  0  0  0  0  0
  -23.6160  -29.8400   20.2320 C   0  0  0  0  0  2  0  0  0  0  0  0
  -24.6530  -31.1230   22.1550 N   0  0  0  0  0  0  0  0  0  0  0  0
  -23.4960  -32.1950   23.7850 O   0  0  0  0  0  0  0  0  0  0  0  0
  -22.7430  -29.4930   22.5680 C   0  0  0  0  0  0  0  0  0  0  0  0
  -21.4180  -29.3130   22.4440 N   0  0  0  0  0  0  0  0  0  0  0  0
  -23.4260  -28.8650   23.3810 O   0  0  0  0  0  0  0  0  0  0  0  0
  -20.9260  -29.8740   21.7630 H   0  0  0  0  0  0  0  0  0  0  0  0
  -18.0400  -28.1320   22.9620 C   0  0  0  0  0  0  0  0  0  0  0  0
  -20.6020  -28.3720   23.2130 C   0  0  0  0  0  3  0  0  0  0  0  0
  -20.6900  -26.9470   22.6230 C   0  0  0  0  0  2  0  0  0  0  0  0
  -19.5780  -26.6390   21.6150 C   0  0  0  0  0  2  0  0  0  0  0  0
  -18.2030  -26.7870   22.2730 C   0  0  0  0  0  2  0  0  0  0  0  0
  -19.1670  -28.8830   23.3900 C   0  0  0  0  0  0  0  0  0  0  0  0
  -18.9610  -30.1430   23.9920 C   0  0  0  0  0  3  0  0  0  0  0  0
  -17.6610  -30.6510   24.1730 C   0  0  0  0  0  3  0  0  0  0  0  0
  -16.5480  -29.8960   23.7640 C   0  0  0  0  0  3  0  0  0  0  0  0
  -16.7400  -28.6380   23.1640 C   0  0  0  0  0  3  0  0  0  0  0  0
  -25.8600  -32.5690   23.8790 C   0  0  0  0  0  3  0  0  0  0  0  0
  -26.3650  -31.8180   25.1730 C   0  0  1  0  0  0  0  0  0  0  0  0
  -25.2610  -31.5920   26.2320 C   0  0  0  0  0  1  0  0  0  0  0  0
  -26.9550  -30.4360   24.8070 C   0  0  0  0  0  1  0  0  0  0  0  0
  -27.5080  -32.6230   25.8350 C   0  0  0  0  0  1  0  0  0  0  0  0
  -25.5470  -33.9710   24.1840 N   0  0  0  0  0  0  0  0  0  0  0  0
  -25.8900  -35.0130   23.4140 C   0  0  0  0  0  0  0  0  0  0  0  0
  -26.5730  -34.8940   22.3930 O   0  0  0  0  0  0  0  0  0  0  0  0
  -24.9420  -34.1370   24.9740 H   0  0  0  0  0  0  0  0  0  0  0  0
  -24.1720  -36.8050   23.0050 C   0  0  0  0  0  1  0  0  0  0  0  0
  -25.3970  -36.4080   23.8450 C   0  0  0  0  0  3  0  0  0  0  0  0
  -27.5130  -37.3020   24.7120 C   0  0  0  0  0  1  0  0  0  0  0  0
  -26.4330  -37.4570   23.7410 N   0  0  0  0  0  0  0  0  0  0  0  0
  -26.0260  -38.3810   23.8640 H   0  0  0  0  0  0  0  0  0  0  0  0
  1  2  1  0
  3  1  2  0
  4 48  1  0
  4  2  2  0
  5  6  2  0
  5  3  1  0
  6  4  1  0
  7  5  1  0
  8  6  1  0
  9 10  1  0
  9 11  1  0
 10  3  1  0
 10 11  1  0
 11 12  1  0
 13 18  1  0
 14 15  1  0
 14 13  1  0
 16 15  1  0
 16 23  1  0
 16 17  1  0
 18 12  1  0
 18 17  1  0
 19 12  2  0
 20 21  2  0
 21 40  1  0
 22 21  1  0
 22 25  1  0
 23 20  1  0
 23 24  1  0
 24 22  2  0
 25 26  1  0
 26 27  2  0
 28 31  1  0
 28 27  1  0
 29 28  2  0
 30 29  1  0
 30 25  2  0
 31 32  1  0
 32 33  1  0
 33 34  2  0
 35 34  1  0
 35 39  1  0
 36 35  2  0
 37 32  2  0
 37 36  1  0
 38 37  1  0
 40 41  1  0
 41 44  1  0
 41 43  1  0
 42 40  2  0
 45 46  1  0
 45 20  1  0
 47 45  1  0
 48 49  1  0
 50 51  1  0
 50 49  1  0
 52 63  2  0
 53 51  1  0
 53 58  1  0
 54 62  1  0
 54 64  1  0
 55 61  1  0
 55 57  1  0
 56 62  1  0
 57 56  1  0
 58 57  2  0
 59 53  2  0
 60 59  1  0
 60 55  2  0
 61 54  1  0
 62 52  1  0
 64 66  2  0
 65 64  1  0
 67 65  1  0
 68 77  2  0
 68 73  1  0
 69 65  1  0
 69 73  1  0
 70 69  1  0
 71 72  1  0
 71 70  1  0
 72 68  1  0
 73 74  2  0
 74 75  1  0
 76 75  2  0
 77 76  1  0
 78 52  1  0
 78 83  1  0
 78 79  1  0
 79 82  1  1
 79 80  1  0
 81 79  1  0
 83 86  1  0
 84 88  1  0
 84 83  1  0
 85 84  2  0
 88 87  1  0
 90 88  1  0
 90 91  1  0
 90 89  1  0
M  ISO  4  11 100  12 100  50 101  51 101
M  END
>  <TORSDO>  (39) 
F 20

>  <SCORE>  (39) 
-13.590

>  <name>  (39) 
38

>  <ligand_id>  (39) 
38

>  <original_smiles>  (39) 
[H]c1c([H])c([H])c2c(c1[H])C([H])([H])C([H])([H])C([H])([H])C2([H])N([H])C(=O)C1([H])N(C(=O)C([H])(N([H])C(=O)C([H])(N([H])C([H])([H])[H])C([H])([H])[H])C(C([H])([H])[H])(C([H])([H])[H])C([H])([H])[H])C([H])([H])c2c([H])c(OC([H])([H])C([H])([H])C([H])([H])c3c([H])c([H])c(C4([H])C([H])([H])C4([H])C(=O)N4C([H])([H])C([H])([H])C([H])([H])C([H])(n5nc(-c6c([H])c([H])c(Oc7c([H])c([H])c(F)c([H])c7F)c([H])c6[H])c(C(=O)N([H])[H])c5N([H])[H])C4([H])[H])c(C([H])([H])[H])c3C([H])([H])[H])c([H])c([H])c2C1([H])[H]

>  <smiles>  (39) 
[H]c1c([H])c([H])c2c(c1[H])C([H])([H])C([H])([H])C([H])([H])C2([H])N([H])C(=O)C1([H])N(C(=O)C([H])(N([H])C(=O)C([H])(N([H])C([H])([H])[H])C([H])([H])[H])C(C([H])([H])[H])(C([H])([H])[H])C([H])([H])[H])C([H])([H])c2c([H])c(OC([H])([H])C([H])([H])C([H])([H])c3c([H])c([H])c(C4([H])C([H])([H])C4([H])C(=O)N4C([H])([H])C([H])([H])C([H])([H])C([H])(n5nc(-c6c([H])c([H])c(Oc7c([H])c([H])c(F)c([H])c7F)c([H])c6[H])c(C(=O)N([H])[H])c5N([H])[H])C4([H])[H])c(C([H])([H])[H])c3C([H])([H])[H])c([H])c([H])c2C1([H])[H]

$$$$
39:0:0
     RDKit          3D

 96105  0  0  1  0  0  0  0  0999 V2000
  -30.5740  -22.3930   19.3080 N   0  0  0  0  0  4  0  0  0  0  0  0
  -30.2820  -21.7980   18.5520 H   0  0  0  0  0  0  0  0  0  0  0  0
  -29.7800  -22.5590   19.9050 H   0  0  0  0  0  0  0  0  0  0  0  0
  -30.5160  -25.4660   17.2140 C   0  0  0  0  0  2  0  0  0  0  0  0
  -30.4050  -23.9490   17.3530 C   0  0  0  0  0  2  0  0  0  0  0  0
  -30.6170  -24.8900   19.5900 C   0  0  0  0  0  2  0  0  0  0  0  0
  -30.1760  -25.9980   18.6130 C   0  0  0  0  0  3  0  0  0  0  0  0
  -31.0160  -23.6790   18.7300 C   0  0  0  0  0  3  0  0  0  0  0  0
  -28.6770  -26.3010   18.7270 C   0  0  0  0  0  2  0  0  0  0  0  0
  -28.3960  -26.8660   20.0010 O   0  0  0  0  0  0  0  0  0  0  0  0
  -24.5510  -31.9010   23.2250 C   0  0  0  0  0  0  0  0  0  0  0  0
  -27.1930  -27.5220   20.0800 C   0  0  0  0  0  0  0  0  0  0  0  0
  -23.3320  -30.5000   21.5910 C   0  0  0  0  0  3  0  0  0  0  0  0
  -24.7780  -28.9690   20.1590 C   0  0  0  0  0  0  0  0  0  0  0  0
  -25.8520  -30.8710   21.3740 C   0  0  0  0  0  2  0  0  0  0  0  0
  -25.9360  -29.5040   20.7350 C   0  0  0  0  0  0  0  0  0  0  0  0
  -27.1460  -28.7830   20.7050 C   0  0  0  0  0  3  0  0  0  0  0  0
  -26.0110  -26.9690   19.5370 C   0  0  0  0  0  3  0  0  0  0  0  0
  -24.8030  -27.6890   19.5780 C   0  0  0  0  0  3  0  0  0  0  0  0
  -23.5300  -29.8200   20.2110 C   0  0  0  0  0  2  0  0  0  0  0  0
  -24.5970  -31.1060   22.1190 N   0  0  0  0  0  0  0  0  0  0  0  0
  -23.4720  -32.1710   23.7730 O   0  0  0  0  0  0  0  0  0  0  0  0
  -22.6950  -29.4730   22.5530 C   0  0  0  0  0  0  0  0  0  0  0  0
  -21.3720  -29.2900   22.4350 N   0  0  0  0  0  0  0  0  0  0  0  0
  -23.3880  -28.8450   23.3590 O   0  0  0  0  0  0  0  0  0  0  0  0
  -20.8740  -29.8460   21.7540 H   0  0  0  0  0  0  0  0  0  0  0  0
  -17.9990  -28.1080   22.9360 C   0  0  0  0  0  0  0  0  0  0  0  0
  -20.5570  -28.3470   23.1980 C   0  0  0  0  0  3  0  0  0  0  0  0
  -20.6500  -26.9240   22.6020 C   0  0  0  0  0  2  0  0  0  0  0  0
  -19.5370  -26.6180   21.5940 C   0  0  0  0  0  2  0  0  0  0  0  0
  -18.1620  -26.7640   22.2490 C   0  0  0  0  0  2  0  0  0  0  0  0
  -19.1230  -28.8600   23.3670 C   0  0  0  0  0  0  0  0  0  0  0  0
  -18.9150  -30.1230   23.9660 C   0  0  0  0  0  3  0  0  0  0  0  0
  -17.6120  -30.6270   24.1480 C   0  0  0  0  0  3  0  0  0  0  0  0
  -16.5010  -29.8670   23.7420 C   0  0  0  0  0  3  0  0  0  0  0  0
  -16.6960  -28.6120   23.1360 C   0  0  0  0  0  3  0  0  0  0  0  0
  -25.8400  -32.5270   23.8420 C   0  0  0  0  0  3  0  0  0  0  0  0
  -25.5350  -33.9260   24.1660 N   0  0  0  0  0  0  0  0  0  0  0  0
  -25.8820  -34.9770   23.4130 C   0  0  0  0  0  0  0  0  0  0  0  0
  -26.5630  -34.8740   22.3890 O   0  0  0  0  0  0  0  0  0  0  0  0
  -24.9300  -34.0880   24.9570 H   0  0  0  0  0  0  0  0  0  0  0  0
  -24.1700  -36.7800   23.0510 C   0  0  0  0  0  1  0  0  0  0  0  0
  -25.3980  -36.3640   23.8710 C   0  0  0  0  0  3  0  0  0  0  0  0
  -27.5310  -37.2330   24.7250 C   0  0  0  0  0  1  0  0  0  0  0  0
  -26.4360  -37.4110   23.7740 N   0  0  0  0  0  0  0  0  0  0  0  0
  -26.0340  -38.3300   23.9250 H   0  0  0  0  0  0  0  0  0  0  0  0
  -26.3640  -31.7540   25.1160 C   0  0  1  0  0  0  0  0  0  0  0  0
  -25.2780  -31.5220   26.1940 C   0  0  0  0  0  1  0  0  0  0  0  0
  -26.9440  -30.3750   24.7200 C   0  0  0  0  0  1  0  0  0  0  0  0
  -27.5150  -32.5500   25.7730 C   0  0  0  0  0  1  0  0  0  0  0  0
  -31.6310  -21.6840   20.0580 C   0  0  0  0  0  2  0  0  0  0  0  0
  -30.0340  -18.1410   20.7420 C   0  0  0  0  0  2  0  0  0  0  0  0
  -31.9430  -18.5380   22.3290 C   0  0  0  0  0  2  0  0  0  0  0  0
  -30.4230  -19.4000   19.9430 C   0  0  0  0  0  2  0  0  0  0  0  0
  -32.3260  -19.8100   21.5630 C   0  0  0  0  0  2  0  0  0  0  0  0
  -31.2670  -17.5030   21.4120 C   0  0  0  0  0  3  0  0  0  0  0  0
  -31.1260  -20.4490   20.8360 C   0  0  0  0  0  3  0  0  0  0  0  0
  -30.9480  -16.2210   22.2100 C   0  0  0  0  0  2  0  0  0  0  0  0
  -30.7430  -14.4250   20.4580 C   0  0  0  0  0  0  0  0  0  0  0  0
  -30.3640  -12.3970   19.0980 C   0  0  0  0  0  2  0  0  0  0  0  0
  -29.3920  -12.6520   17.9310 C   0  0  0  0  0  2  0  0  0  0  0  0
  -27.9300  -12.4960   18.3880 C   0  0  0  0  0  2  0  0  0  0  0  0
  -27.6240  -13.2910   19.6830 C   0  0  0  0  0  3  0  0  0  0  0  0
  -28.6870  -12.9920   20.7590 C   0  0  0  0  0  2  0  0  0  0  0  0
  -30.0120  -13.3100   20.1950 N   0  0  0  0  0  0  0  0  0  0  0  0
  -31.7840  -14.7140   19.8610 O   0  0  0  0  0  0  0  0  0  0  0  0
  -30.2580  -15.1750   21.4580 N   0  0  0  0  0  0  0  0  0  0  0  0
  -29.3730  -14.8720   21.8360 H   0  0  0  0  0  0  0  0  0  0  0  0
  -25.2270  -13.8970   20.4110 C   0  0  0  0  0  0  0  0  0  0  0  0
  -24.1660  -13.1240   20.7950 C   0  0  0  0  0  0  0  0  0  0  0  0
  -24.6310  -11.7730   20.7690 C   0  0  0  0  0  0  0  0  0  0  0  0
  -26.2730  -13.0200   20.1740 N   0  0  0  0  0  0  0  0  0  0  0  0
  -25.9180  -11.7370   20.4450 N   0  0  0  0  0  0  0  0  0  0  0  0
  -23.9140  -10.5090   20.9730 C   0  0  0  0  0  0  0  0  0  0  0  0
  -24.3570   -9.5530   21.9140 C   0  0  0  0  0  3  0  0  0  0  0  0
  -23.6390   -8.3520   22.1040 C   0  0  0  0  0  3  0  0  0  0  0  0
  -22.4650   -8.1000   21.3550 C   0  0  0  0  0  0  0  0  0  0  0  0
  -22.0410   -9.0450   20.4040 C   0  0  0  0  0  3  0  0  0  0  0  0
  -22.7590  -10.2370   20.2110 C   0  0  0  0  0  3  0  0  0  0  0  0
  -21.7180   -6.9510   21.4560 O   0  0  0  0  0  0  0  0  0  0  0  0
  -21.6790   -6.2170   22.6150 C   0  0  0  0  0  0  0  0  0  0  0  0
  -21.2650   -6.7830   23.8420 C   0  0  0  0  0  3  0  0  0  0  0  0
  -21.1720   -5.9750   24.9920 C   0  0  0  0  0  3  0  0  0  0  0  0
  -21.4850   -4.6050   24.9190 C   0  0  0  0  0  0  0  0  0  0  0  0
  -21.8920   -4.0380   23.6970 C   0  0  0  0  0  3  0  0  0  0  0  0
  -21.9860   -4.8430   22.5480 C   0  0  0  0  0  0  0  0  0  0  0  0
  -22.3580   -4.2900   21.3690 F   0  0  0  0  0  0  0  0  0  0  0  0
  -21.3890   -3.8270   26.0230 F   0  0  0  0  0  0  0  0  0  0  0  0
  -22.7690  -13.5960   21.0820 C   0  0  0  0  0  0  0  0  0  0  0  0
  -22.0510  -12.9000   21.9560 N   0  0  0  0  0  0  0  0  0  0  0  0
  -22.3220  -14.6190   20.5640 O   0  0  0  0  0  0  0  0  0  0  0  0
  -22.4230  -12.0720   22.3990 H   0  0  0  0  0  0  0  0  0  0  0  0
  -21.1140  -13.1990   22.1870 H   0  0  0  0  0  0  0  0  0  0  0  0
  -25.3860  -15.2680   20.2240 N   0  0  0  0  0  0  0  0  0  0  0  0
  -24.6250  -15.9270   20.3460 H   0  0  0  0  0  0  0  0  0  0  0  0
  -26.2400  -15.7060   19.9020 H   0  0  0  0  0  0  0  0  0  0  0  0
  1  3  1  0
  1 51  1  0
  2  1  1  0
  4  5  1  0
  4  7  1  0
  5  8  1  0
  7  9  1  0
  7  6  1  0
  8  1  1  0
  8  6  1  0
  9 10  1  0
 10 12  1  0
 11 22  2  0
 12 17  1  0
 13 21  1  0
 13 23  1  0
 14 20  1  0
 14 16  1  0
 15 21  1  0
 16 15  1  0
 17 16  2  0
 18 19  1  0
 18 12  2  0
 19 14  2  0
 20 13  1  0
 21 11  1  0
 23 25  2  0
 24 23  1  0
 26 24  1  0
 27 36  2  0
 27 32  1  0
 28 24  1  0
 28 32  1  0
 29 28  1  0
 30 31  1  0
 30 29  1  0
 31 27  1  0
 32 33  2  0
 33 34  1  0
 35 34  2  0
 36 35  1  0
 37 11  1  0
 37 38  1  0
 37 47  1  0
 38 41  1  0
 39 43  1  0
 39 38  1  0
 40 39  2  0
 43 42  1  0
 45 43  1  0
 45 46  1  0
 45 44  1  0
 47 50  1  1
 47 48  1  0
 49 47  1  0
 52 56  1  0
 54 52  1  0
 54 57  1  0
 55 53  1  0
 56 58  1  0
 56 53  1  0
 57 51  1  0
 57 55  1  0
 59 67  1  0
 60 65  1  0
 61 62  1  0
 61 60  1  0
 63 62  1  0
 63 72  1  0
 63 64  1  0
 65 59  1  0
 65 64  1  0
 66 59  2  0
 67 68  1  0
 67 58  1  0
 69 70  2  0
 70 89  1  0
 71 70  1  0
 71 74  1  0
 72 69  1  0
 72 73  1  0
 73 71  2  0
 74 75  1  0
 75 76  2  0
 77 80  1  0
 77 76  1  0
 78 77  2  0
 79 78  1  0
 79 74  2  0
 80 81  1  0
 81 82  1  0
 82 83  2  0
 84 83  1  0
 84 88  1  0
 85 84  2  0
 86 81  2  0
 86 85  1  0
 87 86  1  0
 89 90  1  0
 90 93  1  0
 90 92  1  0
 91 89  2  0
 94 95  1  0
 94 69  1  0
 96 94  1  0
M  ISO  4   9 101  10 101  59 100  67 100
M  END
>  <TORSDO>  (40) 
F 21

>  <SCORE>  (40) 
-13.216

>  <name>  (40) 
39

>  <ligand_id>  (40) 
39

>  <original_smiles>  (40) 
[H]c1c([H])c([H])c2c(c1[H])C([H])([H])C([H])([H])C([H])([H])C2([H])N([H])C(=O)C1([H])N(C(=O)C([H])(N([H])C(=O)C([H])(N([H])C([H])([H])[H])C([H])([H])[H])C(C([H])([H])[H])(C([H])([H])[H])C([H])([H])[H])C([H])([H])c2c([H])c(OC([H])([H])C3([H])C([H])([H])C([H])([H])C([H])([N+]([H])([H])C([H])([H])C4([H])C([H])([H])C([H])([H])C([H])(C([H])([H])N([H])C(=O)N5C([H])([H])C([H])([H])C([H])([H])C([H])(n6nc(-c7c([H])c([H])c(Oc8c([H])c([H])c(F)c([H])c8F)c([H])c7[H])c(C(=O)N([H])[H])c6N([H])[H])C5([H])[H])C([H])([H])C4([H])[H])C3([H])[H])c([H])c([H])c2C1([H])[H]

>  <smiles>  (40) 
[H]c1c([H])c([H])c2c(c1[H])C([H])([H])C([H])([H])C([H])([H])C2([H])N([H])C(=O)C1([H])N(C(=O)C([H])(N([H])C(=O)C([H])(N([H])C([H])([H])[H])C([H])([H])[H])C(C([H])([H])[H])(C([H])([H])[H])C([H])([H])[H])C([H])([H])c2c([H])c(OC([H])([H])C3([H])C([H])([H])C([H])([H])C([H])([N+]([H])([H])C([H])([H])C4([H])C([H])([H])C([H])([H])C([H])(C([H])([H])N([H])C(=O)N5C([H])([H])C([H])([H])C([H])([H])C([H])(n6nc(-c7c([H])c([H])c(Oc8c([H])c([H])c(F)c([H])c8F)c([H])c7[H])c(C(=O)N([H])[H])c6N([H])[H])C5([H])[H])C([H])([H])C4([H])[H])C3([H])[H])c([H])c([H])c2C1([H])[H]

$$$$
40:0:0
     RDKit          3D

 96106  0  0  1  0  0  0  0  0999 V2000
  -31.5530  -19.9660   18.5350 C   0  0  0  0  0  3  0  0  0  0  0  0
  -31.3030  -21.1320   17.7350 C   0  0  0  0  0  3  0  0  0  0  0  0
  -29.1680  -20.2530   17.0970 C   0  0  0  0  0  3  0  0  0  0  0  0
  -30.6150  -18.8970   18.6280 C   0  0  0  0  0  0  0  0  0  0  0  0
  -30.0970  -21.3100   16.9930 C   0  0  0  0  0  0  0  0  0  0  0  0
  -29.4090  -19.0850   17.8790 C   0  0  0  0  0  0  0  0  0  0  0  0
  -28.3120  -18.0320   17.8850 C   0  0  0  0  0  1  0  0  0  0  0  0
  -31.9230  -15.3140   18.9240 C   0  0  0  0  0  0  0  0  0  0  0  0
  -31.5000  -12.8950   18.5090 C   0  0  0  0  0  2  0  0  0  0  0  0
  -30.5080  -12.7210   17.3430 C   0  0  0  0  0  2  0  0  0  0  0  0
  -29.0670  -12.7170   17.8790 C   0  0  0  0  0  2  0  0  0  0  0  0
  -28.7900  -13.9050   18.8370 C   0  0  0  0  0  3  0  0  0  0  0  0
  -29.9090  -14.0770   19.8950 C   0  0  0  0  0  2  0  0  0  0  0  0
  -31.2000  -14.1750   19.1950 N   0  0  0  0  0  0  0  0  0  0  0  0
  -32.9420  -15.2580   18.2330 O   0  0  0  0  0  0  0  0  0  0  0  0
  -32.1720  -16.7190   20.9350 C   0  0  0  0  0  2  0  0  0  0  0  0
  -30.7270  -17.6680   19.6300 C   0  0  0  0  0  3  0  0  0  0  0  0
  -31.5720  -18.1070   20.8400 C   0  0  0  0  0  3  0  0  0  0  0  0
  -31.6740  -16.4850   19.5860 N   0  0  0  0  0  0  0  0  0  0  0  0
  -26.5800  -14.8010   19.7880 C   0  0  0  0  0  0  0  0  0  0  0  0
  -25.4620  -14.1740   20.2670 C   0  0  0  0  0  0  0  0  0  0  0  0
  -25.7330  -12.7730   20.1910 C   0  0  0  0  0  0  0  0  0  0  0  0
  -27.4710  -13.7940   19.4540 N   0  0  0  0  0  0  0  0  0  0  0  0
  -26.9710  -12.5660   19.7560 N   0  0  0  0  0  0  0  0  0  0  0  0
  -24.8630  -11.6180   20.4560 C   0  0  0  0  0  0  0  0  0  0  0  0
  -25.2130  -10.6320   21.4040 C   0  0  0  0  0  3  0  0  0  0  0  0
  -24.3510   -9.5420   21.6550 C   0  0  0  0  0  3  0  0  0  0  0  0
  -23.1240   -9.4330   20.9590 C   0  0  0  0  0  0  0  0  0  0  0  0
  -22.7910  -10.4070   20.0010 C   0  0  0  0  0  3  0  0  0  0  0  0
  -23.6520  -11.4870   19.7480 C   0  0  0  0  0  3  0  0  0  0  0  0
  -22.2350   -8.3980   21.1190 O   0  0  0  0  0  0  0  0  0  0  0  0
  -22.1160   -7.7290   22.3100 C   0  0  0  0  0  0  0  0  0  0  0  0
  -21.7260   -8.3880   23.4980 C   0  0  0  0  0  3  0  0  0  0  0  0
  -21.5470   -7.6490   24.6850 C   0  0  0  0  0  3  0  0  0  0  0  0
  -21.7480   -6.2560   24.6850 C   0  0  0  0  0  0  0  0  0  0  0  0
  -22.1300   -5.5990   23.5040 C   0  0  0  0  0  3  0  0  0  0  0  0
  -22.3100   -6.3340   22.3190 C   0  0  0  0  0  0  0  0  0  0  0  0
  -22.6580   -5.6930   21.1770 F   0  0  0  0  0  0  0  0  0  0  0  0
  -21.5680   -5.5470   25.8240 F   0  0  0  0  0  0  0  0  0  0  0  0
  -24.1770  -14.8320   20.6770 C   0  0  0  0  0  0  0  0  0  0  0  0
  -23.4570  -14.2340   21.6190 N   0  0  0  0  0  0  0  0  0  0  0  0
  -23.8300  -15.9120   20.1980 O   0  0  0  0  0  0  0  0  0  0  0  0
  -23.7520  -13.3580   22.0240 H   0  0  0  0  0  0  0  0  0  0  0  0
  -22.5980  -14.6580   21.9410 H   0  0  0  0  0  0  0  0  0  0  0  0
  -26.9030  -16.1390   19.5830 N   0  0  0  0  0  0  0  0  0  0  0  0
  -26.2230  -16.8760   19.7340 H   0  0  0  0  0  0  0  0  0  0  0  0
  -27.7370  -16.4590   19.1080 H   0  0  0  0  0  0  0  0  0  0  0  0
  -30.0610  -19.9620   21.9120 C   0  0  0  0  0  2  0  0  0  0  0  0
  -30.9640  -18.7640   22.0650 C   0  0  0  0  0  3  0  0  0  0  0  0
  -31.4240  -20.1260   22.5580 C   0  0  1  0  0  0  0  0  0  0  0  0
  -32.5390  -20.8590   21.8250 C   0  0  0  0  0  1  0  0  0  0  0  0
  -31.4990  -20.3890   24.0510 C   0  0  0  0  0  1  0  0  0  0  0  0
  -29.8770  -22.4490   15.9210 C   0  0  0  0  0  2  0  0  0  0  0  0
  -29.8460  -24.0170   16.2410 C   0  0  0  0  0  2  0  0  0  0  0  0
  -28.6130  -24.8060   15.5880 C   0  0  0  0  0  2  0  0  0  0  0  0
  -28.4180  -26.2810   15.6760 O   0  0  0  0  0  0  0  0  0  0  0  0
  -24.8310  -29.0060   21.3290 C   0  0  0  0  0  0  0  0  0  0  0  0
  -27.2000  -26.7820   16.1820 C   0  0  0  0  0  0  0  0  0  0  0  0
  -23.4640  -28.0350   19.5150 C   0  0  0  0  0  3  0  0  0  0  0  0
  -24.6880  -27.5850   17.3140 C   0  0  0  0  0  0  0  0  0  0  0  0
  -25.7530  -29.0770   19.0010 C   0  0  0  0  0  2  0  0  0  0  0  0
  -25.8810  -28.1120   17.8270 C   0  0  0  0  0  0  0  0  0  0  0  0
  -27.1330  -27.7220   17.2600 C   0  0  0  0  0  3  0  0  0  0  0  0
  -25.9620  -26.3300   15.6630 C   0  0  0  0  0  3  0  0  0  0  0  0
  -24.7280  -26.7010   16.2290 C   0  0  0  0  0  3  0  0  0  0  0  0
  -23.3870  -28.0050   17.9660 C   0  0  0  0  0  2  0  0  0  0  0  0
  -24.7140  -28.7060   20.0020 N   0  0  0  0  0  0  0  0  0  0  0  0
  -23.9160  -28.7610   22.1290 O   0  0  0  0  0  0  0  0  0  0  0  0
  -23.2910  -26.5960   20.0580 C   0  0  0  0  0  0  0  0  0  0  0  0
  -22.0460  -26.0890   20.0450 N   0  0  0  0  0  0  0  0  0  0  0  0
  -24.2650  -25.9540   20.4560 O   0  0  0  0  0  0  0  0  0  0  0  0
  -21.2960  -26.6840   19.7210 H   0  0  0  0  0  0  0  0  0  0  0  0
  -19.2550  -23.8060   20.3420 C   0  0  0  0  0  0  0  0  0  0  0  0
  -21.6620  -24.7420   20.4720 C   0  0  0  0  0  3  0  0  0  0  0  0
  -22.0190  -23.6940   19.3920 C   0  0  0  0  0  2  0  0  0  0  0  0
  -20.8650  -23.4030   18.4280 C   0  0  0  0  0  2  0  0  0  0  0  0
  -19.6410  -22.8880   19.1940 C   0  0  0  0  0  2  0  0  0  0  0  0
  -20.2000  -24.6870   20.9300 C   0  0  0  0  0  0  0  0  0  0  0  0
  -19.7830  -25.5450   21.9710 C   0  0  0  0  0  3  0  0  0  0  0  0
  -18.4520  -25.5300   22.4260 C   0  0  0  0  0  3  0  0  0  0  0  0
  -17.5250  -24.6430   21.8540 C   0  0  0  0  0  3  0  0  0  0  0  0
  -17.9270  -23.7820   20.8170 C   0  0  0  0  0  3  0  0  0  0  0  0
  -26.1090  -29.6940   21.9000 C   0  0  0  0  0  3  0  0  0  0  0  0
  -27.1870  -28.6660   22.4220 C   0  0  1  0  0  0  0  0  0  0  0  0
  -26.6210  -27.6240   23.4150 C   0  0  0  0  0  1  0  0  0  0  0  0
  -27.8280  -27.9000   21.2440 C   0  0  0  0  0  1  0  0  0  0  0  0
  -28.3340  -29.4260   23.1300 C   0  0  0  0  0  1  0  0  0  0  0  0
  -25.6860  -30.5900   22.9860 N   0  0  0  0  0  0  0  0  0  0  0  0
  -25.6930  -31.9280   22.9170 C   0  0  0  0  0  0  0  0  0  0  0  0
  -26.1280  -32.5460   21.9420 O   0  0  0  0  0  0  0  0  0  0  0  0
  -25.2780  -30.1550   23.8010 H   0  0  0  0  0  0  0  0  0  0  0  0
  -23.7150  -33.2100   23.7940 C   0  0  0  0  0  1  0  0  0  0  0  0
  -25.1280  -32.7040   24.1230 C   0  0  0  0  0  3  0  0  0  0  0  0
  -27.2470  -33.4260   25.1290 C   0  0  0  0  0  1  0  0  0  0  0  0
  -25.9750  -33.8410   24.5430 N   0  0  0  0  0  0  0  0  0  0  0  0
  -25.4900  -34.4190   25.2220 H   0  0  0  0  0  0  0  0  0  0  0  0
  1  4  1  0
  2  1  2  0
  3  6  1  0
  5  3  2  0
  5  2  1  0
  6  7  1  0
  6  4  2  0
  8 14  1  0
  8 19  1  0
  9 14  1  0
 10 11  1  0
 10  9  1  0
 12 11  1  0
 12 23  1  0
 12 13  1  0
 14 13  1  0
 15  8  2  0
 17  4  1  0
 17 18  1  0
 18 16  1  0
 18 49  1  0
 19 17  1  0
 19 16  1  0
 20 21  2  0
 21 40  1  0
 22 21  1  0
 22 25  1  0
 23 24  1  0
 23 20  1  0
 24 22  2  0
 25 26  1  0
 26 27  2  0
 28 31  1  0
 28 27  1  0
 29 28  2  0
 30 29  1  0
 30 25  2  0
 31 32  1  0
 32 37  2  0
 32 33  1  0
 33 34  2  0
 34 35  1  0
 35 39  1  0
 36 35  2  0
 37 36  1  0
 38 37  1  0
 40 41  1  0
 41 44  1  0
 41 43  1  0
 42 40  2  0
 45 46  1  0
 45 20  1  0
 47 45  1  0
 48 50  1  0
 49 48  1  0
 49 50  1  0
 50 52  1  1
 51 50  1  0
 53 54  1  0
 53  5  1  0
 55 56  1  0
 55 54  1  0
 56 58  1  0
 57 68  2  0
 58 63  1  0
 59 67  1  0
 59 69  1  0
 60 62  1  0
 60 66  1  0
 61 67  1  0
 62 61  1  0
 63 62  2  0
 64 58  2  0
 64 65  1  0
 65 60  2  0
 66 59  1  0
 67 57  1  0
 69 71  2  0
 70 69  1  0
 72 70  1  0
 73 82  2  0
 73 78  1  0
 74 70  1  0
 74 78  1  0
 75 74  1  0
 76 77  1  0
 76 75  1  0
 77 73  1  0
 78 79  2  0
 79 80  1  0
 81 80  2  0
 82 81  1  0
 83 57  1  0
 83 84  1  0
 83 88  1  0
 84 87  1  1
 84 85  1  0
 86 84  1  0
 88 91  1  0
 89 88  1  0
 89 93  1  0
 90 89  2  0
 93 92  1  0
 93 95  1  0
 95 94  1  0
 95 96  1  0
M  ISO  4   8 100  19 100  55 101  56 101
M  END
>  <TORSDO>  (41) 
F 20

>  <SCORE>  (41) 
-7.131

>  <name>  (41) 
40

>  <ligand_id>  (41) 
40

>  <original_smiles>  (41) 
[H]c1c([H])c([H])c2c(c1[H])C([H])([H])C([H])([H])C([H])([H])C2([H])N([H])C(=O)C1([H])N(C(=O)C([H])(N([H])C(=O)C([H])(N([H])C([H])([H])[H])C([H])([H])[H])C(C([H])([H])[H])(C([H])([H])[H])C([H])([H])[H])C([H])([H])c2c([H])c(OC([H])([H])C([H])([H])C([H])([H])c3c([H])c([H])c(C4([H])N(C(=O)N5C([H])([H])C([H])([H])C([H])([H])C([H])(n6nc(-c7c([H])c([H])c(Oc8c([H])c([H])c(F)c([H])c8F)c([H])c7[H])c(C(=O)N([H])[H])c6N([H])[H])C5([H])[H])C([H])([H])C4([H])C4([H])C([H])([H])C4(C([H])([H])[H])C([H])([H])[H])c(C([H])([H])[H])c3[H])c([H])c([H])c2C1([H])[H]

>  <smiles>  (41) 
[H]c1c([H])c([H])c2c(c1[H])C([H])([H])C([H])([H])C([H])([H])C2([H])N([H])C(=O)C1([H])N(C(=O)C([H])(N([H])C(=O)C([H])(N([H])C([H])([H])[H])C([H])([H])[H])C(C([H])([H])[H])(C([H])([H])[H])C([H])([H])[H])C([H])([H])c2c([H])c(OC([H])([H])C([H])([H])C([H])([H])c3c([H])c([H])c(C4([H])N(C(=O)N5C([H])([H])C([H])([H])C([H])([H])C([H])(n6nc(-c7c([H])c([H])c(Oc8c([H])c([H])c(F)c([H])c8F)c([H])c7[H])c(C(=O)N([H])[H])c6N([H])[H])C5([H])[H])C([H])([H])C4([H])C4([H])C([H])([H])C4(C([H])([H])[H])C([H])([H])[H])c(C([H])([H])[H])c3[H])c([H])c([H])c2C1([H])[H]

$$$$
41:0:0
     RDKit          3D

 92101  0  0  1  0  0  0  0  0999 V2000
  -30.7180  -19.0390   20.2110 C   0  0  0  0  0  3  0  0  0  0  0  0
  -30.6330  -20.4700   20.1480 C   0  0  0  0  0  3  0  0  0  0  0  0
  -28.3250  -18.9340   20.0600 C   0  0  0  0  0  3  0  0  0  0  0  0
  -29.5510  -18.2350   20.2000 C   0  0  0  0  0  0  0  0  0  0  0  0
  -29.3910  -21.1720   20.0780 C   0  0  0  0  0  0  0  0  0  0  0  0
  -28.2280  -20.3560   20.0210 C   0  0  0  0  0  0  0  0  0  0  0  0
  -26.8410  -20.9770   20.0020 C   0  0  0  0  0  1  0  0  0  0  0  0
  -31.0920  -14.6850   19.6120 C   0  0  0  0  0  0  0  0  0  0  0  0
  -30.6850  -12.4860   18.5060 C   0  0  0  0  0  2  0  0  0  0  0  0
  -29.6170  -12.6190   17.3980 C   0  0  0  0  0  2  0  0  0  0  0  0
  -28.1970  -12.4770   17.9820 C   0  0  0  0  0  2  0  0  0  0  0  0
  -27.9910  -13.3350   19.2570 C   0  0  0  0  0  3  0  0  0  0  0  0
  -29.1600  -13.1460   20.2470 C   0  0  0  0  0  2  0  0  0  0  0  0
  -30.3990  -13.5000   19.5460 N   0  0  0  0  0  0  0  0  0  0  0  0
  -32.1510  -14.8200   18.9880 O   0  0  0  0  0  0  0  0  0  0  0  0
  -29.4300  -16.3490   21.9260 C   0  0  0  0  0  2  0  0  0  0  0  0
  -30.8750  -15.8620   21.8320 C   0  0  0  0  0  2  0  0  0  0  0  0
  -29.4780  -16.6760   20.4280 C   0  0  0  0  0  3  0  0  0  0  0  0
  -30.6430  -15.7210   20.3980 N   0  0  0  0  0  0  0  0  0  0  0  0
  -25.7270  -13.9750   20.2880 C   0  0  0  0  0  0  0  0  0  0  0  0
  -24.6850  -13.2200   20.7470 C   0  0  0  0  0  0  0  0  0  0  0  0
  -25.0850  -11.8560   20.5920 C   0  0  0  0  0  0  0  0  0  0  0  0
  -26.7010  -13.0750   19.8850 N   0  0  0  0  0  0  0  0  0  0  0  0
  -26.3260  -11.7910   20.1260 N   0  0  0  0  0  0  0  0  0  0  0  0
  -24.3390  -10.6110   20.8040 C   0  0  0  0  0  0  0  0  0  0  0  0
  -24.7660   -9.6440   21.7400 C   0  0  0  0  0  3  0  0  0  0  0  0
  -24.0210   -8.4630   21.9400 C   0  0  0  0  0  3  0  0  0  0  0  0
  -22.8350   -8.2390   21.2010 C   0  0  0  0  0  0  0  0  0  0  0  0
  -22.4250   -9.1960   20.2560 C   0  0  0  0  0  3  0  0  0  0  0  0
  -23.1710  -10.3680   20.0550 C   0  0  0  0  0  3  0  0  0  0  0  0
  -22.0580   -7.1100   21.3130 O   0  0  0  0  0  0  0  0  0  0  0  0
  -21.9050   -6.4560   22.5080 C   0  0  0  0  0  0  0  0  0  0  0  0
  -21.3800   -7.1020   23.6490 C   0  0  0  0  0  3  0  0  0  0  0  0
  -21.1740   -6.3730   24.8380 C   0  0  0  0  0  3  0  0  0  0  0  0
  -21.4810   -5.0000   24.8850 C   0  0  0  0  0  0  0  0  0  0  0  0
  -21.9980   -4.3540   23.7480 C   0  0  0  0  0  3  0  0  0  0  0  0
  -22.2060   -5.0800   22.5620 C   0  0  0  0  0  0  0  0  0  0  0  0
  -22.6840   -4.4490   21.4630 F   0  0  0  0  0  0  0  0  0  0  0  0
  -21.2770   -4.2970   26.0240 F   0  0  0  0  0  0  0  0  0  0  0  0
  -23.3490  -13.7280   21.2060 C   0  0  0  0  0  0  0  0  0  0  0  0
  -22.7160  -13.0310   22.1430 N   0  0  0  0  0  0  0  0  0  0  0  0
  -22.8820  -14.7800   20.7710 O   0  0  0  0  0  0  0  0  0  0  0  0
  -23.1080  -12.1790   22.5160 H   0  0  0  0  0  0  0  0  0  0  0  0
  -21.8240  -13.3550   22.4910 H   0  0  0  0  0  0  0  0  0  0  0  0
  -25.9210  -15.3460   20.1560 N   0  0  0  0  0  0  0  0  0  0  0  0
  -25.1910  -16.0130   20.3780 H   0  0  0  0  0  0  0  0  0  0  0  0
  -26.7070  -15.7660   19.6800 H   0  0  0  0  0  0  0  0  0  0  0  0
  -29.3210  -22.7340   20.3140 C   0  0  0  0  0  2  0  0  0  0  0  0
  -29.6390  -23.8620   18.0280 C   0  0  0  0  0  1  0  0  0  0  0  0
  -28.7310  -23.7890   19.2680 C   0  0  0  0  0  3  0  0  0  0  0  0
  -28.4790  -25.2300   19.9300 C   0  0  0  0  0  2  0  0  0  0  0  0
  -28.3940  -26.4920   19.1680 O   0  0  0  0  0  0  0  0  0  0  0  0
  -24.7150  -31.5290   22.8540 C   0  0  0  0  0  0  0  0  0  0  0  0
  -27.2600  -27.2910   19.3240 C   0  0  0  0  0  0  0  0  0  0  0  0
  -23.4660  -30.2440   21.1580 C   0  0  0  0  0  3  0  0  0  0  0  0
  -24.8760  -28.8400   19.5510 C   0  0  0  0  0  0  0  0  0  0  0  0
  -25.9870  -30.6280   20.8940 C   0  0  0  0  0  2  0  0  0  0  0  0
  -26.0630  -29.3090   20.1300 C   0  0  0  0  0  0  0  0  0  0  0  0
  -27.2620  -28.5500   19.9990 C   0  0  0  0  0  3  0  0  0  0  0  0
  -26.0520  -26.8590   18.7450 C   0  0  0  0  0  3  0  0  0  0  0  0
  -24.8710  -27.6220   18.8500 C   0  0  0  0  0  3  0  0  0  0  0  0
  -23.6300  -29.6850   19.7200 C   0  0  0  0  0  2  0  0  0  0  0  0
  -24.7430  -30.8130   21.6910 N   0  0  0  0  0  0  0  0  0  0  0  0
  -23.6510  -31.7430   23.4540 O   0  0  0  0  0  0  0  0  0  0  0  0
  -22.8610  -29.1410   22.0580 C   0  0  0  0  0  0  0  0  0  0  0  0
  -21.5300  -28.9720   21.9940 N   0  0  0  0  0  0  0  0  0  0  0  0
  -23.5860  -28.4400   22.7700 O   0  0  0  0  0  0  0  0  0  0  0  0
  -21.0040  -29.5900   21.3920 H   0  0  0  0  0  0  0  0  0  0  0  0
  -18.1790  -27.7480   22.5990 C   0  0  0  0  0  0  0  0  0  0  0  0
  -20.7540  -27.9660   22.7210 C   0  0  0  0  0  3  0  0  0  0  0  0
  -20.8010  -26.5990   21.9980 C   0  0  0  0  0  2  0  0  0  0  0  0
  -19.6290  -26.3880   21.0330 C   0  0  0  0  0  2  0  0  0  0  0  0
  -18.2950  -26.4740   21.7790 C   0  0  0  0  0  2  0  0  0  0  0  0
  -19.3330  -28.4570   23.0270 C   0  0  0  0  0  0  0  0  0  0  0  0
  -19.1700  -29.6560   23.7550 C   0  0  0  0  0  3  0  0  0  0  0  0
  -17.8850  -30.1450   24.0590 C   0  0  0  0  0  3  0  0  0  0  0  0
  -16.7470  -29.4300   23.6490 C   0  0  0  0  0  3  0  0  0  0  0  0
  -16.8940  -28.2330   22.9260 C   0  0  0  0  0  3  0  0  0  0  0  0
  -26.0120  -32.1330   23.4740 C   0  0  0  0  0  3  0  0  0  0  0  0
  -26.6210  -31.2470   24.6290 C   0  0  1  0  0  0  0  0  0  0  0  0
  -25.5980  -30.8560   25.7220 C   0  0  0  0  0  1  0  0  0  0  0  0
  -27.2150  -29.9390   24.0570 C   0  0  0  0  0  1  0  0  0  0  0  0
  -27.7890  -32.0020   25.3050 C   0  0  0  0  0  1  0  0  0  0  0  0
  -25.6840  -33.4770   23.9720 N   0  0  0  0  0  0  0  0  0  0  0  0
  -25.9700  -34.6180   23.3300 C   0  0  0  0  0  0  0  0  0  0  0  0
  -26.6080  -34.6470   22.2740 O   0  0  0  0  0  0  0  0  0  0  0  0
  -25.1120  -33.5250   24.8030 H   0  0  0  0  0  0  0  0  0  0  0  0
  -24.1930  -36.3970   23.2450 C   0  0  0  0  0  1  0  0  0  0  0  0
  -25.4720  -35.9330   23.9600 C   0  0  0  0  0  3  0  0  0  0  0  0
  -27.6140  -36.7690   24.8240 C   0  0  0  0  0  1  0  0  0  0  0  0
  -26.4790  -37.0170   23.9380 N   0  0  0  0  0  0  0  0  0  0  0  0
  -26.0600  -37.9030   24.2040 H   0  0  0  0  0  0  0  0  0  0  0  0
  2  1  2  0
  3  4  2  0
  4  1  1  0
  5  2  1  0
  5 48  1  0
  6  3  1  0
  6  5  2  0
  7  6  1  0
  8 19  1  0
  9 14  1  0
 10 11  1  0
 10  9  1  0
 12 11  1  0
 12 23  1  0
 12 13  1  0
 14  8  1  0
 14 13  1  0
 15  8  2  0
 17 16  1  0
 18  4  1  0
 18 16  1  0
 19 18  1  0
 19 17  1  0
 20 21  2  0
 21 40  1  0
 22 21  1  0
 22 25  1  0
 23 24  1  0
 23 20  1  0
 24 22  2  0
 25 26  1  0
 26 27  2  0
 28 31  1  0
 28 27  1  0
 29 28  2  0
 30 29  1  0
 30 25  2  0
 31 32  1  0
 32 37  2  0
 32 33  1  0
 33 34  2  0
 34 35  1  0
 35 39  1  0
 36 35  2  0
 37 36  1  0
 38 37  1  0
 40 41  1  0
 41 44  1  0
 41 43  1  0
 42 40  2  0
 45 20  1  0
 45 46  1  0
 47 45  1  0
 50 49  1  0
 50 51  1  0
 50 48  1  0
 52 54  1  0
 52 51  1  0
 53 64  2  0
 54 59  1  0
 55 63  1  0
 55 65  1  0
 56 62  1  0
 56 58  1  0
 57 63  1  0
 58 57  1  0
 59 58  2  0
 60 61  1  0
 60 54  2  0
 61 56  2  0
 62 55  1  0
 63 53  1  0
 65 67  2  0
 66 65  1  0
 68 66  1  0
 69 78  2  0
 69 74  1  0
 70 66  1  0
 70 74  1  0
 71 70  1  0
 72 73  1  0
 72 71  1  0
 73 69  1  0
 74 75  2  0
 75 76  1  0
 77 76  2  0
 78 77  1  0
 79 53  1  0
 79 84  1  0
 79 80  1  0
 80 83  1  1
 80 81  1  0
 82 80  1  0
 84 87  1  0
 85 89  1  0
 85 84  1  0
 86 85  2  0
 89 88  1  0
 91 89  1  0
 91 92  1  0
 91 90  1  0
M  ISO  4   8 100  19 100  51 101  52 101
M  END
>  <TORSDO>  (42) 
F 19

>  <SCORE>  (42) 
-11.357

>  <name>  (42) 
41

>  <ligand_id>  (42) 
41

>  <original_smiles>  (42) 
[H]c1c([H])c([H])c2c(c1[H])C([H])([H])C([H])([H])C([H])([H])C2([H])N([H])C(=O)C1([H])N(C(=O)C([H])(N([H])C(=O)C([H])(N([H])C([H])([H])[H])C([H])([H])[H])C(C([H])([H])[H])(C([H])([H])[H])C([H])([H])[H])C([H])([H])c2c([H])c(OC([H])([H])C([H])(C([H])([H])[H])C([H])([H])c3c([H])c([H])c(C4([H])N(C(=O)N5C([H])([H])C([H])([H])C([H])([H])C([H])(n6nc(-c7c([H])c([H])c(Oc8c([H])c([H])c(F)c([H])c8F)c([H])c7[H])c(C(=O)N([H])[H])c6N([H])[H])C5([H])[H])C([H])([H])C4([H])[H])c([H])c3C([H])([H])[H])c([H])c([H])c2C1([H])[H]

>  <smiles>  (42) 
[H]c1c([H])c([H])c2c(c1[H])C([H])([H])C([H])([H])C([H])([H])C2([H])N([H])C(=O)C1([H])N(C(=O)C([H])(N([H])C(=O)C([H])(N([H])C([H])([H])[H])C([H])([H])[H])C(C([H])([H])[H])(C([H])([H])[H])C([H])([H])[H])C([H])([H])c2c([H])c(OC([H])([H])C([H])(C([H])([H])[H])C([H])([H])c3c([H])c([H])c(C4([H])N(C(=O)N5C([H])([H])C([H])([H])C([H])([H])C([H])(n6nc(-c7c([H])c([H])c(Oc8c([H])c([H])c(F)c([H])c8F)c([H])c7[H])c(C(=O)N([H])[H])c6N([H])[H])C5([H])[H])C([H])([H])C4([H])[H])c([H])c3C([H])([H])[H])c([H])c([H])c2C1([H])[H]

$$$$
42:0:0
     RDKit          3D

 93102  0  0  1  0  0  0  0  0999 V2000
  -27.2900  -21.5610   21.6690 C   0  0  0  0  0  3  0  0  0  0  0  0
  -28.6050  -21.5950   21.3790 C   0  0  0  0  0  0  0  0  0  0  0  0
  -26.2230  -22.2760   20.8460 C   0  0  0  0  0  2  0  0  0  0  0  0
  -29.6640  -20.7330   22.0280 C   0  0  0  0  0  2  0  0  0  0  0  0
  -26.7940  -23.0740   19.6590 C   0  0  0  0  0  2  0  0  0  0  0  0
  -28.0860  -22.4390   19.1070 C   0  0  0  0  0  2  0  0  0  0  0  0
  -30.3490  -21.4020   19.7720 C   0  0  0  0  0  2  0  0  0  0  0  0
  -30.5960  -20.3170   20.8770 C   0  0  0  0  0  3  0  0  0  0  0  0
  -29.1860  -22.3500   20.1980 C   0  0  2  0  0  0  0  0  0  0  0  0
  -30.3970  -18.8240   20.4260 C   0  0  0  0  0  2  0  0  0  0  0  0
  -31.4240  -17.7960   21.0080 C   0  0  0  0  0  2  0  0  0  0  0  0
  -31.7320  -15.3240   20.4430 C   0  0  0  0  0  0  0  0  0  0  0  0
  -31.4440  -13.0960   19.3980 C   0  0  0  0  0  2  0  0  0  0  0  0
  -30.5500  -13.2420   18.1480 C   0  0  0  0  0  2  0  0  0  0  0  0
  -29.0590  -13.1510   18.5300 C   0  0  0  0  0  2  0  0  0  0  0  0
  -28.6940  -14.0730   19.7270 C   0  0  0  0  0  3  0  0  0  0  0  0
  -29.7020  -13.8900   20.8860 C   0  0  0  0  0  2  0  0  0  0  0  0
  -31.0500  -14.1460   20.3520 N   0  0  0  0  0  0  0  0  0  0  0  0
  -32.8880  -15.4580   20.0330 O   0  0  0  0  0  0  0  0  0  0  0  0
  -31.0020  -16.3810   20.8750 N   0  0  0  0  0  0  0  0  0  0  0  0
  -30.0580  -16.1690   21.1610 H   0  0  0  0  0  0  0  0  0  0  0  0
  -26.3170  -14.7910   20.4060 C   0  0  0  0  0  0  0  0  0  0  0  0
  -25.2010  -14.0690   20.7230 C   0  0  0  0  0  0  0  0  0  0  0  0
  -25.5850  -12.6940   20.6570 C   0  0  0  0  0  0  0  0  0  0  0  0
  -27.3170  -13.8590   20.1680 N   0  0  0  0  0  0  0  0  0  0  0  0
  -26.8770  -12.5910   20.3760 N   0  0  0  0  0  0  0  0  0  0  0  0
  -24.7850  -11.4700   20.7910 C   0  0  0  0  0  0  0  0  0  0  0  0
  -25.1030  -10.4850   21.7510 C   0  0  0  0  0  3  0  0  0  0  0  0
  -24.3110   -9.3230   21.8730 C   0  0  0  0  0  3  0  0  0  0  0  0
  -23.1860   -9.1400   21.0330 C   0  0  0  0  0  0  0  0  0  0  0  0
  -22.8860  -10.1140   20.0640 C   0  0  0  0  0  3  0  0  0  0  0  0
  -23.6780  -11.2680   19.9410 C   0  0  0  0  0  3  0  0  0  0  0  0
  -22.3740   -8.0340   21.0640 O   0  0  0  0  0  0  0  0  0  0  0  0
  -22.1380   -7.3460   22.2290 C   0  0  0  0  0  0  0  0  0  0  0  0
  -21.5700   -7.9710   23.3600 C   0  0  0  0  0  3  0  0  0  0  0  0
  -21.2780   -7.2110   24.5120 C   0  0  0  0  0  3  0  0  0  0  0  0
  -21.5470   -5.8300   24.5310 C   0  0  0  0  0  0  0  0  0  0  0  0
  -22.1050   -5.2050   23.4040 C   0  0  0  0  0  3  0  0  0  0  0  0
  -22.3980   -5.9620   22.2540 C   0  0  0  0  0  0  0  0  0  0  0  0
  -22.9200   -5.3510   21.1630 F   0  0  0  0  0  0  0  0  0  0  0  0
  -21.2590   -5.0970   25.6330 F   0  0  0  0  0  0  0  0  0  0  0  0
  -23.8260  -14.6150   20.9820 C   0  0  0  0  0  0  0  0  0  0  0  0
  -23.0520  -13.9450   21.8280 N   0  0  0  0  0  0  0  0  0  0  0  0
  -23.4470  -15.6660   20.4660 O   0  0  0  0  0  0  0  0  0  0  0  0
  -23.3690  -13.0930   22.2670 H   0  0  0  0  0  0  0  0  0  0  0  0
  -22.1260  -14.2850   22.0490 H   0  0  0  0  0  0  0  0  0  0  0  0
  -26.5610  -16.1550   20.2830 N   0  0  0  0  0  0  0  0  0  0  0  0
  -25.8210  -16.8420   20.3940 H   0  0  0  0  0  0  0  0  0  0  0  0
  -27.4340  -16.5600   19.9730 H   0  0  0  0  0  0  0  0  0  0  0  0
  -29.6710  -23.7750   20.6910 C   0  0  0  0  0  2  0  0  0  0  0  0
  -29.5840  -25.0060   19.7210 C   0  0  0  0  0  2  0  0  0  0  0  0
  -29.6860  -26.3920   20.4390 C   0  0  0  0  0  2  0  0  0  0  0  0
  -29.3850  -27.5670   19.6450 O   0  0  0  0  0  0  0  0  0  0  0  0
  -24.7250  -31.6760   23.2130 C   0  0  0  0  0  0  0  0  0  0  0  0
  -28.1100  -28.0970   19.7360 C   0  0  0  0  0  0  0  0  0  0  0  0
  -23.7880  -30.3030   21.3800 C   0  0  0  0  0  3  0  0  0  0  0  0
  -25.4950  -29.2010   19.8370 C   0  0  0  0  0  0  0  0  0  0  0  0
  -26.2240  -31.0890   21.3080 C   0  0  0  0  0  2  0  0  0  0  0  0
  -26.5460  -29.8340   20.5150 C   0  0  0  0  0  0  0  0  0  0  0  0
  -27.8550  -29.2910   20.4580 C   0  0  0  0  0  3  0  0  0  0  0  0
  -27.0430  -27.4830   19.0520 C   0  0  0  0  0  3  0  0  0  0  0  0
  -25.7400  -28.0260   19.1020 C   0  0  0  0  0  3  0  0  0  0  0  0
  -24.1240  -29.8350   19.9390 C   0  0  0  0  0  2  0  0  0  0  0  0
  -24.9270  -31.0330   22.0270 N   0  0  0  0  0  0  0  0  0  0  0  0
  -23.6090  -31.7010   23.7510 O   0  0  0  0  0  0  0  0  0  0  0  0
  -23.3030  -29.0840   22.1940 C   0  0  0  0  0  0  0  0  0  0  0  0
  -22.0370  -28.6830   21.9860 N   0  0  0  0  0  0  0  0  0  0  0  0
  -24.0640  -28.5050   22.9730 O   0  0  0  0  0  0  0  0  0  0  0  0
  -21.4750  -29.2100   21.3320 H   0  0  0  0  0  0  0  0  0  0  0  0
  -18.9430  -26.8330   22.1570 C   0  0  0  0  0  0  0  0  0  0  0  0
  -21.3900  -27.5340   22.6180 C   0  0  0  0  0  3  0  0  0  0  0  0
  -21.7940  -26.2150   21.9170 C   0  0  0  0  0  2  0  0  0  0  0  0
  -20.8210  -25.8010   20.8080 C   0  0  0  0  0  2  0  0  0  0  0  0
  -19.4070  -25.6180   21.3670 C   0  0  0  0  0  2  0  0  0  0  0  0
  -19.8750  -27.7390   22.7290 C   0  0  0  0  0  0  0  0  0  0  0  0
  -19.3910  -28.8710   23.4200 C   0  0  0  0  0  3  0  0  0  0  0  0
  -18.0090  -29.1000   23.5510 C   0  0  0  0  0  3  0  0  0  0  0  0
  -17.0910  -28.1890   22.9990 C   0  0  0  0  0  3  0  0  0  0  0  0
  -17.5590  -27.0580   22.3050 C   0  0  0  0  0  3  0  0  0  0  0  0
  -25.8830  -32.4300   23.9350 C   0  0  0  0  0  3  0  0  0  0  0  0
  -25.4030  -33.7790   24.2590 N   0  0  0  0  0  0  0  0  0  0  0  0
  -25.6800  -34.8760   23.5420 C   0  0  0  0  0  0  0  0  0  0  0  0
  -26.4360  -34.8640   22.5660 O   0  0  0  0  0  0  0  0  0  0  0  0
  -24.7340  -33.8530   25.0100 H   0  0  0  0  0  0  0  0  0  0  0  0
  -23.7980  -36.4750   23.0680 C   0  0  0  0  0  1  0  0  0  0  0  0
  -25.0100  -36.1940   23.9720 C   0  0  0  0  0  3  0  0  0  0  0  0
  -26.9660  -37.2880   24.9710 C   0  0  0  0  0  1  0  0  0  0  0  0
  -25.9240  -37.3560   23.9510 N   0  0  0  0  0  0  0  0  0  0  0  0
  -25.4110  -38.2240   24.0780 H   0  0  0  0  0  0  0  0  0  0  0  0
  -26.3890  -31.6930   25.2360 C   0  0  1  0  0  0  0  0  0  0  0  0
  -25.2510  -31.2970   26.2070 C   0  0  0  0  0  1  0  0  0  0  0  0
  -27.1680  -30.4070   24.8750 C   0  0  0  0  0  1  0  0  0  0  0  0
  -27.3770  -32.6020   26.0030 C   0  0  0  0  0  1  0  0  0  0  0  0
  2  1  2  0
  2  4  1  0
  3  1  1  0
  5  3  1  0
  6  5  1  0
  6  9  1  0
  7  9  1  0
  7  8  1  0
  8 10  1  0
  8  4  1  0
  9 50  1  1
  9  2  1  0
 10 11  1  0
 12 20  1  0
 13 18  1  0
 14 15  1  0
 14 13  1  0
 16 15  1  0
 16 25  1  0
 16 17  1  0
 18 12  1  0
 18 17  1  0
 19 12  2  0
 20 11  1  0
 20 21  1  0
 22 23  2  0
 23 42  1  0
 24 23  1  0
 24 27  1  0
 25 26  1  0
 25 22  1  0
 26 24  2  0
 27 28  1  0
 28 29  2  0
 30 33  1  0
 30 29  1  0
 31 30  2  0
 32 31  1  0
 32 27  2  0
 33 34  1  0
 34 39  2  0
 34 35  1  0
 35 36  2  0
 36 37  1  0
 37 41  1  0
 38 37  2  0
 39 38  1  0
 40 39  1  0
 42 43  1  0
 43 46  1  0
 43 45  1  0
 44 42  2  0
 47 48  1  0
 47 22  1  0
 49 47  1  0
 51 52  1  0
 51 50  1  0
 53 55  1  0
 53 52  1  0
 54 65  2  0
 55 60  1  0
 56 64  1  0
 56 66  1  0
 57 63  1  0
 57 59  1  0
 58 64  1  0
 59 58  1  0
 60 59  2  0
 61 62  1  0
 61 55  2  0
 62 57  2  0
 63 56  1  0
 64 54  1  0
 66 68  2  0
 67 66  1  0
 69 67  1  0
 70 79  2  0
 70 75  1  0
 71 67  1  0
 71 75  1  0
 72 71  1  0
 73 74  1  0
 73 72  1  0
 74 70  1  0
 75 76  2  0
 76 77  1  0
 78 77  2  0
 79 78  1  0
 80 54  1  0
 80 81  1  0
 80 90  1  0
 81 84  1  0
 82 86  1  0
 82 81  1  0
 83 82  2  0
 86 85  1  0
 88 86  1  0
 88 89  1  0
 88 87  1  0
 90 93  1  1
 90 91  1  0
 92 90  1  0
M  ISO  4  12 100  20 100  52 101  53 101
M  END
>  <TORSDO>  (43) 
F 21

>  <SCORE>  (43) 
-7.737

>  <name>  (43) 
42

>  <ligand_id>  (43) 
42

>  <original_smiles>  (43) 
[H]C1=C2C([H])([H])C([H])(C([H])([H])C([H])([H])N([H])C(=O)N3C([H])([H])C([H])([H])C([H])([H])C([H])(n4nc(-c5c([H])c([H])c(Oc6c([H])c([H])c(F)c([H])c6F)c([H])c5[H])c(C(=O)N([H])[H])c4N([H])[H])C3([H])[H])C([H])([H])C2(C([H])([H])C([H])([H])C([H])([H])Oc2c([H])c([H])c3c(c2[H])C([H])([H])N(C(=O)C([H])(N([H])C(=O)C([H])(N([H])C([H])([H])[H])C([H])([H])[H])C(C([H])([H])[H])(C([H])([H])[H])C([H])([H])[H])C([H])(C(=O)N([H])C2([H])c4c([H])c([H])c([H])c([H])c4C([H])([H])C([H])([H])C2([H])[H])C3([H])[H])C([H])([H])C([H])([H])C1([H])[H]

>  <smiles>  (43) 
[H]C1=C2C([H])([H])C([H])(C([H])([H])C([H])([H])N([H])C(=O)N3C([H])([H])C([H])([H])C([H])([H])C([H])(n4nc(-c5c([H])c([H])c(Oc6c([H])c([H])c(F)c([H])c6F)c([H])c5[H])c(C(=O)N([H])[H])c4N([H])[H])C3([H])[H])C([H])([H])C2(C([H])([H])C([H])([H])C([H])([H])Oc2c([H])c([H])c3c(c2[H])C([H])([H])N(C(=O)C([H])(N([H])C(=O)C([H])(N([H])C([H])([H])[H])C([H])([H])[H])C(C([H])([H])[H])(C([H])([H])[H])C([H])([H])[H])C([H])(C(=O)N([H])C2([H])c4c([H])c([H])c([H])c([H])c4C([H])([H])C([H])([H])C2([H])[H])C3([H])[H])C([H])([H])C([H])([H])C1([H])[H]

$$$$
43:0:0
     RDKit          3D

 88 97  0  0  1  0  0  0  0  0999 V2000
  -31.2820  -19.9450   19.6770 C   0  0  0  0  0  2  0  0  0  0  0  0
  -31.2980  -18.3830   19.8210 C   0  0  0  0  0  2  0  0  0  0  0  0
  -28.3820  -20.4150   21.0150 C   0  0  0  0  0  2  0  0  0  0  0  0
  -29.8300  -20.4200   19.5470 C   0  0  0  0  0  3  0  0  0  0  0  0
  -29.0080  -19.2140   20.1360 C   0  0  0  0  0  3  0  0  0  0  0  0
  -29.2180  -21.6470   20.4240 C   0  0  0  0  0  3  0  0  0  0  0  0
  -30.0070  -17.9110   20.5380 C   0  0  0  0  0  3  0  0  0  0  0  0
  -30.4880  -15.1210   20.2280 C   0  0  0  0  0  0  0  0  0  0  0  0
  -30.3820  -12.7560   19.2660 C   0  0  0  0  0  2  0  0  0  0  0  0
  -29.4240  -12.6700   18.0530 C   0  0  0  0  0  2  0  0  0  0  0  0
  -27.9760  -12.4310   18.5180 C   0  0  0  0  0  2  0  0  0  0  0  0
  -27.5760  -13.3560   19.6960 C   0  0  0  0  0  3  0  0  0  0  0  0
  -28.6520  -13.4020   20.8010 C   0  0  0  0  0  2  0  0  0  0  0  0
  -29.8950  -13.8530   20.1580 N   0  0  0  0  0  0  0  0  0  0  0  0
  -31.7010  -15.1560   19.9880 O   0  0  0  0  0  0  0  0  0  0  0  0
  -29.7130  -16.3320   20.3660 N   0  0  0  0  0  0  0  0  0  0  0  0
  -28.7310  -16.1220   20.4580 H   0  0  0  0  0  0  0  0  0  0  0  0
  -25.2100  -13.9140   20.4840 C   0  0  0  0  0  0  0  0  0  0  0  0
  -24.1570  -13.1300   20.8680 C   0  0  0  0  0  0  0  0  0  0  0  0
  -24.6300  -11.7830   20.8270 C   0  0  0  0  0  0  0  0  0  0  0  0
  -26.2530  -13.0440   20.2220 N   0  0  0  0  0  0  0  0  0  0  0  0
  -25.9170  -11.7560   20.4950 N   0  0  0  0  0  0  0  0  0  0  0  0
  -23.9130  -10.5160   21.0230 C   0  0  0  0  0  0  0  0  0  0  0  0
  -24.3580   -9.5500   21.9520 C   0  0  0  0  0  3  0  0  0  0  0  0
  -23.6390   -8.3500   22.1370 C   0  0  0  0  0  3  0  0  0  0  0  0
  -22.4610   -8.1060   21.3920 C   0  0  0  0  0  0  0  0  0  0  0  0
  -22.0360   -9.0600   20.4500 C   0  0  0  0  0  3  0  0  0  0  0  0
  -22.7550  -10.2520   20.2640 C   0  0  0  0  0  3  0  0  0  0  0  0
  -21.7130   -6.9580   21.4860 O   0  0  0  0  0  0  0  0  0  0  0  0
  -21.6750   -6.2170   22.6400 C   0  0  0  0  0  0  0  0  0  0  0  0
  -21.2470   -6.7680   23.8660 C   0  0  0  0  0  3  0  0  0  0  0  0
  -21.1580   -5.9540   25.0130 C   0  0  0  0  0  3  0  0  0  0  0  0
  -21.4850   -4.5870   24.9330 C   0  0  0  0  0  0  0  0  0  0  0  0
  -21.9070   -4.0340   23.7100 C   0  0  0  0  0  3  0  0  0  0  0  0
  -21.9980   -4.8460   22.5660 C   0  0  0  0  0  0  0  0  0  0  0  0
  -22.3840   -4.3040   21.3860 F   0  0  0  0  0  0  0  0  0  0  0  0
  -21.3930   -3.8010   26.0310 F   0  0  0  0  0  0  0  0  0  0  0  0
  -22.7610  -13.5990   21.1570 C   0  0  0  0  0  0  0  0  0  0  0  0
  -22.0450  -12.8940   22.0250 N   0  0  0  0  0  0  0  0  0  0  0  0
  -22.3140  -14.6280   20.6500 O   0  0  0  0  0  0  0  0  0  0  0  0
  -22.4190  -12.0620   22.4580 H   0  0  0  0  0  0  0  0  0  0  0  0
  -21.1080  -13.1890   22.2620 H   0  0  0  0  0  0  0  0  0  0  0  0
  -25.3600  -15.2860   20.3050 N   0  0  0  0  0  0  0  0  0  0  0  0
  -24.5840  -15.9290   20.4250 H   0  0  0  0  0  0  0  0  0  0  0  0
  -26.1840  -15.7300   19.9230 H   0  0  0  0  0  0  0  0  0  0  0  0
  -28.7300  -23.1980   19.8160 C   0  0  0  0  0  2  0  0  0  0  0  0
  -28.2060  -24.6280   20.6210 C   0  0  0  0  0  2  0  0  0  0  0  0
  -28.3330  -26.1610   20.2230 O   0  0  0  0  0  0  0  0  0  0  0  0
  -24.6430  -31.8830   23.2400 C   0  0  0  0  0  0  0  0  0  0  0  0
  -27.2590  -27.1420   20.2330 C   0  0  0  0  0  0  0  0  0  0  0  0
  -23.4620  -30.4830   21.5920 C   0  0  0  0  0  3  0  0  0  0  0  0
  -24.9260  -28.9040   20.1800 C   0  0  0  0  0  0  0  0  0  0  0  0
  -26.0180  -30.7510   21.4430 C   0  0  0  0  0  2  0  0  0  0  0  0
  -26.1030  -29.3530   20.7940 C   0  0  0  0  0  0  0  0  0  0  0  0
  -27.2730  -28.4920   20.7930 C   0  0  0  0  0  3  0  0  0  0  0  0
  -26.0530  -26.8000   19.5900 C   0  0  0  0  0  3  0  0  0  0  0  0
  -24.9170  -27.6430   19.5600 C   0  0  0  0  0  3  0  0  0  0  0  0
  -23.6970  -29.8030   20.2150 C   0  0  0  0  0  2  0  0  0  0  0  0
  -24.7280  -31.0630   22.1460 N   0  0  0  0  0  0  0  0  0  0  0  0
  -23.5520  -32.1610   23.7610 O   0  0  0  0  0  0  0  0  0  0  0  0
  -22.7780  -29.4760   22.5500 C   0  0  0  0  0  0  0  0  0  0  0  0
  -21.4510  -29.2980   22.4130 N   0  0  0  0  0  0  0  0  0  0  0  0
  -23.4450  -28.8550   23.3800 O   0  0  0  0  0  0  0  0  0  0  0  0
  -20.9680  -29.8520   21.7190 H   0  0  0  0  0  0  0  0  0  0  0  0
  -18.0750  -28.0710   22.8880 C   0  0  0  0  0  0  0  0  0  0  0  0
  -20.6300  -28.3550   23.1770 C   0  0  0  0  0  3  0  0  0  0  0  0
  -20.7470  -26.9240   22.6040 C   0  0  0  0  0  2  0  0  0  0  0  0
  -19.6570  -26.5930   21.5800 C   0  0  0  0  0  2  0  0  0  0  0  0
  -18.2680  -26.7240   22.2130 C   0  0  0  0  0  2  0  0  0  0  0  0
  -19.1830  -28.8440   23.3270 C   0  0  0  0  0  0  0  0  0  0  0  0
  -18.9460  -30.1020   23.9210 C   0  0  0  0  0  3  0  0  0  0  0  0
  -17.6350  -30.5890   24.0800 C   0  0  0  0  0  3  0  0  0  0  0  0
  -16.5420  -29.8140   23.6560 C   0  0  0  0  0  3  0  0  0  0  0  0
  -16.7620  -28.5570   23.0650 C   0  0  0  0  0  3  0  0  0  0  0  0
  -25.9110  -32.5250   23.8800 C   0  0  0  0  0  3  0  0  0  0  0  0
  -25.5910  -33.9250   24.2040 N   0  0  0  0  0  0  0  0  0  0  0  0
  -25.9280  -34.9820   23.4530 C   0  0  0  0  0  0  0  0  0  0  0  0
  -26.6060  -34.8810   22.4270 O   0  0  0  0  0  0  0  0  0  0  0  0
  -24.9870  -34.0770   24.9990 H   0  0  0  0  0  0  0  0  0  0  0  0
  -24.2020  -36.7800   23.0940 C   0  0  0  0  0  1  0  0  0  0  0  0
  -25.4370  -36.3710   23.9110 C   0  0  0  0  0  3  0  0  0  0  0  0
  -27.5650  -37.2590   24.7600 C   0  0  0  0  0  1  0  0  0  0  0  0
  -26.4710  -37.4250   23.8070 N   0  0  0  0  0  0  0  0  0  0  0  0
  -26.0630  -38.3450   23.9510 H   0  0  0  0  0  0  0  0  0  0  0  0
  -26.4100  -31.7650   25.1700 C   0  0  1  0  0  0  0  0  0  0  0  0
  -25.3010  -31.5360   26.2250 C   0  0  0  0  0  1  0  0  0  0  0  0
  -26.9990  -30.3840   24.8030 C   0  0  0  0  0  1  0  0  0  0  0  0
  -27.5520  -32.5640   25.8420 C   0  0  0  0  0  1  0  0  0  0  0  0
  1  2  1  0
  2  7  1  0
  4  1  1  0
  4  5  1  0
  4  6  1  0
  5  7  1  0
  5  3  1  0
  6 46  1  0
  6  3  1  0
  7 16  1  0
  8 16  1  0
  9 14  1  0
 10 11  1  0
 10  9  1  0
 12 11  1  0
 12 21  1  0
 12 13  1  0
 14  8  1  0
 14 13  1  0
 15  8  2  0
 16 17  1  0
 18 19  2  0
 19 38  1  0
 20 19  1  0
 20 23  1  0
 21 18  1  0
 21 22  1  0
 22 20  2  0
 23 24  1  0
 24 25  2  0
 26 29  1  0
 26 25  1  0
 27 26  2  0
 28 27  1  0
 28 23  2  0
 29 30  1  0
 30 31  1  0
 31 32  2  0
 33 32  1  0
 33 37  1  0
 34 33  2  0
 35 30  2  0
 35 34  1  0
 36 35  1  0
 38 39  1  0
 39 42  1  0
 39 41  1  0
 40 38  2  0
 43 44  1  0
 43 18  1  0
 45 43  1  0
 46 47  1  0
 48 50  1  0
 48 47  1  0
 49 60  2  0
 50 55  1  0
 51 59  1  0
 51 61  1  0
 52 58  1  0
 52 54  1  0
 53 59  1  0
 54 53  1  0
 55 54  2  0
 56 50  2  0
 57 56  1  0
 57 52  2  0
 58 51  1  0
 59 49  1  0
 61 63  2  0
 62 61  1  0
 64 62  1  0
 65 74  2  0
 65 70  1  0
 66 62  1  0
 66 70  1  0
 67 66  1  0
 68 69  1  0
 68 67  1  0
 69 65  1  0
 70 71  2  0
 71 72  1  0
 73 72  2  0
 74 73  1  0
 75 49  1  0
 75 76  1  0
 75 85  1  0
 76 79  1  0
 77 81  1  0
 77 76  1  0
 78 77  2  0
 81 80  1  0
 83 81  1  0
 83 84  1  0
 83 82  1  0
 85 88  1  1
 85 86  1  0
 87 85  1  0
M  ISO  4   8 100  16 100  47 101  48 101
M  END
>  <TORSDO>  (44) 
F 18

>  <SCORE>  (44) 
-15.594

>  <name>  (44) 
43

>  <ligand_id>  (44) 
43

>  <original_smiles>  (44) 
[H]c1c([H])c([H])c2c(c1[H])C([H])([H])C([H])([H])C([H])([H])C2([H])N([H])C(=O)C1([H])N(C(=O)C([H])(N([H])C(=O)C([H])(N([H])C([H])([H])[H])C([H])([H])[H])C(C([H])([H])[H])(C([H])([H])[H])C([H])([H])[H])C([H])([H])c2c([H])c(OC([H])([H])C([H])([H])C3([H])C([H])([H])C4([H])C([H])(N([H])C(=O)N5C([H])([H])C([H])([H])C([H])([H])C([H])(n6nc(-c7c([H])c([H])c(Oc8c([H])c([H])c(F)c([H])c8F)c([H])c7[H])c(C(=O)N([H])[H])c6N([H])[H])C5([H])[H])C([H])([H])C([H])([H])C34[H])c([H])c([H])c2C1([H])[H]

>  <smiles>  (44) 
[H]c1c([H])c([H])c2c(c1[H])C([H])([H])C([H])([H])C([H])([H])C2([H])N([H])C(=O)C1([H])N(C(=O)C([H])(N([H])C(=O)C([H])(N([H])C([H])([H])[H])C([H])([H])[H])C(C([H])([H])[H])(C([H])([H])[H])C([H])([H])[H])C([H])([H])c2c([H])c(OC([H])([H])C([H])([H])C3([H])C([H])([H])C4([H])C([H])(N([H])C(=O)N5C([H])([H])C([H])([H])C([H])([H])C([H])(n6nc(-c7c([H])c([H])c(Oc8c([H])c([H])c(F)c([H])c8F)c([H])c7[H])c(C(=O)N([H])[H])c6N([H])[H])C5([H])[H])C([H])([H])C([H])([H])C34[H])c([H])c([H])c2C1([H])[H]

$$$$
44:0:0
     RDKit          3D

 99108  0  0  1  0  0  0  0  0999 V2000
  -29.2260  -20.3430   19.6530 C   0  0  0  0  0  3  0  0  0  0  0  0
  -29.6010  -21.6890   19.7890 C   0  0  0  0  0  3  0  0  0  0  0  0
  -31.2420  -21.0620   21.4670 C   0  0  0  0  0  3  0  0  0  0  0  0
  -30.8660  -19.7060   21.3430 C   0  0  0  0  0  0  0  0  0  0  0  0
  -29.8830  -19.3330   20.3890 C   0  0  0  0  0  0  0  0  0  0  0  0
  -30.6290  -22.0560   20.6790 C   0  0  0  0  0  0  0  0  0  0  0  0
  -31.5590  -18.6930   22.2060 C   0  0  0  0  0  0  0  0  0  0  0  0
  -30.7640  -17.9100   22.9220 N   0  0  0  0  0  0  0  0  0  0  0  0
  -32.7840  -18.6320   22.2760 O   0  0  0  0  0  0  0  0  0  0  0  0
  -29.7640  -18.0300   22.8620 H   0  0  0  0  0  0  0  0  0  0  0  0
  -31.1480  -17.2310   23.5620 H   0  0  0  0  0  0  0  0  0  0  0  0
  -29.9570  -17.2730   18.7590 C   0  0  0  0  0  2  0  0  0  0  0  0
  -29.5820  -17.8930   20.0830 C   0  0  0  0  0  3  0  0  0  0  0  0
  -30.7250  -16.8970   20.0100 C   0  0  0  0  0  3  0  0  0  0  0  0
  -31.3780  -14.5660   20.3940 C   0  0  0  0  0  0  0  0  0  0  0  0
  -31.1670  -12.3100   19.4710 C   0  0  0  0  0  2  0  0  0  0  0  0
  -30.2580  -12.4180   18.2280 C   0  0  0  0  0  2  0  0  0  0  0  0
  -28.7690  -12.3190   18.6180 C   0  0  0  0  0  2  0  0  0  0  0  0
  -28.3910  -13.2560   19.7950 C   0  0  0  0  0  3  0  0  0  0  0  0
  -29.4100  -13.1150   20.9530 C   0  0  0  0  0  2  0  0  0  0  0  0
  -30.7560  -13.3630   20.4070 N   0  0  0  0  0  0  0  0  0  0  0  0
  -32.5360  -14.7420   20.0010 O   0  0  0  0  0  0  0  0  0  0  0  0
  -30.5270  -15.5880   20.5340 N   0  0  0  0  0  0  0  0  0  0  0  0
  -29.5990  -15.3540   20.8490 H   0  0  0  0  0  0  0  0  0  0  0  0
  -26.0010  -13.9420   20.4630 C   0  0  0  0  0  0  0  0  0  0  0  0
  -24.9050  -13.2020   20.8150 C   0  0  0  0  0  0  0  0  0  0  0  0
  -25.3260  -11.8360   20.7900 C   0  0  0  0  0  0  0  0  0  0  0  0
  -27.0220  -13.0290   20.2490 N   0  0  0  0  0  0  0  0  0  0  0  0
  -26.6180  -11.7570   20.5020 N   0  0  0  0  0  0  0  0  0  0  0  0
  -24.5620  -10.5950   20.9670 C   0  0  0  0  0  0  0  0  0  0  0  0
  -24.9130   -9.6460   21.9540 C   0  0  0  0  0  3  0  0  0  0  0  0
  -24.1530   -8.4680   22.1150 C   0  0  0  0  0  3  0  0  0  0  0  0
  -23.0290   -8.2320   21.2880 C   0  0  0  0  0  0  0  0  0  0  0  0
  -22.6990   -9.1680   20.2930 C   0  0  0  0  0  3  0  0  0  0  0  0
  -23.4600  -10.3370   20.1300 C   0  0  0  0  0  3  0  0  0  0  0  0
  -22.2480   -7.1040   21.3570 O   0  0  0  0  0  0  0  0  0  0  0  0
  -22.0250   -6.4540   22.5440 C   0  0  0  0  0  0  0  0  0  0  0  0
  -21.4380   -7.1040   23.6510 C   0  0  0  0  0  3  0  0  0  0  0  0
  -21.1640   -6.3800   24.8290 C   0  0  0  0  0  3  0  0  0  0  0  0
  -21.4660   -5.0070   24.8990 C   0  0  0  0  0  0  0  0  0  0  0  0
  -22.0440   -4.3560   23.7940 C   0  0  0  0  0  3  0  0  0  0  0  0
  -22.3200   -5.0780   22.6190 C   0  0  0  0  0  0  0  0  0  0  0  0
  -22.8580   -4.4420   21.5510 F   0  0  0  0  0  0  0  0  0  0  0  0
  -21.1960   -4.3080   26.0260 F   0  0  0  0  0  0  0  0  0  0  0  0
  -23.5160  -13.7170   21.0640 C   0  0  0  0  0  0  0  0  0  0  0  0
  -22.7650  -13.0560   21.9380 N   0  0  0  0  0  0  0  0  0  0  0  0
  -23.1050  -14.7410   20.5200 O   0  0  0  0  0  0  0  0  0  0  0  0
  -23.1090  -12.2280   22.4010 H   0  0  0  0  0  0  0  0  0  0  0  0
  -21.8330  -13.3840   22.1470 H   0  0  0  0  0  0  0  0  0  0  0  0
  -26.2060  -15.3080   20.2850 N   0  0  0  0  0  0  0  0  0  0  0  0
  -25.4480  -15.9760   20.3670 H   0  0  0  0  0  0  0  0  0  0  0  0
  -27.0540  -15.7170   19.9140 H   0  0  0  0  0  0  0  0  0  0  0  0
  -31.1380  -23.4870   20.7260 C   0  0  0  0  0  3  0  0  0  0  0  0
  -30.0450  -24.5830   20.7020 C   0  0  0  0  0  3  0  0  0  0  0  0
  -31.1910  -26.0440   18.9710 C   0  0  0  0  0  1  0  0  0  0  0  0
  -31.6100  -26.4630   21.4090 C   0  0  0  0  0  1  0  0  0  0  0  0
  -30.5560  -26.0130   20.3740 C   0  0  2  0  0  0  0  0  0  0  0  0
  -29.3740  -27.0150   20.4250 C   0  0  0  0  0  2  0  0  0  0  0  0
  -28.3480  -26.7130   19.4760 O   0  0  0  0  0  0  0  0  0  0  0  0
  -24.4840  -31.5550   23.0140 C   0  0  0  0  0  0  0  0  0  0  0  0
  -27.1770  -27.4330   19.5860 C   0  0  0  0  0  0  0  0  0  0  0  0
  -23.2570  -30.2020   21.3380 C   0  0  0  0  0  3  0  0  0  0  0  0
  -24.7090  -28.8050   19.7670 C   0  0  0  0  0  0  0  0  0  0  0  0
  -25.7470  -30.6850   21.0550 C   0  0  0  0  0  2  0  0  0  0  0  0
  -25.8610  -29.3550   20.3410 C   0  0  0  0  0  0  0  0  0  0  0  0
  -27.0920  -28.6780   20.2550 C   0  0  0  0  0  3  0  0  0  0  0  0
  -26.0130  -26.8980   18.9960 C   0  0  0  0  0  3  0  0  0  0  0  0
  -24.7780  -27.5720   19.0900 C   0  0  0  0  0  3  0  0  0  0  0  0
  -23.4340  -29.6030   19.9130 C   0  0  0  0  0  2  0  0  0  0  0  0
  -24.5160  -30.8250   21.8620 N   0  0  0  0  0  0  0  0  0  0  0  0
  -23.4190  -31.7540   23.6140 O   0  0  0  0  0  0  0  0  0  0  0  0
  -22.6830  -29.1060   22.2650 C   0  0  0  0  0  0  0  0  0  0  0  0
  -21.3690  -28.8550   22.1470 N   0  0  0  0  0  0  0  0  0  0  0  0
  -23.4150  -28.4860   23.0400 O   0  0  0  0  0  0  0  0  0  0  0  0
  -20.8400  -29.4120   21.4890 H   0  0  0  0  0  0  0  0  0  0  0  0
  -18.0940  -27.3860   22.5550 C   0  0  0  0  0  0  0  0  0  0  0  0
  -20.6170  -27.8390   22.8800 C   0  0  0  0  0  3  0  0  0  0  0  0
  -20.8430  -26.4340   22.2750 C   0  0  0  0  0  2  0  0  0  0  0  0
  -19.7880  -26.0480   21.2340 C   0  0  0  0  0  2  0  0  0  0  0  0
  -18.3880  -26.0690   21.8560 C   0  0  0  0  0  2  0  0  0  0  0  0
  -19.1420  -28.2250   23.0210 C   0  0  0  0  0  0  0  0  0  0  0  0
  -18.8150  -29.4540   23.6320 C   0  0  0  0  0  3  0  0  0  0  0  0
  -17.4730  -29.8510   23.7810 C   0  0  0  0  0  3  0  0  0  0  0  0
  -16.4400  -29.0090   23.3360 C   0  0  0  0  0  3  0  0  0  0  0  0
  -16.7500  -27.7800   22.7280 C   0  0  0  0  0  3  0  0  0  0  0  0
  -25.7750  -32.1910   23.6210 C   0  0  0  0  0  3  0  0  0  0  0  0
  -25.4340  -33.5470   24.0680 N   0  0  0  0  0  0  0  0  0  0  0  0
  -25.6910  -34.6630   23.3720 C   0  0  0  0  0  0  0  0  0  0  0  0
  -26.3200  -34.6600   22.3100 O   0  0  0  0  0  0  0  0  0  0  0  0
  -24.8720  -33.6220   24.9030 H   0  0  0  0  0  0  0  0  0  0  0  0
  -23.8820  -36.4020   23.2290 C   0  0  0  0  0  1  0  0  0  0  0  0
  -25.1740  -35.9920   23.9510 C   0  0  0  0  0  3  0  0  0  0  0  0
  -27.3090  -36.9060   24.7490 C   0  0  0  0  0  1  0  0  0  0  0  0
  -26.1590  -37.0930   23.8690 N   0  0  0  0  0  0  0  0  0  0  0  0
  -25.7230  -37.9790   24.1020 H   0  0  0  0  0  0  0  0  0  0  0  0
  -26.3860  -31.3500   24.8060 C   0  0  1  0  0  0  0  0  0  0  0  0
  -25.3620  -30.9960   25.9090 C   0  0  0  0  0  1  0  0  0  0  0  0
  -26.9890  -30.0270   24.2760 C   0  0  0  0  0  1  0  0  0  0  0  0
  -27.5450  -32.1360   25.4650 C   0  0  0  0  0  1  0  0  0  0  0  0
  1  2  2  0
  1  5  1  0
  2  6  1  0
  4  3  1  0
  4  7  1  0
  5  4  2  0
  6 53  1  0
  6  3  2  0
  7  9  2  0
  7  8  1  0
  8 11  1  0
 10  8  1  0
 12 14  1  0
 12 13  1  0
 13  5  1  0
 14 13  1  0
 14 23  1  0
 15 21  1  0
 15 23  1  0
 16 21  1  0
 17 18  1  0
 17 16  1  0
 19 18  1  0
 19 28  1  0
 19 20  1  0
 21 20  1  0
 22 15  2  0
 23 24  1  0
 25 26  2  0
 26 45  1  0
 27 26  1  0
 27 30  1  0
 28 25  1  0
 28 29  1  0
 29 27  2  0
 30 31  1  0
 31 32  2  0
 33 36  1  0
 33 32  1  0
 34 33  2  0
 35 34  1  0
 35 30  2  0
 36 37  1  0
 37 42  2  0
 37 38  1  0
 38 39  2  0
 39 40  1  0
 40 44  1  0
 41 40  2  0
 42 41  1  0
 43 42  1  0
 45 46  1  0
 46 49  1  0
 46 48  1  0
 47 45  2  0
 50 51  1  0
 50 25  1  0
 52 50  1  0
 54 53  2  0
 57 55  1  6
 57 58  1  0
 57 54  1  0
 57 56  1  0
 59 61  1  0
 59 58  1  0
 60 71  2  0
 61 66  1  0
 62 70  1  0
 62 72  1  0
 63 69  1  0
 63 65  1  0
 64 70  1  0
 65 64  1  0
 66 65  2  0
 67 68  1  0
 67 61  2  0
 68 63  2  0
 69 62  1  0
 70 60  1  0
 72 74  2  0
 73 72  1  0
 75 73  1  0
 76 85  2  0
 76 81  1  0
 77 73  1  0
 77 81  1  0
 78 77  1  0
 79 80  1  0
 79 78  1  0
 80 76  1  0
 81 82  2  0
 82 83  1  0
 84 83  2  0
 85 84  1  0
 86 60  1  0
 86 87  1  0
 86 96  1  0
 87 90  1  0
 88 92  1  0
 88 87  1  0
 89 88  2  0
 92 91  1  0
 94 92  1  0
 94 95  1  0
 94 93  1  0
 96 99  1  1
 96 97  1  0
 98 96  1  0
M  ISO  4  15 100  23 100  58 101  59 101
M  END
>  <TORSDO>  (45) 
F 22

>  <SCORE>  (45) 
-11.814

>  <name>  (45) 
44

>  <ligand_id>  (45) 
44

>  <original_smiles>  (45) 
[H]c1c([H])c([H])c2c(c1[H])C([H])([H])C([H])([H])C([H])([H])C2([H])N([H])C(=O)C1([H])N(C(=O)C([H])(N([H])C(=O)C([H])(N([H])C([H])([H])[H])C([H])([H])[H])C(C([H])([H])[H])(C([H])([H])[H])C([H])([H])[H])C([H])([H])c2c([H])c(OC([H])([H])C(C([H])([H])[H])(C([H])([H])[H])C([H])([H])C([H])([H])c3c([H])c([H])c(C4([H])C([H])([H])C4([H])N([H])C(=O)N4C([H])([H])C([H])([H])C([H])([H])C([H])(n5nc(-c6c([H])c([H])c(Oc7c([H])c([H])c(F)c([H])c7F)c([H])c6[H])c(C(=O)N([H])[H])c5N([H])[H])C4([H])[H])c(C(=O)N([H])[H])c3[H])c([H])c([H])c2C1([H])[H]

>  <smiles>  (45) 
[H]c1c([H])c([H])c2c(c1[H])C([H])([H])C([H])([H])C([H])([H])C2([H])N([H])C(=O)C1([H])N(C(=O)C([H])(N([H])C(=O)C([H])(N([H])C([H])([H])[H])C([H])([H])[H])C(C([H])([H])[H])(C([H])([H])[H])C([H])([H])[H])C([H])([H])c2c([H])c(OC([H])([H])C(C([H])([H])[H])(C([H])([H])[H])C([H])([H])C([H])([H])c3c([H])c([H])c(C4([H])C([H])([H])C4([H])N([H])C(=O)N4C([H])([H])C([H])([H])C([H])([H])C([H])(n5nc(-c6c([H])c([H])c(Oc7c([H])c([H])c(F)c([H])c7F)c([H])c6[H])c(C(=O)N([H])[H])c5N([H])[H])C4([H])[H])c(C(=O)N([H])[H])c3[H])c([H])c([H])c2C1([H])[H]

$$$$
45:0:0
     RDKit          3D

 90 99  0  0  1  0  0  0  0  0999 V2000
  -31.4570  -20.3250   23.2340 C   0  0  0  0  0  2  0  0  0  0  0  0
  -30.5620  -21.3880   22.5800 C   0  0  0  0  0  2  0  0  0  0  0  0
  -31.5090  -19.1730   22.2320 C   0  0  0  0  0  2  0  0  0  0  0  0
  -29.1510  -19.6780   19.5990 C   0  0  0  0  0  2  0  0  0  0  0  0
  -29.5630  -20.6290   21.6810 C   0  0  0  0  0  3  0  0  0  0  0  0
  -30.0910  -19.0940   21.6540 C   0  0  0  0  0  3  0  0  0  0  0  0
  -29.4100  -21.2480   20.2470 C   0  0  0  0  0  3  0  0  0  0  0  0
  -30.0350  -18.3650   20.2540 C   0  0  0  0  0  3  0  0  0  0  0  0
  -30.5200  -15.4350   20.1070 C   0  0  0  0  0  0  0  0  0  0  0  0
  -30.4670  -13.0090   19.1750 C   0  0  0  0  0  2  0  0  0  0  0  0
  -29.5200  -12.8230   17.9630 C   0  0  0  0  0  2  0  0  0  0  0  0
  -28.0830  -12.5410   18.4350 C   0  0  0  0  0  2  0  0  0  0  0  0
  -27.6580  -13.4850   19.5860 C   0  0  0  0  0  3  0  0  0  0  0  0
  -28.7310  -13.6180   20.6880 C   0  0  0  0  0  2  0  0  0  0  0  0
  -29.9450  -14.1350   20.0330 N   0  0  0  0  0  0  0  0  0  0  0  0
  -31.7380  -15.4310   19.8720 O   0  0  0  0  0  0  0  0  0  0  0  0
  -29.7640  -16.7090   20.2420 N   0  0  0  0  0  0  0  0  0  0  0  0
  -28.7830  -16.5000   20.3610 H   0  0  0  0  0  0  0  0  0  0  0  0
  -25.2930  -14.0250   20.3710 C   0  0  0  0  0  0  0  0  0  0  0  0
  -24.2450  -13.2410   20.7610 C   0  0  0  0  0  0  0  0  0  0  0  0
  -24.7250  -11.8960   20.7320 C   0  0  0  0  0  0  0  0  0  0  0  0
  -26.3410  -13.1600   20.1180 N   0  0  0  0  0  0  0  0  0  0  0  0
  -26.0120  -11.8730   20.4050 N   0  0  0  0  0  0  0  0  0  0  0  0
  -24.0120  -10.6280   20.9390 C   0  0  0  0  0  0  0  0  0  0  0  0
  -24.4500   -9.6790   21.8910 C   0  0  0  0  0  3  0  0  0  0  0  0
  -23.7330   -8.4790   22.0860 C   0  0  0  0  0  3  0  0  0  0  0  0
  -22.5650   -8.2170   21.3310 C   0  0  0  0  0  0  0  0  0  0  0  0
  -22.1470   -9.1540   20.3700 C   0  0  0  0  0  3  0  0  0  0  0  0
  -22.8640  -10.3470   20.1730 C   0  0  0  0  0  3  0  0  0  0  0  0
  -21.8200   -7.0680   21.4350 O   0  0  0  0  0  0  0  0  0  0  0  0
  -21.7560   -6.3550   22.6050 C   0  0  0  0  0  0  0  0  0  0  0  0
  -21.2820   -6.9320   23.8030 C   0  0  0  0  0  3  0  0  0  0  0  0
  -21.1680   -6.1430   24.9660 C   0  0  0  0  0  3  0  0  0  0  0  0
  -21.5150   -4.7800   24.9320 C   0  0  0  0  0  0  0  0  0  0  0  0
  -21.9820   -4.2040   23.7370 C   0  0  0  0  0  3  0  0  0  0  0  0
  -22.1000   -4.9890   22.5770 C   0  0  0  0  0  0  0  0  0  0  0  0
  -22.5300   -4.4230   21.4220 F   0  0  0  0  0  0  0  0  0  0  0  0
  -21.3990   -4.0210   26.0450 F   0  0  0  0  0  0  0  0  0  0  0  0
  -22.8470  -13.7070   21.0410 C   0  0  0  0  0  0  0  0  0  0  0  0
  -22.1370  -13.0150   21.9250 N   0  0  0  0  0  0  0  0  0  0  0  0
  -22.3940  -14.7230   20.5130 O   0  0  0  0  0  0  0  0  0  0  0  0
  -22.5180  -12.1930   22.3710 H   0  0  0  0  0  0  0  0  0  0  0  0
  -21.2010  -13.3120   22.1580 H   0  0  0  0  0  0  0  0  0  0  0  0
  -25.4360  -15.3960   20.1820 N   0  0  0  0  0  0  0  0  0  0  0  0
  -24.6560  -16.0350   20.2870 H   0  0  0  0  0  0  0  0  0  0  0  0
  -26.2620  -15.8440   19.8070 H   0  0  0  0  0  0  0  0  0  0  0  0
  -29.0690  -23.1370   18.4320 C   0  0  0  0  0  1  0  0  0  0  0  0
  -28.6280  -22.8510   19.8710 C   0  0  0  0  0  3  0  0  0  0  0  0
  -28.5300  -24.4920   20.6160 C   0  0  0  0  0  2  0  0  0  0  0  0
  -28.4220  -26.0740   20.1460 O   0  0  0  0  0  0  0  0  0  0  0  0
  -24.6930  -31.9240   23.1980 C   0  0  0  0  0  0  0  0  0  0  0  0
  -27.3370  -27.0940   20.2050 C   0  0  0  0  0  0  0  0  0  0  0  0
  -23.5200  -30.5130   21.5580 C   0  0  0  0  0  3  0  0  0  0  0  0
  -24.9940  -28.9230   20.1470 C   0  0  0  0  0  0  0  0  0  0  0  0
  -26.0820  -30.7700   21.4040 C   0  0  0  0  0  2  0  0  0  0  0  0
  -26.1760  -29.3570   20.7600 C   0  0  0  0  0  0  0  0  0  0  0  0
  -27.3440  -28.4700   20.7530 C   0  0  0  0  0  3  0  0  0  0  0  0
  -26.1160  -26.8000   19.5540 C   0  0  0  0  0  3  0  0  0  0  0  0
  -24.9880  -27.6620   19.5220 C   0  0  0  0  0  3  0  0  0  0  0  0
  -23.7620  -29.8270   20.1850 C   0  0  0  0  0  2  0  0  0  0  0  0
  -24.7870  -31.0990   22.1050 N   0  0  0  0  0  0  0  0  0  0  0  0
  -23.5990  -32.1940   23.7180 O   0  0  0  0  0  0  0  0  0  0  0  0
  -22.8410  -29.5050   22.5220 C   0  0  0  0  0  0  0  0  0  0  0  0
  -21.5140  -29.3200   22.3970 N   0  0  0  0  0  0  0  0  0  0  0  0
  -23.5170  -28.8890   23.3500 O   0  0  0  0  0  0  0  0  0  0  0  0
  -21.0200  -29.8690   21.7050 H   0  0  0  0  0  0  0  0  0  0  0  0
  -18.1470  -28.0720   22.9100 C   0  0  0  0  0  0  0  0  0  0  0  0
  -20.7050  -28.3700   23.1680 C   0  0  0  0  0  3  0  0  0  0  0  0
  -20.8230  -26.9420   22.5850 C   0  0  0  0  0  2  0  0  0  0  0  0
  -19.7210  -26.6130   21.5710 C   0  0  0  0  0  2  0  0  0  0  0  0
  -18.3390  -26.7310   22.2200 C   0  0  0  0  0  2  0  0  0  0  0  0
  -19.2560  -28.8480   23.3400 C   0  0  0  0  0  0  0  0  0  0  0  0
  -19.0190  -30.1020   23.9450 C   0  0  0  0  0  3  0  0  0  0  0  0
  -17.7070  -30.5790   24.1260 C   0  0  0  0  0  3  0  0  0  0  0  0
  -16.6140  -29.8010   23.7100 C   0  0  0  0  0  3  0  0  0  0  0  0
  -16.8340  -28.5490   23.1080 C   0  0  0  0  0  3  0  0  0  0  0  0
  -25.9530  -32.5830   23.8350 C   0  0  0  0  0  3  0  0  0  0  0  0
  -25.6170  -33.9800   24.1680 N   0  0  0  0  0  0  0  0  0  0  0  0
  -25.9420  -35.0440   23.4220 C   0  0  0  0  0  0  0  0  0  0  0  0
  -26.6170  -34.9540   22.3930 O   0  0  0  0  0  0  0  0  0  0  0  0
  -25.0160  -34.1220   24.9660 H   0  0  0  0  0  0  0  0  0  0  0  0
  -24.1970  -36.8260   23.0710 C   0  0  0  0  0  1  0  0  0  0  0  0
  -25.4380  -36.4270   23.8860 C   0  0  0  0  0  3  0  0  0  0  0  0
  -27.5580  -37.3330   24.7350 C   0  0  0  0  0  1  0  0  0  0  0  0
  -26.4600  -37.4930   23.7830 N   0  0  0  0  0  0  0  0  0  0  0  0
  -26.0430  -38.4070   23.9300 H   0  0  0  0  0  0  0  0  0  0  0  0
  -26.4610  -31.8290   25.1260 C   0  0  1  0  0  0  0  0  0  0  0  0
  -25.3550  -31.5870   26.1830 C   0  0  0  0  0  1  0  0  0  0  0  0
  -27.0670  -30.4550   24.7570 C   0  0  0  0  0  1  0  0  0  0  0  0
  -27.5940  -32.6410   25.7960 C   0  0  0  0  0  1  0  0  0  0  0  0
  2  1  1  0
  3  1  1  0
  4  7  1  0
  4  8  1  0
  5  2  1  0
  6  5  1  0
  6  3  1  0
  7 48  1  0
  7  5  1  0
  8 17  1  0
  8  6  1  0
  9 17  1  0
 10 15  1  0
 11 12  1  0
 11 10  1  0
 13 12  1  0
 13 22  1  0
 13 14  1  0
 15  9  1  0
 15 14  1  0
 16  9  2  0
 17 18  1  0
 19 20  2  0
 20 39  1  0
 21 20  1  0
 21 24  1  0
 22 19  1  0
 22 23  1  0
 23 21  2  0
 24 25  1  0
 25 26  2  0
 27 30  1  0
 27 26  1  0
 28 27  2  0
 29 28  1  0
 29 24  2  0
 30 31  1  0
 31 32  1  0
 32 33  2  0
 34 33  1  0
 34 38  1  0
 35 34  2  0
 36 31  2  0
 36 35  1  0
 37 36  1  0
 39 40  1  0
 40 43  1  0
 40 42  1  0
 41 39  2  0
 44 45  1  0
 44 19  1  0
 46 44  1  0
 48 47  1  0
 48 49  1  0
 50 52  1  0
 50 49  1  0
 51 62  2  0
 52 57  1  0
 53 61  1  0
 53 63  1  0
 54 60  1  0
 54 56  1  0
 55 61  1  0
 56 55  1  0
 57 56  2  0
 58 52  2  0
 59 58  1  0
 59 54  2  0
 60 53  1  0
 61 51  1  0
 63 65  2  0
 64 63  1  0
 66 64  1  0
 67 76  2  0
 67 72  1  0
 68 64  1  0
 68 72  1  0
 69 68  1  0
 70 71  1  0
 70 69  1  0
 71 67  1  0
 72 73  2  0
 73 74  1  0
 75 74  2  0
 76 75  1  0
 77 51  1  0
 77 78  1  0
 77 87  1  0
 78 81  1  0
 79 83  1  0
 79 78  1  0
 80 79  2  0
 83 82  1  0
 85 83  1  0
 85 86  1  0
 85 84  1  0
 87 90  1  1
 87 88  1  0
 89 87  1  0
M  ISO  4   9 100  17 100  49 101  50 101
M  END
>  <TORSDO>  (46) 
F 18

>  <SCORE>  (46) 
-16.672

>  <name>  (46) 
45

>  <ligand_id>  (46) 
45

>  <original_smiles>  (46) 
[H]c1c([H])c([H])c2c(c1[H])C([H])([H])C([H])([H])C([H])([H])C2([H])N([H])C(=O)C1([H])N(C(=O)C([H])(N([H])C(=O)C([H])(N([H])C([H])([H])[H])C([H])([H])[H])C(C([H])([H])[H])(C([H])([H])[H])C([H])([H])[H])C([H])([H])c2c([H])c(OC([H])([H])C([H])(C([H])([H])[H])C3([H])C([H])([H])C([H])(N([H])C(=O)N4C([H])([H])C([H])([H])C([H])([H])C([H])(n5nc(-c6c([H])c([H])c(Oc7c([H])c([H])c(F)c([H])c7F)c([H])c6[H])c(C(=O)N([H])[H])c5N([H])[H])C4([H])[H])C4([H])C([H])([H])C([H])([H])C([H])([H])C43[H])c([H])c([H])c2C1([H])[H]

>  <smiles>  (46) 
[H]c1c([H])c([H])c2c(c1[H])C([H])([H])C([H])([H])C([H])([H])C2([H])N([H])C(=O)C1([H])N(C(=O)C([H])(N([H])C(=O)C([H])(N([H])C([H])([H])[H])C([H])([H])[H])C(C([H])([H])[H])(C([H])([H])[H])C([H])([H])[H])C([H])([H])c2c([H])c(OC([H])([H])C([H])(C([H])([H])[H])C3([H])C([H])([H])C([H])(N([H])C(=O)N4C([H])([H])C([H])([H])C([H])([H])C([H])(n5nc(-c6c([H])c([H])c(Oc7c([H])c([H])c(F)c([H])c7F)c([H])c6[H])c(C(=O)N([H])[H])c5N([H])[H])C4([H])[H])C4([H])C([H])([H])C([H])([H])C([H])([H])C43[H])c([H])c([H])c2C1([H])[H]

$$$$
46:0:0
     RDKit          3D

 91100  0  0  1  0  0  0  0  0999 V2000
  -25.1830  -18.6980   20.0270 C   0  0  0  0  0  2  0  0  0  0  0  0
  -25.2040  -18.3730   18.5630 C   0  0  0  0  0  2  0  0  0  0  0  0
  -27.6310  -18.9670   20.2070 C   0  0  0  0  0  2  0  0  0  0  0  0
  -26.3140  -19.7340   20.2760 C   0  0  0  0  0  3  0  0  0  0  0  0
  -26.4400  -19.2580   18.1390 C   0  0  0  0  0  3  0  0  0  0  0  0
  -27.5940  -18.3080   18.8210 C   0  0  0  0  0  3  0  0  0  0  0  0
  -26.2320  -20.6670   18.9830 C   0  0  0  0  0  3  0  0  0  0  0  0
  -28.9350  -18.2590   17.9420 C   0  0  0  0  0  2  0  0  0  0  0  0
  -29.7250  -16.8500   17.9030 C   0  0  0  0  0  2  0  0  0  0  0  0
  -30.9810  -16.6080   18.8530 C   0  0  0  0  0  2  0  0  0  0  0  0
  -31.4250  -14.9320   20.7190 C   0  0  0  0  0  0  0  0  0  0  0  0
  -31.3700  -12.5610   20.1860 C   0  0  0  0  0  2  0  0  0  0  0  0
  -30.5940  -12.3410   18.8670 C   0  0  0  0  0  2  0  0  0  0  0  0
  -29.0940  -12.1960   19.1400 C   0  0  0  0  0  2  0  0  0  0  0  0
  -28.5310  -13.3630   20.0260 C   0  0  0  0  0  3  0  0  0  0  0  0
  -29.4100  -13.5540   21.2800 C   0  0  0  0  0  2  0  0  0  0  0  0
  -30.7910  -13.7640   20.8500 N   0  0  0  0  0  0  0  0  0  0  0  0
  -32.6450  -15.0370   20.6580 O   0  0  0  0  0  0  0  0  0  0  0  0
  -30.6610  -15.9630   20.1580 N   0  0  0  0  0  0  0  0  0  0  0  0
  -29.8100  -16.2270   20.6690 H   0  0  0  0  0  0  0  0  0  0  0  0
  -26.0770  -14.1210   20.4660 C   0  0  0  0  0  0  0  0  0  0  0  0
  -24.9550  -13.4060   20.7280 C   0  0  0  0  0  0  0  0  0  0  0  0
  -25.3760  -12.0480   20.8490 C   0  0  0  0  0  0  0  0  0  0  0  0
  -27.1220  -13.1710   20.3800 N   0  0  0  0  0  0  0  0  0  0  0  0
  -26.6900  -11.9610   20.7200 N   0  0  0  0  0  0  0  0  0  0  0  0
  -24.6350  -10.7880   20.9840 C   0  0  0  0  0  0  0  0  0  0  0  0
  -24.8690   -9.8140   22.0130 C   0  0  0  0  0  3  0  0  0  0  0  0
  -24.0570   -8.6730   22.1350 C   0  0  0  0  0  3  0  0  0  0  0  0
  -22.9890   -8.4660   21.2340 C   0  0  0  0  0  0  0  0  0  0  0  0
  -22.8420   -9.3200   20.1320 C   0  0  0  0  0  3  0  0  0  0  0  0
  -23.6540  -10.4570   20.0100 C   0  0  0  0  0  3  0  0  0  0  0  0
  -22.1200   -7.3890   21.3310 O   0  0  0  0  0  0  0  0  0  0  0  0
  -21.8370   -6.7400   22.5150 C   0  0  0  0  0  0  0  0  0  0  0  0
  -21.1630   -7.3840   23.5820 C   0  0  0  0  0  3  0  0  0  0  0  0
  -20.8290   -6.6690   24.7450 C   0  0  0  0  0  3  0  0  0  0  0  0
  -21.1560   -5.2970   24.8490 C   0  0  0  0  0  0  0  0  0  0  0  0
  -21.8190   -4.6480   23.7900 C   0  0  0  0  0  3  0  0  0  0  0  0
  -22.1410   -5.3660   22.6220 C   0  0  0  0  0  0  0  0  0  0  0  0
  -22.7350   -4.7210   21.5710 F   0  0  0  0  0  0  0  0  0  0  0  0
  -20.8160   -4.6120   25.9400 F   0  0  0  0  0  0  0  0  0  0  0  0
  -23.5150  -13.9500   20.8300 C   0  0  0  0  0  0  0  0  0  0  0  0
  -22.7680  -13.2970   21.6870 N   0  0  0  0  0  0  0  0  0  0  0  0
  -23.1380  -14.9580   20.2060 O   0  0  0  0  0  0  0  0  0  0  0  0
  -23.1790  -12.4650   22.1050 H   0  0  0  0  0  0  0  0  0  0  0  0
  -21.7790  -13.5930   21.8210 H   0  0  0  0  0  0  0  0  0  0  0  0
  -26.2970  -15.4820   20.3870 N   0  0  0  0  0  0  0  0  0  0  0  0
  -25.5670  -15.7130   21.0180 H   0  0  0  0  0  0  0  0  0  0  0  0
  -27.2670  -15.7450   20.5560 H   0  0  0  0  0  0  0  0  0  0  0  0
  -26.8740  -22.2170   18.4890 C   0  0  0  0  0  3  0  0  0  0  0  0
  -27.3680  -23.8060   19.1440 C   0  0  0  0  0  3  0  0  0  0  0  0
  -28.1720  -25.2340   18.7640 O   0  0  0  0  0  0  0  0  0  0  0  0
  -25.4080  -30.7500   22.9960 C   0  0  0  0  0  0  0  0  0  0  0  0
  -27.5180  -26.5190   18.9610 C   0  0  0  0  0  0  0  0  0  0  0  0
  -24.1710  -29.7510   21.1250 C   0  0  0  0  0  3  0  0  0  0  0  0
  -25.5440  -28.5510   19.3250 C   0  0  0  0  0  0  0  0  0  0  0  0
  -26.7550  -29.8760   21.0220 C   0  0  0  0  0  2  0  0  0  0  0  0
  -26.7400  -28.6830   20.0360 C   0  0  0  0  0  0  0  0  0  0  0  0
  -27.7680  -27.6640   19.8440 C   0  0  0  0  0  3  0  0  0  0  0  0
  -26.3860  -26.6090   18.1470 C   0  0  0  0  0  3  0  0  0  0  0  0
  -25.4040  -27.5700   18.3390 C   0  0  0  0  0  3  0  0  0  0  0  0
  -24.3780  -29.4710   19.6120 C   0  0  0  0  0  2  0  0  0  0  0  0
  -25.4640  -30.1690   21.7580 N   0  0  0  0  0  0  0  0  0  0  0  0
  -24.3250  -30.9200   23.5770 O   0  0  0  0  0  0  0  0  0  0  0  0
  -23.5030  -28.5460   21.8360 C   0  0  0  0  0  0  0  0  0  0  0  0
  -22.1790  -28.3810   21.6880 N   0  0  0  0  0  0  0  0  0  0  0  0
  -24.1860  -27.7810   22.5130 O   0  0  0  0  0  0  0  0  0  0  0  0
  -21.6680  -29.0730   21.1600 H   0  0  0  0  0  0  0  0  0  0  0  0
  -18.8430  -26.9560   21.8900 C   0  0  0  0  0  0  0  0  0  0  0  0
  -21.3890  -27.2860   22.2550 C   0  0  0  0  0  3  0  0  0  0  0  0
  -21.5550  -25.9760   21.4450 C   0  0  0  0  0  2  0  0  0  0  0  0
  -20.4890  -25.7990   20.3560 C   0  0  0  0  0  2  0  0  0  0  0  0
  -19.0910  -25.7640   20.9810 C   0  0  0  0  0  2  0  0  0  0  0  0
  -19.9190  -27.6760   22.4800 C   0  0  0  0  0  0  0  0  0  0  0  0
  -19.6250  -28.7890   23.2960 C   0  0  0  0  0  3  0  0  0  0  0  0
  -18.2940  -29.1920   23.5140 C   0  0  0  0  0  3  0  0  0  0  0  0
  -17.2350  -28.4720   22.9340 C   0  0  0  0  0  3  0  0  0  0  0  0
  -17.5100  -27.3530   22.1300 C   0  0  0  0  0  3  0  0  0  0  0  0
  -26.6920  -31.2520   23.7160 C   0  0  0  0  0  3  0  0  0  0  0  0
  -26.3410  -32.4990   24.4150 N   0  0  0  0  0  0  0  0  0  0  0  0
  -26.6470  -33.7350   24.0070 C   0  0  0  0  0  0  0  0  0  0  0  0
  -27.3180  -33.9540   22.9980 O   0  0  0  0  0  0  0  0  0  0  0  0
  -25.7420  -32.4010   25.2210 H   0  0  0  0  0  0  0  0  0  0  0  0
  -24.8880  -35.5370   24.2020 C   0  0  0  0  0  1  0  0  0  0  0  0
  -26.1300  -34.9140   24.8580 C   0  0  0  0  0  3  0  0  0  0  0  0
  -28.2340  -35.5620   25.9520 C   0  0  0  0  0  1  0  0  0  0  0  0
  -27.1360  -35.9730   25.0840 N   0  0  0  0  0  0  0  0  0  0  0  0
  -26.6980  -36.7950   25.4940 H   0  0  0  0  0  0  0  0  0  0  0  0
  -27.2810  -30.2050   24.7450 C   0  0  1  0  0  0  0  0  0  0  0  0
  -26.2360  -29.6920   25.7580 C   0  0  0  0  0  1  0  0  0  0  0  0
  -27.8910  -28.9820   24.0240 C   0  0  0  0  0  1  0  0  0  0  0  0
  -28.4210  -30.8490   25.5610 C   0  0  0  0  0  1  0  0  0  0  0  0
  2  1  1  0
  3  4  1  0
  4  1  1  0
  5  2  1  0
  5  6  1  0
  5  7  1  0
  6  8  1  0
  6  3  1  0
  7 49  1  0
  7  4  1  0
  9  8  1  0
  9 10  1  0
 10 19  1  0
 11 17  1  0
 12 17  1  0
 13 14  1  0
 13 12  1  0
 15 14  1  0
 15 24  1  0
 15 16  1  0
 17 16  1  0
 18 11  2  0
 19 20  1  0
 19 11  1  0
 21 22  2  0
 22 41  1  0
 22 23  1  0
 23 26  1  0
 24 21  1  0
 24 25  1  0
 25 23  2  0
 26 27  1  0
 27 28  2  0
 29 32  1  0
 29 28  1  0
 30 29  2  0
 31 30  1  0
 31 26  2  0
 32 33  1  0
 33 38  2  0
 33 34  1  0
 34 35  2  0
 35 36  1  0
 36 40  1  0
 37 36  2  0
 38 37  1  0
 39 38  1  0
 41 42  1  0
 42 45  1  0
 42 44  1  0
 43 41  2  0
 46 21  1  0
 46 48  1  0
 46 47  1  0
 49 50  2  0
 51 53  1  0
 51 50  1  0
 52 63  2  0
 53 58  1  0
 54 62  1  0
 54 64  1  0
 55 61  1  0
 55 57  1  0
 56 62  1  0
 57 56  1  0
 58 57  2  0
 59 60  1  0
 59 53  2  0
 60 55  2  0
 61 54  1  0
 62 52  1  0
 64 66  2  0
 65 64  1  0
 67 65  1  0
 68 77  2  0
 68 73  1  0
 69 65  1  0
 69 73  1  0
 70 69  1  0
 71 72  1  0
 71 70  1  0
 72 68  1  0
 73 74  2  0
 74 75  1  0
 76 75  2  0
 77 76  1  0
 78 52  1  0
 78 79  1  0
 78 88  1  0
 79 82  1  0
 80 79  1  0
 80 84  1  0
 81 80  2  0
 84 83  1  0
 84 86  1  0
 86 87  1  0
 86 85  1  0
 88 91  1  1
 88 89  1  0
 90 88  1  0
M  ISO  4  11 100  19 100  50 101  51 101
M  END
>  <TORSDO>  (47) 
F 21

>  <SCORE>  (47) 
-5.043

>  <name>  (47) 
46

>  <ligand_id>  (47) 
46

>  <original_smiles>  (47) 
[H]c1c([H])c([H])c2c(c1[H])C([H])([H])C([H])([H])C([H])([H])C2([H])N([H])C(=O)C1([H])N(C(=O)C([H])(N([H])C(=O)C([H])(N([H])C([H])([H])[H])C([H])([H])[H])C(C([H])([H])[H])(C([H])([H])[H])C([H])([H])[H])C([H])([H])c2c([H])c(OC([H])([H])C([H])([H])C3([H])C4([H])C([H])([H])C([H])([H])C3([H])C([H])(C([H])([H])C([H])([H])C([H])([H])N([H])C(=O)N3C([H])([H])C([H])([H])C([H])([H])C([H])(n5nc(-c6c([H])c([H])c(Oc7c([H])c([H])c(F)c([H])c7F)c([H])c6[H])c(C(=O)N([H])[H])c5N([H])[H])C3([H])[H])C4([H])[H])c([H])c([H])c2C1([H])[H]

>  <smiles>  (47) 
[H]c1c([H])c([H])c2c(c1[H])C([H])([H])C([H])([H])C([H])([H])C2([H])N([H])C(=O)C1([H])N(C(=O)C([H])(N([H])C(=O)C([H])(N([H])C([H])([H])[H])C([H])([H])[H])C(C([H])([H])[H])(C([H])([H])[H])C([H])([H])[H])C([H])([H])c2c([H])c(OC([H])([H])C([H])([H])C3([H])C4([H])C([H])([H])C([H])([H])C3([H])C([H])(C([H])([H])C([H])([H])C([H])([H])N([H])C(=O)N3C([H])([H])C([H])([H])C([H])([H])C([H])(n5nc(-c6c([H])c([H])c(Oc7c([H])c([H])c(F)c([H])c7F)c([H])c6[H])c(C(=O)N([H])[H])c5N([H])[H])C3([H])[H])C4([H])[H])c([H])c([H])c2C1([H])[H]

$$$$
47:0:0
     RDKit          3D

 91100  0  0  1  0  0  0  0  0999 V2000
  -30.9050  -15.5950   20.7430 C   0  0  0  0  0  0  0  0  0  0  0  0
  -30.8410  -13.1130   19.9530 C   0  0  0  0  0  2  0  0  0  0  0  0
  -30.0180  -12.8070   18.6820 C   0  0  0  0  0  2  0  0  0  0  0  0
  -28.5650  -12.5150   19.0550 C   0  0  0  0  0  2  0  0  0  0  0  0
  -28.0150  -13.5710   20.0490 C   0  0  0  0  0  3  0  0  0  0  0  0
  -28.9790  -13.8630   21.2200 C   0  0  0  0  0  2  0  0  0  0  0  0
  -30.2390  -14.3320   20.6110 N   0  0  0  0  0  0  0  0  0  0  0  0
  -32.1220  -15.4110   20.8900 O   0  0  0  0  0  0  0  0  0  0  0  0
  -31.2280  -18.8250   18.5580 C   0  0  0  0  0  2  0  0  0  0  0  0
  -29.9310  -19.6450   18.7370 C   0  0  0  0  0  2  0  0  0  0  0  0
  -28.4520  -21.1470   20.4030 C   0  0  0  0  0  2  0  0  0  0  0  0
  -30.3930  -21.5860   20.5220 C   0  0  0  0  0  2  0  0  0  0  0  0
  -30.0170  -18.4400   20.9320 C   0  0  0  0  0  2  0  0  0  0  0  0
  -29.1270  -22.6540   20.6400 C   0  0  0  0  0  3  0  0  0  0  0  0
  -31.2090  -17.3240   19.0020 C   0  0  0  0  0  3  0  0  0  0  0  0
  -29.7210  -20.0860   20.1850 C   0  0  2  0  0  0  0  0  0  0  0  0
  -30.4260  -16.9520   20.2450 N   0  0  0  0  0  0  0  0  0  0  0  0
  -25.6070  -14.1620   20.6180 C   0  0  0  0  0  0  0  0  0  0  0  0
  -24.5060  -13.4010   20.8940 C   0  0  0  0  0  0  0  0  0  0  0  0
  -24.9540  -12.0450   20.9170 C   0  0  0  0  0  0  0  0  0  0  0  0
  -26.6550  -13.2730   20.4710 N   0  0  0  0  0  0  0  0  0  0  0  0
  -26.2700  -11.9920   20.7200 N   0  0  0  0  0  0  0  0  0  0  0  0
  -24.1940  -10.7950   21.0530 C   0  0  0  0  0  0  0  0  0  0  0  0
  -24.5530   -9.8080   21.9960 C   0  0  0  0  0  3  0  0  0  0  0  0
  -23.7930   -8.6250   22.1220 C   0  0  0  0  0  3  0  0  0  0  0  0
  -22.6550   -8.4240   21.3060 C   0  0  0  0  0  0  0  0  0  0  0  0
  -22.3130   -9.3980   20.3530 C   0  0  0  0  0  3  0  0  0  0  0  0
  -23.0750  -10.5720   20.2250 C   0  0  0  0  0  3  0  0  0  0  0  0
  -21.8730   -7.2960   21.3410 O   0  0  0  0  0  0  0  0  0  0  0  0
  -21.7640   -6.5320   22.4750 C   0  0  0  0  0  0  0  0  0  0  0  0
  -21.3070   -7.0740   23.6960 C   0  0  0  0  0  3  0  0  0  0  0  0
  -21.1400   -6.2400   24.8190 C   0  0  0  0  0  3  0  0  0  0  0  0
  -21.4220   -4.8640   24.7240 C   0  0  0  0  0  0  0  0  0  0  0  0
  -21.8700   -4.3210   23.5070 C   0  0  0  0  0  3  0  0  0  0  0  0
  -22.0380   -5.1530   22.3860 C   0  0  0  0  0  0  0  0  0  0  0  0
  -22.4520   -4.6220   21.2090 F   0  0  0  0  0  0  0  0  0  0  0  0
  -21.2560   -4.0600   25.7990 F   0  0  0  0  0  0  0  0  0  0  0  0
  -23.0960  -13.9010   21.0240 C   0  0  0  0  0  0  0  0  0  0  0  0
  -22.2850  -13.2580   21.8560 N   0  0  0  0  0  0  0  0  0  0  0  0
  -22.7180  -14.9030   20.4180 O   0  0  0  0  0  0  0  0  0  0  0  0
  -22.5950  -12.4550   22.3850 H   0  0  0  0  0  0  0  0  0  0  0  0
  -21.3350  -13.5820   21.9760 H   0  0  0  0  0  0  0  0  0  0  0  0
  -25.7980  -15.5310   20.4410 N   0  0  0  0  0  0  0  0  0  0  0  0
  -25.0280  -16.1920   20.4680 H   0  0  0  0  0  0  0  0  0  0  0  0
  -26.6830  -15.9660   20.2200 H   0  0  0  0  0  0  0  0  0  0  0  0
  -28.7040  -24.3310   19.9630 C   0  0  0  0  0  2  0  0  0  0  0  0
  -28.7140  -25.9580   20.4100 O   0  0  0  0  0  0  0  0  0  0  0  0
  -24.8060  -31.8620   23.2360 C   0  0  0  0  0  0  0  0  0  0  0  0
  -27.6780  -27.0560   20.2820 C   0  0  0  0  0  0  0  0  0  0  0  0
  -23.7350  -30.4210   21.5510 C   0  0  0  0  0  3  0  0  0  0  0  0
  -25.3060  -28.8810   20.1620 C   0  0  0  0  0  0  0  0  0  0  0  0
  -26.2950  -30.7210   21.5020 C   0  0  0  0  0  2  0  0  0  0  0  0
  -26.4500  -29.3110   20.8470 C   0  0  0  0  0  0  0  0  0  0  0  0
  -27.6240  -28.4180   20.8900 C   0  0  0  0  0  3  0  0  0  0  0  0
  -26.5080  -26.8070   19.5300 C   0  0  0  0  0  3  0  0  0  0  0  0
  -25.3670  -27.6550   19.4800 C   0  0  0  0  0  3  0  0  0  0  0  0
  -24.0500  -29.7600   20.1790 C   0  0  0  0  0  2  0  0  0  0  0  0
  -24.9650  -31.0310   22.1510 N   0  0  0  0  0  0  0  0  0  0  0  0
  -23.6880  -32.1000   23.7200 O   0  0  0  0  0  0  0  0  0  0  0  0
  -23.0500  -29.3920   22.4870 C   0  0  0  0  0  0  0  0  0  0  0  0
  -21.7280  -29.1930   22.3440 N   0  0  0  0  0  0  0  0  0  0  0  0
  -23.7210  -28.7730   23.3170 O   0  0  0  0  0  0  0  0  0  0  0  0
  -21.2360  -29.7500   21.6580 H   0  0  0  0  0  0  0  0  0  0  0  0
  -18.3620  -27.9180   22.8240 C   0  0  0  0  0  0  0  0  0  0  0  0
  -20.9200  -28.2190   23.0870 C   0  0  0  0  0  3  0  0  0  0  0  0
  -21.0410  -26.8070   22.4650 C   0  0  0  0  0  2  0  0  0  0  0  0
  -19.9410  -26.5050   21.4420 C   0  0  0  0  0  2  0  0  0  0  0  0
  -18.5590  -26.5990   22.0960 C   0  0  0  0  0  2  0  0  0  0  0  0
  -19.4700  -28.6860   23.2770 C   0  0  0  0  0  0  0  0  0  0  0  0
  -19.2290  -29.9180   23.9230 C   0  0  0  0  0  3  0  0  0  0  0  0
  -17.9160  -30.3850   24.1200 C   0  0  0  0  0  3  0  0  0  0  0  0
  -16.8260  -29.6150   23.6800 C   0  0  0  0  0  3  0  0  0  0  0  0
  -17.0480  -28.3840   23.0370 C   0  0  0  0  0  3  0  0  0  0  0  0
  -26.0230  -32.5600   23.9160 C   0  0  0  0  0  3  0  0  0  0  0  0
  -25.6430  -33.9540   24.2130 N   0  0  0  0  0  0  0  0  0  0  0  0
  -25.9670  -35.0160   23.4600 C   0  0  0  0  0  0  0  0  0  0  0  0
  -26.6820  -34.9300   22.4600 O   0  0  0  0  0  0  0  0  0  0  0  0
  -25.0180  -34.0940   24.9930 H   0  0  0  0  0  0  0  0  0  0  0  0
  -24.1900  -36.7470   23.0200 C   0  0  0  0  0  1  0  0  0  0  0  0
  -25.4140  -36.3940   23.8800 C   0  0  0  0  0  3  0  0  0  0  0  0
  -27.4810  -37.3790   24.7750 C   0  0  0  0  0  1  0  0  0  0  0  0
  -26.4120  -37.4840   23.7860 N   0  0  0  0  0  0  0  0  0  0  0  0
  -25.9650  -38.3910   23.8980 H   0  0  0  0  0  0  0  0  0  0  0  0
  -26.4850  -31.8370   25.2410 C   0  0  1  0  0  0  0  0  0  0  0  0
  -25.3400  -31.5910   26.2540 C   0  0  0  0  0  1  0  0  0  0  0  0
  -27.1340  -30.4700   24.9280 C   0  0  0  0  0  1  0  0  0  0  0  0
  -27.5700  -32.6820   25.9440 C   0  0  0  0  0  1  0  0  0  0  0  0
  -31.0240  -16.3870   17.7590 C   0  0  0  0  0  2  0  0  0  0  0  0
  -32.0880  -14.7260   16.0640 C   0  0  0  0  0  1  0  0  0  0  0  0
  -33.4830  -16.6190   16.9430 C   0  0  0  0  0  1  0  0  0  0  0  0
  -32.3200  -15.6590   17.2740 C   0  0  0  0  0  3  0  0  0  0  0  0
  1  8  2  0
  2  7  1  0
  3  4  1  0
  3  2  1  0
  5  4  1  0
  5 21  1  0
  5  6  1  0
  7  1  1  0
  7  6  1  0
  9 10  1  0
  9 15  1  0
 11 14  1  0
 12 14  1  0
 14 46  1  0
 15 88  1  0
 15 17  1  0
 16 10  1  6
 16 11  1  0
 16 12  1  0
 16 13  1  0
 17  1  1  0
 17 13  1  0
 18 19  2  0
 19 20  1  0
 19 38  1  0
 20 23  1  0
 21 18  1  0
 21 22  1  0
 22 20  2  0
 23 24  1  0
 24 25  2  0
 26 29  1  0
 26 25  1  0
 27 26  2  0
 28 27  1  0
 28 23  2  0
 29 30  1  0
 30 31  1  0
 31 32  2  0
 33 32  1  0
 33 37  1  0
 34 33  2  0
 35 30  2  0
 35 34  1  0
 36 35  1  0
 38 39  1  0
 39 42  1  0
 39 41  1  0
 40 38  2  0
 43 44  1  0
 43 18  1  0
 45 43  1  0
 46 47  1  0
 48 59  2  0
 49 47  1  0
 49 54  1  0
 50 58  1  0
 50 60  1  0
 51 57  1  0
 51 53  1  0
 52 58  1  0
 53 54  2  0
 53 52  1  0
 55 49  2  0
 56 55  1  0
 56 51  2  0
 57 50  1  0
 58 48  1  0
 60 62  2  0
 61 60  1  0
 63 61  1  0
 64 73  2  0
 64 69  1  0
 65 61  1  0
 65 69  1  0
 66 65  1  0
 67 68  1  0
 67 66  1  0
 68 64  1  0
 69 70  2  0
 70 71  1  0
 72 71  2  0
 73 72  1  0
 74 48  1  0
 74 75  1  0
 74 84  1  0
 75 78  1  0
 76 80  1  0
 76 75  1  0
 77 76  2  0
 80 79  1  0
 82 80  1  0
 82 83  1  0
 82 81  1  0
 84 87  1  1
 84 85  1  0
 86 84  1  0
 89 91  1  0
 90 91  1  0
 91 88  1  0
M  ISO  4   1 100  17 100  46 101  47 101
M  END
>  <TORSDO>  (48) 
F 18

>  <SCORE>  (48) 
-14.660

>  <name>  (48) 
47

>  <ligand_id>  (48) 
47

>  <original_smiles>  (48) 
[H]c1c([H])c([H])c2c(c1[H])C([H])([H])C([H])([H])C([H])([H])C2([H])N([H])C(=O)C1([H])N(C(=O)C([H])(N([H])C(=O)C([H])(N([H])C([H])([H])[H])C([H])([H])[H])C(C([H])([H])[H])(C([H])([H])[H])C([H])([H])[H])C([H])([H])c2c([H])c(OC([H])([H])C3([H])C([H])([H])C4(C([H])([H])N(C(=O)N5C([H])([H])C([H])([H])C([H])([H])C([H])(n6nc(-c7c([H])c([H])c(Oc8c([H])c([H])c(F)c([H])c8F)c([H])c7[H])c(C(=O)N([H])[H])c6N([H])[H])C5([H])[H])C([H])(C([H])([H])C([H])(C([H])([H])[H])C([H])([H])[H])C([H])([H])C4([H])[H])C3([H])[H])c([H])c([H])c2C1([H])[H]

>  <smiles>  (48) 
[H]c1c([H])c([H])c2c(c1[H])C([H])([H])C([H])([H])C([H])([H])C2([H])N([H])C(=O)C1([H])N(C(=O)C([H])(N([H])C(=O)C([H])(N([H])C([H])([H])[H])C([H])([H])[H])C(C([H])([H])[H])(C([H])([H])[H])C([H])([H])[H])C([H])([H])c2c([H])c(OC([H])([H])C3([H])C([H])([H])C4(C([H])([H])N(C(=O)N5C([H])([H])C([H])([H])C([H])([H])C([H])(n6nc(-c7c([H])c([H])c(Oc8c([H])c([H])c(F)c([H])c8F)c([H])c7[H])c(C(=O)N([H])[H])c6N([H])[H])C5([H])[H])C([H])(C([H])([H])C([H])(C([H])([H])[H])C([H])([H])[H])C([H])([H])C4([H])[H])C3([H])[H])c([H])c([H])c2C1([H])[H]

$$$$
48:0:0
     RDKit          3D

 92101  0  0  1  0  0  0  0  0999 V2000
  -30.8780  -21.5760   19.4520 C   0  0  0  0  0  2  0  0  0  0  0  0
  -30.1030  -20.7530   20.4550 C   0  0  0  0  0  3  0  0  0  0  0  0
  -28.7080  -21.2450   20.4980 C   0  0  0  0  0  3  0  0  0  0  0  0
  -29.2250  -19.6050   20.0110 C   0  0  0  0  0  3  0  0  0  0  0  0
  -28.9450  -22.9450   20.1700 C   0  0  0  0  0  3  0  0  0  0  0  0
  -30.2770  -23.0200   19.3240 C   0  0  2  0  0  0  0  0  0  0  0  0
  -29.6430  -24.7660   17.4170 C   0  0  0  0  0  1  0  0  0  0  0  0
  -31.2960  -22.9860   16.8910 C   0  0  0  0  0  1  0  0  0  0  0  0
  -30.0670  -23.3240   17.7830 C   0  0  0  0  0  3  0  0  0  0  0  0
  -31.7820  -23.8680   21.3670 C   0  0  0  0  0  1  0  0  0  0  0  0
  -31.2490  -24.0880   19.9350 C   0  0  0  0  0  2  0  0  0  0  0  0
  -29.8140  -18.0800   20.6590 C   0  0  0  0  0  2  0  0  0  0  0  0
  -30.3540  -15.2380   20.2960 C   0  0  0  0  0  0  0  0  0  0  0  0
  -30.3230  -12.8060   19.4240 C   0  0  0  0  0  2  0  0  0  0  0  0
  -29.3800  -12.5900   18.2150 C   0  0  0  0  0  2  0  0  0  0  0  0
  -27.9410  -12.3230   18.6880 C   0  0  0  0  0  2  0  0  0  0  0  0
  -27.5000  -13.3030   19.8040 C   0  0  0  0  0  3  0  0  0  0  0  0
  -28.5650  -13.4610   20.9070 C   0  0  0  0  0  2  0  0  0  0  0  0
  -29.7840  -13.9450   20.2420 N   0  0  0  0  0  0  0  0  0  0  0  0
  -31.5770  -15.2580   20.1080 O   0  0  0  0  0  0  0  0  0  0  0  0
  -29.5670  -16.4770   20.3610 N   0  0  0  0  0  0  0  0  0  0  0  0
  -28.5820  -16.2560   20.3370 H   0  0  0  0  0  0  0  0  0  0  0  0
  -25.1480  -13.8590   20.6190 C   0  0  0  0  0  0  0  0  0  0  0  0
  -24.0960  -13.0770   21.0020 C   0  0  0  0  0  0  0  0  0  0  0  0
  -24.5620  -11.7280   20.9460 C   0  0  0  0  0  0  0  0  0  0  0  0
  -26.1850  -12.9870   20.3400 N   0  0  0  0  0  0  0  0  0  0  0  0
  -25.8460  -11.6970   20.6060 N   0  0  0  0  0  0  0  0  0  0  0  0
  -23.8410  -10.4630   21.1330 C   0  0  0  0  0  0  0  0  0  0  0  0
  -24.2760   -9.4930   22.0630 C   0  0  0  0  0  3  0  0  0  0  0  0
  -23.5510   -8.2950   22.2390 C   0  0  0  0  0  3  0  0  0  0  0  0
  -22.3770   -8.0580   21.4850 C   0  0  0  0  0  0  0  0  0  0  0  0
  -21.9620   -9.0160   20.5440 C   0  0  0  0  0  3  0  0  0  0  0  0
  -22.6880  -10.2060   20.3660 C   0  0  0  0  0  3  0  0  0  0  0  0
  -21.6230   -6.9130   21.5730 O   0  0  0  0  0  0  0  0  0  0  0  0
  -21.5610   -6.1790   22.7310 C   0  0  0  0  0  0  0  0  0  0  0  0
  -21.0710   -6.7290   23.9350 C   0  0  0  0  0  3  0  0  0  0  0  0
  -20.9550   -5.9190   25.0830 C   0  0  0  0  0  3  0  0  0  0  0  0
  -21.3210   -4.5610   25.0270 C   0  0  0  0  0  0  0  0  0  0  0  0
  -21.8040   -4.0110   23.8270 C   0  0  0  0  0  3  0  0  0  0  0  0
  -21.9190   -4.8170   22.6810 C   0  0  0  0  0  0  0  0  0  0  0  0
  -22.3650   -4.2760   21.5220 F   0  0  0  0  0  0  0  0  0  0  0  0
  -21.2030   -3.7810   26.1270 F   0  0  0  0  0  0  0  0  0  0  0  0
  -22.7030  -13.5500   21.3030 C   0  0  0  0  0  0  0  0  0  0  0  0
  -21.9920  -12.8440   22.1740 N   0  0  0  0  0  0  0  0  0  0  0  0
  -22.2580  -14.5820   20.8020 O   0  0  0  0  0  0  0  0  0  0  0  0
  -22.3650  -12.0080   22.5990 H   0  0  0  0  0  0  0  0  0  0  0  0
  -21.0590  -13.1420   22.4180 H   0  0  0  0  0  0  0  0  0  0  0  0
  -25.2990  -15.2330   20.4550 N   0  0  0  0  0  0  0  0  0  0  0  0
  -24.5240  -15.8720   20.5960 H   0  0  0  0  0  0  0  0  0  0  0  0
  -26.1200  -15.6890   20.0750 H   0  0  0  0  0  0  0  0  0  0  0  0
  -27.8530  -24.3480   20.0950 C   0  0  0  0  0  2  0  0  0  0  0  0
  -28.0970  -25.9620   20.1610 O   0  0  0  0  0  0  0  0  0  0  0  0
  -24.5290  -31.8410   23.1720 C   0  0  0  0  0  0  0  0  0  0  0  0
  -27.0680  -27.0260   20.1120 C   0  0  0  0  0  0  0  0  0  0  0  0
  -23.3220  -30.4550   21.5300 C   0  0  0  0  0  3  0  0  0  0  0  0
  -24.7610  -28.8730   20.0860 C   0  0  0  0  0  0  0  0  0  0  0  0
  -25.8840  -30.6880   21.3630 C   0  0  0  0  0  2  0  0  0  0  0  0
  -25.9500  -29.2860   20.6970 C   0  0  0  0  0  0  0  0  0  0  0  0
  -27.1000  -28.3820   20.6870 C   0  0  0  0  0  3  0  0  0  0  0  0
  -25.8490  -26.7490   19.4550 C   0  0  0  0  0  3  0  0  0  0  0  0
  -24.7330  -27.6240   19.4430 C   0  0  0  0  0  3  0  0  0  0  0  0
  -23.5400  -29.7870   20.1470 C   0  0  0  0  0  2  0  0  0  0  0  0
  -24.6000  -31.0190   22.0770 N   0  0  0  0  0  0  0  0  0  0  0  0
  -23.4440  -32.1270   23.7040 O   0  0  0  0  0  0  0  0  0  0  0  0
  -22.6370  -29.4510   22.4930 C   0  0  0  0  0  0  0  0  0  0  0  0
  -21.3050  -29.2910   22.3800 N   0  0  0  0  0  0  0  0  0  0  0  0
  -23.3090  -28.8170   23.3100 O   0  0  0  0  0  0  0  0  0  0  0  0
  -20.8170  -29.8540   21.6970 H   0  0  0  0  0  0  0  0  0  0  0  0
  -17.9200  -28.1030   22.9110 C   0  0  0  0  0  0  0  0  0  0  0  0
  -20.4840  -28.3500   23.1500 C   0  0  0  0  0  3  0  0  0  0  0  0
  -20.5720  -26.9240   22.5570 C   0  0  0  0  0  2  0  0  0  0  0  0
  -19.4560  -26.6200   21.5510 C   0  0  0  0  0  2  0  0  0  0  0  0
  -18.0830  -26.7620   22.2140 C   0  0  0  0  0  2  0  0  0  0  0  0
  -19.0480  -28.8550   23.3360 C   0  0  0  0  0  0  0  0  0  0  0  0
  -18.8400  -30.1090   23.9510 C   0  0  0  0  0  3  0  0  0  0  0  0
  -17.5390  -30.6090   24.1470 C   0  0  0  0  0  3  0  0  0  0  0  0
  -16.4270  -29.8550   23.7360 C   0  0  0  0  0  3  0  0  0  0  0  0
  -16.6180  -28.6040   23.1230 C   0  0  0  0  0  3  0  0  0  0  0  0
  -25.8060  -32.4760   23.8010 C   0  0  0  0  0  3  0  0  0  0  0  0
  -26.3100  -31.7080   25.0870 C   0  0  1  0  0  0  0  0  0  0  0  0
  -25.2080  -31.4880   26.1490 C   0  0  0  0  0  1  0  0  0  0  0  0
  -26.8840  -30.3220   24.7120 C   0  0  0  0  0  1  0  0  0  0  0  0
  -27.4620  -32.4980   25.7490 C   0  0  0  0  0  1  0  0  0  0  0  0
  -25.4990  -33.8780   24.1330 N   0  0  0  0  0  0  0  0  0  0  0  0
  -25.8410  -34.9370   23.3860 C   0  0  0  0  0  0  0  0  0  0  0  0
  -26.5130  -34.8350   22.3560 O   0  0  0  0  0  0  0  0  0  0  0  0
  -24.9040  -34.0290   24.9330 H   0  0  0  0  0  0  0  0  0  0  0  0
  -24.1390  -36.7600   23.0350 C   0  0  0  0  0  1  0  0  0  0  0  0
  -25.3660  -36.3270   23.8550 C   0  0  0  0  0  3  0  0  0  0  0  0
  -27.4950  -37.1900   24.7270 C   0  0  0  0  0  1  0  0  0  0  0  0
  -26.4120  -37.3700   23.7640 N   0  0  0  0  0  0  0  0  0  0  0  0
  -26.0130  -38.2930   23.9070 H   0  0  0  0  0  0  0  0  0  0  0  0
  2  1  1  0
  2  3  1  0
  4  2  1  0
  4  3  1  0
  4 12  1  0
  5  3  1  0
  6  1  1  0
  6 11  1  1
  6  5  1  0
  7  9  1  0
  8  9  1  0
  9  6  1  0
 11 10  1  0
 13 21  1  0
 14 19  1  0
 15 16  1  0
 15 14  1  0
 16 17  1  0
 17 26  1  0
 17 18  1  0
 19 13  1  0
 19 18  1  0
 20 13  2  0
 21 12  1  0
 22 21  1  0
 23 24  2  0
 24 43  1  0
 25 24  1  0
 25 28  1  0
 26 27  1  0
 26 23  1  0
 27 25  2  0
 28 29  1  0
 29 30  2  0
 31 34  1  0
 31 30  1  0
 32 31  2  0
 33 32  1  0
 33 28  2  0
 34 35  1  0
 35 36  1  0
 36 37  2  0
 38 37  1  0
 38 42  1  0
 39 38  2  0
 40 35  2  0
 40 39  1  0
 41 40  1  0
 43 44  1  0
 44 47  1  0
 44 46  1  0
 45 43  2  0
 48 49  1  0
 48 23  1  0
 50 48  1  0
 51 52  1  0
 51  5  1  0
 53 64  2  0
 53 79  1  0
 54 52  1  0
 54 59  1  0
 55 63  1  0
 55 65  1  0
 56 62  1  0
 56 58  1  0
 57 63  1  0
 58 57  1  0
 59 58  2  0
 60 54  2  0
 61 60  1  0
 61 56  2  0
 62 55  1  0
 63 53  1  0
 65 67  2  0
 66 65  1  0
 66 70  1  0
 68 66  1  0
 69 78  2  0
 69 74  1  0
 70 74  1  0
 71 70  1  0
 72 73  1  0
 72 71  1  0
 73 69  1  0
 74 75  2  0
 75 76  1  0
 77 76  2  0
 78 77  1  0
 79 84  1  0
 79 80  1  0
 80 83  1  1
 80 81  1  0
 82 80  1  0
 84 87  1  0
 85 89  1  0
 85 84  1  0
 86 85  2  0
 88 89  1  0
 91 89  1  0
 91 92  1  0
 91 90  1  0
M  ISO  4  13 100  21 100  51 101  52 101
M  END
>  <TORSDO>  (49) 
F 20

>  <SCORE>  (49) 
-14.126

>  <name>  (49) 
48

>  <ligand_id>  (49) 
48

>  <original_smiles>  (49) 
[H]c1c([H])c([H])c2c(c1[H])C([H])([H])C([H])([H])C([H])([H])C2([H])N([H])C(=O)C1([H])N(C(=O)C([H])(N([H])C(=O)C([H])(N([H])C([H])([H])[H])C([H])([H])[H])C(C([H])([H])[H])(C([H])([H])[H])C([H])([H])[H])C([H])([H])c2c([H])c(OC([H])([H])C3([H])C4([H])C([H])(C([H])([H])N([H])C(=O)N5C([H])([H])C([H])([H])C([H])([H])C([H])(n6nc(-c7c([H])c([H])c(Oc8c([H])c([H])c(F)c([H])c8F)c([H])c7[H])c(C(=O)N([H])[H])c6N([H])[H])C5([H])[H])C4([H])C([H])([H])C3(C([H])([H])C([H])([H])[H])C([H])(C([H])([H])[H])C([H])([H])[H])c([H])c([H])c2C1([H])[H]

>  <smiles>  (49) 
[H]c1c([H])c([H])c2c(c1[H])C([H])([H])C([H])([H])C([H])([H])C2([H])N([H])C(=O)C1([H])N(C(=O)C([H])(N([H])C(=O)C([H])(N([H])C([H])([H])[H])C([H])([H])[H])C(C([H])([H])[H])(C([H])([H])[H])C([H])([H])[H])C([H])([H])c2c([H])c(OC([H])([H])C3([H])C4([H])C([H])(C([H])([H])N([H])C(=O)N5C([H])([H])C([H])([H])C([H])([H])C([H])(n6nc(-c7c([H])c([H])c(Oc8c([H])c([H])c(F)c([H])c8F)c([H])c7[H])c(C(=O)N([H])[H])c6N([H])[H])C5([H])[H])C4([H])C([H])([H])C3(C([H])([H])C([H])([H])[H])C([H])(C([H])([H])[H])C([H])([H])[H])c([H])c([H])c2C1([H])[H]

$$$$
49:0:0
     RDKit          3D

 91100  0  0  1  0  0  0  0  0999 V2000
  -29.1970  -18.9750   20.1290 C   0  0  0  0  0  0  0  0  0  0  0  0
  -31.6860  -19.0220   23.3100 C   0  0  0  0  0  2  0  0  0  0  0  0
  -30.7730  -17.8460   22.9410 C   0  0  0  0  0  2  0  0  0  0  0  0
  -30.3930  -20.6200   21.6680 C   0  0  0  0  0  2  0  0  0  0  0  0
  -29.6490  -20.5470   20.3170 C   0  0  0  0  0  3  0  0  0  0  0  0
  -30.2790  -17.7240   20.3060 C   0  0  0  0  0  3  0  0  0  0  0  0
  -31.4780  -19.5390   21.8770 C   0  0  0  0  0  3  0  0  0  0  0  0
  -31.2150  -18.0570   21.4860 C   0  0  0  0  0  3  0  0  0  0  0  0
  -28.0180  -18.7370   19.8560 O   0  0  0  0  0  0  0  0  0  0  0  0
  -30.6380  -15.0190   20.1850 C   0  0  0  0  0  0  0  0  0  0  0  0
  -30.5040  -12.6460   19.3150 C   0  0  0  0  0  2  0  0  0  0  0  0
  -29.5540  -12.5590   18.0990 C   0  0  0  0  0  2  0  0  0  0  0  0
  -28.0990  -12.3540   18.5580 C   0  0  0  0  0  2  0  0  0  0  0  0
  -27.6990  -13.3200   19.7030 C   0  0  0  0  0  3  0  0  0  0  0  0
  -28.7680  -13.3830   20.8160 C   0  0  0  0  0  2  0  0  0  0  0  0
  -30.0330  -13.7670   20.1770 N   0  0  0  0  0  0  0  0  0  0  0  0
  -31.8330  -15.0780   19.8790 O   0  0  0  0  0  0  0  0  0  0  0  0
  -29.8790  -16.2020   20.3450 N   0  0  0  0  0  0  0  0  0  0  0  0
  -28.8960  -16.0470   20.5100 H   0  0  0  0  0  0  0  0  0  0  0  0
  -25.3390  -13.9100   20.4990 C   0  0  0  0  0  0  0  0  0  0  0  0
  -24.2770  -13.1380   20.8820 C   0  0  0  0  0  0  0  0  0  0  0  0
  -24.7330  -11.7840   20.8290 C   0  0  0  0  0  0  0  0  0  0  0  0
  -26.3710  -13.0270   20.2280 N   0  0  0  0  0  0  0  0  0  0  0  0
  -26.0160  -11.7440   20.4920 N   0  0  0  0  0  0  0  0  0  0  0  0
  -24.0010  -10.5250   21.0200 C   0  0  0  0  0  0  0  0  0  0  0  0
  -24.4340   -9.5520   21.9470 C   0  0  0  0  0  3  0  0  0  0  0  0
  -23.7010   -8.3580   22.1260 C   0  0  0  0  0  3  0  0  0  0  0  0
  -22.5210   -8.1300   21.3790 C   0  0  0  0  0  0  0  0  0  0  0  0
  -22.1070   -9.0930   20.4400 C   0  0  0  0  0  3  0  0  0  0  0  0
  -22.8400  -10.2770   20.2590 C   0  0  0  0  0  3  0  0  0  0  0  0
  -21.7600   -6.9900   21.4690 O   0  0  0  0  0  0  0  0  0  0  0  0
  -21.6980   -6.2560   22.6260 C   0  0  0  0  0  0  0  0  0  0  0  0
  -21.2380   -6.8130   23.8390 C   0  0  0  0  0  3  0  0  0  0  0  0
  -21.1250   -6.0050   24.9880 C   0  0  0  0  0  3  0  0  0  0  0  0
  -21.4590   -4.6390   24.9240 C   0  0  0  0  0  0  0  0  0  0  0  0
  -21.9110   -4.0800   23.7150 C   0  0  0  0  0  3  0  0  0  0  0  0
  -22.0260   -4.8870   22.5680 C   0  0  0  0  0  0  0  0  0  0  0  0
  -22.4410   -4.3380   21.4010 F   0  0  0  0  0  0  0  0  0  0  0  0
  -21.3420   -3.8590   26.0240 F   0  0  0  0  0  0  0  0  0  0  0  0
  -22.8890  -13.6220   21.1850 C   0  0  0  0  0  0  0  0  0  0  0  0
  -22.1770  -12.9270   22.0650 N   0  0  0  0  0  0  0  0  0  0  0  0
  -22.4460  -14.6520   20.6770 O   0  0  0  0  0  0  0  0  0  0  0  0
  -22.5500  -12.0940   22.4950 H   0  0  0  0  0  0  0  0  0  0  0  0
  -21.2470  -13.2320   22.3110 H   0  0  0  0  0  0  0  0  0  0  0  0
  -25.5070  -15.2810   20.3300 N   0  0  0  0  0  0  0  0  0  0  0  0
  -24.7400  -15.9330   20.4560 H   0  0  0  0  0  0  0  0  0  0  0  0
  -26.3370  -15.7200   19.9540 H   0  0  0  0  0  0  0  0  0  0  0  0
  -28.6070  -21.8590   20.1620 C   0  0  0  0  0  2  0  0  0  0  0  0
  -29.0060  -23.4850   20.3430 C   0  0  0  0  0  3  0  0  0  0  0  0
  -27.9690  -24.7720   20.0620 C   0  0  0  0  0  3  0  0  0  0  0  0
  -28.2410  -26.2860   20.2600 O   0  0  0  0  0  0  0  0  0  0  0  0
  -24.6170  -31.9280   23.2720 C   0  0  0  0  0  0  0  0  0  0  0  0
  -27.1800  -27.2580   20.1930 C   0  0  0  0  0  0  0  0  0  0  0  0
  -23.4110  -30.5540   21.6190 C   0  0  0  0  0  3  0  0  0  0  0  0
  -24.8530  -28.9940   20.1780 C   0  0  0  0  0  0  0  0  0  0  0  0
  -25.9630  -30.8200   21.4520 C   0  0  0  0  0  2  0  0  0  0  0  0
  -26.0330  -29.4360   20.7880 C   0  0  0  0  0  0  0  0  0  0  0  0
  -27.2000  -28.5850   20.7770 C   0  0  0  0  0  3  0  0  0  0  0  0
  -25.9750  -26.9120   19.5450 C   0  0  0  0  0  3  0  0  0  0  0  0
  -24.8350  -27.7440   19.5390 C   0  0  0  0  0  3  0  0  0  0  0  0
  -23.6270  -29.8910   20.2340 C   0  0  0  0  0  2  0  0  0  0  0  0
  -24.6830  -31.1210   22.1700 N   0  0  0  0  0  0  0  0  0  0  0  0
  -23.5320  -32.2100   23.8050 O   0  0  0  0  0  0  0  0  0  0  0  0
  -22.7310  -29.5370   22.5720 C   0  0  0  0  0  0  0  0  0  0  0  0
  -21.4060  -29.3570   22.4300 N   0  0  0  0  0  0  0  0  0  0  0  0
  -23.3990  -28.9130   23.4010 O   0  0  0  0  0  0  0  0  0  0  0  0
  -20.9250  -29.9120   21.7370 H   0  0  0  0  0  0  0  0  0  0  0  0
  -18.0290  -28.1270   22.8830 C   0  0  0  0  0  0  0  0  0  0  0  0
  -20.5810  -28.4130   23.1880 C   0  0  0  0  0  3  0  0  0  0  0  0
  -20.7040  -26.9810   22.6180 C   0  0  0  0  0  2  0  0  0  0  0  0
  -19.6200  -26.6460   21.5870 C   0  0  0  0  0  2  0  0  0  0  0  0
  -18.2280  -26.7790   22.2100 C   0  0  0  0  0  2  0  0  0  0  0  0
  -19.1340  -28.9010   23.3280 C   0  0  0  0  0  0  0  0  0  0  0  0
  -18.8940  -30.1610   23.9180 C   0  0  0  0  0  3  0  0  0  0  0  0
  -17.5820  -30.6480   24.0680 C   0  0  0  0  0  3  0  0  0  0  0  0
  -16.4910  -29.8720   23.6390 C   0  0  0  0  0  3  0  0  0  0  0  0
  -16.7160  -28.6140   23.0510 C   0  0  0  0  0  3  0  0  0  0  0  0
  -25.8970  -32.5520   23.9050 C   0  0  0  0  0  3  0  0  0  0  0  0
  -26.3930  -31.7820   25.1910 C   0  0  1  0  0  0  0  0  0  0  0  0
  -25.2860  -31.5580   26.2500 C   0  0  0  0  0  1  0  0  0  0  0  0
  -26.9670  -30.3960   24.8150 C   0  0  0  0  0  1  0  0  0  0  0  0
  -27.5470  -32.5670   25.8610 C   0  0  0  0  0  1  0  0  0  0  0  0
  -25.5970  -33.9550   24.2330 N   0  0  0  0  0  0  0  0  0  0  0  0
  -25.9200  -35.0050   23.4660 C   0  0  0  0  0  0  0  0  0  0  0  0
  -26.5690  -34.8940   22.4220 O   0  0  0  0  0  0  0  0  0  0  0  0
  -25.0190  -34.1150   25.0450 H   0  0  0  0  0  0  0  0  0  0  0  0
  -24.1820  -36.8000   23.1580 C   0  0  0  0  0  1  0  0  0  0  0  0
  -25.4500  -36.3980   23.9280 C   0  0  0  0  0  3  0  0  0  0  0  0
  -27.6080  -37.2940   24.6830 C   0  0  0  0  0  1  0  0  0  0  0  0
  -26.4790  -37.4490   23.7720 N   0  0  0  0  0  0  0  0  0  0  0  0
  -26.0770  -38.3700   23.9200 H   0  0  0  0  0  0  0  0  0  0  0  0
  1  6  1  0
  1  5  1  0
  3  2  1  0
  5 48  1  0
  5  4  1  0
  6 18  1  0
  6  8  1  0
  7  4  1  0
  7  2  1  0
  8  7  1  0
  8  3  1  0
  9  1  2  0
 10 18  1  0
 11 16  1  0
 12 13  1  0
 12 11  1  0
 14 13  1  0
 14 23  1  0
 14 15  1  0
 16 10  1  0
 16 15  1  0
 17 10  2  0
 18 19  1  0
 20 21  2  0
 21 40  1  0
 22 21  1  0
 22 25  1  0
 23 24  1  0
 23 20  1  0
 24 22  2  0
 25 26  1  0
 26 27  2  0
 28 31  1  0
 28 27  1  0
 29 28  2  0
 30 29  1  0
 30 25  2  0
 31 32  1  0
 32 33  1  0
 33 34  2  0
 35 34  1  0
 35 39  1  0
 36 35  2  0
 37 32  2  0
 37 36  1  0
 38 37  1  0
 40 41  1  0
 41 44  1  0
 41 43  1  0
 42 40  2  0
 45 46  1  0
 45 20  1  0
 47 45  1  0
 48 49  1  0
 50 51  1  0
 50 49  2  0
 52 63  2  0
 53 51  1  0
 53 58  1  0
 54 62  1  0
 54 64  1  0
 55 61  1  0
 55 57  1  0
 56 62  1  0
 57 56  1  0
 58 57  2  0
 59 53  2  0
 60 59  1  0
 60 55  2  0
 61 54  1  0
 62 52  1  0
 64 66  2  0
 65 64  1  0
 67 65  1  0
 68 77  2  0
 68 73  1  0
 69 65  1  0
 69 73  1  0
 70 69  1  0
 71 72  1  0
 71 70  1  0
 72 68  1  0
 73 74  2  0
 74 75  1  0
 76 75  2  0
 77 76  1  0
 78 52  1  0
 78 83  1  0
 78 79  1  0
 79 82  1  1
 79 80  1  0
 81 79  1  0
 83 86  1  0
 84 88  1  0
 84 83  1  0
 85 84  2  0
 88 87  1  0
 90 91  1  0
 90 88  1  0
 90 89  1  0
M  ISO  4  10 100  18 100  50 101  51 101
M  END
>  <TORSDO>  (50) 
F 19

>  <SCORE>  (50) 
-14.024

>  <name>  (50) 
49

>  <ligand_id>  (50) 
49

>  <original_smiles>  (50) 
[H]c1c([H])c([H])c2c(c1[H])C([H])([H])C([H])([H])C([H])([H])C2([H])N([H])C(=O)C1([H])N(C(=O)C([H])(N([H])C(=O)C([H])(N([H])C([H])([H])[H])C([H])([H])[H])C(C([H])([H])[H])(C([H])([H])[H])C([H])([H])[H])C([H])([H])c2c([H])c(OC([H])([H])C([H])([H])C([H])([H])C3([H])C(=O)C([H])(N([H])C(=O)N4C([H])([H])C([H])([H])C([H])([H])C([H])(n5nc(-c6c([H])c([H])c(Oc7c([H])c([H])c(F)c([H])c7F)c([H])c6[H])c(C(=O)N([H])[H])c5N([H])[H])C4([H])[H])C4([H])C([H])([H])C([H])([H])C4([H])C3([H])[H])c([H])c([H])c2C1([H])[H]

>  <smiles>  (50) 
[H]c1c([H])c([H])c2c(c1[H])C([H])([H])C([H])([H])C([H])([H])C2([H])N([H])C(=O)C1([H])N(C(=O)C([H])(N([H])C(=O)C([H])(N([H])C([H])([H])[H])C([H])([H])[H])C(C([H])([H])[H])(C([H])([H])[H])C([H])([H])[H])C([H])([H])c2c([H])c(OC([H])([H])C([H])([H])C([H])([H])C3([H])C(=O)C([H])(N([H])C(=O)N4C([H])([H])C([H])([H])C([H])([H])C([H])(n5nc(-c6c([H])c([H])c(Oc7c([H])c([H])c(F)c([H])c7F)c([H])c6[H])c(C(=O)N([H])[H])c5N([H])[H])C4([H])[H])C4([H])C([H])([H])C([H])([H])C4([H])C3([H])[H])c([H])c([H])c2C1([H])[H]

$$$$
50:0:0
     RDKit          3D

 95104  0  0  1  0  0  0  0  0999 V2000
  -31.4780  -22.2340   18.9760 C   0  0  0  0  0  2  0  0  0  0  0  0
  -31.8080  -20.1620   20.5040 C   0  0  0  0  0  2  0  0  0  0  0  0
  -30.7130  -23.1630   19.9110 C   0  0  0  0  0  2  0  0  0  0  0  0
  -31.0380  -20.8510   19.3700 C   0  0  0  0  0  3  0  0  0  0  0  0
  -29.8070  -20.8900   20.2680 C   0  0  0  0  0  3  0  0  0  0  0  0
  -30.4950  -19.8060   21.2340 C   0  0  2  0  0  0  0  0  0  0  0  0
  -29.7350  -22.3570   20.7000 N   0  0  2  0  0  4  0  0  0  0  0  0
  -30.0470  -22.3800   21.6590 H   0  0  0  0  0  0  0  0  0  0  0  0
  -31.4270  -21.1490   23.3240 C   0  0  0  0  0  1  0  0  0  0  0  0
  -30.3640  -20.2000   22.7450 C   0  0  0  0  0  2  0  0  0  0  0  0
  -30.1730  -18.2170   21.2410 C   0  0  0  0  0  2  0  0  0  0  0  0
  -31.2940  -17.3290   18.9290 C   0  0  0  0  0  1  0  0  0  0  0  0
  -30.2180  -17.1750   20.0280 C   0  0  0  0  0  3  0  0  0  0  0  0
  -30.8630  -14.6200   20.3000 C   0  0  0  0  0  0  0  0  0  0  0  0
  -30.5720  -12.3970   19.2550 C   0  0  0  0  0  2  0  0  0  0  0  0
  -29.6330  -12.5900   18.0440 C   0  0  0  0  0  2  0  0  0  0  0  0
  -28.1640  -12.4470   18.4820 C   0  0  0  0  0  2  0  0  0  0  0  0
  -27.8320  -13.3080   19.7310 C   0  0  0  0  0  3  0  0  0  0  0  0
  -28.8930  -13.1300   20.8390 C   0  0  0  0  0  2  0  0  0  0  0  0
  -30.2070  -13.4220   20.2490 N   0  0  0  0  0  0  0  0  0  0  0  0
  -32.0540  -14.7080   19.9760 O   0  0  0  0  0  0  0  0  0  0  0  0
  -30.0670  -15.7270   20.4550 N   0  0  0  0  0  0  0  0  0  0  0  0
  -29.1240  -15.4840   20.7190 H   0  0  0  0  0  0  0  0  0  0  0  0
  -25.4550  -13.9410   20.4670 C   0  0  0  0  0  0  0  0  0  0  0  0
  -24.3800  -13.1820   20.8400 C   0  0  0  0  0  0  0  0  0  0  0  0
  -24.8230  -11.8250   20.8070 C   0  0  0  0  0  0  0  0  0  0  0  0
  -26.4840  -13.0460   20.2230 N   0  0  0  0  0  0  0  0  0  0  0  0
  -26.1090  -11.7680   20.4900 N   0  0  0  0  0  0  0  0  0  0  0  0
  -24.0840  -10.5720   21.0000 C   0  0  0  0  0  0  0  0  0  0  0  0
  -24.5010   -9.6010   21.9360 C   0  0  0  0  0  3  0  0  0  0  0  0
  -23.7620   -8.4140   22.1150 C   0  0  0  0  0  3  0  0  0  0  0  0
  -22.5890   -8.1890   21.3570 C   0  0  0  0  0  0  0  0  0  0  0  0
  -22.1890   -9.1470   20.4100 C   0  0  0  0  0  3  0  0  0  0  0  0
  -22.9290  -10.3280   20.2290 C   0  0  0  0  0  3  0  0  0  0  0  0
  -21.8170   -7.0560   21.4490 O   0  0  0  0  0  0  0  0  0  0  0  0
  -21.7490   -6.3210   22.6060 C   0  0  0  0  0  0  0  0  0  0  0  0
  -21.3030   -6.8860   23.8210 C   0  0  0  0  0  3  0  0  0  0  0  0
  -21.1800   -6.0800   24.9680 C   0  0  0  0  0  3  0  0  0  0  0  0
  -21.4980   -4.7100   24.9060 C   0  0  0  0  0  0  0  0  0  0  0  0
  -21.9410   -4.1450   23.6970 C   0  0  0  0  0  3  0  0  0  0  0  0
  -22.0660   -4.9470   22.5510 C   0  0  0  0  0  0  0  0  0  0  0  0
  -22.4710   -4.3950   21.3820 F   0  0  0  0  0  0  0  0  0  0  0  0
  -21.3740   -3.9330   26.0070 F   0  0  0  0  0  0  0  0  0  0  0  0
  -22.9910  -13.6790   21.1210 C   0  0  0  0  0  0  0  0  0  0  0  0
  -22.2580  -12.9950   21.9920 N   0  0  0  0  0  0  0  0  0  0  0  0
  -22.5640  -14.7110   20.6040 O   0  0  0  0  0  0  0  0  0  0  0  0
  -22.6130  -12.1520   22.4230 H   0  0  0  0  0  0  0  0  0  0  0  0
  -21.3310  -13.3150   22.2290 H   0  0  0  0  0  0  0  0  0  0  0  0
  -25.6330  -15.3120   20.2880 N   0  0  0  0  0  0  0  0  0  0  0  0
  -24.8640  -15.9640   20.3940 H   0  0  0  0  0  0  0  0  0  0  0  0
  -26.4690  -15.7470   19.9200 H   0  0  0  0  0  0  0  0  0  0  0  0
  -28.3800  -23.0100   20.6770 C   0  0  0  0  0  2  0  0  0  0  0  0
  -28.1700  -24.2930   21.5830 C   0  0  0  0  0  2  0  0  0  0  0  0
  -28.9560  -25.6480   21.4000 C   0  0  0  0  0  2  0  0  0  0  0  0
  -28.6700  -26.5230   20.2880 O   0  0  0  0  0  0  0  0  0  0  0  0
  -24.6440  -31.7490   23.1920 C   0  0  0  0  0  0  0  0  0  0  0  0
  -27.5100  -27.2750   20.3280 C   0  0  0  0  0  0  0  0  0  0  0  0
  -23.5470  -30.2870   21.5240 C   0  0  0  0  0  3  0  0  0  0  0  0
  -25.0970  -28.7520   20.2070 C   0  0  0  0  0  0  0  0  0  0  0  0
  -26.0780  -30.6880   21.4460 C   0  0  0  0  0  2  0  0  0  0  0  0
  -26.2190  -29.3060   20.8350 C   0  0  0  0  0  0  0  0  0  0  0  0
  -27.4350  -28.5750   20.8960 C   0  0  0  0  0  3  0  0  0  0  0  0
  -26.3720  -26.7440   19.6930 C   0  0  0  0  0  3  0  0  0  0  0  0
  -25.1650  -27.4670   19.6400 C   0  0  0  0  0  3  0  0  0  0  0  0
  -23.8380  -29.5910   20.1710 C   0  0  0  0  0  2  0  0  0  0  0  0
  -24.7710  -30.9280   22.1090 N   0  0  0  0  0  0  0  0  0  0  0  0
  -23.5330  -32.0080   23.6740 O   0  0  0  0  0  0  0  0  0  0  0  0
  -22.8720  -29.2690   22.4720 C   0  0  0  0  0  0  0  0  0  0  0  0
  -21.5540  -29.0750   22.3080 N   0  0  0  0  0  0  0  0  0  0  0  0
  -23.5370  -28.6560   23.3130 O   0  0  0  0  0  0  0  0  0  0  0  0
  -21.0830  -29.6170   21.5970 H   0  0  0  0  0  0  0  0  0  0  0  0
  -18.1700  -27.8830   22.7330 C   0  0  0  0  0  0  0  0  0  0  0  0
  -20.7220  -28.1390   23.0570 C   0  0  0  0  0  3  0  0  0  0  0  0
  -20.8370  -26.7080   22.4860 C   0  0  0  0  0  2  0  0  0  0  0  0
  -19.7560  -26.3870   21.4480 C   0  0  0  0  0  2  0  0  0  0  0  0
  -18.3600  -26.5310   22.0640 C   0  0  0  0  0  2  0  0  0  0  0  0
  -19.2800  -28.6440   23.1870 C   0  0  0  0  0  0  0  0  0  0  0  0
  -19.0530  -29.9070   23.7740 C   0  0  0  0  0  3  0  0  0  0  0  0
  -17.7470  -30.4100   23.9160 C   0  0  0  0  0  3  0  0  0  0  0  0
  -16.6500  -29.6460   23.4830 C   0  0  0  0  0  3  0  0  0  0  0  0
  -16.8620  -28.3860   22.8950 C   0  0  0  0  0  3  0  0  0  0  0  0
  -25.8830  -32.4220   23.8540 C   0  0  0  0  0  3  0  0  0  0  0  0
  -25.5260  -33.8180   24.1510 N   0  0  0  0  0  0  0  0  0  0  0  0
  -25.8630  -34.8710   23.3930 C   0  0  0  0  0  0  0  0  0  0  0  0
  -26.5770  -34.7720   22.3900 O   0  0  0  0  0  0  0  0  0  0  0  0
  -24.8950  -33.9680   24.9220 H   0  0  0  0  0  0  0  0  0  0  0  0
  -24.1030  -36.6120   22.9480 C   0  0  0  0  0  1  0  0  0  0  0  0
  -25.3190  -36.2500   23.8140 C   0  0  0  0  0  3  0  0  0  0  0  0
  -27.3920  -37.2020   24.7200 C   0  0  0  0  0  1  0  0  0  0  0  0
  -26.3280  -37.3280   23.7310 N   0  0  0  0  0  0  0  0  0  0  0  0
  -25.8910  -38.2380   23.8440 H   0  0  0  0  0  0  0  0  0  0  0  0
  -26.3740  -31.6820   25.1580 C   0  0  1  0  0  0  0  0  0  0  0  0
  -25.2480  -31.4300   26.1870 C   0  0  0  0  0  1  0  0  0  0  0  0
  -27.0090  -30.3140   24.8080 C   0  0  0  0  0  1  0  0  0  0  0  0
  -27.4730  -32.5190   25.8540 C   0  0  0  0  0  1  0  0  0  0  0  0
  1  3  1  0
  2  6  1  0
  3  7  1  0
  4  1  1  0
  4  5  1  0
  4  2  1  0
  5  7  1  0
  5  6  1  0
  6 11  1  1
  6 10  1  0
  7  8  1  1
 10  9  1  0
 13 12  1  0
 13 22  1  0
 13 11  1  0
 14 22  1  0
 15 20  1  0
 16 17  1  0
 16 15  1  0
 18 17  1  0
 18 27  1  0
 18 19  1  0
 20 14  1  0
 20 19  1  0
 21 14  2  0
 22 23  1  0
 24 25  2  0
 25 44  1  0
 26 25  1  0
 26 29  1  0
 27 24  1  0
 27 28  1  0
 28 26  2  0
 29 30  1  0
 30 31  2  0
 32 35  1  0
 32 31  1  0
 33 32  2  0
 34 33  1  0
 34 29  2  0
 35 36  1  0
 36 37  1  0
 37 38  2  0
 39 38  1  0
 39 43  1  0
 40 39  2  0
 41 36  2  0
 41 40  1  0
 42 41  1  0
 44 45  1  0
 45 48  1  0
 45 47  1  0
 46 44  2  0
 49 50  1  0
 49 24  1  0
 51 49  1  0
 52  7  1  0
 52 53  1  0
 54 53  1  0
 55 57  1  0
 55 54  1  0
 56 67  2  0
 57 62  1  0
 58 66  1  0
 58 68  1  0
 59 61  1  0
 60 66  1  0
 61 62  2  0
 61 60  1  0
 63 57  2  0
 64 63  1  0
 64 59  2  0
 65 59  1  0
 65 58  1  0
 66 56  1  0
 68 70  2  0
 69 68  1  0
 71 69  1  0
 72 81  2  0
 72 77  1  0
 73 69  1  0
 73 77  1  0
 74 73  1  0
 75 76  1  0
 75 74  1  0
 76 72  1  0
 77 78  2  0
 78 79  1  0
 80 79  2  0
 81 80  1  0
 82 56  1  0
 82 83  1  0
 82 92  1  0
 83 86  1  0
 84 88  1  0
 84 83  1  0
 85 84  2  0
 88 87  1  0
 90 88  1  0
 90 91  1  0
 90 89  1  0
 92 95  1  1
 92 93  1  0
 94 92  1  0
M  ISO  4  14 100  22 100  54 101  55 101
M  END
>  <TORSDO>  (51) 
F 22

>  <SCORE>  (51) 
-13.078

>  <name>  (51) 
50

>  <ligand_id>  (51) 
50

>  <original_smiles>  (51) 
[H]c1c([H])c([H])c2c(c1[H])C([H])([H])C([H])([H])C([H])([H])C2([H])N([H])C(=O)C1([H])N(C(=O)C([H])(N([H])C(=O)C([H])(N([H])C([H])([H])[H])C([H])([H])[H])C(C([H])([H])[H])(C([H])([H])[H])C([H])([H])[H])C([H])([H])c2c([H])c(OC([H])([H])C([H])([H])C([H])([H])[N+]3([H])C([H])([H])C([H])([H])C4([H])C([H])([H])C(C([H])([H])C([H])([H])[H])(C([H])([H])C([H])(N([H])C(=O)N5C([H])([H])C([H])([H])C([H])([H])C([H])(n6nc(-c7c([H])c([H])c(Oc8c([H])c([H])c(F)c([H])c8F)c([H])c7[H])c(C(=O)N([H])[H])c6N([H])[H])C5([H])[H])C([H])([H])[H])C43[H])c([H])c([H])c2C1([H])[H]

>  <smiles>  (51) 
[H]c1c([H])c([H])c2c(c1[H])C([H])([H])C([H])([H])C([H])([H])C2([H])N([H])C(=O)C1([H])N(C(=O)C([H])(N([H])C(=O)C([H])(N([H])C([H])([H])[H])C([H])([H])[H])C(C([H])([H])[H])(C([H])([H])[H])C([H])([H])[H])C([H])([H])c2c([H])c(OC([H])([H])C([H])([H])C([H])([H])[N+]3([H])C([H])([H])C([H])([H])C4([H])C([H])([H])C(C([H])([H])C([H])([H])[H])(C([H])([H])C([H])(N([H])C(=O)N5C([H])([H])C([H])([H])C([H])([H])C([H])(n6nc(-c7c([H])c([H])c(Oc8c([H])c([H])c(F)c([H])c8F)c([H])c7[H])c(C(=O)N([H])[H])c6N([H])[H])C5([H])[H])C([H])([H])[H])C43[H])c([H])c([H])c2C1([H])[H]

$$$$
51:0:0
     RDKit          3D

 97107  0  0  1  0  0  0  0  0999 V2000
  -25.4960  -22.3140   16.6450 C   0  0  0  0  0  3  0  0  0  0  0  0
  -24.2470  -21.8250   16.2110 C   0  0  0  0  0  3  0  0  0  0  0  0
  -24.3910  -19.9480   17.7980 C   0  0  0  0  0  3  0  0  0  0  0  0
  -26.1630  -21.6000   17.6520 C   0  0  0  0  0  0  0  0  0  0  0  0
  -25.6460  -20.4440   18.2140 C   0  0  0  0  0  0  0  0  0  0  0  0
  -23.6800  -20.6550   16.7930 C   0  0  0  0  0  0  0  0  0  0  0  0
  -26.5900  -19.8850   19.2860 C   0  0  0  0  0  2  0  0  0  0  0  0
  -28.3740  -21.8370   20.1570 C   0  0  0  0  0  2  0  0  0  0  0  0
  -27.4710  -21.9060   18.3030 C   0  0  0  0  0  3  0  0  0  0  0  0
  -28.3520  -22.9220   19.0180 C   0  0  0  0  0  3  0  0  0  0  0  0
  -27.9380  -20.6940   19.1430 C   0  0  2  0  0  0  0  0  0  0  0  0
  -22.0380  -18.7610   16.1090 C   0  0  0  0  0  1  0  0  0  0  0  0
  -22.2740  -20.2580   16.3490 C   0  0  0  0  0  2  0  0  0  0  0  0
  -27.9220  -24.4220   19.1680 C   0  0  0  0  0  2  0  0  0  0  0  0
  -27.9790  -25.0830   20.5820 C   0  0  0  0  0  2  0  0  0  0  0  0
  -28.2310  -26.5190   20.6350 O   0  0  0  0  0  0  0  0  0  0  0  0
  -24.5980  -31.8300   23.7890 C   0  0  0  0  0  0  0  0  0  0  0  0
  -27.1330  -27.3620   20.6230 C   0  0  0  0  0  0  0  0  0  0  0  0
  -23.4020  -30.5740   22.0260 C   0  0  0  0  0  3  0  0  0  0  0  0
  -24.8390  -29.0330   20.6020 C   0  0  0  0  0  0  0  0  0  0  0  0
  -25.9550  -30.7950   21.9690 C   0  0  0  0  0  2  0  0  0  0  0  0
  -25.9980  -29.4500   21.2710 C   0  0  0  0  0  0  0  0  0  0  0  0
  -27.1500  -28.6180   21.2800 C   0  0  0  0  0  3  0  0  0  0  0  0
  -25.9610  -26.9900   19.9330 C   0  0  0  0  0  3  0  0  0  0  0  0
  -24.8150  -27.7990   19.9350 C   0  0  0  0  0  3  0  0  0  0  0  0
  -23.6520  -29.9620   20.6230 C   0  0  0  0  0  2  0  0  0  0  0  0
  -24.6700  -31.0830   22.6550 N   0  0  0  0  0  0  0  0  0  0  0  0
  -23.5090  -32.1300   24.2980 O   0  0  0  0  0  0  0  0  0  0  0  0
  -22.6630  -29.5400   22.9070 C   0  0  0  0  0  0  0  0  0  0  0  0
  -21.3530  -29.3640   22.6590 N   0  0  0  0  0  0  0  0  0  0  0  0
  -23.2690  -28.8990   23.7710 O   0  0  0  0  0  0  0  0  0  0  0  0
  -20.9230  -29.9310   21.9420 H   0  0  0  0  0  0  0  0  0  0  0  0
  -17.9430  -28.1770   22.8340 C   0  0  0  0  0  0  0  0  0  0  0  0
  -20.4700  -28.4150   23.3400 C   0  0  0  0  0  3  0  0  0  0  0  0
  -20.6160  -26.9920   22.7510 C   0  0  0  0  0  2  0  0  0  0  0  0
  -19.6070  -26.6920   21.6370 C   0  0  0  0  0  2  0  0  0  0  0  0
  -18.1740  -26.8380   22.1550 C   0  0  0  0  0  2  0  0  0  0  0  0
  -19.0230  -28.9250   23.3760 C   0  0  0  0  0  0  0  0  0  0  0  0
  -18.7560  -30.1810   23.9610 C   0  0  0  0  0  3  0  0  0  0  0  0
  -17.4420  -30.6860   24.0180 C   0  0  0  0  0  3  0  0  0  0  0  0
  -16.3790  -29.9340   23.4900 C   0  0  0  0  0  3  0  0  0  0  0  0
  -16.6290  -28.6830   22.9020 C   0  0  0  0  0  3  0  0  0  0  0  0
  -25.8840  -32.3680   24.4930 C   0  0  0  0  0  3  0  0  0  0  0  0
  -25.7300  -33.8190   24.6560 N   0  0  0  0  0  0  0  0  0  0  0  0
  -26.2510  -34.7410   23.8380 C   0  0  0  0  0  0  0  0  0  0  0  0
  -26.9900  -34.4560   22.8900 O   0  0  0  0  0  0  0  0  0  0  0  0
  -25.1100  -34.1280   25.3930 H   0  0  0  0  0  0  0  0  0  0  0  0
  -24.8070  -36.6730   23.1220 C   0  0  0  0  0  1  0  0  0  0  0  0
  -25.8970  -36.2140   24.1060 C   0  0  0  0  0  3  0  0  0  0  0  0
  -28.0220  -36.9440   25.0930 C   0  0  0  0  0  1  0  0  0  0  0  0
  -27.0540  -37.1270   24.0140 N   0  0  0  0  0  0  0  0  0  0  0  0
  -26.7480  -38.0940   24.0250 H   0  0  0  0  0  0  0  0  0  0  0  0
  -26.1650  -31.6750   25.8830 C   0  0  1  0  0  0  0  0  0  0  0  0
  -24.9390  -31.6460   26.8230 C   0  0  0  0  0  1  0  0  0  0  0  0
  -26.6310  -30.2120   25.6830 C   0  0  0  0  0  1  0  0  0  0  0  0
  -27.3080  -32.4150   26.6190 C   0  0  0  0  0  1  0  0  0  0  0  0
  -29.1190  -19.8210   18.5100 C   0  0  0  0  0  2  0  0  0  0  0  0
  -29.9460  -18.7580   19.3700 C   0  0  0  0  0  2  0  0  0  0  0  0
  -30.1730  -17.3070   18.7710 C   0  0  0  0  0  2  0  0  0  0  0  0
  -31.1930  -15.0650   19.4350 C   0  0  0  0  0  0  0  0  0  0  0  0
  -30.9690  -12.6970   18.7430 C   0  0  0  0  0  2  0  0  0  0  0  0
  -29.9410  -12.6720   17.5980 C   0  0  0  0  0  2  0  0  0  0  0  0
  -28.5050  -12.5590   18.1360 C   0  0  0  0  0  2  0  0  0  0  0  0
  -28.2220  -13.5230   19.3250 C   0  0  0  0  0  3  0  0  0  0  0  0
  -29.3760  -13.5490   20.3560 C   0  0  0  0  0  2  0  0  0  0  0  0
  -30.6270  -13.8350   19.6300 N   0  0  0  0  0  0  0  0  0  0  0  0
  -32.2460  -15.1850   18.7970 O   0  0  0  0  0  0  0  0  0  0  0  0
  -30.4450  -16.1700   19.7420 N   0  0  0  0  0  0  0  0  0  0  0  0
  -29.7270  -16.0070   20.4390 H   0  0  0  0  0  0  0  0  0  0  0  0
  -25.9110  -14.1240   20.2940 C   0  0  0  0  0  0  0  0  0  0  0  0
  -24.8730  -13.3560   20.7430 C   0  0  0  0  0  0  0  0  0  0  0  0
  -25.3020  -12.0010   20.6190 C   0  0  0  0  0  0  0  0  0  0  0  0
  -26.9210  -13.2420   19.9360 N   0  0  0  0  0  0  0  0  0  0  0  0
  -26.5560  -11.9540   20.1750 N   0  0  0  0  0  0  0  0  0  0  0  0
  -24.5780  -10.7440   20.8490 C   0  0  0  0  0  0  0  0  0  0  0  0
  -24.9370   -9.8620   21.8990 C   0  0  0  0  0  3  0  0  0  0  0  0
  -24.2050   -8.6740   22.1170 C   0  0  0  0  0  3  0  0  0  0  0  0
  -23.1030   -8.3530   21.2850 C   0  0  0  0  0  0  0  0  0  0  0  0
  -22.7690   -9.2210   20.2330 C   0  0  0  0  0  3  0  0  0  0  0  0
  -23.4990  -10.3990   20.0110 C   0  0  0  0  0  3  0  0  0  0  0  0
  -22.3580   -7.2040   21.4060 O   0  0  0  0  0  0  0  0  0  0  0  0
  -22.0240   -6.6830   22.6310 C   0  0  0  0  0  0  0  0  0  0  0  0
  -21.2310   -7.4030   23.5540 C   0  0  0  0  0  3  0  0  0  0  0  0
  -20.8480   -6.8060   24.7730 C   0  0  0  0  0  3  0  0  0  0  0  0
  -21.2500   -5.4880   25.0660 C   0  0  0  0  0  0  0  0  0  0  0  0
  -22.0330   -4.7670   24.1480 C   0  0  0  0  0  3  0  0  0  0  0  0
  -22.4150   -5.3650   22.9340 C   0  0  0  0  0  0  0  0  0  0  0  0
  -23.1520   -4.6550   22.0410 F   0  0  0  0  0  0  0  0  0  0  0  0
  -20.8790   -4.9130   26.2350 F   0  0  0  0  0  0  0  0  0  0  0  0
  -23.5200  -13.8420   21.1790 C   0  0  0  0  0  0  0  0  0  0  0  0
  -22.8890  -13.1630   22.1290 N   0  0  0  0  0  0  0  0  0  0  0  0
  -23.0270  -14.8710   20.7090 O   0  0  0  0  0  0  0  0  0  0  0  0
  -23.3030  -12.3430   22.5520 H   0  0  0  0  0  0  0  0  0  0  0  0
  -21.9830  -13.4800   22.4500 H   0  0  0  0  0  0  0  0  0  0  0  0
  -26.0660  -15.5010   20.1530 N   0  0  0  0  0  0  0  0  0  0  0  0
  -25.3440  -16.1410   20.4680 H   0  0  0  0  0  0  0  0  0  0  0  0
  -26.9090  -15.9680   19.8500 H   0  0  0  0  0  0  0  0  0  0  0  0
  1  4  1  0
  2  1  2  0
  2  6  1  0
  3  5  1  0
  4  5  2  0
  5  7  1  0
  6  3  2  0
  9  4  1  0
  9 10  1  0
  9 11  1  0
 10 14  1  0
 10  8  1  0
 11 57  1  6
 11  7  1  0
 11  8  1  0
 12 13  1  0
 13  6  1  0
 14 15  1  0
 15 16  1  0
 17 28  2  0
 18 16  1  0
 18 23  1  0
 19 27  1  0
 19 29  1  0
 20 26  1  0
 20 22  1  0
 21 27  1  0
 22 23  2  0
 22 21  1  0
 24 25  1  0
 24 18  2  0
 25 20  2  0
 26 19  1  0
 27 17  1  0
 29 31  2  0
 30 29  1  0
 32 30  1  0
 33 42  2  0
 33 38  1  0
 34 30  1  0
 34 38  1  0
 35 34  1  0
 36 37  1  0
 36 35  1  0
 37 33  1  0
 38 39  2  0
 39 40  1  0
 41 40  2  0
 42 41  1  0
 43 17  1  0
 43 44  1  0
 43 53  1  0
 44 47  1  0
 45 49  1  0
 45 44  1  0
 46 45  2  0
 49 48  1  0
 51 52  1  0
 51 49  1  0
 51 50  1  0
 53 56  1  1
 53 54  1  0
 55 53  1  0
 57 58  1  0
 59 58  1  0
 59 68  1  0
 60 66  1  0
 60 68  1  0
 61 66  1  0
 62 63  1  0
 62 61  1  0
 64 63  1  0
 64 73  1  0
 64 65  1  0
 66 65  1  0
 67 60  2  0
 68 69  1  0
 70 71  2  0
 71 90  1  0
 72 71  1  0
 72 75  1  0
 73 74  1  0
 73 70  1  0
 74 72  2  0
 75 76  1  0
 76 77  2  0
 78 81  1  0
 78 77  1  0
 79 78  2  0
 80 79  1  0
 80 75  2  0
 81 82  1  0
 82 87  2  0
 82 83  1  0
 83 84  2  0
 84 85  1  0
 85 89  1  0
 86 85  2  0
 87 86  1  0
 88 87  1  0
 90 91  1  0
 91 94  1  0
 91 93  1  0
 92 90  2  0
 95 70  1  0
 95 96  1  0
 97 95  1  0
M  ISO  4  15 101  16 101  60 100  68 100
M  END
>  <TORSDO>  (52) 
F 22

>  <SCORE>  (52) 
-4.332

>  <name>  (52) 
51

>  <ligand_id>  (52) 
51

>  <original_smiles>  (52) 
[H]c1c([H])c([H])c2c(c1[H])C([H])([H])C([H])([H])C([H])([H])C2([H])N([H])C(=O)C1([H])N(C(=O)C([H])(N([H])C(=O)C([H])(N([H])C([H])([H])[H])C([H])([H])[H])C(C([H])([H])[H])(C([H])([H])[H])C([H])([H])[H])C([H])([H])c2c([H])c(OC([H])([H])C([H])([H])C3([H])C([H])([H])C4(C([H])([H])C([H])([H])C([H])([H])N([H])C(=O)N5C([H])([H])C([H])([H])C([H])([H])C([H])(n6nc(-c7c([H])c([H])c(Oc8c([H])c([H])c(F)c([H])c8F)c([H])c7[H])c(C(=O)N([H])[H])c6N([H])[H])C5([H])[H])C([H])([H])c5c([H])c(C([H])([H])C([H])([H])[H])c([H])c([H])c5C34[H])c([H])c([H])c2C1([H])[H]

>  <smiles>  (52) 
[H]c1c([H])c([H])c2c(c1[H])C([H])([H])C([H])([H])C([H])([H])C2([H])N([H])C(=O)C1([H])N(C(=O)C([H])(N([H])C(=O)C([H])(N([H])C([H])([H])[H])C([H])([H])[H])C(C([H])([H])[H])(C([H])([H])[H])C([H])([H])[H])C([H])([H])c2c([H])c(OC([H])([H])C([H])([H])C3([H])C([H])([H])C4(C([H])([H])C([H])([H])C([H])([H])N([H])C(=O)N5C([H])([H])C([H])([H])C([H])([H])C([H])(n6nc(-c7c([H])c([H])c(Oc8c([H])c([H])c(F)c([H])c8F)c([H])c7[H])c(C(=O)N([H])[H])c6N([H])[H])C5([H])[H])C([H])([H])c5c([H])c(C([H])([H])C([H])([H])[H])c([H])c([H])c5C34[H])c([H])c([H])c2C1([H])[H]

$$$$
52:0:0
     RDKit          3D

 90 99  0  0  1  0  0  0  0  0999 V2000
  -29.0330  -19.8320   21.6750 C   0  0  0  0  0  2  0  0  0  0  0  0
  -28.6750  -20.1190   19.3630 C   0  0  0  0  0  2  0  0  0  0  0  0
  -31.1840  -19.6470   20.7190 C   0  0  0  0  0  2  0  0  0  0  0  0
  -28.9350  -18.9890   20.4060 C   0  0  0  0  0  3  0  0  0  0  0  0
  -30.1350  -20.7290   21.1190 C   0  0  0  0  0  3  0  0  0  0  0  0
  -29.4950  -21.3570   19.8530 C   0  0  0  0  0  3  0  0  0  0  0  0
  -30.3660  -18.4050   20.2430 C   0  0  0  0  0  3  0  0  0  0  0  0
  -28.5990  -22.6490   20.0300 C   0  0  0  0  0  2  0  0  0  0  0  0
  -29.2270  -24.0900   20.1930 C   0  0  0  0  0  2  0  0  0  0  0  0
  -28.1630  -25.2150   19.9170 C   0  0  0  0  0  2  0  0  0  0  0  0
  -28.4330  -26.6440   20.1340 O   0  0  0  0  0  0  0  0  0  0  0  0
  -24.6840  -31.9190   23.2830 C   0  0  0  0  0  0  0  0  0  0  0  0
  -27.3080  -27.4800   20.1010 C   0  0  0  0  0  0  0  0  0  0  0  0
  -23.4780  -30.5500   21.6230 C   0  0  0  0  0  3  0  0  0  0  0  0
  -24.9290  -29.0570   20.1500 C   0  0  0  0  0  0  0  0  0  0  0  0
  -26.0120  -30.9020   21.4250 C   0  0  0  0  0  2  0  0  0  0  0  0
  -26.0990  -29.5430   20.7460 C   0  0  0  0  0  0  0  0  0  0  0  0
  -27.2930  -28.7670   20.7140 C   0  0  0  0  0  3  0  0  0  0  0  0
  -26.1080  -27.0480   19.4790 C   0  0  0  0  0  3  0  0  0  0  0  0
  -24.9340  -27.8120   19.5110 C   0  0  0  0  0  3  0  0  0  0  0  0
  -23.6840  -29.9140   20.2260 C   0  0  0  0  0  2  0  0  0  0  0  0
  -24.7440  -31.1370   22.1680 N   0  0  0  0  0  0  0  0  0  0  0  0
  -23.6030  -32.1770   23.8300 O   0  0  0  0  0  0  0  0  0  0  0  0
  -22.8330  -29.5020   22.5600 C   0  0  0  0  0  0  0  0  0  0  0  0
  -21.5130  -29.2960   22.4170 N   0  0  0  0  0  0  0  0  0  0  0  0
  -23.5200  -28.8780   23.3750 O   0  0  0  0  0  0  0  0  0  0  0  0
  -21.0180  -29.8530   21.7350 H   0  0  0  0  0  0  0  0  0  0  0  0
  -18.1540  -28.0360   22.8780 C   0  0  0  0  0  0  0  0  0  0  0  0
  -20.7070  -28.3330   23.1680 C   0  0  0  0  0  3  0  0  0  0  0  0
  -20.8360  -26.9120   22.5720 C   0  0  0  0  0  2  0  0  0  0  0  0
  -19.7440  -26.5860   21.5470 C   0  0  0  0  0  2  0  0  0  0  0  0
  -18.3570  -26.7000   22.1840 C   0  0  0  0  0  2  0  0  0  0  0  0
  -19.2580  -28.8100   23.3260 C   0  0  0  0  0  0  0  0  0  0  0  0
  -19.0150  -30.0620   23.9340 C   0  0  0  0  0  3  0  0  0  0  0  0
  -17.7010  -30.5390   24.0980 C   0  0  0  0  0  3  0  0  0  0  0  0
  -16.6130  -29.7620   23.6670 C   0  0  0  0  0  3  0  0  0  0  0  0
  -16.8400  -28.5120   23.0640 C   0  0  0  0  0  3  0  0  0  0  0  0
  -25.9670  -32.5460   23.9090 C   0  0  0  0  0  3  0  0  0  0  0  0
  -26.4670  -31.7800   25.1950 C   0  0  1  0  0  0  0  0  0  0  0  0
  -25.3610  -31.5470   26.2510 C   0  0  0  0  0  1  0  0  0  0  0  0
  -27.0560  -30.4010   24.8190 C   0  0  0  0  0  1  0  0  0  0  0  0
  -27.6100  -32.5770   25.8670 C   0  0  0  0  0  1  0  0  0  0  0  0
  -25.6650  -33.9490   24.2250 N   0  0  0  0  0  0  0  0  0  0  0  0
  -26.0110  -34.9920   23.4590 C   0  0  0  0  0  0  0  0  0  0  0  0
  -26.6890  -34.8750   22.4340 O   0  0  0  0  0  0  0  0  0  0  0  0
  -25.0610  -34.1140   25.0160 H   0  0  0  0  0  0  0  0  0  0  0  0
  -24.3140  -36.8060   23.0550 C   0  0  0  0  0  1  0  0  0  0  0  0
  -25.5290  -36.3880   23.8990 C   0  0  0  0  0  3  0  0  0  0  0  0
  -27.6450  -37.2570   24.7940 C   0  0  0  0  0  1  0  0  0  0  0  0
  -26.5780  -37.4280   23.8110 N   0  0  0  0  0  0  0  0  0  0  0  0
  -26.1790  -38.3540   23.9360 H   0  0  0  0  0  0  0  0  0  0  0  0
  -30.7300  -17.1000   21.0580 C   0  0  0  0  0  2  0  0  0  0  0  0
  -30.8380  -14.7300   20.1280 C   0  0  0  0  0  0  0  0  0  0  0  0
  -30.5140  -12.5610   18.9700 C   0  0  0  0  0  2  0  0  0  0  0  0
  -29.5290  -12.7450   17.7980 C   0  0  0  0  0  2  0  0  0  0  0  0
  -28.0730  -12.5890   18.2800 C   0  0  0  0  0  2  0  0  0  0  0  0
  -27.7710  -13.4180   19.5570 C   0  0  0  0  0  3  0  0  0  0  0  0
  -28.8680  -13.2220   20.6260 C   0  0  0  0  0  2  0  0  0  0  0  0
  -30.1590  -13.5520   20.0040 N   0  0  0  0  0  0  0  0  0  0  0  0
  -31.9780  -14.8720   19.6820 O   0  0  0  0  0  0  0  0  0  0  0  0
  -30.1560  -15.7890   20.6410 N   0  0  0  0  0  0  0  0  0  0  0  0
  -29.1990  -15.6110   20.9060 H   0  0  0  0  0  0  0  0  0  0  0  0
  -25.3970  -14.0020   20.3490 C   0  0  0  0  0  0  0  0  0  0  0  0
  -24.3470  -13.2210   20.7490 C   0  0  0  0  0  0  0  0  0  0  0  0
  -24.8150  -11.8720   20.7000 C   0  0  0  0  0  0  0  0  0  0  0  0
  -26.4400  -13.1290   20.0820 N   0  0  0  0  0  0  0  0  0  0  0  0
  -26.0950  -11.8430   20.3530 N   0  0  0  0  0  0  0  0  0  0  0  0
  -24.1030  -10.6060   20.9090 C   0  0  0  0  0  0  0  0  0  0  0  0
  -24.5410   -9.6600   21.8630 C   0  0  0  0  0  3  0  0  0  0  0  0
  -23.8290   -8.4570   22.0580 C   0  0  0  0  0  3  0  0  0  0  0  0
  -22.6650   -8.1900   21.2980 C   0  0  0  0  0  0  0  0  0  0  0  0
  -22.2470   -9.1250   20.3330 C   0  0  0  0  0  3  0  0  0  0  0  0
  -22.9600  -10.3190   20.1360 C   0  0  0  0  0  3  0  0  0  0  0  0
  -21.9240   -7.0380   21.4010 O   0  0  0  0  0  0  0  0  0  0  0  0
  -21.8360   -6.3420   22.5790 C   0  0  0  0  0  0  0  0  0  0  0  0
  -21.2900   -6.9190   23.7470 C   0  0  0  0  0  3  0  0  0  0  0  0
  -21.1550   -6.1450   24.9180 C   0  0  0  0  0  3  0  0  0  0  0  0
  -21.5550   -4.7960   24.9210 C   0  0  0  0  0  0  0  0  0  0  0  0
  -22.0940   -4.2180   23.7580 C   0  0  0  0  0  3  0  0  0  0  0  0
  -22.2310   -4.9880   22.5890 C   0  0  0  0  0  0  0  0  0  0  0  0
  -22.7310   -4.4210   21.4650 F   0  0  0  0  0  0  0  0  0  0  0  0
  -21.4180   -4.0500   26.0420 F   0  0  0  0  0  0  0  0  0  0  0  0
  -22.9550  -13.6880   21.0630 C   0  0  0  0  0  0  0  0  0  0  0  0
  -22.2560  -12.9830   21.9460 N   0  0  0  0  0  0  0  0  0  0  0  0
  -22.4960  -14.7140   20.5620 O   0  0  0  0  0  0  0  0  0  0  0  0
  -22.6400  -12.1530   22.3720 H   0  0  0  0  0  0  0  0  0  0  0  0
  -21.3240  -13.2770   22.2000 H   0  0  0  0  0  0  0  0  0  0  0  0
  -25.5470  -15.3740   20.1690 N   0  0  0  0  0  0  0  0  0  0  0  0
  -24.7790  -16.0230   20.3010 H   0  0  0  0  0  0  0  0  0  0  0  0
  -26.3800  -15.8160   19.8010 H   0  0  0  0  0  0  0  0  0  0  0  0
  2  6  1  0
  4  2  1  0
  4  1  1  0
  5  3  1  0
  5  1  1  0
  6  8  1  0
  6  5  1  0
  7  4  1  0
  7  3  1  0
  7 52  1  0
  8  9  1  0
 10 11  1  0
 10  9  1  0
 12 23  2  0
 13 11  1  0
 13 18  1  0
 14 22  1  0
 14 24  1  0
 15 21  1  0
 15 17  1  0
 16 22  1  0
 17 16  1  0
 18 17  2  0
 19 20  1  0
 19 13  2  0
 20 15  2  0
 21 14  1  0
 22 12  1  0
 24 26  2  0
 25 24  1  0
 27 25  1  0
 28 37  2  0
 28 33  1  0
 29 25  1  0
 29 33  1  0
 30 29  1  0
 31 32  1  0
 31 30  1  0
 32 28  1  0
 33 34  2  0
 34 35  1  0
 36 35  2  0
 37 36  1  0
 38 12  1  0
 38 43  1  0
 38 39  1  0
 39 42  1  1
 39 40  1  0
 41 39  1  0
 43 46  1  0
 44 48  1  0
 44 43  1  0
 45 44  2  0
 48 47  1  0
 50 48  1  0
 50 51  1  0
 50 49  1  0
 53 61  1  0
 54 59  1  0
 55 56  1  0
 55 54  1  0
 57 56  1  0
 57 66  1  0
 57 58  1  0
 59 53  1  0
 59 58  1  0
 60 53  2  0
 61 62  1  0
 61 52  1  0
 63 64  2  0
 64 83  1  0
 65 64  1  0
 65 68  1  0
 66 63  1  0
 66 67  1  0
 67 65  2  0
 68 69  1  0
 69 70  2  0
 71 74  1  0
 71 70  1  0
 72 71  2  0
 73 72  1  0
 73 68  2  0
 74 75  1  0
 75 80  2  0
 75 76  1  0
 76 77  2  0
 77 78  1  0
 78 82  1  0
 79 78  2  0
 80 79  1  0
 81 80  1  0
 83 84  1  0
 84 87  1  0
 84 86  1  0
 85 83  2  0
 88 89  1  0
 88 63  1  0
 90 88  1  0
M  ISO  4  10 101  11 101  53 100  61 100
M  END
>  <TORSDO>  (53) 
F 20

>  <SCORE>  (53) 
-12.962

>  <name>  (53) 
52

>  <ligand_id>  (53) 
52

>  <original_smiles>  (53) 
[H]c1c([H])c([H])c2c(c1[H])C([H])([H])C([H])([H])C([H])([H])C2([H])N([H])C(=O)C1([H])N(C(=O)C([H])(N([H])C(=O)C([H])(N([H])C([H])([H])[H])C([H])([H])[H])C(C([H])([H])[H])(C([H])([H])[H])C([H])([H])[H])C([H])([H])c2c([H])c(OC([H])([H])C([H])([H])C([H])([H])C3([H])C([H])([H])C4([H])C([H])([H])C3([H])C([H])([H])C4([H])C([H])([H])N([H])C(=O)N3C([H])([H])C([H])([H])C([H])([H])C([H])(n4nc(-c5c([H])c([H])c(Oc6c([H])c([H])c(F)c([H])c6F)c([H])c5[H])c(C(=O)N([H])[H])c4N([H])[H])C3([H])[H])c([H])c([H])c2C1([H])[H]

>  <smiles>  (53) 
[H]c1c([H])c([H])c2c(c1[H])C([H])([H])C([H])([H])C([H])([H])C2([H])N([H])C(=O)C1([H])N(C(=O)C([H])(N([H])C(=O)C([H])(N([H])C([H])([H])[H])C([H])([H])[H])C(C([H])([H])[H])(C([H])([H])[H])C([H])([H])[H])C([H])([H])c2c([H])c(OC([H])([H])C([H])([H])C([H])([H])C3([H])C([H])([H])C4([H])C([H])([H])C3([H])C([H])([H])C4([H])C([H])([H])N([H])C(=O)N3C([H])([H])C([H])([H])C([H])([H])C([H])(n4nc(-c5c([H])c([H])c(Oc6c([H])c([H])c(F)c([H])c6F)c([H])c5[H])c(C(=O)N([H])[H])c4N([H])[H])C3([H])[H])c([H])c([H])c2C1([H])[H]

$$$$
53:0:0
     RDKit          3D

 92100  0  0  1  0  0  0  0  0999 V2000
  -30.2910  -23.0420   19.9150 C   0  0  0  0  0  2  0  0  0  0  0  0
  -30.7060  -21.5440   19.5160 C   0  0  0  0  0  2  0  0  0  0  0  0
  -28.3940  -21.0810   18.8980 C   0  0  0  0  0  2  0  0  0  0  0  0
  -29.0880  -23.6520   19.1100 C   0  0  0  0  0  3  0  0  0  0  0  0
  -27.9290  -22.5880   19.2240 C   0  0  0  0  0  3  0  0  0  0  0  0
  -29.6200  -20.4050   19.6460 C   0  0  2  0  0  0  0  0  0  0  0  0
  -25.6980  -21.9220   18.0270 C   0  0  0  0  0  1  0  0  0  0  0  0
  -26.7460  -23.0090   18.3150 C   0  0  0  0  0  2  0  0  0  0  0  0
  -28.2610  -19.1120   21.4830 C   0  0  0  0  0  1  0  0  0  0  0  0
  -29.2870  -20.2110   21.1520 C   0  0  0  0  0  2  0  0  0  0  0  0
  -28.8630  -25.3000   18.9490 C   0  0  0  0  0  2  0  0  0  0  0  0
  -28.5920  -26.4530   19.8960 O   0  0  0  0  0  0  0  0  0  0  0  0
  -24.5850  -31.6570   23.0590 C   0  0  0  0  0  0  0  0  0  0  0  0
  -27.4570  -27.3150   19.8170 C   0  0  0  0  0  0  0  0  0  0  0  0
  -23.4800  -30.2800   21.3380 C   0  0  0  0  0  3  0  0  0  0  0  0
  -25.0250  -28.8750   19.8490 C   0  0  0  0  0  0  0  0  0  0  0  0
  -26.0080  -30.7160   21.2110 C   0  0  0  0  0  2  0  0  0  0  0  0
  -26.1650  -29.3690   20.4960 C   0  0  0  0  0  0  0  0  0  0  0  0
  -27.3770  -28.5970   20.4730 C   0  0  0  0  0  3  0  0  0  0  0  0
  -26.2830  -26.8990   19.1510 C   0  0  0  0  0  3  0  0  0  0  0  0
  -25.0930  -27.6530   19.1640 C   0  0  0  0  0  3  0  0  0  0  0  0
  -23.7450  -29.6860   19.9290 C   0  0  0  0  0  2  0  0  0  0  0  0
  -24.7100  -30.9020   21.9260 N   0  0  0  0  0  0  0  0  0  0  0  0
  -23.4800  -31.8500   23.5890 O   0  0  0  0  0  0  0  0  0  0  0  0
  -22.8590  -29.1840   22.2400 C   0  0  0  0  0  0  0  0  0  0  0  0
  -21.5360  -28.9700   22.1130 N   0  0  0  0  0  0  0  0  0  0  0  0
  -23.5650  -28.5350   23.0140 O   0  0  0  0  0  0  0  0  0  0  0  0
  -21.0240  -29.5490   21.4630 H   0  0  0  0  0  0  0  0  0  0  0  0
  -18.2000  -27.6450   22.5900 C   0  0  0  0  0  0  0  0  0  0  0  0
  -20.7570  -27.9570   22.8290 C   0  0  0  0  0  3  0  0  0  0  0  0
  -20.8820  -26.5730   22.1500 C   0  0  0  0  0  2  0  0  0  0  0  0
  -19.7690  -26.2950   21.1360 C   0  0  0  0  0  2  0  0  0  0  0  0
  -18.3970  -26.3540   21.8140 C   0  0  0  0  0  2  0  0  0  0  0  0
  -19.3070  -28.4060   23.0510 C   0  0  0  0  0  0  0  0  0  0  0  0
  -19.0660  -29.6160   23.7380 C   0  0  0  0  0  3  0  0  0  0  0  0
  -17.7510  -30.0660   23.9670 C   0  0  0  0  0  3  0  0  0  0  0  0
  -16.6600  -29.3000   23.5220 C   0  0  0  0  0  3  0  0  0  0  0  0
  -16.8860  -28.0930   22.8390 C   0  0  0  0  0  3  0  0  0  0  0  0
  -25.8190  -32.3310   23.7340 C   0  0  0  0  0  3  0  0  0  0  0  0
  -25.4350  -33.7030   24.1000 N   0  0  0  0  0  0  0  0  0  0  0  0
  -25.7440  -34.7970   23.3910 C   0  0  0  0  0  0  0  0  0  0  0  0
  -26.4480  -34.7590   22.3790 O   0  0  0  0  0  0  0  0  0  0  0  0
  -24.8110  -33.8020   24.8880 H   0  0  0  0  0  0  0  0  0  0  0  0
  -23.9460  -36.5230   23.0500 C   0  0  0  0  0  1  0  0  0  0  0  0
  -25.1830  -36.1470   23.8800 C   0  0  0  0  0  3  0  0  0  0  0  0
  -27.2540  -37.0960   24.7980 C   0  0  0  0  0  1  0  0  0  0  0  0
  -26.1710  -37.2470   23.8300 N   0  0  0  0  0  0  0  0  0  0  0  0
  -25.7210  -38.1430   23.9940 H   0  0  0  0  0  0  0  0  0  0  0  0
  -26.3350  -31.5470   25.0030 C   0  0  1  0  0  0  0  0  0  0  0  0
  -25.2270  -31.2240   26.0340 C   0  0  0  0  0  1  0  0  0  0  0  0
  -26.9940  -30.2100   24.5870 C   0  0  0  0  0  1  0  0  0  0  0  0
  -27.4310  -32.3710   25.7190 C   0  0  0  0  0  1  0  0  0  0  0  0
  -29.9870  -18.9220   18.9830 C   0  0  0  0  0  2  0  0  0  0  0  0
  -30.9920  -17.7720   19.5940 C   0  0  0  0  0  2  0  0  0  0  0  0
  -31.3560  -15.1040   19.4880 C   0  0  0  0  0  0  0  0  0  0  0  0
  -31.0800  -12.7310   18.7270 C   0  0  0  0  0  2  0  0  0  0  0  0
  -30.0580  -12.6830   17.5700 C   0  0  0  0  0  2  0  0  0  0  0  0
  -28.6150  -12.5910   18.1110 C   0  0  0  0  0  2  0  0  0  0  0  0
  -28.3400  -13.6010   19.2590 C   0  0  0  0  0  3  0  0  0  0  0  0
  -29.4730  -13.6010   20.3060 C   0  0  0  0  0  2  0  0  0  0  0  0
  -30.7210  -13.8830   19.5850 N   0  0  0  0  0  0  0  0  0  0  0  0
  -32.5310  -15.1420   19.1090 O   0  0  0  0  0  0  0  0  0  0  0  0
  -30.5990  -16.2730   19.6170 N   0  0  0  0  0  0  0  0  0  0  0  0
  -29.6300  -16.1000   19.8360 H   0  0  0  0  0  0  0  0  0  0  0  0
  -26.1080  -14.3450   20.2820 C   0  0  0  0  0  0  0  0  0  0  0  0
  -25.0110  -13.6450   20.7070 C   0  0  0  0  0  0  0  0  0  0  0  0
  -25.3330  -12.2640   20.5330 C   0  0  0  0  0  0  0  0  0  0  0  0
  -27.0290  -13.3960   19.8690 N   0  0  0  0  0  0  0  0  0  0  0  0
  -26.5750  -12.1340   20.0820 N   0  0  0  0  0  0  0  0  0  0  0  0
  -24.5050  -11.0630   20.7090 C   0  0  0  0  0  0  0  0  0  0  0  0
  -24.8790  -10.0330   21.6000 C   0  0  0  0  0  3  0  0  0  0  0  0
  -24.0590   -8.8970   21.7680 C   0  0  0  0  0  3  0  0  0  0  0  0
  -22.8450   -8.7840   21.0470 C   0  0  0  0  0  0  0  0  0  0  0  0
  -22.4890   -9.8010   20.1440 C   0  0  0  0  0  3  0  0  0  0  0  0
  -23.3090  -10.9290   19.9740 C   0  0  0  0  0  3  0  0  0  0  0  0
  -21.9980   -7.7060   21.1250 O   0  0  0  0  0  0  0  0  0  0  0  0
  -21.8490   -6.9920   22.2870 C   0  0  0  0  0  0  0  0  0  0  0  0
  -21.4050   -7.5990   23.4820 C   0  0  0  0  0  3  0  0  0  0  0  0
  -21.1980   -6.8130   24.6340 C   0  0  0  0  0  3  0  0  0  0  0  0
  -21.4230   -5.4240   24.5900 C   0  0  0  0  0  0  0  0  0  0  0  0
  -21.8590   -4.8190   23.3980 C   0  0  0  0  0  3  0  0  0  0  0  0
  -22.0700   -5.6020   22.2490 C   0  0  0  0  0  0  0  0  0  0  0  0
  -22.4680   -5.0100   21.0970 F   0  0  0  0  0  0  0  0  0  0  0  0
  -21.2160   -4.6680   25.6940 F   0  0  0  0  0  0  0  0  0  0  0  0
  -23.7020  -14.2280   21.1540 C   0  0  0  0  0  0  0  0  0  0  0  0
  -23.0040  -13.5490   22.0580 N   0  0  0  0  0  0  0  0  0  0  0  0
  -23.3150  -15.3190   20.7400 O   0  0  0  0  0  0  0  0  0  0  0  0
  -23.3300  -12.6660   22.4200 H   0  0  0  0  0  0  0  0  0  0  0  0
  -22.1280  -13.9250   22.3960 H   0  0  0  0  0  0  0  0  0  0  0  0
  -26.3840  -15.7050   20.1870 N   0  0  0  0  0  0  0  0  0  0  0  0
  -25.6860  -16.4010   20.4250 H   0  0  0  0  0  0  0  0  0  0  0  0
  -27.2060  -16.1040   19.7540 H   0  0  0  0  0  0  0  0  0  0  0  0
  2  6  1  0
  2  1  1  0
  3  5  1  0
  3  6  1  0
  4 11  1  0
  4  5  1  0
  4  1  1  0
  5  8  1  0
  6 53  1  6
  6 10  1  0
  7  8  1  0
 10  9  1  0
 11 12  1  0
 13 24  2  0
 14 12  1  0
 14 19  1  0
 15 23  1  0
 15 25  1  0
 16 22  1  0
 16 18  1  0
 17 23  1  0
 18 17  1  0
 19 18  2  0
 20 21  1  0
 20 14  2  0
 21 16  2  0
 22 15  1  0
 23 13  1  0
 25 27  2  0
 26 25  1  0
 28 26  1  0
 29 38  2  0
 29 34  1  0
 30 26  1  0
 30 34  1  0
 31 30  1  0
 32 33  1  0
 32 31  1  0
 33 29  1  0
 34 35  2  0
 35 36  1  0
 37 36  2  0
 38 37  1  0
 39 13  1  0
 39 40  1  0
 39 49  1  0
 40 43  1  0
 41 45  1  0
 41 40  1  0
 42 41  2  0
 45 44  1  0
 47 45  1  0
 47 48  1  0
 47 46  1  0
 49 52  1  1
 49 50  1  0
 51 49  1  0
 53 54  1  0
 54 63  1  0
 55 61  1  0
 55 63  1  0
 56 61  1  0
 57 58  1  0
 57 56  1  0
 59 58  1  0
 59 68  1  0
 59 60  1  0
 61 60  1  0
 62 55  2  0
 63 64  1  0
 65 66  2  0
 66 85  1  0
 67 66  1  0
 67 70  1  0
 68 69  1  0
 68 65  1  0
 69 67  2  0
 70 71  1  0
 71 72  2  0
 73 76  1  0
 73 72  1  0
 74 73  2  0
 75 74  1  0
 75 70  2  0
 76 77  1  0
 77 78  1  0
 78 79  2  0
 80 79  1  0
 80 84  1  0
 81 80  2  0
 82 77  2  0
 82 81  1  0
 83 82  1  0
 85 86  1  0
 86 89  1  0
 86 88  1  0
 87 85  2  0
 90 65  1  0
 90 91  1  0
 92 90  1  0
M  ISO  4  11 101  12 101  55 100  63 100
M  END
>  <TORSDO>  (54) 
F 21

>  <SCORE>  (54) 
-10.607

>  <name>  (54) 
53

>  <ligand_id>  (54) 
53

>  <original_smiles>  (54) 
[H]c1c([H])c([H])c2c(c1[H])C([H])([H])C([H])([H])C([H])([H])C2([H])N([H])C(=O)C1([H])N(C(=O)C([H])(N([H])C(=O)C([H])(N([H])C([H])([H])[H])C([H])([H])[H])C(C([H])([H])[H])(C([H])([H])[H])C([H])([H])[H])C([H])([H])c2c([H])c(OC([H])([H])C3([H])C([H])([H])C([H])([H])C(C([H])([H])C([H])([H])[H])(C([H])([H])C([H])([H])N([H])C(=O)N4C([H])([H])C([H])([H])C([H])([H])C([H])(n5nc(-c6c([H])c([H])c(Oc7c([H])c([H])c(F)c([H])c7F)c([H])c6[H])c(C(=O)N([H])[H])c5N([H])[H])C4([H])[H])C([H])([H])C3([H])C([H])([H])C([H])([H])[H])c([H])c([H])c2C1([H])[H]

>  <smiles>  (54) 
[H]c1c([H])c([H])c2c(c1[H])C([H])([H])C([H])([H])C([H])([H])C2([H])N([H])C(=O)C1([H])N(C(=O)C([H])(N([H])C(=O)C([H])(N([H])C([H])([H])[H])C([H])([H])[H])C(C([H])([H])[H])(C([H])([H])[H])C([H])([H])[H])C([H])([H])c2c([H])c(OC([H])([H])C3([H])C([H])([H])C([H])([H])C(C([H])([H])C([H])([H])[H])(C([H])([H])C([H])([H])N([H])C(=O)N4C([H])([H])C([H])([H])C([H])([H])C([H])(n5nc(-c6c([H])c([H])c(Oc7c([H])c([H])c(F)c([H])c7F)c([H])c6[H])c(C(=O)N([H])[H])c5N([H])[H])C4([H])[H])C([H])([H])C3([H])C([H])([H])C([H])([H])[H])c([H])c([H])c2C1([H])[H]

$$$$
54:0:0
     RDKit          3D

 93104  0  0  1  0  0  0  0  0999 V2000
  -27.5740  -20.2940   20.1540 C   0  0  0  0  0  0  0  0  0  0  0  0
  -25.8630  -22.2490   19.2520 C   0  0  0  0  0  2  0  0  0  0  0  0
  -29.5900  -17.6370   18.2220 C   0  0  0  0  0  2  0  0  0  0  0  0
  -28.5100  -18.7700   18.2770 C   0  0  0  0  0  2  0  0  0  0  0  0
  -26.8100  -22.7900   18.0880 C   0  0  0  0  0  3  0  0  0  0  0  0
  -29.9450  -18.9370   20.2370 C   0  0  0  0  0  2  0  0  0  0  0  0
  -29.2880  -21.3480   18.8340 C   0  0  0  0  0  2  0  0  0  0  0  0
  -27.0590  -21.3390   19.2870 C   0  0  2  0  0  0  0  0  0  0  0  0
  -29.8900  -17.4310   19.7190 C   0  0  0  0  0  3  0  0  0  0  0  0
  -28.8810  -19.8450   19.4020 C   0  0  2  0  0  0  0  0  0  0  0  0
  -28.0960  -22.4670   18.9780 C   0  0  2  0  0  0  0  0  0  0  0  0
  -27.1340  -19.7990   21.2090 O   0  0  0  0  0  0  0  0  0  0  0  0
  -31.3970  -15.1130   19.9870 C   0  0  0  0  0  0  0  0  0  0  0  0
  -31.2510  -12.7560   19.1800 C   0  0  0  0  0  2  0  0  0  0  0  0
  -30.3030  -12.8110   17.9610 C   0  0  0  0  0  2  0  0  0  0  0  0
  -28.8180  -12.7660   18.3790 C   0  0  0  0  0  2  0  0  0  0  0  0
  -28.5050  -13.7230   19.5530 C   0  0  0  0  0  3  0  0  0  0  0  0
  -29.5380  -13.5580   20.6900 C   0  0  0  0  0  2  0  0  0  0  0  0
  -30.8530  -13.8540   20.0900 N   0  0  0  0  0  0  0  0  0  0  0  0
  -32.5420  -15.2870   19.5540 O   0  0  0  0  0  0  0  0  0  0  0  0
  -30.4870  -16.1180   20.2630 N   0  0  0  0  0  0  0  0  0  0  0  0
  -29.7570  -15.6500   20.7810 H   0  0  0  0  0  0  0  0  0  0  0  0
  -26.1760  -14.5320   20.2730 C   0  0  0  0  0  0  0  0  0  0  0  0
  -25.0710  -13.8340   20.6840 C   0  0  0  0  0  0  0  0  0  0  0  0
  -25.4160  -12.4480   20.6120 C   0  0  0  0  0  0  0  0  0  0  0  0
  -27.1440  -13.5640   20.0320 N   0  0  0  0  0  0  0  0  0  0  0  0
  -26.6910  -12.3120   20.2850 N   0  0  0  0  0  0  0  0  0  0  0  0
  -24.5860  -11.2430   20.7740 C   0  0  0  0  0  0  0  0  0  0  0  0
  -24.9340  -10.2130   21.6800 C   0  0  0  0  0  3  0  0  0  0  0  0
  -24.1130   -9.0710   21.8200 C   0  0  0  0  0  3  0  0  0  0  0  0
  -22.9290   -8.9510   21.0530 C   0  0  0  0  0  0  0  0  0  0  0  0
  -22.6000   -9.9640   20.1330 C   0  0  0  0  0  3  0  0  0  0  0  0
  -23.4210  -11.0970   19.9930 C   0  0  0  0  0  3  0  0  0  0  0  0
  -22.0790   -7.8720   21.1100 O   0  0  0  0  0  0  0  0  0  0  0  0
  -21.9310   -7.1290   22.2550 C   0  0  0  0  0  0  0  0  0  0  0  0
  -21.4790   -7.7030   23.4640 C   0  0  0  0  0  3  0  0  0  0  0  0
  -21.2750   -6.8900   24.5980 C   0  0  0  0  0  3  0  0  0  0  0  0
  -21.5110   -5.5050   24.5250 C   0  0  0  0  0  0  0  0  0  0  0  0
  -21.9490   -4.9300   23.3200 C   0  0  0  0  0  3  0  0  0  0  0  0
  -22.1560   -5.7390   22.1880 C   0  0  0  0  0  0  0  0  0  0  0  0
  -22.5580   -5.1730   21.0240 F   0  0  0  0  0  0  0  0  0  0  0  0
  -21.3080   -4.7240   25.6110 F   0  0  0  0  0  0  0  0  0  0  0  0
  -23.7250  -14.4110   21.0170 C   0  0  0  0  0  0  0  0  0  0  0  0
  -22.9680  -13.7430   21.8810 N   0  0  0  0  0  0  0  0  0  0  0  0
  -23.3560  -15.4870   20.5500 O   0  0  0  0  0  0  0  0  0  0  0  0
  -23.2770  -12.8740   22.2890 H   0  0  0  0  0  0  0  0  0  0  0  0
  -22.0650  -14.1090   22.1320 H   0  0  0  0  0  0  0  0  0  0  0  0
  -26.4260  -15.8980   20.0840 N   0  0  0  0  0  0  0  0  0  0  0  0
  -25.7290  -16.6040   20.2970 H   0  0  0  0  0  0  0  0  0  0  0  0
  -27.2610  -16.3180   19.6950 H   0  0  0  0  0  0  0  0  0  0  0  0
  -28.4020  -23.8750   19.8490 C   0  0  0  0  0  3  0  0  0  0  0  0
  -28.8400  -25.3060   19.1310 C   0  0  0  0  0  3  0  0  0  0  0  0
  -28.7600  -26.6980   19.7970 O   0  0  0  0  0  0  0  0  0  0  0  0
  -24.5910  -31.7490   23.0440 C   0  0  0  0  0  0  0  0  0  0  0  0
  -27.6170  -27.5460   19.7510 C   0  0  0  0  0  0  0  0  0  0  0  0
  -23.5490  -30.3810   21.2800 C   0  0  0  0  0  3  0  0  0  0  0  0
  -25.1550  -29.0560   19.7680 C   0  0  0  0  0  0  0  0  0  0  0  0
  -26.0750  -30.9060   21.1850 C   0  0  0  0  0  2  0  0  0  0  0  0
  -26.2700  -29.5830   20.4220 C   0  0  0  0  0  0  0  0  0  0  0  0
  -27.4920  -28.8350   20.4050 C   0  0  0  0  0  3  0  0  0  0  0  0
  -26.4670  -27.1100   19.0900 C   0  0  0  0  0  3  0  0  0  0  0  0
  -25.2590  -27.8310   19.0930 C   0  0  0  0  0  3  0  0  0  0  0  0
  -23.8520  -29.8300   19.8610 C   0  0  0  0  0  2  0  0  0  0  0  0
  -24.7680  -31.0220   21.8960 N   0  0  0  0  0  0  0  0  0  0  0  0
  -23.4750  -31.8970   23.5550 O   0  0  0  0  0  0  0  0  0  0  0  0
  -22.9440  -29.2470   22.1540 C   0  0  0  0  0  0  0  0  0  0  0  0
  -21.6280  -28.9860   21.9930 N   0  0  0  0  0  0  0  0  0  0  0  0
  -23.6620  -28.6020   22.9260 O   0  0  0  0  0  0  0  0  0  0  0  0
  -21.0940  -29.5070   21.3170 H   0  0  0  0  0  0  0  0  0  0  0  0
  -18.3350  -27.6970   22.4630 C   0  0  0  0  0  0  0  0  0  0  0  0
  -20.8910  -27.9590   22.7170 C   0  0  0  0  0  3  0  0  0  0  0  0
  -21.0080  -26.5970   22.0220 C   0  0  0  0  0  2  0  0  0  0  0  0
  -19.8880  -26.3240   20.9940 C   0  0  0  0  0  2  0  0  0  0  0  0
  -18.4520  -26.4950   21.5480 C   0  0  0  0  0  2  0  0  0  0  0  0
  -19.4490  -28.3830   22.9880 C   0  0  0  0  0  0  0  0  0  0  0  0
  -19.2780  -29.5420   23.7810 C   0  0  0  0  0  3  0  0  0  0  0  0
  -18.0010  -30.0480   24.0310 C   0  0  0  0  0  3  0  0  0  0  0  0
  -16.8740  -29.3880   23.4990 C   0  0  0  0  0  3  0  0  0  0  0  0
  -17.0300  -28.2060   22.7440 C   0  0  0  0  0  3  0  0  0  0  0  0
  -25.7900  -32.4550   23.7450 C   0  0  0  0  0  3  0  0  0  0  0  0
  -25.3580  -33.8140   24.0960 N   0  0  0  0  0  0  0  0  0  0  0  0
  -25.6600  -34.9210   23.3940 C   0  0  0  0  0  0  0  0  0  0  0  0
  -26.3940  -34.8840   22.4020 O   0  0  0  0  0  0  0  0  0  0  0  0
  -24.7270  -33.9220   24.8800 H   0  0  0  0  0  0  0  0  0  0  0  0
  -23.8400  -36.5970   22.9860 C   0  0  0  0  0  1  0  0  0  0  0  0
  -25.0590  -36.2570   23.8610 C   0  0  0  0  0  3  0  0  0  0  0  0
  -27.0830  -37.2630   24.8170 C   0  0  0  0  0  1  0  0  0  0  0  0
  -26.0220  -37.3820   23.8220 N   0  0  0  0  0  0  0  0  0  0  0  0
  -25.5500  -38.2710   23.9640 H   0  0  0  0  0  0  0  0  0  0  0  0
  -26.2830  -31.6870   25.0360 C   0  0  1  0  0  0  0  0  0  0  0  0
  -25.1610  -31.3530   26.0470 C   0  0  0  0  0  1  0  0  0  0  0  0
  -26.9870  -30.3670   24.6550 C   0  0  0  0  0  1  0  0  0  0  0  0
  -27.3430  -32.5360   25.7700 C   0  0  0  0  0  1  0  0  0  0  0  0
  1 12  2  0
  3  4  1  0
  3  9  1  0
  5 11  1  0
  5  2  1  0
  5  8  1  0
  7 11  1  0
 10  7  1  6
  8  2  1  6
  8  1  1  0
  9  6  1  0
  9 21  1  0
 10  4  1  0
 10  1  1  0
 10  6  1  0
 11  8  1  0
 11 51  1  1
 13 19  1  0
 13 21  1  0
 14 19  1  0
 15 16  1  0
 15 14  1  0
 17 16  1  0
 17 26  1  0
 17 18  1  0
 19 18  1  0
 20 13  2  0
 21 22  1  0
 23 24  2  0
 24 43  1  0
 25 24  1  0
 25 28  1  0
 26 23  1  0
 26 27  1  0
 27 25  2  0
 28 29  1  0
 29 30  2  0
 31 34  1  0
 31 30  1  0
 32 31  2  0
 33 32  1  0
 33 28  2  0
 34 35  1  0
 35 36  1  0
 36 37  2  0
 38 37  1  0
 38 42  1  0
 39 38  2  0
 40 35  2  0
 40 39  1  0
 41 40  1  0
 43 44  1  0
 44 47  1  0
 44 46  1  0
 45 43  2  0
 48 23  1  0
 48 49  1  0
 50 48  1  0
 52 53  1  0
 52 51  2  0
 54 65  2  0
 55 53  1  0
 55 60  1  0
 56 64  1  0
 56 66  1  0
 57 63  1  0
 57 59  1  0
 58 64  1  0
 59 58  1  0
 60 59  2  0
 61 62  1  0
 61 55  2  0
 62 57  2  0
 63 56  1  0
 64 54  1  0
 66 68  2  0
 67 66  1  0
 69 67  1  0
 70 79  2  0
 70 75  1  0
 71 67  1  0
 71 75  1  0
 72 71  1  0
 73 74  1  0
 73 72  1  0
 74 70  1  0
 75 76  2  0
 76 77  1  0
 78 77  2  0
 79 78  1  0
 80 54  1  0
 80 81  1  0
 80 90  1  0
 81 84  1  0
 82 86  1  0
 82 81  1  0
 83 82  2  0
 86 85  1  0
 88 86  1  0
 88 89  1  0
 88 87  1  0
 90 93  1  1
 90 91  1  0
 92 90  1  0
M  ISO  4  13 100  21 100  52 101  53 101
M  END
>  <TORSDO>  (55) 
F 18

>  <SCORE>  (55) 
-10.896

>  <name>  (55) 
54

>  <ligand_id>  (55) 
54

>  <original_smiles>  (55) 
[H]c1c([H])c([H])c2c(c1[H])C([H])([H])C([H])([H])C([H])([H])C2([H])N([H])C(=O)C1([H])N(C(=O)C([H])(N([H])C(=O)C([H])(N([H])C([H])([H])[H])C([H])([H])[H])C(C([H])([H])[H])(C([H])([H])[H])C([H])([H])[H])C([H])([H])c2c([H])c(OC([H])([H])C([H])([H])C34C([H])([H])C([H])([H])C3([H])C(=O)C3(C([H])([H])C([H])([H])C([H])(N([H])C(=O)N5C([H])([H])C([H])([H])C([H])([H])C([H])(n6nc(-c7c([H])c([H])c(Oc8c([H])c([H])c(F)c([H])c8F)c([H])c7[H])c(C(=O)N([H])[H])c6N([H])[H])C5([H])[H])C3([H])[H])C4([H])[H])c([H])c([H])c2C1([H])[H]

>  <smiles>  (55) 
[H]c1c([H])c([H])c2c(c1[H])C([H])([H])C([H])([H])C([H])([H])C2([H])N([H])C(=O)C1([H])N(C(=O)C([H])(N([H])C(=O)C([H])(N([H])C([H])([H])[H])C([H])([H])[H])C(C([H])([H])[H])(C([H])([H])[H])C([H])([H])[H])C([H])([H])c2c([H])c(OC([H])([H])C([H])([H])C34C([H])([H])C([H])([H])C3([H])C(=O)C3(C([H])([H])C([H])([H])C([H])(N([H])C(=O)N5C([H])([H])C([H])([H])C([H])([H])C([H])(n6nc(-c7c([H])c([H])c(Oc8c([H])c([H])c(F)c([H])c8F)c([H])c7[H])c(C(=O)N([H])[H])c6N([H])[H])C5([H])[H])C3([H])[H])C4([H])[H])c([H])c([H])c2C1([H])[H]

$$$$
55:0:0
     RDKit          3D

 95104  0  0  1  0  0  0  0  0999 V2000
  -29.2700  -19.6450   22.1510 C   0  0  0  0  0  2  0  0  0  0  0  0
  -30.7390  -20.0860   20.1350 C   0  0  0  0  0  2  0  0  0  0  0  0
  -28.1520  -20.8140   20.0220 C   0  0  0  0  0  3  0  0  0  0  0  0
  -30.2570  -18.9960   21.1360 C   0  0  0  0  0  3  0  0  0  0  0  0
  -28.4940  -20.8320   21.5260 C   0  0  0  0  0  3  0  0  0  0  0  0
  -29.6560  -21.1770   19.9150 C   0  0  0  0  0  3  0  0  0  0  0  0
  -29.4470  -21.9190   21.1850 N   0  0  1  0  0  4  0  0  0  0  0  0
  -30.2500  -21.9090   21.7970 H   0  0  0  0  0  0  0  0  0  0  0  0
  -27.6170  -19.5520   19.3900 C   0  0  0  0  0  0  0  0  0  0  0  0
  -27.6550  -19.5330   17.8690 C   0  0  0  0  0  1  0  0  0  0  0  0
  -27.1190  -18.5890   19.9780 O   0  0  0  0  0  0  0  0  0  0  0  0
  -31.3800  -18.2150   21.8540 C   0  0  0  0  0  2  0  0  0  0  0  0
  -32.0070  -17.0340   21.0810 C   0  0  0  0  0  2  0  0  0  0  0  0
  -31.7980  -14.6400   20.5600 C   0  0  0  0  0  0  0  0  0  0  0  0
  -31.2420  -12.6040   19.3030 C   0  0  0  0  0  2  0  0  0  0  0  0
  -30.3950  -12.9800   18.0720 C   0  0  0  0  0  2  0  0  0  0  0  0
  -28.9000  -12.9860   18.4410 C   0  0  0  0  0  2  0  0  0  0  0  0
  -28.6020  -13.7940   19.7340 C   0  0  0  0  0  3  0  0  0  0  0  0
  -29.5870  -13.4380   20.8730 C   0  0  0  0  0  2  0  0  0  0  0  0
  -30.9590  -13.5890   20.3610 N   0  0  0  0  0  0  0  0  0  0  0  0
  -32.9300  -14.6730   20.0760 O   0  0  0  0  0  0  0  0  0  0  0  0
  -31.3100  -15.7330   21.1780 N   0  0  0  0  0  0  0  0  0  0  0  0
  -30.3760  -15.6960   21.5620 H   0  0  0  0  0  0  0  0  0  0  0  0
  -26.2330  -14.5950   20.3350 C   0  0  0  0  0  0  0  0  0  0  0  0
  -25.0890  -13.9160   20.6550 C   0  0  0  0  0  0  0  0  0  0  0  0
  -25.4350  -12.5310   20.6390 C   0  0  0  0  0  0  0  0  0  0  0  0
  -27.2100  -13.6310   20.1500 N   0  0  0  0  0  0  0  0  0  0  0  0
  -26.7300  -12.3830   20.3910 N   0  0  0  0  0  0  0  0  0  0  0  0
  -24.5960  -11.3350   20.7910 C   0  0  0  0  0  0  0  0  0  0  0  0
  -24.9400  -10.2990   21.6870 C   0  0  0  0  0  3  0  0  0  0  0  0
  -24.1060   -9.1680   21.8280 C   0  0  0  0  0  3  0  0  0  0  0  0
  -22.9140   -9.0650   21.0730 C   0  0  0  0  0  0  0  0  0  0  0  0
  -22.5880  -10.0890   20.1650 C   0  0  0  0  0  3  0  0  0  0  0  0
  -23.4210  -11.2110   20.0210 C   0  0  0  0  0  3  0  0  0  0  0  0
  -22.0570   -7.9930   21.1270 O   0  0  0  0  0  0  0  0  0  0  0  0
  -21.9290   -7.2300   22.2600 C   0  0  0  0  0  0  0  0  0  0  0  0
  -21.5920   -7.7990   23.5080 C   0  0  0  0  0  3  0  0  0  0  0  0
  -21.4030   -6.9690   24.6310 C   0  0  0  0  0  3  0  0  0  0  0  0
  -21.5400   -5.5730   24.5080 C   0  0  0  0  0  0  0  0  0  0  0  0
  -21.8710   -5.0050   23.2660 C   0  0  0  0  0  3  0  0  0  0  0  0
  -22.0620   -5.8310   22.1450 C   0  0  0  0  0  0  0  0  0  0  0  0
  -22.3590   -5.2770   20.9440 F   0  0  0  0  0  0  0  0  0  0  0  0
  -21.3510   -4.7750   25.5850 F   0  0  0  0  0  0  0  0  0  0  0  0
  -23.7260  -14.5110   20.8660 C   0  0  0  0  0  0  0  0  0  0  0  0
  -22.9170  -13.9020   21.7250 N   0  0  0  0  0  0  0  0  0  0  0  0
  -23.3900  -15.5530   20.3030 O   0  0  0  0  0  0  0  0  0  0  0  0
  -23.2010  -13.0590   22.2030 H   0  0  0  0  0  0  0  0  0  0  0  0
  -21.9990  -14.2820   21.9070 H   0  0  0  0  0  0  0  0  0  0  0  0
  -26.5200  -15.9460   20.1690 N   0  0  0  0  0  0  0  0  0  0  0  0
  -25.8040  -16.6570   20.2550 H   0  0  0  0  0  0  0  0  0  0  0  0
  -27.4200  -16.3120   19.8890 H   0  0  0  0  0  0  0  0  0  0  0  0
  -28.8760  -23.3050   21.0720 C   0  0  0  0  0  2  0  0  0  0  0  0
  -29.8690  -24.5110   21.0910 C   0  0  0  0  0  2  0  0  0  0  0  0
  -29.2710  -25.6690   20.2490 C   0  0  0  0  0  2  0  0  0  0  0  0
  -29.3720  -27.0490   20.6770 O   0  0  0  0  0  0  0  0  0  0  0  0
  -24.7640  -31.7610   23.4070 C   0  0  0  0  0  0  0  0  0  0  0  0
  -28.1930  -27.7610   20.4810 C   0  0  0  0  0  0  0  0  0  0  0  0
  -23.9090  -30.3300   21.5860 C   0  0  0  0  0  3  0  0  0  0  0  0
  -25.6710  -29.0450   20.2690 C   0  0  0  0  0  0  0  0  0  0  0  0
  -26.3940  -30.9500   21.7040 C   0  0  0  0  0  2  0  0  0  0  0  0
  -26.6980  -29.6340   21.0190 C   0  0  0  0  0  0  0  0  0  0  0  0
  -27.9620  -29.0000   21.1300 C   0  0  0  0  0  3  0  0  0  0  0  0
  -27.1520  -27.2300   19.6760 C   0  0  0  0  0  3  0  0  0  0  0  0
  -25.8960  -27.8420   19.5910 C   0  0  0  0  0  3  0  0  0  0  0  0
  -24.3440  -29.7640   20.2100 C   0  0  0  0  0  2  0  0  0  0  0  0
  -25.0320  -31.0270   22.2920 N   0  0  0  0  0  0  0  0  0  0  0  0
  -23.6050  -31.8910   23.8250 O   0  0  0  0  0  0  0  0  0  0  0  0
  -23.2740  -29.1910   22.4180 C   0  0  0  0  0  0  0  0  0  0  0  0
  -21.9760  -28.9350   22.1930 N   0  0  0  0  0  0  0  0  0  0  0  0
  -23.9490  -28.5500   23.2280 O   0  0  0  0  0  0  0  0  0  0  0  0
  -21.4860  -29.5200   21.5300 H   0  0  0  0  0  0  0  0  0  0  0  0
  -18.6420  -27.5660   22.4670 C   0  0  0  0  0  0  0  0  0  0  0  0
  -21.1790  -27.8900   22.8370 C   0  0  0  0  0  3  0  0  0  0  0  0
  -21.3520  -26.5320   22.1180 C   0  0  0  0  0  2  0  0  0  0  0  0
  -20.2890  -26.2760   21.0450 C   0  0  0  0  0  2  0  0  0  0  0  0
  -18.8880  -26.3020   21.6620 C   0  0  0  0  0  2  0  0  0  0  0  0
  -19.7180  -28.3200   23.0060 C   0  0  0  0  0  0  0  0  0  0  0  0
  -19.4350  -29.5050   23.7190 C   0  0  0  0  0  3  0  0  0  0  0  0
  -18.1070  -29.9380   23.8980 C   0  0  0  0  0  3  0  0  0  0  0  0
  -17.0450  -29.1820   23.3740 C   0  0  0  0  0  3  0  0  0  0  0  0
  -17.3130  -27.9960   22.6650 C   0  0  0  0  0  3  0  0  0  0  0  0
  -25.8950  -32.4920   24.1940 C   0  0  0  0  0  3  0  0  0  0  0  0
  -25.4830  -33.8950   24.3550 N   0  0  0  0  0  0  0  0  0  0  0  0
  -25.8960  -34.9010   23.5730 C   0  0  0  0  0  0  0  0  0  0  0  0
  -26.7290  -34.7560   22.6760 O   0  0  0  0  0  0  0  0  0  0  0  0
  -24.7610  -34.0790   25.0360 H   0  0  0  0  0  0  0  0  0  0  0  0
  -24.1820  -36.5710   22.7990 C   0  0  0  0  0  1  0  0  0  0  0  0
  -25.2880  -36.2930   23.8300 C   0  0  0  0  0  3  0  0  0  0  0  0
  -27.2320  -37.3370   24.9090 C   0  0  0  0  0  1  0  0  0  0  0  0
  -26.2850  -37.3850   23.7960 N   0  0  0  0  0  0  0  0  0  0  0  0
  -25.8260  -38.2920   23.8090 H   0  0  0  0  0  0  0  0  0  0  0  0
  -26.2010  -31.8340   25.5940 C   0  0  1  0  0  0  0  0  0  0  0  0
  -24.9440  -31.6050   26.4640 C   0  0  0  0  0  1  0  0  0  0  0  0
  -26.9020  -30.4680   25.4150 C   0  0  0  0  0  1  0  0  0  0  0  0
  -27.1750  -32.7330   26.3920 C   0  0  0  0  0  1  0  0  0  0  0  0
  2  4  1  0
  3  9  1  0
  3  5  1  0
  4 12  1  0
  4  1  1  0
  5  1  1  0
  6  3  1  0
  6  2  1  0
  6  7  1  0
  7  5  1  0
  7  8  1  1
  9 11  2  0
 10  9  1  0
 13 22  1  0
 13 12  1  0
 14 22  1  0
 15 20  1  0
 16 17  1  0
 16 15  1  0
 18 17  1  0
 18 27  1  0
 18 19  1  0
 20 14  1  0
 20 19  1  0
 21 14  2  0
 22 23  1  0
 24 25  2  0
 25 44  1  0
 26 25  1  0
 26 29  1  0
 27 24  1  0
 27 28  1  0
 28 26  2  0
 29 30  1  0
 30 31  2  0
 32 35  1  0
 32 31  1  0
 33 32  2  0
 34 33  1  0
 34 29  2  0
 35 36  1  0
 36 37  1  0
 37 38  2  0
 39 38  1  0
 39 43  1  0
 40 39  2  0
 41 36  2  0
 41 40  1  0
 42 41  1  0
 44 45  1  0
 45 48  1  0
 45 47  1  0
 46 44  2  0
 49 50  1  0
 49 24  1  0
 51 49  1  0
 52 53  1  0
 52  7  1  0
 54 55  1  0
 54 53  1  0
 56 67  2  0
 57 55  1  0
 57 62  1  0
 58 66  1  0
 58 68  1  0
 59 61  1  0
 60 66  1  0
 61 62  2  0
 61 60  1  0
 63 57  2  0
 64 63  1  0
 64 59  2  0
 65 59  1  0
 65 58  1  0
 66 56  1  0
 68 70  2  0
 69 68  1  0
 71 69  1  0
 72 81  2  0
 72 77  1  0
 73 69  1  0
 73 77  1  0
 74 73  1  0
 75 76  1  0
 75 74  1  0
 76 72  1  0
 77 78  2  0
 78 79  1  0
 80 79  2  0
 81 80  1  0
 82 56  1  0
 82 83  1  0
 82 92  1  0
 83 86  1  0
 84 88  1  0
 84 83  1  0
 85 84  2  0
 88 87  1  0
 90 91  1  0
 90 88  1  0
 90 89  1  0
 92 95  1  1
 92 93  1  0
 94 92  1  0
M  ISO  4  14 100  22 100  54 101  55 101
M  END
>  <TORSDO>  (56) 
F 22

>  <SCORE>  (56) 
-9.687

>  <name>  (56) 
55

>  <ligand_id>  (56) 
55

>  <original_smiles>  (56) 
[H]c1c([H])c([H])c2c(c1[H])C([H])([H])C([H])([H])C([H])([H])C2([H])N([H])C(=O)C1([H])N(C(=O)C([H])(N([H])C(=O)C([H])(N([H])C([H])([H])[H])C([H])([H])[H])C(C([H])([H])[H])(C([H])([H])[H])C([H])([H])[H])C([H])([H])c2c([H])c(OC([H])([H])C([H])([H])C([H])([H])[N+]3([H])C4([H])C([H])([H])C([H])(C([H])([H])C([H])([H])N([H])C(=O)N5C([H])([H])C([H])([H])C([H])([H])C([H])(n6nc(-c7c([H])c([H])c(Oc8c([H])c([H])c(F)c([H])c8F)c([H])c7[H])c(C(=O)N([H])[H])c6N([H])[H])C5([H])[H])C([H])([H])C3([H])C4([H])C(=O)C([H])([H])[H])c([H])c([H])c2C1([H])[H]

>  <smiles>  (56) 
[H]c1c([H])c([H])c2c(c1[H])C([H])([H])C([H])([H])C([H])([H])C2([H])N([H])C(=O)C1([H])N(C(=O)C([H])(N([H])C(=O)C([H])(N([H])C([H])([H])[H])C([H])([H])[H])C(C([H])([H])[H])(C([H])([H])[H])C([H])([H])[H])C([H])([H])c2c([H])c(OC([H])([H])C([H])([H])C([H])([H])[N+]3([H])C4([H])C([H])([H])C([H])(C([H])([H])C([H])([H])N([H])C(=O)N5C([H])([H])C([H])([H])C([H])([H])C([H])(n6nc(-c7c([H])c([H])c(Oc8c([H])c([H])c(F)c([H])c8F)c([H])c7[H])c(C(=O)N([H])[H])c6N([H])[H])C5([H])[H])C([H])([H])C3([H])C4([H])C(=O)C([H])([H])[H])c([H])c([H])c2C1([H])[H]

$$$$
56:0:0
     RDKit          3D

 87 95  0  0  1  0  0  0  0  0999 V2000
  -30.3870  -23.7100   19.8330 C   0  0  0  0  0  1  0  0  0  0  0  0
  -28.9650  -23.3780   20.3000 C   0  0  0  0  0  3  0  0  0  0  0  0
  -28.6220  -21.7880   19.8750 C   0  0  0  0  0  2  0  0  0  0  0  0
  -29.6160  -20.4610   20.1330 C   0  0  0  0  0  3  0  0  0  0  0  0
  -29.2610  -18.8600   19.7760 C   0  0  0  0  0  3  0  0  0  0  0  0
  -30.6340  -14.8860   19.8530 C   0  0  0  0  0  0  0  0  0  0  0  0
  -30.3890  -12.5550   18.8910 C   0  0  0  0  0  2  0  0  0  0  0  0
  -29.3730  -12.5550   17.7250 C   0  0  0  0  0  2  0  0  0  0  0  0
  -27.9380  -12.3680   18.2540 C   0  0  0  0  0  2  0  0  0  0  0  0
  -27.6350  -13.2800   19.4750 C   0  0  0  0  0  3  0  0  0  0  0  0
  -28.7670  -13.2410   20.5200 C   0  0  0  0  0  2  0  0  0  0  0  0
  -29.9990  -13.6440   19.8290 N   0  0  0  0  0  0  0  0  0  0  0  0
  -31.7780  -14.9450   19.3900 O   0  0  0  0  0  0  0  0  0  0  0  0
  -30.6820  -17.4360   21.5730 C   0  0  0  0  0  2  0  0  0  0  0  0
  -29.6360  -16.3220   21.6040 C   0  0  0  0  0  2  0  0  0  0  0  0
  -30.3220  -17.6140   20.1070 C   0  0  0  0  0  3  0  0  0  0  0  0
  -29.9300  -16.0820   20.1840 N   0  0  0  0  0  0  0  0  0  0  0  0
  -25.3290  -13.8800   20.4120 C   0  0  0  0  0  0  0  0  0  0  0  0
  -24.2810  -13.1110   20.8410 C   0  0  0  0  0  0  0  0  0  0  0  0
  -24.7140  -11.7550   20.7330 C   0  0  0  0  0  0  0  0  0  0  0  0
  -26.3330  -12.9910   20.0650 N   0  0  0  0  0  0  0  0  0  0  0  0
  -25.9760  -11.7050   20.3220 N   0  0  0  0  0  0  0  0  0  0  0  0
  -23.9780  -10.5000   20.9400 C   0  0  0  0  0  0  0  0  0  0  0  0
  -24.4250   -9.5240   21.8580 C   0  0  0  0  0  3  0  0  0  0  0  0
  -23.6890   -8.3360   22.0550 C   0  0  0  0  0  3  0  0  0  0  0  0
  -22.4920   -8.1150   21.3330 C   0  0  0  0  0  0  0  0  0  0  0  0
  -22.0640   -9.0790   20.4040 C   0  0  0  0  0  3  0  0  0  0  0  0
  -22.8000  -10.2590   20.2060 C   0  0  0  0  0  3  0  0  0  0  0  0
  -21.7250   -6.9800   21.4400 O   0  0  0  0  0  0  0  0  0  0  0  0
  -21.6530   -6.2670   22.6110 C   0  0  0  0  0  0  0  0  0  0  0  0
  -21.2120   -6.8560   23.8160 C   0  0  0  0  0  3  0  0  0  0  0  0
  -21.0850   -6.0710   24.9790 C   0  0  0  0  0  3  0  0  0  0  0  0
  -21.3890   -4.6960   24.9370 C   0  0  0  0  0  0  0  0  0  0  0  0
  -21.8230   -4.1070   23.7370 C   0  0  0  0  0  3  0  0  0  0  0  0
  -21.9510   -4.8900   22.5770 C   0  0  0  0  0  0  0  0  0  0  0  0
  -22.3490   -4.3120   21.4190 F   0  0  0  0  0  0  0  0  0  0  0  0
  -21.2610   -3.9400   26.0520 F   0  0  0  0  0  0  0  0  0  0  0  0
  -22.9200  -13.6040   21.2370 C   0  0  0  0  0  0  0  0  0  0  0  0
  -22.2500  -12.9010   22.1420 N   0  0  0  0  0  0  0  0  0  0  0  0
  -22.4620  -14.6500   20.7770 O   0  0  0  0  0  0  0  0  0  0  0  0
  -22.6370  -12.0560   22.5370 H   0  0  0  0  0  0  0  0  0  0  0  0
  -21.3390  -13.2140   22.4470 H   0  0  0  0  0  0  0  0  0  0  0  0
  -25.5070  -15.2520   20.2650 N   0  0  0  0  0  0  0  0  0  0  0  0
  -24.7660  -15.9180   20.4580 H   0  0  0  0  0  0  0  0  0  0  0  0
  -26.3470  -15.6880   19.9040 H   0  0  0  0  0  0  0  0  0  0  0  0
  -27.9840  -24.6820   19.9190 C   0  0  0  0  0  2  0  0  0  0  0  0
  -28.2430  -26.1750   20.2410 O   0  0  0  0  0  0  0  0  0  0  0  0
  -24.6360  -31.8240   23.2420 C   0  0  0  0  0  0  0  0  0  0  0  0
  -27.1930  -27.1520   20.1650 C   0  0  0  0  0  0  0  0  0  0  0  0
  -23.4330  -30.4580   21.5800 C   0  0  0  0  0  3  0  0  0  0  0  0
  -24.8770  -28.8980   20.1380 C   0  0  0  0  0  0  0  0  0  0  0  0
  -25.9880  -30.7130   21.4310 C   0  0  0  0  0  2  0  0  0  0  0  0
  -26.0540  -29.3320   20.7610 C   0  0  0  0  0  0  0  0  0  0  0  0
  -27.2130  -28.4740   20.7600 C   0  0  0  0  0  3  0  0  0  0  0  0
  -25.9930  -26.8180   19.4980 C   0  0  0  0  0  3  0  0  0  0  0  0
  -24.8580  -27.6550   19.4900 C   0  0  0  0  0  3  0  0  0  0  0  0
  -23.6550  -29.8010   20.1920 C   0  0  0  0  0  2  0  0  0  0  0  0
  -24.7050  -31.0190   22.1390 N   0  0  0  0  0  0  0  0  0  0  0  0
  -23.5500  -32.1080   23.7710 O   0  0  0  0  0  0  0  0  0  0  0  0
  -22.7470  -29.4390   22.5250 C   0  0  0  0  0  0  0  0  0  0  0  0
  -21.4160  -29.2860   22.3970 N   0  0  0  0  0  0  0  0  0  0  0  0
  -23.4120  -28.7910   23.3350 O   0  0  0  0  0  0  0  0  0  0  0  0
  -20.9340  -29.8620   21.7200 H   0  0  0  0  0  0  0  0  0  0  0  0
  -18.0210  -28.1320   22.8960 C   0  0  0  0  0  0  0  0  0  0  0  0
  -20.5850  -28.3490   23.1570 C   0  0  0  0  0  3  0  0  0  0  0  0
  -20.6610  -26.9250   22.5570 C   0  0  0  0  0  2  0  0  0  0  0  0
  -19.5500  -26.6370   21.5420 C   0  0  0  0  0  2  0  0  0  0  0  0
  -18.1730  -26.7930   22.1940 C   0  0  0  0  0  2  0  0  0  0  0  0
  -19.1520  -28.8700   23.3340 C   0  0  0  0  0  0  0  0  0  0  0  0
  -18.9550  -30.1240   23.9520 C   0  0  0  0  0  3  0  0  0  0  0  0
  -17.6590  -30.6400   24.1350 C   0  0  0  0  0  3  0  0  0  0  0  0
  -16.5410  -29.9010   23.7120 C   0  0  0  0  0  3  0  0  0  0  0  0
  -16.7230  -28.6490   23.0980 C   0  0  0  0  0  3  0  0  0  0  0  0
  -25.9170  -32.4430   23.8800 C   0  0  0  0  0  3  0  0  0  0  0  0
  -26.3950  -31.6770   25.1750 C   0  0  1  0  0  0  0  0  0  0  0  0
  -25.2790  -31.4750   26.2270 C   0  0  0  0  0  1  0  0  0  0  0  0
  -26.9600  -30.2850   24.8140 C   0  0  0  0  0  1  0  0  0  0  0  0
  -27.5480  -32.4590   25.8490 C   0  0  0  0  0  1  0  0  0  0  0  0
  -25.6240  -33.8510   24.1950 N   0  0  0  0  0  0  0  0  0  0  0  0
  -25.9690  -34.8930   23.4280 C   0  0  0  0  0  0  0  0  0  0  0  0
  -26.6350  -34.7720   22.3960 O   0  0  0  0  0  0  0  0  0  0  0  0
  -25.0380  -34.0200   24.9990 H   0  0  0  0  0  0  0  0  0  0  0  0
  -24.2560  -36.7020   23.0750 C   0  0  0  0  0  1  0  0  0  0  0  0
  -25.5030  -36.2930   23.8750 C   0  0  0  0  0  3  0  0  0  0  0  0
  -27.6570  -37.1660   24.6660 C   0  0  0  0  0  1  0  0  0  0  0  0
  -26.5430  -37.3360   23.7370 N   0  0  0  0  0  0  0  0  0  0  0  0
  -26.1460  -38.2600   23.8830 H   0  0  0  0  0  0  0  0  0  0  0  0
  2  1  1  0
  3  4  1  0
  3  2  1  0
  5  4  2  0
  6 17  1  0
  7 12  1  0
  8  9  1  0
  8  7  1  0
 10  9  1  0
 10 21  1  0
 10 11  1  0
 12  6  1  0
 12 11  1  0
 13  6  2  0
 14 15  1  0
 16  5  1  0
 16 17  1  0
 16 14  1  0
 17 15  1  0
 18 19  2  0
 19 38  1  0
 20 19  1  0
 20 23  1  0
 21 22  1  0
 21 18  1  0
 22 20  2  0
 23 24  1  0
 24 25  2  0
 26 29  1  0
 26 25  1  0
 27 26  2  0
 28 27  1  0
 28 23  2  0
 29 30  1  0
 30 31  1  0
 31 32  2  0
 33 32  1  0
 33 37  1  0
 34 33  2  0
 35 30  2  0
 35 34  1  0
 36 35  1  0
 38 39  1  0
 39 42  1  0
 39 41  1  0
 40 38  2  0
 43 18  1  0
 43 44  1  0
 45 43  1  0
 46 47  1  0
 46  2  1  0
 48 59  2  0
 49 47  1  0
 49 54  1  0
 50 58  1  0
 50 60  1  0
 51 57  1  0
 51 53  1  0
 52 58  1  0
 53 52  1  0
 54 53  2  0
 55 49  2  0
 56 55  1  0
 56 51  2  0
 57 50  1  0
 58 48  1  0
 60 62  2  0
 61 60  1  0
 63 61  1  0
 64 73  2  0
 64 69  1  0
 65 61  1  0
 65 69  1  0
 66 65  1  0
 67 68  1  0
 67 66  1  0
 68 64  1  0
 69 70  2  0
 70 71  1  0
 72 71  2  0
 73 72  1  0
 74 48  1  0
 74 79  1  0
 74 75  1  0
 75 78  1  1
 75 76  1  0
 77 75  1  0
 79 82  1  0
 80 84  1  0
 80 79  1  0
 81 80  2  0
 84 83  1  0
 86 84  1  0
 86 87  1  0
 86 85  1  0
M  ISO  4   6 100  17 100  46 101  47 101
M  END
>  <TORSDO>  (57) 
F 20

>  <SCORE>  (57) 
-13.435

>  <name>  (57) 
56

>  <ligand_id>  (57) 
56

>  <original_smiles>  (57) 
[H]c1c([H])c([H])c2c(c1[H])C([H])([H])C([H])([H])C([H])([H])C2([H])N([H])C(=O)C1([H])N(C(=O)C([H])(N([H])C(=O)C([H])(N([H])C([H])([H])[H])C([H])([H])[H])C(C([H])([H])[H])(C([H])([H])[H])C([H])([H])[H])C([H])([H])c2c([H])c(OC([H])([H])C([H])(C([H])([H])[H])C([H])([H])C([H])([H])C([H])([H])C3([H])N(C(=O)N4C([H])([H])C([H])([H])C([H])([H])C([H])(n5nc(-c6c([H])c([H])c(Oc7c([H])c([H])c(F)c([H])c7F)c([H])c6[H])c(C(=O)N([H])[H])c5N([H])[H])C4([H])[H])C([H])([H])C3([H])[H])c([H])c([H])c2C1([H])[H]

>  <smiles>  (57) 
[H]c1c([H])c([H])c2c(c1[H])C([H])([H])C([H])([H])C([H])([H])C2([H])N([H])C(=O)C1([H])N(C(=O)C([H])(N([H])C(=O)C([H])(N([H])C([H])([H])[H])C([H])([H])[H])C(C([H])([H])[H])(C([H])([H])[H])C([H])([H])[H])C([H])([H])c2c([H])c(OC([H])([H])C([H])(C([H])([H])[H])C([H])([H])C([H])([H])C([H])([H])C3([H])N(C(=O)N4C([H])([H])C([H])([H])C([H])([H])C([H])(n5nc(-c6c([H])c([H])c(Oc7c([H])c([H])c(F)c([H])c7F)c([H])c6[H])c(C(=O)N([H])[H])c5N([H])[H])C4([H])[H])C([H])([H])C3([H])[H])c([H])c([H])c2C1([H])[H]

$$$$
57:0:0
     RDKit          3D

 92100  0  0  1  0  0  0  0  0999 V2000
  -26.8490  -21.1120   20.2230 C   0  0  0  0  0  2  0  0  0  0  0  0
  -27.5150  -22.4940   20.7250 C   0  0  0  0  0  2  0  0  0  0  0  0
  -27.6440  -21.6100   17.8000 C   0  0  0  0  0  2  0  0  0  0  0  0
  -27.1780  -20.5450   18.7870 C   0  0  0  0  0  3  0  0  0  0  0  0
  -28.1690  -23.3530   19.5930 C   0  0  0  0  0  3  0  0  0  0  0  0
  -26.2100  -19.5230   18.2020 C   0  0  0  0  0  1  0  0  0  0  0  0
  -28.6850  -22.3220   18.5660 N   0  0  2  0  0  4  0  0  0  0  0  0
  -28.5470  -21.6460   19.2990 H   0  0  0  0  0  0  0  0  0  0  0  0
  -28.0240  -25.0200   19.4300 C   0  0  0  0  0  2  0  0  0  0  0  0
  -28.4440  -26.3670   20.0640 O   0  0  0  0  0  0  0  0  0  0  0  0
  -24.7630  -31.9320   23.2720 C   0  0  0  0  0  0  0  0  0  0  0  0
  -27.4540  -27.4140   20.0490 C   0  0  0  0  0  0  0  0  0  0  0  0
  -23.6290  -30.5460   21.5940 C   0  0  0  0  0  3  0  0  0  0  0  0
  -25.1170  -29.1190   20.1100 C   0  0  0  0  0  0  0  0  0  0  0  0
  -26.1800  -30.8960   21.4690 C   0  0  0  0  0  2  0  0  0  0  0  0
  -26.2900  -29.5340   20.7620 C   0  0  0  0  0  0  0  0  0  0  0  0
  -27.4670  -28.6910   20.7380 C   0  0  0  0  0  3  0  0  0  0  0  0
  -26.2590  -27.1550   19.3300 C   0  0  0  0  0  3  0  0  0  0  0  0
  -25.1160  -27.9370   19.3950 C   0  0  0  0  0  3  0  0  0  0  0  0
  -23.8750  -29.9720   20.1850 C   0  0  0  0  0  2  0  0  0  0  0  0
  -24.8760  -31.1450   22.1670 N   0  0  0  0  0  0  0  0  0  0  0  0
  -23.6610  -32.1610   23.7930 O   0  0  0  0  0  0  0  0  0  0  0  0
  -22.9900  -29.4660   22.5050 C   0  0  0  0  0  0  0  0  0  0  0  0
  -21.6780  -29.2160   22.3320 N   0  0  0  0  0  0  0  0  0  0  0  0
  -23.6790  -28.8630   23.3340 O   0  0  0  0  0  0  0  0  0  0  0  0
  -21.1850  -29.7650   21.6450 H   0  0  0  0  0  0  0  0  0  0  0  0
  -18.3580  -27.8120   22.7060 C   0  0  0  0  0  0  0  0  0  0  0  0
  -20.8900  -28.2230   23.0610 C   0  0  0  0  0  3  0  0  0  0  0  0
  -21.0950  -26.8080   22.4760 C   0  0  0  0  0  2  0  0  0  0  0  0
  -20.0450  -26.4300   21.4220 C   0  0  0  0  0  2  0  0  0  0  0  0
  -18.6360  -26.4850   22.0200 C   0  0  0  0  0  2  0  0  0  0  0  0
  -19.4160  -28.6340   23.1790 C   0  0  0  0  0  0  0  0  0  0  0  0
  -19.1030  -29.8730   23.7810 C   0  0  0  0  0  3  0  0  0  0  0  0
  -17.7650  -30.2920   23.9130 C   0  0  0  0  0  3  0  0  0  0  0  0
  -16.7220  -29.4680   23.4570 C   0  0  0  0  0  3  0  0  0  0  0  0
  -17.0200  -28.2310   22.8590 C   0  0  0  0  0  3  0  0  0  0  0  0
  -26.0050  -32.6050   23.9260 C   0  0  0  0  0  3  0  0  0  0  0  0
  -25.6470  -33.9980   24.2330 N   0  0  0  0  0  0  0  0  0  0  0  0
  -25.9540  -35.0540   23.4670 C   0  0  0  0  0  0  0  0  0  0  0  0
  -26.6380  -34.9590   22.4420 O   0  0  0  0  0  0  0  0  0  0  0  0
  -25.0470  -34.1450   25.0300 H   0  0  0  0  0  0  0  0  0  0  0  0
  -24.1800  -36.7980   23.0740 C   0  0  0  0  0  1  0  0  0  0  0  0
  -25.4230  -36.4340   23.9030 C   0  0  0  0  0  3  0  0  0  0  0  0
  -27.5140  -37.3960   24.7630 C   0  0  0  0  0  1  0  0  0  0  0  0
  -26.4250  -37.5160   23.7950 N   0  0  0  0  0  0  0  0  0  0  0  0
  -25.9890  -38.4240   23.9200 H   0  0  0  0  0  0  0  0  0  0  0  0
  -26.4890  -31.8630   25.2300 C   0  0  1  0  0  0  0  0  0  0  0  0
  -25.3580  -31.5820   26.2500 C   0  0  0  0  0  1  0  0  0  0  0  0
  -27.1510  -30.5110   24.8790 C   0  0  0  0  0  1  0  0  0  0  0  0
  -27.5740  -32.7110   25.9430 C   0  0  0  0  0  1  0  0  0  0  0  0
  -30.0870  -21.7250   18.4200 C   0  0  0  0  0  2  0  0  0  0  0  0
  -30.4680  -20.4490   19.3410 C   0  0  0  0  0  3  0  0  0  0  0  0
  -30.5010  -18.8970   18.8210 C   0  0  0  0  0  3  0  0  0  0  0  0
  -31.0360  -17.7940   19.9100 C   0  0  0  0  0  2  0  0  0  0  0  0
  -31.2450  -15.1740   20.2730 C   0  0  0  0  0  0  0  0  0  0  0  0
  -31.0050  -12.8320   19.4670 C   0  0  0  0  0  2  0  0  0  0  0  0
  -30.1100  -12.8480   18.2060 C   0  0  0  0  0  2  0  0  0  0  0  0
  -28.6440  -12.6760   18.6130 C   0  0  0  0  0  2  0  0  0  0  0  0
  -28.2060  -13.6310   19.7770 C   0  0  0  0  0  3  0  0  0  0  0  0
  -29.2670  -13.6760   20.9100 C   0  0  0  0  0  2  0  0  0  0  0  0
  -30.5670  -13.9710   20.2860 N   0  0  0  0  0  0  0  0  0  0  0  0
  -32.4800  -15.2000   20.2010 O   0  0  0  0  0  0  0  0  0  0  0  0
  -30.5310  -16.3420   20.0070 N   0  0  0  0  0  0  0  0  0  0  0  0
  -29.5270  -16.2310   19.9940 H   0  0  0  0  0  0  0  0  0  0  0  0
  -25.8320  -14.2230   20.5130 C   0  0  0  0  0  0  0  0  0  0  0  0
  -24.7570  -13.4480   20.8520 C   0  0  0  0  0  0  0  0  0  0  0  0
  -25.2000  -12.0830   20.7780 C   0  0  0  0  0  0  0  0  0  0  0  0
  -26.8660  -13.3330   20.2700 N   0  0  0  0  0  0  0  0  0  0  0  0
  -26.4970  -12.0440   20.4980 N   0  0  0  0  0  0  0  0  0  0  0  0
  -24.4590  -10.8310   20.9090 C   0  0  0  0  0  0  0  0  0  0  0  0
  -24.7920   -9.8890   21.9090 C   0  0  0  0  0  3  0  0  0  0  0  0
  -24.0440   -8.6950   22.0240 C   0  0  0  0  0  3  0  0  0  0  0  0
  -22.9600   -8.4540   21.1630 C   0  0  0  0  0  0  0  0  0  0  0  0
  -22.6210   -9.4030   20.1780 C   0  0  0  0  0  3  0  0  0  0  0  0
  -23.3710  -10.5820   20.0430 C   0  0  0  0  0  3  0  0  0  0  0  0
  -22.2030   -7.3190   21.1650 O   0  0  0  0  0  0  0  0  0  0  0  0
  -21.9550   -6.6370   22.3300 C   0  0  0  0  0  0  0  0  0  0  0  0
  -21.2630   -7.2380   23.4030 C   0  0  0  0  0  3  0  0  0  0  0  0
  -20.9570   -6.4820   24.5490 C   0  0  0  0  0  3  0  0  0  0  0  0
  -21.3510   -5.1340   24.6320 C   0  0  0  0  0  0  0  0  0  0  0  0
  -22.0500   -4.5400   23.5660 C   0  0  0  0  0  3  0  0  0  0  0  0
  -22.3410   -5.2820   22.4160 C   0  0  0  0  0  0  0  0  0  0  0  0
  -22.9930   -4.7060   21.3790 F   0  0  0  0  0  0  0  0  0  0  0  0
  -21.0580   -4.4050   25.7340 F   0  0  0  0  0  0  0  0  0  0  0  0
  -23.3720  -13.9410   21.0970 C   0  0  0  0  0  0  0  0  0  0  0  0
  -22.5940  -13.2580   21.9100 N   0  0  0  0  0  0  0  0  0  0  0  0
  -22.9870  -14.9920   20.5790 O   0  0  0  0  0  0  0  0  0  0  0  0
  -22.9360  -12.4150   22.3650 H   0  0  0  0  0  0  0  0  0  0  0  0
  -21.6510  -13.5810   22.0810 H   0  0  0  0  0  0  0  0  0  0  0  0
  -26.0160  -15.6000   20.3740 N   0  0  0  0  0  0  0  0  0  0  0  0
  -25.2590  -16.2510   20.5260 H   0  0  0  0  0  0  0  0  0  0  0  0
  -26.8420  -15.9910   19.9200 H   0  0  0  0  0  0  0  0  0  0  0  0
  1  2  1  0
  3  7  1  0
  3  4  1  0
  4  6  1  0
  4  1  1  0
  5  9  1  0
  5  2  1  0
  7  8  1  1
  7  5  1  0
  9 10  1  0
 11 22  2  0
 12 10  1  0
 12 17  1  0
 13 21  1  0
 13 23  1  0
 14 20  1  0
 14 16  1  0
 15 21  1  0
 16 15  1  0
 17 16  2  0
 18 19  1  0
 18 12  2  0
 19 14  2  0
 20 13  1  0
 21 11  1  0
 23 25  2  0
 24 23  1  0
 26 24  1  0
 27 36  2  0
 27 32  1  0
 28 24  1  0
 28 32  1  0
 29 28  1  0
 30 31  1  0
 30 29  1  0
 31 27  1  0
 32 33  2  0
 33 34  1  0
 35 34  2  0
 36 35  1  0
 37 11  1  0
 37 38  1  0
 37 47  1  0
 38 41  1  0
 39 43  1  0
 39 38  1  0
 40 39  2  0
 43 42  1  0
 45 43  1  0
 45 46  1  0
 45 44  1  0
 47 50  1  1
 47 48  1  0
 49 47  1  0
 51  7  1  0
 51 52  1  0
 53 52  2  0
 53 54  1  0
 54 63  1  0
 55 61  1  0
 56 61  1  0
 57 58  1  0
 57 56  1  0
 59 58  1  0
 59 68  1  0
 59 60  1  0
 61 60  1  0
 62 55  2  0
 63 55  1  0
 64 63  1  0
 65 66  2  0
 66 85  1  0
 67 66  1  0
 67 70  1  0
 68 69  1  0
 68 65  1  0
 69 67  2  0
 70 71  1  0
 71 72  2  0
 73 76  1  0
 73 72  1  0
 74 73  2  0
 75 74  1  0
 75 70  2  0
 76 77  1  0
 77 82  2  0
 77 78  1  0
 78 79  2  0
 79 80  1  0
 80 84  1  0
 81 80  2  0
 82 81  1  0
 83 82  1  0
 85 86  1  0
 86 89  1  0
 86 88  1  0
 87 85  2  0
 90 65  1  0
 90 91  1  0
 92 90  1  0
M  ISO  4   9 101  10 101  55 100  63 100
M  END
>  <TORSDO>  (58) 
F 21

>  <SCORE>  (58) 
-11.707

>  <name>  (58) 
57

>  <ligand_id>  (58) 
57

>  <original_smiles>  (58) 
[H]c1c([H])c([H])c2c(c1[H])C([H])([H])C([H])([H])C([H])([H])C2([H])N([H])C(=O)C1([H])N(C(=O)C([H])(N([H])C(=O)C([H])(N([H])C([H])([H])[H])C([H])([H])[H])C(C([H])([H])[H])(C([H])([H])[H])C([H])([H])[H])C([H])([H])c2c([H])c(OC([H])([H])C3([H])C([H])([H])C([H])([H])C([H])(C([H])([H])[H])C([H])([H])[N+]3([H])C([H])([H])C([H])([H])C([H])([H])C([H])([H])N([H])C(=O)N3C([H])([H])C([H])([H])C([H])([H])C([H])(n4nc(-c5c([H])c([H])c(Oc6c([H])c([H])c(F)c([H])c6F)c([H])c5[H])c(C(=O)N([H])[H])c4N([H])[H])C3([H])[H])c([H])c([H])c2C1([H])[H]

>  <smiles>  (58) 
[H]c1c([H])c([H])c2c(c1[H])C([H])([H])C([H])([H])C([H])([H])C2([H])N([H])C(=O)C1([H])N(C(=O)C([H])(N([H])C(=O)C([H])(N([H])C([H])([H])[H])C([H])([H])[H])C(C([H])([H])[H])(C([H])([H])[H])C([H])([H])[H])C([H])([H])c2c([H])c(OC([H])([H])C3([H])C([H])([H])C([H])([H])C([H])(C([H])([H])[H])C([H])([H])[N+]3([H])C([H])([H])C([H])([H])C([H])([H])C([H])([H])N([H])C(=O)N3C([H])([H])C([H])([H])C([H])([H])C([H])(n4nc(-c5c([H])c([H])c(Oc6c([H])c([H])c(F)c([H])c6F)c([H])c5[H])c(C(=O)N([H])[H])c4N([H])[H])C3([H])[H])c([H])c([H])c2C1([H])[H]

$$$$
58:0:0
     RDKit          3D

 91 99  0  0  1  0  0  0  0  0999 V2000
  -27.4700  -20.4380   20.7490 C   0  0  0  0  0  2  0  0  0  0  0  0
  -27.0390  -21.7810   20.1400 C   0  0  0  0  0  2  0  0  0  0  0  0
  -28.5910  -19.7190   19.9920 C   0  0  0  0  0  2  0  0  0  0  0  0
  -28.1550  -22.7260   19.6600 C   0  0  0  0  0  2  0  0  0  0  0  0
  -30.4310  -21.5770   20.1280 C   0  0  0  0  0  2  0  0  0  0  0  0
  -30.0130  -20.0560   20.4940 C   0  0  0  0  0  3  0  0  0  0  0  0
  -29.4310  -22.7770   20.5300 C   0  0  0  0  0  3  0  0  0  0  0  0
  -29.3550  -24.7620   22.1620 C   0  0  0  0  0  1  0  0  0  0  0  0
  -29.9250  -24.3110   20.8000 C   0  0  0  0  0  3  0  0  0  0  0  0
  -29.6310  -25.5070   19.7660 C   0  0  0  0  0  2  0  0  0  0  0  0
  -29.4330  -26.9000   20.2830 O   0  0  0  0  0  0  0  0  0  0  0  0
  -24.7660  -31.5290   23.3120 C   0  0  0  0  0  0  0  0  0  0  0  0
  -28.2050  -27.5870   20.1840 C   0  0  0  0  0  0  0  0  0  0  0  0
  -23.8990  -30.1300   21.4760 C   0  0  0  0  0  3  0  0  0  0  0  0
  -25.6510  -28.9000   20.0820 C   0  0  0  0  0  0  0  0  0  0  0  0
  -26.3830  -30.7720   21.5560 C   0  0  0  0  0  2  0  0  0  0  0  0
  -26.6950  -29.4730   20.8180 C   0  0  0  0  0  0  0  0  0  0  0  0
  -27.9700  -28.8270   20.8620 C   0  0  0  0  0  3  0  0  0  0  0  0
  -27.1290  -27.0830   19.4130 C   0  0  0  0  0  3  0  0  0  0  0  0
  -25.8720  -27.7100   19.3760 C   0  0  0  0  0  3  0  0  0  0  0  0
  -24.3130  -29.6060   20.0770 C   0  0  0  0  0  2  0  0  0  0  0  0
  -25.0280  -30.8270   22.1720 N   0  0  0  0  0  0  0  0  0  0  0  0
  -23.6130  -31.6230   23.7600 O   0  0  0  0  0  0  0  0  0  0  0  0
  -23.3030  -28.9580   22.2950 C   0  0  0  0  0  0  0  0  0  0  0  0
  -22.0290  -28.6230   22.0310 N   0  0  0  0  0  0  0  0  0  0  0  0
  -23.9900  -28.3580   23.1260 O   0  0  0  0  0  0  0  0  0  0  0  0
  -21.5280  -29.1700   21.3460 H   0  0  0  0  0  0  0  0  0  0  0  0
  -18.7990  -27.0000   22.1570 C   0  0  0  0  0  0  0  0  0  0  0  0
  -21.2810  -27.5280   22.6510 C   0  0  0  0  0  3  0  0  0  0  0  0
  -21.5970  -26.1770   21.9690 C   0  0  0  0  0  2  0  0  0  0  0  0
  -20.6160  -25.8270   20.8450 C   0  0  0  0  0  2  0  0  0  0  0  0
  -19.1860  -25.7490   21.3880 C   0  0  0  0  0  2  0  0  0  0  0  0
  -19.7830  -27.8430   22.7370 C   0  0  0  0  0  0  0  0  0  0  0  0
  -19.3700  -29.0120   23.4140 C   0  0  0  0  0  3  0  0  0  0  0  0
  -18.0060  -29.3390   23.5190 C   0  0  0  0  0  3  0  0  0  0  0  0
  -17.0350  -28.4930   22.9540 C   0  0  0  0  0  3  0  0  0  0  0  0
  -17.4320  -27.3260   22.2780 C   0  0  0  0  0  3  0  0  0  0  0  0
  -25.8960  -32.2660   24.0950 C   0  0  0  0  0  3  0  0  0  0  0  0
  -26.2540  -31.5730   25.4680 C   0  0  1  0  0  0  0  0  0  0  0  0
  -25.0250  -31.3000   26.3660 C   0  0  0  0  0  1  0  0  0  0  0  0
  -26.9730  -30.2250   25.2310 C   0  0  0  0  0  1  0  0  0  0  0  0
  -27.2380  -32.4640   26.2620 C   0  0  0  0  0  1  0  0  0  0  0  0
  -25.4540  -33.6490   24.3140 N   0  0  0  0  0  0  0  0  0  0  0  0
  -25.8270  -34.6980   23.5680 C   0  0  0  0  0  0  0  0  0  0  0  0
  -26.6470  -34.6070   22.6500 O   0  0  0  0  0  0  0  0  0  0  0  0
  -24.7400  -33.7910   25.0150 H   0  0  0  0  0  0  0  0  0  0  0  0
  -24.0510  -36.3490   22.8990 C   0  0  0  0  0  1  0  0  0  0  0  0
  -25.1910  -36.0630   23.8910 C   0  0  0  0  0  3  0  0  0  0  0  0
  -27.1120  -37.1380   24.9770 C   0  0  0  0  0  1  0  0  0  0  0  0
  -26.1570  -37.1830   23.8730 N   0  0  0  0  0  0  0  0  0  0  0  0
  -25.6740  -38.0760   23.9090 H   0  0  0  0  0  0  0  0  0  0  0  0
  -30.9540  -18.8320   20.0460 C   0  0  0  0  0  2  0  0  0  0  0  0
  -31.1520  -17.5820   21.0400 C   0  0  0  0  0  2  0  0  0  0  0  0
  -31.5270  -15.0640   20.3970 C   0  0  0  0  0  0  0  0  0  0  0  0
  -31.3030  -12.8110   19.3530 C   0  0  0  0  0  2  0  0  0  0  0  0
  -30.3860  -12.9040   18.1130 C   0  0  0  0  0  2  0  0  0  0  0  0
  -28.9020  -12.7800   18.5120 C   0  0  0  0  0  2  0  0  0  0  0  0
  -28.5250  -13.6790   19.7200 C   0  0  0  0  0  3  0  0  0  0  0  0
  -29.5560  -13.5440   20.8600 C   0  0  0  0  0  2  0  0  0  0  0  0
  -30.8750  -13.8610   20.2970 N   0  0  0  0  0  0  0  0  0  0  0  0
  -32.7230  -15.1630   20.1100 O   0  0  0  0  0  0  0  0  0  0  0  0
  -30.7570  -16.1740   20.6490 N   0  0  0  0  0  0  0  0  0  0  0  0
  -29.7750  -15.9700   20.7510 H   0  0  0  0  0  0  0  0  0  0  0  0
  -26.1430  -14.3350   20.4210 C   0  0  0  0  0  0  0  0  0  0  0  0
  -25.0440  -13.5890   20.7490 C   0  0  0  0  0  0  0  0  0  0  0  0
  -25.4610  -12.2230   20.6860 C   0  0  0  0  0  0  0  0  0  0  0  0
  -27.1610  -13.4270   20.1790 N   0  0  0  0  0  0  0  0  0  0  0  0
  -26.7550  -12.1500   20.4010 N   0  0  0  0  0  0  0  0  0  0  0  0
  -24.6880  -10.9820   20.8250 C   0  0  0  0  0  0  0  0  0  0  0  0
  -25.0080  -10.0190   21.8070 C   0  0  0  0  0  3  0  0  0  0  0  0
  -24.2390   -8.8430   21.9330 C   0  0  0  0  0  3  0  0  0  0  0  0
  -23.1350   -8.6200   21.0750 C   0  0  0  0  0  0  0  0  0  0  0  0
  -22.8360   -9.5720   20.0840 C   0  0  0  0  0  3  0  0  0  0  0  0
  -23.6050  -10.7390   19.9560 C   0  0  0  0  0  3  0  0  0  0  0  0
  -22.3490   -7.4950   21.1070 O   0  0  0  0  0  0  0  0  0  0  0  0
  -22.0800   -6.8370   22.2800 C   0  0  0  0  0  0  0  0  0  0  0  0
  -21.4070   -7.4650   23.3520 C   0  0  0  0  0  3  0  0  0  0  0  0
  -21.0940   -6.7300   24.5130 C   0  0  0  0  0  3  0  0  0  0  0  0
  -21.4430   -5.3700   24.6020 C   0  0  0  0  0  0  0  0  0  0  0  0
  -22.1090   -4.7420   23.5340 C   0  0  0  0  0  3  0  0  0  0  0  0
  -22.4230   -5.4740   22.3760 C   0  0  0  0  0  0  0  0  0  0  0  0
  -23.0460   -4.8590   21.3410 F   0  0  0  0  0  0  0  0  0  0  0  0
  -21.1350   -4.6620   25.7130 F   0  0  0  0  0  0  0  0  0  0  0  0
  -23.6580  -14.1040   21.0070 C   0  0  0  0  0  0  0  0  0  0  0  0
  -22.8940  -13.4150   21.8460 N   0  0  0  0  0  0  0  0  0  0  0  0
  -23.2630  -15.1530   20.4990 O   0  0  0  0  0  0  0  0  0  0  0  0
  -23.2270  -12.5650   22.2770 H   0  0  0  0  0  0  0  0  0  0  0  0
  -21.9620  -13.7400   22.0590 H   0  0  0  0  0  0  0  0  0  0  0  0
  -26.3570  -15.7040   20.2830 N   0  0  0  0  0  0  0  0  0  0  0  0
  -25.6100  -16.3810   20.3890 H   0  0  0  0  0  0  0  0  0  0  0  0
  -27.2170  -16.1200   19.9520 H   0  0  0  0  0  0  0  0  0  0  0  0
  2  1  1  0
  3  6  1  0
  3  1  1  0
  4  2  1  0
  4  7  1  0
  5  6  1  0
  5  7  1  0
  6 52  1  0
  7  9  1  0
  9  8  1  0
 10 11  1  0
 10  9  1  0
 12 23  2  0
 13 11  1  0
 13 18  1  0
 14 22  1  0
 14 24  1  0
 15 17  1  0
 16 22  1  0
 17 18  2  0
 17 16  1  0
 19 13  2  0
 20 19  1  0
 20 15  2  0
 21 15  1  0
 21 14  1  0
 22 12  1  0
 24 26  2  0
 25 24  1  0
 27 25  1  0
 28 37  2  0
 28 33  1  0
 29 25  1  0
 29 33  1  0
 30 29  1  0
 31 32  1  0
 31 30  1  0
 32 28  1  0
 33 34  2  0
 34 35  1  0
 36 35  2  0
 37 36  1  0
 38 12  1  0
 38 43  1  0
 38 39  1  0
 39 42  1  1
 39 40  1  0
 41 39  1  0
 43 46  1  0
 44 48  1  0
 44 43  1  0
 45 44  2  0
 48 47  1  0
 50 48  1  0
 50 51  1  0
 50 49  1  0
 52 53  1  0
 54 62  1  0
 55 60  1  0
 56 57  1  0
 56 55  1  0
 58 57  1  0
 58 67  1  0
 58 59  1  0
 60 54  1  0
 60 59  1  0
 61 54  2  0
 62 63  1  0
 62 53  1  0
 64 65  2  0
 65 84  1  0
 66 65  1  0
 66 69  1  0
 67 68  1  0
 67 64  1  0
 68 66  2  0
 69 70  1  0
 70 71  2  0
 72 75  1  0
 72 71  1  0
 73 72  2  0
 74 73  1  0
 74 69  2  0
 75 76  1  0
 76 81  2  0
 76 77  1  0
 77 78  2  0
 78 79  1  0
 79 83  1  0
 80 79  2  0
 81 80  1  0
 82 81  1  0
 84 85  1  0
 85 88  1  0
 85 87  1  0
 86 84  2  0
 89 90  1  0
 89 64  1  0
 91 89  1  0
M  ISO  4  10 101  11 101  54 100  62 100
M  END
>  <TORSDO>  (59) 
F 20

>  <SCORE>  (59) 
-10.749

>  <name>  (59) 
58

>  <ligand_id>  (59) 
58

>  <original_smiles>  (59) 
[H]c1c([H])c([H])c2c(c1[H])C([H])([H])C([H])([H])C([H])([H])C2([H])N([H])C(=O)C1([H])N(C(=O)C([H])(N([H])C(=O)C([H])(N([H])C([H])([H])[H])C([H])([H])[H])C(C([H])([H])[H])(C([H])([H])[H])C([H])([H])[H])C([H])([H])c2c([H])c(OC([H])([H])C([H])(C([H])([H])[H])C3([H])C([H])([H])C([H])([H])C([H])([H])C([H])([H])C([H])(C([H])([H])C([H])([H])N([H])C(=O)N4C([H])([H])C([H])([H])C([H])([H])C([H])(n5nc(-c6c([H])c([H])c(Oc7c([H])c([H])c(F)c([H])c7F)c([H])c6[H])c(C(=O)N([H])[H])c5N([H])[H])C4([H])[H])C3([H])[H])c([H])c([H])c2C1([H])[H]

>  <smiles>  (59) 
[H]c1c([H])c([H])c2c(c1[H])C([H])([H])C([H])([H])C([H])([H])C2([H])N([H])C(=O)C1([H])N(C(=O)C([H])(N([H])C(=O)C([H])(N([H])C([H])([H])[H])C([H])([H])[H])C(C([H])([H])[H])(C([H])([H])[H])C([H])([H])[H])C([H])([H])c2c([H])c(OC([H])([H])C([H])(C([H])([H])[H])C3([H])C([H])([H])C([H])([H])C([H])([H])C([H])([H])C([H])(C([H])([H])C([H])([H])N([H])C(=O)N4C([H])([H])C([H])([H])C([H])([H])C([H])(n5nc(-c6c([H])c([H])c(Oc7c([H])c([H])c(F)c([H])c7F)c([H])c6[H])c(C(=O)N([H])[H])c5N([H])[H])C4([H])[H])C3([H])[H])c([H])c([H])c2C1([H])[H]

$$$$
59:0:0
     RDKit          3D

 94103  0  0  1  0  0  0  0  0999 V2000
  -28.7250  -18.6080   21.1780 C   0  0  0  0  0  3  0  0  0  0  0  0
  -29.4040  -17.3720   21.2570 C   0  0  0  0  0  3  0  0  0  0  0  0
  -29.2600  -18.7360   18.8390 C   0  0  0  0  0  3  0  0  0  0  0  0
  -28.6680  -19.3260   19.9720 C   0  0  0  0  0  0  0  0  0  0  0  0
  -30.0650  -16.7740   20.1440 C   0  0  0  0  0  0  0  0  0  0  0  0
  -29.9350  -17.4870   18.8980 C   0  0  0  0  0  0  0  0  0  0  0  0
  -30.5100  -17.0110   17.5710 C   0  0  0  0  0  1  0  0  0  0  0  0
  -32.4470  -16.2220   20.4350 C   0  0  0  0  0  1  0  0  0  0  0  0
  -31.0370  -15.5510   20.4200 C   0  0  2  0  0  0  0  0  0  0  0  0
  -31.0830  -14.4100   19.3100 C   0  0  0  0  0  0  0  0  0  0  0  0
  -30.4000  -12.3450   18.1110 C   0  0  0  0  0  2  0  0  0  0  0  0
  -29.2870  -12.5910   17.0750 C   0  0  0  0  0  2  0  0  0  0  0  0
  -27.9040  -12.4670   17.7390 C   0  0  0  0  0  2  0  0  0  0  0  0
  -27.8030  -13.2910   19.0470 C   0  0  0  0  0  3  0  0  0  0  0  0
  -29.0160  -13.0480   19.9600 C   0  0  0  0  0  2  0  0  0  0  0  0
  -30.2460  -13.3300   19.2060 N   0  0  0  0  0  0  0  0  0  0  0  0
  -31.9990  -14.5120   18.4860 O   0  0  0  0  0  0  0  0  0  0  0  0
  -25.6220  -13.9230   20.2490 C   0  0  0  0  0  0  0  0  0  0  0  0
  -24.5980  -13.1640   20.7530 C   0  0  0  0  0  0  0  0  0  0  0  0
  -24.9710  -11.8040   20.5320 C   0  0  0  0  0  0  0  0  0  0  0  0
  -26.5520  -13.0240   19.7530 N   0  0  0  0  0  0  0  0  0  0  0  0
  -26.1770  -11.7390   19.9820 N   0  0  0  0  0  0  0  0  0  0  0  0
  -24.2230  -10.5590   20.7570 C   0  0  0  0  0  0  0  0  0  0  0  0
  -24.6920   -9.5620   21.6400 C   0  0  0  0  0  3  0  0  0  0  0  0
  -23.9450   -8.3830   21.8520 C   0  0  0  0  0  3  0  0  0  0  0  0
  -22.7130   -8.1930   21.1810 C   0  0  0  0  0  0  0  0  0  0  0  0
  -22.2620   -9.1780   20.2850 C   0  0  0  0  0  3  0  0  0  0  0  0
  -23.0100  -10.3480   20.0710 C   0  0  0  0  0  3  0  0  0  0  0  0
  -21.9330   -7.0700   21.3060 O   0  0  0  0  0  0  0  0  0  0  0  0
  -21.8630   -6.3680   22.4830 C   0  0  0  0  0  0  0  0  0  0  0  0
  -21.4520   -6.9760   23.6900 C   0  0  0  0  0  3  0  0  0  0  0  0
  -21.3280   -6.2020   24.8610 C   0  0  0  0  0  3  0  0  0  0  0  0
  -21.6030   -4.8220   24.8260 C   0  0  0  0  0  0  0  0  0  0  0  0
  -22.0070   -4.2140   23.6240 C   0  0  0  0  0  3  0  0  0  0  0  0
  -22.1320   -4.9850   22.4550 C   0  0  0  0  0  0  0  0  0  0  0  0
  -22.5010   -4.3900   21.2950 F   0  0  0  0  0  0  0  0  0  0  0  0
  -21.4770   -4.0760   25.9490 F   0  0  0  0  0  0  0  0  0  0  0  0
  -23.3030  -13.6710   21.3180 C   0  0  0  0  0  0  0  0  0  0  0  0
  -22.7430  -12.9640   22.2930 N   0  0  0  0  0  0  0  0  0  0  0  0
  -22.8060  -14.7270   20.9300 O   0  0  0  0  0  0  0  0  0  0  0  0
  -23.1630  -12.1090   22.6270 H   0  0  0  0  0  0  0  0  0  0  0  0
  -21.8810  -13.2830   22.7140 H   0  0  0  0  0  0  0  0  0  0  0  0
  -25.8360  -15.2940   20.1530 N   0  0  0  0  0  0  0  0  0  0  0  0
  -25.1630  -15.9820   20.4750 H   0  0  0  0  0  0  0  0  0  0  0  0
  -26.6680  -15.7130   19.7590 H   0  0  0  0  0  0  0  0  0  0  0  0
  -31.6400  -13.6580   22.2250 C   0  0  0  0  0  1  0  0  0  0  0  0
  -30.9070  -14.9740   21.8830 C   0  0  0  0  0  2  0  0  0  0  0  0
  -27.9050  -20.6590   19.8720 C   0  0  0  0  0  2  0  0  0  0  0  0
  -27.9720  -23.2850   20.3920 C   0  0  0  0  0  2  0  0  0  0  0  0
  -29.3130  -22.7380   18.8890 C   0  0  0  0  0  2  0  0  0  0  0  0
  -28.7200  -21.9620   20.0850 C   0  0  0  0  0  3  0  0  0  0  0  0
  -29.0330  -24.0790   19.6040 C   0  0  0  0  0  3  0  0  0  0  0  0
  -28.6950  -25.3370   18.7590 C   0  0  0  0  0  2  0  0  0  0  0  0
  -28.5540  -26.5640   19.5150 O   0  0  0  0  0  0  0  0  0  0  0  0
  -24.7240  -31.4570   23.0450 C   0  0  0  0  0  0  0  0  0  0  0  0
  -27.3470  -27.2470   19.5850 C   0  0  0  0  0  0  0  0  0  0  0  0
  -23.4840  -30.1020   21.3910 C   0  0  0  0  0  3  0  0  0  0  0  0
  -24.9120  -28.6980   19.8080 C   0  0  0  0  0  0  0  0  0  0  0  0
  -25.9890  -30.5490   21.0940 C   0  0  0  0  0  2  0  0  0  0  0  0
  -26.0850  -29.2190   20.3650 C   0  0  0  0  0  0  0  0  0  0  0  0
  -27.3020  -28.5000   20.2510 C   0  0  0  0  0  3  0  0  0  0  0  0
  -26.1380  -26.7400   19.0490 C   0  0  0  0  0  3  0  0  0  0  0  0
  -24.9350  -27.4590   19.1510 C   0  0  0  0  0  3  0  0  0  0  0  0
  -23.6470  -29.5120   19.9660 C   0  0  0  0  0  2  0  0  0  0  0  0
  -24.7520  -30.7160   21.9000 N   0  0  0  0  0  0  0  0  0  0  0  0
  -23.6630  -31.6630   23.6500 O   0  0  0  0  0  0  0  0  0  0  0  0
  -22.9180  -29.0060   22.3220 C   0  0  0  0  0  0  0  0  0  0  0  0
  -21.6240  -28.6860   22.1520 N   0  0  0  0  0  0  0  0  0  0  0  0
  -23.6390  -28.4480   23.1530 O   0  0  0  0  0  0  0  0  0  0  0  0
  -21.0970  -29.1900   21.4520 H   0  0  0  0  0  0  0  0  0  0  0  0
  -18.4180  -27.0410   22.4460 C   0  0  0  0  0  0  0  0  0  0  0  0
  -20.8880  -27.6600   22.8920 C   0  0  0  0  0  3  0  0  0  0  0  0
  -21.2320  -26.2460   22.3690 C   0  0  0  0  0  2  0  0  0  0  0  0
  -20.2630  -25.7520   21.2890 C   0  0  0  0  0  2  0  0  0  0  0  0
  -18.8290  -25.7160   21.8260 C   0  0  0  0  0  2  0  0  0  0  0  0
  -19.3850  -27.9600   22.9320 C   0  0  0  0  0  0  0  0  0  0  0  0
  -18.9510  -29.1940   23.4630 C   0  0  0  0  0  3  0  0  0  0  0  0
  -17.5800  -29.5100   23.5210 C   0  0  0  0  0  3  0  0  0  0  0  0
  -16.6270  -28.5910   23.0510 C   0  0  0  0  0  3  0  0  0  0  0  0
  -17.0460  -27.3580   22.5190 C   0  0  0  0  0  3  0  0  0  0  0  0
  -26.0180  -32.1000   23.6310 C   0  0  0  0  0  3  0  0  0  0  0  0
  -25.6820  -33.4710   24.0400 N   0  0  0  0  0  0  0  0  0  0  0  0
  -25.9590  -34.5670   23.3230 C   0  0  0  0  0  0  0  0  0  0  0  0
  -26.5960  -34.5340   22.2660 O   0  0  0  0  0  0  0  0  0  0  0  0
  -25.1090  -33.5690   24.8650 H   0  0  0  0  0  0  0  0  0  0  0  0
  -24.1690  -36.3200   23.1160 C   0  0  0  0  0  1  0  0  0  0  0  0
  -25.4490  -35.9150   23.8640 C   0  0  0  0  0  3  0  0  0  0  0  0
  -27.5830  -36.8240   24.6680 C   0  0  0  0  0  1  0  0  0  0  0  0
  -26.4470  -37.0030   23.7670 N   0  0  0  0  0  0  0  0  0  0  0  0
  -26.0190  -37.9010   23.9770 H   0  0  0  0  0  0  0  0  0  0  0  0
  -26.6200  -31.2910   24.8460 C   0  0  1  0  0  0  0  0  0  0  0  0
  -25.5770  -30.9380   25.9340 C   0  0  0  0  0  1  0  0  0  0  0  0
  -27.2570  -29.9680   24.3580 C   0  0  0  0  0  1  0  0  0  0  0  0
  -27.7520  -32.1090   25.5110 C   0  0  0  0  0  1  0  0  0  0  0  0
  1  2  1  0
  3  6  2  0
  3  4  1  0
  4  1  2  0
  5  9  1  0
  5  2  2  0
  6  5  1  0
  7  6  1  0
  9  8  1  1
  9 47  1  0
 10  9  1  0
 11 16  1  0
 12 13  1  0
 12 11  1  0
 14 13  1  0
 14 21  1  0
 14 15  1  0
 16 10  1  0
 16 15  1  0
 17 10  2  0
 18 19  2  0
 19 38  1  0
 20 19  1  0
 20 23  1  0
 21 22  1  0
 21 18  1  0
 22 20  2  0
 23 24  1  0
 24 25  2  0
 26 29  1  0
 26 25  1  0
 27 26  2  0
 28 27  1  0
 28 23  2  0
 29 30  1  0
 30 31  1  0
 31 32  2  0
 33 32  1  0
 33 37  1  0
 34 33  2  0
 35 30  2  0
 35 34  1  0
 36 35  1  0
 38 39  1  0
 39 41  1  0
 39 42  1  0
 40 38  2  0
 43 18  1  0
 43 44  1  0
 45 43  1  0
 47 46  1  0
 48  4  1  0
 50 52  1  0
 50 51  1  0
 51 48  1  0
 51 49  1  0
 52 53  1  0
 52 49  1  0
 53 54  1  0
 54 56  1  0
 55 66  2  0
 56 61  1  0
 57 65  1  0
 57 67  1  0
 58 64  1  0
 58 60  1  0
 59 65  1  0
 60 59  1  0
 61 60  2  0
 62 63  1  0
 62 56  2  0
 63 58  2  0
 64 57  1  0
 65 55  1  0
 67 69  2  0
 68 67  1  0
 70 68  1  0
 71 80  2  0
 71 76  1  0
 72 68  1  0
 72 76  1  0
 73 72  1  0
 74 75  1  0
 74 73  1  0
 75 71  1  0
 76 77  2  0
 77 78  1  0
 79 78  2  0
 80 79  1  0
 81 55  1  0
 81 82  1  0
 81 91  1  0
 82 85  1  0
 83 87  1  0
 83 82  1  0
 84 83  2  0
 87 86  1  0
 89 87  1  0
 89 90  1  0
 89 88  1  0
 91 94  1  1
 91 92  1  0
 93 91  1  0
M  ISO  4   9 100  10 100  53 101  54 101
M  END
>  <TORSDO>  (60) 
F 21

>  <SCORE>  (60) 
-8.938

>  <name>  (60) 
59

>  <ligand_id>  (60) 
59

>  <original_smiles>  (60) 
[H]c1c([H])c([H])c2c(c1[H])C([H])([H])C([H])([H])C([H])([H])C2([H])N([H])C(=O)C1([H])N(C(=O)C([H])(N([H])C(=O)C([H])(N([H])C([H])([H])[H])C([H])([H])[H])C(C([H])([H])[H])(C([H])([H])[H])C([H])([H])[H])C([H])([H])c2c([H])c(OC([H])([H])C3([H])C([H])([H])C([H])(C([H])([H])c4c([H])c([H])c(C(C(=O)N5C([H])([H])C([H])([H])C([H])([H])C([H])(n6nc(-c7c([H])c([H])c(Oc8c([H])c([H])c(F)c([H])c8F)c([H])c7[H])c(C(=O)N([H])[H])c6N([H])[H])C5([H])[H])(C([H])([H])[H])C([H])([H])C([H])([H])[H])c(C([H])([H])[H])c4[H])C3([H])[H])c([H])c([H])c2C1([H])[H]

>  <smiles>  (60) 
[H]c1c([H])c([H])c2c(c1[H])C([H])([H])C([H])([H])C([H])([H])C2([H])N([H])C(=O)C1([H])N(C(=O)C([H])(N([H])C(=O)C([H])(N([H])C([H])([H])[H])C([H])([H])[H])C(C([H])([H])[H])(C([H])([H])[H])C([H])([H])[H])C([H])([H])c2c([H])c(OC([H])([H])C3([H])C([H])([H])C([H])(C([H])([H])c4c([H])c([H])c(C(C(=O)N5C([H])([H])C([H])([H])C([H])([H])C([H])(n6nc(-c7c([H])c([H])c(Oc8c([H])c([H])c(F)c([H])c8F)c([H])c7[H])c(C(=O)N([H])[H])c6N([H])[H])C5([H])[H])(C([H])([H])[H])C([H])([H])C([H])([H])[H])c(C([H])([H])[H])c4[H])C3([H])[H])c([H])c([H])c2C1([H])[H]

$$$$
60:0:0
     RDKit          3D

 93100  0  0  1  0  0  0  0  0999 V2000
  -29.5460  -20.6200   22.9870 C   0  0  0  0  0  1  0  0  0  0  0  0
  -29.3710  -20.7160   21.4640 C   0  0  0  0  0  3  0  0  0  0  0  0
  -28.8970  -23.0750   20.6230 C   0  0  0  0  0  3  0  0  0  0  0  0
  -29.7710  -22.1130   20.9870 C   0  0  0  0  0  3  0  0  0  0  0  0
  -29.2400  -24.4850   20.1420 C   0  0  0  0  0  2  0  0  0  0  0  0
  -28.4160  -25.5810   20.8580 C   0  0  0  0  0  2  0  0  0  0  0  0
  -28.5060  -26.8610   20.2050 O   0  0  0  0  0  0  0  0  0  0  0  0
  -24.6350  -31.9860   23.2800 C   0  0  0  0  0  0  0  0  0  0  0  0
  -27.3350  -27.5900   20.1950 C   0  0  0  0  0  0  0  0  0  0  0  0
  -23.4460  -30.5730   21.6370 C   0  0  0  0  0  3  0  0  0  0  0  0
  -24.9190  -29.0590   20.2060 C   0  0  0  0  0  0  0  0  0  0  0  0
  -25.9660  -30.9710   21.4330 C   0  0  0  0  0  2  0  0  0  0  0  0
  -26.0700  -29.6030   20.7900 C   0  0  0  0  0  0  0  0  0  0  0  0
  -27.2830  -28.8760   20.7780 C   0  0  0  0  0  3  0  0  0  0  0  0
  -26.1710  -27.0640   19.5950 C   0  0  0  0  0  3  0  0  0  0  0  0
  -24.9640  -27.7890   19.6050 C   0  0  0  0  0  3  0  0  0  0  0  0
  -23.6610  -29.8980   20.2560 C   0  0  0  0  0  2  0  0  0  0  0  0
  -24.7010  -31.1910   22.1760 N   0  0  0  0  0  0  0  0  0  0  0  0
  -23.5530  -32.2400   23.8250 O   0  0  0  0  0  0  0  0  0  0  0  0
  -22.8100  -29.5410   22.5970 C   0  0  0  0  0  0  0  0  0  0  0  0
  -21.4880  -29.3390   22.4690 N   0  0  0  0  0  0  0  0  0  0  0  0
  -23.5030  -28.9240   23.4090 O   0  0  0  0  0  0  0  0  0  0  0  0
  -20.9900  -29.8880   21.7830 H   0  0  0  0  0  0  0  0  0  0  0  0
  -18.1320  -28.0940   22.9640 C   0  0  0  0  0  0  0  0  0  0  0  0
  -20.6860  -28.3870   23.2380 C   0  0  0  0  0  3  0  0  0  0  0  0
  -20.8090  -26.9590   22.6580 C   0  0  0  0  0  2  0  0  0  0  0  0
  -19.7110  -26.6230   21.6430 C   0  0  0  0  0  2  0  0  0  0  0  0
  -18.3280  -26.7490   22.2870 C   0  0  0  0  0  2  0  0  0  0  0  0
  -19.2400  -28.8710   23.3980 C   0  0  0  0  0  0  0  0  0  0  0  0
  -19.0030  -30.1310   23.9900 C   0  0  0  0  0  3  0  0  0  0  0  0
  -17.6910  -30.6130   24.1530 C   0  0  0  0  0  3  0  0  0  0  0  0
  -16.5990  -29.8340   23.7370 C   0  0  0  0  0  3  0  0  0  0  0  0
  -16.8200  -28.5760   23.1490 C   0  0  0  0  0  3  0  0  0  0  0  0
  -25.9140  -32.6330   23.8990 C   0  0  0  0  0  3  0  0  0  0  0  0
  -26.4320  -31.8780   25.1860 C   0  0  1  0  0  0  0  0  0  0  0  0
  -25.3360  -31.6430   26.2500 C   0  0  0  0  0  1  0  0  0  0  0  0
  -27.0290  -30.5030   24.8070 C   0  0  0  0  0  1  0  0  0  0  0  0
  -27.5730  -32.6890   25.8440 C   0  0  0  0  0  1  0  0  0  0  0  0
  -25.5960  -34.0320   24.2110 N   0  0  0  0  0  0  0  0  0  0  0  0
  -25.9330  -35.0760   23.4430 C   0  0  0  0  0  0  0  0  0  0  0  0
  -26.6150  -34.9630   22.4210 O   0  0  0  0  0  0  0  0  0  0  0  0
  -24.9900  -34.1930   25.0010 H   0  0  0  0  0  0  0  0  0  0  0  0
  -24.2060  -36.8580   23.0400 C   0  0  0  0  0  1  0  0  0  0  0  0
  -25.4340  -36.4660   23.8780 C   0  0  0  0  0  3  0  0  0  0  0  0
  -27.5510  -37.3660   24.7360 C   0  0  0  0  0  1  0  0  0  0  0  0
  -26.4660  -37.5210   23.7710 N   0  0  0  0  0  0  0  0  0  0  0  0
  -26.0550  -38.4420   23.9020 H   0  0  0  0  0  0  0  0  0  0  0  0
  -30.1560  -19.5850   20.7360 C   0  0  0  0  0  2  0  0  0  0  0  0
  -29.5090  -18.1590   20.7560 C   0  0  0  0  0  3  0  0  0  0  0  0
  -30.6130  -17.0630   20.8890 C   0  0  0  0  0  2  0  0  0  0  0  0
  -30.8070  -14.6240   20.3680 C   0  0  0  0  0  0  0  0  0  0  0  0
  -30.4800  -12.4770   19.2070 C   0  0  0  0  0  2  0  0  0  0  0  0
  -29.5400  -12.6960   18.0040 C   0  0  0  0  0  2  0  0  0  0  0  0
  -28.0670  -12.5560   18.4340 C   0  0  0  0  0  2  0  0  0  0  0  0
  -27.7310  -13.3840   19.7030 C   0  0  0  0  0  3  0  0  0  0  0  0
  -28.7890  -13.1680   20.8110 C   0  0  0  0  0  2  0  0  0  0  0  0
  -30.1140  -13.4590   20.2400 N   0  0  0  0  0  0  0  0  0  0  0  0
  -31.9310  -14.7880   19.8900 O   0  0  0  0  0  0  0  0  0  0  0  0
  -30.1310  -15.6650   20.8950 N   0  0  0  0  0  0  0  0  0  0  0  0
  -29.2210  -15.4690   21.2870 H   0  0  0  0  0  0  0  0  0  0  0  0
  -25.3240  -13.9800   20.3900 C   0  0  0  0  0  0  0  0  0  0  0  0
  -24.2620  -13.2050   20.7690 C   0  0  0  0  0  0  0  0  0  0  0  0
  -24.7320  -11.8580   20.7580 C   0  0  0  0  0  0  0  0  0  0  0  0
  -26.3780  -13.1050   20.1800 N   0  0  0  0  0  0  0  0  0  0  0  0
  -26.0250  -11.8240   20.4570 N   0  0  0  0  0  0  0  0  0  0  0  0
  -24.0140  -10.5950   20.9590 C   0  0  0  0  0  0  0  0  0  0  0  0
  -24.4430   -9.6470   21.9140 C   0  0  0  0  0  3  0  0  0  0  0  0
  -23.7250   -8.4470   22.1050 C   0  0  0  0  0  3  0  0  0  0  0  0
  -22.5640   -8.1860   21.3380 C   0  0  0  0  0  0  0  0  0  0  0  0
  -22.1540   -9.1220   20.3730 C   0  0  0  0  0  3  0  0  0  0  0  0
  -22.8730  -10.3140   20.1800 C   0  0  0  0  0  3  0  0  0  0  0  0
  -21.8170   -7.0380   21.4360 O   0  0  0  0  0  0  0  0  0  0  0  0
  -21.7530   -6.3180   22.6030 C   0  0  0  0  0  0  0  0  0  0  0  0
  -21.2910   -6.8910   23.8080 C   0  0  0  0  0  3  0  0  0  0  0  0
  -21.1760   -6.0970   24.9660 C   0  0  0  0  0  3  0  0  0  0  0  0
  -21.5140   -4.7300   24.9200 C   0  0  0  0  0  0  0  0  0  0  0  0
  -21.9680   -4.1570   23.7200 C   0  0  0  0  0  3  0  0  0  0  0  0
  -22.0860   -4.9490   22.5640 C   0  0  0  0  0  0  0  0  0  0  0  0
  -22.5040   -4.3860   21.4050 F   0  0  0  0  0  0  0  0  0  0  0  0
  -21.3960   -3.9660   26.0310 F   0  0  0  0  0  0  0  0  0  0  0  0
  -22.8600  -13.6770   21.0280 C   0  0  0  0  0  0  0  0  0  0  0  0
  -22.1330  -12.9870   21.8980 N   0  0  0  0  0  0  0  0  0  0  0  0
  -22.4190  -14.6940   20.4940 O   0  0  0  0  0  0  0  0  0  0  0  0
  -22.5010  -12.1660   22.3560 H   0  0  0  0  0  0  0  0  0  0  0  0
  -21.1930  -13.2890   22.1140 H   0  0  0  0  0  0  0  0  0  0  0  0
  -25.4760  -15.3470   20.1860 N   0  0  0  0  0  0  0  0  0  0  0  0
  -24.6860  -15.9800   20.2460 H   0  0  0  0  0  0  0  0  0  0  0  0
  -26.3010  -15.7650   19.7810 H   0  0  0  0  0  0  0  0  0  0  0  0
  -28.6330  -17.9130   19.4960 C   0  0  0  0  0  2  0  0  0  0  0  0
  -27.4770  -18.8220   19.3870 N   0  0  0  0  0  4  0  0  0  0  0  0
  -26.9050  -18.7840   20.2130 H   0  0  0  0  0  0  0  0  0  0  0  0
  -26.9090  -18.5600   18.6020 H   0  0  0  0  0  0  0  0  0  0  0  0
  -27.7820  -19.7660   19.2390 H   0  0  0  0  0  0  0  0  0  0  0  0
  2  1  1  0
  3  4  2  0
  4  2  1  0
  5  3  1  0
  5  6  1  0
  7  6  1  0
  8 19  2  0
  9  7  1  0
  9 14  1  0
 10 18  1  0
 10 20  1  0
 11 17  1  0
 11 13  1  0
 12 18  1  0
 13 12  1  0
 14 13  2  0
 15 16  1  0
 15  9  2  0
 16 11  2  0
 17 10  1  0
 18  8  1  0
 20 22  2  0
 21 20  1  0
 23 21  1  0
 24 33  2  0
 24 29  1  0
 25 21  1  0
 25 29  1  0
 26 25  1  0
 27 28  1  0
 27 26  1  0
 28 24  1  0
 29 30  2  0
 30 31  1  0
 32 31  2  0
 33 32  1  0
 34  8  1  0
 34 39  1  0
 34 35  1  0
 35 38  1  1
 35 36  1  0
 37 35  1  0
 39 42  1  0
 40 44  1  0
 40 39  1  0
 41 40  2  0
 44 43  1  0
 46 44  1  0
 46 47  1  0
 46 45  1  0
 48 49  1  0
 48  2  1  0
 49 89  1  0
 49 50  1  0
 50 59  1  0
 51 59  1  0
 52 57  1  0
 53 54  1  0
 53 52  1  0
 55 54  1  0
 55 64  1  0
 55 56  1  0
 57 51  1  0
 57 56  1  0
 58 51  2  0
 59 60  1  0
 61 62  2  0
 62 81  1  0
 63 62  1  0
 63 66  1  0
 64 61  1  0
 64 65  1  0
 65 63  2  0
 66 67  1  0
 67 68  2  0
 69 72  1  0
 69 68  1  0
 70 69  2  0
 71 70  1  0
 71 66  2  0
 72 73  1  0
 73 74  1  0
 74 75  2  0
 76 75  1  0
 76 80  1  0
 77 76  2  0
 78 73  2  0
 78 77  1  0
 79 78  1  0
 81 82  1  0
 82 85  1  0
 82 84  1  0
 83 81  2  0
 86 87  1  0
 86 61  1  0
 88 86  1  0
 90 89  1  0
 90 91  1  0
 92 90  1  0
 93 90  1  0
M  ISO  4   6 101   7 101  51 100  59 100
M  END
>  <TORSDO>  (61) 
F 24

>  <SCORE>  (61) 
-11.899

>  <name>  (61) 
60

>  <ligand_id>  (61) 
60

>  <original_smiles>  (61) 
[H]C(=C([H])C([H])(C([H])([H])[H])C([H])([H])C([H])(C([H])([H])N([H])C(=O)N1C([H])([H])C([H])([H])C([H])([H])C([H])(n2nc(-c3c([H])c([H])c(Oc4c([H])c([H])c(F)c([H])c4F)c([H])c3[H])c(C(=O)N([H])[H])c2N([H])[H])C1([H])[H])C([H])([H])[N+]([H])([H])[H])C([H])([H])C([H])([H])Oc1c([H])c([H])c2c(c1[H])C([H])([H])N(C(=O)C([H])(N([H])C(=O)C([H])(N([H])C([H])([H])[H])C([H])([H])[H])C(C([H])([H])[H])(C([H])([H])[H])C([H])([H])[H])C([H])(C(=O)N([H])C1([H])c3c([H])c([H])c([H])c([H])c3C([H])([H])C([H])([H])C1([H])[H])C2([H])[H]

>  <smiles>  (61) 
[H]C(=C([H])C([H])(C([H])([H])[H])C([H])([H])C([H])(C([H])([H])N([H])C(=O)N1C([H])([H])C([H])([H])C([H])([H])C([H])(n2nc(-c3c([H])c([H])c(Oc4c([H])c([H])c(F)c([H])c4F)c([H])c3[H])c(C(=O)N([H])[H])c2N([H])[H])C1([H])[H])C([H])([H])[N+]([H])([H])[H])C([H])([H])C([H])([H])Oc1c([H])c([H])c2c(c1[H])C([H])([H])N(C(=O)C([H])(N([H])C(=O)C([H])(N([H])C([H])([H])[H])C([H])([H])[H])C(C([H])([H])[H])(C([H])([H])[H])C([H])([H])[H])C([H])(C(=O)N([H])C1([H])c3c([H])c([H])c([H])c([H])c3C([H])([H])C([H])([H])C1([H])[H])C2([H])[H]

$$$$
61:0:0
     RDKit          3D

 95102  0  0  1  0  0  0  0  0999 V2000
  -30.6500  -22.3640   20.2570 C   0  0  0  0  0  0  0  0  0  0  0  0
  -30.9300  -23.6630   20.4780 N   0  0  0  0  0  0  0  0  0  0  0  0
  -30.7030  -21.8530   19.1370 O   0  0  0  0  0  0  0  0  0  0  0  0
  -30.8240  -23.9650   21.4390 H   0  0  0  0  0  0  0  0  0  0  0  0
  -31.5630  -24.6550   19.5910 C   0  0  0  0  0  2  0  0  0  0  0  0
  -30.8200  -25.0580   18.2910 C   0  0  0  0  0  2  0  0  0  0  0  0
  -29.3620  -25.5680   18.3800 C   0  0  0  0  0  2  0  0  0  0  0  0
  -29.2180  -26.9070   18.8980 O   0  0  0  0  0  0  0  0  0  0  0  0
  -24.7620  -30.9550   22.7470 C   0  0  0  0  0  0  0  0  0  0  0  0
  -27.9400  -27.4430   19.0060 C   0  0  0  0  0  0  0  0  0  0  0  0
  -23.7290  -29.6730   20.9020 C   0  0  0  0  0  3  0  0  0  0  0  0
  -25.3520  -28.5950   19.2580 C   0  0  0  0  0  0  0  0  0  0  0  0
  -26.1820  -30.3990   20.7740 C   0  0  0  0  0  2  0  0  0  0  0  0
  -26.4430  -29.1730   19.9200 C   0  0  0  0  0  0  0  0  0  0  0  0
  -27.7330  -28.6090   19.7870 C   0  0  0  0  0  3  0  0  0  0  0  0
  -26.8150  -26.8730   18.3600 C   0  0  0  0  0  3  0  0  0  0  0  0
  -25.5350  -27.4430   18.4780 C   0  0  0  0  0  3  0  0  0  0  0  0
  -24.0000  -29.2480   19.4350 C   0  0  0  0  0  2  0  0  0  0  0  0
  -24.9070  -30.3510   21.5340 N   0  0  0  0  0  0  0  0  0  0  0  0
  -23.6630  -30.9890   23.3210 O   0  0  0  0  0  0  0  0  0  0  0  0
  -23.2400  -28.4370   21.6910 C   0  0  0  0  0  0  0  0  0  0  0  0
  -21.9510  -28.0940   21.5270 N   0  0  0  0  0  0  0  0  0  0  0  0
  -24.0160  -27.7950   22.4040 O   0  0  0  0  0  0  0  0  0  0  0  0
  -21.3800  -28.6750   20.9280 H   0  0  0  0  0  0  0  0  0  0  0  0
  -18.7790  -26.3940   21.8190 C   0  0  0  0  0  0  0  0  0  0  0  0
  -21.2830  -26.9440   22.1340 C   0  0  0  0  0  3  0  0  0  0  0  0
  -21.5640  -25.6530   21.3320 C   0  0  0  0  0  2  0  0  0  0  0  0
  -20.4940  -25.3520   20.2770 C   0  0  0  0  0  2  0  0  0  0  0  0
  -19.1190  -25.2070   20.9340 C   0  0  0  0  0  2  0  0  0  0  0  0
  -19.7950  -27.2210   22.3680 C   0  0  0  0  0  0  0  0  0  0  0  0
  -19.4220  -28.3340   23.1510 C   0  0  0  0  0  3  0  0  0  0  0  0
  -18.0670  -28.6240   23.3920 C   0  0  0  0  0  3  0  0  0  0  0  0
  -17.0650  -27.7920   22.8620 C   0  0  0  0  0  3  0  0  0  0  0  0
  -17.4230  -26.6800   22.0800 C   0  0  0  0  0  3  0  0  0  0  0  0
  -25.9610  -31.6530   23.4600 C   0  0  0  0  0  3  0  0  0  0  0  0
  -26.5690  -30.7940   24.6360 C   0  0  1  0  0  0  0  0  0  0  0  0
  -25.5130  -30.3010   25.6550 C   0  0  0  0  0  1  0  0  0  0  0  0
  -27.3080  -29.5510   24.0860 C   0  0  0  0  0  1  0  0  0  0  0  0
  -27.6190  -31.6340   25.4010 C   0  0  0  0  0  1  0  0  0  0  0  0
  -25.4830  -32.9520   23.9520 N   0  0  0  0  0  0  0  0  0  0  0  0
  -25.7150  -34.1250   23.3490 C   0  0  0  0  0  0  0  0  0  0  0  0
  -26.4170  -34.2330   22.3400 O   0  0  0  0  0  0  0  0  0  0  0  0
  -24.8340  -32.9310   24.7260 H   0  0  0  0  0  0  0  0  0  0  0  0
  -23.7950  -35.7420   23.1750 C   0  0  0  0  0  1  0  0  0  0  0  0
  -25.0640  -35.3790   23.9630 C   0  0  0  0  0  3  0  0  0  0  0  0
  -27.0670  -36.3830   24.9660 C   0  0  0  0  0  1  0  0  0  0  0  0
  -25.9700  -36.5480   24.0170 N   0  0  0  0  0  0  0  0  0  0  0  0
  -25.4570  -37.3890   24.2650 H   0  0  0  0  0  0  0  0  0  0  0  0
  -30.3160  -21.4930   21.4960 C   0  0  0  0  0  3  0  0  0  0  0  0
  -31.1470  -20.1530   21.5340 C   0  0  0  0  0  2  0  0  0  0  0  0
  -30.4130  -18.7770   21.4300 C   0  0  0  0  0  2  0  0  0  0  0  0
  -31.3890  -17.5770   21.4650 C   0  0  0  0  0  2  0  0  0  0  0  0
  -31.3110  -15.2320   20.6420 C   0  0  0  0  0  0  0  0  0  0  0  0
  -30.9610  -13.0850   19.4860 C   0  0  0  0  0  2  0  0  0  0  0  0
  -30.0990  -13.3020   18.2290 C   0  0  0  0  0  2  0  0  0  0  0  0
  -28.6030  -13.1960   18.5770 C   0  0  0  0  0  2  0  0  0  0  0  0
  -28.2130  -14.0540   19.8100 C   0  0  0  0  0  3  0  0  0  0  0  0
  -29.2050  -13.8570   20.9800 C   0  0  0  0  0  2  0  0  0  0  0  0
  -30.5710  -14.1000   20.4780 N   0  0  0  0  0  0  0  0  0  0  0  0
  -32.4350  -15.3640   20.1490 O   0  0  0  0  0  0  0  0  0  0  0  0
  -30.7400  -16.2620   21.2910 N   0  0  0  0  0  0  0  0  0  0  0  0
  -29.8240  -16.1170   21.6910 H   0  0  0  0  0  0  0  0  0  0  0  0
  -25.7970  -14.7000   20.4230 C   0  0  0  0  0  0  0  0  0  0  0  0
  -24.6990  -13.9440   20.7340 C   0  0  0  0  0  0  0  0  0  0  0  0
  -25.1340  -12.5830   20.7060 C   0  0  0  0  0  0  0  0  0  0  0  0
  -26.8330  -13.8000   20.2230 N   0  0  0  0  0  0  0  0  0  0  0  0
  -26.4350  -12.5220   20.4520 N   0  0  0  0  0  0  0  0  0  0  0  0
  -24.3740  -11.3330   20.8440 C   0  0  0  0  0  0  0  0  0  0  0  0
  -24.7500  -10.3380   21.7750 C   0  0  0  0  0  3  0  0  0  0  0  0
  -23.9920   -9.1550   21.9060 C   0  0  0  0  0  3  0  0  0  0  0  0
  -22.8420   -8.9570   21.1050 C   0  0  0  0  0  0  0  0  0  0  0  0
  -22.4830   -9.9410   20.1650 C   0  0  0  0  0  3  0  0  0  0  0  0
  -23.2420  -11.1150   20.0330 C   0  0  0  0  0  3  0  0  0  0  0  0
  -22.0590   -7.8290   21.1450 O   0  0  0  0  0  0  0  0  0  0  0  0
  -21.9630   -7.0590   22.2760 C   0  0  0  0  0  0  0  0  0  0  0  0
  -21.5180   -7.5920   23.5050 C   0  0  0  0  0  3  0  0  0  0  0  0
  -21.3650   -6.7490   24.6240 C   0  0  0  0  0  3  0  0  0  0  0  0
  -21.6480   -5.3740   24.5150 C   0  0  0  0  0  0  0  0  0  0  0  0
  -22.0860   -4.8410   23.2910 C   0  0  0  0  0  3  0  0  0  0  0  0
  -22.2400   -5.6810   22.1740 C   0  0  0  0  0  0  0  0  0  0  0  0
  -22.6410   -5.1570   20.9910 F   0  0  0  0  0  0  0  0  0  0  0  0
  -21.4940   -4.5640   25.5890 F   0  0  0  0  0  0  0  0  0  0  0  0
  -23.3000  -14.4480   20.9460 C   0  0  0  0  0  0  0  0  0  0  0  0
  -22.5250  -13.7750   21.7880 N   0  0  0  0  0  0  0  0  0  0  0  0
  -22.9020  -15.4760   20.4000 O   0  0  0  0  0  0  0  0  0  0  0  0
  -22.8560  -12.9470   22.2610 H   0  0  0  0  0  0  0  0  0  0  0  0
  -21.5810  -14.0950   21.9630 H   0  0  0  0  0  0  0  0  0  0  0  0
  -25.9970  -16.0680   20.2760 N   0  0  0  0  0  0  0  0  0  0  0  0
  -25.2400  -16.7380   20.3600 H   0  0  0  0  0  0  0  0  0  0  0  0
  -26.8730  -16.4970   20.0040 H   0  0  0  0  0  0  0  0  0  0  0  0
  -28.7900  -21.2760   21.7100 C   0  0  0  0  0  2  0  0  0  0  0  0
  -26.3790  -21.9560   21.7420 C   0  0  0  0  0  1  0  0  0  0  0  0
  -27.6300  -22.2490   19.6200 C   0  0  0  0  0  1  0  0  0  0  0  0
  -28.1070  -23.7400   21.5990 C   0  0  0  0  0  1  0  0  0  0  0  0
  -27.7600  -22.3060   21.1530 C   0  0  2  0  0  0  0  0  0  0  0  0
  1  2  1  0
  1 49  1  0
  2  4  1  0
  3  1  2  0
  5  2  1  0
  6  7  1  0
  6  5  1  0
  7  8  1  0
  8 10  1  0
  9 20  2  0
 10 15  1  0
 11 19  1  0
 11 21  1  0
 12 18  1  0
 12 14  1  0
 13 19  1  0
 14 13  1  0
 15 14  2  0
 16 17  1  0
 16 10  2  0
 17 12  2  0
 18 11  1  0
 19  9  1  0
 21 23  2  0
 22 21  1  0
 24 22  1  0
 25 34  2  0
 25 30  1  0
 26 22  1  0
 26 30  1  0
 27 26  1  0
 28 29  1  0
 28 27  1  0
 29 25  1  0
 30 31  2  0
 31 32  1  0
 33 32  2  0
 34 33  1  0
 35  9  1  0
 35 40  1  0
 35 36  1  0
 36 39  1  1
 36 37  1  0
 38 36  1  0
 40 43  1  0
 41 40  1  0
 41 45  1  0
 42 41  2  0
 45 44  1  0
 45 47  1  0
 47 48  1  0
 47 46  1  0
 49 50  1  0
 49 91  1  0
 51 52  1  0
 51 50  1  0
 53 61  1  0
 54 59  1  0
 55 56  1  0
 55 54  1  0
 57 56  1  0
 57 66  1  0
 57 58  1  0
 59 53  1  0
 59 58  1  0
 60 53  2  0
 61 52  1  0
 61 62  1  0
 63 64  2  0
 64 83  1  0
 65 64  1  0
 65 68  1  0
 66 63  1  0
 66 67  1  0
 67 65  2  0
 68 69  1  0
 69 70  2  0
 71 74  1  0
 71 70  1  0
 72 71  2  0
 73 72  1  0
 73 68  2  0
 74 75  1  0
 75 76  1  0
 76 77  2  0
 78 77  1  0
 78 82  1  0
 79 78  2  0
 80 75  2  0
 80 79  1  0
 81 80  1  0
 83 84  1  0
 84 87  1  0
 84 86  1  0
 85 83  2  0
 88 89  1  0
 88 63  1  0
 90 88  1  0
 95 93  1  6
 95 94  1  0
 95 91  1  0
 95 92  1  0
M  ISO  4   7 101   8 101  53 100  61 100
M  END
>  <TORSDO>  (62) 
F 25

>  <SCORE>  (62) 
-6.925

>  <name>  (62) 
61

>  <ligand_id>  (62) 
61

>  <original_smiles>  (62) 
[H]c1c([H])c([H])c2c(c1[H])C([H])([H])C([H])([H])C([H])([H])C2([H])N([H])C(=O)C1([H])N(C(=O)C([H])(N([H])C(=O)C([H])(N([H])C([H])([H])[H])C([H])([H])[H])C(C([H])([H])[H])(C([H])([H])[H])C([H])([H])[H])C([H])([H])c2c([H])c(OC([H])([H])C([H])([H])C([H])([H])N([H])C(=O)C([H])(C([H])([H])C([H])([H])C([H])([H])N([H])C(=O)N3C([H])([H])C([H])([H])C([H])([H])C([H])(n4nc(-c5c([H])c([H])c(Oc6c([H])c([H])c(F)c([H])c6F)c([H])c5[H])c(C(=O)N([H])[H])c4N([H])[H])C3([H])[H])C([H])([H])C(C([H])([H])[H])(C([H])([H])[H])C([H])([H])[H])c([H])c([H])c2C1([H])[H]

>  <smiles>  (62) 
[H]c1c([H])c([H])c2c(c1[H])C([H])([H])C([H])([H])C([H])([H])C2([H])N([H])C(=O)C1([H])N(C(=O)C([H])(N([H])C(=O)C([H])(N([H])C([H])([H])[H])C([H])([H])[H])C(C([H])([H])[H])(C([H])([H])[H])C([H])([H])[H])C([H])([H])c2c([H])c(OC([H])([H])C([H])([H])C([H])([H])N([H])C(=O)C([H])(C([H])([H])C([H])([H])C([H])([H])N([H])C(=O)N3C([H])([H])C([H])([H])C([H])([H])C([H])(n4nc(-c5c([H])c([H])c(Oc6c([H])c([H])c(F)c([H])c6F)c([H])c5[H])c(C(=O)N([H])[H])c4N([H])[H])C3([H])[H])C([H])([H])C(C([H])([H])[H])(C([H])([H])[H])C([H])([H])[H])c([H])c([H])c2C1([H])[H]

$$$$
62:0:0
     RDKit          3D

 92100  0  0  1  0  0  0  0  0999 V2000
  -28.6760  -18.1670   20.7740 C   0  0  0  0  0  3  0  0  0  0  0  0
  -28.1440  -19.4290   21.1110 C   0  0  0  0  0  3  0  0  0  0  0  0
  -30.3730  -19.2660   19.4290 C   0  0  0  0  0  3  0  0  0  0  0  0
  -29.7980  -18.0730   19.9250 C   0  0  0  0  0  0  0  0  0  0  0  0
  -28.7010  -20.6170   20.5900 C   0  0  0  0  0  0  0  0  0  0  0  0
  -29.8400  -20.5370   19.7520 C   0  0  0  0  0  0  0  0  0  0  0  0
  -30.4760  -21.7850   19.1570 C   0  0  0  0  0  1  0  0  0  0  0  0
  -27.9900  -21.9400   20.8630 C   0  0  0  0  0  2  0  0  0  0  0  0
  -28.7250  -22.8850   21.7970 C   0  0  0  0  0  3  0  0  0  0  0  0
  -28.6580  -24.2270   21.7600 C   0  0  0  0  0  3  0  0  0  0  0  0
  -27.8260  -25.0560   20.7990 C   0  0  0  0  0  2  0  0  0  0  0  0
  -28.6570  -25.6310   19.6260 C   0  0  0  0  0  2  0  0  0  0  0  0
  -28.6380  -27.0550   19.5420 O   0  0  0  0  0  0  0  0  0  0  0  0
  -24.7350  -31.6540   23.1930 C   0  0  0  0  0  0  0  0  0  0  0  0
  -27.4280  -27.7050   19.5820 C   0  0  0  0  0  0  0  0  0  0  0  0
  -23.5230  -30.4240   21.4160 C   0  0  0  0  0  3  0  0  0  0  0  0
  -24.9860  -29.0980   19.7960 C   0  0  0  0  0  0  0  0  0  0  0  0
  -26.0280  -30.8780   21.2120 C   0  0  0  0  0  2  0  0  0  0  0  0
  -26.1370  -29.5960   20.4170 C   0  0  0  0  0  0  0  0  0  0  0  0
  -27.3600  -28.9080   20.3060 C   0  0  0  0  0  3  0  0  0  0  0  0
  -26.2630  -27.2070   18.9550 C   0  0  0  0  0  3  0  0  0  0  0  0
  -25.0430  -27.9000   19.0610 C   0  0  0  0  0  3  0  0  0  0  0  0
  -23.7170  -29.9060   19.9630 C   0  0  0  0  0  2  0  0  0  0  0  0
  -24.7800  -30.9930   22.0020 N   0  0  0  0  0  0  0  0  0  0  0  0
  -23.6590  -31.8350   23.7820 O   0  0  0  0  0  0  0  0  0  0  0  0
  -22.9180  -29.2850   22.2660 C   0  0  0  0  0  0  0  0  0  0  0  0
  -21.5970  -29.0870   22.1360 N   0  0  0  0  0  0  0  0  0  0  0  0
  -23.6300  -28.5850   22.9910 O   0  0  0  0  0  0  0  0  0  0  0  0
  -21.0870  -29.7080   21.5210 H   0  0  0  0  0  0  0  0  0  0  0  0
  -18.2580  -27.7620   22.5150 C   0  0  0  0  0  0  0  0  0  0  0  0
  -20.8120  -28.0500   22.8020 C   0  0  0  0  0  3  0  0  0  0  0  0
  -20.9480  -26.6950   22.0700 C   0  0  0  0  0  2  0  0  0  0  0  0
  -19.8460  -26.4600   21.0320 C   0  0  0  0  0  2  0  0  0  0  0  0
  -18.4640  -26.5010   21.6920 C   0  0  0  0  0  2  0  0  0  0  0  0
  -19.3640  -28.4980   23.0190 C   0  0  0  0  0  0  0  0  0  0  0  0
  -19.1210  -29.6810   23.7480 C   0  0  0  0  0  3  0  0  0  0  0  0
  -17.8070  -30.1330   23.9770 C   0  0  0  0  0  3  0  0  0  0  0  0
  -16.7170  -29.3910   23.4900 C   0  0  0  0  0  3  0  0  0  0  0  0
  -16.9430  -28.2070   22.7640 C   0  0  0  0  0  3  0  0  0  0  0  0
  -26.0200  -32.2370   23.8600 C   0  0  0  0  0  3  0  0  0  0  0  0
  -25.7000  -33.5940   24.3180 N   0  0  0  0  0  0  0  0  0  0  0  0
  -26.0210  -34.7170   23.6600 C   0  0  0  0  0  0  0  0  0  0  0  0
  -26.6930  -34.7170   22.6230 O   0  0  0  0  0  0  0  0  0  0  0  0
  -25.1120  -33.6650   25.1350 H   0  0  0  0  0  0  0  0  0  0  0  0
  -24.2670  -36.5060   23.4850 C   0  0  0  0  0  1  0  0  0  0  0  0
  -25.5220  -36.0520   24.2450 C   0  0  0  0  0  3  0  0  0  0  0  0
  -27.6510  -36.8880   25.1320 C   0  0  0  0  0  1  0  0  0  0  0  0
  -26.5390  -37.1240   24.2150 N   0  0  0  0  0  0  0  0  0  0  0  0
  -26.1250  -38.0220   24.4470 H   0  0  0  0  0  0  0  0  0  0  0  0
  -26.5560  -31.3560   25.0560 C   0  0  1  0  0  0  0  0  0  0  0  0
  -25.4790  -31.0300   26.1170 C   0  0  0  0  0  1  0  0  0  0  0  0
  -27.1280  -30.0220   24.5270 C   0  0  0  0  0  1  0  0  0  0  0  0
  -27.7160  -32.0920   25.7660 C   0  0  0  0  0  1  0  0  0  0  0  0
  -30.3430  -16.7230   19.4620 C   0  0  0  0  0  2  0  0  0  0  0  0
  -30.8930  -14.4890   20.3770 C   0  0  0  0  0  0  0  0  0  0  0  0
  -30.6360  -12.1870   19.5890 C   0  0  0  0  0  2  0  0  0  0  0  0
  -29.7370  -12.2600   18.3360 C   0  0  0  0  0  2  0  0  0  0  0  0
  -28.2470  -12.1720   18.7350 C   0  0  0  0  0  2  0  0  0  0  0  0
  -27.8720  -13.1460   19.8840 C   0  0  0  0  0  3  0  0  0  0  0  0
  -28.9030  -13.0890   21.0370 C   0  0  0  0  0  2  0  0  0  0  0  0
  -30.2410  -13.3010   20.4620 N   0  0  0  0  0  0  0  0  0  0  0  0
  -32.0770  -14.5870   20.0510 O   0  0  0  0  0  0  0  0  0  0  0  0
  -30.0830  -15.5610   20.3300 N   0  0  0  0  0  0  0  0  0  0  0  0
  -29.1230  -15.4080   20.5940 H   0  0  0  0  0  0  0  0  0  0  0  0
  -25.4920  -13.8330   20.5820 C   0  0  0  0  0  0  0  0  0  0  0  0
  -24.3970  -13.0940   20.9530 C   0  0  0  0  0  0  0  0  0  0  0  0
  -24.8110  -11.7290   20.9130 C   0  0  0  0  0  0  0  0  0  0  0  0
  -26.5080  -12.9170   20.3550 N   0  0  0  0  0  0  0  0  0  0  0  0
  -26.1020  -11.6460   20.6120 N   0  0  0  0  0  0  0  0  0  0  0  0
  -24.0420  -10.4880   21.0890 C   0  0  0  0  0  0  0  0  0  0  0  0
  -24.4590   -9.4870   21.9940 C   0  0  0  0  0  3  0  0  0  0  0  0
  -23.6960   -8.3120   22.1600 C   0  0  0  0  0  3  0  0  0  0  0  0
  -22.5000   -8.1330   21.4250 C   0  0  0  0  0  0  0  0  0  0  0  0
  -22.1020   -9.1210   20.5080 C   0  0  0  0  0  3  0  0  0  0  0  0
  -22.8680  -10.2870   20.3390 C   0  0  0  0  0  3  0  0  0  0  0  0
  -21.7070   -7.0130   21.5030 O   0  0  0  0  0  0  0  0  0  0  0  0
  -21.6850   -6.2240   22.6250 C   0  0  0  0  0  0  0  0  0  0  0  0
  -21.3300   -6.7380   23.8920 C   0  0  0  0  0  3  0  0  0  0  0  0
  -21.2560   -5.8760   25.0070 C   0  0  0  0  0  3  0  0  0  0  0  0
  -21.5260   -4.5020   24.8530 C   0  0  0  0  0  0  0  0  0  0  0  0
  -21.8660   -3.9860   23.5890 C   0  0  0  0  0  3  0  0  0  0  0  0
  -21.9420   -4.8450   22.4780 C   0  0  0  0  0  0  0  0  0  0  0  0
  -22.2560   -4.3430   21.2590 F   0  0  0  0  0  0  0  0  0  0  0  0
  -21.4390   -3.6700   25.9170 F   0  0  0  0  0  0  0  0  0  0  0  0
  -23.0160  -13.6170   21.2130 C   0  0  0  0  0  0  0  0  0  0  0  0
  -22.2550  -12.9420   22.0720 N   0  0  0  0  0  0  0  0  0  0  0  0
  -22.6160  -14.6580   20.6930 O   0  0  0  0  0  0  0  0  0  0  0  0
  -22.5890  -12.1010   22.5180 H   0  0  0  0  0  0  0  0  0  0  0  0
  -21.3260  -13.2760   22.2830 H   0  0  0  0  0  0  0  0  0  0  0  0
  -25.6980  -15.1950   20.4050 N   0  0  0  0  0  0  0  0  0  0  0  0
  -24.9370  -15.8620   20.5070 H   0  0  0  0  0  0  0  0  0  0  0  0
  -26.5370  -15.6070   20.0200 H   0  0  0  0  0  0  0  0  0  0  0  0
  1  2  1  0
  3  6  2  0
  3  4  1  0
  4  1  2  0
  5  8  1  0
  5  2  2  0
  6  5  1  0
  7  6  1  0
  8  9  1  0
 10  9  2  0
 11 10  1  0
 12 11  1  0
 13 15  1  0
 13 12  1  0
 14 25  2  0
 15 20  1  0
 16 24  1  0
 16 26  1  0
 17 23  1  0
 17 19  1  0
 18 24  1  0
 19 18  1  0
 20 19  2  0
 21 22  1  0
 21 15  2  0
 22 17  2  0
 23 16  1  0
 24 14  1  0
 26 28  2  0
 27 26  1  0
 29 27  1  0
 30 39  2  0
 30 35  1  0
 31 27  1  0
 31 35  1  0
 32 31  1  0
 33 34  1  0
 33 32  1  0
 34 30  1  0
 35 36  2  0
 36 37  1  0
 38 37  2  0
 39 38  1  0
 40 14  1  0
 40 41  1  0
 40 50  1  0
 41 44  1  0
 42 46  1  0
 42 41  1  0
 43 42  2  0
 46 45  1  0
 48 46  1  0
 48 49  1  0
 48 47  1  0
 50 53  1  1
 50 51  1  0
 52 50  1  0
 54  4  1  0
 54 63  1  0
 55 61  1  0
 56 61  1  0
 57 58  1  0
 57 56  1  0
 59 58  1  0
 59 68  1  0
 59 60  1  0
 61 60  1  0
 62 55  2  0
 63 55  1  0
 63 64  1  0
 65 66  2  0
 66 85  1  0
 67 66  1  0
 67 70  1  0
 68 65  1  0
 68 69  1  0
 69 67  2  0
 70 71  1  0
 71 72  2  0
 73 76  1  0
 73 72  1  0
 74 73  2  0
 75 74  1  0
 75 70  2  0
 76 77  1  0
 77 78  1  0
 78 79  2  0
 80 79  1  0
 80 84  1  0
 81 80  2  0
 82 77  2  0
 82 81  1  0
 83 82  1  0
 85 86  1  0
 86 89  1  0
 86 88  1  0
 87 85  2  0
 90 91  1  0
 90 65  1  0
 92 90  1  0
M  ISO  4  12 101  13 101  55 100  63 100
M  END
>  <TORSDO>  (63) 
F 21

>  <SCORE>  (63) 
-11.834

>  <name>  (63) 
62

>  <ligand_id>  (63) 
62

>  <original_smiles>  (63) 
[H]C(=C([H])C([H])([H])C([H])([H])Oc1c([H])c([H])c2c(c1[H])C([H])([H])N(C(=O)C([H])(N([H])C(=O)C([H])(N([H])C([H])([H])[H])C([H])([H])[H])C(C([H])([H])[H])(C([H])([H])[H])C([H])([H])[H])C([H])(C(=O)N([H])C1([H])c3c([H])c([H])c([H])c([H])c3C([H])([H])C([H])([H])C1([H])[H])C2([H])[H])C([H])([H])c1c([H])c([H])c(C([H])([H])N([H])C(=O)N2C([H])([H])C([H])([H])C([H])([H])C([H])(n3nc(-c4c([H])c([H])c(Oc5c([H])c([H])c(F)c([H])c5F)c([H])c4[H])c(C(=O)N([H])[H])c3N([H])[H])C2([H])[H])c([H])c1C([H])([H])[H]

>  <smiles>  (63) 
[H]C(=C([H])C([H])([H])C([H])([H])Oc1c([H])c([H])c2c(c1[H])C([H])([H])N(C(=O)C([H])(N([H])C(=O)C([H])(N([H])C([H])([H])[H])C([H])([H])[H])C(C([H])([H])[H])(C([H])([H])[H])C([H])([H])[H])C([H])(C(=O)N([H])C1([H])c3c([H])c([H])c([H])c([H])c3C([H])([H])C([H])([H])C1([H])[H])C2([H])[H])C([H])([H])c1c([H])c([H])c(C([H])([H])N([H])C(=O)N2C([H])([H])C([H])([H])C([H])([H])C([H])(n3nc(-c4c([H])c([H])c(Oc5c([H])c([H])c(F)c([H])c5F)c([H])c4[H])c(C(=O)N([H])[H])c3N([H])[H])C2([H])[H])c([H])c1C([H])([H])[H]

$$$$
63:0:0
     RDKit          3D

 95103  0  0  1  0  0  0  0  0999 V2000
  -28.7240  -19.4930   19.0840 C   0  0  0  0  0  2  0  0  0  0  0  0
  -29.6660  -20.6310   20.9100 C   0  0  0  0  0  2  0  0  0  0  0  0
  -28.4230  -21.0560   18.9490 C   0  0  0  0  0  3  0  0  0  0  0  0
  -29.2250  -19.1060   20.5040 C   0  0  0  0  0  3  0  0  0  0  0  0
  -28.6890  -21.7850   20.3100 C   0  0  0  0  0  3  0  0  0  0  0  0
  -27.0040  -21.2850   18.3980 C   0  0  0  0  0  0  0  0  0  0  0  0
  -26.8730  -21.4170   17.0830 N   0  0  0  0  0  0  0  0  0  0  0  0
  -26.0230  -21.3340   19.1380 O   0  0  0  0  0  0  0  0  0  0  0  0
  -27.6810  -21.3570   16.4790 H   0  0  0  0  0  0  0  0  0  0  0  0
  -25.9620  -21.5660   16.6710 H   0  0  0  0  0  0  0  0  0  0  0  0
  -29.0460  -23.4460   20.3830 C   0  0  0  0  0  2  0  0  0  0  0  0
  -28.4080  -24.8230   18.2890 C   0  0  0  0  0  1  0  0  0  0  0  0
  -28.1570  -24.7600   19.8060 C   0  0  0  0  0  3  0  0  0  0  0  0
  -28.3010  -26.2510   20.2450 O   0  0  0  0  0  0  0  0  0  0  0  0
  -24.6270  -31.9030   23.2330 C   0  0  0  0  0  0  0  0  0  0  0  0
  -27.2300  -27.2210   20.1720 C   0  0  0  0  0  0  0  0  0  0  0  0
  -23.4350  -30.5120   21.5860 C   0  0  0  0  0  3  0  0  0  0  0  0
  -24.8910  -28.9560   20.1540 C   0  0  0  0  0  0  0  0  0  0  0  0
  -25.9890  -30.7900   21.4240 C   0  0  0  0  0  2  0  0  0  0  0  0
  -26.0700  -29.4040   20.7640 C   0  0  0  0  0  0  0  0  0  0  0  0
  -27.2390  -28.5530   20.7560 C   0  0  0  0  0  3  0  0  0  0  0  0
  -26.0160  -26.8730   19.5380 C   0  0  0  0  0  3  0  0  0  0  0  0
  -24.8770  -27.7030   19.5270 C   0  0  0  0  0  3  0  0  0  0  0  0
  -23.6610  -29.8470   20.2030 C   0  0  0  0  0  2  0  0  0  0  0  0
  -24.7040  -31.0900   22.1360 N   0  0  0  0  0  0  0  0  0  0  0  0
  -23.5380  -32.1800   23.7610 O   0  0  0  0  0  0  0  0  0  0  0  0
  -22.7610  -29.4940   22.5390 C   0  0  0  0  0  0  0  0  0  0  0  0
  -21.4350  -29.3110   22.4010 N   0  0  0  0  0  0  0  0  0  0  0  0
  -23.4320  -28.8730   23.3680 O   0  0  0  0  0  0  0  0  0  0  0  0
  -20.9500  -29.8640   21.7100 H   0  0  0  0  0  0  0  0  0  0  0  0
  -18.0610  -28.0790   22.8760 C   0  0  0  0  0  0  0  0  0  0  0  0
  -20.6160  -28.3650   23.1640 C   0  0  0  0  0  3  0  0  0  0  0  0
  -20.7340  -26.9340   22.5910 C   0  0  0  0  0  2  0  0  0  0  0  0
  -19.6450  -26.6010   21.5670 C   0  0  0  0  0  2  0  0  0  0  0  0
  -18.2560  -26.7320   22.2000 C   0  0  0  0  0  2  0  0  0  0  0  0
  -19.1690  -28.8520   23.3150 C   0  0  0  0  0  0  0  0  0  0  0  0
  -18.9320  -30.1110   23.9090 C   0  0  0  0  0  3  0  0  0  0  0  0
  -17.6210  -30.5980   24.0660 C   0  0  0  0  0  3  0  0  0  0  0  0
  -16.5280  -29.8220   23.6410 C   0  0  0  0  0  3  0  0  0  0  0  0
  -16.7490  -28.5640   23.0530 C   0  0  0  0  0  3  0  0  0  0  0  0
  -25.9000  -32.5410   23.8660 C   0  0  0  0  0  3  0  0  0  0  0  0
  -25.5870  -33.9420   24.1870 N   0  0  0  0  0  0  0  0  0  0  0  0
  -25.9110  -34.9930   23.4220 C   0  0  0  0  0  0  0  0  0  0  0  0
  -26.5730  -34.8840   22.3860 O   0  0  0  0  0  0  0  0  0  0  0  0
  -24.9970  -34.1000   24.9900 H   0  0  0  0  0  0  0  0  0  0  0  0
  -24.1800  -36.7870   23.0720 C   0  0  0  0  0  1  0  0  0  0  0  0
  -25.4260  -36.3840   23.8760 C   0  0  0  0  0  3  0  0  0  0  0  0
  -27.5600  -37.2840   24.6960 C   0  0  0  0  0  1  0  0  0  0  0  0
  -26.4580  -37.4380   23.7500 N   0  0  0  0  0  0  0  0  0  0  0  0
  -26.0510  -38.3590   23.8850 H   0  0  0  0  0  0  0  0  0  0  0  0
  -26.3980  -31.7810   25.1560 C   0  0  1  0  0  0  0  0  0  0  0  0
  -25.2900  -31.5530   26.2120 C   0  0  0  0  0  1  0  0  0  0  0  0
  -26.9860  -30.3990   24.7880 C   0  0  0  0  0  1  0  0  0  0  0  0
  -27.5400  -32.5800   25.8280 C   0  0  0  0  0  1  0  0  0  0  0  0
  -30.2160  -17.7220   20.6420 C   0  0  0  0  0  3  0  0  0  0  0  0
  -30.5060  -15.0210   20.2360 C   0  0  0  0  0  0  0  0  0  0  0  0
  -30.3330  -12.7070   19.2220 C   0  0  0  0  0  2  0  0  0  0  0  0
  -29.3580  -12.6990   18.0240 C   0  0  0  0  0  2  0  0  0  0  0  0
  -27.9120  -12.4740   18.5030 C   0  0  0  0  0  2  0  0  0  0  0  0
  -27.5450  -13.3680   19.7180 C   0  0  0  0  0  3  0  0  0  0  0  0
  -28.6390  -13.3540   20.8050 C   0  0  0  0  0  2  0  0  0  0  0  0
  -29.8870  -13.7770   20.1570 N   0  0  0  0  0  0  0  0  0  0  0  0
  -31.7050  -15.0730   19.9420 O   0  0  0  0  0  0  0  0  0  0  0  0
  -29.7600  -16.2150   20.4460 N   0  0  0  0  0  0  0  0  0  0  0  0
  -28.7700  -16.0590   20.5650 H   0  0  0  0  0  0  0  0  0  0  0  0
  -25.1870  -13.9140   20.5480 C   0  0  0  0  0  0  0  0  0  0  0  0
  -24.1400  -13.1240   20.9350 C   0  0  0  0  0  0  0  0  0  0  0  0
  -24.6120  -11.7770   20.8620 C   0  0  0  0  0  0  0  0  0  0  0  0
  -26.2270  -13.0490   20.2550 N   0  0  0  0  0  0  0  0  0  0  0  0
  -25.8930  -11.7570   20.5110 N   0  0  0  0  0  0  0  0  0  0  0  0
  -23.9000  -10.5060   21.0460 C   0  0  0  0  0  0  0  0  0  0  0  0
  -24.3470   -9.5330   21.9680 C   0  0  0  0  0  3  0  0  0  0  0  0
  -23.6310   -8.3290   22.1420 C   0  0  0  0  0  3  0  0  0  0  0  0
  -22.4550   -8.0880   21.3930 C   0  0  0  0  0  0  0  0  0  0  0  0
  -22.0270   -9.0490   20.4600 C   0  0  0  0  0  3  0  0  0  0  0  0
  -22.7430  -10.2440   20.2840 C   0  0  0  0  0  3  0  0  0  0  0  0
  -21.7100   -6.9360   21.4760 O   0  0  0  0  0  0  0  0  0  0  0  0
  -21.6520   -6.1990   22.6320 C   0  0  0  0  0  0  0  0  0  0  0  0
  -21.1610   -6.7420   23.8390 C   0  0  0  0  0  3  0  0  0  0  0  0
  -21.0540   -5.9290   24.9850 C   0  0  0  0  0  3  0  0  0  0  0  0
  -21.4280   -4.5740   24.9240 C   0  0  0  0  0  0  0  0  0  0  0  0
  -21.9130   -4.0300   23.7220 C   0  0  0  0  0  3  0  0  0  0  0  0
  -22.0210   -4.8390   22.5780 C   0  0  0  0  0  0  0  0  0  0  0  0
  -22.4690   -4.3050   21.4170 F   0  0  0  0  0  0  0  0  0  0  0  0
  -21.3180   -3.7900   26.0220 F   0  0  0  0  0  0  0  0  0  0  0  0
  -22.7480  -13.5860   21.2560 C   0  0  0  0  0  0  0  0  0  0  0  0
  -22.0480  -12.8670   22.1240 N   0  0  0  0  0  0  0  0  0  0  0  0
  -22.2920  -14.6210   20.7710 O   0  0  0  0  0  0  0  0  0  0  0  0
  -22.4310  -12.0300   22.5390 H   0  0  0  0  0  0  0  0  0  0  0  0
  -21.1150  -13.1580   22.3810 H   0  0  0  0  0  0  0  0  0  0  0  0
  -25.3350  -15.2900   20.3940 N   0  0  0  0  0  0  0  0  0  0  0  0
  -24.5640  -15.9310   20.5420 H   0  0  0  0  0  0  0  0  0  0  0  0
  -26.1570  -15.7410   20.0170 H   0  0  0  0  0  0  0  0  0  0  0  0
  -30.9680  -18.5540   23.2840 C   0  0  0  0  0  1  0  0  0  0  0  0
  -31.0450  -17.7310   21.9690 C   0  0  0  0  0  2  0  0  0  0  0  0
  1  4  1  0
  3  6  1  0
  3  1  1  0
  3  5  1  0
  4 55  1  0
  4  2  1  0
  5 11  1  0
  5  2  1  0
  6  8  2  0
  7  6  1  0
  9  7  1  0
 10  7  1  0
 13 12  1  0
 13 14  1  0
 13 11  1  0
 15 26  2  0
 16 14  1  0
 16 21  1  0
 17 25  1  0
 17 27  1  0
 18 24  1  0
 18 20  1  0
 19 25  1  0
 20 19  1  0
 21 20  2  0
 22 16  2  0
 23 22  1  0
 23 18  2  0
 24 17  1  0
 25 15  1  0
 27 29  2  0
 28 27  1  0
 30 28  1  0
 31 40  2  0
 31 36  1  0
 32 28  1  0
 32 36  1  0
 33 32  1  0
 34 35  1  0
 34 33  1  0
 35 31  1  0
 36 37  2  0
 37 38  1  0
 39 38  2  0
 40 39  1  0
 41 15  1  0
 41 42  1  0
 41 51  1  0
 42 45  1  0
 43 47  1  0
 43 42  1  0
 44 43  2  0
 47 46  1  0
 49 47  1  0
 49 50  1  0
 49 48  1  0
 51 54  1  1
 51 52  1  0
 53 51  1  0
 55 95  1  0
 56 64  1  0
 57 62  1  0
 58 59  1  0
 58 57  1  0
 60 59  1  0
 60 69  1  0
 60 61  1  0
 62 56  1  0
 62 61  1  0
 63 56  2  0
 64 65  1  0
 64 55  1  0
 66 67  2  0
 67 86  1  0
 68 67  1  0
 68 71  1  0
 69 70  1  0
 69 66  1  0
 70 68  2  0
 71 72  1  0
 72 73  2  0
 74 77  1  0
 74 73  1  0
 75 74  2  0
 76 75  1  0
 76 71  2  0
 77 78  1  0
 78 79  1  0
 79 80  2  0
 81 80  1  0
 81 85  1  0
 82 81  2  0
 83 78  2  0
 83 82  1  0
 84 83  1  0
 86 87  1  0
 87 90  1  0
 87 89  1  0
 88 86  2  0
 91 92  1  0
 91 66  1  0
 93 91  1  0
 95 94  1  0
M  ISO  4  13 101  14 101  56 100  64 100
M  END
>  <TORSDO>  (64) 
F 21

>  <SCORE>  (64) 
-13.750

>  <name>  (64) 
63

>  <ligand_id>  (64) 
63

>  <original_smiles>  (64) 
[H]c1c([H])c([H])c2c(c1[H])C([H])([H])C([H])([H])C([H])([H])C2([H])N([H])C(=O)C1([H])N(C(=O)C([H])(N([H])C(=O)C([H])(N([H])C([H])([H])[H])C([H])([H])[H])C(C([H])([H])[H])(C([H])([H])[H])C([H])([H])[H])C([H])([H])c2c([H])c(OC([H])(C([H])([H])[H])C([H])([H])C3([H])C([H])([H])C([H])(C([H])(N([H])C(=O)N4C([H])([H])C([H])([H])C([H])([H])C([H])(n5nc(-c6c([H])c([H])c(Oc7c([H])c([H])c(F)c([H])c7F)c([H])c6[H])c(C(=O)N([H])[H])c5N([H])[H])C4([H])[H])C([H])([H])C([H])([H])[H])C([H])([H])C3([H])C(=O)N([H])[H])c([H])c([H])c2C1([H])[H]

>  <smiles>  (64) 
[H]c1c([H])c([H])c2c(c1[H])C([H])([H])C([H])([H])C([H])([H])C2([H])N([H])C(=O)C1([H])N(C(=O)C([H])(N([H])C(=O)C([H])(N([H])C([H])([H])[H])C([H])([H])[H])C(C([H])([H])[H])(C([H])([H])[H])C([H])([H])[H])C([H])([H])c2c([H])c(OC([H])(C([H])([H])[H])C([H])([H])C3([H])C([H])([H])C([H])(C([H])(N([H])C(=O)N4C([H])([H])C([H])([H])C([H])([H])C([H])(n5nc(-c6c([H])c([H])c(Oc7c([H])c([H])c(F)c([H])c7F)c([H])c6[H])c(C(=O)N([H])[H])c5N([H])[H])C4([H])[H])C([H])([H])C([H])([H])[H])C([H])([H])C3([H])C(=O)N([H])[H])c([H])c([H])c2C1([H])[H]

$$$$
64:0:0
     RDKit          3D

 95104  0  0  1  0  0  0  0  0999 V2000
  -28.1590  -19.9620   21.4080 C   0  0  0  0  0  2  0  0  0  0  0  0
  -29.3930  -20.7690   21.0380 C   0  0  0  0  0  2  0  0  0  0  0  0
  -28.9010  -19.4390   19.1870 C   0  0  0  0  0  2  0  0  0  0  0  0
  -29.4080  -17.8890   20.9770 C   0  0  0  0  0  2  0  0  0  0  0  0
  -28.2960  -18.8030   20.4440 C   0  0  0  0  0  3  0  0  0  0  0  0
  -30.1490  -19.9650   19.9000 C   0  0  2  0  0  0  0  0  0  0  0  0
  -30.7630  -18.5110   20.4850 C   0  0  1  0  0  0  0  0  0  0  0  0
  -30.9080  -21.0850   19.0380 C   0  0  0  0  0  0  0  0  0  0  0  0
  -30.3600  -22.3590   18.9770 N   0  0  0  0  0  0  0  0  0  0  0  0
  -31.9820  -20.8210   18.4960 O   0  0  0  0  0  0  0  0  0  0  0  0
  -29.4270  -22.4040   19.3760 H   0  0  0  0  0  0  0  0  0  0  0  0
  -30.9440  -23.7280   18.6890 C   0  0  0  0  0  2  0  0  0  0  0  0
  -29.9420  -24.9760   18.8350 C   0  0  0  0  0  2  0  0  0  0  0  0
  -30.3870  -26.3440   19.2500 O   0  0  0  0  0  0  0  0  0  0  0  0
  -27.0500  -30.2380   24.3920 C   0  0  0  0  0  0  0  0  0  0  0  0
  -29.3850  -27.2760   19.6030 C   0  0  0  0  0  0  0  0  0  0  0  0
  -25.8270  -29.9050   22.2740 C   0  0  0  0  0  3  0  0  0  0  0  0
  -27.2120  -29.0110   20.3180 C   0  0  0  0  0  0  0  0  0  0  0  0
  -28.4000  -29.9360   22.3050 C   0  0  0  0  0  2  0  0  0  0  0  0
  -28.3820  -29.0120   21.0910 C   0  0  0  0  0  0  0  0  0  0  0  0
  -29.4720  -28.1570   20.7330 C   0  0  0  0  0  3  0  0  0  0  0  0
  -28.2000  -27.3530   18.8400 C   0  0  0  0  0  3  0  0  0  0  0  0
  -27.1280  -28.1910   19.1900 C   0  0  0  0  0  3  0  0  0  0  0  0
  -26.0690  -29.9100   20.7440 C   0  0  0  0  0  2  0  0  0  0  0  0
  -27.1080  -30.0180   23.0470 N   0  0  0  0  0  0  0  0  0  0  0  0
  -25.9670  -30.3770   24.9760 O   0  0  0  0  0  0  0  0  0  0  0  0
  -24.9970  -28.6560   22.6450 C   0  0  0  0  0  0  0  0  0  0  0  0
  -23.6890  -28.6900   22.3400 N   0  0  0  0  0  0  0  0  0  0  0  0
  -25.5340  -27.6750   23.1700 O   0  0  0  0  0  0  0  0  0  0  0  0
  -23.3140  -29.5500   21.9590 H   0  0  0  0  0  0  0  0  0  0  0  0
  -20.2450  -27.6940   21.8430 C   0  0  0  0  0  0  0  0  0  0  0  0
  -22.7350  -27.5970   22.5330 C   0  0  0  0  0  3  0  0  0  0  0  0
  -22.8980  -26.5130   21.4400 C   0  0  0  0  0  2  0  0  0  0  0  0
  -21.9440  -26.6900   20.2540 C   0  0  0  0  0  2  0  0  0  0  0  0
  -20.4840  -26.7000   20.7180 C   0  0  0  0  0  2  0  0  0  0  0  0
  -21.3050  -28.1240   22.6830 C   0  0  0  0  0  0  0  0  0  0  0  0
  -21.0330  -29.0690   23.6980 C   0  0  0  0  0  3  0  0  0  0  0  0
  -19.7410  -29.5880   23.8700 C   0  0  0  0  0  3  0  0  0  0  0  0
  -18.6890  -29.1530   23.0400 C   0  0  0  0  0  3  0  0  0  0  0  0
  -18.9430  -28.2060   22.0310 C   0  0  0  0  0  3  0  0  0  0  0  0
  -28.3470  -30.3490   25.2570 C   0  0  0  0  0  3  0  0  0  0  0  0
  -28.1890  -31.5150   26.1380 N   0  0  0  0  0  0  0  0  0  0  0  0
  -28.7640  -32.7080   25.9300 C   0  0  0  0  0  0  0  0  0  0  0  0
  -29.5480  -32.9200   25.0000 O   0  0  0  0  0  0  0  0  0  0  0  0
  -27.5180  -31.4280   26.8860 H   0  0  0  0  0  0  0  0  0  0  0  0
  -27.3860  -34.7840   26.2650 C   0  0  0  0  0  1  0  0  0  0  0  0
  -28.4140  -33.8420   26.9110 C   0  0  0  0  0  3  0  0  0  0  0  0
  -30.4920  -33.8610   28.2190 C   0  0  0  0  0  1  0  0  0  0  0  0
  -29.5920  -34.6200   27.3550 N   0  0  0  0  0  0  0  0  0  0  0  0
  -29.3040  -35.4580   27.8530 H   0  0  0  0  0  0  0  0  0  0  0  0
  -28.6410  -29.0480   26.1030 C   0  0  1  0  0  0  0  0  0  0  0  0
  -27.4310  -28.5620   26.9320 C   0  0  0  0  0  1  0  0  0  0  0  0
  -29.0830  -27.8820   25.1880 C   0  0  0  0  0  1  0  0  0  0  0  0
  -29.8130  -29.3150   27.0760 C   0  0  0  0  0  1  0  0  0  0  0  0
  -31.8450  -19.7120   22.7040 C   0  0  0  0  0  1  0  0  0  0  0  0
  -31.8750  -18.6560   21.5870 C   0  0  0  0  0  2  0  0  0  0  0  0
  -31.4140  -17.2860   19.5890 C   0  0  0  0  0  2  0  0  0  0  0  0
  -32.0920  -14.6850   19.8830 C   0  0  0  0  0  0  0  0  0  0  0  0
  -31.8090  -12.3290   19.0880 C   0  0  0  0  0  2  0  0  0  0  0  0
  -30.8570  -12.3340   17.8690 C   0  0  0  0  0  2  0  0  0  0  0  0
  -29.3830  -12.2850   18.3240 C   0  0  0  0  0  2  0  0  0  0  0  0
  -29.0700  -13.3020   19.4540 C   0  0  0  0  0  3  0  0  0  0  0  0
  -30.1310  -13.2400   20.5740 C   0  0  0  0  0  2  0  0  0  0  0  0
  -31.4420  -13.4750   19.9570 N   0  0  0  0  0  0  0  0  0  0  0  0
  -33.2490  -14.7310   19.4520 O   0  0  0  0  0  0  0  0  0  0  0  0
  -31.3380  -15.8310   20.1040 N   0  0  0  0  0  0  0  0  0  0  0  0
  -30.4310  -15.6050   20.4890 H   0  0  0  0  0  0  0  0  0  0  0  0
  -26.7690  -14.1240   20.2450 C   0  0  0  0  0  0  0  0  0  0  0  0
  -25.6400  -13.4590   20.6350 C   0  0  0  0  0  0  0  0  0  0  0  0
  -25.9590  -12.0660   20.5760 C   0  0  0  0  0  0  0  0  0  0  0  0
  -27.7150  -13.1460   19.9710 N   0  0  0  0  0  0  0  0  0  0  0  0
  -27.2330  -11.9040   20.2310 N   0  0  0  0  0  0  0  0  0  0  0  0
  -25.1200  -10.8820   20.7830 C   0  0  0  0  0  0  0  0  0  0  0  0
  -25.3680   -9.9710   21.8350 C   0  0  0  0  0  3  0  0  0  0  0  0
  -24.5310   -8.8480   22.0220 C   0  0  0  0  0  3  0  0  0  0  0  0
  -23.4340   -8.6290   21.1560 C   0  0  0  0  0  0  0  0  0  0  0  0
  -23.2080   -9.5250   20.0960 C   0  0  0  0  0  3  0  0  0  0  0  0
  -24.0440  -10.6360   19.9070 C   0  0  0  0  0  3  0  0  0  0  0  0
  -22.5850   -7.5510   21.2440 O   0  0  0  0  0  0  0  0  0  0  0  0
  -22.1910   -7.0410   22.4550 C   0  0  0  0  0  0  0  0  0  0  0  0
  -21.5120   -7.8310   23.4080 C   0  0  0  0  0  3  0  0  0  0  0  0
  -21.0630   -7.2500   24.6120 C   0  0  0  0  0  3  0  0  0  0  0  0
  -21.2850   -5.8830   24.8610 C   0  0  0  0  0  0  0  0  0  0  0  0
  -21.9580   -5.0940   23.9120 C   0  0  0  0  0  3  0  0  0  0  0  0
  -22.4090   -5.6730   22.7110 C   0  0  0  0  0  0  0  0  0  0  0  0
  -23.0370   -4.9050   21.7890 F   0  0  0  0  0  0  0  0  0  0  0  0
  -20.8500   -5.3210   26.0140 F   0  0  0  0  0  0  0  0  0  0  0  0
  -24.3050  -14.0690   20.9530 C   0  0  0  0  0  0  0  0  0  0  0  0
  -23.5410  -13.4490   21.8440 N   0  0  0  0  0  0  0  0  0  0  0  0
  -23.9520  -15.1330   20.4450 O   0  0  0  0  0  0  0  0  0  0  0  0
  -23.8380  -12.5860   22.2780 H   0  0  0  0  0  0  0  0  0  0  0  0
  -22.6500  -13.8450   22.1000 H   0  0  0  0  0  0  0  0  0  0  0  0
  -27.0700  -15.4770   20.0930 N   0  0  0  0  0  0  0  0  0  0  0  0
  -26.3960  -16.2110   20.2750 H   0  0  0  0  0  0  0  0  0  0  0  0
  -27.9630  -15.8350   19.7790 H   0  0  0  0  0  0  0  0  0  0  0  0
  2  1  1  0
  3  6  1  0
  5  3  1  0
  5  4  1  0
  5  1  1  0
  6  8  1  6
  6  7  1  0
  6  2  1  0
  7 57  1  6
  7  4  1  0
  7 56  1  0
  9  8  1  0
  9 11  1  0
 10  8  2  0
 12 13  1  0
 12  9  1  0
 13 14  1  0
 14 16  1  0
 15 26  2  0
 16 21  1  0
 17 27  1  0
 17 25  1  0
 18 24  1  0
 18 20  1  0
 19 25  1  0
 20 19  1  0
 21 20  2  0
 22 23  1  0
 22 16  2  0
 23 18  2  0
 24 17  1  0
 25 15  1  0
 27 29  2  0
 28 27  1  0
 30 28  1  0
 31 40  2  0
 31 36  1  0
 32 28  1  0
 32 36  1  0
 33 32  1  0
 34 35  1  0
 34 33  1  0
 35 31  1  0
 36 37  2  0
 37 38  1  0
 39 38  2  0
 40 39  1  0
 41 15  1  0
 41 51  1  0
 41 42  1  0
 42 45  1  0
 43 42  1  0
 43 47  1  0
 44 43  2  0
 47 46  1  0
 47 49  1  0
 49 50  1  0
 49 48  1  0
 51 52  1  1
 51 54  1  0
 53 51  1  0
 56 55  1  0
 57 66  1  0
 58 64  1  0
 58 66  1  0
 59 64  1  0
 60 61  1  0
 60 59  1  0
 62 61  1  0
 62 71  1  0
 62 63  1  0
 64 63  1  0
 65 58  2  0
 66 67  1  0
 68 69  2  0
 69 88  1  0
 70 69  1  0
 70 73  1  0
 71 72  1  0
 71 68  1  0
 72 70  2  0
 73 74  1  0
 74 75  2  0
 76 79  1  0
 76 75  1  0
 77 76  2  0
 78 77  1  0
 78 73  2  0
 79 80  1  0
 80 85  2  0
 80 81  1  0
 81 82  2  0
 82 83  1  0
 83 87  1  0
 84 83  2  0
 85 84  1  0
 86 85  1  0
 88 89  1  0
 89 92  1  0
 89 91  1  0
 90 88  2  0
 93 68  1  0
 93 94  1  0
 95 93  1  0
M  ISO  4  13 101  14 101  58 100  66 100
M  END
>  <TORSDO>  (65) 
F 21

>  <SCORE>  (65) 
-7.438

>  <name>  (65) 
64

>  <ligand_id>  (65) 
64

>  <original_smiles>  (65) 
[H]c1c([H])c([H])c2c(c1[H])C([H])([H])C([H])([H])C([H])([H])C2([H])N([H])C(=O)C1([H])N(C(=O)C([H])(N([H])C(=O)C([H])(N([H])C([H])([H])[H])C([H])([H])[H])C(C([H])([H])[H])(C([H])([H])[H])C([H])([H])[H])C([H])([H])c2c([H])c(OC([H])([H])C([H])([H])N([H])C(=O)C34C([H])([H])C([H])([H])C([H])(C3([H])[H])C([H])([H])C4(C([H])([H])N([H])C(=O)N3C([H])([H])C([H])([H])C([H])([H])C([H])(n4nc(-c5c([H])c([H])c(Oc6c([H])c([H])c(F)c([H])c6F)c([H])c5[H])c(C(=O)N([H])[H])c4N([H])[H])C3([H])[H])C([H])([H])C([H])([H])[H])c([H])c([H])c2C1([H])[H]

>  <smiles>  (65) 
[H]c1c([H])c([H])c2c(c1[H])C([H])([H])C([H])([H])C([H])([H])C2([H])N([H])C(=O)C1([H])N(C(=O)C([H])(N([H])C(=O)C([H])(N([H])C([H])([H])[H])C([H])([H])[H])C(C([H])([H])[H])(C([H])([H])[H])C([H])([H])[H])C([H])([H])c2c([H])c(OC([H])([H])C([H])([H])N([H])C(=O)C34C([H])([H])C([H])([H])C([H])(C3([H])[H])C([H])([H])C4(C([H])([H])N([H])C(=O)N3C([H])([H])C([H])([H])C([H])([H])C([H])(n4nc(-c5c([H])c([H])c(Oc6c([H])c([H])c(F)c([H])c6F)c([H])c5[H])c(C(=O)N([H])[H])c4N([H])[H])C3([H])[H])C([H])([H])C([H])([H])[H])c([H])c([H])c2C1([H])[H]

$$$$
65:0:0
     RDKit          3D

 94103  0  0  1  0  0  0  0  0999 V2000
  -29.5710  -20.6400   19.2600 C   0  0  0  0  0  3  0  0  0  0  0  0
  -29.5000  -21.9500   18.9540 C   0  0  0  0  0  0  0  0  0  0  0  0
  -27.8880  -20.8460   21.0330 C   0  0  0  0  0  2  0  0  0  0  0  0
  -30.2920  -21.0670   21.5750 C   0  0  0  0  0  2  0  0  0  0  0  0
  -27.8130  -22.3720   20.7040 C   0  0  0  0  0  2  0  0  0  0  0  0
  -30.2220  -22.5880   21.2390 C   0  0  0  0  0  2  0  0  0  0  0  0
  -29.2910  -20.2560   20.7060 C   0  0  2  0  0  0  0  0  0  0  0  0
  -29.1640  -22.8910   20.1350 C   0  0  1  0  0  0  0  0  0  0  0  0
  -28.3660  -22.6510   16.7900 C   0  0  0  0  0  1  0  0  0  0  0  0
  -29.6960  -22.4650   17.5360 C   0  0  0  0  0  2  0  0  0  0  0  0
  -29.3290  -18.7150   20.9790 C   0  0  0  0  0  2  0  0  0  0  0  0
  -30.6310  -17.9590   20.5950 C   0  0  0  0  0  2  0  0  0  0  0  0
  -30.9310  -16.6790   21.4250 C   0  0  0  0  0  2  0  0  0  0  0  0
  -30.8350  -14.5010   20.1810 C   0  0  0  0  0  0  0  0  0  0  0  0
  -30.4280  -12.4090   18.9320 C   0  0  0  0  0  2  0  0  0  0  0  0
  -29.4190  -12.6600   17.7930 C   0  0  0  0  0  2  0  0  0  0  0  0
  -27.9720  -12.5170   18.3050 C   0  0  0  0  0  2  0  0  0  0  0  0
  -27.7190  -13.3110   19.6140 C   0  0  0  0  0  3  0  0  0  0  0  0
  -28.8310  -13.0390   20.6490 C   0  0  0  0  0  2  0  0  0  0  0  0
  -30.1230  -13.3540   20.0180 N   0  0  0  0  0  0  0  0  0  0  0  0
  -31.9070  -14.7080   19.6040 O   0  0  0  0  0  0  0  0  0  0  0  0
  -30.2750  -15.4430   20.9650 N   0  0  0  0  0  0  0  0  0  0  0  0
  -29.3790  -15.2170   21.3690 H   0  0  0  0  0  0  0  0  0  0  0  0
  -25.3680  -13.9140   20.4710 C   0  0  0  0  0  0  0  0  0  0  0  0
  -24.3160  -13.1380   20.8770 C   0  0  0  0  0  0  0  0  0  0  0  0
  -24.7620  -11.7850   20.7820 C   0  0  0  0  0  0  0  0  0  0  0  0
  -26.3910  -13.0330   20.1590 N   0  0  0  0  0  0  0  0  0  0  0  0
  -26.0330  -11.7450   20.4020 N   0  0  0  0  0  0  0  0  0  0  0  0
  -24.0370  -10.5220   20.9760 C   0  0  0  0  0  0  0  0  0  0  0  0
  -24.4760   -9.5550   21.9070 C   0  0  0  0  0  3  0  0  0  0  0  0
  -23.7510   -8.3570   22.0880 C   0  0  0  0  0  3  0  0  0  0  0  0
  -22.5750   -8.1190   21.3390 C   0  0  0  0  0  0  0  0  0  0  0  0
  -22.1560   -9.0750   20.3970 C   0  0  0  0  0  3  0  0  0  0  0  0
  -22.8800  -10.2640   20.2140 C   0  0  0  0  0  3  0  0  0  0  0  0
  -21.8220   -6.9730   21.4300 O   0  0  0  0  0  0  0  0  0  0  0  0
  -21.7430   -6.2540   22.5960 C   0  0  0  0  0  0  0  0  0  0  0  0
  -21.2320   -6.8170   23.7850 C   0  0  0  0  0  3  0  0  0  0  0  0
  -21.1050   -6.0220   24.9410 C   0  0  0  0  0  3  0  0  0  0  0  0
  -21.4770   -4.6640   24.9090 C   0  0  0  0  0  0  0  0  0  0  0  0
  -21.9810   -4.1010   23.7230 C   0  0  0  0  0  3  0  0  0  0  0  0
  -22.1100   -4.8930   22.5690 C   0  0  0  0  0  0  0  0  0  0  0  0
  -22.5760   -4.3400   21.4230 F   0  0  0  0  0  0  0  0  0  0  0  0
  -21.3480   -3.8980   26.0170 F   0  0  0  0  0  0  0  0  0  0  0  0
  -22.9390  -13.6170   21.2400 C   0  0  0  0  0  0  0  0  0  0  0  0
  -22.2520  -12.8960   22.1190 N   0  0  0  0  0  0  0  0  0  0  0  0
  -22.4850  -14.6650   20.7820 O   0  0  0  0  0  0  0  0  0  0  0  0
  -22.6340  -12.0470   22.5110 H   0  0  0  0  0  0  0  0  0  0  0  0
  -21.3310  -13.1960   22.4050 H   0  0  0  0  0  0  0  0  0  0  0  0
  -25.5360  -15.2870   20.3240 N   0  0  0  0  0  0  0  0  0  0  0  0
  -24.7840  -15.9470   20.4940 H   0  0  0  0  0  0  0  0  0  0  0  0
  -26.3770  -15.7280   19.9700 H   0  0  0  0  0  0  0  0  0  0  0  0
  -29.1320  -24.4170   19.7550 C   0  0  0  0  0  2  0  0  0  0  0  0
  -28.6740  -25.4210   20.8450 C   0  0  0  0  0  2  0  0  0  0  0  0
  -28.7570  -26.7920   20.4070 O   0  0  0  0  0  0  0  0  0  0  0  0
  -24.6010  -31.8570   23.2130 C   0  0  0  0  0  0  0  0  0  0  0  0
  -27.5680  -27.4870   20.3310 C   0  0  0  0  0  0  0  0  0  0  0  0
  -23.5420  -30.4070   21.5110 C   0  0  0  0  0  3  0  0  0  0  0  0
  -25.1280  -28.9120   20.1830 C   0  0  0  0  0  0  0  0  0  0  0  0
  -26.0610  -30.8520   21.4580 C   0  0  0  0  0  2  0  0  0  0  0  0
  -26.2320  -29.4820   20.8320 C   0  0  0  0  0  0  0  0  0  0  0  0
  -27.4580  -28.7790   20.8960 C   0  0  0  0  0  3  0  0  0  0  0  0
  -26.4490  -26.9310   19.6740 C   0  0  0  0  0  3  0  0  0  0  0  0
  -25.2330  -27.6370   19.6000 C   0  0  0  0  0  3  0  0  0  0  0  0
  -23.8550  -29.7280   20.1500 C   0  0  0  0  0  2  0  0  0  0  0  0
  -24.7490  -31.0550   22.1200 N   0  0  0  0  0  0  0  0  0  0  0  0
  -23.4810  -32.0940   23.6870 O   0  0  0  0  0  0  0  0  0  0  0  0
  -22.8690  -29.3700   22.4380 C   0  0  0  0  0  0  0  0  0  0  0  0
  -21.5510  -29.1790   22.2660 N   0  0  0  0  0  0  0  0  0  0  0  0
  -23.5310  -28.7390   23.2660 O   0  0  0  0  0  0  0  0  0  0  0  0
  -21.0780  -29.7410   21.5700 H   0  0  0  0  0  0  0  0  0  0  0  0
  -18.1600  -28.0070   22.6920 C   0  0  0  0  0  0  0  0  0  0  0  0
  -20.7170  -28.2260   22.9970 C   0  0  0  0  0  3  0  0  0  0  0  0
  -20.8100  -26.8140   22.3730 C   0  0  0  0  0  2  0  0  0  0  0  0
  -19.7130  -26.5390   21.3380 C   0  0  0  0  0  2  0  0  0  0  0  0
  -18.3280  -26.6790   21.9740 C   0  0  0  0  0  2  0  0  0  0  0  0
  -19.2820  -28.7410   23.1580 C   0  0  0  0  0  0  0  0  0  0  0  0
  -19.0730  -29.9870   23.7900 C   0  0  0  0  0  3  0  0  0  0  0  0
  -17.7730  -30.4990   23.9590 C   0  0  0  0  0  3  0  0  0  0  0  0
  -16.6640  -29.7600   23.5100 C   0  0  0  0  0  3  0  0  0  0  0  0
  -16.8580  -28.5170   22.8830 C   0  0  0  0  0  3  0  0  0  0  0  0
  -25.8260  -32.5330   23.9040 C   0  0  0  0  0  3  0  0  0  0  0  0
  -25.4560  -33.9220   24.2010 N   0  0  0  0  0  0  0  0  0  0  0  0
  -25.7880  -34.9760   23.4420 C   0  0  0  0  0  0  0  0  0  0  0  0
  -26.5080  -34.8830   22.4450 O   0  0  0  0  0  0  0  0  0  0  0  0
  -24.8200  -34.0660   24.9720 H   0  0  0  0  0  0  0  0  0  0  0  0
  -24.0160  -36.7000   22.9830 C   0  0  0  0  0  1  0  0  0  0  0  0
  -25.2310  -36.3520   23.8570 C   0  0  0  0  0  3  0  0  0  0  0  0
  -27.2860  -37.3280   24.7810 C   0  0  0  0  0  1  0  0  0  0  0  0
  -26.2300  -37.4390   23.7770 N   0  0  0  0  0  0  0  0  0  0  0  0
  -25.7850  -38.3460   23.8860 H   0  0  0  0  0  0  0  0  0  0  0  0
  -26.2900  -31.7870   25.2150 C   0  0  1  0  0  0  0  0  0  0  0  0
  -25.1430  -31.5140   26.2150 C   0  0  0  0  0  1  0  0  0  0  0  0
  -26.9470  -30.4310   24.8680 C   0  0  0  0  0  1  0  0  0  0  0  0
  -27.3680  -32.6260   25.9430 C   0  0  0  0  0  1  0  0  0  0  0  0
  1  7  1  0
  2  1  2  0
  2  8  1  0
  5  3  1  0
  6  4  1  0
  7 11  1  6
  7  3  1  0
  7  4  1  0
  8 52  1  6
  8  5  1  0
  8  6  1  0
  9 10  1  0
 10  2  1  0
 12 11  1  0
 12 13  1  0
 14 22  1  0
 15 20  1  0
 16 17  1  0
 16 15  1  0
 18 17  1  0
 18 27  1  0
 18 19  1  0
 20 14  1  0
 20 19  1  0
 21 14  2  0
 22 23  1  0
 22 13  1  0
 24 25  2  0
 25 44  1  0
 26 25  1  0
 26 29  1  0
 27 28  1  0
 27 24  1  0
 28 26  2  0
 29 30  1  0
 30 31  2  0
 32 35  1  0
 32 31  1  0
 33 32  2  0
 34 33  1  0
 34 29  2  0
 35 36  1  0
 36 37  1  0
 37 38  2  0
 39 38  1  0
 39 43  1  0
 40 39  2  0
 41 36  2  0
 41 40  1  0
 42 41  1  0
 44 45  1  0
 45 48  1  0
 45 47  1  0
 46 44  2  0
 49 24  1  0
 49 50  1  0
 51 49  1  0
 52 53  1  0
 54 53  1  0
 55 66  2  0
 56 54  1  0
 56 61  1  0
 57 65  1  0
 57 67  1  0
 58 60  1  0
 59 65  1  0
 60 61  2  0
 60 59  1  0
 62 56  2  0
 63 62  1  0
 63 58  2  0
 64 58  1  0
 64 57  1  0
 65 55  1  0
 67 69  2  0
 68 67  1  0
 70 68  1  0
 71 80  2  0
 71 76  1  0
 72 68  1  0
 72 76  1  0
 73 72  1  0
 74 75  1  0
 74 73  1  0
 75 71  1  0
 76 77  2  0
 77 78  1  0
 79 78  2  0
 80 79  1  0
 81 55  1  0
 81 82  1  0
 81 91  1  0
 82 85  1  0
 83 87  1  0
 83 82  1  0
 84 83  2  0
 87 86  1  0
 89 87  1  0
 89 90  1  0
 89 88  1  0
 91 94  1  1
 91 92  1  0
 93 91  1  0
M  ISO  4  14 100  22 100  53 101  54 101
M  END
>  <TORSDO>  (66) 
F 22

>  <SCORE>  (66) 
-12.509

>  <name>  (66) 
65

>  <ligand_id>  (66) 
65

>  <original_smiles>  (66) 
[H]C1=C(C([H])([H])C([H])([H])[H])C2(C([H])([H])C([H])([H])Oc3c([H])c([H])c4c(c3[H])C([H])([H])N(C(=O)C([H])(N([H])C(=O)C([H])(N([H])C([H])([H])[H])C([H])([H])[H])C(C([H])([H])[H])(C([H])([H])[H])C([H])([H])[H])C([H])(C(=O)N([H])C3([H])c5c([H])c([H])c([H])c([H])c5C([H])([H])C([H])([H])C3([H])[H])C4([H])[H])C([H])([H])C([H])([H])C1(C([H])([H])C([H])([H])C([H])([H])N([H])C(=O)N1C([H])([H])C([H])([H])C([H])([H])C([H])(n3nc(-c4c([H])c([H])c(Oc5c([H])c([H])c(F)c([H])c5F)c([H])c4[H])c(C(=O)N([H])[H])c3N([H])[H])C1([H])[H])C([H])([H])C2([H])[H]

>  <smiles>  (66) 
[H]C1=C(C([H])([H])C([H])([H])[H])C2(C([H])([H])C([H])([H])Oc3c([H])c([H])c4c(c3[H])C([H])([H])N(C(=O)C([H])(N([H])C(=O)C([H])(N([H])C([H])([H])[H])C([H])([H])[H])C(C([H])([H])[H])(C([H])([H])[H])C([H])([H])[H])C([H])(C(=O)N([H])C3([H])c5c([H])c([H])c([H])c([H])c5C([H])([H])C([H])([H])C3([H])[H])C4([H])[H])C([H])([H])C([H])([H])C1(C([H])([H])C([H])([H])C([H])([H])N([H])C(=O)N1C([H])([H])C([H])([H])C([H])([H])C([H])(n3nc(-c4c([H])c([H])c(Oc5c([H])c([H])c(F)c([H])c5F)c([H])c4[H])c(C(=O)N([H])[H])c3N([H])[H])C1([H])[H])C([H])([H])C2([H])[H]

$$$$
66:0:0
     RDKit          3D

 98106  0  0  1  0  0  0  0  0999 V2000
  -30.6960  -22.0840   19.2080 C   0  0  0  0  0  2  0  0  0  0  0  0
  -28.6810  -20.9000   18.2120 C   0  0  0  0  0  2  0  0  0  0  0  0
  -31.2960  -20.7140   19.5750 C   0  0  0  0  0  2  0  0  0  0  0  0
  -29.3050  -19.5620   18.6140 C   0  0  0  0  0  2  0  0  0  0  0  0
  -29.1540  -22.0450   19.1110 C   0  0  0  0  0  3  0  0  0  0  0  0
  -30.8640  -19.5680   18.6200 C   0  0  2  0  0  0  0  0  0  0  0  0
  -28.5970  -23.3660   18.5700 C   0  0  0  0  0  2  0  0  0  0  0  0
  -28.5370  -24.4710   19.6230 C   0  0  0  0  0  2  0  0  0  0  0  0
  -28.5720  -25.8490   18.9700 C   0  0  0  0  0  2  0  0  0  0  0  0
  -28.3380  -26.8230   19.9700 O   0  0  0  0  0  0  0  0  0  0  0  0
  -24.5110  -31.8410   23.1450 C   0  0  0  0  0  0  0  0  0  0  0  0
  -27.1170  -27.4510   19.9990 C   0  0  0  0  0  0  0  0  0  0  0  0
  -23.2780  -30.4570   21.5030 C   0  0  0  0  0  3  0  0  0  0  0  0
  -24.7080  -28.9200   20.0590 C   0  0  0  0  0  0  0  0  0  0  0  0
  -25.7960  -30.8140   21.2800 C   0  0  0  0  0  2  0  0  0  0  0  0
  -25.8670  -29.4460   20.6410 C   0  0  0  0  0  0  0  0  0  0  0  0
  -27.0670  -28.7120   20.6230 C   0  0  0  0  0  3  0  0  0  0  0  0
  -25.9350  -26.9130   19.4360 C   0  0  0  0  0  3  0  0  0  0  0  0
  -24.7320  -27.6460   19.4610 C   0  0  0  0  0  3  0  0  0  0  0  0
  -23.4670  -29.7800   20.1180 C   0  0  0  0  0  2  0  0  0  0  0  0
  -24.5470  -31.0520   22.0340 N   0  0  0  0  0  0  0  0  0  0  0  0
  -23.4380  -32.1150   23.6990 O   0  0  0  0  0  0  0  0  0  0  0  0
  -22.6330  -29.4330   22.4620 C   0  0  0  0  0  0  0  0  0  0  0  0
  -21.3040  -29.2730   22.3560 N   0  0  0  0  0  0  0  0  0  0  0  0
  -23.3230  -28.7860   23.2550 O   0  0  0  0  0  0  0  0  0  0  0  0
  -20.8120  -29.8470   21.6870 H   0  0  0  0  0  0  0  0  0  0  0  0
  -17.9200  -28.1370   22.8960 C   0  0  0  0  0  0  0  0  0  0  0  0
  -20.4860  -28.3380   23.1270 C   0  0  0  0  0  3  0  0  0  0  0  0
  -20.5510  -26.9150   22.5240 C   0  0  0  0  0  2  0  0  0  0  0  0
  -19.4240  -26.6310   21.5260 C   0  0  0  0  0  2  0  0  0  0  0  0
  -18.0580  -26.7940   22.1980 C   0  0  0  0  0  2  0  0  0  0  0  0
  -19.0620  -28.8690   23.3170 C   0  0  0  0  0  0  0  0  0  0  0  0
  -18.8800  -30.1290   23.9280 C   0  0  0  0  0  3  0  0  0  0  0  0
  -17.5890  -30.6550   24.1230 C   0  0  0  0  0  3  0  0  0  0  0  0
  -16.4620  -29.9170   23.7200 C   0  0  0  0  0  3  0  0  0  0  0  0
  -16.6290  -28.6610   23.1120 C   0  0  0  0  0  3  0  0  0  0  0  0
  -25.8100  -32.4550   23.7560 C   0  0  0  0  0  3  0  0  0  0  0  0
  -26.3470  -31.6580   25.0080 C   0  0  1  0  0  0  0  0  0  0  0  0
  -25.2710  -31.4060   26.0890 C   0  0  0  0  0  1  0  0  0  0  0  0
  -26.9160  -30.2880   24.5770 C   0  0  0  0  0  1  0  0  0  0  0  0
  -27.5110  -32.4350   25.6650 C   0  0  0  0  0  1  0  0  0  0  0  0
  -25.5160  -33.8480   24.1130 N   0  0  0  0  0  0  0  0  0  0  0  0
  -25.8600  -34.9110   23.3730 C   0  0  0  0  0  0  0  0  0  0  0  0
  -26.5320  -34.8200   22.3410 O   0  0  0  0  0  0  0  0  0  0  0  0
  -24.9240  -33.9940   24.9170 H   0  0  0  0  0  0  0  0  0  0  0  0
  -24.1600  -36.7300   23.0280 C   0  0  0  0  0  1  0  0  0  0  0  0
  -25.3810  -36.2940   23.8530 C   0  0  0  0  0  3  0  0  0  0  0  0
  -27.5110  -37.1300   24.7420 C   0  0  0  0  0  1  0  0  0  0  0  0
  -26.4290  -37.3350   23.7820 N   0  0  0  0  0  0  0  0  0  0  0  0
  -26.0310  -38.2570   23.9440 H   0  0  0  0  0  0  0  0  0  0  0  0
  -31.3830  -18.2220   19.2150 C   0  0  0  0  0  2  0  0  0  0  0  0
  -30.9570  -16.9400   18.4550 C   0  0  0  0  0  3  0  0  0  0  0  0
  -33.4020  -15.8790   18.1620 C   0  0  0  0  0  1  0  0  0  0  0  0
  -32.0220  -16.2190   17.5790 C   0  0  0  0  0  2  0  0  0  0  0  0
  -29.9010  -16.0910   19.2040 C   0  0  0  0  0  2  0  0  0  0  0  0
  -30.9740  -14.5490   20.7810 C   0  0  0  0  0  0  0  0  0  0  0  0
  -30.7690  -12.2920   19.8980 C   0  0  0  0  0  2  0  0  0  0  0  0
  -29.9350  -12.3960   18.6030 C   0  0  0  0  0  2  0  0  0  0  0  0
  -28.4220  -12.3350   18.9100 C   0  0  0  0  0  2  0  0  0  0  0  0
  -27.9810  -13.2520   20.0830 C   0  0  0  0  0  3  0  0  0  0  0  0
  -28.9520  -13.1400   21.2850 C   0  0  0  0  0  2  0  0  0  0  0  0
  -30.3230  -13.3600   20.7980 N   0  0  0  0  0  0  0  0  0  0  0  0
  -32.1840  -14.6700   20.6310 O   0  0  0  0  0  0  0  0  0  0  0  0
  -30.1610  -15.5840   20.5610 N   0  0  0  0  0  0  0  0  0  0  0  0
  -29.3030  -15.4900   21.0830 H   0  0  0  0  0  0  0  0  0  0  0  0
  -25.5510  -13.9100   20.6070 C   0  0  0  0  0  0  0  0  0  0  0  0
  -24.4490  -13.1580   20.9140 C   0  0  0  0  0  0  0  0  0  0  0  0
  -24.8940  -11.8020   20.9450 C   0  0  0  0  0  0  0  0  0  0  0  0
  -26.5970  -13.0090   20.4720 N   0  0  0  0  0  0  0  0  0  0  0  0
  -26.2010  -11.7380   20.7350 N   0  0  0  0  0  0  0  0  0  0  0  0
  -24.1420  -10.5510   21.1050 C   0  0  0  0  0  0  0  0  0  0  0  0
  -24.5030   -9.5960   22.0800 C   0  0  0  0  0  3  0  0  0  0  0  0
  -23.7560   -8.4080   22.2280 C   0  0  0  0  0  3  0  0  0  0  0  0
  -22.6330   -8.1690   21.3980 C   0  0  0  0  0  0  0  0  0  0  0  0
  -22.2930   -9.1140   20.4140 C   0  0  0  0  0  3  0  0  0  0  0  0
  -23.0410  -10.2920   20.2650 C   0  0  0  0  0  3  0  0  0  0  0  0
  -21.8630   -7.0330   21.4530 O   0  0  0  0  0  0  0  0  0  0  0  0
  -21.7320   -6.3090   22.6100 C   0  0  0  0  0  0  0  0  0  0  0  0
  -21.2280   -6.8860   23.7970 C   0  0  0  0  0  3  0  0  0  0  0  0
  -21.0430   -6.0880   24.9440 C   0  0  0  0  0  3  0  0  0  0  0  0
  -21.3520   -4.7160   24.9050 C   0  0  0  0  0  0  0  0  0  0  0  0
  -21.8500   -4.1390   23.7230 C   0  0  0  0  0  3  0  0  0  0  0  0
  -22.0360   -4.9340   22.5790 C   0  0  0  0  0  0  0  0  0  0  0  0
  -22.4960   -4.3690   21.4370 F   0  0  0  0  0  0  0  0  0  0  0  0
  -21.1670   -3.9470   26.0030 F   0  0  0  0  0  0  0  0  0  0  0  0
  -23.0420  -13.6560   21.0750 C   0  0  0  0  0  0  0  0  0  0  0  0
  -22.2460  -12.9880   21.9020 N   0  0  0  0  0  0  0  0  0  0  0  0
  -22.6550  -14.6740   20.5020 O   0  0  0  0  0  0  0  0  0  0  0  0
  -22.5690  -12.1650   22.3880 H   0  0  0  0  0  0  0  0  0  0  0  0
  -21.2990  -13.3060   22.0510 H   0  0  0  0  0  0  0  0  0  0  0  0
  -25.7440  -15.2750   20.4130 N   0  0  0  0  0  0  0  0  0  0  0  0
  -24.9760  -15.9370   20.4610 H   0  0  0  0  0  0  0  0  0  0  0  0
  -26.6170  -15.7030   20.1370 H   0  0  0  0  0  0  0  0  0  0  0  0
  -31.4190  -19.7910   17.1760 C   0  0  0  0  0  2  0  0  0  0  0  0
  -32.8920  -19.7910   17.0990 N   0  0  0  0  0  4  0  0  0  0  0  0
  -33.2760  -20.5430   17.6430 H   0  0  0  0  0  0  0  0  0  0  0  0
  -33.1800  -19.9200   16.1450 H   0  0  0  0  0  0  0  0  0  0  0  0
  -33.2740  -18.9240   17.4280 H   0  0  0  0  0  0  0  0  0  0  0  0
  1  3  1  0
  2  4  1  0
  2  5  1  0
  4  6  1  0
  5  7  1  0
  5  1  1  0
  6 94  1  6
  6 51  1  0
  6  3  1  0
  7  8  1  0
  9  8  1  0
  9 10  1  0
 10 12  1  0
 11 22  2  0
 12 17  1  0
 13 21  1  0
 13 23  1  0
 14 20  1  0
 14 16  1  0
 15 21  1  0
 16 15  1  0
 17 16  2  0
 18 19  1  0
 18 12  2  0
 19 14  2  0
 20 13  1  0
 21 11  1  0
 23 25  2  0
 24 23  1  0
 26 24  1  0
 27 36  2  0
 27 32  1  0
 28 24  1  0
 28 32  1  0
 29 28  1  0
 30 31  1  0
 30 29  1  0
 31 27  1  0
 32 33  2  0
 33 34  1  0
 35 34  2  0
 36 35  1  0
 37 11  1  0
 37 42  1  0
 37 38  1  0
 38 41  1  1
 38 39  1  0
 40 38  1  0
 42 45  1  0
 43 47  1  0
 43 42  1  0
 44 43  2  0
 47 46  1  0
 49 47  1  0
 49 50  1  0
 49 48  1  0
 52 54  1  0
 52 55  1  0
 52 51  1  0
 54 53  1  0
 55 64  1  0
 56 62  1  0
 57 62  1  0
 58 59  1  0
 58 57  1  0
 60 59  1  0
 60 69  1  0
 60 61  1  0
 62 61  1  0
 63 56  2  0
 64 56  1  0
 64 65  1  0
 66 67  2  0
 67 68  1  0
 67 86  1  0
 68 71  1  0
 69 66  1  0
 69 70  1  0
 70 68  2  0
 71 72  1  0
 72 73  2  0
 74 77  1  0
 74 73  1  0
 75 74  2  0
 76 75  1  0
 76 71  2  0
 77 78  1  0
 78 79  1  0
 79 80  2  0
 81 80  1  0
 81 85  1  0
 82 81  2  0
 83 78  2  0
 83 82  1  0
 84 83  1  0
 86 87  1  0
 87 90  1  0
 87 89  1  0
 88 86  2  0
 91 92  1  0
 91 66  1  0
 93 91  1  0
 95 94  1  0
 95 98  1  0
 95 96  1  0
 97 95  1  0
M  ISO  4   9 101  10 101  56 100  64 100
M  END
>  <TORSDO>  (67) 
F 25

>  <SCORE>  (67) 
-12.040

>  <name>  (67) 
66

>  <ligand_id>  (67) 
66

>  <original_smiles>  (67) 
[H]c1c([H])c([H])c2c(c1[H])C([H])([H])C([H])([H])C([H])([H])C2([H])N([H])C(=O)C1([H])N(C(=O)C([H])(N([H])C(=O)C([H])(N([H])C([H])([H])[H])C([H])([H])[H])C(C([H])([H])[H])(C([H])([H])[H])C([H])([H])[H])C([H])([H])c2c([H])c(OC([H])([H])C([H])([H])C([H])([H])C3([H])C([H])([H])C([H])([H])C(C([H])([H])C([H])(C([H])([H])N([H])C(=O)N4C([H])([H])C([H])([H])C([H])([H])C([H])(n5nc(-c6c([H])c([H])c(Oc7c([H])c([H])c(F)c([H])c7F)c([H])c6[H])c(C(=O)N([H])[H])c5N([H])[H])C4([H])[H])C([H])([H])C([H])([H])[H])(C([H])([H])[N+]([H])([H])[H])C([H])([H])C3([H])[H])c([H])c([H])c2C1([H])[H]

>  <smiles>  (67) 
[H]c1c([H])c([H])c2c(c1[H])C([H])([H])C([H])([H])C([H])([H])C2([H])N([H])C(=O)C1([H])N(C(=O)C([H])(N([H])C(=O)C([H])(N([H])C([H])([H])[H])C([H])([H])[H])C(C([H])([H])[H])(C([H])([H])[H])C([H])([H])[H])C([H])([H])c2c([H])c(OC([H])([H])C([H])([H])C([H])([H])C3([H])C([H])([H])C([H])([H])C(C([H])([H])C([H])(C([H])([H])N([H])C(=O)N4C([H])([H])C([H])([H])C([H])([H])C([H])(n5nc(-c6c([H])c([H])c(Oc7c([H])c([H])c(F)c([H])c7F)c([H])c6[H])c(C(=O)N([H])[H])c5N([H])[H])C4([H])[H])C([H])([H])C([H])([H])[H])(C([H])([H])[N+]([H])([H])[H])C([H])([H])C3([H])[H])c([H])c([H])c2C1([H])[H]

$$$$
67:0:0
     RDKit          3D

 96104  0  0  1  0  0  0  0  0999 V2000
  -31.5040  -20.6400   21.0440 C   0  0  0  0  0  3  0  0  0  0  0  0
  -29.7700  -21.2030   19.4430 C   0  0  0  0  0  3  0  0  0  0  0  0
  -30.5740  -20.2160   20.0760 C   0  0  0  0  0  0  0  0  0  0  0  0
  -31.6000  -21.9940   21.4210 C   0  0  0  0  0  0  0  0  0  0  0  0
  -29.8820  -22.5840   19.7700 C   0  0  0  0  0  0  0  0  0  0  0  0
  -30.7700  -22.9680   20.8110 C   0  0  0  0  0  0  0  0  0  0  0  0
  -32.6700  -22.3880   22.4260 C   0  0  0  0  0  1  0  0  0  0  0  0
  -30.9000  -24.4190   21.2660 C   0  0  0  0  0  1  0  0  0  0  0  0
  -30.6250  -18.7720   19.5320 C   0  0  0  0  0  2  0  0  0  0  0  0
  -30.2700  -17.4840   20.3990 C   0  0  1  0  0  0  0  0  0  0  0  0
  -30.4880  -18.3620   22.9240 C   0  0  0  0  0  1  0  0  0  0  0  0
  -30.9180  -17.3790   21.8200 C   0  0  0  0  0  2  0  0  0  0  0  0
  -27.8780  -18.5760   20.3040 C   0  0  0  0  0  1  0  0  0  0  0  0
  -28.7240  -17.2990   20.4650 C   0  0  0  0  0  2  0  0  0  0  0  0
  -30.8430  -16.2670   19.5880 C   0  0  0  0  0  2  0  0  0  0  0  0
  -31.0460  -13.7910   19.6240 C   0  0  0  0  0  0  0  0  0  0  0  0
  -30.4290  -11.7100   18.4840 C   0  0  0  0  0  2  0  0  0  0  0  0
  -29.3810  -12.0720   17.4090 C   0  0  0  0  0  2  0  0  0  0  0  0
  -27.9590  -12.0390   18.0060 C   0  0  0  0  0  2  0  0  0  0  0  0
  -27.8470  -12.8160   19.3450 C   0  0  0  0  0  3  0  0  0  0  0  0
  -29.0080  -12.4630   20.3030 C   0  0  0  0  0  2  0  0  0  0  0  0
  -30.2720  -12.6750   19.5810 N   0  0  0  0  0  0  0  0  0  0  0  0
  -32.1550  -13.8540   19.0900 O   0  0  0  0  0  0  0  0  0  0  0  0
  -30.4290  -14.9150   20.0300 N   0  0  0  0  0  0  0  0  0  0  0  0
  -29.5120  -14.8130   20.4360 H   0  0  0  0  0  0  0  0  0  0  0  0
  -25.5820  -13.5510   20.3230 C   0  0  0  0  0  0  0  0  0  0  0  0
  -24.5160  -12.8370   20.8030 C   0  0  0  0  0  0  0  0  0  0  0  0
  -24.8880  -11.4620   20.7040 C   0  0  0  0  0  0  0  0  0  0  0  0
  -26.5400  -12.6140   19.9680 N   0  0  0  0  0  0  0  0  0  0  0  0
  -26.1300  -11.3510   20.2520 N   0  0  0  0  0  0  0  0  0  0  0  0
  -24.1110  -10.2430   20.9590 C   0  0  0  0  0  0  0  0  0  0  0  0
  -24.5230   -9.2900   21.9160 C   0  0  0  0  0  3  0  0  0  0  0  0
  -23.7490   -8.1330   22.1570 C   0  0  0  0  0  3  0  0  0  0  0  0
  -22.5470   -7.9230   21.4390 C   0  0  0  0  0  0  0  0  0  0  0  0
  -22.1540   -8.8640   20.4700 C   0  0  0  0  0  3  0  0  0  0  0  0
  -22.9290  -10.0110   20.2290 C   0  0  0  0  0  3  0  0  0  0  0  0
  -21.7440   -6.8180   21.5860 O   0  0  0  0  0  0  0  0  0  0  0  0
  -21.6050   -6.1870   22.7970 C   0  0  0  0  0  0  0  0  0  0  0  0
  -21.1140   -6.8620   23.9350 C   0  0  0  0  0  3  0  0  0  0  0  0
  -20.9180   -6.1570   25.1400 C   0  0  0  0  0  3  0  0  0  0  0  0
  -21.2020   -4.7790   25.2090 C   0  0  0  0  0  0  0  0  0  0  0  0
  -21.6870   -4.1060   24.0730 C   0  0  0  0  0  3  0  0  0  0  0  0
  -21.8850   -4.8070   22.8700 C   0  0  0  0  0  0  0  0  0  0  0  0
  -22.3300   -4.1470   21.7730 F   0  0  0  0  0  0  0  0  0  0  0  0
  -21.0100   -4.1010   26.3640 F   0  0  0  0  0  0  0  0  0  0  0  0
  -23.1890  -13.3920   21.2360 C   0  0  0  0  0  0  0  0  0  0  0  0
  -22.5340  -12.7400   22.1920 N   0  0  0  0  0  0  0  0  0  0  0  0
  -22.7470  -14.4370   20.7640 O   0  0  0  0  0  0  0  0  0  0  0  0
  -22.9130  -11.8980   22.5990 H   0  0  0  0  0  0  0  0  0  0  0  0
  -21.6430  -13.0900   22.5190 H   0  0  0  0  0  0  0  0  0  0  0  0
  -25.8030  -14.9130   20.1450 N   0  0  0  0  0  0  0  0  0  0  0  0
  -25.0880  -15.6000   20.3610 H   0  0  0  0  0  0  0  0  0  0  0  0
  -26.6200  -15.3140   19.7050 H   0  0  0  0  0  0  0  0  0  0  0  0
  -29.2150  -23.6510   18.8700 C   0  0  0  0  0  2  0  0  0  0  0  0
  -28.0410  -24.4890   19.4510 C   0  0  0  0  0  2  0  0  0  0  0  0
  -28.1340  -25.8560   18.9870 O   0  0  0  0  0  0  0  0  0  0  0  0
  -24.9990  -30.8970   22.9600 C   0  0  0  0  0  0  0  0  0  0  0  0
  -27.0430  -26.6830   19.1750 C   0  0  0  0  0  0  0  0  0  0  0  0
  -23.6010  -29.8950   21.1820 C   0  0  0  0  0  3  0  0  0  0  0  0
  -24.8350  -28.4300   19.4940 C   0  0  0  0  0  0  0  0  0  0  0  0
  -26.1450  -29.9980   20.9340 C   0  0  0  0  0  2  0  0  0  0  0  0
  -26.0590  -28.7330   20.1030 C   0  0  0  0  0  0  0  0  0  0  0  0
  -27.1690  -27.8700   19.9320 C   0  0  0  0  0  3  0  0  0  0  0  0
  -25.8070  -26.4000   18.5560 C   0  0  0  0  0  3  0  0  0  0  0  0
  -24.7050  -27.2640   18.7150 C   0  0  0  0  0  3  0  0  0  0  0  0
  -23.6970  -29.4050   19.7120 C   0  0  0  0  0  2  0  0  0  0  0  0
  -24.9360  -30.2690   21.7510 N   0  0  0  0  0  0  0  0  0  0  0  0
  -23.9710  -31.2020   23.5790 O   0  0  0  0  0  0  0  0  0  0  0  0
  -22.8580  -28.8250   22.0120 C   0  0  0  0  0  0  0  0  0  0  0  0
  -21.5170  -28.8410   21.9490 N   0  0  0  0  0  0  0  0  0  0  0  0
  -23.4850  -27.9880   22.6680 O   0  0  0  0  0  0  0  0  0  0  0  0
  -21.0780  -29.5630   21.3960 H   0  0  0  0  0  0  0  0  0  0  0  0
  -18.0340  -28.0570   22.5160 C   0  0  0  0  0  0  0  0  0  0  0  0
  -20.6130  -27.9030   22.6130 C   0  0  0  0  0  3  0  0  0  0  0  0
  -20.4640  -26.6000   21.7950 C   0  0  0  0  0  2  0  0  0  0  0  0
  -19.2700  -26.6230   20.8360 C   0  0  0  0  0  2  0  0  0  0  0  0
  -17.9650  -26.8400   21.6090 C   0  0  0  0  0  2  0  0  0  0  0  0
  -19.2790  -28.5660   22.9740 C   0  0  0  0  0  0  0  0  0  0  0  0
  -19.2900  -29.7210   23.7850 C   0  0  0  0  0  3  0  0  0  0  0  0
  -18.0880  -30.3610   24.1440 C   0  0  0  0  0  3  0  0  0  0  0  0
  -16.8580  -29.8430   23.7010 C   0  0  0  0  0  3  0  0  0  0  0  0
  -16.8340  -28.6940   22.8910 C   0  0  0  0  0  3  0  0  0  0  0  0
  -26.3640  -31.2820   23.6110 C   0  0  0  0  0  3  0  0  0  0  0  0
  -26.2060  -32.6080   24.2250 N   0  0  0  0  0  0  0  0  0  0  0  0
  -26.6410  -33.7540   23.6810 C   0  0  0  0  0  0  0  0  0  0  0  0
  -27.2860  -33.7930   22.6290 O   0  0  0  0  0  0  0  0  0  0  0  0
  -25.6410  -32.6550   25.0610 H   0  0  0  0  0  0  0  0  0  0  0  0
  -25.1100  -35.7460   23.7340 C   0  0  0  0  0  1  0  0  0  0  0  0
  -26.3050  -35.0640   24.4180 C   0  0  0  0  0  3  0  0  0  0  0  0
  -28.5230  -35.5400   25.3610 C   0  0  0  0  0  1  0  0  0  0  0  0
  -27.4450  -36.0060   24.4930 N   0  0  0  0  0  0  0  0  0  0  0  0
  -27.1390  -36.9150   24.8260 H   0  0  0  0  0  0  0  0  0  0  0  0
  -26.8650  -30.2290   24.6740 C   0  0  1  0  0  0  0  0  0  0  0  0
  -25.8110  -29.8730   25.7500 C   0  0  0  0  0  1  0  0  0  0  0  0
  -27.2840  -28.9130   23.9780 C   0  0  0  0  0  1  0  0  0  0  0  0
  -28.1220  -30.7720   25.3930 C   0  0  0  0  0  1  0  0  0  0  0  0
  1  4  1  0
  2  5  2  0
  2  3  1  0
  3  1  2  0
  4  7  1  0
  5  6  1  0
  6  8  1  0
  6  4  2  0
  9  3  1  0
 10  9  1  6
 10 14  1  0
 10 12  1  0
 12 11  1  0
 13 14  1  0
 15 24  1  0
 15 10  1  0
 16 24  1  0
 17 22  1  0
 18 19  1  0
 18 17  1  0
 20 19  1  0
 20 29  1  0
 20 21  1  0
 22 16  1  0
 22 21  1  0
 23 16  2  0
 24 25  1  0
 26 27  2  0
 27 46  1  0
 28 27  1  0
 28 31  1  0
 29 30  1  0
 29 26  1  0
 30 28  2  0
 31 32  1  0
 32 33  2  0
 34 37  1  0
 34 33  1  0
 35 34  2  0
 36 35  1  0
 36 31  2  0
 37 38  1  0
 38 43  2  0
 38 39  1  0
 39 40  2  0
 40 41  1  0
 41 45  1  0
 42 41  2  0
 43 42  1  0
 44 43  1  0
 46 47  1  0
 47 50  1  0
 47 49  1  0
 48 46  2  0
 51 26  1  0
 51 52  1  0
 53 51  1  0
 54 55  1  0
 54  5  1  0
 56 58  1  0
 56 55  1  0
 57 68  2  0
 58 63  1  0
 59 67  1  0
 59 69  1  0
 60 66  1  0
 60 62  1  0
 61 67  1  0
 62 61  1  0
 63 62  2  0
 64 65  1  0
 64 58  2  0
 65 60  2  0
 66 59  1  0
 67 57  1  0
 69 71  2  0
 70 69  1  0
 72 70  1  0
 73 82  2  0
 73 78  1  0
 74 70  1  0
 74 78  1  0
 75 74  1  0
 76 77  1  0
 76 75  1  0
 77 73  1  0
 78 79  2  0
 79 80  1  0
 81 80  2  0
 82 81  1  0
 83 57  1  0
 83 84  1  0
 83 93  1  0
 84 87  1  0
 85 84  1  0
 85 89  1  0
 86 85  2  0
 89 88  1  0
 89 91  1  0
 91 92  1  0
 91 90  1  0
 93 96  1  1
 93 94  1  0
 95 93  1  0
M  ISO  4  16 100  24 100  55 101  56 101
M  END
>  <TORSDO>  (68) 
F 23

>  <SCORE>  (68) 
-8.859

>  <name>  (68) 
67

>  <ligand_id>  (68) 
67

>  <original_smiles>  (68) 
[H]c1c([H])c([H])c2c(c1[H])C([H])([H])C([H])([H])C([H])([H])C2([H])N([H])C(=O)C1([H])N(C(=O)C([H])(N([H])C(=O)C([H])(N([H])C([H])([H])[H])C([H])([H])[H])C(C([H])([H])[H])(C([H])([H])[H])C([H])([H])[H])C([H])([H])c2c([H])c(OC([H])([H])C([H])([H])c3c([H])c(C([H])([H])C(C([H])([H])N([H])C(=O)N4C([H])([H])C([H])([H])C([H])([H])C([H])(n5nc(-c6c([H])c([H])c(Oc7c([H])c([H])c(F)c([H])c7F)c([H])c6[H])c(C(=O)N([H])[H])c5N([H])[H])C4([H])[H])(C([H])([H])C([H])([H])[H])C([H])([H])C([H])([H])[H])c([H])c(C([H])([H])[H])c3C([H])([H])[H])c([H])c([H])c2C1([H])[H]

>  <smiles>  (68) 
[H]c1c([H])c([H])c2c(c1[H])C([H])([H])C([H])([H])C([H])([H])C2([H])N([H])C(=O)C1([H])N(C(=O)C([H])(N([H])C(=O)C([H])(N([H])C([H])([H])[H])C([H])([H])[H])C(C([H])([H])[H])(C([H])([H])[H])C([H])([H])[H])C([H])([H])c2c([H])c(OC([H])([H])C([H])([H])c3c([H])c(C([H])([H])C(C([H])([H])N([H])C(=O)N4C([H])([H])C([H])([H])C([H])([H])C([H])(n5nc(-c6c([H])c([H])c(Oc7c([H])c([H])c(F)c([H])c7F)c([H])c6[H])c(C(=O)N([H])[H])c5N([H])[H])C4([H])[H])(C([H])([H])C([H])([H])[H])C([H])([H])C([H])([H])[H])c([H])c(C([H])([H])[H])c3C([H])([H])[H])c([H])c([H])c2C1([H])[H]

$$$$
68:0:0
     RDKit          3D

 88 97  0  0  1  0  0  0  0  0999 V2000
  -30.3520  -22.1130   20.3470 C   0  0  0  0  0  2  0  0  0  0  0  0
  -30.2530  -20.6790   20.9070 C   0  0  0  0  0  3  0  0  0  0  0  0
  -28.8010  -20.3390   20.4140 C   0  0  0  0  0  3  0  0  0  0  0  0
  -28.8620  -22.2190   20.0540 C   0  0  0  0  0  3  0  0  0  0  0  0
  -30.9300  -19.4280   20.2220 C   0  0  0  0  0  3  0  0  0  0  0  0
  -29.6770  -18.6540   20.6050 C   0  0  0  0  0  3  0  0  0  0  0  0
  -30.2820  -15.5880   20.2260 C   0  0  0  0  0  0  0  0  0  0  0  0
  -30.3530  -13.0830   19.3530 C   0  0  0  0  0  2  0  0  0  0  0  0
  -29.4390  -12.7060   18.1540 C   0  0  0  0  0  2  0  0  0  0  0  0
  -28.0130  -12.3730   18.6230 C   0  0  0  0  0  2  0  0  0  0  0  0
  -27.5220  -13.3600   19.7060 C   0  0  0  0  0  3  0  0  0  0  0  0
  -28.5740  -13.6350   20.8020 C   0  0  0  0  0  2  0  0  0  0  0  0
  -29.7370  -14.2460   20.1250 N   0  0  0  0  0  0  0  0  0  0  0  0
  -31.5200  -15.5240   20.1180 O   0  0  0  0  0  0  0  0  0  0  0  0
  -29.5270  -16.9370   20.2500 N   0  0  0  0  0  0  0  0  0  0  0  0
  -28.5470  -16.7200   20.1370 H   0  0  0  0  0  0  0  0  0  0  0  0
  -25.1620  -13.8800   20.4950 C   0  0  0  0  0  0  0  0  0  0  0  0
  -24.1140  -13.0920   20.8750 C   0  0  0  0  0  0  0  0  0  0  0  0
  -24.5960  -11.7480   20.8460 C   0  0  0  0  0  0  0  0  0  0  0  0
  -26.2120  -13.0170   20.2430 N   0  0  0  0  0  0  0  0  0  0  0  0
  -25.8860  -11.7270   20.5200 N   0  0  0  0  0  0  0  0  0  0  0  0
  -23.8830  -10.4770   21.0400 C   0  0  0  0  0  0  0  0  0  0  0  0
  -24.3360   -9.5060   21.9600 C   0  0  0  0  0  3  0  0  0  0  0  0
  -23.6170   -8.3050   22.1450 C   0  0  0  0  0  3  0  0  0  0  0  0
  -22.4310   -8.0660   21.4100 C   0  0  0  0  0  0  0  0  0  0  0  0
  -21.9990   -9.0250   20.4770 C   0  0  0  0  0  3  0  0  0  0  0  0
  -22.7190  -10.2180   20.2900 C   0  0  0  0  0  3  0  0  0  0  0  0
  -21.6830   -6.9180   21.5040 O   0  0  0  0  0  0  0  0  0  0  0  0
  -21.6680   -6.1600   22.6480 C   0  0  0  0  0  0  0  0  0  0  0  0
  -21.2770   -6.7000   23.8930 C   0  0  0  0  0  3  0  0  0  0  0  0
  -21.2080   -5.8690   25.0300 C   0  0  0  0  0  3  0  0  0  0  0  0
  -21.5220   -4.5000   24.9230 C   0  0  0  0  0  0  0  0  0  0  0  0
  -21.9080   -3.9620   23.6830 C   0  0  0  0  0  3  0  0  0  0  0  0
  -21.9770   -4.7890   22.5490 C   0  0  0  0  0  0  0  0  0  0  0  0
  -22.3300   -4.2590   21.3530 F   0  0  0  0  0  0  0  0  0  0  0  0
  -21.4480   -3.7020   26.0140 F   0  0  0  0  0  0  0  0  0  0  0  0
  -22.7130  -13.5550   21.1450 C   0  0  0  0  0  0  0  0  0  0  0  0
  -21.9930  -12.8630   22.0210 N   0  0  0  0  0  0  0  0  0  0  0  0
  -22.2630  -14.5690   20.6110 O   0  0  0  0  0  0  0  0  0  0  0  0
  -22.3690  -12.0460   22.4780 H   0  0  0  0  0  0  0  0  0  0  0  0
  -21.0530  -13.1590   22.2400 H   0  0  0  0  0  0  0  0  0  0  0  0
  -25.3000  -15.2530   20.3070 N   0  0  0  0  0  0  0  0  0  0  0  0
  -24.5100  -15.8840   20.3840 H   0  0  0  0  0  0  0  0  0  0  0  0
  -26.1150  -15.6920   19.9030 H   0  0  0  0  0  0  0  0  0  0  0  0
  -33.4400  -19.9040   20.4190 C   0  0  0  0  0  1  0  0  0  0  0  0
  -32.2910  -18.9350   20.7170 C   0  0  0  0  0  2  0  0  0  0  0  0
  -27.9910  -23.8940   20.4250 C   0  0  0  0  0  2  0  0  0  0  0  0
  -28.1820  -25.6180   20.2650 O   0  0  0  0  0  0  0  0  0  0  0  0
  -24.6620  -31.8660   23.1810 C   0  0  0  0  0  0  0  0  0  0  0  0
  -27.1900  -26.7970   20.2470 C   0  0  0  0  0  0  0  0  0  0  0  0
  -23.4710  -30.4480   21.5650 C   0  0  0  0  0  3  0  0  0  0  0  0
  -24.9150  -28.7950   20.1710 C   0  0  0  0  0  0  0  0  0  0  0  0
  -26.0450  -30.6070   21.4270 C   0  0  0  0  0  2  0  0  0  0  0  0
  -26.1110  -29.1710   20.7910 C   0  0  0  0  0  0  0  0  0  0  0  0
  -27.2380  -28.2020   20.7930 C   0  0  0  0  0  3  0  0  0  0  0  0
  -25.9560  -26.6160   19.5750 C   0  0  0  0  0  3  0  0  0  0  0  0
  -24.8720  -27.5410   19.5370 C   0  0  0  0  0  3  0  0  0  0  0  0
  -23.7050  -29.7380   20.2010 C   0  0  0  0  0  2  0  0  0  0  0  0
  -24.7510  -31.0040   22.1110 N   0  0  0  0  0  0  0  0  0  0  0  0
  -23.5710  -32.1680   23.6940 O   0  0  0  0  0  0  0  0  0  0  0  0
  -22.7610  -29.4790   22.5460 C   0  0  0  0  0  0  0  0  0  0  0  0
  -21.4260  -29.3280   22.4300 N   0  0  0  0  0  0  0  0  0  0  0  0
  -23.4200  -28.8610   23.3860 O   0  0  0  0  0  0  0  0  0  0  0  0
  -20.9440  -29.8780   21.7310 H   0  0  0  0  0  0  0  0  0  0  0  0
  -18.0380  -28.1320   22.9620 C   0  0  0  0  0  0  0  0  0  0  0  0
  -20.6010  -28.4030   23.2160 C   0  0  0  0  0  3  0  0  0  0  0  0
  -20.6990  -26.9630   22.6590 C   0  0  0  0  0  2  0  0  0  0  0  0
  -19.5940  -26.6290   21.6520 C   0  0  0  0  0  2  0  0  0  0  0  0
  -18.2150  -26.7770   22.2980 C   0  0  0  0  0  2  0  0  0  0  0  0
  -19.1580  -28.9020   23.3790 C   0  0  0  0  0  0  0  0  0  0  0  0
  -18.9360  -30.1670   23.9650 C   0  0  0  0  0  3  0  0  0  0  0  0
  -17.6290  -30.6600   24.1400 C   0  0  0  0  0  3  0  0  0  0  0  0
  -16.5260  -29.8890   23.7350 C   0  0  0  0  0  3  0  0  0  0  0  0
  -16.7320  -28.6270   23.1510 C   0  0  0  0  0  3  0  0  0  0  0  0
  -25.9270  -32.5220   23.8110 C   0  0  0  0  0  3  0  0  0  0  0  0
  -25.5970  -33.9190   24.1590 N   0  0  0  0  0  0  0  0  0  0  0  0
  -25.9080  -34.9910   23.4170 C   0  0  0  0  0  0  0  0  0  0  0  0
  -26.5590  -34.9100   22.3740 O   0  0  0  0  0  0  0  0  0  0  0  0
  -25.0100  -34.0550   24.9680 H   0  0  0  0  0  0  0  0  0  0  0  0
  -24.1530  -36.7810   23.1420 C   0  0  0  0  0  1  0  0  0  0  0  0
  -25.4220  -36.3720   23.9080 C   0  0  0  0  0  3  0  0  0  0  0  0
  -27.5700  -37.2770   24.6850 C   0  0  0  0  0  1  0  0  0  0  0  0
  -26.4410  -37.4380   23.7740 N   0  0  0  0  0  0  0  0  0  0  0  0
  -26.0280  -38.3520   23.9390 H   0  0  0  0  0  0  0  0  0  0  0  0
  -26.4420  -31.7580   25.0950 C   0  0  1  0  0  0  0  0  0  0  0  0
  -25.3470  -31.5250   26.1640 C   0  0  0  0  0  1  0  0  0  0  0  0
  -27.0280  -30.3770   24.7220 C   0  0  0  0  0  1  0  0  0  0  0  0
  -27.5890  -32.5580   25.7540 C   0  0  0  0  0  1  0  0  0  0  0  0
  2  1  1  0
  3  6  1  0
  3  2  1  0
  4  1  1  0
  4  3  1  0
  4 47  1  0
  5  6  1  0
  5 46  1  0
  5  2  1  0
  7 15  1  0
  8 13  1  0
  9 10  1  0
  9  8  1  0
 10 11  1  0
 11 20  1  0
 11 12  1  0
 13  7  1  0
 13 12  1  0
 14  7  2  0
 15  6  1  0
 16 15  1  0
 17 18  2  0
 18 37  1  0
 19 18  1  0
 19 22  1  0
 20 17  1  0
 20 21  1  0
 21 19  2  0
 22 23  1  0
 23 24  2  0
 25 28  1  0
 25 24  1  0
 26 25  2  0
 27 26  1  0
 27 22  2  0
 28 29  1  0
 29 30  1  0
 30 31  2  0
 32 31  1  0
 32 36  1  0
 33 32  2  0
 34 29  2  0
 34 33  1  0
 35 34  1  0
 37 38  1  0
 38 41  1  0
 38 40  1  0
 39 37  2  0
 42 43  1  0
 42 17  1  0
 44 42  1  0
 45 46  1  0
 48 47  1  0
 49 60  2  0
 49 75  1  0
 50 48  1  0
 50 55  1  0
 51 59  1  0
 51 61  1  0
 52 58  1  0
 52 54  1  0
 53 59  1  0
 54 55  2  0
 54 53  1  0
 56 50  2  0
 57 56  1  0
 57 52  2  0
 58 51  1  0
 59 49  1  0
 61 63  2  0
 62 61  1  0
 62 66  1  0
 64 62  1  0
 65 74  2  0
 65 70  1  0
 66 70  1  0
 67 66  1  0
 68 69  1  0
 68 67  1  0
 69 65  1  0
 70 71  2  0
 71 72  1  0
 73 72  2  0
 74 73  1  0
 75 76  1  0
 75 85  1  0
 76 79  1  0
 77 81  1  0
 77 76  1  0
 78 77  2  0
 80 81  1  0
 83 81  1  0
 83 84  1  0
 83 82  1  0
 85 88  1  1
 85 86  1  0
 87 85  1  0
M  ISO  4   7 100  15 100  47 101  48 101
M  END
>  <TORSDO>  (69) 
F 18

>  <SCORE>  (69) 
-16.223

>  <name>  (69) 
68

>  <ligand_id>  (69) 
68

>  <original_smiles>  (69) 
[H]c1c([H])c([H])c2c(c1[H])C([H])([H])C([H])([H])C([H])([H])C2([H])N([H])C(=O)C1([H])N(C(=O)C([H])(N([H])C(=O)C([H])(N([H])C([H])([H])[H])C([H])([H])[H])C(C([H])([H])[H])(C([H])([H])[H])C([H])([H])[H])C([H])([H])c2c([H])c(OC([H])([H])C3([H])C([H])([H])C4([H])C([H])(C([H])([H])C([H])([H])[H])C([H])(N([H])C(=O)N5C([H])([H])C([H])([H])C([H])([H])C([H])(n6nc(-c7c([H])c([H])c(Oc8c([H])c([H])c(F)c([H])c8F)c([H])c7[H])c(C(=O)N([H])[H])c6N([H])[H])C5([H])[H])C34[H])c([H])c([H])c2C1([H])[H]

>  <smiles>  (69) 
[H]c1c([H])c([H])c2c(c1[H])C([H])([H])C([H])([H])C([H])([H])C2([H])N([H])C(=O)C1([H])N(C(=O)C([H])(N([H])C(=O)C([H])(N([H])C([H])([H])[H])C([H])([H])[H])C(C([H])([H])[H])(C([H])([H])[H])C([H])([H])[H])C([H])([H])c2c([H])c(OC([H])([H])C3([H])C([H])([H])C4([H])C([H])(C([H])([H])C([H])([H])[H])C([H])(N([H])C(=O)N5C([H])([H])C([H])([H])C([H])([H])C([H])(n6nc(-c7c([H])c([H])c(Oc8c([H])c([H])c(F)c([H])c8F)c([H])c7[H])c(C(=O)N([H])[H])c6N([H])[H])C5([H])[H])C34[H])c([H])c([H])c2C1([H])[H]

$$$$
69:0:0
     RDKit          3D

 90 99  0  0  1  0  0  0  0  0999 V2000
  -28.7250  -21.8330   20.3970 C   0  0  0  0  0  0  0  0  0  0  0  0
  -27.5450  -21.5590   20.6330 O   0  0  0  0  0  0  0  0  0  0  0  0
  -30.5900  -15.0390   20.3250 C   0  0  0  0  0  0  0  0  0  0  0  0
  -30.3970  -12.6990   19.3650 C   0  0  0  0  0  2  0  0  0  0  0  0
  -29.4490  -12.6310   18.1480 C   0  0  0  0  0  2  0  0  0  0  0  0
  -27.9980  -12.3950   18.6050 C   0  0  0  0  0  2  0  0  0  0  0  0
  -27.5940  -13.3220   19.7770 C   0  0  0  0  0  3  0  0  0  0  0  0
  -28.6710  -13.3970   20.8830 C   0  0  0  0  0  2  0  0  0  0  0  0
  -29.9300  -13.8100   20.2430 N   0  0  0  0  0  0  0  0  0  0  0  0
  -31.8100  -15.0220   20.1270 O   0  0  0  0  0  0  0  0  0  0  0  0
  -30.4040  -19.3100   17.9960 C   0  0  0  0  0  2  0  0  0  0  0  0
  -30.4070  -20.6270   18.8050 C   0  0  0  0  0  2  0  0  0  0  0  0
  -29.0650  -18.5490   18.0600 C   0  0  0  0  0  2  0  0  0  0  0  0
  -28.6580  -16.6570   19.8070 C   0  0  0  0  0  2  0  0  0  0  0  0
  -30.4560  -17.7060   20.8340 C   0  0  0  0  0  2  0  0  0  0  0  0
  -29.7720  -20.5500   20.2250 C   0  0  0  0  0  3  0  0  0  0  0  0
  -28.5790  -18.1980   19.4900 C   0  0  0  0  0  3  0  0  0  0  0  0
  -29.3930  -18.9350   20.5640 C   0  0  0  0  0  3  0  0  0  0  0  0
  -29.9180  -16.2980   20.4780 N   0  0  0  0  0  0  0  0  0  0  0  0
  -25.2290  -13.9020   20.5620 C   0  0  0  0  0  0  0  0  0  0  0  0
  -24.1690  -13.1240   20.9340 C   0  0  0  0  0  0  0  0  0  0  0  0
  -24.6300  -11.7730   20.8760 C   0  0  0  0  0  0  0  0  0  0  0  0
  -26.2670  -13.0240   20.2980 N   0  0  0  0  0  0  0  0  0  0  0  0
  -25.9180  -11.7380   20.5530 N   0  0  0  0  0  0  0  0  0  0  0  0
  -23.9040  -10.5120   21.0530 C   0  0  0  0  0  0  0  0  0  0  0  0
  -24.3300   -9.5420   21.9850 C   0  0  0  0  0  3  0  0  0  0  0  0
  -23.6060   -8.3420   22.1500 C   0  0  0  0  0  3  0  0  0  0  0  0
  -22.4410   -8.1050   21.3830 C   0  0  0  0  0  0  0  0  0  0  0  0
  -22.0350   -9.0640   20.4380 C   0  0  0  0  0  3  0  0  0  0  0  0
  -22.7600  -10.2550   20.2710 C   0  0  0  0  0  3  0  0  0  0  0  0
  -21.6850   -6.9600   21.4600 O   0  0  0  0  0  0  0  0  0  0  0  0
  -21.6030   -6.2300   22.6190 C   0  0  0  0  0  0  0  0  0  0  0  0
  -21.0970   -6.7840   23.8160 C   0  0  0  0  0  3  0  0  0  0  0  0
  -20.9650   -5.9780   24.9630 C   0  0  0  0  0  3  0  0  0  0  0  0
  -21.3270   -4.6180   24.9160 C   0  0  0  0  0  0  0  0  0  0  0  0
  -21.8260   -4.0630   23.7240 C   0  0  0  0  0  3  0  0  0  0  0  0
  -21.9600   -4.8670   22.5790 C   0  0  0  0  0  0  0  0  0  0  0  0
  -22.4230   -4.3230   21.4270 F   0  0  0  0  0  0  0  0  0  0  0  0
  -21.1930   -3.8420   26.0170 F   0  0  0  0  0  0  0  0  0  0  0  0
  -22.7750  -13.6010   21.2270 C   0  0  0  0  0  0  0  0  0  0  0  0
  -22.0580  -12.8970   22.0930 N   0  0  0  0  0  0  0  0  0  0  0  0
  -22.3340  -14.6350   20.7230 O   0  0  0  0  0  0  0  0  0  0  0  0
  -22.4310  -12.0640   22.5250 H   0  0  0  0  0  0  0  0  0  0  0  0
  -21.1220  -13.1940   22.3290 H   0  0  0  0  0  0  0  0  0  0  0  0
  -25.3830  -15.2740   20.3960 N   0  0  0  0  0  0  0  0  0  0  0  0
  -24.6110  -15.9200   20.5130 H   0  0  0  0  0  0  0  0  0  0  0  0
  -26.2130  -15.7120   20.0200 H   0  0  0  0  0  0  0  0  0  0  0  0
  -29.1140  -23.4410   20.2830 C   0  0  0  0  0  3  0  0  0  0  0  0
  -28.0070  -24.7140   20.2010 C   0  0  0  0  0  3  0  0  0  0  0  0
  -28.2770  -26.2520   20.2390 O   0  0  0  0  0  0  0  0  0  0  0  0
  -24.6360  -31.9180   23.2460 C   0  0  0  0  0  0  0  0  0  0  0  0
  -27.2100  -27.2230   20.1910 C   0  0  0  0  0  0  0  0  0  0  0  0
  -23.4350  -30.5430   21.5920 C   0  0  0  0  0  3  0  0  0  0  0  0
  -24.8820  -28.9710   20.1630 C   0  0  0  0  0  0  0  0  0  0  0  0
  -25.9910  -30.7990   21.4370 C   0  0  0  0  0  2  0  0  0  0  0  0
  -26.0610  -29.4130   20.7750 C   0  0  0  0  0  0  0  0  0  0  0  0
  -27.2250  -28.5560   20.7700 C   0  0  0  0  0  3  0  0  0  0  0  0
  -25.9990  -26.8800   19.5470 C   0  0  0  0  0  3  0  0  0  0  0  0
  -24.8630  -27.7180   19.5330 C   0  0  0  0  0  3  0  0  0  0  0  0
  -23.6590  -29.8740   20.2090 C   0  0  0  0  0  2  0  0  0  0  0  0
  -24.7070  -31.1080   22.1460 N   0  0  0  0  0  0  0  0  0  0  0  0
  -23.5490  -32.2020   23.7730 O   0  0  0  0  0  0  0  0  0  0  0  0
  -22.7490  -29.5310   22.5440 C   0  0  0  0  0  0  0  0  0  0  0  0
  -21.4210  -29.3630   22.4080 N   0  0  0  0  0  0  0  0  0  0  0  0
  -23.4140  -28.8970   23.3670 O   0  0  0  0  0  0  0  0  0  0  0  0
  -20.9400  -29.9260   21.7200 H   0  0  0  0  0  0  0  0  0  0  0  0
  -18.0310  -28.1930   22.9070 C   0  0  0  0  0  0  0  0  0  0  0  0
  -20.5930  -28.4250   23.1690 C   0  0  0  0  0  3  0  0  0  0  0  0
  -20.6770  -26.9990   22.5770 C   0  0  0  0  0  2  0  0  0  0  0  0
  -19.5680  -26.7020   21.5610 C   0  0  0  0  0  2  0  0  0  0  0  0
  -18.1900  -26.8510   22.2110 C   0  0  0  0  0  2  0  0  0  0  0  0
  -19.1590  -28.9380   23.3430 C   0  0  0  0  0  0  0  0  0  0  0  0
  -18.9510  -30.1950   23.9530 C   0  0  0  0  0  3  0  0  0  0  0  0
  -17.6510  -30.7030   24.1340 C   0  0  0  0  0  3  0  0  0  0  0  0
  -16.5390  -29.9540   23.7130 C   0  0  0  0  0  3  0  0  0  0  0  0
  -16.7300  -28.7010   23.1040 C   0  0  0  0  0  3  0  0  0  0  0  0
  -25.9140  -32.5450   23.8840 C   0  0  0  0  0  3  0  0  0  0  0  0
  -25.6060  -33.9430   24.2230 N   0  0  0  0  0  0  0  0  0  0  0  0
  -25.9200  -35.0010   23.4630 C   0  0  0  0  0  0  0  0  0  0  0  0
  -26.5650  -34.9020   22.4150 O   0  0  0  0  0  0  0  0  0  0  0  0
  -25.0320  -34.0910   25.0390 H   0  0  0  0  0  0  0  0  0  0  0  0
  -24.1730  -36.7900   23.1750 C   0  0  0  0  0  1  0  0  0  0  0  0
  -25.4450  -36.3880   23.9390 C   0  0  0  0  0  3  0  0  0  0  0  0
  -27.5990  -37.2910   24.6980 C   0  0  0  0  0  1  0  0  0  0  0  0
  -26.4690  -37.4450   23.7860 N   0  0  0  0  0  0  0  0  0  0  0  0
  -26.0640  -38.3650   23.9350 H   0  0  0  0  0  0  0  0  0  0  0  0
  -26.4130  -31.7670   25.1640 C   0  0  1  0  0  0  0  0  0  0  0  0
  -25.3080  -31.5320   26.2220 C   0  0  0  0  0  1  0  0  0  0  0  0
  -26.9940  -30.3880   24.7770 C   0  0  0  0  0  1  0  0  0  0  0  0
  -27.5590  -32.5550   25.8390 C   0  0  0  0  0  1  0  0  0  0  0  0
  1  2  2  0
  3 19  1  0
  4  9  1  0
  5  6  1  0
  5  4  1  0
  7  6  1  0
  7 23  1  0
  7  8  1  0
  9  3  1  0
  9  8  1  0
 10  3  2  0
 11 13  1  0
 11 12  1  0
 12 16  1  0
 14 19  1  0
 16  1  1  0
 16 18  1  0
 17 13  1  0
 17 14  1  0
 17 18  1  0
 18 15  1  0
 19 15  1  0
 20 21  2  0
 21 40  1  0
 22 21  1  0
 22 25  1  0
 23 24  1  0
 23 20  1  0
 24 22  2  0
 25 26  1  0
 26 27  2  0
 28 31  1  0
 28 27  1  0
 29 28  2  0
 30 29  1  0
 30 25  2  0
 31 32  1  0
 32 33  1  0
 33 34  2  0
 35 34  1  0
 35 39  1  0
 36 35  2  0
 37 32  2  0
 37 36  1  0
 38 37  1  0
 40 41  1  0
 41 44  1  0
 41 43  1  0
 42 40  2  0
 45 46  1  0
 45 20  1  0
 47 45  1  0
 48  1  1  0
 49 50  1  0
 49 48  2  0
 51 62  2  0
 52 50  1  0
 52 57  1  0
 53 61  1  0
 53 63  1  0
 54 60  1  0
 54 56  1  0
 55 61  1  0
 56 55  1  0
 57 56  2  0
 58 52  2  0
 59 58  1  0
 59 54  2  0
 60 53  1  0
 61 51  1  0
 63 65  2  0
 64 63  1  0
 66 64  1  0
 67 76  2  0
 67 72  1  0
 68 64  1  0
 68 72  1  0
 69 68  1  0
 70 71  1  0
 70 69  1  0
 71 67  1  0
 72 73  2  0
 73 74  1  0
 75 74  2  0
 76 75  1  0
 77 51  1  0
 77 78  1  0
 77 87  1  0
 78 81  1  0
 79 83  1  0
 79 78  1  0
 80 79  2  0
 83 82  1  0
 85 86  1  0
 85 83  1  0
 85 84  1  0
 87 90  1  1
 87 88  1  0
 89 87  1  0
M  ISO  4   3 100  19 100  49 101  50 101
M  END
>  <TORSDO>  (70) 
F 18

>  <SCORE>  (70) 
-14.779

>  <name>  (70) 
69

>  <ligand_id>  (70) 
69

>  <original_smiles>  (70) 
[H]c1c([H])c([H])c2c(c1[H])C([H])([H])C([H])([H])C([H])([H])C2([H])N([H])C(=O)C1([H])N(C(=O)C([H])(N([H])C(=O)C([H])(N([H])C([H])([H])[H])C([H])([H])[H])C(C([H])([H])[H])(C([H])([H])[H])C([H])([H])[H])C([H])([H])c2c([H])c(OC([H])([H])C([H])([H])C(=O)C3([H])C([H])([H])C([H])([H])C([H])([H])C4([H])C([H])([H])N(C(=O)N5C([H])([H])C([H])([H])C([H])([H])C([H])(n6nc(-c7c([H])c([H])c(Oc8c([H])c([H])c(F)c([H])c8F)c([H])c7[H])c(C(=O)N([H])[H])c6N([H])[H])C5([H])[H])C([H])([H])C34[H])c([H])c([H])c2C1([H])[H]

>  <smiles>  (70) 
[H]c1c([H])c([H])c2c(c1[H])C([H])([H])C([H])([H])C([H])([H])C2([H])N([H])C(=O)C1([H])N(C(=O)C([H])(N([H])C(=O)C([H])(N([H])C([H])([H])[H])C([H])([H])[H])C(C([H])([H])[H])(C([H])([H])[H])C([H])([H])[H])C([H])([H])c2c([H])c(OC([H])([H])C([H])([H])C(=O)C3([H])C([H])([H])C([H])([H])C([H])([H])C4([H])C([H])([H])N(C(=O)N5C([H])([H])C([H])([H])C([H])([H])C([H])(n6nc(-c7c([H])c([H])c(Oc8c([H])c([H])c(F)c([H])c8F)c([H])c7[H])c(C(=O)N([H])[H])c6N([H])[H])C5([H])[H])C([H])([H])C34[H])c([H])c([H])c2C1([H])[H]

$$$$
70:0:0
     RDKit          3D

 94103  0  0  1  0  0  0  0  0999 V2000
  -30.6850  -22.4610   19.7620 C   0  0  0  0  0  2  0  0  0  0  0  0
  -28.9370  -22.4730   21.5090 C   0  0  0  0  0  2  0  0  0  0  0  0
  -31.5860  -21.5260   20.5940 C   0  0  0  0  0  2  0  0  0  0  0  0
  -29.7500  -21.4890   22.3780 C   0  0  0  0  0  2  0  0  0  0  0  0
  -31.8270  -20.1230   22.6830 C   0  0  0  0  0  2  0  0  0  0  0  0
  -32.3570  -18.8200   22.1130 C   0  0  0  0  0  2  0  0  0  0  0  0
  -30.3000  -19.3170   20.9810 C   0  0  0  0  0  2  0  0  0  0  0  0
  -29.8780  -23.3830   20.6950 C   0  0  0  0  0  3  0  0  0  0  0  0
  -30.8270  -20.6420   21.6320 C   0  0  2  0  0  0  0  0  0  0  0  0
  -31.1300  -18.0990   21.5250 C   0  0  2  0  0  0  0  0  0  0  0  0
  -31.0880  -16.4130   23.5450 C   0  0  0  0  0  1  0  0  0  0  0  0
  -30.3040  -17.3750   22.6310 C   0  0  0  0  0  2  0  0  0  0  0  0
  -29.1870  -24.5730   19.9700 C   0  0  0  0  0  2  0  0  0  0  0  0
  -28.7070  -25.6940   20.9290 C   0  0  0  0  0  2  0  0  0  0  0  0
  -28.7920  -27.0040   20.3450 O   0  0  0  0  0  0  0  0  0  0  0  0
  -24.7040  -32.0270   23.3330 C   0  0  0  0  0  0  0  0  0  0  0  0
  -27.6110  -27.7100   20.3240 C   0  0  0  0  0  0  0  0  0  0  0  0
  -23.6130  -30.6090   21.6230 C   0  0  0  0  0  3  0  0  0  0  0  0
  -25.1710  -29.1320   20.2470 C   0  0  0  0  0  0  0  0  0  0  0  0
  -26.1310  -31.0510   21.5350 C   0  0  0  0  0  2  0  0  0  0  0  0
  -26.2870  -29.6890   20.8870 C   0  0  0  0  0  0  0  0  0  0  0  0
  -27.5130  -28.9860   20.9220 C   0  0  0  0  0  3  0  0  0  0  0  0
  -26.4820  -27.1630   19.6800 C   0  0  0  0  0  3  0  0  0  0  0  0
  -25.2610  -27.8650   19.6410 C   0  0  0  0  0  3  0  0  0  0  0  0
  -23.9030  -29.9530   20.2460 C   0  0  0  0  0  2  0  0  0  0  0  0
  -24.8310  -31.2460   22.2220 N   0  0  0  0  0  0  0  0  0  0  0  0
  -23.5940  -32.2570   23.8310 O   0  0  0  0  0  0  0  0  0  0  0  0
  -22.9530  -29.5570   22.5450 C   0  0  0  0  0  0  0  0  0  0  0  0
  -21.6370  -29.3500   22.3750 N   0  0  0  0  0  0  0  0  0  0  0  0
  -23.6250  -28.9290   23.3680 O   0  0  0  0  0  0  0  0  0  0  0  0
  -21.1570  -29.9090   21.6830 H   0  0  0  0  0  0  0  0  0  0  0  0
  -18.2730  -28.0890   22.7550 C   0  0  0  0  0  0  0  0  0  0  0  0
  -20.8180  -28.3810   23.1020 C   0  0  0  0  0  3  0  0  0  0  0  0
  -20.9620  -26.9650   22.4960 C   0  0  0  0  0  2  0  0  0  0  0  0
  -19.8930  -26.6490   21.4440 C   0  0  0  0  0  2  0  0  0  0  0  0
  -18.4910  -26.7590   22.0520 C   0  0  0  0  0  2  0  0  0  0  0  0
  -19.3670  -28.8570   23.2320 C   0  0  0  0  0  0  0  0  0  0  0  0
  -19.1120  -30.1040   23.8450 C   0  0  0  0  0  3  0  0  0  0  0  0
  -17.7960  -30.5820   23.9860 C   0  0  0  0  0  3  0  0  0  0  0  0
  -16.7160  -29.8090   23.5260 C   0  0  0  0  0  3  0  0  0  0  0  0
  -16.9530  -28.5650   22.9160 C   0  0  0  0  0  3  0  0  0  0  0  0
  -25.9430  -32.6900   24.0140 C   0  0  0  0  0  3  0  0  0  0  0  0
  -26.4320  -31.9200   25.3010 C   0  0  1  0  0  0  0  0  0  0  0  0
  -25.3020  -31.6190   26.3130 C   0  0  0  0  0  1  0  0  0  0  0  0
  -27.0920  -30.5760   24.9130 C   0  0  0  0  0  1  0  0  0  0  0  0
  -27.5150  -32.7510   26.0300 C   0  0  0  0  0  1  0  0  0  0  0  0
  -25.5770  -34.0740   24.3450 N   0  0  0  0  0  0  0  0  0  0  0  0
  -25.8980  -35.1430   23.6060 C   0  0  0  0  0  0  0  0  0  0  0  0
  -26.6040  -35.0720   22.5960 O   0  0  0  0  0  0  0  0  0  0  0  0
  -24.9540  -34.2020   25.1300 H   0  0  0  0  0  0  0  0  0  0  0  0
  -24.1100  -36.8660   23.2200 C   0  0  0  0  0  1  0  0  0  0  0  0
  -25.3490  -36.5090   24.0560 C   0  0  0  0  0  3  0  0  0  0  0  0
  -27.4290  -37.4720   24.9380 C   0  0  0  0  0  1  0  0  0  0  0  0
  -26.3430  -37.6020   23.9700 N   0  0  0  0  0  0  0  0  0  0  0  0
  -25.8970  -38.5040   24.1120 H   0  0  0  0  0  0  0  0  0  0  0  0
  -31.6330  -17.1190   20.4090 C   0  0  0  0  0  2  0  0  0  0  0  0
  -31.4970  -14.7660   19.6650 C   0  0  0  0  0  0  0  0  0  0  0  0
  -31.0760  -12.5500   18.6740 C   0  0  0  0  0  2  0  0  0  0  0  0
  -30.0760  -12.6760   17.5080 C   0  0  0  0  0  2  0  0  0  0  0  0
  -28.6250  -12.6090   18.0240 C   0  0  0  0  0  2  0  0  0  0  0  0
  -28.3700  -13.5380   19.2400 C   0  0  0  0  0  3  0  0  0  0  0  0
  -29.4790  -13.3840   20.3050 C   0  0  0  0  0  2  0  0  0  0  0  0
  -30.7760  -13.6140   19.6470 N   0  0  0  0  0  0  0  0  0  0  0  0
  -32.5700  -14.8900   19.0690 O   0  0  0  0  0  0  0  0  0  0  0  0
  -30.9530  -15.8190   20.2970 N   0  0  0  0  0  0  0  0  0  0  0  0
  -30.0770  -15.6940   20.7800 H   0  0  0  0  0  0  0  0  0  0  0  0
  -26.0440  -14.2330   20.0970 C   0  0  0  0  0  0  0  0  0  0  0  0
  -24.9760  -13.5010   20.5420 C   0  0  0  0  0  0  0  0  0  0  0  0
  -25.3880  -12.1330   20.4960 C   0  0  0  0  0  0  0  0  0  0  0  0
  -27.0410  -13.3140   19.8080 N   0  0  0  0  0  0  0  0  0  0  0  0
  -26.6540  -12.0460   20.1060 N   0  0  0  0  0  0  0  0  0  0  0  0
  -24.6330  -10.8990   20.7440 C   0  0  0  0  0  0  0  0  0  0  0  0
  -25.0470   -9.9620   21.7170 C   0  0  0  0  0  3  0  0  0  0  0  0
  -24.2930   -8.7910   21.9500 C   0  0  0  0  0  3  0  0  0  0  0  0
  -23.1110   -8.5490   21.2100 C   0  0  0  0  0  0  0  0  0  0  0  0
  -22.7180   -9.4720   20.2250 C   0  0  0  0  0  3  0  0  0  0  0  0
  -23.4720  -10.6340   19.9900 C   0  0  0  0  0  3  0  0  0  0  0  0
  -22.3300   -7.4270   21.3500 O   0  0  0  0  0  0  0  0  0  0  0  0
  -22.1200   -6.8440   22.5750 C   0  0  0  0  0  0  0  0  0  0  0  0
  -21.5610   -7.5620   23.6560 C   0  0  0  0  0  3  0  0  0  0  0  0
  -21.2980   -6.9070   24.8750 C   0  0  0  0  0  3  0  0  0  0  0  0
  -21.5810   -5.5340   25.0140 C   0  0  0  0  0  0  0  0  0  0  0  0
  -22.1350   -4.8170   23.9370 C   0  0  0  0  0  3  0  0  0  0  0  0
  -22.3990   -5.4710   22.7220 C   0  0  0  0  0  0  0  0  0  0  0  0
  -22.9100   -4.7700   21.6800 F   0  0  0  0  0  0  0  0  0  0  0  0
  -21.3230   -4.9030   26.1820 F   0  0  0  0  0  0  0  0  0  0  0  0
  -23.6160  -14.0280   20.8970 C   0  0  0  0  0  0  0  0  0  0  0  0
  -22.9430  -13.3960   21.8530 N   0  0  0  0  0  0  0  0  0  0  0  0
  -23.1590  -15.0360   20.3580 O   0  0  0  0  0  0  0  0  0  0  0  0
  -23.3270  -12.5830   22.3110 H   0  0  0  0  0  0  0  0  0  0  0  0
  -22.0320  -13.7310   22.1300 H   0  0  0  0  0  0  0  0  0  0  0  0
  -26.2460  -15.5950   19.8920 N   0  0  0  0  0  0  0  0  0  0  0  0
  -25.5190  -16.2820   20.0600 H   0  0  0  0  0  0  0  0  0  0  0  0
  -27.0840  -15.9940   19.4880 H   0  0  0  0  0  0  0  0  0  0  0  0
  1  3  1  0
  1  8  1  0
  2  4  1  0
  6  5  1  0
  7 10  1  0
  9  7  1  6
  8 13  1  0
  8  2  1  0
  9  3  1  0
  9  4  1  0
  9  5  1  0
 10 56  1  6
 10  6  1  0
 10 12  1  0
 12 11  1  0
 13 14  1  0
 15 14  1  0
 16 27  2  0
 17 15  1  0
 17 22  1  0
 18 26  1  0
 18 28  1  0
 19 21  1  0
 20 26  1  0
 21 22  2  0
 21 20  1  0
 23 17  2  0
 24 23  1  0
 24 19  2  0
 25 19  1  0
 25 18  1  0
 26 16  1  0
 28 30  2  0
 29 28  1  0
 31 29  1  0
 32 41  2  0
 32 37  1  0
 33 29  1  0
 33 37  1  0
 34 33  1  0
 35 36  1  0
 35 34  1  0
 36 32  1  0
 37 38  2  0
 38 39  1  0
 40 39  2  0
 41 40  1  0
 42 16  1  0
 42 47  1  0
 42 43  1  0
 43 46  1  1
 43 44  1  0
 45 43  1  0
 47 50  1  0
 48 52  1  0
 48 47  1  0
 49 48  2  0
 52 51  1  0
 54 52  1  0
 54 55  1  0
 54 53  1  0
 57 65  1  0
 58 63  1  0
 59 60  1  0
 59 58  1  0
 61 60  1  0
 61 70  1  0
 61 62  1  0
 63 57  1  0
 63 62  1  0
 64 57  2  0
 65 56  1  0
 65 66  1  0
 67 68  2  0
 68 87  1  0
 69 68  1  0
 69 72  1  0
 70 67  1  0
 70 71  1  0
 71 69  2  0
 72 73  1  0
 73 74  2  0
 75 78  1  0
 75 74  1  0
 76 75  2  0
 77 76  1  0
 77 72  2  0
 78 79  1  0
 79 84  2  0
 79 80  1  0
 80 81  2  0
 81 82  1  0
 82 86  1  0
 83 82  2  0
 84 83  1  0
 85 84  1  0
 87 88  1  0
 88 91  1  0
 88 90  1  0
 89 87  2  0
 92 93  1  0
 92 67  1  0
 94 92  1  0
M  ISO  4  14 101  15 101  57 100  65 100
M  END
>  <TORSDO>  (71) 
F 20

>  <SCORE>  (71) 
-10.734

>  <name>  (71) 
70

>  <ligand_id>  (71) 
70

>  <original_smiles>  (71) 
[H]c1c([H])c([H])c2c(c1[H])C([H])([H])C([H])([H])C([H])([H])C2([H])N([H])C(=O)C1([H])N(C(=O)C([H])(N([H])C(=O)C([H])(N([H])C([H])([H])[H])C([H])([H])[H])C(C([H])([H])[H])(C([H])([H])[H])C([H])([H])[H])C([H])([H])c2c([H])c(OC([H])([H])C([H])([H])C3([H])C([H])([H])C([H])([H])C4(C([H])([H])C3([H])[H])C([H])([H])C([H])([H])C(C([H])([H])N([H])C(=O)N3C([H])([H])C([H])([H])C([H])([H])C([H])(n5nc(-c6c([H])c([H])c(Oc7c([H])c([H])c(F)c([H])c7F)c([H])c6[H])c(C(=O)N([H])[H])c5N([H])[H])C3([H])[H])(C([H])([H])C([H])([H])[H])C4([H])[H])c([H])c([H])c2C1([H])[H]

>  <smiles>  (71) 
[H]c1c([H])c([H])c2c(c1[H])C([H])([H])C([H])([H])C([H])([H])C2([H])N([H])C(=O)C1([H])N(C(=O)C([H])(N([H])C(=O)C([H])(N([H])C([H])([H])[H])C([H])([H])[H])C(C([H])([H])[H])(C([H])([H])[H])C([H])([H])[H])C([H])([H])c2c([H])c(OC([H])([H])C([H])([H])C3([H])C([H])([H])C([H])([H])C4(C([H])([H])C3([H])[H])C([H])([H])C([H])([H])C(C([H])([H])N([H])C(=O)N3C([H])([H])C([H])([H])C([H])([H])C([H])(n5nc(-c6c([H])c([H])c(Oc7c([H])c([H])c(F)c([H])c7F)c([H])c6[H])c(C(=O)N([H])[H])c5N([H])[H])C3([H])[H])(C([H])([H])C([H])([H])[H])C4([H])[H])c([H])c([H])c2C1([H])[H]

$$$$
71:0:0
     RDKit          3D

 98106  0  0  1  0  0  0  0  0999 V2000
  -30.0210  -20.6250   18.9200 C   0  0  0  0  0  3  0  0  0  0  0  0
  -30.1830  -19.3060   19.4330 C   0  0  0  0  0  3  0  0  0  0  0  0
  -28.6350  -19.8370   21.1850 C   0  0  0  0  0  3  0  0  0  0  0  0
  -29.1940  -21.6170   19.5280 C   0  0  0  0  0  0  0  0  0  0  0  0
  -29.5160  -18.8820   20.6060 C   0  0  0  0  0  0  0  0  0  0  0  0
  -28.4580  -21.1650   20.6720 C   0  0  0  0  0  0  0  0  0  0  0  0
  -29.1130  -22.9970   18.8210 C   0  0  0  0  0  0  0  0  0  0  0  0
  -29.4110  -23.0670   17.6230 O   0  0  0  0  0  0  0  0  0  0  0  0
  -28.7290  -24.3640   19.5160 C   0  0  0  0  0  3  0  0  0  0  0  0
  -28.7740  -25.6510   18.5720 C   0  0  0  0  0  3  0  0  0  0  0  0
  -28.6330  -27.0120   19.1260 O   0  0  0  0  0  0  0  0  0  0  0  0
  -24.6000  -31.6510   22.8510 C   0  0  0  0  0  0  0  0  0  0  0  0
  -27.4100  -27.6880   19.2070 C   0  0  0  0  0  0  0  0  0  0  0  0
  -23.4220  -30.3130   21.1400 C   0  0  0  0  0  3  0  0  0  0  0  0
  -24.9100  -29.0460   19.4910 C   0  0  0  0  0  0  0  0  0  0  0  0
  -25.9050  -30.8840   20.8570 C   0  0  0  0  0  2  0  0  0  0  0  0
  -26.0610  -29.5880   20.0720 C   0  0  0  0  0  0  0  0  0  0  0  0
  -27.3090  -28.9170   19.9260 C   0  0  0  0  0  3  0  0  0  0  0  0
  -26.2250  -27.1810   18.6270 C   0  0  0  0  0  3  0  0  0  0  0  0
  -24.9920  -27.8470   18.7640 C   0  0  0  0  0  3  0  0  0  0  0  0
  -23.6070  -29.7940   19.6890 C   0  0  0  0  0  2  0  0  0  0  0  0
  -24.6620  -30.9630   21.6740 N   0  0  0  0  0  0  0  0  0  0  0  0
  -23.5310  -31.7750   23.4670 O   0  0  0  0  0  0  0  0  0  0  0  0
  -22.9090  -29.1530   22.0250 C   0  0  0  0  0  0  0  0  0  0  0  0
  -21.5960  -28.8790   21.9580 N   0  0  0  0  0  0  0  0  0  0  0  0
  -23.6880  -28.5070   22.7300 O   0  0  0  0  0  0  0  0  0  0  0  0
  -21.0210  -29.4610   21.3650 H   0  0  0  0  0  0  0  0  0  0  0  0
  -18.3630  -27.3570   22.5150 C   0  0  0  0  0  0  0  0  0  0  0  0
  -20.9050  -27.8030   22.6710 C   0  0  0  0  0  3  0  0  0  0  0  0
  -21.0820  -26.4490   21.9440 C   0  0  0  0  0  2  0  0  0  0  0  0
  -19.9470  -26.1370   20.9640 C   0  0  0  0  0  2  0  0  0  0  0  0
  -18.6020  -26.1000   21.6950 C   0  0  0  0  0  2  0  0  0  0  0  0
  -19.4430  -28.1650   22.9600 C   0  0  0  0  0  0  0  0  0  0  0  0
  -19.1640  -29.3400   23.6900 C   0  0  0  0  0  3  0  0  0  0  0  0
  -17.8370  -29.7090   23.9790 C   0  0  0  0  0  3  0  0  0  0  0  0
  -16.7720  -28.8980   23.5490 C   0  0  0  0  0  3  0  0  0  0  0  0
  -17.0360  -27.7230   22.8230 C   0  0  0  0  0  3  0  0  0  0  0  0
  -25.8590  -32.3320   23.4690 C   0  0  0  0  0  3  0  0  0  0  0  0
  -26.5180  -31.4860   24.6280 C   0  0  1  0  0  0  0  0  0  0  0  0
  -25.5200  -31.0510   25.7270 C   0  0  0  0  0  1  0  0  0  0  0  0
  -27.1830  -30.2090   24.0640 C   0  0  0  0  0  1  0  0  0  0  0  0
  -27.6410  -32.3070   25.3030 C   0  0  0  0  0  1  0  0  0  0  0  0
  -25.4520  -33.6550   23.9620 N   0  0  0  0  0  0  0  0  0  0  0  0
  -25.6730  -34.8090   23.3190 C   0  0  0  0  0  0  0  0  0  0  0  0
  -26.3120  -34.8750   22.2650 O   0  0  0  0  0  0  0  0  0  0  0  0
  -24.8750  -33.6710   24.7900 H   0  0  0  0  0  0  0  0  0  0  0  0
  -23.7920  -36.4770   23.2200 C   0  0  0  0  0  1  0  0  0  0  0  0
  -25.0940  -36.0940   23.9410 C   0  0  0  0  0  3  0  0  0  0  0  0
  -27.1830  -37.0630   24.7930 C   0  0  0  0  0  1  0  0  0  0  0  0
  -26.0310  -37.2370   23.9120 N   0  0  0  0  0  0  0  0  0  0  0  0
  -25.5580  -38.0980   24.1730 H   0  0  0  0  0  0  0  0  0  0  0  0
  -26.2650  -22.4370   20.4730 C   0  0  0  0  0  1  0  0  0  0  0  0
  -27.4400  -22.0490   21.3810 C   0  0  0  0  0  2  0  0  0  0  0  0
  -29.8930  -17.5500   21.3600 C   0  0  0  0  0  0  0  0  0  0  0  0
  -30.3350  -15.1610   20.3340 C   0  0  0  0  0  0  0  0  0  0  0  0
  -30.1880  -12.9450   19.2100 C   0  0  0  0  0  2  0  0  0  0  0  0
  -29.2080  -13.0460   18.0220 C   0  0  0  0  0  2  0  0  0  0  0  0
  -27.7600  -12.7960   18.4870 C   0  0  0  0  0  2  0  0  0  0  0  0
  -27.3870  -13.6120   19.7540 C   0  0  0  0  0  3  0  0  0  0  0  0
  -28.4840  -13.5070   20.8360 C   0  0  0  0  0  2  0  0  0  0  0  0
  -29.7480  -13.9280   20.2190 N   0  0  0  0  0  0  0  0  0  0  0  0
  -31.4820  -15.3490   19.9210 O   0  0  0  0  0  0  0  0  0  0  0  0
  -29.5500  -16.1900   20.7940 N   0  0  0  0  0  4  0  0  0  0  0  0
  -28.5960  -15.9140   20.9610 H   0  0  0  0  0  0  0  0  0  0  0  0
  -24.9930  -14.0620   20.5650 C   0  0  0  0  0  0  0  0  0  0  0  0
  -23.9790  -13.2240   20.9420 C   0  0  0  0  0  0  0  0  0  0  0  0
  -24.5090  -11.9000   20.8540 C   0  0  0  0  0  0  0  0  0  0  0  0
  -26.0720  -13.2460   20.2700 N   0  0  0  0  0  0  0  0  0  0  0  0
  -25.7880  -11.9370   20.5040 N   0  0  0  0  0  0  0  0  0  0  0  0
  -23.8520  -10.5970   21.0250 C   0  0  0  0  0  0  0  0  0  0  0  0
  -24.3330   -9.6440   21.9500 C   0  0  0  0  0  3  0  0  0  0  0  0
  -23.6760   -8.4050   22.1100 C   0  0  0  0  0  3  0  0  0  0  0  0
  -22.5230   -8.1090   21.3440 C   0  0  0  0  0  0  0  0  0  0  0  0
  -22.0610   -9.0530   20.4090 C   0  0  0  0  0  3  0  0  0  0  0  0
  -22.7200  -10.2830   20.2470 C   0  0  0  0  0  3  0  0  0  0  0  0
  -21.8340   -6.9230   21.4130 O   0  0  0  0  0  0  0  0  0  0  0  0
  -21.7870   -6.1850   22.5690 C   0  0  0  0  0  0  0  0  0  0  0  0
  -21.2900   -6.7210   23.7760 C   0  0  0  0  0  3  0  0  0  0  0  0
  -21.1940   -5.9060   24.9220 C   0  0  0  0  0  3  0  0  0  0  0  0
  -21.5850   -4.5560   24.8610 C   0  0  0  0  0  0  0  0  0  0  0  0
  -22.0740   -4.0180   23.6570 C   0  0  0  0  0  3  0  0  0  0  0  0
  -22.1720   -4.8290   22.5140 C   0  0  0  0  0  0  0  0  0  0  0  0
  -22.6240   -4.3010   21.3510 F   0  0  0  0  0  0  0  0  0  0  0  0
  -21.4850   -3.7700   25.9590 F   0  0  0  0  0  0  0  0  0  0  0  0
  -22.5680  -13.6220   21.2690 C   0  0  0  0  0  0  0  0  0  0  0  0
  -21.9060  -12.8710   22.1420 N   0  0  0  0  0  0  0  0  0  0  0  0
  -22.0600  -14.6330   20.7850 O   0  0  0  0  0  0  0  0  0  0  0  0
  -22.3290  -12.0560   22.5600 H   0  0  0  0  0  0  0  0  0  0  0  0
  -20.9610  -13.1190   22.4000 H   0  0  0  0  0  0  0  0  0  0  0  0
  -25.0830  -15.4440   20.4260 N   0  0  0  0  0  0  0  0  0  0  0  0
  -24.2840  -16.0520   20.5730 H   0  0  0  0  0  0  0  0  0  0  0  0
  -25.8880  -15.9350   20.0590 H   0  0  0  0  0  0  0  0  0  0  0  0
  -31.3280  -17.6370   21.9550 C   0  0  0  0  0  2  0  0  0  0  0  0
  -31.7370  -18.9930   22.5800 C   0  0  0  0  0  2  0  0  0  0  0  0
  -30.9440  -19.3520   23.7720 N   0  0  0  0  0  4  0  0  0  0  0  0
  -29.9800  -19.5190   23.5450 H   0  0  0  0  0  0  0  0  0  0  0  0
  -31.3090  -20.1970   24.1750 H   0  0  0  0  0  0  0  0  0  0  0  0
  -30.9970  -18.6350   24.4720 H   0  0  0  0  0  0  0  0  0  0  0  0
  1  2  2  0
  1  4  1  0
  2  5  1  0
  4  6  2  0
  5  3  2  0
  5 54  1  0
  6  3  1  0
  6 53  1  0
  7  9  1  0
  7  4  1  0
  8  7  2  0
 10 11  1  0
 10  9  2  0
 11 13  1  0
 12 23  2  0
 13 18  1  0
 14 22  1  0
 14 24  1  0
 15 21  1  0
 15 17  1  0
 16 22  1  0
 17 16  1  0
 18 17  2  0
 19 20  1  0
 19 13  2  0
 20 15  2  0
 21 14  1  0
 22 12  1  0
 24 26  2  0
 25 24  1  0
 27 25  1  0
 28 37  2  0
 28 33  1  0
 29 25  1  0
 29 33  1  0
 30 29  1  0
 31 32  1  0
 31 30  1  0
 32 28  1  0
 33 34  2  0
 34 35  1  0
 36 35  2  0
 37 36  1  0
 38 12  1  0
 38 43  1  0
 38 39  1  0
 39 42  1  1
 39 40  1  0
 41 39  1  0
 43 46  1  0
 44 48  1  0
 44 43  1  0
 45 44  2  0
 48 47  1  0
 50 48  1  0
 50 51  1  0
 50 49  1  0
 52 53  1  0
 54 93  1  0
 55 63  1  0
 56 61  1  0
 57 58  1  0
 57 56  1  0
 59 58  1  0
 59 68  1  0
 59 60  1  0
 61 55  1  0
 61 60  1  0
 62 55  2  0
 63 64  1  0
 63 54  2  0
 65 66  2  0
 66 85  1  0
 67 66  1  0
 67 70  1  0
 68 69  1  0
 68 65  1  0
 69 67  2  0
 70 71  1  0
 71 72  2  0
 73 76  1  0
 73 72  1  0
 74 73  2  0
 75 74  1  0
 75 70  2  0
 76 77  1  0
 77 78  1  0
 78 79  2  0
 80 79  1  0
 80 84  1  0
 81 80  2  0
 82 77  2  0
 82 81  1  0
 83 82  1  0
 85 86  1  0
 86 89  1  0
 86 88  1  0
 87 85  2  0
 90 65  1  0
 90 91  1  0
 92 90  1  0
 93 94  1  0
 94 95  1  0
 95 97  1  0
 95 98  1  0
 96 95  1  0
M  ISO  4  10 101  11 101  55 100  63 100
M  END
>  <TORSDO>  (72) 
F 24

>  <SCORE>  (72) 
-10.488

>  <name>  (72) 
71

>  <ligand_id>  (72) 
71

>  <original_smiles>  (72) 
[H]c1c([H])c([H])c2c(c1[H])C([H])([H])C([H])([H])C([H])([H])C2([H])N([H])C(=O)C1([H])N(C(=O)C([H])(N([H])C(=O)C([H])(N([H])C([H])([H])[H])C([H])([H])[H])C(C([H])([H])[H])(C([H])([H])[H])C([H])([H])[H])C([H])([H])c2c([H])c(OC([H])([H])C([H])([H])C(=O)c3c([H])c([H])c(C([H])(N([H])C(=O)N4C([H])([H])C([H])([H])C([H])([H])C([H])(n5nc(-c6c([H])c([H])c(Oc7c([H])c([H])c(F)c([H])c7F)c([H])c6[H])c(C(=O)N([H])[H])c5N([H])[H])C4([H])[H])C([H])([H])C([H])([H])[N+]([H])([H])[H])c([H])c3C([H])([H])C([H])([H])[H])c([H])c([H])c2C1([H])[H]

>  <smiles>  (72) 
[H]c1c([H])c([H])c2c(c1[H])C([H])([H])C([H])([H])C([H])([H])C2([H])N([H])C(=O)C1([H])N(C(=O)C([H])(N([H])C(=O)C([H])(N([H])C([H])([H])[H])C([H])([H])[H])C(C([H])([H])[H])(C([H])([H])[H])C([H])([H])[H])C([H])([H])c2c([H])c(OC([H])([H])C([H])([H])C(=O)c3c([H])c([H])c(C([H])(N([H])C(=O)N4C([H])([H])C([H])([H])C([H])([H])C([H])(n5nc(-c6c([H])c([H])c(Oc7c([H])c([H])c(F)c([H])c7F)c([H])c6[H])c(C(=O)N([H])[H])c5N([H])[H])C4([H])[H])C([H])([H])C([H])([H])[N+]([H])([H])[H])c([H])c3C([H])([H])C([H])([H])[H])c([H])c([H])c2C1([H])[H]

$$$$
72:0:0
     RDKit          3D

 93 92  0  0  1  0  0  0  0  0999 V2000
  -21.5060  -27.1190   19.3050 C   0  0  0  0  0  2  0  0  0  0  0  0
  -20.8800  -24.1690   20.7340 C   0  0  0  0  0  2  0  0  0  0  0  0
  -20.5170  -27.9000   20.7850 C   0  0  0  0  0  1  0  0  0  0  0  0
  -20.5660  -25.6510   20.5410 C   0  0  0  0  0  2  0  0  0  0  0  0
  -20.4750  -26.6050   20.0150 C   0  0  2  0  0  0  0  0  0  0  0  0
  -20.4360  -27.4270   18.5520 C   0  0  0  0  0  3  0  0  0  0  0  0
  -22.4510  -23.3890   20.4580 C   0  0  0  0  0  1  0  0  0  0  0  0
  -20.3180  -28.9640   18.2510 C   0  0  0  0  0  1  0  0  0  0  0  0
  -20.5160  -28.9650   22.4760 C   0  0  0  0  0  3  0  0  0  0  0  0
  -20.0630  -30.1130   22.4110 O   0  0  0  0  0  0  0  0  0  0  0  0
  -21.3140  -28.4760   24.1210 C   0  0  0  0  0  2  0  0  0  0  0  0
  -22.9430  -27.5170   24.6890 C   0  0  0  0  0  1  0  0  0  0  0  0
  -24.7740  -27.0890   24.2560 C   0  0  0  0  0  2  0  0  0  0  0  0
  -25.8330  -25.9610   23.5060 O   0  0  0  0  0  0  0  0  0  0  0  0
  -24.2350  -30.8980   22.9600 C   0  0  0  0  0  0  0  0  0  0  0  0
  -26.3330  -26.0260   22.1870 C   0  0  0  0  0  3  0  0  0  0  0  0
  -23.3180  -29.0840   21.3560 C   0  0  0  0  0  3  0  0  0  0  0  0
  -25.0580  -27.5300   20.2910 C   0  0  0  0  0  3  0  0  0  0  0  0
  -25.8070  -29.5280   21.6400 C   0  0  0  0  0  2  0  0  0  0  0  0
  -25.9900  -28.0950   21.1870 C   0  0  0  0  0  3  0  0  0  0  0  0
  -26.8500  -27.2800   21.9280 C   0  0  0  0  0  2  0  0  0  0  0  0
  -25.6570  -25.3230   21.1430 C   0  0  0  0  0  3  0  0  0  0  0  0
  -24.9830  -26.1080   20.1690 C   0  0  0  0  0  3  0  0  0  0  0  0
  -23.8530  -28.4480   20.0260 C   0  0  0  0  0  2  0  0  0  0  0  0
  -24.4300  -29.8520   22.0760 N   0  0  0  0  0  0  0  0  0  0  0  0
  -23.1280  -31.4320   23.0750 O   0  0  0  0  0  0  0  0  0  0  0  0
  -23.0020  -27.7120   22.0800 C   0  0  0  0  0  0  0  0  0  0  0  0
  -22.1870  -26.9280   22.8260 N   0  0  0  0  0  0  0  0  0  0  0  0
  -23.7630  -26.9780   22.3810 O   0  0  0  0  0  0  0  0  0  0  0  0
  -22.8160  -26.1500   22.9440 H   0  0  0  0  0  0  0  0  0  0  0  0
  -17.8520  -25.2460   22.3340 C   0  0  0  0  0  3  0  0  0  0  0  0
  -20.9110  -26.6200   23.6790 C   0  0  0  0  0  2  0  0  0  0  0  0
  -22.5040  -24.8730   23.1990 C   0  0  0  0  0 15  0  0  0  0  0  0
  -20.9550  -22.5600   22.4130 C   0  0  0  0  0 15  0  0  0  0  0  0
  -18.5870  -23.2490   22.3330 C   0  0  0  0  0 15  0  0  0  0  0  0
  -18.6620  -26.5970   23.0030 C   0  0  0  0  0  3  0  0  0  0  0  0
  -17.8510  -27.8270   22.5690 C   0  0  0  0  0  3  0  0  0  0  0  0
  -16.8410  -28.0200   21.5460 C   0  0  0  0  0  3  0  0  0  0  0  0
  -16.2610  -26.8940   20.9630 C   0  0  0  0  0  3  0  0  0  0  0  0
  -16.7420  -25.6020   21.3870 C   0  0  0  0  0  3  0  0  0  0  0  0
  -25.4000  -31.5630   23.8050 C   0  0  0  0  0  3  0  0  0  0  0  0
  -25.0440  -32.9760   23.9940 N   0  0  0  0  0  0  0  0  0  0  0  0
  -25.5980  -34.0020   23.3390 C   0  0  0  0  0  0  0  0  0  0  0  0
  -26.4810  -33.8530   22.4910 O   0  0  0  0  0  0  0  0  0  0  0  0
  -24.2830  -33.1660   24.6290 H   0  0  0  0  0  0  0  0  0  0  0  0
  -24.0770  -35.8590   22.6000 C   0  0  0  0  0  1  0  0  0  0  0  0
  -25.0840  -35.4140   23.6720 C   0  0  0  0  0  3  0  0  0  0  0  0
  -26.9980  -36.2310   24.9760 C   0  0  0  0  0  1  0  0  0  0  0  0
  -26.1600  -36.4200   23.7940 N   0  0  0  0  0  0  0  0  0  0  0  0
  -25.7740  -37.3600   23.8300 H   0  0  0  0  0  0  0  0  0  0  0  0
  -25.7300  -30.9480   25.2360 C   0  0  1  0  0  0  0  0  0  0  0  0
  -24.4700  -30.7060   26.1010 C   0  0  0  0  0  1  0  0  0  0  0  0
  -26.6070  -29.6880   25.1660 C   0  0  0  0  0  1  0  0  0  0  0  0
  -26.6410  -31.9050   26.0410 C   0  0  0  0  0  1  0  0  0  0  0  0
  -24.3850  -21.0790   19.7960 C   0  0  0  0  0 15  0  0  0  0  0  0
  -27.8300  -17.6590   19.3700 C   0  0  0  0  0  2  0  0  0  0  0  0
  -29.6410  -15.0430   18.4810 C   0  0  0  0  0  2  0  0  0  0  0  0
  -29.4880  -13.5860   17.6800 C   0  0  0  0  0  2  0  0  0  0  0  0
  -28.5320  -12.6110   18.3540 C   0  0  0  0  0  2  0  0  0  0  0  0
  -27.6680  -13.5810   19.1330 C   0  0  0  0  0  3  0  0  0  0  0  0
  -28.3140  -14.6640   20.0700 C   0  0  0  0  0  2  0  0  0  0  0  0
  -28.3850  -15.9770   19.2540 N   0  0  0  0  0  0  0  0  0  0  0  0
  -29.1400  -17.7210   19.0450 O   0  0  0  0  0  1  0  0  0  0  0  0
  -26.2030  -19.0920   19.6360 N   0  0  0  0  0  1  0  0  0  0  0  0
  -25.5560  -18.3490   19.8780 H   0  0  0  0  0  0  0  0  0  0  0  0
  -25.6140  -13.9810   20.3070 C   0  0  0  0  0  0  0  0  0  0  0  0
  -24.6760  -13.1790   20.8380 C   0  0  0  0  0  0  0  0  0  0  0  0
  -25.0850  -11.8380   20.5520 C   0  0  0  0  0  0  0  0  0  0  0  0
  -26.5250  -13.1140   19.7650 N   0  0  0  0  0  0  0  0  0  0  0  0
  -26.2650  -11.8080   19.9480 N   0  0  0  0  0  0  0  0  0  0  0  0
  -24.3680  -10.5900   20.7520 C   0  0  0  0  0  0  0  0  0  0  0  0
  -24.8070   -9.6230   21.6790 C   0  0  0  0  0  3  0  0  0  0  0  0
  -24.0620   -8.4430   21.8690 C   0  0  0  0  0  3  0  0  0  0  0  0
  -22.8730   -8.2310   21.1300 C   0  0  0  0  0  0  0  0  0  0  0  0
  -22.4630   -9.1870   20.1880 C   0  0  0  0  0  3  0  0  0  0  0  0
  -23.2070  -10.3580   19.9940 C   0  0  0  0  0  3  0  0  0  0  0  0
  -22.0930   -7.1090   21.2350 O   0  0  0  0  0  0  0  0  0  0  0  0
  -21.8400   -6.5260   22.4490 C   0  0  0  0  0  0  0  0  0  0  0  0
  -21.1800   -7.2200   23.4870 C   0  0  0  0  0  3  0  0  0  0  0  0
  -20.8790   -6.5570   24.6930 C   0  0  0  0  0  3  0  0  0  0  0  0
  -21.2280   -5.2020   24.8590 C   0  0  0  0  0  0  0  0  0  0  0  0
  -21.8820   -4.5110   23.8240 C   0  0  0  0  0  3  0  0  0  0  0  0
  -22.1860   -5.1720   22.6220 C   0  0  0  0  0  0  0  0  0  0  0  0
  -22.7970   -4.4980   21.6180 F   0  0  0  0  0  0  0  0  0  0  0  0
  -20.9290   -4.5630   26.0130 F   0  0  0  0  0  0  0  0  0  0  0  0
  -23.4210  -13.6740   21.4630 C   0  0  0  0  0  0  0  0  0  0  0  0
  -22.8780  -12.9200   22.4050 N   0  0  0  0  0  0  0  0  0  0  0  0
  -22.9570  -14.7740   21.1570 O   0  0  0  0  0  0  0  0  0  0  0  0
  -23.2860  -12.0350   22.6640 H   0  0  0  0  0  0  0  0  0  0  0  0
  -22.0410  -13.2330   22.8770 H   0  0  0  0  0  0  0  0  0  0  0  0
  -25.7530  -15.3710   20.2200 N   0  0  0  0  0  0  0  0  0  0  0  0
  -24.9240  -15.9290   20.3990 H   0  0  0  0  0  0  0  0  0  0  0  0
  -26.3300  -15.7400   19.4780 H   0  0  0  0  0  0  0  0  0  0  0  0
  1  5  1  0
  4  2  1  0
  5  4  1  0
  5  3  1  1
  6  8  1  0
  6  1  1  0
  6  5  1  0
  7  2  1  0
  9 11  1  0
 10  9  2  0
 13 12  1  0
 14 13  1  0
 15 26  2  0
 16 14  1  0
 17 25  1  0
 17 27  1  0
 18 24  1  0
 18 20  1  0
 19 25  1  0
 20 19  1  0
 20 21  1  0
 21 16  1  0
 22 16  1  0
 23 18  1  0
 23 22  2  0
 24 17  1  0
 25 15  1  0
 27 29  2  0
 27 28  1  0
 28 30  1  0
 28 32  1  0
 31 36  1  0
 32 11  1  0
 37 36  2  0
 38 37  1  0
 39 40  1  0
 39 38  2  0
 40 31  2  0
 41 15  1  0
 41 42  1  0
 41 51  1  0
 42 45  1  0
 43 47  1  0
 43 42  1  0
 44 43  2  0
 47 46  1  0
 47 49  1  0
 49 50  1  0
 49 48  1  0
 51 54  1  1
 51 52  1  0
 53 51  1  0
 57 62  1  0
 58 59  1  0
 58 57  1  0
 60 59  1  0
 60 69  1  0
 60 61  1  0
 62 56  1  0
 62 61  1  0
 63 56  1  0
 64 65  1  0
 66 67  2  0
 67 86  1  0
 68 71  1  0
 68 67  1  0
 69 70  1  0
 69 66  1  0
 70 68  2  0
 71 72  1  0
 72 73  2  0
 74 77  1  0
 74 73  1  0
 75 74  2  0
 76 75  1  0
 76 71  2  0
 77 78  1  0
 78 83  2  0
 78 79  1  0
 79 80  2  0
 80 81  1  0
 81 85  1  0
 82 81  2  0
 83 82  1  0
 84 83  1  0
 86 87  1  0
 87 89  1  0
 87 90  1  0
 88 86  2  0
 91 66  1  0
 91 92  1  0
 93 91  1  0
M  ISO  4  13 101  14 101  56 100  64 100
M  END
>  <TORSDO>  (73) 
F 21

>  <SCORE>  (73) 
-0.968

>  <name>  (73) 
72

>  <ligand_id>  (73) 
72

>  <original_smiles>  (73) 
[H]c1c([H])c([H])c2c(c1[H])C([H])([H])C([H])([H])C([H])([H])C2([H])N([H])C(=O)C1([H])N(C(=O)C([H])(N([H])C(=O)C([H])(N([H])C([H])([H])[H])C([H])([H])[H])C(C([H])([H])[H])(C([H])([H])[H])C([H])([H])[H])C([H])([H])c2c([H])c(OC([H])([H])C([H])([H])C([H])([H])C(=O)C3([H])C4([H])C([H])([H])C([H])(C([H])([H])N([H])C(=O)N5C([H])([H])C([H])([H])C([H])([H])C([H])(n6nc(-c7c([H])c([H])c(Oc8c([H])c([H])c(F)c([H])c8F)c([H])c7[H])c(C(=O)N([H])[H])c6N([H])[H])C5([H])[H])C3([H])C([H])([H])C4([H])C([H])([H])[H])c([H])c([H])c2C1([H])[H]

>  <smiles>  (73) 
[H]c1c([H])c([H])c2c(c1[H])C([H])([H])C([H])([H])C([H])([H])C2([H])N([H])C(=O)C1([H])N(C(=O)C([H])(N([H])C(=O)C([H])(N([H])C([H])([H])[H])C([H])([H])[H])C(C([H])([H])[H])(C([H])([H])[H])C([H])([H])[H])C([H])([H])c2c([H])c(OC([H])([H])C([H])([H])C([H])([H])C(=O)C3([H])C4([H])C([H])([H])C([H])(C([H])([H])N([H])C(=O)N5C([H])([H])C([H])([H])C([H])([H])C([H])(n6nc(-c7c([H])c([H])c(Oc8c([H])c([H])c(F)c([H])c8F)c([H])c7[H])c(C(=O)N([H])[H])c6N([H])[H])C5([H])[H])C3([H])C([H])([H])C4([H])C([H])([H])[H])c([H])c([H])c2C1([H])[H]

$$$$
73:0:0
     RDKit          3D

 91100  0  0  1  0  0  0  0  0999 V2000
  -29.0370  -19.2050   21.9670 C   0  0  0  0  0  2  0  0  0  0  0  0
  -29.4840  -17.9160   21.2700 C   0  0  0  0  0  2  0  0  0  0  0  0
  -28.4080  -20.1580   20.9490 C   0  0  0  0  0  2  0  0  0  0  0  0
  -29.9290  -19.3490   19.1850 C   0  0  0  0  0  2  0  0  0  0  0  0
  -28.8230  -21.7490   18.9530 C   0  0  0  0  0  2  0  0  0  0  0  0
  -30.4270  -21.7500   20.2460 C   0  0  0  0  0  2  0  0  0  0  0  0
  -30.4750  -18.2280   20.1290 C   0  0  0  0  0  3  0  0  0  0  0  0
  -29.3520  -22.8200   19.9320 C   0  0  0  0  0  3  0  0  0  0  0  0
  -29.4010  -20.6380   19.8710 C   0  0  1  0  0  0  0  0  0  0  0  0
  -29.6710  -24.2790   19.4900 C   0  0  0  0  0  2  0  0  0  0  0  0
  -28.3970  -25.1700   19.4130 C   0  0  0  0  0  2  0  0  0  0  0  0
  -28.5690  -26.6170   19.3740 O   0  0  0  0  0  0  0  0  0  0  0  0
  -24.6590  -31.4400   22.9810 C   0  0  0  0  0  0  0  0  0  0  0  0
  -27.3920  -27.3590   19.4490 C   0  0  0  0  0  0  0  0  0  0  0  0
  -23.4730  -30.1340   21.2520 C   0  0  0  0  0  3  0  0  0  0  0  0
  -24.9490  -28.8030   19.6550 C   0  0  0  0  0  0  0  0  0  0  0  0
  -25.9800  -30.6080   21.0330 C   0  0  0  0  0  2  0  0  0  0  0  0
  -26.1060  -29.3040   20.2610 C   0  0  0  0  0  0  0  0  0  0  0  0
  -27.3310  -28.5870   20.1600 C   0  0  0  0  0  3  0  0  0  0  0  0
  -26.2080  -26.8990   18.8230 C   0  0  0  0  0  3  0  0  0  0  0  0
  -24.9980  -27.6010   18.9320 C   0  0  0  0  0  3  0  0  0  0  0  0
  -23.6730  -29.5970   19.8110 C   0  0  0  0  0  2  0  0  0  0  0  0
  -24.7230  -30.7360   21.8130 N   0  0  0  0  0  0  0  0  0  0  0  0
  -23.5790  -31.6200   23.5620 O   0  0  0  0  0  0  0  0  0  0  0  0
  -22.8920  -29.0010   22.1300 C   0  0  0  0  0  0  0  0  0  0  0  0
  -21.5750  -28.7680   22.0140 N   0  0  0  0  0  0  0  0  0  0  0  0
  -23.6230  -28.3410   22.8750 O   0  0  0  0  0  0  0  0  0  0  0  0
  -21.0460  -29.3600   21.3890 H   0  0  0  0  0  0  0  0  0  0  0  0
  -18.2620  -27.4030   22.5090 C   0  0  0  0  0  0  0  0  0  0  0  0
  -20.8180  -27.7300   22.7150 C   0  0  0  0  0  3  0  0  0  0  0  0
  -20.9470  -26.3680   21.9960 C   0  0  0  0  0  2  0  0  0  0  0  0
  -19.8190  -26.1050   20.9930 C   0  0  0  0  0  2  0  0  0  0  0  0
  -18.4590  -26.1340   21.6960 C   0  0  0  0  0  2  0  0  0  0  0  0
  -19.3700  -28.1610   22.9710 C   0  0  0  0  0  0  0  0  0  0  0  0
  -19.1320  -29.3520   23.6910 C   0  0  0  0  0  3  0  0  0  0  0  0
  -17.8190  -29.7850   23.9520 C   0  0  0  0  0  3  0  0  0  0  0  0
  -16.7270  -29.0230   23.5040 C   0  0  0  0  0  3  0  0  0  0  0  0
  -16.9490  -27.8320   22.7890 C   0  0  0  0  0  3  0  0  0  0  0  0
  -25.9330  -32.0700   23.6230 C   0  0  0  0  0  3  0  0  0  0  0  0
  -26.4860  -31.2430   24.8480 C   0  0  1  0  0  0  0  0  0  0  0  0
  -25.4070  -30.9130   25.9090 C   0  0  0  0  0  1  0  0  0  0  0  0
  -27.1080  -29.9100   24.3700 C   0  0  0  0  0  1  0  0  0  0  0  0
  -27.6180  -32.0330   25.5450 C   0  0  0  0  0  1  0  0  0  0  0  0
  -25.5890  -33.4370   24.0380 N   0  0  0  0  0  0  0  0  0  0  0  0
  -25.8620  -34.5380   23.3280 C   0  0  0  0  0  0  0  0  0  0  0  0
  -26.5070  -34.5140   22.2760 O   0  0  0  0  0  0  0  0  0  0  0  0
  -25.0210  -33.5240   24.8680 H   0  0  0  0  0  0  0  0  0  0  0  0
  -24.0560  -36.2730   23.1150 C   0  0  0  0  0  1  0  0  0  0  0  0
  -25.3370  -35.8810   23.8700 C   0  0  0  0  0  3  0  0  0  0  0  0
  -27.4540  -36.8100   24.6940 C   0  0  0  0  0  1  0  0  0  0  0  0
  -26.3240  -36.9790   23.7830 N   0  0  0  0  0  0  0  0  0  0  0  0
  -25.8870  -37.8720   23.9850 H   0  0  0  0  0  0  0  0  0  0  0  0
  -30.9440  -16.9910   19.3100 C   0  0  0  0  0  2  0  0  0  0  0  0
  -31.5060  -14.6020   19.8370 C   0  0  0  0  0  0  0  0  0  0  0  0
  -31.0940  -12.4260   18.7960 C   0  0  0  0  0  2  0  0  0  0  0  0
  -30.1170  -12.7090   17.6360 C   0  0  0  0  0  2  0  0  0  0  0  0
  -28.6530  -12.6620   18.1230 C   0  0  0  0  0  2  0  0  0  0  0  0
  -28.4170  -13.4880   19.4180 C   0  0  0  0  0  3  0  0  0  0  0  0
  -29.5120  -13.2060   20.4710 C   0  0  0  0  0  2  0  0  0  0  0  0
  -30.8210  -13.4290   19.8370 N   0  0  0  0  0  0  0  0  0  0  0  0
  -32.6690  -14.7190   19.4380 O   0  0  0  0  0  0  0  0  0  0  0  0
  -30.7170  -15.6830   19.9580 N   0  0  0  0  0  0  0  0  0  0  0  0
  -29.7670  -15.4840   20.2340 H   0  0  0  0  0  0  0  0  0  0  0  0
  -26.1060  -14.2120   20.2810 C   0  0  0  0  0  0  0  0  0  0  0  0
  -25.0140  -13.4910   20.6780 C   0  0  0  0  0  0  0  0  0  0  0  0
  -25.3930  -12.1150   20.5780 C   0  0  0  0  0  0  0  0  0  0  0  0
  -27.0770  -13.2790   19.9570 N   0  0  0  0  0  0  0  0  0  0  0  0
  -26.6570  -12.0120   20.1960 N   0  0  0  0  0  0  0  0  0  0  0  0
  -24.6050  -10.8920   20.7760 C   0  0  0  0  0  0  0  0  0  0  0  0
  -24.9710   -9.9230   21.7370 C   0  0  0  0  0  3  0  0  0  0  0  0
  -24.1900   -8.7630   21.9150 C   0  0  0  0  0  3  0  0  0  0  0  0
  -23.0270   -8.5620   21.1340 C   0  0  0  0  0  0  0  0  0  0  0  0
  -22.6810   -9.5180   20.1620 C   0  0  0  0  0  3  0  0  0  0  0  0
  -23.4630  -10.6690   19.9800 C   0  0  0  0  0  3  0  0  0  0  0  0
  -22.2210   -7.4520   21.2180 O   0  0  0  0  0  0  0  0  0  0  0  0
  -22.0040   -6.8140   22.4130 C   0  0  0  0  0  0  0  0  0  0  0  0
  -21.4340   -7.4770   23.5190 C   0  0  0  0  0  3  0  0  0  0  0  0
  -21.1660   -6.7650   24.7060 C   0  0  0  0  0  3  0  0  0  0  0  0
  -21.4540   -5.3900   24.7830 C   0  0  0  0  0  0  0  0  0  0  0  0
  -22.0170   -4.7250   23.6800 C   0  0  0  0  0  3  0  0  0  0  0  0
  -22.2910   -5.4350   22.4960 C   0  0  0  0  0  0  0  0  0  0  0  0
  -22.8120   -4.7870   21.4280 F   0  0  0  0  0  0  0  0  0  0  0  0
  -21.1880   -4.7030   25.9190 F   0  0  0  0  0  0  0  0  0  0  0  0
  -23.6610  -14.0340   21.0400 C   0  0  0  0  0  0  0  0  0  0  0  0
  -22.9470  -13.3650   21.9360 N   0  0  0  0  0  0  0  0  0  0  0  0
  -23.2500  -15.0910   20.5590 O   0  0  0  0  0  0  0  0  0  0  0  0
  -23.2930  -12.5130   22.3540 H   0  0  0  0  0  0  0  0  0  0  0  0
  -22.0400  -13.7070   22.2160 H   0  0  0  0  0  0  0  0  0  0  0  0
  -26.3460  -15.5780   20.1550 N   0  0  0  0  0  0  0  0  0  0  0  0
  -25.6450  -16.2560   20.4310 H   0  0  0  0  0  0  0  0  0  0  0  0
  -27.2130  -16.0010   19.8500 H   0  0  0  0  0  0  0  0  0  0  0  0
  2  1  1  0
  3  1  1  0
  9  4  1  6
  4  7  1  0
  5  8  1  0
  7 53  1  0
  7  2  1  0
  8 10  1  0
  8  6  1  0
  9  5  1  0
  9  6  1  0
  9  3  1  0
 11 10  1  0
 12 11  1  0
 12 14  1  0
 13 24  2  0
 14 19  1  0
 15 23  1  0
 15 25  1  0
 16 22  1  0
 16 18  1  0
 17 23  1  0
 18 17  1  0
 19 18  2  0
 20 21  1  0
 20 14  2  0
 21 16  2  0
 22 15  1  0
 23 13  1  0
 25 27  2  0
 26 25  1  0
 28 26  1  0
 29 38  2  0
 29 34  1  0
 30 26  1  0
 30 34  1  0
 31 30  1  0
 32 33  1  0
 32 31  1  0
 33 29  1  0
 34 35  2  0
 35 36  1  0
 37 36  2  0
 38 37  1  0
 39 13  1  0
 39 44  1  0
 39 40  1  0
 40 43  1  1
 40 41  1  0
 42 40  1  0
 44 47  1  0
 45 49  1  0
 45 44  1  0
 46 45  2  0
 49 48  1  0
 51 49  1  0
 51 52  1  0
 51 50  1  0
 53 62  1  0
 54 62  1  0
 55 60  1  0
 56 57  1  0
 56 55  1  0
 58 57  1  0
 58 67  1  0
 58 59  1  0
 60 54  1  0
 60 59  1  0
 61 54  2  0
 62 63  1  0
 64 65  2  0
 65 84  1  0
 66 65  1  0
 66 69  1  0
 67 68  1  0
 67 64  1  0
 68 66  2  0
 69 70  1  0
 70 71  2  0
 72 75  1  0
 72 71  1  0
 73 72  2  0
 74 73  1  0
 74 69  2  0
 75 76  1  0
 76 81  2  0
 76 77  1  0
 77 78  2  0
 78 79  1  0
 79 83  1  0
 80 79  2  0
 81 80  1  0
 82 81  1  0
 84 85  1  0
 85 88  1  0
 85 87  1  0
 86 84  2  0
 89 64  1  0
 89 90  1  0
 91 89  1  0
M  ISO  4  11 101  12 101  54 100  62 100
M  END
>  <TORSDO>  (74) 
F 19

>  <SCORE>  (74) 
-10.155

>  <name>  (74) 
73

>  <ligand_id>  (74) 
73

>  <original_smiles>  (74) 
[H]c1c([H])c([H])c2c(c1[H])C([H])([H])C([H])([H])C([H])([H])C2([H])N([H])C(=O)C1([H])N(C(=O)C([H])(N([H])C(=O)C([H])(N([H])C([H])([H])[H])C([H])([H])[H])C(C([H])([H])[H])(C([H])([H])[H])C([H])([H])[H])C([H])([H])c2c([H])c(OC([H])([H])C([H])([H])C3([H])C([H])([H])C4(C([H])([H])C([H])([H])C([H])([H])C([H])(C([H])([H])N([H])C(=O)N5C([H])([H])C([H])([H])C([H])([H])C([H])(n6nc(-c7c([H])c([H])c(Oc8c([H])c([H])c(F)c([H])c8F)c([H])c7[H])c(C(=O)N([H])[H])c6N([H])[H])C5([H])[H])C4([H])[H])C3([H])[H])c([H])c([H])c2C1([H])[H]

>  <smiles>  (74) 
[H]c1c([H])c([H])c2c(c1[H])C([H])([H])C([H])([H])C([H])([H])C2([H])N([H])C(=O)C1([H])N(C(=O)C([H])(N([H])C(=O)C([H])(N([H])C([H])([H])[H])C([H])([H])[H])C(C([H])([H])[H])(C([H])([H])[H])C([H])([H])[H])C([H])([H])c2c([H])c(OC([H])([H])C([H])([H])C3([H])C([H])([H])C4(C([H])([H])C([H])([H])C([H])([H])C([H])(C([H])([H])N([H])C(=O)N5C([H])([H])C([H])([H])C([H])([H])C([H])(n6nc(-c7c([H])c([H])c(Oc8c([H])c([H])c(F)c([H])c8F)c([H])c7[H])c(C(=O)N([H])[H])c6N([H])[H])C5([H])[H])C4([H])[H])C3([H])[H])c([H])c([H])c2C1([H])[H]

$$$$
74:0:0
     RDKit          3D

 95104  0  0  1  0  0  0  0  0999 V2000
  -29.6770  -22.9140   22.0100 C   0  0  0  0  0  2  0  0  0  0  0  0
  -30.0850  -21.4470   21.8100 C   0  0  0  0  0  2  0  0  0  0  0  0
  -28.4140  -22.0270   20.1910 C   0  0  0  0  0  3  0  0  0  0  0  0
  -29.1340  -23.3250   20.6390 C   0  0  0  0  0  3  0  0  0  0  0  0
  -29.2640  -20.9190   20.6920 N   0  0  2  0  0  4  0  0  0  0  0  0
  -29.8780  -20.7600   19.9020 H   0  0  0  0  0  0  0  0  0  0  0  0
  -28.3570  -21.8900   18.6590 C   0  0  0  0  0  0  0  0  0  0  0  0
  -27.1580  -22.4860   17.9350 C   0  0  0  0  0  1  0  0  0  0  0  0
  -29.2500  -21.3340   18.0120 O   0  0  0  0  0  0  0  0  0  0  0  0
  -28.2820  -24.6200   20.6260 C   0  0  0  0  0  2  0  0  0  0  0  0
  -29.0580  -25.9320   20.9150 C   0  0  0  0  0  2  0  0  0  0  0  0
  -28.8600  -26.9430   19.9240 O   0  0  0  0  0  0  0  0  0  0  0  0
  -24.8190  -31.7940   23.2550 C   0  0  0  0  0  0  0  0  0  0  0  0
  -27.6690  -27.6260   19.9970 C   0  0  0  0  0  0  0  0  0  0  0  0
  -23.6950  -30.4460   21.5120 C   0  0  0  0  0  3  0  0  0  0  0  0
  -25.2280  -29.0400   20.0400 C   0  0  0  0  0  0  0  0  0  0  0  0
  -26.2090  -30.9010   21.3920 C   0  0  0  0  0  2  0  0  0  0  0  0
  -26.3540  -29.5680   20.6860 C   0  0  0  0  0  0  0  0  0  0  0  0
  -27.5780  -28.8630   20.6720 C   0  0  0  0  0  3  0  0  0  0  0  0
  -26.5360  -27.1150   19.3340 C   0  0  0  0  0  3  0  0  0  0  0  0
  -25.3120  -27.8100   19.3630 C   0  0  0  0  0  3  0  0  0  0  0  0
  -23.9540  -29.8510   20.1030 C   0  0  0  0  0  2  0  0  0  0  0  0
  -24.9240  -31.0590   22.1120 N   0  0  0  0  0  0  0  0  0  0  0  0
  -23.7170  -32.0010   23.7840 O   0  0  0  0  0  0  0  0  0  0  0  0
  -23.0610  -29.3510   22.3990 C   0  0  0  0  0  0  0  0  0  0  0  0
  -21.7450  -29.1430   22.2410 N   0  0  0  0  0  0  0  0  0  0  0  0
  -23.7510  -28.6950   23.1840 O   0  0  0  0  0  0  0  0  0  0  0  0
  -21.2510  -29.7270   21.5810 H   0  0  0  0  0  0  0  0  0  0  0  0
  -18.3880  -27.8630   22.6300 C   0  0  0  0  0  0  0  0  0  0  0  0
  -20.9390  -28.1400   22.9380 C   0  0  0  0  0  3  0  0  0  0  0  0
  -21.0690  -26.7560   22.2610 C   0  0  0  0  0  2  0  0  0  0  0  0
  -19.9770  -26.4870   21.2220 C   0  0  0  0  0  2  0  0  0  0  0  0
  -18.5890  -26.5660   21.8650 C   0  0  0  0  0  2  0  0  0  0  0  0
  -19.4920  -28.6100   23.1200 C   0  0  0  0  0  0  0  0  0  0  0  0
  -19.2500  -29.8260   23.7960 C   0  0  0  0  0  3  0  0  0  0  0  0
  -17.9380  -30.2940   23.9870 C   0  0  0  0  0  3  0  0  0  0  0  0
  -16.8480  -29.5410   23.5180 C   0  0  0  0  0  3  0  0  0  0  0  0
  -17.0730  -28.3280   22.8450 C   0  0  0  0  0  3  0  0  0  0  0  0
  -26.0710  -32.4290   23.9360 C   0  0  0  0  0  3  0  0  0  0  0  0
  -26.5680  -31.6220   25.1990 C   0  0  1  0  0  0  0  0  0  0  0  0
  -25.4460  -31.3140   26.2200 C   0  0  0  0  0  1  0  0  0  0  0  0
  -27.2010  -30.2780   24.7720 C   0  0  0  0  0  1  0  0  0  0  0  0
  -27.6770  -32.4180   25.9280 C   0  0  0  0  0  1  0  0  0  0  0  0
  -25.7250  -33.8070   24.3050 N   0  0  0  0  0  0  0  0  0  0  0  0
  -26.0470  -34.8900   23.5840 C   0  0  0  0  0  0  0  0  0  0  0  0
  -26.7380  -34.8320   22.5640 O   0  0  0  0  0  0  0  0  0  0  0  0
  -25.1120  -33.9230   25.0990 H   0  0  0  0  0  0  0  0  0  0  0  0
  -24.2760  -36.6430   23.2510 C   0  0  0  0  0  1  0  0  0  0  0  0
  -25.5150  -36.2510   24.0730 C   0  0  0  0  0  3  0  0  0  0  0  0
  -27.6110  -37.1630   24.9650 C   0  0  0  0  0  1  0  0  0  0  0  0
  -26.5210  -37.3330   24.0070 N   0  0  0  0  0  0  0  0  0  0  0  0
  -26.0900  -38.2380   24.1740 H   0  0  0  0  0  0  0  0  0  0  0  0
  -28.5810  -19.6230   20.9720 C   0  0  0  0  0  2  0  0  0  0  0  0
  -31.0080  -14.5070   19.6960 C   0  0  0  0  0  0  0  0  0  0  0  0
  -30.5780  -12.3040   18.6850 C   0  0  0  0  0  2  0  0  0  0  0  0
  -29.5220  -12.4610   17.5730 C   0  0  0  0  0  2  0  0  0  0  0  0
  -28.1030  -12.3270   18.1590 C   0  0  0  0  0  2  0  0  0  0  0  0
  -27.8880  -13.2140   19.4140 C   0  0  0  0  0  3  0  0  0  0  0  0
  -29.0540  -13.0670   20.4130 C   0  0  0  0  0  2  0  0  0  0  0  0
  -30.3070  -13.3410   19.6940 N   0  0  0  0  0  0  0  0  0  0  0  0
  -32.0960  -14.6150   19.1190 O   0  0  0  0  0  0  0  0  0  0  0  0
  -29.4150  -17.8630   19.3010 C   0  0  0  0  0  2  0  0  0  0  0  0
  -29.3270  -17.2280   21.6980 C   0  0  0  0  0  2  0  0  0  0  0  0
  -30.4360  -16.7410   19.0630 C   0  0  0  0  0  2  0  0  0  0  0  0
  -30.3600  -16.1050   21.4250 C   0  0  0  0  0  2  0  0  0  0  0  0
  -29.5300  -18.4140   20.7320 C   0  0  0  0  0  3  0  0  0  0  0  0
  -30.3180  -15.6290   20.0290 N   0  0  0  0  0  0  0  0  0  0  0  0
  -25.6250  -13.8330   20.4700 C   0  0  0  0  0  0  0  0  0  0  0  0
  -24.5860  -13.0650   20.9220 C   0  0  0  0  0  0  0  0  0  0  0  0
  -24.9890  -11.7070   20.7400 C   0  0  0  0  0  0  0  0  0  0  0  0
  -26.5990  -12.9430   20.0460 N   0  0  0  0  0  0  0  0  0  0  0  0
  -26.2260  -11.6550   20.2640 N   0  0  0  0  0  0  0  0  0  0  0  0
  -24.2470  -10.4550   20.9390 C   0  0  0  0  0  0  0  0  0  0  0  0
  -24.6870   -9.4730   21.8540 C   0  0  0  0  0  3  0  0  0  0  0  0
  -23.9460   -8.2850   22.0390 C   0  0  0  0  0  3  0  0  0  0  0  0
  -22.7520   -8.0720   21.3100 C   0  0  0  0  0  0  0  0  0  0  0  0
  -22.3320   -9.0420   20.3840 C   0  0  0  0  0  3  0  0  0  0  0  0
  -23.0730  -10.2210   20.1950 C   0  0  0  0  0  3  0  0  0  0  0  0
  -21.9820   -6.9380   21.4050 O   0  0  0  0  0  0  0  0  0  0  0  0
  -21.8420   -6.2620   22.5910 C   0  0  0  0  0  0  0  0  0  0  0  0
  -21.3430   -6.8900   23.7530 C   0  0  0  0  0  3  0  0  0  0  0  0
  -21.1490   -6.1410   24.9310 C   0  0  0  0  0  3  0  0  0  0  0  0
  -21.4430   -4.7640   24.9460 C   0  0  0  0  0  0  0  0  0  0  0  0
  -21.9350   -4.1360   23.7880 C   0  0  0  0  0  3  0  0  0  0  0  0
  -22.1300   -4.8830   22.6130 C   0  0  0  0  0  0  0  0  0  0  0  0
  -22.5840   -4.2680   21.4940 F   0  0  0  0  0  0  0  0  0  0  0  0
  -21.2500   -4.0410   26.0740 F   0  0  0  0  0  0  0  0  0  0  0  0
  -23.2530  -13.5610   21.4080 C   0  0  0  0  0  0  0  0  0  0  0  0
  -22.6300  -12.8390   22.3330 N   0  0  0  0  0  0  0  0  0  0  0  0
  -22.7790  -14.6210   21.0010 O   0  0  0  0  0  0  0  0  0  0  0  0
  -23.0290  -11.9800   22.6820 H   0  0  0  0  0  0  0  0  0  0  0  0
  -21.7400  -13.1500   22.6960 H   0  0  0  0  0  0  0  0  0  0  0  0
  -25.8150  -15.2080   20.3660 N   0  0  0  0  0  0  0  0  0  0  0  0
  -25.0900  -15.8730   20.6080 H   0  0  0  0  0  0  0  0  0  0  0  0
  -26.6410  -15.6430   19.9750 H   0  0  0  0  0  0  0  0  0  0  0  0
  2  1  1  0
  3  7  1  0
  3  4  1  0
  3  5  1  0
  4 10  1  0
  4  1  1  0
  5 53  1  0
  5  2  1  0
  5  6  1  6
  8  7  1  0
  9  7  2  0
 10 11  1  0
 12 14  1  0
 12 11  1  0
 13 24  2  0
 14 19  1  0
 15 23  1  0
 15 25  1  0
 16 22  1  0
 16 18  1  0
 17 23  1  0
 18 17  1  0
 19 18  2  0
 20 21  1  0
 20 14  2  0
 21 16  2  0
 22 15  1  0
 23 13  1  0
 25 27  2  0
 26 25  1  0
 28 26  1  0
 29 38  2  0
 29 34  1  0
 30 26  1  0
 30 34  1  0
 31 30  1  0
 32 33  1  0
 32 31  1  0
 33 29  1  0
 34 35  2  0
 35 36  1  0
 37 36  2  0
 38 37  1  0
 39 13  1  0
 39 44  1  0
 39 40  1  0
 40 43  1  1
 40 41  1  0
 42 40  1  0
 44 47  1  0
 45 49  1  0
 45 44  1  0
 46 45  2  0
 49 48  1  0
 51 49  1  0
 51 52  1  0
 51 50  1  0
 54 67  1  0
 55 60  1  0
 56 57  1  0
 56 55  1  0
 58 57  1  0
 58 71  1  0
 58 59  1  0
 60 54  1  0
 60 59  1  0
 61 54  2  0
 62 66  1  0
 64 62  1  0
 64 67  1  0
 65 63  1  0
 66 53  1  0
 66 63  1  0
 67 65  1  0
 68 69  2  0
 69 88  1  0
 70 69  1  0
 70 73  1  0
 71 72  1  0
 71 68  1  0
 72 70  2  0
 73 74  1  0
 74 75  2  0
 76 79  1  0
 76 75  1  0
 77 76  2  0
 78 77  1  0
 78 73  2  0
 79 80  1  0
 80 85  2  0
 80 81  1  0
 81 82  2  0
 82 83  1  0
 83 87  1  0
 84 83  2  0
 85 84  1  0
 86 85  1  0
 88 89  1  0
 89 91  1  0
 89 92  1  0
 90 88  2  0
 93 68  1  0
 93 94  1  0
 95 93  1  0
M  ISO  4  11 101  12 101  54 100  67 100
M  END
>  <TORSDO>  (75) 
F 20

>  <SCORE>  (75) 
-12.523

>  <name>  (75) 
74

>  <ligand_id>  (75) 
74

>  <original_smiles>  (75) 
[H]c1c([H])c([H])c2c(c1[H])C([H])([H])C([H])([H])C([H])([H])C2([H])N([H])C(=O)C1([H])N(C(=O)C([H])(N([H])C(=O)C([H])(N([H])C([H])([H])[H])C([H])([H])[H])C(C([H])([H])[H])(C([H])([H])[H])C([H])([H])[H])C([H])([H])c2c([H])c(OC([H])([H])C([H])([H])C3([H])C([H])([H])C([H])([H])[N+]([H])(C([H])([H])C4([H])C([H])([H])C([H])([H])N(C(=O)N5C([H])([H])C([H])([H])C([H])([H])C([H])(n6nc(-c7c([H])c([H])c(Oc8c([H])c([H])c(F)c([H])c8F)c([H])c7[H])c(C(=O)N([H])[H])c6N([H])[H])C5([H])[H])C([H])([H])C4([H])[H])C3([H])C(=O)C([H])([H])[H])c([H])c([H])c2C1([H])[H]

>  <smiles>  (75) 
[H]c1c([H])c([H])c2c(c1[H])C([H])([H])C([H])([H])C([H])([H])C2([H])N([H])C(=O)C1([H])N(C(=O)C([H])(N([H])C(=O)C([H])(N([H])C([H])([H])[H])C([H])([H])[H])C(C([H])([H])[H])(C([H])([H])[H])C([H])([H])[H])C([H])([H])c2c([H])c(OC([H])([H])C([H])([H])C3([H])C([H])([H])C([H])([H])[N+]([H])(C([H])([H])C4([H])C([H])([H])C([H])([H])N(C(=O)N5C([H])([H])C([H])([H])C([H])([H])C([H])(n6nc(-c7c([H])c([H])c(Oc8c([H])c([H])c(F)c([H])c8F)c([H])c7[H])c(C(=O)N([H])[H])c6N([H])[H])C5([H])[H])C([H])([H])C4([H])[H])C3([H])C(=O)C([H])([H])[H])c([H])c([H])c2C1([H])[H]

$$$$
75:0:0
     RDKit          3D

 90 99  0  0  1  0  0  0  0  0999 V2000
  -29.5170  -20.0830   20.5460 C   0  0  0  0  0  3  0  0  0  0  0  0
  -29.6200  -18.7410   19.6930 C   0  0  0  0  0  3  0  0  0  0  0  0
  -31.5000  -16.2680   23.5120 C   0  0  0  0  0  2  0  0  0  0  0  0
  -30.9710  -15.1990   22.5410 C   0  0  0  0  0  2  0  0  0  0  0  0
  -31.1410  -17.6330   22.8960 C   0  0  0  0  0  2  0  0  0  0  0  0
  -29.6240  -15.9720   20.3070 C   0  0  0  0  0  3  0  0  0  0  0  0
  -29.7850  -15.8560   21.8400 C   0  0  0  0  0  3  0  0  0  0  0  0
  -29.9920  -17.3590   21.9390 C   0  0  0  0  0  3  0  0  0  0  0  0
  -30.2070  -17.4540   20.4140 C   0  0  0  0  0  3  0  0  0  0  0  0
  -30.3260  -14.7850   19.5220 C   0  0  0  0  0  0  0  0  0  0  0  0
  -29.9670  -12.6290   18.3150 C   0  0  0  0  0  2  0  0  0  0  0  0
  -28.8640  -12.8330   17.2520 C   0  0  0  0  0  2  0  0  0  0  0  0
  -27.4630  -12.6340   17.8670 C   0  0  0  0  0  2  0  0  0  0  0  0
  -27.2790  -13.4250   19.1880 C   0  0  0  0  0  3  0  0  0  0  0  0
  -28.4750  -13.1900   20.1360 C   0  0  0  0  0  2  0  0  0  0  0  0
  -29.7010  -13.5700   19.4190 N   0  0  0  0  0  0  0  0  0  0  0  0
  -31.3850  -14.9990   18.9230 O   0  0  0  0  0  0  0  0  0  0  0  0
  -24.9860  -13.9810   20.2120 C   0  0  0  0  0  0  0  0  0  0  0  0
  -23.9820  -13.1850   20.6960 C   0  0  0  0  0  0  0  0  0  0  0  0
  -24.4530  -11.8420   20.5770 C   0  0  0  0  0  0  0  0  0  0  0  0
  -26.0040  -13.1190   19.8310 N   0  0  0  0  0  0  0  0  0  0  0  0
  -25.6950  -11.8270   20.1080 N   0  0  0  0  0  0  0  0  0  0  0  0
  -23.7710  -10.5660   20.8270 C   0  0  0  0  0  0  0  0  0  0  0  0
  -24.2940   -9.6140   21.7300 C   0  0  0  0  0  3  0  0  0  0  0  0
  -23.6100   -8.4020   21.9680 C   0  0  0  0  0  3  0  0  0  0  0  0
  -22.3880   -8.1340   21.3030 C   0  0  0  0  0  0  0  0  0  0  0  0
  -21.8860   -9.0750   20.3870 C   0  0  0  0  0  3  0  0  0  0  0  0
  -22.5710  -10.2780   20.1480 C   0  0  0  0  0  3  0  0  0  0  0  0
  -21.6660   -6.9750   21.4520 O   0  0  0  0  0  0  0  0  0  0  0  0
  -21.6690   -6.2730   22.6320 C   0  0  0  0  0  0  0  0  0  0  0  0
  -21.2730   -6.8650   23.8520 C   0  0  0  0  0  3  0  0  0  0  0  0
  -21.2230   -6.0870   25.0260 C   0  0  0  0  0  3  0  0  0  0  0  0
  -21.5600   -4.7210   24.9820 C   0  0  0  0  0  0  0  0  0  0  0  0
  -21.9500   -4.1300   23.7680 C   0  0  0  0  0  3  0  0  0  0  0  0
  -22.0010   -4.9040   22.5950 C   0  0  0  0  0  0  0  0  0  0  0  0
  -22.3550   -4.3250   21.4220 F   0  0  0  0  0  0  0  0  0  0  0  0
  -21.5060   -3.9720   26.1090 F   0  0  0  0  0  0  0  0  0  0  0  0
  -22.6250  -13.6350   21.1540 C   0  0  0  0  0  0  0  0  0  0  0  0
  -22.0280  -12.9170   22.1000 N   0  0  0  0  0  0  0  0  0  0  0  0
  -22.1050  -14.6560   20.7080 O   0  0  0  0  0  0  0  0  0  0  0  0
  -22.4650  -12.0900   22.4800 H   0  0  0  0  0  0  0  0  0  0  0  0
  -21.1240  -13.1990   22.4490 H   0  0  0  0  0  0  0  0  0  0  0  0
  -25.1110  -15.3560   20.0460 N   0  0  0  0  0  0  0  0  0  0  0  0
  -24.3550  -15.9970   20.2620 H   0  0  0  0  0  0  0  0  0  0  0  0
  -25.9070  -15.8110   19.6200 H   0  0  0  0  0  0  0  0  0  0  0  0
  -29.3310  -21.4720   19.7970 C   0  0  0  0  0  3  0  0  0  0  0  0
  -29.0160  -22.7480   20.6900 C   0  0  0  0  0  3  0  0  0  0  0  0
  -29.0280  -24.1890   20.0190 C   0  0  0  0  0  3  0  0  0  0  0  0
  -28.4460  -25.3820   20.8860 C   0  0  0  0  0  3  0  0  0  0  0  0
  -28.5860  -26.7620   20.3940 O   0  0  0  0  0  0  0  0  0  0  0  0
  -24.5880  -32.0010   23.3010 C   0  0  0  0  0  0  0  0  0  0  0  0
  -27.4330  -27.5450   20.3500 C   0  0  0  0  0  0  0  0  0  0  0  0
  -23.4780  -30.5670   21.6230 C   0  0  0  0  0  3  0  0  0  0  0  0
  -25.0180  -29.0540   20.2540 C   0  0  0  0  0  0  0  0  0  0  0  0
  -26.0080  -30.9680   21.5180 C   0  0  0  0  0  2  0  0  0  0  0  0
  -26.1490  -29.5920   20.8820 C   0  0  0  0  0  0  0  0  0  0  0  0
  -27.3630  -28.8510   20.9160 C   0  0  0  0  0  3  0  0  0  0  0  0
  -26.2820  -27.0440   19.7050 C   0  0  0  0  0  3  0  0  0  0  0  0
  -25.0840  -27.7840   19.6570 C   0  0  0  0  0  3  0  0  0  0  0  0
  -23.7550  -29.8890   20.2550 C   0  0  0  0  0  2  0  0  0  0  0  0
  -24.7080  -31.1950   22.2040 N   0  0  0  0  0  0  0  0  0  0  0  0
  -23.4810  -32.2490   23.8000 O   0  0  0  0  0  0  0  0  0  0  0  0
  -22.8130  -29.5360   22.5640 C   0  0  0  0  0  0  0  0  0  0  0  0
  -21.5020  -29.3030   22.3740 N   0  0  0  0  0  0  0  0  0  0  0  0
  -23.4750  -28.9460   23.4220 O   0  0  0  0  0  0  0  0  0  0  0  0
  -21.0290  -29.8300   21.6530 H   0  0  0  0  0  0  0  0  0  0  0  0
  -18.1580  -27.9720   22.7090 C   0  0  0  0  0  0  0  0  0  0  0  0
  -20.6840  -28.3440   23.1150 C   0  0  0  0  0  3  0  0  0  0  0  0
  -20.8780  -26.9100   22.5710 C   0  0  0  0  0  2  0  0  0  0  0  0
  -19.8490  -26.5240   21.5040 C   0  0  0  0  0  2  0  0  0  0  0  0
  -18.4280  -26.6210   22.0670 C   0  0  0  0  0  2  0  0  0  0  0  0
  -19.2180  -28.7870   23.1850 C   0  0  0  0  0  0  0  0  0  0  0  0
  -18.9140  -30.0480   23.7420 C   0  0  0  0  0  3  0  0  0  0  0  0
  -17.5820  -30.4960   23.8280 C   0  0  0  0  0  3  0  0  0  0  0  0
  -16.5350  -29.6780   23.3690 C   0  0  0  0  0  3  0  0  0  0  0  0
  -16.8240  -28.4170   22.8150 C   0  0  0  0  0  3  0  0  0  0  0  0
  -25.8340  -32.6670   23.9640 C   0  0  0  0  0  3  0  0  0  0  0  0
  -25.4850  -34.0640   24.2590 N   0  0  0  0  0  0  0  0  0  0  0  0
  -25.8230  -35.1110   23.4960 C   0  0  0  0  0  0  0  0  0  0  0  0
  -26.5310  -35.0040   22.4910 O   0  0  0  0  0  0  0  0  0  0  0  0
  -24.8610  -34.2200   25.0370 H   0  0  0  0  0  0  0  0  0  0  0  0
  -24.0710  -36.8620   23.0540 C   0  0  0  0  0  1  0  0  0  0  0  0
  -25.2920  -36.4960   23.9130 C   0  0  0  0  0  3  0  0  0  0  0  0
  -27.3810  -37.4360   24.8000 C   0  0  0  0  0  1  0  0  0  0  0  0
  -26.3060  -37.5690   23.8190 N   0  0  0  0  0  0  0  0  0  0  0  0
  -25.8770  -38.4810   23.9410 H   0  0  0  0  0  0  0  0  0  0  0  0
  -26.3130  -31.9240   25.2720 C   0  0  1  0  0  0  0  0  0  0  0  0
  -25.1770  -31.6560   26.2870 C   0  0  0  0  0  1  0  0  0  0  0  0
  -26.9610  -30.5650   24.9220 C   0  0  0  0  0  1  0  0  0  0  0  0
  -27.4020  -32.7630   25.9820 C   0  0  0  0  0  1  0  0  0  0  0  0
  2  1  2  0
  4  3  1  0
  5  3  1  0
  6 10  1  0
  6  9  1  0
  6  7  1  0
  7  8  1  0
  7  4  1  0
  8  5  1  0
  9  2  1  0
  9  8  1  0
 11 16  1  0
 12 13  1  0
 12 11  1  0
 14 13  1  0
 14 21  1  0
 14 15  1  0
 16 10  1  0
 16 15  1  0
 17 10  2  0
 18 19  2  0
 19 38  1  0
 20 19  1  0
 20 23  1  0
 21 22  1  0
 21 18  1  0
 22 20  2  0
 23 24  1  0
 24 25  2  0
 26 29  1  0
 26 25  1  0
 27 26  2  0
 28 27  1  0
 28 23  2  0
 29 30  1  0
 30 31  1  0
 31 32  2  0
 33 32  1  0
 33 37  1  0
 34 33  2  0
 35 30  2  0
 35 34  1  0
 36 35  1  0
 38 39  1  0
 39 42  1  0
 39 41  1  0
 40 38  2  0
 43 18  1  0
 43 44  1  0
 45 43  1  0
 46  1  1  0
 46 47  2  0
 48 47  1  0
 48 49  2  0
 50 49  1  0
 51 62  2  0
 52 50  1  0
 52 57  1  0
 53 61  1  0
 53 63  1  0
 54 60  1  0
 54 56  1  0
 55 61  1  0
 56 57  2  0
 56 55  1  0
 58 52  2  0
 59 58  1  0
 59 54  2  0
 60 53  1  0
 61 51  1  0
 63 65  2  0
 64 63  1  0
 66 64  1  0
 67 76  2  0
 67 72  1  0
 68 64  1  0
 68 72  1  0
 69 68  1  0
 70 71  1  0
 70 69  1  0
 71 67  1  0
 72 73  2  0
 73 74  1  0
 75 74  2  0
 76 75  1  0
 77 51  1  0
 77 78  1  0
 77 87  1  0
 78 81  1  0
 79 83  1  0
 79 78  1  0
 80 79  2  0
 83 82  1  0
 85 83  1  0
 85 86  1  0
 85 84  1  0
 87 90  1  1
 87 88  1  0
 89 87  1  0
M  ISO  4   6 100  10 100  49 101  50 101
M  END
>  <TORSDO>  (76) 
F 22

>  <SCORE>  (76) 
-8.182

>  <name>  (76) 
75

>  <ligand_id>  (76) 
75

>  <original_smiles>  (76) 
[H]c1c([H])c([H])c2c(c1[H])C([H])([H])C([H])([H])C([H])([H])C2([H])N([H])C(=O)C1([H])N(C(=O)C([H])(N([H])C(=O)C([H])(N([H])C([H])([H])[H])C([H])([H])[H])C(C([H])([H])[H])(C([H])([H])[H])C([H])([H])[H])C([H])([H])c2c([H])c(OC([H])([H])C([H])([H])C([H])([H])C([H])([H])C([H])([H])C([H])([H])C3([H])C([H])(C(=O)N4C([H])([H])C([H])([H])C([H])([H])C([H])(n5nc(-c6c([H])c([H])c(Oc7c([H])c([H])c(F)c([H])c7F)c([H])c6[H])c(C(=O)N([H])[H])c5N([H])[H])C4([H])[H])C4([H])C([H])([H])C([H])([H])C([H])([H])C34[H])c([H])c([H])c2C1([H])[H]

>  <smiles>  (76) 
[H]c1c([H])c([H])c2c(c1[H])C([H])([H])C([H])([H])C([H])([H])C2([H])N([H])C(=O)C1([H])N(C(=O)C([H])(N([H])C(=O)C([H])(N([H])C([H])([H])[H])C([H])([H])[H])C(C([H])([H])[H])(C([H])([H])[H])C([H])([H])[H])C([H])([H])c2c([H])c(OC([H])([H])C([H])([H])C([H])([H])C([H])([H])C([H])([H])C([H])([H])C3([H])C([H])(C(=O)N4C([H])([H])C([H])([H])C([H])([H])C([H])(n5nc(-c6c([H])c([H])c(Oc7c([H])c([H])c(F)c([H])c7F)c([H])c6[H])c(C(=O)N([H])[H])c5N([H])[H])C4([H])[H])C4([H])C([H])([H])C([H])([H])C([H])([H])C34[H])c([H])c([H])c2C1([H])[H]

$$$$
76:0:0
     RDKit          3D

 96106  0  0  1  0  0  0  0  0999 V2000
  -30.5570  -21.9890   17.2640 C   0  0  0  0  0  2  0  0  0  0  0  0
  -29.8900  -23.3100   16.8710 C   0  0  0  0  0  2  0  0  0  0  0  0
  -30.2890  -23.3660   19.2510 C   0  0  0  0  0  2  0  0  0  0  0  0
  -31.0920  -22.1720   18.6920 C   0  0  0  0  0  3  0  0  0  0  0  0
  -30.1530  -24.2900   18.0250 C   0  0  0  0  0  3  0  0  0  0  0  0
  -32.1140  -19.9130   19.1660 C   0  0  0  0  0  3  0  0  0  0  0  0
  -32.0870  -18.6240   19.7240 C   0  0  0  0  0  3  0  0  0  0  0  0
  -30.0980  -20.4800   20.3830 C   0  0  0  0  0  3  0  0  0  0  0  0
  -31.1010  -20.8460   19.4610 C   0  0  0  0  0  0  0  0  0  0  0  0
  -31.0490  -18.2170   20.5930 C   0  0  0  0  0  0  0  0  0  0  0  0
  -30.0620  -19.1840   20.9490 C   0  0  0  0  0  0  0  0  0  0  0  0
  -28.9170  -18.8770   21.9000 C   0  0  0  0  0  1  0  0  0  0  0  0
  -29.9490  -15.9460   21.5980 C   0  0  0  0  0  2  0  0  0  0  0  0
  -31.0740  -16.7470   20.9910 C   0  0  0  0  0  3  0  0  0  0  0  0
  -30.3010  -15.7280   20.1400 C   0  0  2  0  0  0  0  0  0  0  0  0
  -29.4800  -16.3080   18.9840 C   0  0  0  0  0  1  0  0  0  0  0  0
  -31.0290  -14.4670   19.7250 C   0  0  0  0  0  0  0  0  0  0  0  0
  -30.5480  -12.3750   18.5190 C   0  0  0  0  0  2  0  0  0  0  0  0
  -29.4890  -12.6760   17.4350 C   0  0  0  0  0  2  0  0  0  0  0  0
  -28.0630  -12.5580   18.0090 C   0  0  0  0  0  2  0  0  0  0  0  0
  -27.8840  -13.3150   19.3520 C   0  0  0  0  0  3  0  0  0  0  0  0
  -29.0500  -13.0000   20.3150 C   0  0  0  0  0  2  0  0  0  0  0  0
  -30.3190  -13.3060   19.6350 N   0  0  0  0  0  0  0  0  0  0  0  0
  -32.1580  -14.5830   19.2430 O   0  0  0  0  0  0  0  0  0  0  0  0
  -25.5890  -13.9400   20.3330 C   0  0  0  0  0  0  0  0  0  0  0  0
  -24.5490  -13.1710   20.7770 C   0  0  0  0  0  0  0  0  0  0  0  0
  -24.9740  -11.8130   20.6390 C   0  0  0  0  0  0  0  0  0  0  0  0
  -26.5850  -13.0490   19.9590 N   0  0  0  0  0  0  0  0  0  0  0  0
  -26.2250  -11.7640   20.2010 N   0  0  0  0  0  0  0  0  0  0  0  0
  -24.2460  -10.5550   20.8420 C   0  0  0  0  0  0  0  0  0  0  0  0
  -24.6740   -9.5960   21.7890 C   0  0  0  0  0  3  0  0  0  0  0  0
  -23.9450   -8.4020   21.9740 C   0  0  0  0  0  3  0  0  0  0  0  0
  -22.7760   -8.1600   21.2150 C   0  0  0  0  0  0  0  0  0  0  0  0
  -22.3670   -9.1070   20.2590 C   0  0  0  0  0  3  0  0  0  0  0  0
  -23.0950  -10.2920   20.0690 C   0  0  0  0  0  3  0  0  0  0  0  0
  -22.0200   -7.0170   21.3130 O   0  0  0  0  0  0  0  0  0  0  0  0
  -21.8520   -6.3680   22.5080 C   0  0  0  0  0  0  0  0  0  0  0  0
  -21.2830   -7.0080   23.6320 C   0  0  0  0  0  3  0  0  0  0  0  0
  -21.0600   -6.2810   24.8190 C   0  0  0  0  0  3  0  0  0  0  0  0
  -21.4000   -4.9180   24.8850 C   0  0  0  0  0  0  0  0  0  0  0  0
  -21.9640   -4.2770   23.7670 C   0  0  0  0  0  3  0  0  0  0  0  0
  -22.1850   -4.9990   22.5810 C   0  0  0  0  0  0  0  0  0  0  0  0
  -22.7070   -4.3720   21.5000 F   0  0  0  0  0  0  0  0  0  0  0  0
  -21.1780   -4.2190   26.0220 F   0  0  0  0  0  0  0  0  0  0  0  0
  -23.1990  -13.6600   21.2120 C   0  0  0  0  0  0  0  0  0  0  0  0
  -22.5580  -12.9510   22.1320 N   0  0  0  0  0  0  0  0  0  0  0  0
  -22.7220  -14.7060   20.7700 O   0  0  0  0  0  0  0  0  0  0  0  0
  -22.9580  -12.1040   22.5080 H   0  0  0  0  0  0  0  0  0  0  0  0
  -21.6540  -13.2540   22.4670 H   0  0  0  0  0  0  0  0  0  0  0  0
  -25.7630  -15.3150   20.1970 N   0  0  0  0  0  0  0  0  0  0  0  0
  -25.0250  -15.9760   20.4130 H   0  0  0  0  0  0  0  0  0  0  0  0
  -26.5780  -15.7550   19.7930 H   0  0  0  0  0  0  0  0  0  0  0  0
  -29.0740  -25.4020   18.0800 C   0  0  0  0  0  2  0  0  0  0  0  0
  -30.8680  -27.0210   19.0680 C   0  0  0  0  0  1  0  0  0  0  0  0
  -29.3780  -26.7150   18.8500 C   0  0  0  0  0  3  0  0  0  0  0  0
  -28.7270  -26.7650   20.1190 O   0  0  0  0  0  0  0  0  0  0  0  0
  -24.7560  -31.8160   23.1960 C   0  0  0  0  0  0  0  0  0  0  0  0
  -27.5380  -27.4580   20.1320 C   0  0  0  0  0  0  0  0  0  0  0  0
  -23.6040  -30.4070   21.5210 C   0  0  0  0  0  3  0  0  0  0  0  0
  -25.1110  -28.8990   20.1200 C   0  0  0  0  0  0  0  0  0  0  0  0
  -26.1250  -30.8090   21.3750 C   0  0  0  0  0  2  0  0  0  0  0  0
  -26.2460  -29.4410   20.7370 C   0  0  0  0  0  0  0  0  0  0  0  0
  -27.4600  -28.7210   20.7550 C   0  0  0  0  0  3  0  0  0  0  0  0
  -26.3860  -26.9160   19.5230 C   0  0  0  0  0  3  0  0  0  0  0  0
  -25.1740  -27.6300   19.5180 C   0  0  0  0  0  3  0  0  0  0  0  0
  -23.8540  -29.7370   20.1420 C   0  0  0  0  0  2  0  0  0  0  0  0
  -24.8460  -31.0250   22.0900 N   0  0  0  0  0  0  0  0  0  0  0  0
  -23.6600  -32.0690   23.7160 O   0  0  0  0  0  0  0  0  0  0  0  0
  -22.9510  -29.3690   22.4610 C   0  0  0  0  0  0  0  0  0  0  0  0
  -21.6320  -29.1730   22.3090 N   0  0  0  0  0  0  0  0  0  0  0  0
  -23.6280  -28.7430   23.2810 O   0  0  0  0  0  0  0  0  0  0  0  0
  -21.1460  -29.7310   21.6200 H   0  0  0  0  0  0  0  0  0  0  0  0
  -18.2600  -27.9510   22.7470 C   0  0  0  0  0  0  0  0  0  0  0  0
  -20.8130  -28.2200   23.0560 C   0  0  0  0  0  3  0  0  0  0  0  0
  -20.9310  -26.7970   22.4600 C   0  0  0  0  0  2  0  0  0  0  0  0
  -19.8450  -26.4820   21.4280 C   0  0  0  0  0  2  0  0  0  0  0  0
  -18.4530  -26.6120   22.0560 C   0  0  0  0  0  2  0  0  0  0  0  0
  -19.3690  -28.7130   23.2030 C   0  0  0  0  0  0  0  0  0  0  0  0
  -19.1360  -29.9680   23.8070 C   0  0  0  0  0  3  0  0  0  0  0  0
  -17.8270  -30.4600   23.9620 C   0  0  0  0  0  3  0  0  0  0  0  0
  -16.7330  -29.6950   23.5230 C   0  0  0  0  0  3  0  0  0  0  0  0
  -16.9500  -28.4420   22.9230 C   0  0  0  0  0  3  0  0  0  0  0  0
  -26.0200  -32.4600   23.8470 C   0  0  0  0  0  3  0  0  0  0  0  0
  -26.5590  -31.6530   25.0910 C   0  0  1  0  0  0  0  0  0  0  0  0
  -25.4720  -31.3340   26.1430 C   0  0  0  0  0  1  0  0  0  0  0  0
  -27.1900  -30.3160   24.6390 C   0  0  0  0  0  1  0  0  0  0  0  0
  -27.6820  -32.4580   25.7910 C   0  0  0  0  0  1  0  0  0  0  0  0
  -25.6700  -33.8350   24.2280 N   0  0  0  0  0  0  0  0  0  0  0  0
  -25.9600  -34.9220   23.5000 C   0  0  0  0  0  0  0  0  0  0  0  0
  -26.6210  -34.8740   22.4590 O   0  0  0  0  0  0  0  0  0  0  0  0
  -25.0810  -33.9440   25.0410 H   0  0  0  0  0  0  0  0  0  0  0  0
  -24.1620  -36.6580   23.2270 C   0  0  0  0  0  1  0  0  0  0  0  0
  -25.4290  -36.2770   24.0070 C   0  0  0  0  0  3  0  0  0  0  0  0
  -27.5410  -37.2140   24.8370 C   0  0  0  0  0  1  0  0  0  0  0  0
  -26.4220  -37.3690   23.9110 N   0  0  0  0  0  0  0  0  0  0  0  0
  -25.9850  -38.2690   24.0890 H   0  0  0  0  0  0  0  0  0  0  0  0
  1  4  1  0
  2  1  1  0
  2  5  1  0
  4  3  1  0
  4  9  1  0
  5 53  1  0
  5  3  1  0
  6  9  2  0
  6  7  1  0
  7 10  2  0
  8 11  2  0
  9  8  1  0
 10 11  1  0
 11 12  1  0
 14 10  1  0
 14 13  1  0
 15 16  1  6
 15 14  1  0
 15 13  1  0
 17 15  1  0
 18 23  1  0
 19 20  1  0
 19 18  1  0
 21 20  1  0
 21 28  1  0
 21 22  1  0
 23 17  1  0
 23 22  1  0
 24 17  2  0
 25 26  2  0
 26 45  1  0
 27 26  1  0
 27 30  1  0
 28 29  1  0
 28 25  1  0
 29 27  2  0
 30 31  1  0
 31 32  2  0
 33 36  1  0
 33 32  1  0
 34 33  2  0
 35 34  1  0
 35 30  2  0
 36 37  1  0
 37 42  2  0
 37 38  1  0
 38 39  2  0
 39 40  1  0
 40 44  1  0
 41 40  2  0
 42 41  1  0
 43 42  1  0
 45 46  1  0
 46 49  1  0
 46 48  1  0
 47 45  2  0
 50 25  1  0
 50 51  1  0
 52 50  1  0
 53 55  1  0
 55 54  1  0
 55 56  1  0
 56 58  1  0
 57 68  2  0
 58 63  1  0
 59 67  1  0
 59 69  1  0
 60 66  1  0
 60 62  1  0
 61 67  1  0
 62 63  2  0
 62 61  1  0
 64 58  2  0
 65 64  1  0
 65 60  2  0
 66 59  1  0
 67 57  1  0
 69 71  2  0
 70 69  1  0
 72 70  1  0
 73 82  2  0
 73 78  1  0
 74 70  1  0
 74 78  1  0
 75 74  1  0
 76 77  1  0
 76 75  1  0
 77 73  1  0
 78 79  2  0
 79 80  1  0
 81 80  2  0
 82 81  1  0
 83 57  1  0
 83 88  1  0
 83 84  1  0
 84 87  1  1
 84 85  1  0
 86 84  1  0
 88 91  1  0
 89 93  1  0
 89 88  1  0
 90 89  2  0
 93 92  1  0
 95 93  1  0
 95 96  1  0
 95 94  1  0
M  ISO  4  15 100  17 100  55 101  56 101
M  END
>  <TORSDO>  (77) 
F 20

>  <SCORE>  (77) 
-11.400

>  <name>  (77) 
76

>  <ligand_id>  (77) 
76

>  <original_smiles>  (77) 
[H]c1c([H])c([H])c2c(c1[H])C([H])([H])C([H])([H])C([H])([H])C2([H])N([H])C(=O)C1([H])N(C(=O)C([H])(N([H])C(=O)C([H])(N([H])C([H])([H])[H])C([H])([H])[H])C(C([H])([H])[H])(C([H])([H])[H])C([H])([H])[H])C([H])([H])c2c([H])c(OC([H])(C([H])([H])[H])C([H])([H])C3([H])C([H])([H])C([H])([H])C([H])(c4c([H])c([H])c(C5([H])C([H])([H])C5(C(=O)N5C([H])([H])C([H])([H])C([H])([H])C([H])(n6nc(-c7c([H])c([H])c(Oc8c([H])c([H])c(F)c([H])c8F)c([H])c7[H])c(C(=O)N([H])[H])c6N([H])[H])C5([H])[H])C([H])([H])[H])c(C([H])([H])[H])c4[H])C3([H])[H])c([H])c([H])c2C1([H])[H]

>  <smiles>  (77) 
[H]c1c([H])c([H])c2c(c1[H])C([H])([H])C([H])([H])C([H])([H])C2([H])N([H])C(=O)C1([H])N(C(=O)C([H])(N([H])C(=O)C([H])(N([H])C([H])([H])[H])C([H])([H])[H])C(C([H])([H])[H])(C([H])([H])[H])C([H])([H])[H])C([H])([H])c2c([H])c(OC([H])(C([H])([H])[H])C([H])([H])C3([H])C([H])([H])C([H])([H])C([H])(c4c([H])c([H])c(C5([H])C([H])([H])C5(C(=O)N5C([H])([H])C([H])([H])C([H])([H])C([H])(n6nc(-c7c([H])c([H])c(Oc8c([H])c([H])c(F)c([H])c8F)c([H])c7[H])c(C(=O)N([H])[H])c6N([H])[H])C5([H])[H])C([H])([H])[H])c(C([H])([H])[H])c4[H])C3([H])[H])c([H])c([H])c2C1([H])[H]

$$$$
77:0:0
     RDKit          3D

 97106  0  0  1  0  0  0  0  0999 V2000
  -29.3810  -20.5120   23.1410 C   0  0  0  0  0  2  0  0  0  0  0  0
  -30.9160  -21.8700   21.4680 C   0  0  0  0  0  2  0  0  0  0  0  0
  -29.1100  -19.4770   20.7360 C   0  0  0  0  0  2  0  0  0  0  0  0
  -30.6980  -20.7100   22.4350 C   0  0  0  0  0  3  0  0  0  0  0  0
  -29.8160  -19.5190   22.0810 C   0  0  0  0  0  3  0  0  0  0  0  0
  -30.0950  -21.8000   20.1580 C   0  0  0  0  0  3  0  0  0  0  0  0
  -30.0060  -20.0630   19.6180 C   0  0  2  0  0  0  0  0  0  0  0  0
  -29.2190  -20.0610   18.3710 N   0  0  0  0  0  4  0  0  0  0  0  0
  -28.3560  -20.5590   18.4810 H   0  0  0  0  0  0  0  0  0  0  0  0
  -29.0070  -19.1170   18.1020 H   0  0  0  0  0  0  0  0  0  0  0  0
  -29.7340  -20.4850   17.6170 H   0  0  0  0  0  0  0  0  0  0  0  0
  -30.0840  -23.4370   19.4430 C   0  0  0  0  0  3  0  0  0  0  0  0
  -32.0670  -25.1410   19.4210 C   0  0  0  0  0  1  0  0  0  0  0  0
  -31.5450  -23.7520   19.0340 C   0  0  0  0  0  2  0  0  0  0  0  0
  -29.2570  -24.9090   20.0370 C   0  0  0  0  0  2  0  0  0  0  0  0
  -29.1830  -26.4860   19.6130 O   0  0  0  0  0  0  0  0  0  0  0  0
  -24.7400  -31.4870   23.0650 C   0  0  0  0  0  0  0  0  0  0  0  0
  -28.0260  -27.3950   19.6830 C   0  0  0  0  0  0  0  0  0  0  0  0
  -23.8030  -30.1440   21.2250 C   0  0  0  0  0  3  0  0  0  0  0  0
  -25.5010  -28.9090   19.7230 C   0  0  0  0  0  0  0  0  0  0  0  0
  -26.3130  -30.7200   21.2260 C   0  0  0  0  0  2  0  0  0  0  0  0
  -26.5990  -29.4140   20.4320 C   0  0  0  0  0  0  0  0  0  0  0  0
  -27.8620  -28.6820   20.3840 C   0  0  0  0  0  3  0  0  0  0  0  0
  -26.8850  -27.0290   18.9410 C   0  0  0  0  0  3  0  0  0  0  0  0
  -25.6620  -27.7400   18.9630 C   0  0  0  0  0  3  0  0  0  0  0  0
  -24.1700  -29.6520   19.8000 C   0  0  0  0  0  2  0  0  0  0  0  0
  -24.9680  -30.8070   21.8940 N   0  0  0  0  0  0  0  0  0  0  0  0
  -23.6040  -31.5690   23.5590 O   0  0  0  0  0  0  0  0  0  0  0  0
  -23.2200  -28.9620   22.0420 C   0  0  0  0  0  0  0  0  0  0  0  0
  -21.9290  -28.6420   21.8350 N   0  0  0  0  0  0  0  0  0  0  0  0
  -23.9400  -28.3350   22.8230 O   0  0  0  0  0  0  0  0  0  0  0  0
  -21.3980  -29.2170   21.1960 H   0  0  0  0  0  0  0  0  0  0  0  0
  -18.7120  -26.9840   22.0810 C   0  0  0  0  0  0  0  0  0  0  0  0
  -21.2160  -27.5210   22.4550 C   0  0  0  0  0  3  0  0  0  0  0  0
  -21.4990  -26.1960   21.7110 C   0  0  0  0  0  2  0  0  0  0  0  0
  -20.4620  -25.8730   20.6300 C   0  0  0  0  0  2  0  0  0  0  0  0
  -19.0650  -25.7650   21.2430 C   0  0  0  0  0  2  0  0  0  0  0  0
  -19.7230  -27.8170   22.6340 C   0  0  0  0  0  0  0  0  0  0  0  0
  -19.3410  -28.9550   23.3780 C   0  0  0  0  0  3  0  0  0  0  0  0
  -17.9820  -29.2680   23.5720 C   0  0  0  0  0  3  0  0  0  0  0  0
  -16.9870  -28.4360   23.0320 C   0  0  0  0  0  3  0  0  0  0  0  0
  -17.3510  -27.2940   22.2960 C   0  0  0  0  0  3  0  0  0  0  0  0
  -25.8900  -32.2150   23.8220 C   0  0  0  0  0  3  0  0  0  0  0  0
  -25.4170  -33.5660   24.1700 N   0  0  0  0  0  0  0  0  0  0  0  0
  -25.7120  -34.6810   23.4900 C   0  0  0  0  0  0  0  0  0  0  0  0
  -26.4750  -34.6870   22.5220 O   0  0  0  0  0  0  0  0  0  0  0  0
  -24.7430  -33.6250   24.9200 H   0  0  0  0  0  0  0  0  0  0  0  0
  -23.8630  -36.3380   23.0570 C   0  0  0  0  0  1  0  0  0  0  0  0
  -25.0630  -36.0000   23.9570 C   0  0  0  0  0  3  0  0  0  0  0  0
  -27.0290  -37.0320   25.0120 C   0  0  0  0  0  1  0  0  0  0  0  0
  -26.0010  -37.1460   23.9810 N   0  0  0  0  0  0  0  0  0  0  0  0
  -25.4980  -38.0160   24.1300 H   0  0  0  0  0  0  0  0  0  0  0  0
  -26.3490  -31.4500   25.1240 C   0  0  1  0  0  0  0  0  0  0  0  0
  -25.1790  -31.0380   26.0510 C   0  0  0  0  0  1  0  0  0  0  0  0
  -27.1370  -30.1700   24.7660 C   0  0  0  0  0  1  0  0  0  0  0  0
  -27.3120  -32.3440   25.9410 C   0  0  0  0  0  1  0  0  0  0  0  0
  -31.1600  -18.7020   19.4220 C   0  0  0  0  0  0  0  0  0  0  0  0
  -31.7400  -15.8400   19.8470 C   0  0  0  0  0  0  0  0  0  0  0  0
  -31.7250  -13.3290   19.2530 C   0  0  0  0  0  2  0  0  0  0  0  0
  -30.8270  -13.0380   18.0260 C   0  0  0  0  0  2  0  0  0  0  0  0
  -29.3640  -12.8270   18.4570 C   0  0  0  0  0  2  0  0  0  0  0  0
  -28.9030  -13.8770   19.5010 C   0  0  0  0  0  3  0  0  0  0  0  0
  -29.9360  -14.1260   20.6200 C   0  0  0  0  0  2  0  0  0  0  0  0
  -31.1770  -14.5430   19.9570 N   0  0  0  0  0  0  0  0  0  0  0  0
  -32.9490  -15.8090   19.6060 O   0  0  0  0  0  0  0  0  0  0  0  0
  -30.9600  -17.0930   19.8100 N   0  0  0  0  0  4  0  0  0  0  0  0
  -29.9980  -16.8890   20.0310 H   0  0  0  0  0  0  0  0  0  0  0  0
  -26.5550  -14.4940   20.2770 C   0  0  0  0  0  0  0  0  0  0  0  0
  -25.4790  -13.7440   20.6650 C   0  0  0  0  0  0  0  0  0  0  0  0
  -25.9140  -12.3850   20.6360 C   0  0  0  0  0  0  0  0  0  0  0  0
  -27.5730  -13.5940   20.0250 N   0  0  0  0  0  0  0  0  0  0  0  0
  -27.2000  -12.3190   20.3070 N   0  0  0  0  0  0  0  0  0  0  0  0
  -25.1570  -11.1410   20.8350 C   0  0  0  0  0  0  0  0  0  0  0  0
  -25.4410  -10.2640   21.9050 C   0  0  0  0  0  3  0  0  0  0  0  0
  -24.6810   -9.0890   22.0880 C   0  0  0  0  0  3  0  0  0  0  0  0
  -23.6230   -8.7810   21.1990 C   0  0  0  0  0  0  0  0  0  0  0  0
  -23.3580   -9.6470   20.1240 C   0  0  0  0  0  3  0  0  0  0  0  0
  -24.1190  -10.8140   19.9400 C   0  0  0  0  0  3  0  0  0  0  0  0
  -22.8490   -7.6490   21.2840 O   0  0  0  0  0  0  0  0  0  0  0  0
  -22.3550   -7.2030   22.4850 C   0  0  0  0  0  0  0  0  0  0  0  0
  -21.5280   -8.0100   23.2940 C   0  0  0  0  0  3  0  0  0  0  0  0
  -20.9860   -7.4880   24.4860 C   0  0  0  0  0  3  0  0  0  0  0  0
  -21.2600   -6.1600   24.8630 C   0  0  0  0  0  0  0  0  0  0  0  0
  -22.0810   -5.3540   24.0540 C   0  0  0  0  0  3  0  0  0  0  0  0
  -22.6230   -5.8740   22.8660 C   0  0  0  0  0  0  0  0  0  0  0  0
  -23.3950   -5.0840   22.0800 F   0  0  0  0  0  0  0  0  0  0  0  0
  -20.7340   -5.6560   26.0030 F   0  0  0  0  0  0  0  0  0  0  0  0
  -24.0980  -14.2610   20.9430 C   0  0  0  0  0  0  0  0  0  0  0  0
  -23.3710  -13.6080   21.8420 N   0  0  0  0  0  0  0  0  0  0  0  0
  -23.6750  -15.2780   20.3960 O   0  0  0  0  0  0  0  0  0  0  0  0
  -23.7240  -12.7830   22.3020 H   0  0  0  0  0  0  0  0  0  0  0  0
  -22.4460  -13.9450   22.0740 H   0  0  0  0  0  0  0  0  0  0  0  0
  -26.7410  -15.8590   20.0830 N   0  0  0  0  0  0  0  0  0  0  0  0
  -25.9580  -16.4990   20.1360 H   0  0  0  0  0  0  0  0  0  0  0  0
  -27.5400  -16.2520   19.6080 H   0  0  0  0  0  0  0  0  0  0  0  0
  -33.6820  -18.8030   18.7300 C   0  0  0  0  0  1  0  0  0  0  0  0
  -32.5900  -19.1950   19.7410 C   0  0  0  0  0  2  0  0  0  0  0  0
  4  2  1  0
  4  1  1  0
  5  3  1  0
  5  4  1  0
  5  1  1  0
  6 12  1  0
  6  2  1  0
  7 57  1  0
  7  6  1  0
  7  3  1  0
  8  9  1  0
  7  8  1  6
 10  8  1  0
 11  8  1  0
 12 14  1  0
 12 15  1  0
 14 13  1  0
 16 18  1  0
 16 15  1  0
 17 28  2  0
 18 23  1  0
 19 27  1  0
 19 29  1  0
 20 26  1  0
 20 22  1  0
 21 27  1  0
 22 21  1  0
 23 22  2  0
 24 25  1  0
 24 18  2  0
 25 20  2  0
 26 19  1  0
 27 17  1  0
 29 31  2  0
 30 29  1  0
 32 30  1  0
 33 42  2  0
 33 38  1  0
 34 30  1  0
 34 38  1  0
 35 34  1  0
 36 37  1  0
 36 35  1  0
 37 33  1  0
 38 39  2  0
 39 40  1  0
 41 40  2  0
 42 41  1  0
 43 17  1  0
 43 44  1  0
 43 53  1  0
 44 47  1  0
 45 49  1  0
 45 44  1  0
 46 45  2  0
 49 48  1  0
 49 51  1  0
 51 52  1  0
 51 50  1  0
 53 56  1  1
 53 54  1  0
 55 53  1  0
 57 97  1  0
 57 66  2  0
 58 64  1  0
 59 64  1  0
 60 61  1  0
 60 59  1  0
 62 61  1  0
 62 71  1  0
 62 63  1  0
 64 63  1  0
 65 58  2  0
 66 58  1  0
 66 67  1  0
 68 69  2  0
 69 88  1  0
 70 69  1  0
 70 73  1  0
 71 68  1  0
 71 72  1  0
 72 70  2  0
 73 74  1  0
 74 75  2  0
 76 79  1  0
 76 75  1  0
 77 76  2  0
 78 77  1  0
 78 73  2  0
 79 80  1  0
 80 85  2  0
 80 81  1  0
 81 82  2  0
 82 83  1  0
 83 87  1  0
 84 83  2  0
 85 84  1  0
 86 85  1  0
 88 89  1  0
 89 92  1  0
 89 91  1  0
 90 88  2  0
 93 94  1  0
 93 68  1  0
 95 93  1  0
 96 97  1  0
M  ISO  4  15 101  16 101  58 100  66 100
M  END
>  <TORSDO>  (78) 
F 22

>  <SCORE>  (78) 
-8.880

>  <name>  (78) 
77

>  <ligand_id>  (78) 
77

>  <original_smiles>  (78) 
[H]c1c([H])c([H])c2c(c1[H])C([H])([H])C([H])([H])C([H])([H])C2([H])N([H])C(=O)C1([H])N(C(=O)C([H])(N([H])C(=O)C([H])(N([H])C([H])([H])[H])C([H])([H])[H])C(C([H])([H])[H])(C([H])([H])[H])C([H])([H])[H])C([H])([H])c2c([H])c(OC([H])([H])C([H])(C([H])([H])C([H])([H])[H])C3([H])C([H])([H])C4([H])C([H])([H])C4([H])C([H])([H])C3(C([H])(N([H])C(=O)N3C([H])([H])C([H])([H])C([H])([H])C([H])(n4nc(-c5c([H])c([H])c(Oc6c([H])c([H])c(F)c([H])c6F)c([H])c5[H])c(C(=O)N([H])[H])c4N([H])[H])C3([H])[H])C([H])([H])C([H])([H])[H])[N+]([H])([H])[H])c([H])c([H])c2C1([H])[H]

>  <smiles>  (78) 
[H]c1c([H])c([H])c2c(c1[H])C([H])([H])C([H])([H])C([H])([H])C2([H])N([H])C(=O)C1([H])N(C(=O)C([H])(N([H])C(=O)C([H])(N([H])C([H])([H])[H])C([H])([H])[H])C(C([H])([H])[H])(C([H])([H])[H])C([H])([H])[H])C([H])([H])c2c([H])c(OC([H])([H])C([H])(C([H])([H])C([H])([H])[H])C3([H])C([H])([H])C4([H])C([H])([H])C4([H])C([H])([H])C3(C([H])(N([H])C(=O)N3C([H])([H])C([H])([H])C([H])([H])C([H])(n4nc(-c5c([H])c([H])c(Oc6c([H])c([H])c(F)c([H])c6F)c([H])c5[H])c(C(=O)N([H])[H])c4N([H])[H])C3([H])[H])C([H])([H])C([H])([H])[H])[N+]([H])([H])[H])c([H])c([H])c2C1([H])[H]

$$$$
78:0:0
     RDKit          3D

 97106  0  0  1  0  0  0  0  0999 V2000
  -29.2090  -23.0060   22.4330 C   0  0  0  0  0  3  0  0  0  0  0  0
  -29.1920  -22.7820   21.1100 C   0  0  0  0  0  0  0  0  0  0  0  0
  -28.9050  -24.3490   23.0420 C   0  0  0  0  0  2  0  0  0  0  0  0
  -28.9470  -24.0090   20.1760 C   0  0  0  0  0  2  0  0  0  0  0  0
  -27.7440  -25.0090   22.2820 C   0  0  0  0  0  3  0  0  0  0  0  0
  -28.0150  -25.1750   20.7440 C   0  0  0  0  0  3  0  0  0  0  0  0
  -28.6170  -20.3330   20.5580 C   0  0  0  0  0  3  0  0  0  0  0  0
  -30.9310  -21.0200   20.6760 C   0  0  0  0  0  3  0  0  0  0  0  0
  -29.0170  -18.9670   20.4210 C   0  0  0  0  0  3  0  0  0  0  0  0
  -31.3250  -19.6680   20.5370 C   0  0  0  0  0  3  0  0  0  0  0  0
  -29.5690  -21.3780   20.7120 C   0  0  0  0  0  0  0  0  0  0  0  0
  -30.3890  -18.6080   20.4310 C   0  0  0  0  0  0  0  0  0  0  0  0
  -30.9840  -17.1750   20.2990 C   0  0  0  0  0  2  0  0  0  0  0  0
  -30.8670  -14.7070   20.1680 C   0  0  0  0  0  0  0  0  0  0  0  0
  -30.5150  -12.4950   19.1280 C   0  0  0  0  0  2  0  0  0  0  0  0
  -29.5530  -12.6290   17.9330 C   0  0  0  0  0  2  0  0  0  0  0  0
  -28.0970  -12.4750   18.4050 C   0  0  0  0  0  2  0  0  0  0  0  0
  -27.7690  -13.3460   19.6480 C   0  0  0  0  0  3  0  0  0  0  0  0
  -28.8620  -13.2470   20.7360 C   0  0  0  0  0  2  0  0  0  0  0  0
  -30.1520  -13.5440   20.1020 N   0  0  0  0  0  0  0  0  0  0  0  0
  -32.0340  -14.7450   19.7760 O   0  0  0  0  0  0  0  0  0  0  0  0
  -30.2370  -15.8860   20.4570 N   0  0  0  0  0  0  0  0  0  0  0  0
  -29.2640  -15.8930   20.7200 H   0  0  0  0  0  0  0  0  0  0  0  0
  -25.4040  -13.9120   20.4660 C   0  0  0  0  0  0  0  0  0  0  0  0
  -24.3520  -13.1250   20.8530 C   0  0  0  0  0  0  0  0  0  0  0  0
  -24.8170  -11.7770   20.7750 C   0  0  0  0  0  0  0  0  0  0  0  0
  -26.4430  -13.0420   20.1780 N   0  0  0  0  0  0  0  0  0  0  0  0
  -26.0980  -11.7520   20.4250 N   0  0  0  0  0  0  0  0  0  0  0  0
  -24.1000  -10.5080   20.9580 C   0  0  0  0  0  0  0  0  0  0  0  0
  -24.5150   -9.5560   21.9150 C   0  0  0  0  0  3  0  0  0  0  0  0
  -23.7960   -8.3530   22.0860 C   0  0  0  0  0  3  0  0  0  0  0  0
  -22.6490   -8.0930   21.2990 C   0  0  0  0  0  0  0  0  0  0  0  0
  -22.2550   -9.0330   20.3310 C   0  0  0  0  0  3  0  0  0  0  0  0
  -22.9730  -10.2280   20.1590 C   0  0  0  0  0  3  0  0  0  0  0  0
  -21.9050   -6.9400   21.3770 O   0  0  0  0  0  0  0  0  0  0  0  0
  -21.7660   -6.2530   22.5560 C   0  0  0  0  0  0  0  0  0  0  0  0
  -21.1770   -6.8420   23.6960 C   0  0  0  0  0  3  0  0  0  0  0  0
  -20.9880   -6.0760   24.8650 C   0  0  0  0  0  3  0  0  0  0  0  0
  -21.3790   -4.7250   24.8940 C   0  0  0  0  0  0  0  0  0  0  0  0
  -21.9610   -4.1360   23.7570 C   0  0  0  0  0  3  0  0  0  0  0  0
  -22.1500   -4.8970   22.5910 C   0  0  0  0  0  0  0  0  0  0  0  0
  -22.6920   -4.3180   21.4920 F   0  0  0  0  0  0  0  0  0  0  0  0
  -21.1920   -3.9880   26.0130 F   0  0  0  0  0  0  0  0  0  0  0  0
  -22.9630  -13.5920   21.1780 C   0  0  0  0  0  0  0  0  0  0  0  0
  -22.2590  -12.8650   22.0390 N   0  0  0  0  0  0  0  0  0  0  0  0
  -22.5120  -14.6340   20.7070 O   0  0  0  0  0  0  0  0  0  0  0  0
  -22.6390  -12.0220   22.4420 H   0  0  0  0  0  0  0  0  0  0  0  0
  -21.3290  -13.1590   22.3000 H   0  0  0  0  0  0  0  0  0  0  0  0
  -25.5560  -15.2870   20.3140 N   0  0  0  0  0  0  0  0  0  0  0  0
  -24.7890  -15.9330   20.4640 H   0  0  0  0  0  0  0  0  0  0  0  0
  -26.3860  -15.7360   19.9500 H   0  0  0  0  0  0  0  0  0  0  0  0
  -28.3340  -26.5700   20.3220 O   0  0  0  0  0  0  0  0  0  0  0  0
  -24.5860  -31.9380   23.2150 C   0  0  0  0  0  0  0  0  0  0  0  0
  -27.2490  -27.4420   20.1640 C   0  0  0  0  0  0  0  0  0  0  0  0
  -23.3990  -30.5220   21.5770 C   0  0  0  0  0  3  0  0  0  0  0  0
  -24.8680  -29.0040   20.1420 C   0  0  0  0  0  0  0  0  0  0  0  0
  -25.9280  -30.8940   21.3770 C   0  0  0  0  0  2  0  0  0  0  0  0
  -26.0300  -29.5200   20.7300 C   0  0  0  0  0  0  0  0  0  0  0  0
  -27.2320  -28.7580   20.7170 C   0  0  0  0  0  3  0  0  0  0  0  0
  -26.0790  -26.9950   19.5100 C   0  0  0  0  0  3  0  0  0  0  0  0
  -24.8950  -27.7510   19.5140 C   0  0  0  0  0  3  0  0  0  0  0  0
  -23.6170  -29.8530   20.1950 C   0  0  0  0  0  2  0  0  0  0  0  0
  -24.6580  -31.1330   22.1160 N   0  0  0  0  0  0  0  0  0  0  0  0
  -23.5010  -32.1990   23.7520 O   0  0  0  0  0  0  0  0  0  0  0  0
  -22.7550  -29.4920   22.5350 C   0  0  0  0  0  0  0  0  0  0  0  0
  -21.4320  -29.2960   22.4070 N   0  0  0  0  0  0  0  0  0  0  0  0
  -23.4460  -28.8730   23.3500 O   0  0  0  0  0  0  0  0  0  0  0  0
  -20.9380  -29.8510   21.7230 H   0  0  0  0  0  0  0  0  0  0  0  0
  -18.0640  -28.0840   22.9220 C   0  0  0  0  0  0  0  0  0  0  0  0
  -20.6230  -28.3500   23.1760 C   0  0  0  0  0  3  0  0  0  0  0  0
  -20.7260  -26.9230   22.5890 C   0  0  0  0  0  2  0  0  0  0  0  0
  -19.6170  -26.6040   21.5810 C   0  0  0  0  0  2  0  0  0  0  0  0
  -18.2390  -26.7390   22.2370 C   0  0  0  0  0  2  0  0  0  0  0  0
  -19.1830  -28.8470   23.3490 C   0  0  0  0  0  0  0  0  0  0  0  0
  -18.9640  -30.1050   23.9490 C   0  0  0  0  0  3  0  0  0  0  0  0
  -17.6590  -30.6010   24.1290 C   0  0  0  0  0  3  0  0  0  0  0  0
  -16.5540  -29.8360   23.7180 C   0  0  0  0  0  3  0  0  0  0  0  0
  -16.7570  -28.5790   23.1200 C   0  0  0  0  0  3  0  0  0  0  0  0
  -25.8620  -32.5840   23.8360 C   0  0  0  0  0  3  0  0  0  0  0  0
  -26.3820  -31.8220   25.1180 C   0  0  1  0  0  0  0  0  0  0  0  0
  -25.2860  -31.5680   26.1780 C   0  0  0  0  0  1  0  0  0  0  0  0
  -26.9820  -30.4520   24.7300 C   0  0  0  0  0  1  0  0  0  0  0  0
  -27.5160  -32.6320   25.7870 C   0  0  0  0  0  1  0  0  0  0  0  0
  -25.5410  -33.9820   24.1550 N   0  0  0  0  0  0  0  0  0  0  0  0
  -25.8920  -35.0330   23.4030 C   0  0  0  0  0  0  0  0  0  0  0  0
  -26.5920  -34.9290   22.3910 O   0  0  0  0  0  0  0  0  0  0  0  0
  -24.9270  -34.1360   24.9410 H   0  0  0  0  0  0  0  0  0  0  0  0
  -24.2010  -36.8430   22.9610 C   0  0  0  0  0  1  0  0  0  0  0  0
  -25.3870  -36.4200   23.8430 C   0  0  0  0  0  3  0  0  0  0  0  0
  -27.4680  -37.2860   24.8170 C   0  0  0  0  0  1  0  0  0  0  0  0
  -26.4320  -37.4660   23.8030 N   0  0  0  0  0  0  0  0  0  0  0  0
  -26.0230  -38.3880   23.9310 H   0  0  0  0  0  0  0  0  0  0  0  0
  -27.1410  -26.1890   23.0730 C   0  0  0  0  0  2  0  0  0  0  0  0
  -28.1660  -27.1440   23.5310 N   0  0  0  0  0  4  0  0  0  0  0  0
  -28.8320  -26.6850   24.1290 H   0  0  0  0  0  0  0  0  0  0  0  0
  -27.7290  -27.8790   24.0580 H   0  0  0  0  0  0  0  0  0  0  0  0
  -28.6540  -27.5320   22.7430 H   0  0  0  0  0  0  0  0  0  0  0  0
  1  3  1  0
  2  1  2  0
  4  6  1  0
  4  2  1  0
  5  3  1  0
  5 93  1  0
  6 52  1  0
  6  5  1  0
  7 11  1  0
  8 11  2  0
  9 12  1  0
  9  7  2  0
 10  8  1  0
 11  2  1  0
 12 10  2  0
 13 12  1  0
 13 22  1  0
 14 22  1  0
 15 20  1  0
 16 17  1  0
 16 15  1  0
 18 17  1  0
 18 27  1  0
 18 19  1  0
 20 14  1  0
 20 19  1  0
 21 14  2  0
 22 23  1  0
 24 25  2  0
 25 44  1  0
 26 25  1  0
 26 29  1  0
 27 28  1  0
 27 24  1  0
 28 26  2  0
 29 30  1  0
 30 31  2  0
 32 35  1  0
 32 31  1  0
 33 32  2  0
 34 33  1  0
 34 29  2  0
 35 36  1  0
 36 41  2  0
 36 37  1  0
 37 38  2  0
 38 39  1  0
 39 43  1  0
 40 39  2  0
 41 40  1  0
 42 41  1  0
 44 45  1  0
 45 48  1  0
 45 47  1  0
 46 44  2  0
 49 50  1  0
 49 24  1  0
 51 49  1  0
 53 64  2  0
 54 52  1  0
 54 59  1  0
 55 63  1  0
 55 65  1  0
 56 62  1  0
 56 58  1  0
 57 63  1  0
 58 57  1  0
 59 58  2  0
 60 61  1  0
 60 54  2  0
 61 56  2  0
 62 55  1  0
 63 53  1  0
 65 67  2  0
 66 65  1  0
 68 66  1  0
 69 78  2  0
 69 74  1  0
 70 66  1  0
 70 74  1  0
 71 70  1  0
 72 73  1  0
 72 71  1  0
 73 69  1  0
 74 75  2  0
 75 76  1  0
 77 76  2  0
 78 77  1  0
 79 53  1  0
 79 84  1  0
 79 80  1  0
 80 83  1  1
 80 81  1  0
 82 80  1  0
 84 87  1  0
 85 89  1  0
 85 84  1  0
 86 85  2  0
 89 88  1  0
 91 89  1  0
 91 92  1  0
 91 90  1  0
 93 94  1  0
 94 96  1  0
 94 95  1  0
 97 94  1  0
M  ISO  4   6 101  14 100  22 100  52 101
M  END
>  <TORSDO>  (79) 
F 20

>  <SCORE>  (79) 
-14.115

>  <name>  (79) 
78

>  <ligand_id>  (79) 
78

>  <original_smiles>  (79) 
[H]C1=C(c2c([H])c([H])c(C([H])([H])N([H])C(=O)N3C([H])([H])C([H])([H])C([H])([H])C([H])(n4nc(-c5c([H])c([H])c(Oc6c([H])c([H])c(F)c([H])c6F)c([H])c5[H])c(C(=O)N([H])[H])c4N([H])[H])C3([H])[H])c([H])c2[H])C([H])([H])C([H])(Oc2c([H])c([H])c3c(c2[H])C([H])([H])N(C(=O)C([H])(N([H])C(=O)C([H])(N([H])C([H])([H])[H])C([H])([H])[H])C(C([H])([H])[H])(C([H])([H])[H])C([H])([H])[H])C([H])(C(=O)N([H])C2([H])c4c([H])c([H])c([H])c([H])c4C([H])([H])C([H])([H])C2([H])[H])C3([H])[H])C([H])(C([H])([H])[N+]([H])([H])[H])C1([H])[H]

>  <smiles>  (79) 
[H]C1=C(c2c([H])c([H])c(C([H])([H])N([H])C(=O)N3C([H])([H])C([H])([H])C([H])([H])C([H])(n4nc(-c5c([H])c([H])c(Oc6c([H])c([H])c(F)c([H])c6F)c([H])c5[H])c(C(=O)N([H])[H])c4N([H])[H])C3([H])[H])c([H])c2[H])C([H])([H])C([H])(Oc2c([H])c([H])c3c(c2[H])C([H])([H])N(C(=O)C([H])(N([H])C(=O)C([H])(N([H])C([H])([H])[H])C([H])([H])[H])C(C([H])([H])[H])(C([H])([H])[H])C([H])([H])[H])C([H])(C(=O)N([H])C2([H])c4c([H])c([H])c([H])c([H])c4C([H])([H])C([H])([H])C2([H])[H])C3([H])[H])C([H])(C([H])([H])[N+]([H])([H])[H])C1([H])[H]

$$$$
79:0:0
     RDKit          3D

 93101  0  0  1  0  0  0  0  0999 V2000
  -28.4320  -21.3490   21.8080 C   0  0  0  0  0  2  0  0  0  0  0  0
  -28.8670  -19.8200   21.7650 C   0  0  0  0  0  2  0  0  0  0  0  0
  -30.0100  -20.9250   20.1090 C   0  0  0  0  0  2  0  0  0  0  0  0
  -29.0210  -22.1270   20.5970 C   0  0  0  0  0  3  0  0  0  0  0  0
  -29.4380  -19.4060   20.3680 C   0  0  2  0  0  0  0  0  0  0  0  0
  -30.2810  -23.9590   22.0520 C   0  0  0  0  0  1  0  0  0  0  0  0
  -29.4440  -23.7610   20.7720 C   0  0  0  0  0  3  0  0  0  0  0  0
  -28.3650  -25.0400   20.6410 C   0  0  0  0  0  2  0  0  0  0  0  0
  -28.6660  -26.5620   20.6250 O   0  0  0  0  0  0  0  0  0  0  0  0
  -24.8910  -32.0960   23.6430 C   0  0  0  0  0  0  0  0  0  0  0  0
  -27.5990  -27.5260   20.5420 C   0  0  0  0  0  0  0  0  0  0  0  0
  -23.7560  -30.7590   21.9110 C   0  0  0  0  0  3  0  0  0  0  0  0
  -25.2600  -29.2500   20.4810 C   0  0  0  0  0  0  0  0  0  0  0  0
  -26.3120  -31.0550   21.8420 C   0  0  0  0  0  2  0  0  0  0  0  0
  -26.4180  -29.6900   21.1370 C   0  0  0  0  0  0  0  0  0  0  0  0
  -27.5930  -28.8520   21.1290 C   0  0  0  0  0  3  0  0  0  0  0  0
  -26.4110  -27.1800   19.8560 C   0  0  0  0  0  3  0  0  0  0  0  0
  -25.2690  -28.0100   19.8280 C   0  0  0  0  0  3  0  0  0  0  0  0
  -24.0320  -30.1440   20.5150 C   0  0  0  0  0  2  0  0  0  0  0  0
  -25.0050  -31.3210   22.5230 N   0  0  0  0  0  0  0  0  0  0  0  0
  -23.7840  -32.3540   24.1430 O   0  0  0  0  0  0  0  0  0  0  0  0
  -23.0510  -29.7090   22.8050 C   0  0  0  0  0  0  0  0  0  0  0  0
  -21.7360  -29.5140   22.5960 N   0  0  0  0  0  0  0  0  0  0  0  0
  -23.6870  -29.0720   23.6440 O   0  0  0  0  0  0  0  0  0  0  0  0
  -21.2870  -30.0800   21.8920 H   0  0  0  0  0  0  0  0  0  0  0  0
  -18.3500  -28.2440   22.8920 C   0  0  0  0  0  0  0  0  0  0  0  0
  -20.8880  -28.5440   23.2980 C   0  0  0  0  0  3  0  0  0  0  0  0
  -21.0430  -27.1280   22.6950 C   0  0  0  0  0  2  0  0  0  0  0  0
  -20.0000  -26.8140   21.6160 C   0  0  0  0  0  2  0  0  0  0  0  0
  -18.5860  -26.9180   22.1890 C   0  0  0  0  0  2  0  0  0  0  0  0
  -19.4300  -29.0160   23.3990 C   0  0  0  0  0  0  0  0  0  0  0  0
  -19.1530  -30.2580   24.0100 C   0  0  0  0  0  3  0  0  0  0  0  0
  -17.8300  -30.7280   24.1200 C   0  0  0  0  0  3  0  0  0  0  0  0
  -16.7670  -29.9520   23.6270 C   0  0  0  0  0  3  0  0  0  0  0  0
  -17.0260  -28.7120   23.0210 C   0  0  0  0  0  3  0  0  0  0  0  0
  -26.1440  -32.7100   24.3410 C   0  0  0  0  0  3  0  0  0  0  0  0
  -25.8410  -34.1150   24.6530 N   0  0  0  0  0  0  0  0  0  0  0  0
  -26.1970  -35.1580   23.8910 C   0  0  0  0  0  0  0  0  0  0  0  0
  -26.8870  -35.0370   22.8760 O   0  0  0  0  0  0  0  0  0  0  0  0
  -25.2510  -34.2840   25.4530 H   0  0  0  0  0  0  0  0  0  0  0  0
  -24.4890  -36.9570   23.4840 C   0  0  0  0  0  1  0  0  0  0  0  0
  -25.7130  -36.5570   24.3260 C   0  0  0  0  0  3  0  0  0  0  0  0
  -27.8350  -37.4290   25.1910 C   0  0  0  0  0  1  0  0  0  0  0  0
  -26.7550  -37.6010   24.2230 N   0  0  0  0  0  0  0  0  0  0  0  0
  -26.3550  -38.5260   24.3570 H   0  0  0  0  0  0  0  0  0  0  0  0
  -26.5600  -31.9400   25.6540 C   0  0  1  0  0  0  0  0  0  0  0  0
  -25.3960  -31.7070   26.6450 C   0  0  0  0  0  1  0  0  0  0  0  0
  -27.1670  -30.5620   25.3080 C   0  0  0  0  0  1  0  0  0  0  0  0
  -27.6640  -32.7320   26.3950 C   0  0  0  0  0  1  0  0  0  0  0  0
  -28.1890  -19.1320   19.4530 C   0  0  0  0  0  2  0  0  0  0  0  0
  -26.9570  -18.8180   17.2500 C   0  0  0  0  0  1  0  0  0  0  0  0
  -28.3490  -18.9630   17.9150 C   0  0  0  0  0  3  0  0  0  0  0  0
  -29.4320  -19.9340   15.7580 C   0  0  0  0  0  1  0  0  0  0  0  0
  -29.1320  -20.1120   17.2530 C   0  0  0  0  0  2  0  0  0  0  0  0
  -30.5180  -18.0810   20.3880 C   0  0  0  0  0  2  0  0  0  0  0  0
  -31.0630  -15.3820   20.4350 C   0  0  0  0  0  0  0  0  0  0  0  0
  -31.0590  -12.9960   19.5510 C   0  0  0  0  0  2  0  0  0  0  0  0
  -30.1970  -12.9270   18.2690 C   0  0  0  0  0  2  0  0  0  0  0  0
  -28.7230  -12.6840   18.6500 C   0  0  0  0  0  2  0  0  0  0  0  0
  -28.2410  -13.6130   19.7960 C   0  0  0  0  0  3  0  0  0  0  0  0
  -29.2390  -13.6850   20.9690 C   0  0  0  0  0  2  0  0  0  0  0  0
  -30.5200  -14.1010   20.3990 N   0  0  0  0  0  0  0  0  0  0  0  0
  -32.2680  -15.4800   20.1760 O   0  0  0  0  0  0  0  0  0  0  0  0
  -30.2250  -16.5330   20.5630 N   0  0  0  0  0  0  0  0  0  0  0  0
  -29.2510  -16.3100   20.7110 H   0  0  0  0  0  0  0  0  0  0  0  0
  -25.8440  -14.1490   20.4830 C   0  0  0  0  0  0  0  0  0  0  0  0
  -24.7780  -13.3610   20.8190 C   0  0  0  0  0  0  0  0  0  0  0  0
  -25.2580  -12.0170   20.7890 C   0  0  0  0  0  0  0  0  0  0  0  0
  -26.8980  -13.2870   20.2520 N   0  0  0  0  0  0  0  0  0  0  0  0
  -26.5580  -11.9950   20.5070 N   0  0  0  0  0  0  0  0  0  0  0  0
  -24.5380  -10.7490   20.9500 C   0  0  0  0  0  0  0  0  0  0  0  0
  -24.8890   -9.8290   21.9630 C   0  0  0  0  0  3  0  0  0  0  0  0
  -24.1680   -8.6270   22.1130 C   0  0  0  0  0  3  0  0  0  0  0  0
  -23.0850   -8.3330   21.2520 C   0  0  0  0  0  0  0  0  0  0  0  0
  -22.7590   -9.2380   20.2250 C   0  0  0  0  0  3  0  0  0  0  0  0
  -23.4780  -10.4350   20.0760 C   0  0  0  0  0  3  0  0  0  0  0  0
  -22.3430   -7.1780   21.3070 O   0  0  0  0  0  0  0  0  0  0  0  0
  -22.0950   -6.5380   22.4950 C   0  0  0  0  0  0  0  0  0  0  0  0
  -21.4420   -7.1860   23.5660 C   0  0  0  0  0  3  0  0  0  0  0  0
  -21.1450   -6.4760   24.7450 C   0  0  0  0  0  3  0  0  0  0  0  0
  -21.4870   -5.1150   24.8530 C   0  0  0  0  0  0  0  0  0  0  0  0
  -22.1300   -4.4640   23.7850 C   0  0  0  0  0  3  0  0  0  0  0  0
  -22.4330   -5.1730   22.6110 C   0  0  0  0  0  0  0  0  0  0  0  0
  -23.0350   -4.5360   21.5770 F   0  0  0  0  0  0  0  0  0  0  0  0
  -21.1900   -4.4290   25.9810 F   0  0  0  0  0  0  0  0  0  0  0  0
  -23.3730  -13.8280   21.0600 C   0  0  0  0  0  0  0  0  0  0  0  0
  -22.6380  -13.1290   21.9200 N   0  0  0  0  0  0  0  0  0  0  0  0
  -22.9410  -14.8500   20.5290 O   0  0  0  0  0  0  0  0  0  0  0  0
  -23.0130  -12.3200   22.3910 H   0  0  0  0  0  0  0  0  0  0  0  0
  -21.6920  -13.4210   22.1300 H   0  0  0  0  0  0  0  0  0  0  0  0
  -25.9870  -15.5210   20.3270 N   0  0  0  0  0  0  0  0  0  0  0  0
  -25.1820  -16.1330   20.3990 H   0  0  0  0  0  0  0  0  0  0  0  0
  -26.7800  -15.9650   19.8850 H   0  0  0  0  0  0  0  0  0  0  0  0
  2  1  1  0
  3  5  1  0
  3  4  1  0
  4  7  1  0
  4  1  1  0
  5 50  1  6
  5 55  1  0
  5  2  1  0
  7  6  1  0
  8  7  1  0
  9  8  1  0
 10 21  2  0
 11  9  1  0
 11 16  1  0
 12 20  1  0
 12 22  1  0
 13 19  1  0
 13 15  1  0
 14 20  1  0
 15 14  1  0
 16 15  2  0
 17 11  2  0
 18 17  1  0
 18 13  2  0
 19 12  1  0
 20 10  1  0
 22 24  2  0
 23 22  1  0
 25 23  1  0
 26 35  2  0
 26 31  1  0
 27 23  1  0
 27 31  1  0
 28 27  1  0
 29 30  1  0
 29 28  1  0
 30 26  1  0
 31 32  2  0
 32 33  1  0
 34 33  2  0
 35 34  1  0
 36 10  1  0
 36 37  1  0
 36 46  1  0
 37 40  1  0
 38 42  1  0
 38 37  1  0
 39 38  2  0
 42 41  1  0
 44 42  1  0
 44 45  1  0
 44 43  1  0
 46 49  1  1
 46 47  1  0
 48 46  1  0
 52 51  1  0
 52 50  1  0
 53 54  1  0
 54 52  1  0
 55 64  1  0
 56 64  1  0
 57 62  1  0
 58 59  1  0
 58 57  1  0
 60 59  1  0
 60 69  1  0
 60 61  1  0
 62 56  1  0
 62 61  1  0
 63 56  2  0
 64 65  1  0
 66 67  2  0
 67 86  1  0
 68 67  1  0
 68 71  1  0
 69 66  1  0
 69 70  1  0
 70 68  2  0
 71 72  1  0
 72 73  2  0
 74 77  1  0
 74 73  1  0
 75 74  2  0
 76 75  1  0
 76 71  2  0
 77 78  1  0
 78 83  2  0
 78 79  1  0
 79 80  2  0
 80 81  1  0
 81 85  1  0
 82 81  2  0
 83 82  1  0
 84 83  1  0
 86 87  1  0
 87 90  1  0
 87 89  1  0
 88 86  2  0
 91 92  1  0
 91 66  1  0
 93 91  1  0
M  ISO  4   8 101   9 101  56 100  64 100
M  END
>  <TORSDO>  (80) 
F 22

>  <SCORE>  (80) 
-11.294

>  <name>  (80) 
79

>  <ligand_id>  (80) 
79

>  <original_smiles>  (80) 
[H]c1c([H])c([H])c2c(c1[H])C([H])([H])C([H])([H])C([H])([H])C2([H])N([H])C(=O)C1([H])N(C(=O)C([H])(N([H])C(=O)C([H])(N([H])C([H])([H])[H])C([H])([H])[H])C(C([H])([H])[H])(C([H])([H])[H])C([H])([H])[H])C([H])([H])c2c([H])c(OC([H])([H])C([H])(C([H])([H])[H])C3([H])C([H])([H])C([H])([H])C(C([H])([H])N([H])C(=O)N4C([H])([H])C([H])([H])C([H])([H])C([H])(n5nc(-c6c([H])c([H])c(Oc7c([H])c([H])c(F)c([H])c7F)c([H])c6[H])c(C(=O)N([H])[H])c5N([H])[H])C4([H])[H])(C([H])([H])C([H])(C([H])([H])[H])C([H])([H])C([H])([H])[H])C3([H])[H])c([H])c([H])c2C1([H])[H]

>  <smiles>  (80) 
[H]c1c([H])c([H])c2c(c1[H])C([H])([H])C([H])([H])C([H])([H])C2([H])N([H])C(=O)C1([H])N(C(=O)C([H])(N([H])C(=O)C([H])(N([H])C([H])([H])[H])C([H])([H])[H])C(C([H])([H])[H])(C([H])([H])[H])C([H])([H])[H])C([H])([H])c2c([H])c(OC([H])([H])C([H])(C([H])([H])[H])C3([H])C([H])([H])C([H])([H])C(C([H])([H])N([H])C(=O)N4C([H])([H])C([H])([H])C([H])([H])C([H])(n5nc(-c6c([H])c([H])c(Oc7c([H])c([H])c(F)c([H])c7F)c([H])c6[H])c(C(=O)N([H])[H])c5N([H])[H])C4([H])[H])(C([H])([H])C([H])(C([H])([H])[H])C([H])([H])C([H])([H])[H])C3([H])[H])c([H])c([H])c2C1([H])[H]

$$$$
80:0:0
     RDKit          3D

 92101  0  0  1  0  0  0  0  0999 V2000
  -28.4430  -19.0120   18.3380 C   0  0  0  0  0  2  0  0  0  0  0  0
  -29.8590  -18.4260   18.4200 C   0  0  0  0  0  2  0  0  0  0  0  0
  -27.8310  -20.9230   19.9730 C   0  0  0  0  0  2  0  0  0  0  0  0
  -30.0500  -20.3880   20.7980 C   0  0  0  0  0  2  0  0  0  0  0  0
  -29.2270  -21.5350   20.1320 C   0  0  0  0  0  3  0  0  0  0  0  0
  -28.0590  -19.4180   19.7760 C   0  0  0  0  0  3  0  0  0  0  0  0
  -29.2700  -19.0420   20.6380 C   0  0  0  0  0  3  0  0  0  0  0  0
  -30.0050  -17.9110   19.8600 C   0  0  0  0  0  3  0  0  0  0  0  0
  -29.1940  -22.8980   20.8800 C   0  0  0  0  0  0  0  0  0  0  0  0
  -29.4200  -22.9570   22.0920 O   0  0  0  0  0  0  0  0  0  0  0  0
  -28.8740  -24.1780   20.0670 C   0  0  0  0  0  2  0  0  0  0  0  0
  -28.4580  -25.4150   20.9190 C   0  0  0  0  0  2  0  0  0  0  0  0
  -28.4850  -26.6710   20.2050 O   0  0  0  0  0  0  0  0  0  0  0  0
  -24.6230  -31.8610   23.2440 C   0  0  0  0  0  0  0  0  0  0  0  0
  -27.3160  -27.4040   20.2180 C   0  0  0  0  0  0  0  0  0  0  0  0
  -23.4390  -30.4480   21.5940 C   0  0  0  0  0  3  0  0  0  0  0  0
  -24.9140  -28.9030   20.1960 C   0  0  0  0  0  0  0  0  0  0  0  0
  -25.9650  -30.8120   21.4210 C   0  0  0  0  0  2  0  0  0  0  0  0
  -26.0650  -29.4360   20.7910 C   0  0  0  0  0  0  0  0  0  0  0  0
  -27.2710  -28.6960   20.7940 C   0  0  0  0  0  3  0  0  0  0  0  0
  -26.1500  -26.8840   19.6200 C   0  0  0  0  0  3  0  0  0  0  0  0
  -24.9510  -27.6250   19.6060 C   0  0  0  0  0  3  0  0  0  0  0  0
  -23.6670  -29.7590   20.2210 C   0  0  0  0  0  2  0  0  0  0  0  0
  -24.6930  -31.0560   22.1450 N   0  0  0  0  0  0  0  0  0  0  0  0
  -23.5350  -32.1330   23.7710 O   0  0  0  0  0  0  0  0  0  0  0  0
  -22.7790  -29.4310   22.5530 C   0  0  0  0  0  0  0  0  0  0  0  0
  -21.4540  -29.2590   22.4240 N   0  0  0  0  0  0  0  0  0  0  0  0
  -23.4570  -28.7990   23.3680 O   0  0  0  0  0  0  0  0  0  0  0  0
  -20.9700  -29.8190   21.7370 H   0  0  0  0  0  0  0  0  0  0  0  0
  -18.0670  -28.1080   22.9310 C   0  0  0  0  0  0  0  0  0  0  0  0
  -20.6290  -28.3260   23.1910 C   0  0  0  0  0  3  0  0  0  0  0  0
  -20.7070  -26.9000   22.5970 C   0  0  0  0  0  2  0  0  0  0  0  0
  -19.5940  -26.6040   21.5870 C   0  0  0  0  0  2  0  0  0  0  0  0
  -18.2190  -26.7620   22.2410 C   0  0  0  0  0  2  0  0  0  0  0  0
  -19.1980  -28.8490   23.3630 C   0  0  0  0  0  0  0  0  0  0  0  0
  -19.0010  -30.1100   23.9670 C   0  0  0  0  0  3  0  0  0  0  0  0
  -17.7040  -30.6290   24.1450 C   0  0  0  0  0  3  0  0  0  0  0  0
  -16.5870  -29.8840   23.7310 C   0  0  0  0  0  3  0  0  0  0  0  0
  -16.7690  -28.6250   23.1290 C   0  0  0  0  0  3  0  0  0  0  0  0
  -25.9000  -32.4970   23.8770 C   0  0  0  0  0  3  0  0  0  0  0  0
  -26.4070  -31.7300   25.1600 C   0  0  1  0  0  0  0  0  0  0  0  0
  -25.3040  -31.4950   26.2180 C   0  0  0  0  0  1  0  0  0  0  0  0
  -26.9940  -30.3520   24.7760 C   0  0  0  0  0  1  0  0  0  0  0  0
  -27.5500  -32.5280   25.8330 C   0  0  0  0  0  1  0  0  0  0  0  0
  -25.5880  -33.8950   24.1990 N   0  0  0  0  0  0  0  0  0  0  0  0
  -25.9180  -34.9440   23.4350 C   0  0  0  0  0  0  0  0  0  0  0  0
  -26.5930  -34.8360   22.4070 O   0  0  0  0  0  0  0  0  0  0  0  0
  -24.9950  -34.0540   25.0020 H   0  0  0  0  0  0  0  0  0  0  0  0
  -24.1860  -36.7250   23.0560 C   0  0  0  0  0  1  0  0  0  0  0  0
  -25.4230  -36.3320   23.8790 C   0  0  0  0  0  3  0  0  0  0  0  0
  -27.5490  -37.2310   24.7180 C   0  0  0  0  0  1  0  0  0  0  0  0
  -26.4530  -37.3890   23.7650 N   0  0  0  0  0  0  0  0  0  0  0  0
  -26.0430  -38.3080   23.9030 H   0  0  0  0  0  0  0  0  0  0  0  0
  -29.3570  -16.4840   19.9900 C   0  0  0  0  0  2  0  0  0  0  0  0
  -30.6940  -14.4690   20.4300 C   0  0  0  0  0  0  0  0  0  0  0  0
  -30.3490  -12.3140   19.2740 C   0  0  0  0  0  2  0  0  0  0  0  0
  -29.4080  -12.5170   18.0710 C   0  0  0  0  0  2  0  0  0  0  0  0
  -27.9340  -12.3920   18.5070 C   0  0  0  0  0  2  0  0  0  0  0  0
  -27.6020  -13.2320   19.7680 C   0  0  0  0  0  3  0  0  0  0  0  0
  -28.6630  -13.0310   20.8730 C   0  0  0  0  0  2  0  0  0  0  0  0
  -29.9820  -13.3160   20.2900 N   0  0  0  0  0  0  0  0  0  0  0  0
  -31.8440  -14.5990   20.0130 O   0  0  0  0  0  0  0  0  0  0  0  0
  -30.0380  -15.5480   20.9060 N   0  0  0  0  0  0  0  0  0  0  0  0
  -30.6170  -16.0630   21.5510 H   0  0  0  0  0  0  0  0  0  0  0  0
  -25.2100  -13.8500   20.4830 C   0  0  0  0  0  0  0  0  0  0  0  0
  -24.1370  -13.0850   20.8520 C   0  0  0  0  0  0  0  0  0  0  0  0
  -24.5910  -11.7310   20.8270 C   0  0  0  0  0  0  0  0  0  0  0  0
  -26.2500  -12.9620   20.2540 N   0  0  0  0  0  0  0  0  0  0  0  0
  -25.8810  -11.6830   20.5190 N   0  0  0  0  0  0  0  0  0  0  0  0
  -23.8560  -10.4730   21.0210 C   0  0  0  0  0  0  0  0  0  0  0  0
  -24.2820   -9.5070   21.9570 C   0  0  0  0  0  3  0  0  0  0  0  0
  -23.5500   -8.3150   22.1380 C   0  0  0  0  0  3  0  0  0  0  0  0
  -22.3790   -8.0790   21.3810 C   0  0  0  0  0  0  0  0  0  0  0  0
  -21.9720   -9.0340   20.4330 C   0  0  0  0  0  3  0  0  0  0  0  0
  -22.7050  -10.2190   20.2490 C   0  0  0  0  0  3  0  0  0  0  0  0
  -21.6170   -6.9390   21.4720 O   0  0  0  0  0  0  0  0  0  0  0  0
  -21.5600   -6.2010   22.6280 C   0  0  0  0  0  0  0  0  0  0  0  0
  -21.1280   -6.7610   23.8490 C   0  0  0  0  0  3  0  0  0  0  0  0
  -21.0200   -5.9500   24.9960 C   0  0  0  0  0  3  0  0  0  0  0  0
  -21.3330   -4.5790   24.9230 C   0  0  0  0  0  0  0  0  0  0  0  0
  -21.7590   -4.0190   23.7060 C   0  0  0  0  0  3  0  0  0  0  0  0
  -21.8690   -4.8270   22.5610 C   0  0  0  0  0  0  0  0  0  0  0  0
  -22.2570   -4.2770   21.3850 F   0  0  0  0  0  0  0  0  0  0  0  0
  -21.2220   -3.7970   26.0220 F   0  0  0  0  0  0  0  0  0  0  0  0
  -22.7410  -13.5710   21.1190 C   0  0  0  0  0  0  0  0  0  0  0  0
  -22.0060  -12.8790   21.9860 N   0  0  0  0  0  0  0  0  0  0  0  0
  -22.3100  -14.5990   20.5980 O   0  0  0  0  0  0  0  0  0  0  0  0
  -22.3660  -12.0510   22.4360 H   0  0  0  0  0  0  0  0  0  0  0  0
  -21.0740  -13.1920   22.2140 H   0  0  0  0  0  0  0  0  0  0  0  0
  -25.3850  -15.2200   20.3030 N   0  0  0  0  0  0  0  0  0  0  0  0
  -24.6280  -15.8830   20.4260 H   0  0  0  0  0  0  0  0  0  0  0  0
  -26.2460  -15.6530   19.9930 H   0  0  0  0  0  0  0  0  0  0  0  0
  1  2  1  0
  2  8  1  0
  3  5  1  0
  5  4  1  0
  5  9  1  0
  6  1  1  0
  6  3  1  0
  6  7  1  0
  7  4  1  0
  8 54  1  0
  8  7  1  0
  9 10  2  0
 11  9  1  0
 11 12  1  0
 13 15  1  0
 13 12  1  0
 14 25  2  0
 15 20  1  0
 16 24  1  0
 16 26  1  0
 17 23  1  0
 17 19  1  0
 18 24  1  0
 19 20  2  0
 19 18  1  0
 21 15  2  0
 22 21  1  0
 22 17  2  0
 23 16  1  0
 24 14  1  0
 26 28  2  0
 27 26  1  0
 29 27  1  0
 30 39  2  0
 30 35  1  0
 31 27  1  0
 31 35  1  0
 32 31  1  0
 33 34  1  0
 33 32  1  0
 34 30  1  0
 35 36  2  0
 36 37  1  0
 38 37  2  0
 39 38  1  0
 40 14  1  0
 40 45  1  0
 40 41  1  0
 41 44  1  1
 41 42  1  0
 43 41  1  0
 45 48  1  0
 46 50  1  0
 46 45  1  0
 47 46  2  0
 50 49  1  0
 52 50  1  0
 52 53  1  0
 52 51  1  0
 54 63  1  0
 55 63  1  0
 56 61  1  0
 57 58  1  0
 57 56  1  0
 59 58  1  0
 59 68  1  0
 59 60  1  0
 61 55  1  0
 61 60  1  0
 62 55  2  0
 63 64  1  0
 65 66  2  0
 66 85  1  0
 67 66  1  0
 67 70  1  0
 68 65  1  0
 68 69  1  0
 69 67  2  0
 70 71  1  0
 71 72  2  0
 73 76  1  0
 73 72  1  0
 74 73  2  0
 75 74  1  0
 75 70  2  0
 76 77  1  0
 77 78  1  0
 78 79  2  0
 80 79  1  0
 80 84  1  0
 81 80  2  0
 82 77  2  0
 82 81  1  0
 83 82  1  0
 85 86  1  0
 86 89  1  0
 86 88  1  0
 87 85  2  0
 90 91  1  0
 90 65  1  0
 92 90  1  0
M  ISO  4  12 101  13 101  55 100  63 100
M  END
>  <TORSDO>  (81) 
F 20

>  <SCORE>  (81) 
-14.021

>  <name>  (81) 
80

>  <ligand_id>  (81) 
80

>  <original_smiles>  (81) 
[H]c1c([H])c([H])c2c(c1[H])C([H])([H])C([H])([H])C([H])([H])C2([H])N([H])C(=O)C1([H])N(C(=O)C([H])(N([H])C(=O)C([H])(N([H])C([H])([H])[H])C([H])([H])[H])C(C([H])([H])[H])(C([H])([H])[H])C([H])([H])[H])C([H])([H])c2c([H])c(OC([H])([H])C([H])([H])C(=O)C3([H])C([H])([H])C4([H])C([H])([H])C([H])([H])C([H])(C([H])([H])N([H])C(=O)N5C([H])([H])C([H])([H])C([H])([H])C([H])(n6nc(-c7c([H])c([H])c(Oc8c([H])c([H])c(F)c([H])c8F)c([H])c7[H])c(C(=O)N([H])[H])c6N([H])[H])C5([H])[H])C4([H])C3([H])[H])c([H])c([H])c2C1([H])[H]

>  <smiles>  (81) 
[H]c1c([H])c([H])c2c(c1[H])C([H])([H])C([H])([H])C([H])([H])C2([H])N([H])C(=O)C1([H])N(C(=O)C([H])(N([H])C(=O)C([H])(N([H])C([H])([H])[H])C([H])([H])[H])C(C([H])([H])[H])(C([H])([H])[H])C([H])([H])[H])C([H])([H])c2c([H])c(OC([H])([H])C([H])([H])C(=O)C3([H])C([H])([H])C4([H])C([H])([H])C([H])([H])C([H])(C([H])([H])N([H])C(=O)N5C([H])([H])C([H])([H])C([H])([H])C([H])(n6nc(-c7c([H])c([H])c(Oc8c([H])c([H])c(F)c([H])c8F)c([H])c7[H])c(C(=O)N([H])[H])c6N([H])[H])C5([H])[H])C4([H])C3([H])[H])c([H])c([H])c2C1([H])[H]

$$$$
81:0:0
     RDKit          3D

 94104  0  0  1  0  0  0  0  0999 V2000
  -27.9250  -20.7620   19.8800 C   0  0  0  0  0  2  0  0  0  0  0  0
  -26.8060  -22.4350   21.5450 C   0  0  0  0  0  2  0  0  0  0  0  0
  -28.6220  -23.8160   20.6290 C   0  0  0  0  0  3  0  0  0  0  0  0
  -27.9530  -21.4880   21.2340 C   0  0  0  0  0  3  0  0  0  0  0  0
  -29.2170  -22.2140   20.7560 C   0  0  0  0  0  3  0  0  0  0  0  0
  -29.4360  -20.7240   19.9740 C   0  0  0  0  0  3  0  0  0  0  0  0
  -27.2160  -23.7800   21.1060 N   0  0  0  0  0  4  0  0  0  0  0  0
  -27.0260  -24.4730   21.8110 H   0  0  0  0  0  0  0  0  0  0  0  0
  -26.6490  -23.9900   20.3000 H   0  0  0  0  0  0  0  0  0  0  0  0
  -28.5620  -24.9590   19.4280 C   0  0  0  0  0  0  0  0  0  0  0  0
  -28.3720  -24.6250   18.2560 O   0  0  0  0  0  0  0  0  0  0  0  0
  -28.5330  -26.4440   19.8310 O   0  0  0  0  0  0  0  0  0  0  0  0
  -24.6860  -31.8010   23.0300 C   0  0  0  0  0  0  0  0  0  0  0  0
  -27.4470  -27.3820   19.7270 C   0  0  0  0  0  0  0  0  0  0  0  0
  -23.5240  -30.4110   21.3510 C   0  0  0  0  0  3  0  0  0  0  0  0
  -25.0250  -28.9850   19.8220 C   0  0  0  0  0  0  0  0  0  0  0  0
  -26.0550  -30.8170   21.1590 C   0  0  0  0  0  2  0  0  0  0  0  0
  -26.1900  -29.4650   20.4360 C   0  0  0  0  0  0  0  0  0  0  0  0
  -27.3930  -28.6760   20.3830 C   0  0  0  0  0  3  0  0  0  0  0  0
  -26.2560  -27.0040   19.0640 C   0  0  0  0  0  3  0  0  0  0  0  0
  -25.0700  -27.7680   19.1260 C   0  0  0  0  0  3  0  0  0  0  0  0
  -23.7530  -29.8130   19.9350 C   0  0  0  0  0  2  0  0  0  0  0  0
  -24.7730  -31.0280   21.9020 N   0  0  0  0  0  0  0  0  0  0  0  0
  -23.5990  -32.0060   23.5940 O   0  0  0  0  0  0  0  0  0  0  0  0
  -22.9300  -29.3250   22.2810 C   0  0  0  0  0  0  0  0  0  0  0  0
  -21.6120  -29.0770   22.1720 N   0  0  0  0  0  0  0  0  0  0  0  0
  -23.6540  -28.7090   23.0690 O   0  0  0  0  0  0  0  0  0  0  0  0
  -21.0820  -29.6310   21.5140 H   0  0  0  0  0  0  0  0  0  0  0  0
  -18.3200  -27.6610   22.6840 C   0  0  0  0  0  0  0  0  0  0  0  0
  -20.8620  -28.0670   22.9240 C   0  0  0  0  0  3  0  0  0  0  0  0
  -21.0390  -26.6630   22.2970 C   0  0  0  0  0  2  0  0  0  0  0  0
  -19.9410  -26.3120   21.2870 C   0  0  0  0  0  2  0  0  0  0  0  0
  -18.5650  -26.3520   21.9550 C   0  0  0  0  0  2  0  0  0  0  0  0
  -19.3970  -28.4760   23.1270 C   0  0  0  0  0  0  0  0  0  0  0  0
  -19.1120  -29.6990   23.7710 C   0  0  0  0  0  3  0  0  0  0  0  0
  -17.7830  -30.1120   23.9750 C   0  0  0  0  0  3  0  0  0  0  0  0
  -16.7200  -29.2960   23.5480 C   0  0  0  0  0  3  0  0  0  0  0  0
  -16.9900  -28.0720   22.9090 C   0  0  0  0  0  3  0  0  0  0  0  0
  -25.9470  -32.4800   23.6480 C   0  0  0  0  0  3  0  0  0  0  0  0
  -25.5780  -33.8450   24.0390 N   0  0  0  0  0  0  0  0  0  0  0  0
  -25.8470  -34.9440   23.3200 C   0  0  0  0  0  0  0  0  0  0  0  0
  -26.5060  -34.9160   22.2770 O   0  0  0  0  0  0  0  0  0  0  0  0
  -25.0030  -33.9410   24.8640 H   0  0  0  0  0  0  0  0  0  0  0  0
  -24.0330  -36.6640   23.0540 C   0  0  0  0  0  1  0  0  0  0  0  0
  -25.2990  -36.2860   23.8400 C   0  0  0  0  0  3  0  0  0  0  0  0
  -27.3910  -37.2400   24.7060 C   0  0  0  0  0  1  0  0  0  0  0  0
  -26.2810  -37.3930   23.7700 N   0  0  0  0  0  0  0  0  0  0  0  0
  -25.8300  -38.2870   23.9520 H   0  0  0  0  0  0  0  0  0  0  0  0
  -26.5280  -31.6880   24.8860 C   0  0  1  0  0  0  0  0  0  0  0  0
  -25.4680  -31.3610   25.9640 C   0  0  0  0  0  1  0  0  0  0  0  0
  -27.1680  -30.3520   24.4430 C   0  0  0  0  0  1  0  0  0  0  0  0
  -27.6590  -32.5100   25.5480 C   0  0  0  0  0  1  0  0  0  0  0  0
  -29.9770  -19.2800   20.6740 C   0  0  0  0  0  2  0  0  0  0  0  0
  -30.8320  -15.2210   20.0760 C   0  0  0  0  0  0  0  0  0  0  0  0
  -30.6400  -12.8410   19.2240 C   0  0  0  0  0  2  0  0  0  0  0  0
  -29.6900  -12.7360   18.0070 C   0  0  0  0  0  2  0  0  0  0  0  0
  -28.2350  -12.5360   18.4740 C   0  0  0  0  0  2  0  0  0  0  0  0
  -27.8340  -13.4960   19.6210 C   0  0  0  0  0  3  0  0  0  0  0  0
  -28.9180  -13.6020   20.7190 C   0  0  0  0  0  2  0  0  0  0  0  0
  -30.1790  -13.9850   20.0610 N   0  0  0  0  0  0  0  0  0  0  0  0
  -32.0580  -15.2000   19.9450 O   0  0  0  0  0  0  0  0  0  0  0  0
  -29.4650  -17.7100   17.9480 C   0  0  0  0  0  2  0  0  0  0  0  0
  -30.8130  -18.1940   18.4340 C   0  0  0  0  0  2  0  0  0  0  0  0
  -29.1260  -16.5460   18.8920 C   0  0  0  0  0  2  0  0  0  0  0  0
  -30.6850  -17.9450   19.9290 C   0  0  0  0  0  3  0  0  0  0  0  0
  -30.1250  -16.4720   19.9770 N   0  0  0  0  0  0  0  0  0  0  0  0
  -25.4840  -14.1210   20.4030 C   0  0  0  0  0  0  0  0  0  0  0  0
  -24.4120  -13.3600   20.7800 C   0  0  0  0  0  0  0  0  0  0  0  0
  -24.8600  -12.0050   20.7440 C   0  0  0  0  0  0  0  0  0  0  0  0
  -26.5100  -13.2230   20.1550 N   0  0  0  0  0  0  0  0  0  0  0  0
  -26.1470  -11.9470   20.4250 N   0  0  0  0  0  0  0  0  0  0  0  0
  -24.1240  -10.7530   20.9390 C   0  0  0  0  0  0  0  0  0  0  0  0
  -24.5460   -9.7910   21.8820 C   0  0  0  0  0  3  0  0  0  0  0  0
  -23.8110   -8.6010   22.0650 C   0  0  0  0  0  3  0  0  0  0  0  0
  -22.6420   -8.3650   21.3040 C   0  0  0  0  0  0  0  0  0  0  0  0
  -22.2410   -9.3140   20.3490 C   0  0  0  0  0  3  0  0  0  0  0  0
  -22.9760  -10.4970   20.1630 C   0  0  0  0  0  3  0  0  0  0  0  0
  -21.8770   -7.2280   21.3980 O   0  0  0  0  0  0  0  0  0  0  0  0
  -21.8030   -6.5050   22.5620 C   0  0  0  0  0  0  0  0  0  0  0  0
  -21.3440   -7.0790   23.7670 C   0  0  0  0  0  3  0  0  0  0  0  0
  -21.2180   -6.2820   24.9230 C   0  0  0  0  0  3  0  0  0  0  0  0
  -21.5420   -4.9130   24.8740 C   0  0  0  0  0  0  0  0  0  0  0  0
  -21.9960   -4.3390   23.6730 C   0  0  0  0  0  3  0  0  0  0  0  0
  -22.1250   -5.1330   22.5210 C   0  0  0  0  0  0  0  0  0  0  0  0
  -22.5420   -4.5700   21.3610 F   0  0  0  0  0  0  0  0  0  0  0  0
  -21.4150   -4.1460   25.9830 F   0  0  0  0  0  0  0  0  0  0  0  0
  -23.0240  -13.8570   21.0630 C   0  0  0  0  0  0  0  0  0  0  0  0
  -22.3000  -13.1730   21.9420 N   0  0  0  0  0  0  0  0  0  0  0  0
  -22.5940  -14.8820   20.5410 O   0  0  0  0  0  0  0  0  0  0  0  0
  -22.6630  -12.3420   22.3840 H   0  0  0  0  0  0  0  0  0  0  0  0
  -21.3690  -13.4890   22.1780 H   0  0  0  0  0  0  0  0  0  0  0  0
  -25.6620  -15.4890   20.2250 N   0  0  0  0  0  0  0  0  0  0  0  0
  -24.9140  -16.1620   20.3630 H   0  0  0  0  0  0  0  0  0  0  0  0
  -26.5240  -15.9190   19.9160 H   0  0  0  0  0  0  0  0  0  0  0  0
  1  6  1  0
  3 10  1  0
  3  5  1  0
  3  7  1  0
  4  1  1  0
  4  2  1  0
  5  4  1  0
  6 53  1  0
  6  5  1  0
  7  2  1  0
  7  8  1  0
  9  7  1  0
 10 12  1  0
 11 10  2  0
 13 24  2  0
 13 39  1  0
 14 12  1  0
 14 19  1  0
 15 23  1  0
 15 25  1  0
 16 22  1  0
 16 18  1  0
 17 23  1  0
 18 17  1  0
 19 18  2  0
 20 21  1  0
 20 14  2  0
 21 16  2  0
 22 15  1  0
 23 13  1  0
 25 27  2  0
 26 25  1  0
 26 30  1  0
 28 26  1  0
 29 38  2  0
 29 34  1  0
 30 34  1  0
 31 30  1  0
 32 33  1  0
 32 31  1  0
 33 29  1  0
 34 35  2  0
 35 36  1  0
 37 36  2  0
 38 37  1  0
 39 40  1  0
 39 49  1  0
 40 43  1  0
 41 45  1  0
 41 40  1  0
 42 41  2  0
 44 45  1  0
 47 45  1  0
 47 48  1  0
 47 46  1  0
 49 52  1  1
 49 50  1  0
 51 49  1  0
 55 60  1  0
 56 57  1  0
 56 55  1  0
 57 58  1  0
 58 70  1  0
 58 59  1  0
 60 54  1  0
 60 59  1  0
 61 54  2  0
 62 63  1  0
 62 64  1  0
 63 65  1  0
 64 66  1  0
 65 66  1  0
 65 53  1  0
 66 54  1  0
 67 68  2  0
 68 87  1  0
 69 68  1  0
 69 72  1  0
 70 67  1  0
 70 71  1  0
 71 69  2  0
 72 73  1  0
 73 74  2  0
 75 78  1  0
 75 74  1  0
 76 75  2  0
 77 76  1  0
 77 72  2  0
 78 79  1  0
 79 80  1  0
 80 81  2  0
 82 81  1  0
 82 86  1  0
 83 82  2  0
 84 79  2  0
 84 83  1  0
 85 84  1  0
 87 88  1  0
 88 91  1  0
 88 90  1  0
 89 87  2  0
 92 93  1  0
 92 67  1  0
 94 92  1  0
M  ISO  4  10 101  12 101  54 100  66 100
M  END
>  <TORSDO>  (82) 
F 18

>  <SCORE>  (82) 
-13.433

>  <name>  (82) 
81

>  <ligand_id>  (82) 
81

>  <original_smiles>  (82) 
[H]c1c([H])c([H])c2c(c1[H])C([H])([H])C([H])([H])C([H])([H])C2([H])N([H])C(=O)C1([H])N(C(=O)C([H])(N([H])C(=O)C([H])(N([H])C([H])([H])[H])C([H])([H])[H])C(C([H])([H])[H])(C([H])([H])[H])C([H])([H])[H])C([H])([H])c2c([H])c(OC(=O)C3([H])C4([H])C([H])(C([H])([H])C5([H])N(C(=O)N6C([H])([H])C([H])([H])C([H])([H])C([H])(n7nc(-c8c([H])c([H])c(Oc9c([H])c([H])c(F)c([H])c9F)c([H])c8[H])c(C(=O)N([H])[H])c7N([H])[H])C6([H])[H])C([H])([H])C([H])([H])C5([H])[H])C([H])([H])C4([H])C([H])([H])[N+]3([H])[H])c([H])c([H])c2C1([H])[H]

>  <smiles>  (82) 
[H]c1c([H])c([H])c2c(c1[H])C([H])([H])C([H])([H])C([H])([H])C2([H])N([H])C(=O)C1([H])N(C(=O)C([H])(N([H])C(=O)C([H])(N([H])C([H])([H])[H])C([H])([H])[H])C(C([H])([H])[H])(C([H])([H])[H])C([H])([H])[H])C([H])([H])c2c([H])c(OC(=O)C3([H])C4([H])C([H])(C([H])([H])C5([H])N(C(=O)N6C([H])([H])C([H])([H])C([H])([H])C([H])(n7nc(-c8c([H])c([H])c(Oc9c([H])c([H])c(F)c([H])c9F)c([H])c8[H])c(C(=O)N([H])[H])c7N([H])[H])C6([H])[H])C([H])([H])C([H])([H])C5([H])[H])C([H])([H])C4([H])C([H])([H])[N+]3([H])[H])c([H])c([H])c2C1([H])[H]

$$$$
82:0:0
     RDKit          3D

 92 99  0  0  1  0  0  0  0  0999 V2000
  -29.3600  -20.8040   20.0200 C   0  0  0  0  0  3  0  0  0  0  0  0
  -30.2130  -20.9770   21.2180 N   0  0  0  0  0  4  0  0  0  0  0  0
  -30.0500  -20.2100   21.8480 H   0  0  0  0  0  0  0  0  0  0  0  0
  -31.1750  -20.9120   20.9240 H   0  0  0  0  0  0  0  0  0  0  0  0
  -28.5850  -22.4670   22.4350 C   0  0  0  0  0  1  0  0  0  0  0  0
  -30.0380  -22.2360   21.9790 C   0  0  0  0  0  2  0  0  0  0  0  0
  -29.4500  -22.2250   19.1170 C   0  0  0  0  0  2  0  0  0  0  0  0
  -28.4390  -23.5820   19.0930 C   0  0  0  0  0  2  0  0  0  0  0  0
  -28.6620  -25.0860   19.8010 C   0  0  0  0  0  2  0  0  0  0  0  0
  -28.4720  -26.5200   19.2430 O   0  0  0  0  0  0  0  0  0  0  0  0
  -24.5820  -31.5780   22.9590 C   0  0  0  0  0  0  0  0  0  0  0  0
  -27.3180  -27.3490   19.4250 C   0  0  0  0  0  0  0  0  0  0  0  0
  -23.4020  -30.2600   21.2410 C   0  0  0  0  0  3  0  0  0  0  0  0
  -24.8810  -28.9050   19.6370 C   0  0  0  0  0  0  0  0  0  0  0  0
  -25.9210  -30.7100   21.0070 C   0  0  0  0  0  2  0  0  0  0  0  0
  -26.0530  -29.3870   20.2340 C   0  0  0  0  0  0  0  0  0  0  0  0
  -27.2740  -28.6300   20.1050 C   0  0  0  0  0  3  0  0  0  0  0  0
  -26.1120  -26.9460   18.8220 C   0  0  0  0  0  3  0  0  0  0  0  0
  -24.9180  -27.6970   18.9210 C   0  0  0  0  0  3  0  0  0  0  0  0
  -23.6060  -29.7170   19.8020 C   0  0  0  0  0  2  0  0  0  0  0  0
  -24.6560  -30.8690   21.7910 N   0  0  0  0  0  0  0  0  0  0  0  0
  -23.5050  -31.7430   23.5520 O   0  0  0  0  0  0  0  0  0  0  0  0
  -22.8280  -29.1320   22.1320 C   0  0  0  0  0  0  0  0  0  0  0  0
  -21.5170  -28.8600   22.0080 N   0  0  0  0  0  0  0  0  0  0  0  0
  -23.5640  -28.5040   22.8970 O   0  0  0  0  0  0  0  0  0  0  0  0
  -20.9750  -29.4200   21.3640 H   0  0  0  0  0  0  0  0  0  0  0  0
  -18.2640  -27.3310   22.4360 C   0  0  0  0  0  0  0  0  0  0  0  0
  -20.7910  -27.8030   22.7160 C   0  0  0  0  0  3  0  0  0  0  0  0
  -21.0180  -26.4290   22.0420 C   0  0  0  0  0  2  0  0  0  0  0  0
  -19.9390  -26.0800   21.0100 C   0  0  0  0  0  2  0  0  0  0  0  0
  -18.5560  -26.0550   21.6650 C   0  0  0  0  0  2  0  0  0  0  0  0
  -19.3130  -28.1600   22.9150 C   0  0  0  0  0  0  0  0  0  0  0  0
  -18.9850  -29.3510   23.5980 C   0  0  0  0  0  3  0  0  0  0  0  0
  -17.6420  -29.7180   23.8040 C   0  0  0  0  0  3  0  0  0  0  0  0
  -16.6080  -28.8860   23.3380 C   0  0  0  0  0  3  0  0  0  0  0  0
  -16.9200  -27.6940   22.6600 C   0  0  0  0  0  3  0  0  0  0  0  0
  -25.8460  -32.2340   23.5960 C   0  0  0  0  0  3  0  0  0  0  0  0
  -26.4040  -31.4310   24.8340 C   0  0  1  0  0  0  0  0  0  0  0  0
  -25.3340  -31.1190   25.9060 C   0  0  0  0  0  1  0  0  0  0  0  0
  -27.0270  -30.0890   24.3850 C   0  0  0  0  0  1  0  0  0  0  0  0
  -27.5390  -32.2350   25.5120 C   0  0  0  0  0  1  0  0  0  0  0  0
  -25.4870  -33.6030   23.9960 N   0  0  0  0  0  0  0  0  0  0  0  0
  -25.7900  -34.7070   23.2990 C   0  0  0  0  0  0  0  0  0  0  0  0
  -26.4680  -34.6800   22.2690 O   0  0  0  0  0  0  0  0  0  0  0  0
  -24.8860  -33.6950   24.8020 H   0  0  0  0  0  0  0  0  0  0  0  0
  -24.0140  -36.4670   23.0260 C   0  0  0  0  0  1  0  0  0  0  0  0
  -25.2580  -36.0540   23.8280 C   0  0  0  0  0  3  0  0  0  0  0  0
  -27.3530  -36.9590   24.7380 C   0  0  0  0  0  1  0  0  0  0  0  0
  -26.2600  -37.1410   23.7850 N   0  0  0  0  0  0  0  0  0  0  0  0
  -25.8240  -38.0410   23.9710 H   0  0  0  0  0  0  0  0  0  0  0  0
  -29.6100  -19.2270   19.4270 C   0  0  0  0  0  3  0  0  0  0  0  0
  -27.8640  -19.6020   17.5290 C   0  0  0  0  0  1  0  0  0  0  0  0
  -28.3500  -18.7200   18.6890 C   0  0  0  0  0  2  0  0  0  0  0  0
  -30.2240  -17.9350   20.3240 C   0  0  0  0  0  2  0  0  0  0  0  0
  -30.8610  -15.2480   20.0320 C   0  0  0  0  0  0  0  0  0  0  0  0
  -30.7780  -12.8520   19.2270 C   0  0  0  0  0  2  0  0  0  0  0  0
  -29.8330  -12.7340   18.0090 C   0  0  0  0  0  2  0  0  0  0  0  0
  -28.3710  -12.5460   18.4640 C   0  0  0  0  0  2  0  0  0  0  0  0
  -27.9650  -13.5350   19.5880 C   0  0  0  0  0  3  0  0  0  0  0  0
  -29.0280  -13.6030   20.7010 C   0  0  0  0  0  2  0  0  0  0  0  0
  -30.2900  -13.9840   20.0550 N   0  0  0  0  0  0  0  0  0  0  0  0
  -32.0730  -15.3370   19.8060 O   0  0  0  0  0  0  0  0  0  0  0  0
  -30.0250  -16.3910   20.0660 N   0  0  0  0  0  0  0  0  0  0  0  0
  -29.0550  -16.1190   20.1040 H   0  0  0  0  0  0  0  0  0  0  0  0
  -25.6230  -14.1580   20.4170 C   0  0  0  0  0  0  0  0  0  0  0  0
  -24.5460  -13.4020   20.7890 C   0  0  0  0  0  0  0  0  0  0  0  0
  -24.9710  -12.0400   20.6980 C   0  0  0  0  0  0  0  0  0  0  0  0
  -26.6320  -13.2600   20.1150 N   0  0  0  0  0  0  0  0  0  0  0  0
  -26.2510  -11.9790   20.3520 N   0  0  0  0  0  0  0  0  0  0  0  0
  -24.2150  -10.7930   20.8650 C   0  0  0  0  0  0  0  0  0  0  0  0
  -24.6100   -9.8050   21.7930 C   0  0  0  0  0  3  0  0  0  0  0  0
  -23.8530   -8.6220   21.9470 C   0  0  0  0  0  3  0  0  0  0  0  0
  -22.6860   -8.4220   21.1730 C   0  0  0  0  0  0  0  0  0  0  0  0
  -22.3110   -9.3970   20.2340 C   0  0  0  0  0  3  0  0  0  0  0  0
  -23.0680  -10.5710   20.0760 C   0  0  0  0  0  3  0  0  0  0  0  0
  -21.9040   -7.2940   21.2370 O   0  0  0  0  0  0  0  0  0  0  0  0
  -21.7880   -6.5630   22.3920 C   0  0  0  0  0  0  0  0  0  0  0  0
  -21.2890   -7.1300   23.5860 C   0  0  0  0  0  3  0  0  0  0  0  0
  -21.1200   -6.3270   24.7300 C   0  0  0  0  0  3  0  0  0  0  0  0
  -21.4390   -4.9550   24.6830 C   0  0  0  0  0  0  0  0  0  0  0  0
  -21.9300   -4.3880   23.4940 C   0  0  0  0  0  3  0  0  0  0  0  0
  -22.1010   -5.1900   22.3510 C   0  0  0  0  0  0  0  0  0  0  0  0
  -22.5540   -4.6330   21.2020 F   0  0  0  0  0  0  0  0  0  0  0  0
  -21.2700   -4.1810   25.7790 F   0  0  0  0  0  0  0  0  0  0  0  0
  -23.1700  -13.9080   21.1090 C   0  0  0  0  0  0  0  0  0  0  0  0
  -22.4440  -13.2070   21.9730 N   0  0  0  0  0  0  0  0  0  0  0  0
  -22.7490  -14.9600   20.6290 O   0  0  0  0  0  0  0  0  0  0  0  0
  -22.7980  -12.3560   22.3850 H   0  0  0  0  0  0  0  0  0  0  0  0
  -21.5200  -13.5270   22.2270 H   0  0  0  0  0  0  0  0  0  0  0  0
  -25.8170  -15.5310   20.2800 N   0  0  0  0  0  0  0  0  0  0  0  0
  -25.0610  -16.1900   20.4270 H   0  0  0  0  0  0  0  0  0  0  0  0
  -26.6420  -15.9620   19.8870 H   0  0  0  0  0  0  0  0  0  0  0  0
  1  7  1  0
  1  2  1  0
  2  3  1  0
  2  6  1  0
  4  2  1  0
  6  5  1  0
  8  7  1  0
  8  9  1  0
 10 12  1  0
 10  9  1  0
 11 22  2  0
 12 17  1  0
 13 21  1  0
 13 23  1  0
 14 20  1  0
 14 16  1  0
 15 21  1  0
 16 15  1  0
 17 16  2  0
 18 19  1  0
 18 12  2  0
 19 14  2  0
 20 13  1  0
 21 11  1  0
 23 25  2  0
 24 23  1  0
 26 24  1  0
 27 36  2  0
 27 32  1  0
 28 24  1  0
 28 32  1  0
 29 28  1  0
 30 31  1  0
 30 29  1  0
 31 27  1  0
 32 33  2  0
 33 34  1  0
 35 34  2  0
 36 35  1  0
 37 11  1  0
 37 42  1  0
 37 38  1  0
 38 41  1  1
 38 39  1  0
 40 38  1  0
 42 45  1  0
 43 47  1  0
 43 42  1  0
 44 43  2  0
 47 46  1  0
 49 47  1  0
 49 50  1  0
 49 48  1  0
 51 53  1  0
 51  1  1  0
 51 54  1  0
 52 53  1  0
 55 61  1  0
 55 63  1  0
 56 61  1  0
 57 58  1  0
 57 56  1  0
 59 58  1  0
 59 68  1  0
 59 60  1  0
 61 60  1  0
 62 55  2  0
 63 64  1  0
 63 54  1  0
 65 66  2  0
 66 85  1  0
 67 66  1  0
 67 70  1  0
 68 69  1  0
 68 65  1  0
 69 67  2  0
 70 71  1  0
 71 72  2  0
 73 76  1  0
 73 72  1  0
 74 73  2  0
 75 74  1  0
 75 70  2  0
 76 77  1  0
 77 78  1  0
 78 79  2  0
 80 79  1  0
 80 84  1  0
 81 80  2  0
 82 77  2  0
 82 81  1  0
 83 82  1  0
 85 86  1  0
 86 89  1  0
 86 88  1  0
 87 85  2  0
 90 65  1  0
 90 91  1  0
 92 90  1  0
M  ISO  4   9 101  10 101  55 100  63 100
M  END
>  <TORSDO>  (83) 
F 24

>  <SCORE>  (83) 
-11.692

>  <name>  (83) 
82

>  <ligand_id>  (83) 
82

>  <original_smiles>  (83) 
[H]c1c([H])c([H])c2c(c1[H])C([H])([H])C([H])([H])C([H])([H])C2([H])N([H])C(=O)C1([H])N(C(=O)C([H])(N([H])C(=O)C([H])(N([H])C([H])([H])[H])C([H])([H])[H])C(C([H])([H])[H])(C([H])([H])[H])C([H])([H])[H])C([H])([H])c2c([H])c(OC([H])([H])C([H])([H])C([H])([H])C([H])(C([H])(C([H])([H])N([H])C(=O)N3C([H])([H])C([H])([H])C([H])([H])C([H])(n4nc(-c5c([H])c([H])c(Oc6c([H])c([H])c(F)c([H])c6F)c([H])c5[H])c(C(=O)N([H])[H])c4N([H])[H])C3([H])[H])C([H])([H])C([H])([H])[H])[N+]([H])([H])C([H])([H])C([H])([H])[H])c([H])c([H])c2C1([H])[H]

>  <smiles>  (83) 
[H]c1c([H])c([H])c2c(c1[H])C([H])([H])C([H])([H])C([H])([H])C2([H])N([H])C(=O)C1([H])N(C(=O)C([H])(N([H])C(=O)C([H])(N([H])C([H])([H])[H])C([H])([H])[H])C(C([H])([H])[H])(C([H])([H])[H])C([H])([H])[H])C([H])([H])c2c([H])c(OC([H])([H])C([H])([H])C([H])([H])C([H])(C([H])(C([H])([H])N([H])C(=O)N3C([H])([H])C([H])([H])C([H])([H])C([H])(n4nc(-c5c([H])c([H])c(Oc6c([H])c([H])c(F)c([H])c6F)c([H])c5[H])c(C(=O)N([H])[H])c4N([H])[H])C3([H])[H])C([H])([H])C([H])([H])[H])[N+]([H])([H])C([H])([H])C([H])([H])[H])c([H])c([H])c2C1([H])[H]

$$$$
83:0:0
     RDKit          3D

 95102  0  0  1  0  0  0  0  0999 V2000
  -27.5410  -21.8600   19.6740 C   0  0  0  0  0  2  0  0  0  0  0  0
  -28.1000  -22.5760   18.5030 N   0  0  0  0  0  4  0  0  0  0  0  0
  -27.9220  -22.0010   17.6960 H   0  0  0  0  0  0  0  0  0  0  0  0
  -29.1020  -22.6620   18.5880 H   0  0  0  0  0  0  0  0  0  0  0  0
  -27.4830  -23.8970   18.2220 C   0  0  0  0  0  2  0  0  0  0  0  0
  -28.3690  -25.1180   18.5460 C   0  0  0  0  0  2  0  0  0  0  0  0
  -28.3400  -25.5710   20.0170 C   0  0  0  0  0  2  0  0  0  0  0  0
  -28.3750  -26.9990   20.1070 O   0  0  0  0  0  0  0  0  0  0  0  0
  -24.5610  -31.9710   23.4140 C   0  0  0  0  0  0  0  0  0  0  0  0
  -27.1760  -27.6780   20.1290 C   0  0  0  0  0  0  0  0  0  0  0  0
  -23.3290  -30.6340   21.7360 C   0  0  0  0  0  3  0  0  0  0  0  0
  -24.7630  -29.1560   20.2330 C   0  0  0  0  0  0  0  0  0  0  0  0
  -25.8480  -31.0150   21.5090 C   0  0  0  0  0  2  0  0  0  0  0  0
  -25.9280  -29.6700   20.8170 C   0  0  0  0  0  0  0  0  0  0  0  0
  -27.1340  -28.9420   20.7550 C   0  0  0  0  0  3  0  0  0  0  0  0
  -25.9890  -27.1690   19.5450 C   0  0  0  0  0  3  0  0  0  0  0  0
  -24.7890  -27.9040   19.5930 C   0  0  0  0  0  3  0  0  0  0  0  0
  -23.5160  -30.0030   20.3290 C   0  0  0  0  0  2  0  0  0  0  0  0
  -24.5980  -31.2170   22.2790 N   0  0  0  0  0  0  0  0  0  0  0  0
  -23.4900  -32.2200   23.9860 O   0  0  0  0  0  0  0  0  0  0  0  0
  -22.6960  -29.5730   22.6680 C   0  0  0  0  0  0  0  0  0  0  0  0
  -21.3870  -29.3300   22.4980 N   0  0  0  0  0  0  0  0  0  0  0  0
  -23.3850  -28.9700   23.4950 O   0  0  0  0  0  0  0  0  0  0  0  0
  -20.8920  -29.8720   21.8020 H   0  0  0  0  0  0  0  0  0  0  0  0
  -18.0780  -27.9190   22.8090 C   0  0  0  0  0  0  0  0  0  0  0  0
  -20.5900  -28.3500   23.2340 C   0  0  0  0  0  3  0  0  0  0  0  0
  -20.8210  -26.9220   22.6880 C   0  0  0  0  0  2  0  0  0  0  0  0
  -19.8080  -26.5140   21.6120 C   0  0  0  0  0  2  0  0  0  0  0  0
  -18.3820  -26.5740   22.1690 C   0  0  0  0  0  2  0  0  0  0  0  0
  -19.1150  -28.7590   23.2940 C   0  0  0  0  0  0  0  0  0  0  0  0
  -18.7780  -30.0140   23.8450 C   0  0  0  0  0  3  0  0  0  0  0  0
  -17.4370  -30.4300   23.9210 C   0  0  0  0  0  3  0  0  0  0  0  0
  -16.4100  -29.5880   23.4560 C   0  0  0  0  0  3  0  0  0  0  0  0
  -16.7330  -28.3350   22.9050 C   0  0  0  0  0  3  0  0  0  0  0  0
  -25.8590  -32.5800   24.0330 C   0  0  0  0  0  3  0  0  0  0  0  0
  -26.3800  -31.7840   25.2910 C   0  0  1  0  0  0  0  0  0  0  0  0
  -25.2930  -31.5250   26.3620 C   0  0  0  0  0  1  0  0  0  0  0  0
  -26.9590  -30.4130   24.8680 C   0  0  0  0  0  1  0  0  0  0  0  0
  -27.5360  -32.5650   25.9610 C   0  0  0  0  0  1  0  0  0  0  0  0
  -25.5650  -33.9750   24.3830 N   0  0  0  0  0  0  0  0  0  0  0  0
  -25.8950  -35.0340   23.6330 C   0  0  0  0  0  0  0  0  0  0  0  0
  -26.5500  -34.9380   22.5920 O   0  0  0  0  0  0  0  0  0  0  0  0
  -24.9790  -34.1210   25.1920 H   0  0  0  0  0  0  0  0  0  0  0  0
  -24.1670  -36.8360   23.3310 C   0  0  0  0  0  1  0  0  0  0  0  0
  -25.4220  -36.4190   24.1140 C   0  0  0  0  0  3  0  0  0  0  0  0
  -27.5790  -37.2850   24.9060 C   0  0  0  0  0  1  0  0  0  0  0  0
  -26.4550  -37.4700   23.9910 N   0  0  0  0  0  0  0  0  0  0  0  0
  -26.0550  -38.3880   24.1680 H   0  0  0  0  0  0  0  0  0  0  0  0
  -27.6610  -20.3230   19.5730 C   0  0  0  0  0  2  0  0  0  0  0  0
  -29.0730  -19.7810   19.2880 C   0  0  0  0  0  2  0  0  0  0  0  0
  -29.1970  -18.2970   19.6840 C   0  0  0  0  0  2  0  0  0  0  0  0
  -30.5970  -17.7080   19.4090 C   0  0  0  0  0  2  0  0  0  0  0  0
  -31.0940  -16.6500   20.4330 C   0  0  0  0  0  3  0  0  0  0  0  0
  -31.0770  -14.2620   19.6590 C   0  0  0  0  0  0  0  0  0  0  0  0
  -30.8270  -11.8710   19.0970 C   0  0  0  0  0  2  0  0  0  0  0  0
  -29.8660  -11.6770   17.9100 C   0  0  0  0  0  2  0  0  0  0  0  0
  -28.4060  -11.6010   18.3990 C   0  0  0  0  0  2  0  0  0  0  0  0
  -28.0370  -12.7570   19.3650 C   0  0  0  0  0  3  0  0  0  0  0  0
  -29.1050  -12.9050   20.4700 C   0  0  0  0  0  2  0  0  0  0  0  0
  -30.4180  -13.0840   19.8210 N   0  0  0  0  0  0  0  0  0  0  0  0
  -32.1340  -14.3680   19.0300 O   0  0  0  0  0  0  0  0  0  0  0  0
  -30.5000  -15.3270   20.2260 N   0  0  0  0  0  0  0  0  0  0  0  0
  -29.6470  -15.1600   20.7400 H   0  0  0  0  0  0  0  0  0  0  0  0
  -25.7130  -13.5220   20.1700 C   0  0  0  0  0  0  0  0  0  0  0  0
  -24.6270  -12.8260   20.6260 C   0  0  0  0  0  0  0  0  0  0  0  0
  -25.0150  -11.4500   20.6290 C   0  0  0  0  0  0  0  0  0  0  0  0
  -26.6970  -12.5780   19.9240 N   0  0  0  0  0  0  0  0  0  0  0  0
  -26.2820  -11.3280   20.2570 N   0  0  0  0  0  0  0  0  0  0  0  0
  -24.2360  -10.2380   20.9090 C   0  0  0  0  0  0  0  0  0  0  0  0
  -24.6450   -9.3070   21.8900 C   0  0  0  0  0  3  0  0  0  0  0  0
  -23.8710   -8.1580   22.1560 C   0  0  0  0  0  3  0  0  0  0  0  0
  -22.6700   -7.9310   21.4420 C   0  0  0  0  0  0  0  0  0  0  0  0
  -22.2790   -8.8480   20.4510 C   0  0  0  0  0  3  0  0  0  0  0  0
  -23.0550   -9.9890   20.1850 C   0  0  0  0  0  3  0  0  0  0  0  0
  -21.8670   -6.8300   21.6140 O   0  0  0  0  0  0  0  0  0  0  0  0
  -21.7870   -6.1790   22.8190 C   0  0  0  0  0  0  0  0  0  0  0  0
  -21.3890   -6.8420   24.0000 C   0  0  0  0  0  3  0  0  0  0  0  0
  -21.2530   -6.1180   25.2020 C   0  0  0  0  0  3  0  0  0  0  0  0
  -21.5060   -4.7340   25.2250 C   0  0  0  0  0  0  0  0  0  0  0  0
  -21.8970   -4.0720   24.0470 C   0  0  0  0  0  3  0  0  0  0  0  0
  -22.0350   -4.7910   22.8480 C   0  0  0  0  0  0  0  0  0  0  0  0
  -22.3910   -4.1440   21.7130 F   0  0  0  0  0  0  0  0  0  0  0  0
  -21.3680   -4.0370   26.3770 F   0  0  0  0  0  0  0  0  0  0  0  0
  -23.2730  -13.3870   20.9490 C   0  0  0  0  0  0  0  0  0  0  0  0
  -22.5630  -12.7750   21.8900 N   0  0  0  0  0  0  0  0  0  0  0  0
  -22.8560  -14.4050   20.3970 O   0  0  0  0  0  0  0  0  0  0  0  0
  -22.9140  -11.9520   22.3570 H   0  0  0  0  0  0  0  0  0  0  0  0
  -21.6530  -13.1330   22.1440 H   0  0  0  0  0  0  0  0  0  0  0  0
  -25.9420  -14.8740   19.9230 N   0  0  0  0  0  0  0  0  0  0  0  0
  -25.2230  -15.5780   20.0470 H   0  0  0  0  0  0  0  0  0  0  0  0
  -26.8000  -15.2470   19.5380 H   0  0  0  0  0  0  0  0  0  0  0  0
  -30.9100  -17.0580   21.9040 C   0  0  0  0  0  0  0  0  0  0  0  0
  -30.4150  -16.2950   22.7380 O   0  0  0  0  0  0  0  0  0  0  0  0
  -30.9770  -18.8440   23.7510 C   0  0  0  0  0  1  0  0  0  0  0  0
  -31.3510  -18.4680   22.3060 C   0  0  0  0  0  2  0  0  0  0  0  0
  2  4  1  0
  2  1  1  0
  3  2  1  0
  5  2  1  0
  5  6  1  0
  6  7  1  0
  7  8  1  0
  8 10  1  0
  9 20  2  0
 10 15  1  0
 11 19  1  0
 11 21  1  0
 12 18  1  0
 12 14  1  0
 13 19  1  0
 14 13  1  0
 15 14  2  0
 16 17  1  0
 16 10  2  0
 17 12  2  0
 18 11  1  0
 19  9  1  0
 21 23  2  0
 22 21  1  0
 24 22  1  0
 25 34  2  0
 25 30  1  0
 26 22  1  0
 26 30  1  0
 27 26  1  0
 28 29  1  0
 28 27  1  0
 29 25  1  0
 30 31  2  0
 31 32  1  0
 33 32  2  0
 34 33  1  0
 35  9  1  0
 35 40  1  0
 35 36  1  0
 36 39  1  1
 36 37  1  0
 38 36  1  0
 40 43  1  0
 41 45  1  0
 41 40  1  0
 42 41  2  0
 45 44  1  0
 47 45  1  0
 47 48  1  0
 47 46  1  0
 49  1  1  0
 50 49  1  0
 50 51  1  0
 52 51  1  0
 53 52  1  0
 53 92  1  0
 54 60  1  0
 54 62  1  0
 55 60  1  0
 56 57  1  0
 56 55  1  0
 58 57  1  0
 58 67  1  0
 58 59  1  0
 60 59  1  0
 61 54  2  0
 62 53  1  0
 62 63  1  0
 64 65  2  0
 65 66  1  0
 65 84  1  0
 66 69  1  0
 67 64  1  0
 67 68  1  0
 68 66  2  0
 69 70  1  0
 70 71  2  0
 72 75  1  0
 72 71  1  0
 73 72  2  0
 74 73  1  0
 74 69  2  0
 75 76  1  0
 76 81  2  0
 76 77  1  0
 77 78  2  0
 78 79  1  0
 79 83  1  0
 80 79  2  0
 81 80  1  0
 82 81  1  0
 84 85  1  0
 85 88  1  0
 85 87  1  0
 86 84  2  0
 89 90  1  0
 89 64  1  0
 91 89  1  0
 92 95  1  0
 92 93  2  0
 95 94  1  0
M  ISO  4   7 101   8 101  54 100  62 100
M  END
>  <TORSDO>  (84) 
F 27

>  <SCORE>  (84) 
-10.750

>  <name>  (84) 
83

>  <ligand_id>  (84) 
83

>  <original_smiles>  (84) 
[H]c1c([H])c([H])c2c(c1[H])C([H])([H])C([H])([H])C([H])([H])C2([H])N([H])C(=O)C1([H])N(C(=O)C([H])(N([H])C(=O)C([H])(N([H])C([H])([H])[H])C([H])([H])[H])C(C([H])([H])[H])(C([H])([H])[H])C([H])([H])[H])C([H])([H])c2c([H])c(OC([H])([H])C([H])([H])C([H])([H])[N+]([H])([H])C([H])([H])C([H])([H])C([H])([H])C([H])([H])C([H])([H])C([H])(C(=O)C([H])([H])C([H])([H])[H])N([H])C(=O)N3C([H])([H])C([H])([H])C([H])([H])C([H])(n4nc(-c5c([H])c([H])c(Oc6c([H])c([H])c(F)c([H])c6F)c([H])c5[H])c(C(=O)N([H])[H])c4N([H])[H])C3([H])[H])c([H])c([H])c2C1([H])[H]

>  <smiles>  (84) 
[H]c1c([H])c([H])c2c(c1[H])C([H])([H])C([H])([H])C([H])([H])C2([H])N([H])C(=O)C1([H])N(C(=O)C([H])(N([H])C(=O)C([H])(N([H])C([H])([H])[H])C([H])([H])[H])C(C([H])([H])[H])(C([H])([H])[H])C([H])([H])[H])C([H])([H])c2c([H])c(OC([H])([H])C([H])([H])C([H])([H])[N+]([H])([H])C([H])([H])C([H])([H])C([H])([H])C([H])([H])C([H])([H])C([H])(C(=O)C([H])([H])C([H])([H])[H])N([H])C(=O)N3C([H])([H])C([H])([H])C([H])([H])C([H])(n4nc(-c5c([H])c([H])c(Oc6c([H])c([H])c(F)c([H])c6F)c([H])c5[H])c(C(=O)N([H])[H])c4N([H])[H])C3([H])[H])c([H])c([H])c2C1([H])[H]

$$$$
84:0:0
     RDKit          3D

 91100  0  0  1  0  0  0  0  0999 V2000
  -29.6500  -23.4240   19.4890 C   0  0  0  0  0  2  0  0  0  0  0  0
  -28.1920  -18.6820   20.0760 C   0  0  0  0  0  2  0  0  0  0  0  0
  -29.6990  -21.8830   19.2300 C   0  0  0  0  0  2  0  0  0  0  0  0
  -27.8210  -20.1900   19.8770 C   0  0  0  0  0  2  0  0  0  0  0  0
  -28.4520  -22.3790   21.2230 C   0  0  0  0  0  2  0  0  0  0  0  0
  -29.8830  -20.0030   21.0700 C   0  0  0  0  0  2  0  0  0  0  0  0
  -28.3850  -23.6810   20.3070 C   0  0  0  0  0  3  0  0  0  0  0  0
  -29.6950  -18.5910   20.3580 C   0  0  0  0  0  3  0  0  0  0  0  0
  -28.9720  -21.1200   20.3810 C   0  0  2  0  0  0  0  0  0  0  0  0
  -28.1830  -25.1200   20.9890 C   0  0  0  0  0  0  0  0  0  0  0  0
  -27.8180  -25.1510   22.1660 O   0  0  0  0  0  0  0  0  0  0  0  0
  -28.2880  -26.3420   20.2040 O   0  0  0  0  0  0  0  0  0  0  0  0
  -24.6120  -31.8550   23.2300 C   0  0  0  0  0  0  0  0  0  0  0  0
  -27.2290  -27.2710   20.2070 C   0  0  0  0  0  0  0  0  0  0  0  0
  -23.4200  -30.4580   21.5780 C   0  0  0  0  0  3  0  0  0  0  0  0
  -24.8840  -28.9150   20.1550 C   0  0  0  0  0  0  0  0  0  0  0  0
  -25.9630  -30.7740   21.4160 C   0  0  0  0  0  2  0  0  0  0  0  0
  -26.0510  -29.3930   20.7710 C   0  0  0  0  0  0  0  0  0  0  0  0
  -27.2320  -28.5830   20.7880 C   0  0  0  0  0  3  0  0  0  0  0  0
  -26.0480  -26.8620   19.5580 C   0  0  0  0  0  3  0  0  0  0  0  0
  -24.8860  -27.6550   19.5400 C   0  0  0  0  0  3  0  0  0  0  0  0
  -23.6470  -29.7900   20.1970 C   0  0  0  0  0  2  0  0  0  0  0  0
  -24.6830  -31.0480   22.1310 N   0  0  0  0  0  0  0  0  0  0  0  0
  -23.5250  -32.1310   23.7570 O   0  0  0  0  0  0  0  0  0  0  0  0
  -22.7530  -29.4390   22.5310 C   0  0  0  0  0  0  0  0  0  0  0  0
  -21.4240  -29.2690   22.4040 N   0  0  0  0  0  0  0  0  0  0  0  0
  -23.4270  -28.8040   23.3470 O   0  0  0  0  0  0  0  0  0  0  0  0
  -20.9380  -29.8310   21.7170 H   0  0  0  0  0  0  0  0  0  0  0  0
  -18.0390  -28.0990   22.9130 C   0  0  0  0  0  0  0  0  0  0  0  0
  -20.6010  -28.3310   23.1700 C   0  0  0  0  0  3  0  0  0  0  0  0
  -20.6860  -26.9050   22.5780 C   0  0  0  0  0  2  0  0  0  0  0  0
  -19.5740  -26.6040   21.5670 C   0  0  0  0  0  2  0  0  0  0  0  0
  -18.1970  -26.7560   22.2220 C   0  0  0  0  0  2  0  0  0  0  0  0
  -19.1670  -28.8450   23.3460 C   0  0  0  0  0  0  0  0  0  0  0  0
  -18.9650  -30.1030   23.9530 C   0  0  0  0  0  3  0  0  0  0  0  0
  -17.6660  -30.6140   24.1330 C   0  0  0  0  0  3  0  0  0  0  0  0
  -16.5520  -29.8650   23.7190 C   0  0  0  0  0  3  0  0  0  0  0  0
  -16.7380  -28.6090   23.1140 C   0  0  0  0  0  3  0  0  0  0  0  0
  -25.8900  -32.4890   23.8620 C   0  0  0  0  0  3  0  0  0  0  0  0
  -25.5780  -33.8880   24.1870 N   0  0  0  0  0  0  0  0  0  0  0  0
  -25.9150  -34.9400   23.4300 C   0  0  0  0  0  0  0  0  0  0  0  0
  -26.5930  -34.8350   22.4030 O   0  0  0  0  0  0  0  0  0  0  0  0
  -24.9770  -34.0450   24.9840 H   0  0  0  0  0  0  0  0  0  0  0  0
  -24.1970  -36.7380   23.0560 C   0  0  0  0  0  1  0  0  0  0  0  0
  -25.4270  -36.3300   23.8820 C   0  0  0  0  0  3  0  0  0  0  0  0
  -27.5500  -37.2100   24.7460 C   0  0  0  0  0  1  0  0  0  0  0  0
  -26.4640  -37.3800   23.7840 N   0  0  0  0  0  0  0  0  0  0  0  0
  -26.0570  -38.3010   23.9240 H   0  0  0  0  0  0  0  0  0  0  0  0
  -26.3940  -31.7200   25.1430 C   0  0  1  0  0  0  0  0  0  0  0  0
  -25.2920  -31.4860   26.2020 C   0  0  0  0  0  1  0  0  0  0  0  0
  -26.9810  -30.3410   24.7620 C   0  0  0  0  0  1  0  0  0  0  0  0
  -27.5380  -32.5160   25.8140 C   0  0  0  0  0  1  0  0  0  0  0  0
  -30.2440  -17.2460   21.0830 C   0  0  0  0  0  2  0  0  0  0  0  0
  -30.6180  -14.7360   20.2940 C   0  0  0  0  0  0  0  0  0  0  0  0
  -30.4070  -12.4830   19.2100 C   0  0  0  0  0  2  0  0  0  0  0  0
  -29.4450  -12.5680   18.0050 C   0  0  0  0  0  2  0  0  0  0  0  0
  -27.9830  -12.3800   18.4600 C   0  0  0  0  0  2  0  0  0  0  0  0
  -27.6270  -13.2600   19.6870 C   0  0  0  0  0  3  0  0  0  0  0  0
  -28.7020  -13.1460   20.7890 C   0  0  0  0  0  2  0  0  0  0  0  0
  -29.9880  -13.5170   20.1830 N   0  0  0  0  0  0  0  0  0  0  0  0
  -31.7980  -14.8560   19.9490 O   0  0  0  0  0  0  0  0  0  0  0  0
  -29.8490  -15.8380   20.6380 N   0  0  0  0  0  0  0  0  0  0  0  0
  -28.8750  -15.6190   20.7860 H   0  0  0  0  0  0  0  0  0  0  0  0
  -25.2490  -13.8510   20.4530 C   0  0  0  0  0  0  0  0  0  0  0  0
  -24.1910  -13.0770   20.8430 C   0  0  0  0  0  0  0  0  0  0  0  0
  -24.6540  -11.7270   20.8010 C   0  0  0  0  0  0  0  0  0  0  0  0
  -26.2890  -12.9720   20.1990 N   0  0  0  0  0  0  0  0  0  0  0  0
  -25.9390  -11.6880   20.4680 N   0  0  0  0  0  0  0  0  0  0  0  0
  -23.9310  -10.4640   20.9980 C   0  0  0  0  0  0  0  0  0  0  0  0
  -24.3750   -9.4950   21.9230 C   0  0  0  0  0  3  0  0  0  0  0  0
  -23.6540   -8.2960   22.1090 C   0  0  0  0  0  3  0  0  0  0  0  0
  -22.4710   -8.0580   21.3700 C   0  0  0  0  0  0  0  0  0  0  0  0
  -22.0440   -9.0150   20.4320 C   0  0  0  0  0  3  0  0  0  0  0  0
  -22.7690  -10.2050   20.2440 C   0  0  0  0  0  3  0  0  0  0  0  0
  -21.7180   -6.9120   21.4650 O   0  0  0  0  0  0  0  0  0  0  0  0
  -21.6820   -6.1680   22.6160 C   0  0  0  0  0  0  0  0  0  0  0  0
  -21.2490   -6.7160   23.8430 C   0  0  0  0  0  3  0  0  0  0  0  0
  -21.1630   -5.8990   24.9870 C   0  0  0  0  0  3  0  0  0  0  0  0
  -21.4970   -4.5340   24.9060 C   0  0  0  0  0  0  0  0  0  0  0  0
  -21.9240   -3.9850   23.6840 C   0  0  0  0  0  3  0  0  0  0  0  0
  -22.0140   -4.8000   22.5410 C   0  0  0  0  0  0  0  0  0  0  0  0
  -22.4040   -4.2620   21.3610 F   0  0  0  0  0  0  0  0  0  0  0  0
  -21.4070   -3.7460   26.0040 F   0  0  0  0  0  0  0  0  0  0  0  0
  -22.7980  -13.5530   21.1380 C   0  0  0  0  0  0  0  0  0  0  0  0
  -22.0810  -12.8520   22.0120 N   0  0  0  0  0  0  0  0  0  0  0  0
  -22.3550  -14.5830   20.6320 O   0  0  0  0  0  0  0  0  0  0  0  0
  -22.4540  -12.0210   22.4450 H   0  0  0  0  0  0  0  0  0  0  0  0
  -21.1470  -13.1540   22.2500 H   0  0  0  0  0  0  0  0  0  0  0  0
  -25.4110  -15.2210   20.2740 N   0  0  0  0  0  0  0  0  0  0  0  0
  -24.6450  -15.8760   20.3830 H   0  0  0  0  0  0  0  0  0  0  0  0
  -26.2410  -15.6500   19.8840 H   0  0  0  0  0  0  0  0  0  0  0  0
  1  7  1  0
  2  8  1  0
  3  1  1  0
  4  2  1  0
  9  4  1  6
  7 10  1  0
  7  5  1  0
  8  6  1  0
  8 53  1  0
  9  3  1  0
  9  6  1  0
  9  5  1  0
 10 11  2  0
 12 14  1  0
 12 10  1  0
 13 24  2  0
 14 19  1  0
 15 23  1  0
 15 25  1  0
 16 22  1  0
 16 18  1  0
 17 23  1  0
 18 19  2  0
 18 17  1  0
 20 14  2  0
 21 20  1  0
 21 16  2  0
 22 15  1  0
 23 13  1  0
 25 27  2  0
 26 25  1  0
 28 26  1  0
 29 38  2  0
 29 34  1  0
 30 26  1  0
 30 34  1  0
 31 30  1  0
 32 33  1  0
 32 31  1  0
 33 29  1  0
 34 35  2  0
 35 36  1  0
 37 36  2  0
 38 37  1  0
 39 13  1  0
 39 40  1  0
 39 49  1  0
 40 43  1  0
 41 45  1  0
 41 40  1  0
 42 41  2  0
 45 44  1  0
 47 45  1  0
 47 48  1  0
 47 46  1  0
 49 52  1  1
 49 50  1  0
 51 49  1  0
 54 62  1  0
 55 60  1  0
 56 57  1  0
 56 55  1  0
 58 57  1  0
 58 67  1  0
 58 59  1  0
 60 54  1  0
 60 59  1  0
 61 54  2  0
 62 63  1  0
 62 53  1  0
 64 65  2  0
 65 84  1  0
 66 65  1  0
 66 69  1  0
 67 64  1  0
 67 68  1  0
 68 66  2  0
 69 70  1  0
 70 71  2  0
 72 75  1  0
 72 71  1  0
 73 72  2  0
 74 73  1  0
 74 69  2  0
 75 76  1  0
 76 77  1  0
 77 78  2  0
 79 78  1  0
 79 83  1  0
 80 79  2  0
 81 76  2  0
 81 80  1  0
 82 81  1  0
 84 85  1  0
 85 88  1  0
 85 87  1  0
 86 84  2  0
 89 90  1  0
 89 64  1  0
 91 89  1  0
M  ISO  4  10 101  12 101  54 100  62 100
M  END
>  <TORSDO>  (85) 
F 18

>  <SCORE>  (85) 
-14.843

>  <name>  (85) 
84

>  <ligand_id>  (85) 
84

>  <original_smiles>  (85) 
[H]c1c([H])c([H])c2c(c1[H])C([H])([H])C([H])([H])C([H])([H])C2([H])N([H])C(=O)C1([H])N(C(=O)C([H])(N([H])C(=O)C([H])(N([H])C([H])([H])[H])C([H])([H])[H])C(C([H])([H])[H])(C([H])([H])[H])C([H])([H])[H])C([H])([H])c2c([H])c(OC(=O)C3([H])C([H])([H])C([H])([H])C4(C([H])([H])C([H])([H])C([H])(C([H])([H])N([H])C(=O)N5C([H])([H])C([H])([H])C([H])([H])C([H])(n6nc(-c7c([H])c([H])c(Oc8c([H])c([H])c(F)c([H])c8F)c([H])c7[H])c(C(=O)N([H])[H])c6N([H])[H])C5([H])[H])C4([H])[H])C3([H])[H])c([H])c([H])c2C1([H])[H]

>  <smiles>  (85) 
[H]c1c([H])c([H])c2c(c1[H])C([H])([H])C([H])([H])C([H])([H])C2([H])N([H])C(=O)C1([H])N(C(=O)C([H])(N([H])C(=O)C([H])(N([H])C([H])([H])[H])C([H])([H])[H])C(C([H])([H])[H])(C([H])([H])[H])C([H])([H])[H])C([H])([H])c2c([H])c(OC(=O)C3([H])C([H])([H])C([H])([H])C4(C([H])([H])C([H])([H])C([H])(C([H])([H])N([H])C(=O)N5C([H])([H])C([H])([H])C([H])([H])C([H])(n6nc(-c7c([H])c([H])c(Oc8c([H])c([H])c(F)c([H])c8F)c([H])c7[H])c(C(=O)N([H])[H])c6N([H])[H])C5([H])[H])C4([H])[H])C3([H])[H])c([H])c([H])c2C1([H])[H]

$$$$
85:0:0
     RDKit          3D

 93102  0  0  1  0  0  0  0  0999 V2000
  -30.7030  -23.1220   20.6840 C   0  0  0  0  0  0  0  0  0  0  0  0
  -31.0920  -21.8850   19.8720 C   0  0  0  0  0  2  0  0  0  0  0  0
  -27.9580  -20.8010   20.7100 C   0  0  0  0  0  2  0  0  0  0  0  0
  -29.2090  -23.1520   21.0370 C   0  0  0  0  0  3  0  0  0  0  0  0
  -29.7750  -21.1440   19.6770 C   0  0  0  0  0  3  0  0  0  0  0  0
  -28.6240  -22.0590   20.1280 C   0  0  0  0  0  3  0  0  0  0  0  0
  -29.3180  -20.0910   20.7140 C   0  0  0  0  0  3  0  0  0  0  0  0
  -31.5080  -23.9950   21.0190 O   0  0  0  0  0  0  0  0  0  0  0  0
  -27.0980  -24.4710   21.5870 C   0  0  0  0  0  1  0  0  0  0  0  0
  -28.5310  -24.5630   21.0330 C   0  0  0  0  0  3  0  0  0  0  0  0
  -28.5730  -25.3560   19.6960 C   0  0  0  0  0  2  0  0  0  0  0  0
  -28.4920  -26.7780   19.9250 O   0  0  0  0  0  0  0  0  0  0  0  0
  -24.5600  -31.7700   23.1310 C   0  0  0  0  0  0  0  0  0  0  0  0
  -27.2800  -27.4440   19.9360 C   0  0  0  0  0  0  0  0  0  0  0  0
  -23.3820  -30.4050   21.4390 C   0  0  0  0  0  3  0  0  0  0  0  0
  -24.8630  -28.9280   19.9800 C   0  0  0  0  0  0  0  0  0  0  0  0
  -25.9050  -30.7980   21.2690 C   0  0  0  0  0  2  0  0  0  0  0  0
  -26.0110  -29.4470   20.5890 C   0  0  0  0  0  0  0  0  0  0  0  0
  -27.2190  -28.7130   20.5610 C   0  0  0  0  0  3  0  0  0  0  0  0
  -26.1090  -26.9410   19.3250 C   0  0  0  0  0  3  0  0  0  0  0  0
  -24.9070  -27.6730   19.3470 C   0  0  0  0  0  3  0  0  0  0  0  0
  -23.6080  -29.7700   20.0410 C   0  0  0  0  0  2  0  0  0  0  0  0
  -24.6340  -31.0050   22.0050 N   0  0  0  0  0  0  0  0  0  0  0  0
  -23.4720  -32.0110   23.6720 O   0  0  0  0  0  0  0  0  0  0  0  0
  -22.7380  -29.3460   22.3620 C   0  0  0  0  0  0  0  0  0  0  0  0
  -21.4100  -29.1810   22.2470 N   0  0  0  0  0  0  0  0  0  0  0  0
  -23.4280  -28.6780   23.1360 O   0  0  0  0  0  0  0  0  0  0  0  0
  -20.9140  -29.7740   21.5960 H   0  0  0  0  0  0  0  0  0  0  0  0
  -18.0250  -28.0390   22.7890 C   0  0  0  0  0  0  0  0  0  0  0  0
  -20.5960  -28.2170   22.9860 C   0  0  0  0  0  3  0  0  0  0  0  0
  -20.6410  -26.8230   22.3180 C   0  0  0  0  0  2  0  0  0  0  0  0
  -19.4980  -26.5920   21.3250 C   0  0  0  0  0  2  0  0  0  0  0  0
  -18.1420  -26.7310   22.0250 C   0  0  0  0  0  2  0  0  0  0  0  0
  -19.1770  -28.7450   23.2260 C   0  0  0  0  0  0  0  0  0  0  0  0
  -19.0120  -29.9730   23.9000 C   0  0  0  0  0  3  0  0  0  0  0  0
  -17.7290  -30.4970   24.1410 C   0  0  0  0  0  3  0  0  0  0  0  0
  -16.5910  -29.7860   23.7210 C   0  0  0  0  0  3  0  0  0  0  0  0
  -16.7400  -28.5590   23.0500 C   0  0  0  0  0  3  0  0  0  0  0  0
  -25.8340  -32.3960   23.7800 C   0  0  0  0  0  3  0  0  0  0  0  0
  -25.5150  -33.7870   24.1290 N   0  0  0  0  0  0  0  0  0  0  0  0
  -25.8500  -34.8520   23.3900 C   0  0  0  0  0  0  0  0  0  0  0  0
  -26.5330  -34.7680   22.3640 O   0  0  0  0  0  0  0  0  0  0  0  0
  -24.9080  -33.9260   24.9240 H   0  0  0  0  0  0  0  0  0  0  0  0
  -24.1170  -36.6410   23.0370 C   0  0  0  0  0  1  0  0  0  0  0  0
  -25.3490  -36.2310   23.8610 C   0  0  0  0  0  3  0  0  0  0  0  0
  -27.4630  -37.1170   24.7420 C   0  0  0  0  0  1  0  0  0  0  0  0
  -26.3790  -37.2900   23.7790 N   0  0  0  0  0  0  0  0  0  0  0  0
  -25.9650  -38.2060   23.9290 H   0  0  0  0  0  0  0  0  0  0  0  0
  -26.3400  -31.6040   25.0480 C   0  0  1  0  0  0  0  0  0  0  0  0
  -25.2350  -31.3400   26.0970 C   0  0  0  0  0  1  0  0  0  0  0  0
  -26.9370  -30.2390   24.6360 C   0  0  0  0  0  1  0  0  0  0  0  0
  -27.4770  -32.3930   25.7400 C   0  0  0  0  0  1  0  0  0  0  0  0
  -29.3990  -18.5750   20.4370 C   0  0  0  0  0  2  0  0  0  0  0  0
  -30.8420  -18.0220   20.3640 C   0  0  0  0  0  2  0  0  0  0  0  0
  -31.1400  -16.7790   21.2460 C   0  0  0  0  0  2  0  0  0  0  0  0
  -31.0630  -14.5330   20.1260 C   0  0  0  0  0  0  0  0  0  0  0  0
  -30.7000  -12.3260   19.0730 C   0  0  0  0  0  2  0  0  0  0  0  0
  -29.7370  -12.4560   17.8760 C   0  0  0  0  0  2  0  0  0  0  0  0
  -28.2720  -12.3600   18.3420 C   0  0  0  0  0  2  0  0  0  0  0  0
  -27.9660  -13.2890   19.5460 C   0  0  0  0  0  3  0  0  0  0  0  0
  -29.0340  -13.1230   20.6500 C   0  0  0  0  0  2  0  0  0  0  0  0
  -30.3530  -13.3750   20.0440 N   0  0  0  0  0  0  0  0  0  0  0  0
  -32.1460  -14.6940   19.5580 O   0  0  0  0  0  0  0  0  0  0  0  0
  -30.4900  -15.5250   20.8350 N   0  0  0  0  0  0  0  0  0  0  0  0
  -29.5850  -15.3220   21.2340 H   0  0  0  0  0  0  0  0  0  0  0  0
  -25.6170  -13.9930   20.3250 C   0  0  0  0  0  0  0  0  0  0  0  0
  -24.5280  -13.2630   20.7240 C   0  0  0  0  0  0  0  0  0  0  0  0
  -24.9330  -11.8930   20.6750 C   0  0  0  0  0  0  0  0  0  0  0  0
  -26.6170  -13.0700   20.0630 N   0  0  0  0  0  0  0  0  0  0  0  0
  -26.2100  -11.8020   20.3290 N   0  0  0  0  0  0  0  0  0  0  0  0
  -24.1610  -10.6610   20.8840 C   0  0  0  0  0  0  0  0  0  0  0  0
  -24.5530   -9.6980   21.8400 C   0  0  0  0  0  3  0  0  0  0  0  0
  -23.7840   -8.5300   22.0340 C   0  0  0  0  0  3  0  0  0  0  0  0
  -22.6120   -8.3170   21.2720 C   0  0  0  0  0  0  0  0  0  0  0  0
  -22.2390   -9.2680   20.3050 C   0  0  0  0  0  3  0  0  0  0  0  0
  -23.0080  -10.4280   20.1100 C   0  0  0  0  0  3  0  0  0  0  0  0
  -21.8180   -7.1990   21.3740 O   0  0  0  0  0  0  0  0  0  0  0  0
  -21.7020   -6.5040   22.5500 C   0  0  0  0  0  0  0  0  0  0  0  0
  -21.2280   -7.1130   23.7320 C   0  0  0  0  0  3  0  0  0  0  0  0
  -21.0590   -6.3430   24.9020 C   0  0  0  0  0  3  0  0  0  0  0  0
  -21.3550   -4.9680   24.8890 C   0  0  0  0  0  0  0  0  0  0  0  0
  -21.8220   -4.3580   23.7110 C   0  0  0  0  0  3  0  0  0  0  0  0
  -21.9920   -5.1240   22.5450 C   0  0  0  0  0  0  0  0  0  0  0  0
  -22.4230   -4.5290   21.4060 F   0  0  0  0  0  0  0  0  0  0  0  0
  -21.1850   -4.2260   26.0080 F   0  0  0  0  0  0  0  0  0  0  0  0
  -23.1600  -13.7960   21.0390 C   0  0  0  0  0  0  0  0  0  0  0  0
  -22.4380  -13.1360   21.9370 N   0  0  0  0  0  0  0  0  0  0  0  0
  -22.7430  -14.8320   20.5230 O   0  0  0  0  0  0  0  0  0  0  0  0
  -22.7870  -12.2970   22.3750 H   0  0  0  0  0  0  0  0  0  0  0  0
  -21.5210  -13.4750   22.1910 H   0  0  0  0  0  0  0  0  0  0  0  0
  -25.8340  -15.3560   20.1480 N   0  0  0  0  0  0  0  0  0  0  0  0
  -25.1030  -16.0440   20.2840 H   0  0  0  0  0  0  0  0  0  0  0  0
  -26.6970  -15.7580   19.8050 H   0  0  0  0  0  0  0  0  0  0  0  0
  1  8  2  0
  1  4  1  0
  2  1  1  0
  3  7  1  0
  4 10  1  0
  5  2  1  0
  5  6  1  0
  5  7  1  0
  6  3  1  0
  6  4  1  0
  7 53  1  0
 10  9  1  0
 11 12  1  0
 11 10  1  0
 12 14  1  0
 13 24  2  0
 14 19  1  0
 15 23  1  0
 15 25  1  0
 16 22  1  0
 16 18  1  0
 17 23  1  0
 18 17  1  0
 19 18  2  0
 20 21  1  0
 20 14  2  0
 21 16  2  0
 22 15  1  0
 23 13  1  0
 25 27  2  0
 26 25  1  0
 28 26  1  0
 29 38  2  0
 29 34  1  0
 30 26  1  0
 30 34  1  0
 31 30  1  0
 32 33  1  0
 32 31  1  0
 33 29  1  0
 34 35  2  0
 35 36  1  0
 37 36  2  0
 38 37  1  0
 39 13  1  0
 39 40  1  0
 39 49  1  0
 40 43  1  0
 41 45  1  0
 41 40  1  0
 42 41  2  0
 45 44  1  0
 47 45  1  0
 47 48  1  0
 47 46  1  0
 49 52  1  1
 49 50  1  0
 51 49  1  0
 54 53  1  0
 54 55  1  0
 56 64  1  0
 57 62  1  0
 58 59  1  0
 58 57  1  0
 60 59  1  0
 60 69  1  0
 60 61  1  0
 62 56  1  0
 62 61  1  0
 63 56  2  0
 64 65  1  0
 64 55  1  0
 66 67  2  0
 67 86  1  0
 68 67  1  0
 68 71  1  0
 69 66  1  0
 69 70  1  0
 70 68  2  0
 71 72  1  0
 72 73  2  0
 74 77  1  0
 74 73  1  0
 75 74  2  0
 76 75  1  0
 76 71  2  0
 77 78  1  0
 78 79  1  0
 79 80  2  0
 81 80  1  0
 81 85  1  0
 82 81  2  0
 83 78  2  0
 83 82  1  0
 84 83  1  0
 86 87  1  0
 87 90  1  0
 87 89  1  0
 88 86  2  0
 91 92  1  0
 91 66  1  0
 93 91  1  0
M  ISO  4  11 101  12 101  56 100  64 100
M  END
>  <TORSDO>  (86) 
F 21

>  <SCORE>  (86) 
-13.335

>  <name>  (86) 
85

>  <ligand_id>  (86) 
85

>  <original_smiles>  (86) 
[H]c1c([H])c([H])c2c(c1[H])C([H])([H])C([H])([H])C([H])([H])C2([H])N([H])C(=O)C1([H])N(C(=O)C([H])(N([H])C(=O)C([H])(N([H])C([H])([H])[H])C([H])([H])[H])C(C([H])([H])[H])(C([H])([H])[H])C([H])([H])[H])C([H])([H])c2c([H])c(OC([H])([H])C([H])(C([H])([H])[H])C3([H])C(=O)C([H])([H])C4([H])C([H])(C([H])([H])C([H])([H])C([H])([H])N([H])C(=O)N5C([H])([H])C([H])([H])C([H])([H])C([H])(n6nc(-c7c([H])c([H])c(Oc8c([H])c([H])c(F)c([H])c8F)c([H])c7[H])c(C(=O)N([H])[H])c6N([H])[H])C5([H])[H])C([H])([H])C34[H])c([H])c([H])c2C1([H])[H]

>  <smiles>  (86) 
[H]c1c([H])c([H])c2c(c1[H])C([H])([H])C([H])([H])C([H])([H])C2([H])N([H])C(=O)C1([H])N(C(=O)C([H])(N([H])C(=O)C([H])(N([H])C([H])([H])[H])C([H])([H])[H])C(C([H])([H])[H])(C([H])([H])[H])C([H])([H])[H])C([H])([H])c2c([H])c(OC([H])([H])C([H])(C([H])([H])[H])C3([H])C(=O)C([H])([H])C4([H])C([H])(C([H])([H])C([H])([H])C([H])([H])N([H])C(=O)N5C([H])([H])C([H])([H])C([H])([H])C([H])(n6nc(-c7c([H])c([H])c(Oc8c([H])c([H])c(F)c([H])c8F)c([H])c7[H])c(C(=O)N([H])[H])c6N([H])[H])C5([H])[H])C([H])([H])C34[H])c([H])c([H])c2C1([H])[H]

$$$$
86:0:0
     RDKit          3D

102111  0  0  1  0  0  0  0  0999 V2000
  -29.4490  -23.4070   18.9550 C   0  0  0  0  0  3  0  0  0  0  0  0
  -29.8780  -20.9540   19.4750 C   0  0  0  0  0  0  0  0  0  0  0  0
  -29.0590  -22.0110   19.2750 N   0  0  0  0  0  0  0  0  0  0  0  0
  -31.0980  -21.0880   19.5910 O   0  0  0  0  0  0  0  0  0  0  0  0
  -28.0700  -21.8080   19.2340 H   0  0  0  0  0  0  0  0  0  0  0  0
  -29.8440  -18.6600   20.7150 C   0  0  0  0  0  2  0  0  0  0  0  0
  -29.5080  -17.2100   18.8210 C   0  0  0  0  0  2  0  0  0  0  0  0
  -29.2530  -19.5280   19.5570 C   0  0  0  0  0  3  0  0  0  0  0  0
  -30.2950  -17.2880   20.1260 C   0  0  0  0  0  3  0  0  0  0  0  0
  -29.4570  -18.6510   18.2830 C   0  0  0  0  0  3  0  0  0  0  0  0
  -28.0040  -20.2270   16.8340 C   0  0  0  0  0  1  0  0  0  0  0  0
  -28.8860  -18.1070   15.8470 C   0  0  0  0  0  1  0  0  0  0  0  0
  -28.4000  -18.7800   17.1470 C   0  0  0  0  0  3  0  0  0  0  0  0
  -28.9200  -15.8880   21.7910 C   0  0  0  0  0  1  0  0  0  0  0  0
  -31.3370  -16.1800   22.1360 C   0  0  0  0  0  1  0  0  0  0  0  0
  -30.2660  -15.9870   21.0350 C   0  0  2  0  0  0  0  0  0  0  0  0
  -30.7160  -14.7160   20.1840 C   0  0  0  0  0  0  0  0  0  0  0  0
  -30.3770  -12.6150   18.9040 C   0  0  0  0  0  2  0  0  0  0  0  0
  -29.3600  -12.8410   17.7620 C   0  0  0  0  0  2  0  0  0  0  0  0
  -27.9110  -12.6470   18.2530 C   0  0  0  0  0  2  0  0  0  0  0  0
  -27.6390  -13.3980   19.5800 C   0  0  0  0  0  3  0  0  0  0  0  0
  -28.7570  -13.0850   20.5950 C   0  0  0  0  0  2  0  0  0  0  0  0
  -30.0340  -13.5330   20.0150 N   0  0  0  0  0  0  0  0  0  0  0  0
  -31.7780  -14.8740   19.5700 O   0  0  0  0  0  0  0  0  0  0  0  0
  -25.2640  -13.9390   20.4140 C   0  0  0  0  0  0  0  0  0  0  0  0
  -24.2370  -13.1360   20.8320 C   0  0  0  0  0  0  0  0  0  0  0  0
  -24.7340  -11.7980   20.7680 C   0  0  0  0  0  0  0  0  0  0  0  0
  -26.3190  -13.0870   20.1220 N   0  0  0  0  0  0  0  0  0  0  0  0
  -26.0040  -11.7940   20.3890 N   0  0  0  0  0  0  0  0  0  0  0  0
  -24.0520  -10.5160   20.9850 C   0  0  0  0  0  0  0  0  0  0  0  0
  -24.4790   -9.6130   21.9840 C   0  0  0  0  0  3  0  0  0  0  0  0
  -23.7960   -8.3940   22.1850 C   0  0  0  0  0  3  0  0  0  0  0  0
  -22.6740   -8.0680   21.3870 C   0  0  0  0  0  0  0  0  0  0  0  0
  -22.2690   -8.9610   20.3790 C   0  0  0  0  0  3  0  0  0  0  0  0
  -22.9530  -10.1710   20.1760 C   0  0  0  0  0  3  0  0  0  0  0  0
  -21.9640   -6.8960   21.4920 O   0  0  0  0  0  0  0  0  0  0  0  0
  -21.8010   -6.2610   22.6970 C   0  0  0  0  0  0  0  0  0  0  0  0
  -21.1860   -6.8950   23.7970 C   0  0  0  0  0  3  0  0  0  0  0  0
  -20.9740   -6.1820   24.9940 C   0  0  0  0  0  3  0  0  0  0  0  0
  -21.3680   -4.8340   25.0890 C   0  0  0  0  0  0  0  0  0  0  0  0
  -21.9770   -4.1990   23.9940 C   0  0  0  0  0  3  0  0  0  0  0  0
  -22.1890   -4.9090   22.7990 C   0  0  0  0  0  0  0  0  0  0  0  0
  -22.7550   -4.2850   21.7380 F   0  0  0  0  0  0  0  0  0  0  0  0
  -21.1600   -4.1470   26.2370 F   0  0  0  0  0  0  0  0  0  0  0  0
  -22.8440  -13.5730   21.1800 C   0  0  0  0  0  0  0  0  0  0  0  0
  -22.1870  -12.8530   22.0840 N   0  0  0  0  0  0  0  0  0  0  0  0
  -22.3470  -14.5850   20.6900 O   0  0  0  0  0  0  0  0  0  0  0  0
  -22.6050  -12.0380   22.5060 H   0  0  0  0  0  0  0  0  0  0  0  0
  -21.2540  -13.1230   22.3610 H   0  0  0  0  0  0  0  0  0  0  0  0
  -25.3790  -15.3150   20.2400 N   0  0  0  0  0  0  0  0  0  0  0  0
  -24.5960  -15.9420   20.3820 H   0  0  0  0  0  0  0  0  0  0  0  0
  -26.2010  -15.7810   19.8800 H   0  0  0  0  0  0  0  0  0  0  0  0
  -29.5080  -23.6000   17.4100 C   0  0  0  0  0  2  0  0  0  0  0  0
  -33.0850  -23.5260   14.8330 C   0  0  0  0  0  2  0  0  0  0  0  0
  -31.8540  -22.7220   14.3900 C   0  0  0  0  0  2  0  0  0  0  0  0
  -33.2960  -23.3890   16.3460 C   0  0  0  0  0  2  0  0  0  0  0  0
  -30.5980  -23.1650   15.1590 C   0  0  0  0  0  2  0  0  0  0  0  0
  -32.0480  -23.8310   17.1270 C   0  0  0  0  0  2  0  0  0  0  0  0
  -30.7730  -23.0670   16.6920 C   0  0  0  0  0  3  0  0  0  0  0  0
  -28.5160  -24.4560   19.6540 C   0  0  0  0  0  2  0  0  0  0  0  0
  -28.7890  -25.9440   19.2660 C   0  0  0  0  0  2  0  0  0  0  0  0
  -28.4750  -26.9340   20.2610 O   0  0  0  0  0  0  0  0  0  0  0  0
  -24.5620  -32.0120   23.3590 C   0  0  0  0  0  0  0  0  0  0  0  0
  -27.2750  -27.6220   20.2290 C   0  0  0  0  0  0  0  0  0  0  0  0
  -23.3790  -30.6140   21.6970 C   0  0  0  0  0  3  0  0  0  0  0  0
  -24.8550  -29.1020   20.2610 C   0  0  0  0  0  0  0  0  0  0  0  0
  -25.9020  -30.9940   21.5170 C   0  0  0  0  0  2  0  0  0  0  0  0
  -26.0020  -29.6290   20.8630 C   0  0  0  0  0  0  0  0  0  0  0  0
  -27.2080  -28.8920   20.8540 C   0  0  0  0  0  3  0  0  0  0  0  0
  -26.1040  -27.1060   19.6270 C   0  0  0  0  0  3  0  0  0  0  0  0
  -24.9000  -27.8390   19.6440 C   0  0  0  0  0  3  0  0  0  0  0  0
  -23.6000  -29.9460   20.3140 C   0  0  0  0  0  2  0  0  0  0  0  0
  -24.6320  -31.2210   22.2490 N   0  0  0  0  0  0  0  0  0  0  0  0
  -23.4750  -32.2680   23.8970 O   0  0  0  0  0  0  0  0  0  0  0  0
  -22.7340  -29.5770   22.6460 C   0  0  0  0  0  0  0  0  0  0  0  0
  -21.4150  -29.3680   22.4980 N   0  0  0  0  0  0  0  0  0  0  0  0
  -23.4170  -28.9630   23.4690 O   0  0  0  0  0  0  0  0  0  0  0  0
  -20.9240  -29.9150   21.8040 H   0  0  0  0  0  0  0  0  0  0  0  0
  -18.0600  -28.1080   22.9430 C   0  0  0  0  0  0  0  0  0  0  0  0
  -20.6080  -28.4110   23.2520 C   0  0  0  0  0  3  0  0  0  0  0  0
  -20.7440  -26.9860   22.6690 C   0  0  0  0  0  2  0  0  0  0  0  0
  -19.6630  -26.6490   21.6380 C   0  0  0  0  0  2  0  0  0  0  0  0
  -18.2700  -26.7660   22.2640 C   0  0  0  0  0  2  0  0  0  0  0  0
  -19.1570  -28.8880   23.3920 C   0  0  0  0  0  0  0  0  0  0  0  0
  -18.9070  -30.1450   23.9850 C   0  0  0  0  0  3  0  0  0  0  0  0
  -17.5900  -30.6220   24.1330 C   0  0  0  0  0  3  0  0  0  0  0  0
  -16.5060  -29.8390   23.7000 C   0  0  0  0  0  3  0  0  0  0  0  0
  -16.7410  -28.5840   23.1110 C   0  0  0  0  0  3  0  0  0  0  0  0
  -25.8380  -32.6520   23.9900 C   0  0  0  0  0  3  0  0  0  0  0  0
  -25.5230  -34.0520   24.3060 N   0  0  0  0  0  0  0  0  0  0  0  0
  -25.8790  -35.0990   23.5490 C   0  0  0  0  0  0  0  0  0  0  0  0
  -26.5770  -34.9880   22.5370 O   0  0  0  0  0  0  0  0  0  0  0  0
  -24.9050  -34.2110   25.0880 H   0  0  0  0  0  0  0  0  0  0  0  0
  -24.1700  -36.8950   23.1280 C   0  0  0  0  0  1  0  0  0  0  0  0
  -25.3810  -36.4910   23.9840 C   0  0  0  0  0  3  0  0  0  0  0  0
  -27.4870  -37.3720   24.8880 C   0  0  0  0  0  1  0  0  0  0  0  0
  -26.4210  -37.5390   23.9040 N   0  0  0  0  0  0  0  0  0  0  0  0
  -26.0140  -38.4620   24.0310 H   0  0  0  0  0  0  0  0  0  0  0  0
  -26.3420  -31.8900   25.2780 C   0  0  1  0  0  0  0  0  0  0  0  0
  -25.2350  -31.6460   26.3290 C   0  0  0  0  0  1  0  0  0  0  0  0
  -26.9450  -30.5180   24.9010 C   0  0  0  0  0  1  0  0  0  0  0  0
  -27.4760  -32.6980   25.9550 C   0  0  0  0  0  1  0  0  0  0  0  0
  1 53  1  0
  1  3  1  0
  1 60  1  0
  2  4  2  0
  3  2  1  0
  5  3  1  0
  7  9  1  0
  8  2  1  0
  8  6  1  0
  9  6  1  0
  9 16  1  0
 10 13  1  0
 10  7  1  0
 10  8  1  0
 11 13  1  0
 12 13  1  0
 16 14  1  1
 16 15  1  0
 17 16  1  0
 18 23  1  0
 19 20  1  0
 19 18  1  0
 21 20  1  0
 21 28  1  0
 21 22  1  0
 23 17  1  0
 23 22  1  0
 24 17  2  0
 25 26  2  0
 26 45  1  0
 27 26  1  0
 27 30  1  0
 28 29  1  0
 28 25  1  0
 29 27  2  0
 30 31  1  0
 31 32  2  0
 33 36  1  0
 33 32  1  0
 34 33  2  0
 35 34  1  0
 35 30  2  0
 36 37  1  0
 37 42  2  0
 37 38  1  0
 38 39  2  0
 39 40  1  0
 40 44  1  0
 41 40  2  0
 42 41  1  0
 43 42  1  0
 45 46  1  0
 46 49  1  0
 46 48  1  0
 47 45  2  0
 50 51  1  0
 50 25  1  0
 52 50  1  0
 54 56  1  0
 55 54  1  0
 55 57  1  0
 56 58  1  0
 57 59  1  0
 59 58  1  0
 59 53  1  0
 61 60  1  0
 61 62  1  0
 63 74  2  0
 64 62  1  0
 64 69  1  0
 65 73  1  0
 65 75  1  0
 66 72  1  0
 66 68  1  0
 67 73  1  0
 68 67  1  0
 69 68  2  0
 70 71  1  0
 70 64  2  0
 71 66  2  0
 72 65  1  0
 73 63  1  0
 75 77  2  0
 76 75  1  0
 78 76  1  0
 79 88  2  0
 79 84  1  0
 80 76  1  0
 80 84  1  0
 81 80  1  0
 82 83  1  0
 82 81  1  0
 83 79  1  0
 84 85  2  0
 85 86  1  0
 87 86  2  0
 88 87  1  0
 89 63  1  0
 89 90  1  0
 89 99  1  0
 90 93  1  0
 91 95  1  0
 91 90  1  0
 92 91  2  0
 95 94  1  0
 97 95  1  0
 97 98  1  0
 97 96  1  0
 99102  1  1
 99100  1  0
101 99  1  0
M  ISO  4  16 100  17 100  61 101  62 101
M  END
>  <TORSDO>  (87) 
F 24

>  <SCORE>  (87) 
-10.877

>  <name>  (87) 
86

>  <ligand_id>  (87) 
86

>  <original_smiles>  (87) 
[H]c1c([H])c([H])c2c(c1[H])C([H])([H])C([H])([H])C([H])([H])C2([H])N([H])C(=O)C1([H])N(C(=O)C([H])(N([H])C(=O)C([H])(N([H])C([H])([H])[H])C([H])([H])[H])C(C([H])([H])[H])(C([H])([H])[H])C([H])([H])[H])C([H])([H])c2c([H])c(OC([H])([H])C([H])([H])C([H])(N([H])C(=O)C3([H])C([H])([H])C([H])(C(C(=O)N4C([H])([H])C([H])([H])C([H])([H])C([H])(n5nc(-c6c([H])c([H])c(Oc7c([H])c([H])c(F)c([H])c7F)c([H])c6[H])c(C(=O)N([H])[H])c5N([H])[H])C4([H])[H])(C([H])([H])[H])C([H])([H])[H])C([H])([H])C3([H])C([H])(C([H])([H])[H])C([H])([H])[H])C([H])([H])C3([H])C([H])([H])C([H])([H])C([H])([H])C([H])([H])C3([H])[H])c([H])c([H])c2C1([H])[H]

>  <smiles>  (87) 
[H]c1c([H])c([H])c2c(c1[H])C([H])([H])C([H])([H])C([H])([H])C2([H])N([H])C(=O)C1([H])N(C(=O)C([H])(N([H])C(=O)C([H])(N([H])C([H])([H])[H])C([H])([H])[H])C(C([H])([H])[H])(C([H])([H])[H])C([H])([H])[H])C([H])([H])c2c([H])c(OC([H])([H])C([H])([H])C([H])(N([H])C(=O)C3([H])C([H])([H])C([H])(C(C(=O)N4C([H])([H])C([H])([H])C([H])([H])C([H])(n5nc(-c6c([H])c([H])c(Oc7c([H])c([H])c(F)c([H])c7F)c([H])c6[H])c(C(=O)N([H])[H])c5N([H])[H])C4([H])[H])(C([H])([H])[H])C([H])([H])[H])C([H])([H])C3([H])C([H])(C([H])([H])[H])C([H])([H])[H])C([H])([H])C3([H])C([H])([H])C([H])([H])C([H])([H])C([H])([H])C3([H])[H])c([H])c([H])c2C1([H])[H]

$$$$
87:0:0
     RDKit          3D

 92101  0  0  1  0  0  0  0  0999 V2000
  -32.2550  -19.4700   20.8020 C   0  0  0  0  0  2  0  0  0  0  0  0
  -31.5020  -19.6070   22.1440 C   0  0  0  0  0  2  0  0  0  0  0  0
  -30.7240  -17.8600   19.5270 C   0  0  0  0  0  2  0  0  0  0  0  0
  -29.5220  -18.0510   21.7080 C   0  0  0  0  0  2  0  0  0  0  0  0
  -30.4420  -17.1100   20.8620 C   0  0  0  0  0  3  0  0  0  0  0  0
  -31.1240  -19.3630   19.7540 C   0  0  0  0  0  3  0  0  0  0  0  0
  -30.0150  -19.5530   21.7370 C   0  0  0  0  0  3  0  0  0  0  0  0
  -30.0070  -20.1390   20.3670 N   0  0  1  0  0  4  0  0  0  0  0  0
  -29.1440  -19.9180   19.8940 H   0  0  0  0  0  0  0  0  0  0  0  0
  -30.6700  -14.6210   20.3000 C   0  0  0  0  0  0  0  0  0  0  0  0
  -30.3670  -12.4510   19.1500 C   0  0  0  0  0  2  0  0  0  0  0  0
  -29.4020  -12.6410   17.9610 C   0  0  0  0  0  2  0  0  0  0  0  0
  -27.9380  -12.4880   18.4170 C   0  0  0  0  0  2  0  0  0  0  0  0
  -27.6170  -13.3130   19.6920 C   0  0  0  0  0  3  0  0  0  0  0  0
  -28.6960  -13.1150   20.7790 C   0  0  0  0  0  2  0  0  0  0  0  0
  -29.9980  -13.4390   20.1790 N   0  0  0  0  0  0  0  0  0  0  0  0
  -31.8260  -14.7560   19.8930 O   0  0  0  0  0  0  0  0  0  0  0  0
  -29.9520  -15.7020   20.7170 N   0  0  0  0  0  0  0  0  0  0  0  0
  -28.9970  -15.5160   20.9830 H   0  0  0  0  0  0  0  0  0  0  0  0
  -25.2310  -13.9010   20.4440 C   0  0  0  0  0  0  0  0  0  0  0  0
  -24.1730  -13.1230   20.8260 C   0  0  0  0  0  0  0  0  0  0  0  0
  -24.6410  -11.7720   20.7870 C   0  0  0  0  0  0  0  0  0  0  0  0
  -26.2760  -13.0260   20.1950 N   0  0  0  0  0  0  0  0  0  0  0  0
  -25.9270  -11.7420   20.4610 N   0  0  0  0  0  0  0  0  0  0  0  0
  -23.9230  -10.5070   20.9830 C   0  0  0  0  0  0  0  0  0  0  0  0
  -24.3610   -9.5480   21.9240 C   0  0  0  0  0  3  0  0  0  0  0  0
  -23.6430   -8.3460   22.1080 C   0  0  0  0  0  3  0  0  0  0  0  0
  -22.4740   -8.0940   21.3510 C   0  0  0  0  0  0  0  0  0  0  0  0
  -22.0570   -9.0420   20.4000 C   0  0  0  0  0  3  0  0  0  0  0  0
  -22.7750  -10.2350   20.2140 C   0  0  0  0  0  3  0  0  0  0  0  0
  -21.7280   -6.9450   21.4440 O   0  0  0  0  0  0  0  0  0  0  0  0
  -21.6620   -6.2210   22.6080 C   0  0  0  0  0  0  0  0  0  0  0  0
  -21.1940   -6.7900   23.8120 C   0  0  0  0  0  3  0  0  0  0  0  0
  -21.0770   -5.9920   24.9690 C   0  0  0  0  0  3  0  0  0  0  0  0
  -21.4180   -4.6270   24.9200 C   0  0  0  0  0  0  0  0  0  0  0  0
  -21.8790   -4.0580   23.7200 C   0  0  0  0  0  3  0  0  0  0  0  0
  -21.9970   -4.8530   22.5660 C   0  0  0  0  0  0  0  0  0  0  0  0
  -22.4220   -4.2960   21.4070 F   0  0  0  0  0  0  0  0  0  0  0  0
  -21.2990   -3.8580   26.0280 F   0  0  0  0  0  0  0  0  0  0  0  0
  -22.7770  -13.5920   21.1180 C   0  0  0  0  0  0  0  0  0  0  0  0
  -22.0630  -12.8900   21.9920 N   0  0  0  0  0  0  0  0  0  0  0  0
  -22.3270  -14.6150   20.6040 O   0  0  0  0  0  0  0  0  0  0  0  0
  -22.4410  -12.0630   22.4310 H   0  0  0  0  0  0  0  0  0  0  0  0
  -21.1260  -13.1860   22.2270 H   0  0  0  0  0  0  0  0  0  0  0  0
  -25.3860  -15.2730   20.2660 N   0  0  0  0  0  0  0  0  0  0  0  0
  -24.6140  -15.9210   20.3810 H   0  0  0  0  0  0  0  0  0  0  0  0
  -26.2210  -15.7140   19.9010 H   0  0  0  0  0  0  0  0  0  0  0  0
  -30.2260  -21.6450   20.2580 C   0  0  0  0  0  2  0  0  0  0  0  0
  -29.0570  -22.6280   20.6310 C   0  0  0  0  0  2  0  0  0  0  0  0
  -29.3710  -24.1570   20.3650 C   0  0  0  0  0  3  0  0  0  0  0  0
  -28.1850  -25.1610   20.5840 C   0  0  0  0  0  3  0  0  0  0  0  0
  -28.4170  -26.5810   20.2800 O   0  0  0  0  0  0  0  0  0  0  0  0
  -24.6150  -31.9170   23.2490 C   0  0  0  0  0  0  0  0  0  0  0  0
  -27.2850  -27.3980   20.2310 C   0  0  0  0  0  0  0  0  0  0  0  0
  -23.4350  -30.5110   21.5980 C   0  0  0  0  0  3  0  0  0  0  0  0
  -24.9090  -28.9730   20.1930 C   0  0  0  0  0  0  0  0  0  0  0  0
  -25.9730  -30.8490   21.4440 C   0  0  0  0  0  2  0  0  0  0  0  0
  -26.0670  -29.4750   20.8010 C   0  0  0  0  0  0  0  0  0  0  0  0
  -27.2600  -28.6980   20.8110 C   0  0  0  0  0  3  0  0  0  0  0  0
  -26.1080  -26.9480   19.5900 C   0  0  0  0  0  3  0  0  0  0  0  0
  -24.9290  -27.7130   19.5800 C   0  0  0  0  0  3  0  0  0  0  0  0
  -23.6670  -29.8350   20.2220 C   0  0  0  0  0  2  0  0  0  0  0  0
  -24.6920  -31.1080   22.1540 N   0  0  0  0  0  0  0  0  0  0  0  0
  -23.5240  -32.1900   23.7710 O   0  0  0  0  0  0  0  0  0  0  0  0
  -22.7700  -29.4900   22.5510 C   0  0  0  0  0  0  0  0  0  0  0  0
  -21.4480  -29.3020   22.4060 N   0  0  0  0  0  0  0  0  0  0  0  0
  -23.4420  -28.8670   23.3790 O   0  0  0  0  0  0  0  0  0  0  0  0
  -20.9670  -29.8530   21.7090 H   0  0  0  0  0  0  0  0  0  0  0  0
  -18.0670  -28.1080   22.8730 C   0  0  0  0  0  0  0  0  0  0  0  0
  -20.6230  -28.3640   23.1670 C   0  0  0  0  0  3  0  0  0  0  0  0
  -20.7290  -26.9330   22.5910 C   0  0  0  0  0  2  0  0  0  0  0  0
  -19.6370  -26.6130   21.5670 C   0  0  0  0  0  2  0  0  0  0  0  0
  -18.2490  -26.7590   22.1980 C   0  0  0  0  0  2  0  0  0  0  0  0
  -19.1820  -28.8690   23.3140 C   0  0  0  0  0  0  0  0  0  0  0  0
  -18.9590  -30.1330   23.9030 C   0  0  0  0  0  3  0  0  0  0  0  0
  -17.6530  -30.6340   24.0570 C   0  0  0  0  0  3  0  0  0  0  0  0
  -16.5520  -29.8700   23.6340 C   0  0  0  0  0  3  0  0  0  0  0  0
  -16.7600  -28.6090   23.0460 C   0  0  0  0  0  3  0  0  0  0  0  0
  -25.8890  -32.5540   23.8850 C   0  0  0  0  0  3  0  0  0  0  0  0
  -26.3940  -31.7860   25.1670 C   0  0  1  0  0  0  0  0  0  0  0  0
  -25.2880  -31.5420   26.2220 C   0  0  0  0  0  1  0  0  0  0  0  0
  -26.9920  -30.4130   24.7820 C   0  0  0  0  0  1  0  0  0  0  0  0
  -27.5330  -32.5870   25.8410 C   0  0  0  0  0  1  0  0  0  0  0  0
  -25.5690  -33.9500   24.2110 N   0  0  0  0  0  0  0  0  0  0  0  0
  -25.8870  -35.0020   23.4450 C   0  0  0  0  0  0  0  0  0  0  0  0
  -26.5510  -34.9000   22.4100 O   0  0  0  0  0  0  0  0  0  0  0  0
  -24.9800  -34.1040   25.0160 H   0  0  0  0  0  0  0  0  0  0  0  0
  -24.1360  -36.7740   23.0990 C   0  0  0  0  0  1  0  0  0  0  0  0
  -25.3900  -36.3890   23.8990 C   0  0  0  0  0  3  0  0  0  0  0  0
  -27.5240  -37.3020   24.7030 C   0  0  0  0  0  1  0  0  0  0  0  0
  -26.4110  -37.4520   23.7680 N   0  0  0  0  0  0  0  0  0  0  0  0
  -25.9970  -38.3690   23.9100 H   0  0  0  0  0  0  0  0  0  0  0  0
  1  2  1  0
  3  5  1  0
  5 18  1  0
  5  4  1  0
  6  3  1  0
  6  8  1  0
  6  1  1  0
  7  4  1  0
  7  2  1  0
  8  7  1  0
  8  9  1  6
 10 18  1  0
 11 16  1  0
 12 13  1  0
 12 11  1  0
 14 13  1  0
 14 23  1  0
 14 15  1  0
 16 10  1  0
 16 15  1  0
 17 10  2  0
 18 19  1  0
 20 21  2  0
 21 40  1  0
 22 21  1  0
 22 25  1  0
 23 20  1  0
 23 24  1  0
 24 22  2  0
 25 26  1  0
 26 27  2  0
 28 31  1  0
 28 27  1  0
 29 28  2  0
 30 29  1  0
 30 25  2  0
 31 32  1  0
 32 33  1  0
 33 34  2  0
 35 34  1  0
 35 39  1  0
 36 35  2  0
 37 32  2  0
 37 36  1  0
 38 37  1  0
 40 41  1  0
 41 44  1  0
 41 43  1  0
 42 40  2  0
 45 46  1  0
 45 20  1  0
 47 45  1  0
 48  8  1  0
 48 49  1  0
 50 51  2  0
 50 49  1  0
 52 51  1  0
 53 64  2  0
 54 52  1  0
 54 59  1  0
 55 63  1  0
 55 65  1  0
 56 62  1  0
 56 58  1  0
 57 63  1  0
 58 59  2  0
 58 57  1  0
 60 54  2  0
 61 60  1  0
 61 56  2  0
 62 55  1  0
 63 53  1  0
 65 67  2  0
 66 65  1  0
 68 66  1  0
 69 78  2  0
 69 74  1  0
 70 66  1  0
 70 74  1  0
 71 70  1  0
 72 73  1  0
 72 71  1  0
 73 69  1  0
 74 75  2  0
 75 76  1  0
 77 76  2  0
 78 77  1  0
 79 53  1  0
 79 84  1  0
 79 80  1  0
 80 83  1  1
 80 81  1  0
 82 80  1  0
 84 87  1  0
 85 89  1  0
 85 84  1  0
 86 85  2  0
 89 88  1  0
 91 89  1  0
 91 92  1  0
 91 90  1  0
M  ISO  4  10 100  18 100  51 101  52 101
M  END
>  <TORSDO>  (88) 
F 20

>  <SCORE>  (88) 
-13.326

>  <name>  (88) 
87

>  <ligand_id>  (88) 
87

>  <original_smiles>  (88) 
[H]c1c([H])c([H])c2c(c1[H])C([H])([H])C([H])([H])C([H])([H])C2([H])N([H])C(=O)C1([H])N(C(=O)C([H])(N([H])C(=O)C([H])(N([H])C([H])([H])[H])C([H])([H])[H])C(C([H])([H])[H])(C([H])([H])[H])C([H])([H])[H])C([H])([H])c2c([H])c(OC([H])([H])C([H])([H])C([H])([H])C([H])([H])[N+]3([H])C4([H])C([H])([H])C([H])([H])C3([H])C([H])([H])C([H])(N([H])C(=O)N3C([H])([H])C([H])([H])C([H])([H])C([H])(n5nc(-c6c([H])c([H])c(Oc7c([H])c([H])c(F)c([H])c7F)c([H])c6[H])c(C(=O)N([H])[H])c5N([H])[H])C3([H])[H])C4([H])[H])c([H])c([H])c2C1([H])[H]

>  <smiles>  (88) 
[H]c1c([H])c([H])c2c(c1[H])C([H])([H])C([H])([H])C([H])([H])C2([H])N([H])C(=O)C1([H])N(C(=O)C([H])(N([H])C(=O)C([H])(N([H])C([H])([H])[H])C([H])([H])[H])C(C([H])([H])[H])(C([H])([H])[H])C([H])([H])[H])C([H])([H])c2c([H])c(OC([H])([H])C([H])([H])C([H])([H])C([H])([H])[N+]3([H])C4([H])C([H])([H])C([H])([H])C3([H])C([H])([H])C([H])(N([H])C(=O)N3C([H])([H])C([H])([H])C([H])([H])C([H])(n5nc(-c6c([H])c([H])c(Oc7c([H])c([H])c(F)c([H])c7F)c([H])c6[H])c(C(=O)N([H])[H])c5N([H])[H])C3([H])[H])C4([H])[H])c([H])c([H])c2C1([H])[H]

$$$$
89:0:0
     RDKit          3D

 97106  0  0  1  0  0  0  0  0999 V2000
  -31.9480  -21.5960   20.8670 C   0  0  0  0  0  3  0  0  0  0  0  0
  -32.7750  -19.6790   19.5630 C   0  0  0  0  0  3  0  0  0  0  0  0
  -31.0360  -21.1330   18.6710 C   0  0  0  0  0  3  0  0  0  0  0  0
  -32.8010  -20.4710   20.7370 C   0  0  0  0  0  0  0  0  0  0  0  0
  -31.0300  -21.9630   19.8590 C   0  0  0  0  0  0  0  0  0  0  0  0
  -31.8900  -19.9760   18.5060 C   0  0  0  0  0  0  0  0  0  0  0  0
  -33.7470  -20.1170   21.8480 C   0  0  0  0  0  0  0  0  0  0  0  0
  -33.5330  -20.7250   23.0070 N   0  0  0  0  0  0  0  0  0  0  0  0
  -34.6280  -19.2700   21.7070 O   0  0  0  0  0  0  0  0  0  0  0  0
  -32.7540  -21.3610   23.0960 H   0  0  0  0  0  0  0  0  0  0  0  0
  -34.1090  -20.5250   23.8100 H   0  0  0  0  0  0  0  0  0  0  0  0
  -28.1810  -23.0250   21.5260 C   0  0  0  0  0  2  0  0  0  0  0  0
  -28.4630  -22.6480   20.0730 C   0  0  0  0  0  2  0  0  0  0  0  0
  -29.6870  -22.9680   21.7490 C   0  0  0  0  0  2  0  0  0  0  0  0
  -29.9480  -23.0780   20.2200 C   0  0  1  0  0  0  0  0  0  0  0  0
  -30.2370  -24.5900   19.7070 C   0  0  0  0  0  3  0  0  0  0  0  0
  -30.9110  -25.6150   20.7530 C   0  0  0  0  0  3  0  0  0  0  0  0
  -30.9670  -27.1020   20.6370 O   0  0  0  0  0  0  0  0  0  0  0  0
  -33.9060  -32.4830   16.7980 C   0  0  0  0  0  0  0  0  0  0  0  0
  -32.1240  -27.6500   20.0410 C   0  0  0  0  0  0  0  0  0  0  0  0
  -35.0750  -30.3130   16.7640 C   0  0  0  0  0  3  0  0  0  0  0  0
  -34.3630  -28.6300   18.5470 C   0  0  0  0  0  0  0  0  0  0  0  0
  -33.6940  -31.0150   18.8160 C   0  0  0  0  0  2  0  0  0  0  0  0
  -33.4450  -29.5350   19.0920 C   0  0  0  0  0  0  0  0  0  0  0  0
  -32.3300  -29.0520   19.8450 C   0  0  0  0  0  3  0  0  0  0  0  0
  -33.1360  -26.7920   19.5440 C   0  0  0  0  0  3  0  0  0  0  0  0
  -34.2170  -27.2600   18.7830 C   0  0  0  0  0  3  0  0  0  0  0  0
  -35.5050  -29.1770   17.7250 C   0  0  0  0  0  2  0  0  0  0  0  0
  -34.1860  -31.3120   17.4400 N   0  0  0  0  0  0  0  0  0  0  0  0
  -34.3900  -32.7420   15.6870 O   0  0  0  0  0  0  0  0  0  0  0  0
  -34.4450  -29.6900   15.4970 C   0  0  0  0  0  0  0  0  0  0  0  0
  -35.2800  -29.4050   14.4840 N   0  0  0  0  0  0  0  0  0  0  0  0
  -33.2350  -29.4570   15.4470 O   0  0  0  0  0  0  0  0  0  0  0  0
  -36.2570  -29.6300   14.6070 H   0  0  0  0  0  0  0  0  0  0  0  0
  -36.1330  -29.2130   10.9710 C   0  0  0  0  0  0  0  0  0  0  0  0
  -34.9090  -28.7880   13.2080 C   0  0  0  0  0  3  0  0  0  0  0  0
  -35.4530  -27.3440   13.1110 C   0  0  0  0  0  2  0  0  0  0  0  0
  -36.8200  -27.2600   12.4240 C   0  0  0  0  0  2  0  0  0  0  0  0
  -36.7390  -27.8210   11.0010 C   0  0  0  0  0  2  0  0  0  0  0  0
  -35.2870  -29.6730   12.0150 C   0  0  0  0  0  0  0  0  0  0  0  0
  -34.7820  -30.9900   11.9550 C   0  0  0  0  0  3  0  0  0  0  0  0
  -35.0980  -31.8340   10.8760 C   0  0  0  0  0  3  0  0  0  0  0  0
  -35.9190  -31.3670    9.8340 C   0  0  0  0  0  3  0  0  0  0  0  0
  -36.4320  -30.0590    9.8830 C   0  0  0  0  0  3  0  0  0  0  0  0
  -32.9770  -33.5590   17.4400 C   0  0  0  0  0  3  0  0  0  0  0  0
  -33.7200  -34.8270   17.4630 N   0  0  0  0  0  0  0  0  0  0  0  0
  -34.5190  -35.2250   18.4600 C   0  0  0  0  0  0  0  0  0  0  0  0
  -34.6530  -34.5830   19.5060 O   0  0  0  0  0  0  0  0  0  0  0  0
  -33.7080  -35.3690   16.6110 H   0  0  0  0  0  0  0  0  0  0  0  0
  -36.5370  -36.2970   17.4090 C   0  0  0  0  0  1  0  0  0  0  0  0
  -35.2890  -36.5460   18.2720 C   0  0  0  0  0  3  0  0  0  0  0  0
  -34.6630  -38.0910   20.0740 C   0  0  0  0  0  1  0  0  0  0  0  0
  -35.6830  -37.1860   19.5470 N   0  0  0  0  0  0  0  0  0  0  0  0
  -36.5460  -37.7110   19.4390 H   0  0  0  0  0  0  0  0  0  0  0  0
  -31.6040  -33.7290   16.6820 C   0  0  1  0  0  0  0  0  0  0  0  0
  -31.7020  -34.6060   15.4130 C   0  0  0  0  0  1  0  0  0  0  0  0
  -31.0350  -32.3560   16.2620 C   0  0  0  0  0  1  0  0  0  0  0  0
  -30.5590  -34.3650   17.6280 C   0  0  0  0  0  1  0  0  0  0  0  0
  -31.9430  -19.1130   17.1840 C   0  0  0  0  0  2  0  0  0  0  0  0
  -30.9860  -18.6300   14.8390 C   0  0  0  0  0  0  0  0  0  0  0  0
  -31.3380  -18.6840   12.3740 C   0  0  0  0  0  2  0  0  0  0  0  0
  -32.6260  -19.4810   12.0740 C   0  0  0  0  0  2  0  0  0  0  0  0
  -32.3170  -20.9840   11.9520 C   0  0  0  0  0  2  0  0  0  0  0  0
  -31.4360  -21.5060   13.1190 C   0  0  0  0  0  3  0  0  0  0  0  0
  -30.2310  -20.5760   13.3920 C   0  0  0  0  0  2  0  0  0  0  0  0
  -30.7570  -19.2260   13.6230 N   0  0  0  0  0  0  0  0  0  0  0  0
  -31.2840  -17.4330   14.8960 O   0  0  0  0  0  0  0  0  0  0  0  0
  -31.1170  -19.4340   15.9510 N   0  0  0  0  0  0  0  0  0  0  0  0
  -30.8420  -20.3980   15.8390 H   0  0  0  0  0  0  0  0  0  0  0  0
  -30.9370  -23.9220   13.8260 C   0  0  0  0  0  0  0  0  0  0  0  0
  -30.5740  -25.0310   13.1070 C   0  0  0  0  0  0  0  0  0  0  0  0
  -30.4470  -24.6010   11.7530 C   0  0  0  0  0  0  0  0  0  0  0  0
  -31.0180  -22.8880   12.9060 N   0  0  0  0  0  0  0  0  0  0  0  0
  -30.6610  -23.2940   11.6610 N   0  0  0  0  0  0  0  0  0  0  0  0
  -30.1940  -25.3710   10.5270 C   0  0  0  0  0  0  0  0  0  0  0  0
  -28.8880  -25.7470   10.1440 C   0  0  0  0  0  3  0  0  0  0  0  0
  -28.6750  -26.5030    8.9710 C   0  0  0  0  0  3  0  0  0  0  0  0
  -29.7740  -26.8950    8.1710 C   0  0  0  0  0  0  0  0  0  0  0  0
  -31.0710  -26.4980    8.5430 C   0  0  0  0  0  3  0  0  0  0  0  0
  -31.2800  -25.7390    9.7070 C   0  0  0  0  0  3  0  0  0  0  0  0
  -29.6610  -27.6080    7.0020 O   0  0  0  0  0  0  0  0  0  0  0  0
  -29.3930  -28.9520    7.0030 C   0  0  0  0  0  0  0  0  0  0  0  0
  -30.3830  -29.9100    7.3110 C   0  0  0  0  0  3  0  0  0  0  0  0
  -30.0840  -31.2840    7.2300 C   0  0  0  0  0  3  0  0  0  0  0  0
  -28.7970  -31.7030    6.8380 C   0  0  0  0  0  0  0  0  0  0  0  0
  -27.8110  -30.7510    6.5260 C   0  0  0  0  0  3  0  0  0  0  0  0
  -28.1090  -29.3800    6.6060 C   0  0  0  0  0  0  0  0  0  0  0  0
  -27.1620  -28.4660    6.2830 F   0  0  0  0  0  0  0  0  0  0  0  0
  -28.5090  -33.0230    6.7530 F   0  0  0  0  0  0  0  0  0  0  0  0
  -30.4480  -26.4290   13.6350 C   0  0  0  0  0  0  0  0  0  0  0  0
  -29.2730  -27.0340   13.4920 N   0  0  0  0  0  0  0  0  0  0  0  0
  -31.3750  -26.9790   14.2250 O   0  0  0  0  0  0  0  0  0  0  0  0
  -28.5040  -26.5790   13.0240 H   0  0  0  0  0  0  0  0  0  0  0  0
  -29.1450  -27.9650   13.8610 H   0  0  0  0  0  0  0  0  0  0  0  0
  -31.2230  -23.7110   15.1720 N   0  0  0  0  0  0  0  0  0  0  0  0
  -31.2350  -24.4710   15.8420 H   0  0  0  0  0  0  0  0  0  0  0  0
  -31.5270  -22.8320   15.5720 H   0  0  0  0  0  0  0  0  0  0  0  0
  2  4  2  0
  3  5  1  0
  4  1  1  0
  4  7  1  0
  5 15  1  0
  5  1  2  0
  6  3  2  0
  6  2  1  0
  7  8  1  0
  8 10  1  0
  8 11  1  0
  9  7  2  0
 12 14  1  0
 13 15  1  0
 13 12  1  0
 15 14  1  0
 15 16  1  1
 16 17  2  0
 18 17  1  0
 19 29  1  0
 20 18  1  0
 21 31  1  0
 21 29  1  0
 21 28  1  0
 22 27  2  0
 22 24  1  0
 23 24  1  0
 24 25  2  0
 25 20  1  0
 26 20  2  0
 27 26  1  0
 28 22  1  0
 29 23  1  0
 30 19  2  0
 32 34  1  0
 32 31  1  0
 33 31  2  0
 35 39  1  0
 35 40  1  0
 36 32  1  0
 37 36  1  0
 38 37  1  0
 39 38  1  0
 40 36  1  0
 41 40  2  0
 42 41  1  0
 43 44  1  0
 43 42  2  0
 44 35  2  0
 45 19  1  0
 45 46  1  0
 46 47  1  0
 47 48  2  0
 49 46  1  0
 51 50  1  0
 51 47  1  0
 51 53  1  0
 53 52  1  0
 54 53  1  0
 55 45  1  0
 55 58  1  1
 56 55  1  0
 57 55  1  0
 59  6  1  0
 60 67  2  0
 60 68  1  0
 61 66  1  0
 62 61  1  0
 63 62  1  0
 64 63  1  0
 64 65  1  0
 65 66  1  0
 66 60  1  0
 68 59  1  0
 69 68  1  0
 70 95  1  0
 71 90  1  0
 71 70  2  0
 72 71  1  0
 73 64  1  0
 73 70  1  0
 74 72  2  0
 74 73  1  0
 75 72  1  0
 76 75  1  0
 77 76  2  0
 78 79  2  0
 78 77  1  0
 79 80  1  0
 80 75  2  0
 81 82  1  0
 81 78  1  0
 82 83  1  0
 84 83  2  0
 85 84  1  0
 86 87  1  0
 86 85  2  0
 87 82  2  0
 88 87  1  0
 89 85  1  0
 90 92  2  0
 91 90  1  0
 91 94  1  0
 93 91  1  0
 95 97  1  0
 95 96  1  0
M  ISO  4  17 101  18 101  60 100  68 100
M  END
>  <TORSDO>  (89) 
F 21

>  <SCORE>  (89) 
-4.887

>  <name>  (89) 
89

>  <ligand_id>  (89) 
89

>  <original_smiles>  (89) 
[H]c1c([H])c([H])c2c(c1[H])C([H])([H])C([H])([H])C([H])([H])C2([H])N([H])C(=O)C1([H])N(C(=O)C([H])(N([H])C(=O)C([H])(N([H])C([H])([H])[H])C([H])([H])[H])C(C([H])([H])[H])(C([H])([H])[H])C([H])([H])[H])C([H])([H])c2c([H])c(OC([H])([H])C([H])([H])C3(c4c([H])c(C(=O)N([H])[H])c([H])c(C([H])([H])N([H])C(=O)N5C([H])([H])C([H])([H])C([H])([H])C([H])(n6nc(-c7c([H])c([H])c(Oc8c([H])c([H])c(F)c([H])c8F)c([H])c7[H])c(C(=O)N([H])[H])c6N([H])[H])C5([H])[H])c4[H])C([H])([H])C([H])([H])C3([H])[H])c([H])c([H])c2C1([H])[H]

>  <smiles>  (89) 
[H]c1c([H])c([H])c2c(c1[H])C([H])([H])C([H])([H])C([H])([H])C2([H])N([H])C(=O)C1([H])N(C(=O)C([H])(N([H])C(=O)C([H])(N([H])C([H])([H])[H])C([H])([H])[H])C(C([H])([H])[H])(C([H])([H])[H])C([H])([H])[H])C([H])([H])c2c([H])c(OC([H])([H])C([H])([H])C3(c4c([H])c(C(=O)N([H])[H])c([H])c(C([H])([H])N([H])C(=O)N5C([H])([H])C([H])([H])C([H])([H])C([H])(n6nc(-c7c([H])c([H])c(Oc8c([H])c([H])c(F)c([H])c8F)c([H])c7[H])c(C(=O)N([H])[H])c6N([H])[H])C5([H])[H])c4[H])C([H])([H])C([H])([H])C3([H])[H])c([H])c([H])c2C1([H])[H]

$$$$
90:0:0
     RDKit          3D

 91 99  0  0  1  0  0  0  0  0999 V2000
  -27.6010  -22.1240   19.8990 C   0  0  0  0  0  3  0  0  0  0  0  0
  -27.2240  -20.8230   19.5210 C   0  0  0  0  0  3  0  0  0  0  0  0
  -29.7360  -21.2390   20.6400 C   0  0  0  0  0  3  0  0  0  0  0  0
  -28.8730  -22.3910   20.4490 C   0  0  0  0  0  0  0  0  0  0  0  0
  -28.0910  -19.7190   19.6650 C   0  0  0  0  0  0  0  0  0  0  0  0
  -29.3750  -19.8810   20.2570 C   0  0  0  0  0  0  0  0  0  0  0  0
  -27.9740  -18.2500   17.5970 C   0  0  0  0  0  1  0  0  0  0  0  0
  -27.6130  -18.3930   19.0840 C   0  0  0  0  0  2  0  0  0  0  0  0
  -29.2590  -23.9030   20.7860 C   0  0  0  0  0  3  0  0  0  0  0  0
  -28.2240  -25.0800   20.4160 C   0  0  0  0  0  3  0  0  0  0  0  0
  -28.4950  -26.5460   20.5730 O   0  0  0  0  0  0  0  0  0  0  0  0
  -24.6310  -32.0260   23.3720 C   0  0  0  0  0  0  0  0  0  0  0  0
  -27.3890  -27.4240   20.4730 C   0  0  0  0  0  0  0  0  0  0  0  0
  -23.5000  -30.5830   21.7240 C   0  0  0  0  0  3  0  0  0  0  0  0
  -25.0150  -29.0360   20.3660 C   0  0  0  0  0  0  0  0  0  0  0  0
  -26.0440  -30.9260   21.6160 C   0  0  0  0  0  2  0  0  0  0  0  0
  -26.1640  -29.5380   20.9910 C   0  0  0  0  0  0  0  0  0  0  0  0
  -27.3550  -28.7430   21.0350 C   0  0  0  0  0  3  0  0  0  0  0  0
  -26.2100  -26.9910   19.8200 C   0  0  0  0  0  3  0  0  0  0  0  0
  -25.0400  -27.7680   19.7750 C   0  0  0  0  0  3  0  0  0  0  0  0
  -23.7680  -29.8970   20.3620 C   0  0  0  0  0  2  0  0  0  0  0  0
  -24.7430  -31.1960   22.2940 N   0  0  0  0  0  0  0  0  0  0  0  0
  -23.5240  -32.2960   23.8660 O   0  0  0  0  0  0  0  0  0  0  0  0
  -22.8250  -29.5690   22.6780 C   0  0  0  0  0  0  0  0  0  0  0  0
  -21.5130  -29.3410   22.4860 N   0  0  0  0  0  0  0  0  0  0  0  0
  -23.4780  -28.9900   23.5490 O   0  0  0  0  0  0  0  0  0  0  0  0
  -21.0470  -29.8570   21.7520 H   0  0  0  0  0  0  0  0  0  0  0  0
  -18.1520  -28.0380   22.8490 C   0  0  0  0  0  0  0  0  0  0  0  0
  -20.6820  -28.4000   23.2420 C   0  0  0  0  0  3  0  0  0  0  0  0
  -20.8650  -26.9540   22.7230 C   0  0  0  0  0  2  0  0  0  0  0  0
  -19.8300  -26.5600   21.6650 C   0  0  0  0  0  2  0  0  0  0  0  0
  -18.4110  -26.6760   22.2300 C   0  0  0  0  0  2  0  0  0  0  0  0
  -19.2200  -28.8530   23.3100 C   0  0  0  0  0  0  0  0  0  0  0  0
  -18.9270  -30.1260   23.8470 C   0  0  0  0  0  3  0  0  0  0  0  0
  -17.5990  -30.5850   23.9260 C   0  0  0  0  0  3  0  0  0  0  0  0
  -16.5440  -29.7700   23.4780 C   0  0  0  0  0  3  0  0  0  0  0  0
  -16.8220  -28.4970   22.9470 C   0  0  0  0  0  3  0  0  0  0  0  0
  -25.8830  -32.6870   24.0240 C   0  0  0  0  0  3  0  0  0  0  0  0
  -25.5460  -34.0920   24.2960 N   0  0  0  0  0  0  0  0  0  0  0  0
  -25.9330  -35.1280   23.5380 C   0  0  0  0  0  0  0  0  0  0  0  0
  -26.6750  -34.9990   22.5620 O   0  0  0  0  0  0  0  0  0  0  0  0
  -24.8820  -34.2600   25.0390 H   0  0  0  0  0  0  0  0  0  0  0  0
  -24.2490  -36.9180   23.0060 C   0  0  0  0  0  1  0  0  0  0  0  0
  -25.4150  -36.5260   23.9260 C   0  0  0  0  0  3  0  0  0  0  0  0
  -27.4740  -37.4190   24.9230 C   0  0  0  0  0  1  0  0  0  0  0  0
  -26.4600  -37.5710   23.8820 N   0  0  0  0  0  0  0  0  0  0  0  0
  -26.0470  -38.4940   23.9760 H   0  0  0  0  0  0  0  0  0  0  0  0
  -26.3530  -31.9590   25.3430 C   0  0  1  0  0  0  0  0  0  0  0  0
  -25.2120  -31.7240   26.3630 C   0  0  0  0  0  1  0  0  0  0  0  0
  -26.9810  -30.5850   25.0160 C   0  0  0  0  0  1  0  0  0  0  0  0
  -27.4540  -32.7950   26.0350 C   0  0  0  0  0  1  0  0  0  0  0  0
  -30.3740  -18.6390   20.2810 C   0  0  0  0  0  2  0  0  0  0  0  0
  -30.2690  -17.4650   21.3750 C   0  0  0  0  0  2  0  0  0  0  0  0
  -30.8810  -14.9360   20.7670 C   0  0  0  0  0  0  0  0  0  0  0  0
  -30.7320  -12.7270   19.6160 C   0  0  0  0  0  2  0  0  0  0  0  0
  -29.8230  -12.8650   18.3730 C   0  0  0  0  0  2  0  0  0  0  0  0
  -28.3330  -12.7100   18.7450 C   0  0  0  0  0  2  0  0  0  0  0  0
  -27.9330  -13.5280   20.0010 C   0  0  0  0  0  3  0  0  0  0  0  0
  -28.9540  -13.3430   21.1420 C   0  0  0  0  0  2  0  0  0  0  0  0
  -30.2710  -13.7170   20.6100 N   0  0  0  0  0  0  0  0  0  0  0  0
  -32.0860  -15.0810   20.5430 O   0  0  0  0  0  0  0  0  0  0  0  0
  -30.0440  -16.0130   20.9770 N   0  0  0  0  0  0  0  0  0  0  0  0
  -29.0760  -15.7340   21.0160 H   0  0  0  0  0  0  0  0  0  0  0  0
  -25.5100  -14.1100   20.6150 C   0  0  0  0  0  0  0  0  0  0  0  0
  -24.4310  -13.3330   20.9320 C   0  0  0  0  0  0  0  0  0  0  0  0
  -24.9030  -11.9840   20.9270 C   0  0  0  0  0  0  0  0  0  0  0  0
  -26.5690  -13.2370   20.4290 N   0  0  0  0  0  0  0  0  0  0  0  0
  -26.2070  -11.9530   20.6800 N   0  0  0  0  0  0  0  0  0  0  0  0
  -24.1750  -10.7200   21.0840 C   0  0  0  0  0  0  0  0  0  0  0  0
  -24.5520   -9.7650   22.0540 C   0  0  0  0  0  3  0  0  0  0  0  0
  -23.8240   -8.5640   22.1980 C   0  0  0  0  0  3  0  0  0  0  0  0
  -22.7050   -8.3110   21.3700 C   0  0  0  0  0  0  0  0  0  0  0  0
  -22.3470   -9.2540   20.3900 C   0  0  0  0  0  3  0  0  0  0  0  0
  -23.0760  -10.4460   20.2450 C   0  0  0  0  0  3  0  0  0  0  0  0
  -21.9520   -7.1620   21.4200 O   0  0  0  0  0  0  0  0  0  0  0  0
  -21.8010   -6.4520   22.5840 C   0  0  0  0  0  0  0  0  0  0  0  0
  -21.2260   -7.0290   23.7380 C   0  0  0  0  0  3  0  0  0  0  0  0
  -21.0220   -6.2450   24.8920 C   0  0  0  0  0  3  0  0  0  0  0  0
  -21.3860   -4.8840   24.8910 C   0  0  0  0  0  0  0  0  0  0  0  0
  -21.9530   -4.3080   23.7410 C   0  0  0  0  0  3  0  0  0  0  0  0
  -22.1580   -5.0890   22.5900 C   0  0  0  0  0  0  0  0  0  0  0  0
  -22.6850   -4.5220   21.4780 F   0  0  0  0  0  0  0  0  0  0  0  0
  -21.1850   -4.1270   25.9950 F   0  0  0  0  0  0  0  0  0  0  0  0
  -23.0210  -13.8030   21.1330 C   0  0  0  0  0  0  0  0  0  0  0  0
  -22.2610  -13.1180   21.9790 N   0  0  0  0  0  0  0  0  0  0  0  0
  -22.6000  -14.8170   20.5750 O   0  0  0  0  0  0  0  0  0  0  0  0
  -22.6150  -12.3000   22.4520 H   0  0  0  0  0  0  0  0  0  0  0  0
  -21.3120  -13.4160   22.1580 H   0  0  0  0  0  0  0  0  0  0  0  0
  -25.6670  -15.4810   20.4420 N   0  0  0  0  0  0  0  0  0  0  0  0
  -24.8730  -16.1100   20.5000 H   0  0  0  0  0  0  0  0  0  0  0  0
  -26.5070  -15.9300   20.1080 H   0  0  0  0  0  0  0  0  0  0  0  0
  1  4  1  0
  2  5  1  0
  2  1  2  0
  4  3  2  0
  4  9  1  0
  5  6  2  0
  6 52  1  0
  6  3  1  0
  7  8  1  0
  8  5  1  0
 10 11  1  0
 10  9  2  0
 12 23  2  0
 13 11  1  0
 13 18  1  0
 14 22  1  0
 14 24  1  0
 15 17  1  0
 16 22  1  0
 17 18  2  0
 17 16  1  0
 19 13  2  0
 20 19  1  0
 20 15  2  0
 21 15  1  0
 21 14  1  0
 22 12  1  0
 24 26  2  0
 25 24  1  0
 27 25  1  0
 28 37  2  0
 28 33  1  0
 29 25  1  0
 29 33  1  0
 30 29  1  0
 31 32  1  0
 31 30  1  0
 32 28  1  0
 33 34  2  0
 34 35  1  0
 36 35  2  0
 37 36  1  0
 38 12  1  0
 38 39  1  0
 38 48  1  0
 39 42  1  0
 40 44  1  0
 40 39  1  0
 41 40  2  0
 44 43  1  0
 46 44  1  0
 46 47  1  0
 46 45  1  0
 48 51  1  1
 48 49  1  0
 50 48  1  0
 52 53  1  0
 54 62  1  0
 55 60  1  0
 56 57  1  0
 56 55  1  0
 58 57  1  0
 58 67  1  0
 58 59  1  0
 60 54  1  0
 60 59  1  0
 61 54  2  0
 62 63  1  0
 62 53  1  0
 64 65  2  0
 65 84  1  0
 66 65  1  0
 66 69  1  0
 67 64  1  0
 67 68  1  0
 68 66  2  0
 69 70  1  0
 70 71  2  0
 72 75  1  0
 72 71  1  0
 73 72  2  0
 74 73  1  0
 74 69  2  0
 75 76  1  0
 76 81  2  0
 76 77  1  0
 77 78  2  0
 79 78  1  0
 79 83  1  0
 80 79  2  0
 81 80  1  0
 82 81  1  0
 84 85  1  0
 85 88  1  0
 85 87  1  0
 86 84  2  0
 89 90  1  0
 89 64  1  0
 91 89  1  0
M  ISO  4  10 101  11 101  54 100  62 100
M  END
>  <TORSDO>  (90) 
F 21

>  <SCORE>  (90) 
-13.282

>  <name>  (90) 
90

>  <ligand_id>  (90) 
90

>  <original_smiles>  (90) 
[H]c1c([H])c([H])c2c(c1[H])C([H])([H])C([H])([H])C([H])([H])C2([H])N([H])C(=O)C1([H])N(C(=O)C([H])(N([H])C(=O)C([H])(N([H])C([H])([H])[H])C([H])([H])[H])C(C([H])([H])[H])(C([H])([H])[H])C([H])([H])[H])C([H])([H])c2c([H])c(OC([H])([H])C([H])([H])c3c([H])c([H])c(C([H])([H])C([H])([H])[H])c(C([H])([H])C([H])([H])N([H])C(=O)N4C([H])([H])C([H])([H])C([H])([H])C([H])(n5nc(-c6c([H])c([H])c(Oc7c([H])c([H])c(F)c([H])c7F)c([H])c6[H])c(C(=O)N([H])[H])c5N([H])[H])C4([H])[H])c3[H])c([H])c([H])c2C1([H])[H]

>  <smiles>  (90) 
[H]c1c([H])c([H])c2c(c1[H])C([H])([H])C([H])([H])C([H])([H])C2([H])N([H])C(=O)C1([H])N(C(=O)C([H])(N([H])C(=O)C([H])(N([H])C([H])([H])[H])C([H])([H])[H])C(C([H])([H])[H])(C([H])([H])[H])C([H])([H])[H])C([H])([H])c2c([H])c(OC([H])([H])C([H])([H])c3c([H])c([H])c(C([H])([H])C([H])([H])[H])c(C([H])([H])C([H])([H])N([H])C(=O)N4C([H])([H])C([H])([H])C([H])([H])C([H])(n5nc(-c6c([H])c([H])c(Oc7c([H])c([H])c(F)c([H])c7F)c([H])c6[H])c(C(=O)N([H])[H])c5N([H])[H])C4([H])[H])c3[H])c([H])c([H])c2C1([H])[H]

$$$$
91:0:0
     RDKit          3D

 91100  0  0  1  0  0  0  0  0999 V2000
  -27.3240  -21.7900   18.5390 C   0  0  0  0  0  3  0  0  0  0  0  0
  -27.4970  -23.0800   19.0840 C   0  0  0  0  0  3  0  0  0  0  0  0
  -29.2000  -22.1170   20.5110 C   0  0  0  0  0  3  0  0  0  0  0  0
  -28.0570  -20.6430   18.9480 C   0  0  0  0  0  0  0  0  0  0  0  0
  -28.4220  -23.3410   20.1070 C   0  0  0  0  0  0  0  0  0  0  0  0
  -29.0650  -20.7280   19.9500 C   0  0  0  0  0  0  0  0  0  0  0  0
  -26.3960  -18.9630   17.7590 C   0  0  0  0  0  2  0  0  0  0  0  0
  -27.0490  -18.2110   18.8910 C   0  0  0  0  0  2  0  0  0  0  0  0
  -27.7850  -19.3500   18.2230 C   0  0  0  0  0  3  0  0  0  0  0  0
  -30.0400  -19.3690   20.1200 C   0  0  0  0  0  2  0  0  0  0  0  0
  -29.7670  -17.8720   20.8860 C   0  0  0  0  0  2  0  0  0  0  0  0
  -30.7060  -15.2030   20.3520 C   0  0  0  0  0  0  0  0  0  0  0  0
  -30.6490  -12.8530   19.3580 C   0  0  0  0  0  2  0  0  0  0  0  0
  -29.7120  -12.7860   18.1300 C   0  0  0  0  0  2  0  0  0  0  0  0
  -28.2480  -12.5610   18.5600 C   0  0  0  0  0  2  0  0  0  0  0  0
  -27.8290  -13.4740   19.7410 C   0  0  0  0  0  3  0  0  0  0  0  0
  -28.8840  -13.4810   20.8640 C   0  0  0  0  0  2  0  0  0  0  0  0
  -30.1410  -13.9300   20.2510 N   0  0  0  0  0  0  0  0  0  0  0  0
  -31.9310  -15.2880   20.2130 O   0  0  0  0  0  0  0  0  0  0  0  0
  -29.8510  -16.3530   20.3730 N   0  0  0  0  0  0  0  0  0  0  0  0
  -28.9160  -16.0190   20.2080 H   0  0  0  0  0  0  0  0  0  0  0  0
  -25.4400  -14.0400   20.4590 C   0  0  0  0  0  0  0  0  0  0  0  0
  -24.3780  -13.2600   20.8220 C   0  0  0  0  0  0  0  0  0  0  0  0
  -24.8530  -11.9130   20.8060 C   0  0  0  0  0  0  0  0  0  0  0  0
  -26.4920  -13.1690   20.2340 N   0  0  0  0  0  0  0  0  0  0  0  0
  -26.1490  -11.8840   20.5110 N   0  0  0  0  0  0  0  0  0  0  0  0
  -24.1340  -10.6470   20.9930 C   0  0  0  0  0  0  0  0  0  0  0  0
  -24.5460   -9.6980   21.9540 C   0  0  0  0  0  3  0  0  0  0  0  0
  -23.8240   -8.4970   22.1290 C   0  0  0  0  0  3  0  0  0  0  0  0
  -22.6760   -8.2380   21.3440 C   0  0  0  0  0  0  0  0  0  0  0  0
  -22.2840   -9.1760   20.3730 C   0  0  0  0  0  3  0  0  0  0  0  0
  -23.0060  -10.3680   20.1950 C   0  0  0  0  0  3  0  0  0  0  0  0
  -21.9280   -7.0890   21.4260 O   0  0  0  0  0  0  0  0  0  0  0  0
  -21.8280   -6.3780   22.5960 C   0  0  0  0  0  0  0  0  0  0  0  0
  -21.3180   -6.9570   23.7780 C   0  0  0  0  0  3  0  0  0  0  0  0
  -21.1680   -6.1710   24.9380 C   0  0  0  0  0  3  0  0  0  0  0  0
  -21.5170   -4.8080   24.9170 C   0  0  0  0  0  0  0  0  0  0  0  0
  -22.0210   -4.2290   23.7380 C   0  0  0  0  0  3  0  0  0  0  0  0
  -22.1720   -5.0110   22.5810 C   0  0  0  0  0  0  0  0  0  0  0  0
  -22.6380   -4.4430   21.4420 F   0  0  0  0  0  0  0  0  0  0  0  0
  -21.3660   -4.0510   26.0290 F   0  0  0  0  0  0  0  0  0  0  0  0
  -22.9730  -13.7300   21.0690 C   0  0  0  0  0  0  0  0  0  0  0  0
  -22.2370  -13.0340   21.9280 N   0  0  0  0  0  0  0  0  0  0  0  0
  -22.5370  -14.7480   20.5340 O   0  0  0  0  0  0  0  0  0  0  0  0
  -22.6040  -12.2100   22.3820 H   0  0  0  0  0  0  0  0  0  0  0  0
  -21.2960  -13.3310   22.1380 H   0  0  0  0  0  0  0  0  0  0  0  0
  -25.5910  -15.4110   20.2720 N   0  0  0  0  0  0  0  0  0  0  0  0
  -24.8060  -16.0470   20.3590 H   0  0  0  0  0  0  0  0  0  0  0  0
  -26.4190  -15.8570   19.9060 H   0  0  0  0  0  0  0  0  0  0  0  0
  -28.3400  -24.8560   20.8030 C   0  0  0  0  0  2  0  0  0  0  0  0
  -28.3180  -26.2810   20.1400 O   0  0  0  0  0  0  0  0  0  0  0  0
  -24.6090  -31.9500   23.2350 C   0  0  0  0  0  0  0  0  0  0  0  0
  -27.2290  -27.2350   20.2120 C   0  0  0  0  0  0  0  0  0  0  0  0
  -23.4180  -30.5350   21.6050 C   0  0  0  0  0  3  0  0  0  0  0  0
  -24.8780  -28.9630   20.1870 C   0  0  0  0  0  0  0  0  0  0  0  0
  -25.9710  -30.8260   21.4260 C   0  0  0  0  0  2  0  0  0  0  0  0
  -26.0590  -29.4270   20.7830 C   0  0  0  0  0  0  0  0  0  0  0  0
  -27.2370  -28.5830   20.7680 C   0  0  0  0  0  3  0  0  0  0  0  0
  -26.0160  -26.8700   19.5940 C   0  0  0  0  0  3  0  0  0  0  0  0
  -24.8710  -27.6990   19.5770 C   0  0  0  0  0  3  0  0  0  0  0  0
  -23.6420  -29.8520   20.2310 C   0  0  0  0  0  2  0  0  0  0  0  0
  -24.6870  -31.1270   22.1440 N   0  0  0  0  0  0  0  0  0  0  0  0
  -23.5220  -32.2230   23.7660 O   0  0  0  0  0  0  0  0  0  0  0  0
  -22.7550  -29.5250   22.5750 C   0  0  0  0  0  0  0  0  0  0  0  0
  -21.4320  -29.3250   22.4450 N   0  0  0  0  0  0  0  0  0  0  0  0
  -23.4360  -28.9220   23.4090 O   0  0  0  0  0  0  0  0  0  0  0  0
  -20.9380  -29.8630   21.7470 H   0  0  0  0  0  0  0  0  0  0  0  0
  -18.0770  -28.0410   22.9310 C   0  0  0  0  0  0  0  0  0  0  0  0
  -20.6250  -28.3760   23.2200 C   0  0  0  0  0  3  0  0  0  0  0  0
  -20.7720  -26.9390   22.6690 C   0  0  0  0  0  2  0  0  0  0  0  0
  -19.6900  -26.5730   21.6470 C   0  0  0  0  0  2  0  0  0  0  0  0
  -18.2970  -26.6880   22.2740 C   0  0  0  0  0  2  0  0  0  0  0  0
  -19.1700  -28.8400   23.3600 C   0  0  0  0  0  0  0  0  0  0  0  0
  -18.9080  -30.1030   23.9350 C   0  0  0  0  0  3  0  0  0  0  0  0
  -17.5890  -30.5670   24.0840 C   0  0  0  0  0  3  0  0  0  0  0  0
  -16.5110  -29.7660   23.6690 C   0  0  0  0  0  3  0  0  0  0  0  0
  -16.7550  -28.5050   23.0980 C   0  0  0  0  0  3  0  0  0  0  0  0
  -25.8800  -32.6050   23.8560 C   0  0  0  0  0  3  0  0  0  0  0  0
  -26.3940  -31.8560   25.1470 C   0  0  1  0  0  0  0  0  0  0  0  0
  -25.2980  -31.6270   26.2140 C   0  0  0  0  0  1  0  0  0  0  0  0
  -26.9900  -30.4760   24.7830 C   0  0  0  0  0  1  0  0  0  0  0  0
  -27.5370  -32.6670   25.8020 C   0  0  0  0  0  1  0  0  0  0  0  0
  -25.5570  -34.0050   24.1740 N   0  0  0  0  0  0  0  0  0  0  0  0
  -25.8940  -35.0580   23.4180 C   0  0  0  0  0  0  0  0  0  0  0  0
  -26.5760  -34.9540   22.3950 O   0  0  0  0  0  0  0  0  0  0  0  0
  -24.9530  -34.1600   24.9670 H   0  0  0  0  0  0  0  0  0  0  0  0
  -24.1750  -36.8550   23.0300 C   0  0  0  0  0  1  0  0  0  0  0  0
  -25.3980  -36.4480   23.8660 C   0  0  0  0  0  3  0  0  0  0  0  0
  -27.5150  -37.3350   24.7420 C   0  0  0  0  0  1  0  0  0  0  0  0
  -26.4340  -37.5010   23.7730 N   0  0  0  0  0  0  0  0  0  0  0  0
  -26.0240  -38.4210   23.9090 H   0  0  0  0  0  0  0  0  0  0  0  0
  1  4  2  0
  1  2  1  0
  2  5  2  0
  4  6  1  0
  5  3  1  0
  5 50  1  0
  6 10  1  0
  6  3  2  0
  7  9  1  0
  7  8  1  0
  9  8  1  0
  9  4  1  0
 10 11  1  0
 12 20  1  0
 13 18  1  0
 14 15  1  0
 14 13  1  0
 16 15  1  0
 16 25  1  0
 16 17  1  0
 18 12  1  0
 18 17  1  0
 19 12  2  0
 20 11  1  0
 21 20  1  0
 22 23  2  0
 23 42  1  0
 24 23  1  0
 24 27  1  0
 25 22  1  0
 25 26  1  0
 26 24  2  0
 27 28  1  0
 28 29  2  0
 30 33  1  0
 30 29  1  0
 31 30  2  0
 32 31  1  0
 32 27  2  0
 33 34  1  0
 34 35  1  0
 35 36  2  0
 37 36  1  0
 37 41  1  0
 38 37  2  0
 39 34  2  0
 39 38  1  0
 40 39  1  0
 42 43  1  0
 43 46  1  0
 43 45  1  0
 44 42  2  0
 47 48  1  0
 47 22  1  0
 49 47  1  0
 51 53  1  0
 51 50  1  0
 52 63  2  0
 53 58  1  0
 54 62  1  0
 54 64  1  0
 55 61  1  0
 55 57  1  0
 56 62  1  0
 57 56  1  0
 58 57  2  0
 59 53  2  0
 60 59  1  0
 60 55  2  0
 61 54  1  0
 62 52  1  0
 64 66  2  0
 65 64  1  0
 67 65  1  0
 68 77  2  0
 68 73  1  0
 69 65  1  0
 69 73  1  0
 70 69  1  0
 71 72  1  0
 71 70  1  0
 72 68  1  0
 73 74  2  0
 74 75  1  0
 76 75  2  0
 77 76  1  0
 78 52  1  0
 78 83  1  0
 78 79  1  0
 79 82  1  1
 79 80  1  0
 81 79  1  0
 83 86  1  0
 84 88  1  0
 84 83  1  0
 85 84  2  0
 88 87  1  0
 90 88  1  0
 90 91  1  0
 90 89  1  0
M  ISO  4  12 100  20 100  50 101  51 101
M  END
>  <TORSDO>  (91) 
F 20

>  <SCORE>  (91) 
-13.878

>  <name>  (91) 
91

>  <ligand_id>  (91) 
91

>  <original_smiles>  (91) 
[H]c1c([H])c([H])c2c(c1[H])C([H])([H])C([H])([H])C([H])([H])C2([H])N([H])C(=O)C1([H])N(C(=O)C([H])(N([H])C(=O)C([H])(N([H])C([H])([H])[H])C([H])([H])[H])C(C([H])([H])[H])(C([H])([H])[H])C([H])([H])[H])C([H])([H])c2c([H])c(OC([H])([H])c3c([H])c([H])c(C4([H])C([H])([H])C4([H])[H])c(C([H])([H])C([H])([H])N([H])C(=O)N4C([H])([H])C([H])([H])C([H])([H])C([H])(n5nc(-c6c([H])c([H])c(Oc7c([H])c([H])c(F)c([H])c7F)c([H])c6[H])c(C(=O)N([H])[H])c5N([H])[H])C4([H])[H])c3[H])c([H])c([H])c2C1([H])[H]

>  <smiles>  (91) 
[H]c1c([H])c([H])c2c(c1[H])C([H])([H])C([H])([H])C([H])([H])C2([H])N([H])C(=O)C1([H])N(C(=O)C([H])(N([H])C(=O)C([H])(N([H])C([H])([H])[H])C([H])([H])[H])C(C([H])([H])[H])(C([H])([H])[H])C([H])([H])[H])C([H])([H])c2c([H])c(OC([H])([H])c3c([H])c([H])c(C4([H])C([H])([H])C4([H])[H])c(C([H])([H])C([H])([H])N([H])C(=O)N4C([H])([H])C([H])([H])C([H])([H])C([H])(n5nc(-c6c([H])c([H])c(Oc7c([H])c([H])c(F)c([H])c7F)c([H])c6[H])c(C(=O)N([H])[H])c5N([H])[H])C4([H])[H])c3[H])c([H])c([H])c2C1([H])[H]

$$$$
92:0:0
     RDKit          3D

 97104  0  0  1  0  0  0  0  0999 V2000
  -30.1760  -23.0650   19.1350 C   0  0  0  0  0  2  0  0  0  0  0  0
  -30.5960  -21.5940   19.2710 C   0  0  0  0  0  2  0  0  0  0  0  0
  -30.8140  -21.1040   20.7180 C   0  0  0  0  0  2  0  0  0  0  0  0
  -31.0280  -19.5820   20.7240 C   0  0  0  0  0  2  0  0  0  0  0  0
  -31.1530  -18.9400   22.1140 C   0  0  0  0  0  2  0  0  0  0  0  0
  -31.3640  -17.4070   22.0770 C   0  0  0  0  0  2  0  0  0  0  0  0
  -30.0720  -16.5710   21.8510 C   0  0  0  0  0  2  0  0  0  0  0  0
  -30.7570  -14.6800   20.5100 C   0  0  0  0  0  0  0  0  0  0  0  0
  -30.4050  -12.5820   19.3190 C   0  0  0  0  0  2  0  0  0  0  0  0
  -29.4820  -12.8750   18.1220 C   0  0  0  0  0  2  0  0  0  0  0  0
  -28.0030  -12.7470   18.5350 C   0  0  0  0  0  2  0  0  0  0  0  0
  -27.6640  -13.5080   19.8440 C   0  0  0  0  0  3  0  0  0  0  0  0
  -28.7170  -13.2660   20.9500 C   0  0  0  0  0  2  0  0  0  0  0  0
  -30.0440  -13.5320   20.3750 N   0  0  0  0  0  0  0  0  0  0  0  0
  -31.9470  -14.7680   20.1970 O   0  0  0  0  0  0  0  0  0  0  0  0
  -30.0200  -15.8130   20.5800 N   0  0  0  0  0  0  0  0  0  0  0  0
  -25.2350  -14.0860   20.4630 C   0  0  0  0  0  0  0  0  0  0  0  0
  -24.1680  -13.3060   20.8090 C   0  0  0  0  0  0  0  0  0  0  0  0
  -24.6490  -11.9600   20.8070 C   0  0  0  0  0  0  0  0  0  0  0  0
  -26.3030  -13.2200   20.2890 N   0  0  0  0  0  0  0  0  0  0  0  0
  -25.9510  -11.9360   20.5510 N   0  0  0  0  0  0  0  0  0  0  0  0
  -23.9440  -10.6860   20.9890 C   0  0  0  0  0  0  0  0  0  0  0  0
  -24.3850   -9.7190   21.9200 C   0  0  0  0  0  3  0  0  0  0  0  0
  -23.6690   -8.5150   22.0910 C   0  0  0  0  0  3  0  0  0  0  0  0
  -22.5020   -8.2680   21.3260 C   0  0  0  0  0  0  0  0  0  0  0  0
  -22.0820   -9.2230   20.3860 C   0  0  0  0  0  3  0  0  0  0  0  0
  -22.7990  -10.4200   20.2120 C   0  0  0  0  0  3  0  0  0  0  0  0
  -21.7610   -7.1130   21.4040 O   0  0  0  0  0  0  0  0  0  0  0  0
  -21.7320   -6.3520   22.5460 C   0  0  0  0  0  0  0  0  0  0  0  0
  -21.3450   -6.8970   23.7880 C   0  0  0  0  0  3  0  0  0  0  0  0
  -21.2640   -6.0710   24.9250 C   0  0  0  0  0  3  0  0  0  0  0  0
  -21.5540   -4.6980   24.8210 C   0  0  0  0  0  0  0  0  0  0  0  0
  -21.9340   -4.1500   23.5840 C   0  0  0  0  0  3  0  0  0  0  0  0
  -22.0210   -4.9760   22.4480 C   0  0  0  0  0  0  0  0  0  0  0  0
  -22.3680   -4.4410   21.2540 F   0  0  0  0  0  0  0  0  0  0  0  0
  -21.4680   -3.9010   25.9130 F   0  0  0  0  0  0  0  0  0  0  0  0
  -22.7540  -13.7630   21.0390 C   0  0  0  0  0  0  0  0  0  0  0  0
  -22.0210  -13.0690   21.9000 N   0  0  0  0  0  0  0  0  0  0  0  0
  -22.3060  -14.7700   20.4900 O   0  0  0  0  0  0  0  0  0  0  0  0
  -22.4040  -12.2730   22.3920 H   0  0  0  0  0  0  0  0  0  0  0  0
  -21.0700  -13.3510   22.0880 H   0  0  0  0  0  0  0  0  0  0  0  0
  -25.3890  -15.4530   20.2560 N   0  0  0  0  0  0  0  0  0  0  0  0
  -26.2630  -15.8810   19.9760 H   0  0  0  0  0  0  0  0  0  0  0  0
  -24.5990  -16.0880   20.2340 H   0  0  0  0  0  0  0  0  0  0  0  0
  -30.0090  -16.6510   19.3530 C   0  0  0  0  0  2  0  0  0  0  0  0
  -27.8350  -17.8850   20.0260 C   0  0  0  0  0  1  0  0  0  0  0  0
  -28.6500  -17.2400   18.8940 C   0  0  0  0  0  3  0  0  0  0  0  0
  -27.6510  -18.8810   17.1540 C   0  0  0  0  0  1  0  0  0  0  0  0
  -28.9150  -18.2510   17.7580 C   0  0  0  0  0  2  0  0  0  0  0  0
  -30.0170  -23.4870   17.6560 C   0  0  0  0  0  2  0  0  0  0  0  0
  -29.3690  -24.8070   17.4610 N   0  0  0  0  0  4  0  0  0  0  0  0
  -28.5790  -24.9290   18.0760 H   0  0  0  0  0  0  0  0  0  0  0  0
  -28.9840  -24.7670   16.5300 H   0  0  0  0  0  0  0  0  0  0  0  0
  -30.2440  -26.0050   17.4500 C   0  0  0  0  0  2  0  0  0  0  0  0
  -30.6410  -26.5610   18.8420 C   0  0  0  0  0  2  0  0  0  0  0  0
  -29.6040  -27.4750   19.5260 C   0  0  0  0  0  2  0  0  0  0  0  0
  -28.4440  -26.7340   19.8950 O   0  0  0  0  0  0  0  0  0  0  0  0
  -24.6460  -31.8550   23.1820 C   0  0  0  0  0  0  0  0  0  0  0  0
  -27.2880  -27.4700   20.0270 C   0  0  0  0  0  0  0  0  0  0  0  0
  -23.4230  -30.4540   21.5470 C   0  0  0  0  0  3  0  0  0  0  0  0
  -24.8650  -28.9210   20.1100 C   0  0  0  0  0  0  0  0  0  0  0  0
  -25.9420  -30.8310   21.3230 C   0  0  0  0  0  2  0  0  0  0  0  0
  -26.0280  -29.4660   20.6740 C   0  0  0  0  0  0  0  0  0  0  0  0
  -27.2430  -28.7480   20.6300 C   0  0  0  0  0  3  0  0  0  0  0  0
  -26.1030  -26.9160   19.5100 C   0  0  0  0  0  3  0  0  0  0  0  0
  -24.8950  -27.6390   19.5360 C   0  0  0  0  0  3  0  0  0  0  0  0
  -23.6130  -29.7650   20.1700 C   0  0  0  0  0  2  0  0  0  0  0  0
  -24.6880  -31.0620   22.0740 N   0  0  0  0  0  0  0  0  0  0  0  0
  -23.5710  -32.1200   23.7390 O   0  0  0  0  0  0  0  0  0  0  0  0
  -22.7860  -29.4310   22.5140 C   0  0  0  0  0  0  0  0  0  0  0  0
  -21.4600  -29.2520   22.4040 N   0  0  0  0  0  0  0  0  0  0  0  0
  -23.4810  -28.7990   23.3150 O   0  0  0  0  0  0  0  0  0  0  0  0
  -20.9630  -29.8090   21.7230 H   0  0  0  0  0  0  0  0  0  0  0  0
  -18.0900  -28.0660   22.9370 C   0  0  0  0  0  0  0  0  0  0  0  0
  -20.6520  -28.3130   23.1790 C   0  0  0  0  0  3  0  0  0  0  0  0
  -20.7420  -26.8840   22.5920 C   0  0  0  0  0  2  0  0  0  0  0  0
  -19.6260  -26.5720   21.5910 C   0  0  0  0  0  2  0  0  0  0  0  0
  -18.2530  -26.7190   22.2530 C   0  0  0  0  0  2  0  0  0  0  0  0
  -19.2170  -28.8230   23.3570 C   0  0  0  0  0  0  0  0  0  0  0  0
  -19.0110  -30.0850   23.9530 C   0  0  0  0  0  3  0  0  0  0  0  0
  -17.7090  -30.5900   24.1380 C   0  0  0  0  0  3  0  0  0  0  0  0
  -16.5970  -29.8290   23.7370 C   0  0  0  0  0  3  0  0  0  0  0  0
  -16.7890  -28.5690   23.1420 C   0  0  0  0  0  3  0  0  0  0  0  0
  -25.9390  -32.4850   23.7900 C   0  0  0  0  0  3  0  0  0  0  0  0
  -26.4860  -31.6990   25.0440 C   0  0  1  0  0  0  0  0  0  0  0  0
  -25.4180  -31.4360   26.1320 C   0  0  0  0  0  1  0  0  0  0  0  0
  -27.0730  -30.3320   24.6200 C   0  0  0  0  0  1  0  0  0  0  0  0
  -27.6440  -32.4920   25.6950 C   0  0  0  0  0  1  0  0  0  0  0  0
  -25.6250  -33.8740   24.1460 N   0  0  0  0  0  0  0  0  0  0  0  0
  -25.9400  -34.9400   23.4000 C   0  0  0  0  0  0  0  0  0  0  0  0
  -26.5970  -34.8580   22.3570 O   0  0  0  0  0  0  0  0  0  0  0  0
  -25.0460  -34.0110   24.9610 H   0  0  0  0  0  0  0  0  0  0  0  0
  -24.1930  -36.7240   23.0990 C   0  0  0  0  0  1  0  0  0  0  0  0
  -25.4490  -36.3180   23.8850 C   0  0  0  0  0  3  0  0  0  0  0  0
  -27.5940  -37.2020   24.6870 C   0  0  0  0  0  1  0  0  0  0  0  0
  -26.4720  -37.3800   23.7720 N   0  0  0  0  0  0  0  0  0  0  0  0
  -26.0620  -38.2940   23.9480 H   0  0  0  0  0  0  0  0  0  0  0  0
  1  2  1  0
  2  3  1  0
  3  4  1  0
  4  5  1  0
  6  5  1  0
  7  6  1  0
  8 16  1  0
  9 14  1  0
 10 11  1  0
 10  9  1  0
 12 11  1  0
 12 20  1  0
 12 13  1  0
 14  8  1  0
 14 13  1  0
 15  8  2  0
 16  7  1  0
 17 18  2  0
 18 37  1  0
 19 18  1  0
 19 22  1  0
 20 17  1  0
 20 21  1  0
 21 19  2  0
 22 23  1  0
 23 24  2  0
 25 28  1  0
 25 24  1  0
 26 25  2  0
 27 26  1  0
 27 22  2  0
 28 29  1  0
 29 30  1  0
 30 31  2  0
 32 31  1  0
 32 36  1  0
 33 32  2  0
 34 29  2  0
 34 33  1  0
 35 34  1  0
 37 38  1  0
 38 41  1  0
 38 40  1  0
 39 37  2  0
 42 17  1  0
 43 42  1  0
 44 42  1  0
 45 16  1  0
 47 45  1  0
 47 46  1  0
 48 49  1  0
 49 47  1  0
 50  1  1  0
 51 50  1  0
 51 52  1  0
 53 51  1  0
 54 51  1  0
 54 55  1  0
 55 56  1  0
 56 57  1  0
 57 59  1  0
 58 69  2  0
 59 64  1  0
 60 68  1  0
 60 70  1  0
 61 67  1  0
 61 63  1  0
 62 68  1  0
 63 62  1  0
 64 63  2  0
 65 66  1  0
 65 59  2  0
 66 61  2  0
 67 60  1  0
 68 58  1  0
 70 72  2  0
 71 70  1  0
 73 71  1  0
 74 83  2  0
 74 79  1  0
 75 71  1  0
 75 79  1  0
 76 75  1  0
 77 78  1  0
 77 76  1  0
 78 74  1  0
 79 80  2  0
 80 81  1  0
 82 81  2  0
 83 82  1  0
 84 58  1  0
 84 89  1  0
 84 85  1  0
 85 88  1  1
 85 86  1  0
 87 85  1  0
 89 92  1  0
 90 94  1  0
 90 89  1  0
 91 90  2  0
 94 93  1  0
 96 94  1  0
 96 97  1  0
 96 95  1  0
M  ISO  4   8 100  16 100  56 101  57 101
M  END
>  <TORSDO>  (92) 
F 30

>  <SCORE>  (92) 
-10.935

>  <name>  (92) 
92

>  <ligand_id>  (92) 
92

>  <original_smiles>  (92) 
[H]c1c([H])c([H])c2c(c1[H])C([H])([H])C([H])([H])C([H])([H])C2([H])N([H])C(=O)C1([H])N(C(=O)C([H])(N([H])C(=O)C([H])(N([H])C([H])([H])[H])C([H])([H])[H])C(C([H])([H])[H])(C([H])([H])[H])C([H])([H])[H])C([H])([H])c2c([H])c(OC([H])([H])C([H])([H])C([H])([H])[N+]([H])([H])C([H])([H])C([H])([H])C([H])([H])C([H])([H])C([H])([H])C([H])([H])C([H])([H])C([H])([H])N(C(=O)N3C([H])([H])C([H])([H])C([H])([H])C([H])(n4nc(-c5c([H])c([H])c(Oc6c([H])c([H])c(F)c([H])c6F)c([H])c5[H])c(C(=O)N([H])[H])c4N([H])[H])C3([H])[H])C([H])([H])C([H])(C([H])([H])[H])C([H])([H])C([H])([H])[H])c([H])c([H])c2C1([H])[H]

>  <smiles>  (92) 
[H]c1c([H])c([H])c2c(c1[H])C([H])([H])C([H])([H])C([H])([H])C2([H])N([H])C(=O)C1([H])N(C(=O)C([H])(N([H])C(=O)C([H])(N([H])C([H])([H])[H])C([H])([H])[H])C(C([H])([H])[H])(C([H])([H])[H])C([H])([H])[H])C([H])([H])c2c([H])c(OC([H])([H])C([H])([H])C([H])([H])[N+]([H])([H])C([H])([H])C([H])([H])C([H])([H])C([H])([H])C([H])([H])C([H])([H])C([H])([H])C([H])([H])N(C(=O)N3C([H])([H])C([H])([H])C([H])([H])C([H])(n4nc(-c5c([H])c([H])c(Oc6c([H])c([H])c(F)c([H])c6F)c([H])c5[H])c(C(=O)N([H])[H])c4N([H])[H])C3([H])[H])C([H])([H])C([H])(C([H])([H])[H])C([H])([H])C([H])([H])[H])c([H])c([H])c2C1([H])[H]

$$$$
93:0:0
     RDKit          3D

 96103  0  0  1  0  0  0  0  0999 V2000
  -32.4310  -22.2250   19.5440 C   0  0  0  0  0  2  0  0  0  0  0  0
  -31.6240  -20.9770   19.9660 C   0  0  0  0  0  2  0  0  0  0  0  0
  -30.7680  -20.2980   18.8640 C   0  0  0  0  0  3  0  0  0  0  0  0
  -29.9610  -19.0780   19.3910 C   0  0  0  0  0  2  0  0  0  0  0  0
  -32.0510  -17.5530   19.6780 C   0  0  0  0  0  1  0  0  0  0  0  0
  -30.6530  -17.9360   20.2000 C   0  0  0  0  0  3  0  0  0  0  0  0
  -29.6610  -16.7310   20.2400 C   0  0  0  0  0  2  0  0  0  0  0  0
  -30.6760  -14.4700   20.4700 C   0  0  0  0  0  0  0  0  0  0  0  0
  -30.3380  -12.3170   19.3450 C   0  0  0  0  0  2  0  0  0  0  0  0
  -29.4210  -12.5740   18.1300 C   0  0  0  0  0  2  0  0  0  0  0  0
  -27.9380  -12.4630   18.5390 C   0  0  0  0  0  2  0  0  0  0  0  0
  -27.6070  -13.2820   19.8190 C   0  0  0  0  0  3  0  0  0  0  0  0
  -28.6500  -13.0350   20.9340 C   0  0  0  0  0  2  0  0  0  0  0  0
  -29.9910  -13.3000   20.3840 N   0  0  0  0  0  0  0  0  0  0  0  0
  -31.7780  -14.6240   19.9470 O   0  0  0  0  0  0  0  0  0  0  0  0
  -29.9940  -15.5060   20.9900 N   0  0  0  0  0  0  0  0  0  0  0  0
  -29.2510  -15.2120   21.6060 H   0  0  0  0  0  0  0  0  0  0  0  0
  -25.2030  -13.8920   20.5140 C   0  0  0  0  0  0  0  0  0  0  0  0
  -24.1290  -13.1240   20.8740 C   0  0  0  0  0  0  0  0  0  0  0  0
  -24.5840  -11.7700   20.8390 C   0  0  0  0  0  0  0  0  0  0  0  0
  -26.2480  -13.0090   20.2870 N   0  0  0  0  0  0  0  0  0  0  0  0
  -25.8770  -11.7260   20.5370 N   0  0  0  0  0  0  0  0  0  0  0  0
  -23.8500  -10.5110   21.0220 C   0  0  0  0  0  0  0  0  0  0  0  0
  -24.2710   -9.5370   21.9550 C   0  0  0  0  0  3  0  0  0  0  0  0
  -23.5390   -8.3430   22.1260 C   0  0  0  0  0  3  0  0  0  0  0  0
  -22.3680   -8.1120   21.3640 C   0  0  0  0  0  0  0  0  0  0  0  0
  -21.9660   -9.0730   20.4220 C   0  0  0  0  0  3  0  0  0  0  0  0
  -22.6990  -10.2570   20.2480 C   0  0  0  0  0  3  0  0  0  0  0  0
  -21.6050   -6.9710   21.4470 O   0  0  0  0  0  0  0  0  0  0  0  0
  -21.5500   -6.2240   22.5950 C   0  0  0  0  0  0  0  0  0  0  0  0
  -21.1290   -6.7740   23.8260 C   0  0  0  0  0  3  0  0  0  0  0  0
  -21.0210   -5.9510   24.9640 C   0  0  0  0  0  3  0  0  0  0  0  0
  -21.3250   -4.5790   24.8730 C   0  0  0  0  0  0  0  0  0  0  0  0
  -21.7390   -4.0280   23.6480 C   0  0  0  0  0  3  0  0  0  0  0  0
  -21.8490   -4.8490   22.5110 C   0  0  0  0  0  0  0  0  0  0  0  0
  -22.2300   -4.3100   21.3280 F   0  0  0  0  0  0  0  0  0  0  0  0
  -21.2120   -3.7860   25.9650 F   0  0  0  0  0  0  0  0  0  0  0  0
  -22.7330  -13.6070   21.1390 C   0  0  0  0  0  0  0  0  0  0  0  0
  -21.9940  -12.9100   21.9960 N   0  0  0  0  0  0  0  0  0  0  0  0
  -22.3050  -14.6370   20.6230 O   0  0  0  0  0  0  0  0  0  0  0  0
  -22.3510  -12.0770   22.4390 H   0  0  0  0  0  0  0  0  0  0  0  0
  -21.0580  -13.2150   22.2150 H   0  0  0  0  0  0  0  0  0  0  0  0
  -25.3750  -15.2620   20.3430 N   0  0  0  0  0  0  0  0  0  0  0  0
  -24.6070  -15.9160   20.4390 H   0  0  0  0  0  0  0  0  0  0  0  0
  -26.2300  -15.6950   20.0210 H   0  0  0  0  0  0  0  0  0  0  0  0
  -31.5100  -19.9800   17.5330 C   0  0  0  0  0  2  0  0  0  0  0  0
  -31.9910  -20.6370   15.1060 C   0  0  0  0  0  1  0  0  0  0  0  0
  -31.3740  -21.0610   16.4440 C   0  0  0  0  0  2  0  0  0  0  0  0
  -31.6070  -23.4630   19.1340 C   0  0  0  0  0  2  0  0  0  0  0  0
  -31.1670  -24.2640   20.2970 N   0  0  0  0  0  4  0  0  0  0  0  0
  -31.8020  -24.0910   21.0590 H   0  0  0  0  0  0  0  0  0  0  0  0
  -30.2520  -23.9430   20.5750 H   0  0  0  0  0  0  0  0  0  0  0  0
  -31.1430  -25.7210   20.0310 C   0  0  0  0  0  2  0  0  0  0  0  0
  -30.6020  -26.5560   21.2090 C   0  0  0  0  0  2  0  0  0  0  0  0
  -29.0800  -26.4780   21.3930 C   0  0  0  0  0  2  0  0  0  0  0  0
  -28.4330  -26.7140   20.1440 O   0  0  0  0  0  0  0  0  0  0  0  0
  -24.5770  -31.8650   23.2050 C   0  0  0  0  0  0  0  0  0  0  0  0
  -27.2750  -27.4500   20.1830 C   0  0  0  0  0  0  0  0  0  0  0  0
  -23.3880  -30.4510   21.5540 C   0  0  0  0  0  3  0  0  0  0  0  0
  -24.8640  -28.9110   20.1570 C   0  0  0  0  0  0  0  0  0  0  0  0
  -25.9080  -30.8310   21.3750 C   0  0  0  0  0  2  0  0  0  0  0  0
  -26.0070  -29.4550   20.7540 C   0  0  0  0  0  0  0  0  0  0  0  0
  -27.2160  -28.7320   20.7720 C   0  0  0  0  0  3  0  0  0  0  0  0
  -26.1250  -26.9160   19.5710 C   0  0  0  0  0  3  0  0  0  0  0  0
  -24.9140  -27.6360   19.5630 C   0  0  0  0  0  3  0  0  0  0  0  0
  -23.6140  -29.7600   20.1820 C   0  0  0  0  0  2  0  0  0  0  0  0
  -24.6420  -31.0640   22.1030 N   0  0  0  0  0  0  0  0  0  0  0  0
  -23.4910  -32.1350   23.7350 O   0  0  0  0  0  0  0  0  0  0  0  0
  -22.7320  -29.4340   22.5140 C   0  0  0  0  0  0  0  0  0  0  0  0
  -21.4060  -29.2610   22.3850 N   0  0  0  0  0  0  0  0  0  0  0  0
  -23.4120  -28.8020   23.3270 O   0  0  0  0  0  0  0  0  0  0  0  0
  -20.9220  -29.8240   21.7000 H   0  0  0  0  0  0  0  0  0  0  0  0
  -18.0180  -28.1150   22.8930 C   0  0  0  0  0  0  0  0  0  0  0  0
  -20.5810  -28.3290   23.1520 C   0  0  0  0  0  3  0  0  0  0  0  0
  -20.6580  -26.9020   22.5620 C   0  0  0  0  0  2  0  0  0  0  0  0
  -19.5440  -26.6080   21.5510 C   0  0  0  0  0  2  0  0  0  0  0  0
  -18.1690  -26.7690   22.2040 C   0  0  0  0  0  2  0  0  0  0  0  0
  -19.1520  -28.8550   23.3240 C   0  0  0  0  0  0  0  0  0  0  0  0
  -18.9580  -30.1170   23.9260 C   0  0  0  0  0  3  0  0  0  0  0  0
  -17.6630  -30.6390   24.1020 C   0  0  0  0  0  3  0  0  0  0  0  0
  -16.5440  -29.8950   23.6880 C   0  0  0  0  0  3  0  0  0  0  0  0
  -16.7230  -28.6360   23.0900 C   0  0  0  0  0  3  0  0  0  0  0  0
  -25.8580  -32.4970   23.8340 C   0  0  0  0  0  3  0  0  0  0  0  0
  -26.3810  -31.7160   25.1030 C   0  0  1  0  0  0  0  0  0  0  0  0
  -25.2880  -31.4590   26.1660 C   0  0  0  0  0  1  0  0  0  0  0  0
  -26.9750  -30.3480   24.6930 C   0  0  0  0  0  1  0  0  0  0  0  0
  -27.5280  -32.5100   25.7720 C   0  0  0  0  0  1  0  0  0  0  0  0
  -25.5410  -33.8900   24.1740 N   0  0  0  0  0  0  0  0  0  0  0  0
  -25.8720  -34.9500   23.4240 C   0  0  0  0  0  0  0  0  0  0  0  0
  -26.5490  -34.8560   22.3950 O   0  0  0  0  0  0  0  0  0  0  0  0
  -24.9420  -34.0360   24.9740 H   0  0  0  0  0  0  0  0  0  0  0  0
  -24.1400  -36.7340   23.0630 C   0  0  0  0  0  1  0  0  0  0  0  0
  -25.3740  -36.3310   23.8860 C   0  0  0  0  0  3  0  0  0  0  0  0
  -27.4960  -37.2160   24.7460 C   0  0  0  0  0  1  0  0  0  0  0  0
  -26.4030  -37.3890   23.7920 N   0  0  0  0  0  0  0  0  0  0  0  0
  -25.9930  -38.3070   23.9440 H   0  0  0  0  0  0  0  0  0  0  0  0
  1  2  1  0
  3 46  1  0
  3  4  1  0
  3  2  1  0
  4  6  1  0
  6  5  1  0
  6  7  1  0
  7 16  1  0
  8 16  1  0
  9 14  1  0
 10 11  1  0
 10  9  1  0
 12 11  1  0
 12 21  1  0
 12 13  1  0
 14  8  1  0
 14 13  1  0
 15  8  2  0
 16 17  1  0
 18 19  2  0
 19 38  1  0
 20 19  1  0
 20 23  1  0
 21 18  1  0
 21 22  1  0
 22 20  2  0
 23 24  1  0
 24 25  2  0
 26 29  1  0
 26 25  1  0
 27 26  2  0
 28 27  1  0
 28 23  2  0
 29 30  1  0
 30 31  1  0
 31 32  2  0
 33 32  1  0
 33 37  1  0
 34 33  2  0
 35 30  2  0
 35 34  1  0
 36 35  1  0
 38 39  1  0
 39 42  1  0
 39 41  1  0
 40 38  2  0
 43 44  1  0
 43 18  1  0
 45 43  1  0
 47 48  1  0
 48 46  1  0
 49  1  1  0
 49 50  1  0
 50 52  1  0
 50 51  1  0
 53 50  1  0
 53 54  1  0
 54 55  1  0
 56 58  1  0
 56 55  1  0
 57 68  2  0
 58 63  1  0
 59 67  1  0
 59 69  1  0
 60 66  1  0
 60 62  1  0
 61 67  1  0
 62 63  2  0
 62 61  1  0
 64 58  2  0
 65 64  1  0
 65 60  2  0
 66 59  1  0
 67 57  1  0
 69 71  2  0
 70 69  1  0
 72 70  1  0
 73 82  2  0
 73 78  1  0
 74 70  1  0
 74 78  1  0
 75 74  1  0
 76 77  1  0
 76 75  1  0
 77 73  1  0
 78 79  2  0
 79 80  1  0
 81 80  2  0
 82 81  1  0
 83 57  1  0
 83 88  1  0
 83 84  1  0
 84 87  1  1
 84 85  1  0
 86 84  1  0
 88 91  1  0
 89 93  1  0
 89 88  1  0
 90 89  2  0
 93 92  1  0
 95 93  1  0
 95 96  1  0
 95 94  1  0
M  ISO  4   8 100  16 100  55 101  56 101
M  END
>  <TORSDO>  (93) 
F 28

>  <SCORE>  (93) 
-11.408

>  <name>  (93) 
93

>  <ligand_id>  (93) 
93

>  <original_smiles>  (93) 
[H]c1c([H])c([H])c2c(c1[H])C([H])([H])C([H])([H])C([H])([H])C2([H])N([H])C(=O)C1([H])N(C(=O)C([H])(N([H])C(=O)C([H])(N([H])C([H])([H])[H])C([H])([H])[H])C(C([H])([H])[H])(C([H])([H])[H])C([H])([H])[H])C([H])([H])c2c([H])c(OC([H])([H])C([H])([H])C([H])([H])[N+]([H])([H])C([H])([H])C([H])([H])C([H])([H])C([H])(C([H])([H])C([H])([H])C([H])([H])[H])C([H])([H])C([H])(C([H])([H])[H])C([H])([H])N([H])C(=O)N3C([H])([H])C([H])([H])C([H])([H])C([H])(n4nc(-c5c([H])c([H])c(Oc6c([H])c([H])c(F)c([H])c6F)c([H])c5[H])c(C(=O)N([H])[H])c4N([H])[H])C3([H])[H])c([H])c([H])c2C1([H])[H]

>  <smiles>  (93) 
[H]c1c([H])c([H])c2c(c1[H])C([H])([H])C([H])([H])C([H])([H])C2([H])N([H])C(=O)C1([H])N(C(=O)C([H])(N([H])C(=O)C([H])(N([H])C([H])([H])[H])C([H])([H])[H])C(C([H])([H])[H])(C([H])([H])[H])C([H])([H])[H])C([H])([H])c2c([H])c(OC([H])([H])C([H])([H])C([H])([H])[N+]([H])([H])C([H])([H])C([H])([H])C([H])([H])C([H])(C([H])([H])C([H])([H])C([H])([H])[H])C([H])([H])C([H])(C([H])([H])[H])C([H])([H])N([H])C(=O)N3C([H])([H])C([H])([H])C([H])([H])C([H])(n4nc(-c5c([H])c([H])c(Oc6c([H])c([H])c(F)c([H])c6F)c([H])c5[H])c(C(=O)N([H])[H])c4N([H])[H])C3([H])[H])c([H])c([H])c2C1([H])[H]

$$$$
94:0:0
     RDKit          3D

 90 97  0  0  1  0  0  0  0  0999 V2000
  -29.3910  -20.3200   20.1150 C   0  0  0  0  0  3  0  0  0  0  0  0
  -29.6680  -21.7940   19.6430 C   0  0  0  0  0  3  0  0  0  0  0  0
  -28.8260  -22.9190   20.3370 C   0  0  0  0  0  3  0  0  0  0  0  0
  -29.0070  -24.3760   19.7840 C   0  0  0  0  0  2  0  0  0  0  0  0
  -28.1950  -25.4760   20.5450 C   0  0  0  0  0  2  0  0  0  0  0  0
  -28.3680  -26.8410   20.0690 O   0  0  0  0  0  0  0  0  0  0  0  0
  -24.6350  -32.0380   23.2940 C   0  0  0  0  0  0  0  0  0  0  0  0
  -27.2290  -27.6350   20.0840 C   0  0  0  0  0  0  0  0  0  0  0  0
  -23.4140  -30.6910   21.6210 C   0  0  0  0  0  3  0  0  0  0  0  0
  -24.8520  -29.1860   20.1420 C   0  0  0  0  0  0  0  0  0  0  0  0
  -25.9450  -31.0330   21.4210 C   0  0  0  0  0  2  0  0  0  0  0  0
  -26.0210  -29.6780   20.7380 C   0  0  0  0  0  0  0  0  0  0  0  0
  -27.2160  -28.9140   20.6980 C   0  0  0  0  0  3  0  0  0  0  0  0
  -26.0450  -27.1750   19.4700 C   0  0  0  0  0  3  0  0  0  0  0  0
  -24.8610  -27.9360   19.5010 C   0  0  0  0  0  3  0  0  0  0  0  0
  -23.6140  -30.0520   20.2210 C   0  0  0  0  0  2  0  0  0  0  0  0
  -24.6840  -31.2670   22.1710 N   0  0  0  0  0  0  0  0  0  0  0  0
  -23.5580  -32.3010   23.8490 O   0  0  0  0  0  0  0  0  0  0  0  0
  -22.7600  -29.6460   22.5570 C   0  0  0  0  0  0  0  0  0  0  0  0
  -21.4400  -29.4470   22.4060 N   0  0  0  0  0  0  0  0  0  0  0  0
  -23.4390  -29.0170   23.3740 O   0  0  0  0  0  0  0  0  0  0  0  0
  -20.9530  -30.0080   21.7240 H   0  0  0  0  0  0  0  0  0  0  0  0
  -18.0850  -28.1570   22.7970 C   0  0  0  0  0  0  0  0  0  0  0  0
  -20.6260  -28.4840   23.1480 C   0  0  0  0  0  3  0  0  0  0  0  0
  -20.7840  -27.0570   22.5720 C   0  0  0  0  0  2  0  0  0  0  0  0
  -19.7220  -26.7080   21.5240 C   0  0  0  0  0  2  0  0  0  0  0  0
  -18.3170  -26.8150   22.1250 C   0  0  0  0  0  2  0  0  0  0  0  0
  -19.1680  -28.9480   23.2630 C   0  0  0  0  0  0  0  0  0  0  0  0
  -18.8980  -30.2050   23.8490 C   0  0  0  0  0  3  0  0  0  0  0  0
  -17.5760  -30.6700   23.9750 C   0  0  0  0  0  3  0  0  0  0  0  0
  -16.5060  -29.8770   23.5250 C   0  0  0  0  0  3  0  0  0  0  0  0
  -16.7610  -28.6220   22.9420 C   0  0  0  0  0  3  0  0  0  0  0  0
  -25.9280  -32.6450   23.9250 C   0  0  0  0  0  3  0  0  0  0  0  0
  -26.4170  -31.8670   25.2070 C   0  0  1  0  0  0  0  0  0  0  0  0
  -25.3100  -31.6470   26.2640 C   0  0  0  0  0  1  0  0  0  0  0  0
  -26.9810  -30.4820   24.8180 C   0  0  0  0  0  1  0  0  0  0  0  0
  -27.5770  -32.6420   25.8780 C   0  0  0  0  0  1  0  0  0  0  0  0
  -25.6440  -34.0510   24.2490 N   0  0  0  0  0  0  0  0  0  0  0  0
  -26.0040  -35.0940   23.4880 C   0  0  0  0  0  0  0  0  0  0  0  0
  -26.6790  -34.9710   22.4620 O   0  0  0  0  0  0  0  0  0  0  0  0
  -25.0500  -34.2220   25.0460 H   0  0  0  0  0  0  0  0  0  0  0  0
  -24.3120  -36.9170   23.1180 C   0  0  0  0  0  1  0  0  0  0  0  0
  -25.5410  -36.4930   23.9370 C   0  0  0  0  0  3  0  0  0  0  0  0
  -27.6860  -37.3430   24.7760 C   0  0  0  0  0  1  0  0  0  0  0  0
  -26.5940  -37.5250   23.8230 N   0  0  0  0  0  0  0  0  0  0  0  0
  -26.2040  -38.4530   23.9660 H   0  0  0  0  0  0  0  0  0  0  0  0
  -30.4270  -19.2520   19.6090 C   0  0  0  0  0  3  0  0  0  0  0  0
  -30.0560  -17.7410   19.7450 C   0  0  0  0  0  0  0  0  0  0  0  0
  -29.5850  -17.1800   18.7520 O   0  0  0  0  0  0  0  0  0  0  0  0
  -30.2910  -16.9510   21.0660 C   0  0  0  0  0  3  0  0  0  0  0  0
  -30.5330  -15.6920   21.2780 N   0  0  0  0  0  2  0  0  0  0  0  0
  -31.0180  -14.8220   20.3040 C   0  0  0  0  0  0  0  0  0  0  0  0
  -30.7320  -12.6180   19.1950 C   0  0  0  0  0  2  0  0  0  0  0  0
  -29.7810  -12.7250   17.9910 C   0  0  0  0  0  2  0  0  0  0  0  0
  -28.3190  -12.5500   18.4440 C   0  0  0  0  0  2  0  0  0  0  0  0
  -27.9650  -13.4510   19.6590 C   0  0  0  0  0  3  0  0  0  0  0  0
  -29.0300  -13.3230   20.7720 C   0  0  0  0  0  2  0  0  0  0  0  0
  -30.3410  -13.6420   20.1780 N   0  0  0  0  0  0  0  0  0  0  0  0
  -32.0150  -15.0600   19.6200 O   0  0  0  0  0  0  0  0  0  0  0  0
  -25.5960  -14.0550   20.4620 C   0  0  0  0  0  0  0  0  0  0  0  0
  -24.5240  -13.2810   20.8190 C   0  0  0  0  0  0  0  0  0  0  0  0
  -24.9620  -11.9270   20.7030 C   0  0  0  0  0  0  0  0  0  0  0  0
  -26.6200  -13.1710   20.1580 N   0  0  0  0  0  0  0  0  0  0  0  0
  -26.2410  -11.8820   20.3570 N   0  0  0  0  0  0  0  0  0  0  0  0
  -24.2190  -10.6660   20.8450 C   0  0  0  0  0  0  0  0  0  0  0  0
  -24.6330   -9.6650   21.7490 C   0  0  0  0  0  3  0  0  0  0  0  0
  -23.8930   -8.4700   21.8840 C   0  0  0  0  0  3  0  0  0  0  0  0
  -22.7230   -8.2700   21.1140 C   0  0  0  0  0  0  0  0  0  0  0  0
  -22.3270   -9.2610   20.1980 C   0  0  0  0  0  3  0  0  0  0  0  0
  -23.0670  -10.4470   20.0610 C   0  0  0  0  0  3  0  0  0  0  0  0
  -21.9550   -7.1310   21.1580 O   0  0  0  0  0  0  0  0  0  0  0  0
  -21.8380   -6.3860   22.3040 C   0  0  0  0  0  0  0  0  0  0  0  0
  -21.3300   -6.9360   23.5020 C   0  0  0  0  0  3  0  0  0  0  0  0
  -21.1620   -6.1180   24.6370 C   0  0  0  0  0  3  0  0  0  0  0  0
  -21.4900   -4.7500   24.5740 C   0  0  0  0  0  0  0  0  0  0  0  0
  -21.9890   -4.2000   23.3800 C   0  0  0  0  0  3  0  0  0  0  0  0
  -22.1600   -5.0160   22.2480 C   0  0  0  0  0  0  0  0  0  0  0  0
  -22.6210   -4.4750   21.0940 F   0  0  0  0  0  0  0  0  0  0  0  0
  -21.3200   -3.9620   25.6600 F   0  0  0  0  0  0  0  0  0  0  0  0
  -23.1440  -13.7660   21.1580 C   0  0  0  0  0  0  0  0  0  0  0  0
  -22.4340  -13.0390   22.0140 N   0  0  0  0  0  0  0  0  0  0  0  0
  -22.7030  -14.8180   20.6980 O   0  0  0  0  0  0  0  0  0  0  0  0
  -22.8030  -12.1850   22.4050 H   0  0  0  0  0  0  0  0  0  0  0  0
  -21.5080  -13.3410   22.2830 H   0  0  0  0  0  0  0  0  0  0  0  0
  -25.7800  -15.4310   20.3520 N   0  0  0  0  0  0  0  0  0  0  0  0
  -25.0340  -16.0980   20.5130 H   0  0  0  0  0  0  0  0  0  0  0  0
  -26.6390  -15.8640   20.0330 H   0  0  0  0  0  0  0  0  0  0  0  0
  -30.1290  -17.7790   22.3510 C   0  0  0  0  0  2  0  0  0  0  0  0
  -31.3150  -18.7200   24.4480 C   0  0  0  0  0  1  0  0  0  0  0  0
  -31.3570  -17.7100   23.2930 C   0  0  0  0  0  2  0  0  0  0  0  0
  2  1  1  0
  2  3  2  0
  4  3  1  0
  4  5  1  0
  6  8  1  0
  6  5  1  0
  7 18  2  0
  8 13  1  0
  9 17  1  0
  9 19  1  0
 10 16  1  0
 10 12  1  0
 11 17  1  0
 12 11  1  0
 13 12  2  0
 14 15  1  0
 14  8  2  0
 15 10  2  0
 16  9  1  0
 17  7  1  0
 19 21  2  0
 20 19  1  0
 22 20  1  0
 23 32  2  0
 23 28  1  0
 24 20  1  0
 24 28  1  0
 25 24  1  0
 26 27  1  0
 26 25  1  0
 27 23  1  0
 28 29  2  0
 29 30  1  0
 31 30  2  0
 32 31  1  0
 33  7  1  0
 33 38  1  0
 33 34  1  0
 34 37  1  1
 34 35  1  0
 36 34  1  0
 38 41  1  0
 39 43  1  0
 39 38  1  0
 40 39  2  0
 43 42  1  0
 45 43  1  0
 45 46  1  0
 45 44  1  0
 47 48  1  0
 47  1  2  0
 48 50  1  0
 49 48  2  0
 50 51  1  0
 50 88  1  0
 52 51  1  0
 53 58  1  0
 54 55  1  0
 54 53  1  0
 56 55  1  0
 56 63  1  0
 56 57  1  0
 58 52  1  0
 58 57  1  0
 59 52  2  0
 60 61  2  0
 61 80  1  0
 62 61  1  0
 62 65  1  0
 63 64  1  0
 63 60  1  0
 64 62  2  0
 65 66  1  0
 66 67  2  0
 68 71  1  0
 68 67  1  0
 69 68  2  0
 70 69  1  0
 70 65  2  0
 71 72  1  0
 72 73  1  0
 73 74  2  0
 75 74  1  0
 75 79  1  0
 76 75  2  0
 77 72  2  0
 77 76  1  0
 78 77  1  0
 80 81  1  0
 81 84  1  0
 81 83  1  0
 82 80  2  0
 85 60  1  0
 85 86  1  0
 87 85  1  0
 88 90  1  0
 90 89  1  0
M  ISO  4   5 101   6 101  51 100  52 100
M  END
>  <TORSDO>  (94) 
F 25

>  <SCORE>  (94) 
-9.851

>  <name>  (94) 
94

>  <ligand_id>  (94) 
94

>  <original_smiles>  (94) 
[H]c1c([H])c([H])c2c(c1[H])C([H])([H])C([H])([H])C([H])([H])C2([H])N([H])C(=O)C1([H])N(C(=O)C([H])(N([H])C(=O)C([H])(N([H])C([H])([H])[H])C([H])([H])[H])C(C([H])([H])[H])(C([H])([H])[H])C([H])([H])[H])C([H])([H])c2c([H])c(OC([H])([H])C([H])([H])C([H])([H])C([H])([H])C([H])([H])C([H])([H])C(=O)C(=NC(=O)N3C([H])([H])C([H])([H])C([H])([H])C([H])(n4nc(-c5c([H])c([H])c(Oc6c([H])c([H])c(F)c([H])c6F)c([H])c5[H])c(C(=O)N([H])[H])c4N([H])[H])C3([H])[H])C([H])([H])C([H])([H])C([H])([H])[H])c([H])c([H])c2C1([H])[H]

>  <smiles>  (94) 
[H]c1c([H])c([H])c2c(c1[H])C([H])([H])C([H])([H])C([H])([H])C2([H])N([H])C(=O)C1([H])N(C(=O)C([H])(N([H])C(=O)C([H])(N([H])C([H])([H])[H])C([H])([H])[H])C(C([H])([H])[H])(C([H])([H])[H])C([H])([H])[H])C([H])([H])c2c([H])c(OC([H])([H])C([H])([H])C([H])([H])C([H])([H])C([H])([H])C([H])([H])C(=O)C(=NC(=O)N3C([H])([H])C([H])([H])C([H])([H])C([H])(n4nc(-c5c([H])c([H])c(Oc6c([H])c([H])c(F)c([H])c6F)c([H])c5[H])c(C(=O)N([H])[H])c4N([H])[H])C3([H])[H])C([H])([H])C([H])([H])C([H])([H])[H])c([H])c([H])c2C1([H])[H]

$$$$
95:0:0
     RDKit          3D

 91101  0  0  1  0  0  0  0  0999 V2000
  -30.6290  -14.9770   20.3640 C   0  0  0  0  0  0  0  0  0  0  0  0
  -30.3950  -12.6530   19.3850 C   0  0  0  0  0  2  0  0  0  0  0  0
  -29.4790  -12.6060   18.1460 C   0  0  0  0  0  2  0  0  0  0  0  0
  -28.0160  -12.4040   18.5760 C   0  0  0  0  0  2  0  0  0  0  0  0
  -27.6080  -13.3360   19.7490 C   0  0  0  0  0  3  0  0  0  0  0  0
  -28.6610  -13.3700   20.8770 C   0  0  0  0  0  2  0  0  0  0  0  0
  -29.9230  -13.7780   20.2490 N   0  0  0  0  0  0  0  0  0  0  0  0
  -31.8440  -14.8790   20.1490 O   0  0  0  0  0  0  0  0  0  0  0  0
  -28.4690  -20.7090   19.3600 C   0  0  0  0  0  0  0  0  0  0  0  0
  -28.3590  -18.4110   20.7460 C   0  0  0  0  0  2  0  0  0  0  0  0
  -30.3480  -18.8450   19.4390 C   0  0  0  0  0  2  0  0  0  0  0  0
  -29.7290  -20.7670   21.2800 C   0  0  0  0  0  2  0  0  0  0  0  0
  -28.9570  -16.9370   21.1340 C   0  0  0  0  0  2  0  0  0  0  0  0
  -30.9570  -17.4820   20.0180 C   0  0  0  0  0  2  0  0  0  0  0  0
  -28.0040  -22.0200   20.0560 C   0  0  0  0  0  3  0  0  0  0  0  0
  -28.8000  -23.3730   20.2760 C   0  0  0  0  0  3  0  0  0  0  0  0
  -28.8530  -22.1030   21.2630 C   0  0  0  0  0  3  0  0  0  0  0  0
  -29.2500  -19.6510   20.2440 C   0  0  1  0  0  0  0  0  0  0  0  0
  -30.0600  -16.3030   20.3230 N   0  0  0  0  0  0  0  0  0  0  0  0
  -28.1960  -20.4850   18.1780 O   0  0  0  0  0  0  0  0  0  0  0  0
  -25.2210  -13.9070   20.4610 C   0  0  0  0  0  0  0  0  0  0  0  0
  -24.1580  -13.1300   20.8240 C   0  0  0  0  0  0  0  0  0  0  0  0
  -24.6290  -11.7810   20.8130 C   0  0  0  0  0  0  0  0  0  0  0  0
  -26.2710  -13.0330   20.2430 N   0  0  0  0  0  0  0  0  0  0  0  0
  -25.9250  -11.7480   20.5220 N   0  0  0  0  0  0  0  0  0  0  0  0
  -23.9040  -10.5170   21.0030 C   0  0  0  0  0  0  0  0  0  0  0  0
  -24.3260   -9.5580   21.9510 C   0  0  0  0  0  3  0  0  0  0  0  0
  -23.5990   -8.3620   22.1320 C   0  0  0  0  0  3  0  0  0  0  0  0
  -22.4360   -8.1140   21.3630 C   0  0  0  0  0  0  0  0  0  0  0  0
  -22.0330   -9.0620   20.4050 C   0  0  0  0  0  3  0  0  0  0  0  0
  -22.7610  -10.2500   20.2230 C   0  0  0  0  0  3  0  0  0  0  0  0
  -21.6820   -6.9690   21.4520 O   0  0  0  0  0  0  0  0  0  0  0  0
  -21.6140   -6.2410   22.6120 C   0  0  0  0  0  0  0  0  0  0  0  0
  -21.1650   -6.8090   23.8240 C   0  0  0  0  0  3  0  0  0  0  0  0
  -21.0440   -6.0070   24.9760 C   0  0  0  0  0  3  0  0  0  0  0  0
  -21.3610   -4.6370   24.9170 C   0  0  0  0  0  0  0  0  0  0  0  0
  -21.8040   -4.0680   23.7090 C   0  0  0  0  0  3  0  0  0  0  0  0
  -21.9260   -4.8670   22.5600 C   0  0  0  0  0  0  0  0  0  0  0  0
  -22.3320   -4.3090   21.3940 F   0  0  0  0  0  0  0  0  0  0  0  0
  -21.2390   -3.8640   26.0210 F   0  0  0  0  0  0  0  0  0  0  0  0
  -22.7540  -13.6040   21.0670 C   0  0  0  0  0  0  0  0  0  0  0  0
  -22.0200  -12.9210   21.9380 N   0  0  0  0  0  0  0  0  0  0  0  0
  -22.3190  -14.6170   20.5230 O   0  0  0  0  0  0  0  0  0  0  0  0
  -22.3870  -12.1010   22.4000 H   0  0  0  0  0  0  0  0  0  0  0  0
  -21.0790  -13.2210   22.1460 H   0  0  0  0  0  0  0  0  0  0  0  0
  -25.3820  -15.2760   20.2690 N   0  0  0  0  0  0  0  0  0  0  0  0
  -24.6100  -15.9270   20.3620 H   0  0  0  0  0  0  0  0  0  0  0  0
  -26.2310  -15.7130   19.9380 H   0  0  0  0  0  0  0  0  0  0  0  0
  -27.9380  -24.7240   20.6400 C   0  0  0  0  0  0  0  0  0  0  0  0
  -26.9250  -24.5290   21.3170 O   0  0  0  0  0  0  0  0  0  0  0  0
  -28.2660  -26.1690   20.1980 O   0  0  0  0  0  0  0  0  0  0  0  0
  -24.6570  -31.8790   23.2100 C   0  0  0  0  0  0  0  0  0  0  0  0
  -27.2520  -27.1930   20.1660 C   0  0  0  0  0  0  0  0  0  0  0  0
  -23.4680  -30.4880   21.5610 C   0  0  0  0  0  3  0  0  0  0  0  0
  -24.9270  -28.9330   20.1300 C   0  0  0  0  0  0  0  0  0  0  0  0
  -26.0220  -30.7630   21.4080 C   0  0  0  0  0  2  0  0  0  0  0  0
  -26.1030  -29.3750   20.7520 C   0  0  0  0  0  0  0  0  0  0  0  0
  -27.2680  -28.5180   20.7610 C   0  0  0  0  0  3  0  0  0  0  0  0
  -26.0580  -26.8660   19.4870 C   0  0  0  0  0  3  0  0  0  0  0  0
  -24.9160  -27.6910   19.4820 C   0  0  0  0  0  3  0  0  0  0  0  0
  -23.6960  -29.8240   20.1780 C   0  0  0  0  0  2  0  0  0  0  0  0
  -24.7360  -31.0640   22.1150 N   0  0  0  0  0  0  0  0  0  0  0  0
  -23.5680  -32.1580   23.7350 O   0  0  0  0  0  0  0  0  0  0  0  0
  -22.7900  -29.4710   22.5130 C   0  0  0  0  0  0  0  0  0  0  0  0
  -21.4620  -29.2970   22.3810 N   0  0  0  0  0  0  0  0  0  0  0  0
  -23.4600  -28.8430   23.3360 O   0  0  0  0  0  0  0  0  0  0  0  0
  -20.9770  -29.8560   21.6930 H   0  0  0  0  0  0  0  0  0  0  0  0
  -18.0820  -28.0870   22.8660 C   0  0  0  0  0  0  0  0  0  0  0  0
  -20.6400  -28.3550   23.1450 C   0  0  0  0  0  3  0  0  0  0  0  0
  -20.7470  -26.9240   22.5660 C   0  0  0  0  0  2  0  0  0  0  0  0
  -19.6500  -26.6020   21.5470 C   0  0  0  0  0  2  0  0  0  0  0  0
  -18.2660  -26.7410   22.1850 C   0  0  0  0  0  2  0  0  0  0  0  0
  -19.1970  -28.8510   23.3020 C   0  0  0  0  0  0  0  0  0  0  0  0
  -18.9710  -30.1100   23.9010 C   0  0  0  0  0  3  0  0  0  0  0  0
  -17.6640  -30.6040   24.0660 C   0  0  0  0  0  3  0  0  0  0  0  0
  -16.5640  -29.8360   23.6450 C   0  0  0  0  0  3  0  0  0  0  0  0
  -16.7740  -28.5790   23.0510 C   0  0  0  0  0  3  0  0  0  0  0  0
  -25.9320  -32.5150   23.8440 C   0  0  0  0  0  3  0  0  0  0  0  0
  -25.6100  -33.9080   24.1940 N   0  0  0  0  0  0  0  0  0  0  0  0
  -25.9200  -34.9750   23.4460 C   0  0  0  0  0  0  0  0  0  0  0  0
  -26.5750  -34.8920   22.4040 O   0  0  0  0  0  0  0  0  0  0  0  0
  -25.0270  -34.0450   25.0070 H   0  0  0  0  0  0  0  0  0  0  0  0
  -24.1660  -36.7550   23.1500 C   0  0  0  0  0  1  0  0  0  0  0  0
  -25.4280  -36.3530   23.9310 C   0  0  0  0  0  3  0  0  0  0  0  0
  -27.5700  -37.2540   24.7270 C   0  0  0  0  0  1  0  0  0  0  0  0
  -26.4480  -37.4190   23.8080 N   0  0  0  0  0  0  0  0  0  0  0  0
  -26.0340  -38.3340   23.9730 H   0  0  0  0  0  0  0  0  0  0  0  0
  -26.4480  -31.7330   25.1140 C   0  0  1  0  0  0  0  0  0  0  0  0
  -25.3540  -31.4830   26.1790 C   0  0  0  0  0  1  0  0  0  0  0  0
  -27.0370  -30.3610   24.7150 C   0  0  0  0  0  1  0  0  0  0  0  0
  -27.5950  -32.5260   25.7850 C   0  0  0  0  0  1  0  0  0  0  0  0
  2  7  1  0
  3  4  1  0
  3  2  1  0
  5  4  1  0
  5 24  1  0
  5  6  1  0
  7  1  1  0
  7  6  1  0
  8  1  2  0
  9 18  1  0
 10 13  1  0
 11 14  1  0
 14 19  1  0
 15  9  1  0
 15 16  1  0
 15 17  1  0
 16 49  1  0
 16 17  1  0
 17 12  1  0
 18 11  1  6
 18 10  1  0
 18 12  1  0
 19  1  1  0
 19 13  1  0
 20  9  2  0
 21 22  2  0
 22 41  1  0
 23 22  1  0
 23 26  1  0
 24 21  1  0
 24 25  1  0
 25 23  2  0
 26 27  1  0
 27 28  2  0
 29 32  1  0
 29 28  1  0
 30 29  2  0
 31 30  1  0
 31 26  2  0
 32 33  1  0
 33 34  1  0
 34 35  2  0
 36 35  1  0
 36 40  1  0
 37 36  2  0
 38 33  2  0
 38 37  1  0
 39 38  1  0
 41 42  1  0
 42 45  1  0
 42 44  1  0
 43 41  2  0
 46 47  1  0
 46 21  1  0
 48 46  1  0
 49 50  2  0
 51 49  1  0
 52 63  2  0
 53 51  1  0
 53 58  1  0
 54 62  1  0
 54 64  1  0
 55 61  1  0
 55 57  1  0
 56 62  1  0
 57 58  2  0
 57 56  1  0
 59 53  2  0
 60 59  1  0
 60 55  2  0
 61 54  1  0
 62 52  1  0
 64 66  2  0
 65 64  1  0
 67 65  1  0
 68 77  2  0
 68 73  1  0
 69 65  1  0
 69 73  1  0
 70 69  1  0
 71 72  1  0
 71 70  1  0
 72 68  1  0
 73 74  2  0
 74 75  1  0
 76 75  2  0
 77 76  1  0
 78 52  1  0
 78 79  1  0
 78 88  1  0
 79 82  1  0
 80 84  1  0
 80 79  1  0
 81 80  2  0
 84 83  1  0
 86 84  1  0
 86 87  1  0
 86 85  1  0
 88 91  1  1
 88 89  1  0
 90 88  1  0
M  ISO  4   1 100  19 100  49 101  51 101
M  END
>  <TORSDO>  (95) 
F 16

>  <SCORE>  (95) 
-15.581

>  <name>  (95) 
95

>  <ligand_id>  (95) 
95

>  <original_smiles>  (95) 
[H]c1c([H])c([H])c2c(c1[H])C([H])([H])C([H])([H])C([H])([H])C2([H])N([H])C(=O)C1([H])N(C(=O)C([H])(N([H])C(=O)C([H])(N([H])C([H])([H])[H])C([H])([H])[H])C(C([H])([H])[H])(C([H])([H])[H])C([H])([H])[H])C([H])([H])c2c([H])c(OC(=O)C3([H])C4([H])C(=O)C5(C([H])([H])C([H])([H])N(C(=O)N6C([H])([H])C([H])([H])C([H])([H])C([H])(n7nc(-c8c([H])c([H])c(Oc9c([H])c([H])c(F)c([H])c9F)c([H])c8[H])c(C(=O)N([H])[H])c7N([H])[H])C6([H])[H])C([H])([H])C5([H])[H])C([H])([H])C34[H])c([H])c([H])c2C1([H])[H]

>  <smiles>  (95) 
[H]c1c([H])c([H])c2c(c1[H])C([H])([H])C([H])([H])C([H])([H])C2([H])N([H])C(=O)C1([H])N(C(=O)C([H])(N([H])C(=O)C([H])(N([H])C([H])([H])[H])C([H])([H])[H])C(C([H])([H])[H])(C([H])([H])[H])C([H])([H])[H])C([H])([H])c2c([H])c(OC(=O)C3([H])C4([H])C(=O)C5(C([H])([H])C([H])([H])N(C(=O)N6C([H])([H])C([H])([H])C([H])([H])C([H])(n7nc(-c8c([H])c([H])c(Oc9c([H])c([H])c(F)c([H])c9F)c([H])c8[H])c(C(=O)N([H])[H])c7N([H])[H])C6([H])[H])C([H])([H])C5([H])[H])C([H])([H])C34[H])c([H])c([H])c2C1([H])[H]

$$$$
96:0:0
     RDKit          3D

 99109  0  0  1  0  0  0  0  0999 V2000
  -27.6090  -20.2240   18.5540 C   0  0  0  0  0  3  0  0  0  0  0  0
  -28.4130  -19.1040   18.8330 C   0  0  0  0  0  3  0  0  0  0  0  0
  -30.3940  -20.4930   18.6640 C   0  0  0  0  0  3  0  0  0  0  0  0
  -28.1860  -21.4940   18.3490 C   0  0  0  0  0  0  0  0  0  0  0  0
  -29.5930  -21.6340   18.4500 C   0  0  0  0  0  0  0  0  0  0  0  0
  -29.8160  -19.2270   18.8930 C   0  0  0  0  0  0  0  0  0  0  0  0
  -27.2510  -22.6570   18.0300 C   0  0  0  0  0  2  0  0  0  0  0  0
  -30.3000  -22.9780   18.3840 C   0  0  0  0  0  2  0  0  0  0  0  0
  -28.8390  -24.3790   16.7970 C   0  0  0  0  0  2  0  0  0  0  0  0
  -27.9070  -24.0140   17.9130 C   0  0  0  0  0  3  0  0  0  0  0  0
  -29.3890  -24.1860   18.1980 C   0  0  1  0  0  0  0  0  0  0  0  0
  -30.6810  -17.9840   19.0980 C   0  0  0  0  0  2  0  0  0  0  0  0
  -31.3120  -17.6670   20.5030 C   0  0  1  0  0  0  0  0  0  0  0  0
  -31.2520  -19.9590   21.9080 C   0  0  0  0  0  1  0  0  0  0  0  0
  -32.0580  -18.8520   21.2030 C   0  0  0  0  0  2  0  0  0  0  0  0
  -28.8160  -17.5270   21.4760 C   0  0  0  0  0  1  0  0  0  0  0  0
  -30.2630  -16.9930   21.4560 C   0  0  0  0  0  2  0  0  0  0  0  0
  -32.4510  -16.6240   20.2230 C   0  0  0  0  0  2  0  0  0  0  0  0
  -32.3420  -14.2300   19.3840 C   0  0  0  0  0  0  0  0  0  0  0  0
  -31.8210  -11.8750   18.8240 C   0  0  0  0  0  2  0  0  0  0  0  0
  -30.7780  -11.7870   17.6940 C   0  0  0  0  0  2  0  0  0  0  0  0
  -29.3450  -11.8810   18.2560 C   0  0  0  0  0  2  0  0  0  0  0  0
  -29.1670  -13.0870   19.2180 C   0  0  0  0  0  3  0  0  0  0  0  0
  -30.2890  -13.0810   20.2770 C   0  0  0  0  0  2  0  0  0  0  0  0
  -31.5900  -13.1170   19.5730 N   0  0  0  0  0  0  0  0  0  0  0  0
  -33.2910  -14.2990   18.5950 O   0  0  0  0  0  0  0  0  0  0  0  0
  -31.9760  -15.2450   20.1760 N   0  0  0  0  0  0  0  0  0  0  0  0
  -31.2320  -15.0200   20.8170 H   0  0  0  0  0  0  0  0  0  0  0  0
  -27.0740  -14.1630   20.2670 C   0  0  0  0  0  0  0  0  0  0  0  0
  -25.8990  -13.6230   20.7180 C   0  0  0  0  0  0  0  0  0  0  0  0
  -26.0160  -12.2130   20.5300 C   0  0  0  0  0  0  0  0  0  0  0  0
  -27.8450  -13.0920   19.8390 N   0  0  0  0  0  0  0  0  0  0  0  0
  -27.2140  -11.9090   20.0470 N   0  0  0  0  0  0  0  0  0  0  0  0
  -25.0370  -11.1360   20.7240 C   0  0  0  0  0  0  0  0  0  0  0  0
  -25.3070  -10.0440   21.5780 C   0  0  0  0  0  3  0  0  0  0  0  0
  -24.3480   -9.0260   21.7650 C   0  0  0  0  0  3  0  0  0  0  0  0
  -23.1000   -9.0980   21.1000 C   0  0  0  0  0  0  0  0  0  0  0  0
  -22.8450  -10.1760   20.2340 C   0  0  0  0  0  3  0  0  0  0  0  0
  -23.8030  -11.1860   20.0450 C   0  0  0  0  0  3  0  0  0  0  0  0
  -22.1180   -8.1430   21.2010 O   0  0  0  0  0  0  0  0  0  0  0  0
  -21.9380   -7.4100   22.3460 C   0  0  0  0  0  0  0  0  0  0  0  0
  -21.6260   -8.0210   23.5810 C   0  0  0  0  0  3  0  0  0  0  0  0
  -21.3800   -7.2260   24.7180 C   0  0  0  0  0  3  0  0  0  0  0  0
  -21.4390   -5.8220   24.6230 C   0  0  0  0  0  0  0  0  0  0  0  0
  -21.7420   -5.2120   23.3920 C   0  0  0  0  0  3  0  0  0  0  0  0
  -21.9870   -6.0050   22.2570 C   0  0  0  0  0  0  0  0  0  0  0  0
  -22.2600   -5.4100   21.0700 F   0  0  0  0  0  0  0  0  0  0  0  0
  -21.1960   -5.0580   25.7130 F   0  0  0  0  0  0  0  0  0  0  0  0
  -24.6930  -14.3750   21.2060 C   0  0  0  0  0  0  0  0  0  0  0  0
  -23.9590  -13.8080   22.1600 N   0  0  0  0  0  0  0  0  0  0  0  0
  -24.4190  -15.4950   20.7760 O   0  0  0  0  0  0  0  0  0  0  0  0
  -24.1930  -12.8980   22.5300 H   0  0  0  0  0  0  0  0  0  0  0  0
  -23.1580  -14.3010   22.5330 H   0  0  0  0  0  0  0  0  0  0  0  0
  -27.5430  -15.4680   20.1690 N   0  0  0  0  0  0  0  0  0  0  0  0
  -27.0080  -16.2590   20.5040 H   0  0  0  0  0  0  0  0  0  0  0  0
  -28.4580  -15.7210   19.8200 H   0  0  0  0  0  0  0  0  0  0  0  0
  -29.8420  -25.3970   19.0190 C   0  0  0  0  0  2  0  0  0  0  0  0
  -29.1380  -25.5300   20.3870 C   0  0  0  0  0  2  0  0  0  0  0  0
  -28.0760  -26.4510   20.2050 O   0  0  0  0  0  0  0  0  0  0  0  0
  -27.4340  -31.6160   25.0530 C   0  0  0  0  0  0  0  0  0  0  0  0
  -27.4470  -26.9170   21.3280 C   0  0  0  0  0  0  0  0  0  0  0  0
  -25.9710  -29.6450   25.3790 C   0  0  0  0  0  3  0  0  0  0  0  0
  -25.9300  -27.9710   23.4580 C   0  0  0  0  0  0  0  0  0  0  0  0
  -26.7980  -30.2830   23.0480 C   0  0  0  0  0  2  0  0  0  0  0  0
  -26.7540  -28.8120   22.6990 C   0  0  0  0  0  0  0  0  0  0  0  0
  -27.5090  -28.2910   21.6300 C   0  0  0  0  0  3  0  0  0  0  0  0
  -26.6280  -26.0690   22.1030 C   0  0  0  0  0  3  0  0  0  0  0  0
  -25.8660  -26.5930   23.1690 C   0  0  0  0  0  3  0  0  0  0  0  0
  -25.1340  -28.6210   24.5660 C   0  0  0  0  0  2  0  0  0  0  0  0
  -26.7860  -30.5500   24.5040 N   0  0  0  0  0  0  0  0  0  0  0  0
  -27.3240  -31.8830   26.2570 O   0  0  0  0  0  0  0  0  0  0  0  0
  -26.8160  -28.8720   26.4150 C   0  0  0  0  0  0  0  0  0  0  0  0
  -26.2800  -28.7270   27.6370 N   0  0  0  0  0  0  0  0  0  0  0  0
  -27.9100  -28.3900   26.1060 O   0  0  0  0  0  0  0  0  0  0  0  0
  -25.3830  -29.1580   27.8140 H   0  0  0  0  0  0  0  0  0  0  0  0
  -26.0050  -28.1290   31.1870 C   0  0  0  0  0  0  0  0  0  0  0  0
  -26.8760  -28.0020   28.7570 C   0  0  0  0  0  3  0  0  0  0  0  0
  -26.4120  -26.5270   28.7740 C   0  0  0  0  0  2  0  0  0  0  0  0
  -25.1780  -26.2940   29.6520 C   0  0  0  0  0  2  0  0  0  0  0  0
  -25.4610  -26.7140   31.0980 C   0  0  0  0  0  2  0  0  0  0  0  0
  -26.6560  -28.7400   30.0820 C   0  0  0  0  0  0  0  0  0  0  0  0
  -27.1110  -30.0700   30.2050 C   0  0  0  0  0  3  0  0  0  0  0  0
  -26.9320  -30.7840   31.4040 C   0  0  0  0  0  3  0  0  0  0  0  0
  -26.2980  -30.1700   32.4990 C   0  0  0  0  0  3  0  0  0  0  0  0
  -25.8400  -28.8460   32.3890 C   0  0  0  0  0  3  0  0  0  0  0  0
  -28.3220  -32.5670   24.1890 C   0  0  0  0  0  3  0  0  0  0  0  0
  -28.0130  -33.9460   24.5890 N   0  0  0  0  0  0  0  0  0  0  0  0
  -27.3730  -34.8350   23.8200 C   0  0  0  0  0  0  0  0  0  0  0  0
  -27.0420  -34.5970   22.6540 O   0  0  0  0  0  0  0  0  0  0  0  0
  -28.2090  -34.1930   25.5490 H   0  0  0  0  0  0  0  0  0  0  0  0
  -25.5300  -36.3270   24.6530 C   0  0  0  0  0  1  0  0  0  0  0  0
  -27.0480  -36.2060   24.4380 C   0  0  0  0  0  3  0  0  0  0  0  0
  -28.9830  -37.4850   23.6330 C   0  0  0  0  0  1  0  0  0  0  0  0
  -27.5280  -37.3480   23.6290 N   0  0  0  0  0  0  0  0  0  0  0  0
  -27.1250  -38.2200   23.9610 H   0  0  0  0  0  0  0  0  0  0  0  0
  -29.8670  -32.2760   24.3320 C   0  0  1  0  0  0  0  0  0  0  0  0
  -30.3450  -32.1640   25.7980 C   0  0  0  0  0  1  0  0  0  0  0  0
  -30.2430  -30.9640   23.6060 C   0  0  0  0  0  1  0  0  0  0  0  0
  -30.6760  -33.4050   23.6500 C   0  0  0  0  0  1  0  0  0  0  0  0
  1  2  1  0
  2  6  2  0
  3  6  1  0
  4  5  1  0
  4  1  2  0
  5  3  2  0
  6 12  1  0
  7  4  1  0
  8  5  1  0
  9 11  1  0
 10  9  1  0
 10  7  1  0
 10 11  1  0
 11  8  1  0
 11 57  1  1
 13 12  1  6
 13 15  1  0
 13 17  1  0
 15 14  1  0
 17 16  1  0
 18 13  1  0
 19 25  1  0
 19 27  1  0
 20 25  1  0
 21 22  1  0
 21 20  1  0
 23 22  1  0
 23 32  1  0
 23 24  1  0
 25 24  1  0
 26 19  2  0
 27 18  1  0
 27 28  1  0
 29 30  2  0
 30 49  1  0
 31 30  1  0
 31 34  1  0
 32 33  1  0
 32 29  1  0
 33 31  2  0
 34 35  1  0
 35 36  2  0
 37 40  1  0
 37 36  1  0
 38 37  2  0
 39 38  1  0
 39 34  2  0
 40 41  1  0
 41 42  1  0
 42 43  2  0
 44 43  1  0
 44 48  1  0
 45 44  2  0
 46 41  2  0
 46 45  1  0
 47 46  1  0
 49 50  1  0
 50 52  1  0
 50 53  1  0
 51 49  2  0
 54 29  1  0
 54 55  1  0
 56 54  1  0
 57 58  1  0
 59 58  1  0
 59 61  1  0
 60 71  2  0
 61 66  2  0
 61 67  1  0
 62 72  1  0
 63 69  1  0
 64 70  1  0
 65 64  1  0
 65 63  2  0
 66 65  1  0
 67 68  2  0
 68 63  1  0
 69 62  1  0
 70 60  1  0
 70 62  1  0
 72 73  1  0
 73 75  1  0
 74 72  2  0
 76 85  1  0
 77 73  1  0
 77 78  1  0
 77 81  1  0
 78 79  1  0
 79 80  1  0
 80 76  1  0
 81 82  1  0
 81 76  2  0
 82 83  2  0
 83 84  1  0
 85 84  2  0
 86 96  1  0
 86 87  1  0
 86 60  1  0
 87 90  1  0
 88 92  1  0
 88 87  1  0
 89 88  2  0
 92 91  1  0
 94 93  1  0
 94 95  1  0
 94 92  1  0
 96 97  1  1
 98 96  1  0
 99 96  1  0
M  ISO  4  19 100  27 100  58 101  59 101
M  END
>  <TORSDO>  (96) 
F 23

>  <SCORE>  (96) 
-8.862

>  <name>  (96) 
96

>  <ligand_id>  (96) 
96

>  <original_smiles>  (96) 
[H]c1c([H])c([H])c2c(c1[H])C([H])([H])C([H])([H])C([H])([H])C2([H])N([H])C(=O)C1([H])N(C(=O)C([H])(N([H])C(=O)C([H])(N([H])C([H])([H])[H])C([H])([H])[H])C(C([H])([H])[H])(C([H])([H])[H])C([H])([H])[H])C([H])([H])c2c([H])c(OC([H])([H])C([H])([H])C34C([H])([H])c5c([H])c(C([H])([H])C(C([H])([H])N([H])C(=O)N6C([H])([H])C([H])([H])C([H])([H])C([H])(n7nc(-c8c([H])c([H])c(Oc9c([H])c([H])c(F)c([H])c9F)c([H])c8[H])c(C(=O)N([H])[H])c7N([H])[H])C6([H])[H])(C([H])([H])C([H])([H])[H])C([H])([H])C([H])([H])[H])c([H])c([H])c5C([H])([H])C3([H])C4([H])[H])c([H])c([H])c2C1([H])[H]

>  <smiles>  (96) 
[H]c1c([H])c([H])c2c(c1[H])C([H])([H])C([H])([H])C([H])([H])C2([H])N([H])C(=O)C1([H])N(C(=O)C([H])(N([H])C(=O)C([H])(N([H])C([H])([H])[H])C([H])([H])[H])C(C([H])([H])[H])(C([H])([H])[H])C([H])([H])[H])C([H])([H])c2c([H])c(OC([H])([H])C([H])([H])C34C([H])([H])c5c([H])c(C([H])([H])C(C([H])([H])N([H])C(=O)N6C([H])([H])C([H])([H])C([H])([H])C([H])(n7nc(-c8c([H])c([H])c(Oc9c([H])c([H])c(F)c([H])c9F)c([H])c8[H])c(C(=O)N([H])[H])c7N([H])[H])C6([H])[H])(C([H])([H])C([H])([H])[H])C([H])([H])C([H])([H])[H])c([H])c([H])c5C([H])([H])C3([H])C4([H])[H])c([H])c([H])c2C1([H])[H]

$$$$
97:0:0
     RDKit          3D

 94102  0  0  1  0  0  0  0  0999 V2000
  -30.0890  -23.7440   20.1540 C   0  0  0  0  0  3  0  0  0  0  0  0
  -30.5920  -22.4170   20.0460 C   0  0  0  0  0  3  0  0  0  0  0  0
  -27.8860  -22.8370   20.4710 C   0  0  0  0  0  3  0  0  0  0  0  0
  -28.7210  -23.9830   20.4120 C   0  0  0  0  0  0  0  0  0  0  0  0
  -29.7770  -21.2580   20.2010 C   0  0  0  0  0  0  0  0  0  0  0  0
  -28.3820  -21.5010   20.3740 C   0  0  0  0  0  0  0  0  0  0  0  0
  -27.3830  -20.3670   20.5250 C   0  0  0  0  0  1  0  0  0  0  0  0
  -28.1550  -25.3760   20.8400 C   0  0  0  0  0  2  0  0  0  0  0  0
  -28.3910  -26.5790   20.0420 O   0  0  0  0  0  0  0  0  0  0  0  0
  -24.5810  -31.8140   23.1690 C   0  0  0  0  0  0  0  0  0  0  0  0
  -27.2890  -27.4260   20.0090 C   0  0  0  0  0  0  0  0  0  0  0  0
  -23.4060  -30.4340   21.4880 C   0  0  0  0  0  3  0  0  0  0  0  0
  -24.8920  -28.9530   20.0280 C   0  0  0  0  0  0  0  0  0  0  0  0
  -25.9350  -30.8190   21.3190 C   0  0  0  0  0  2  0  0  0  0  0  0
  -26.0460  -29.4620   20.6410 C   0  0  0  0  0  0  0  0  0  0  0  0
  -27.2530  -28.7070   20.6270 C   0  0  0  0  0  3  0  0  0  0  0  0
  -26.1220  -26.9570   19.3760 C   0  0  0  0  0  3  0  0  0  0  0  0
  -24.9290  -27.7030   19.3870 C   0  0  0  0  0  3  0  0  0  0  0  0
  -23.6360  -29.7970   20.0920 C   0  0  0  0  0  2  0  0  0  0  0  0
  -24.6580  -31.0380   22.0500 N   0  0  0  0  0  0  0  0  0  0  0  0
  -23.4910  -32.0570   23.7080 O   0  0  0  0  0  0  0  0  0  0  0  0
  -22.7630  -29.3810   22.4200 C   0  0  0  0  0  0  0  0  0  0  0  0
  -21.4360  -29.2030   22.3030 N   0  0  0  0  0  0  0  0  0  0  0  0
  -23.4550  -28.7290   23.2070 O   0  0  0  0  0  0  0  0  0  0  0  0
  -20.9370  -29.7820   21.6410 H   0  0  0  0  0  0  0  0  0  0  0  0
  -18.0620  -28.0160   22.8310 C   0  0  0  0  0  0  0  0  0  0  0  0
  -20.6290  -28.2380   23.0500 C   0  0  0  0  0  3  0  0  0  0  0  0
  -20.7020  -26.8340   22.4080 C   0  0  0  0  0  2  0  0  0  0  0  0
  -19.5720  -26.5680   21.4080 C   0  0  0  0  0  2  0  0  0  0  0  0
  -18.2080  -26.6960   22.0910 C   0  0  0  0  0  2  0  0  0  0  0  0
  -19.1980  -28.7470   23.2680 C   0  0  0  0  0  0  0  0  0  0  0  0
  -19.0070  -29.9850   23.9200 C   0  0  0  0  0  3  0  0  0  0  0  0
  -17.7110  -30.4890   24.1400 C   0  0  0  0  0  3  0  0  0  0  0  0
  -16.5890  -29.7530   23.7200 C   0  0  0  0  0  3  0  0  0  0  0  0
  -16.7650  -28.5190   23.0710 C   0  0  0  0  0  3  0  0  0  0  0  0
  -25.8510  -32.4520   23.8110 C   0  0  0  0  0  3  0  0  0  0  0  0
  -25.5350  -33.8520   24.1260 N   0  0  0  0  0  0  0  0  0  0  0  0
  -25.8710  -34.8980   23.3620 C   0  0  0  0  0  0  0  0  0  0  0  0
  -26.5510  -34.7880   22.3380 O   0  0  0  0  0  0  0  0  0  0  0  0
  -24.9320  -34.0110   24.9210 H   0  0  0  0  0  0  0  0  0  0  0  0
  -24.1350  -36.6780   22.9810 C   0  0  0  0  0  1  0  0  0  0  0  0
  -25.3750  -36.2890   23.8030 C   0  0  0  0  0  3  0  0  0  0  0  0
  -27.4970  -37.1990   24.6390 C   0  0  0  0  0  1  0  0  0  0  0  0
  -26.4030  -37.3460   23.6820 N   0  0  0  0  0  0  0  0  0  0  0  0
  -25.9910  -38.2670   23.8120 H   0  0  0  0  0  0  0  0  0  0  0  0
  -26.3450  -31.6880   25.1010 C   0  0  1  0  0  0  0  0  0  0  0  0
  -25.2310  -31.4490   26.1470 C   0  0  0  0  0  1  0  0  0  0  0  0
  -26.9450  -30.3130   24.7250 C   0  0  0  0  0  1  0  0  0  0  0  0
  -27.4770  -32.4910   25.7830 C   0  0  0  0  0  1  0  0  0  0  0  0
  -30.5060  -19.8660   20.3670 C   0  0  0  0  0  3  0  0  0  0  0  0
  -31.0860  -19.8720   21.7190 N   0  0  0  0  0  4  0  0  0  0  0  0
  -30.3710  -19.7700   22.4170 H   0  0  0  0  0  0  0  0  0  0  0  0
  -31.5470  -20.7500   21.8770 H   0  0  0  0  0  0  0  0  0  0  0  0
  -31.7630  -19.1420   21.8350 H   0  0  0  0  0  0  0  0  0  0  0  0
  -29.8150  -18.4560   20.0700 C   0  0  0  0  0  2  0  0  0  0  0  0
  -30.8080  -17.2120   20.1010 C   0  0  0  0  0  2  0  0  0  0  0  0
  -30.9750  -14.6830   19.9350 C   0  0  0  0  0  0  0  0  0  0  0  0
  -30.6790  -12.4100   19.0020 C   0  0  0  0  0  2  0  0  0  0  0  0
  -29.7000  -12.4820   17.8110 C   0  0  0  0  0  2  0  0  0  0  0  0
  -28.2440  -12.3520   18.3010 C   0  0  0  0  0  2  0  0  0  0  0  0
  -27.9280  -13.2860   19.4990 C   0  0  0  0  0  3  0  0  0  0  0  0
  -29.0240  -13.2060   20.5860 C   0  0  0  0  0  2  0  0  0  0  0  0
  -30.3110  -13.4890   19.9370 N   0  0  0  0  0  0  0  0  0  0  0  0
  -32.1300  -14.7750   19.5140 O   0  0  0  0  0  0  0  0  0  0  0  0
  -30.2640  -15.8150   20.2180 N   0  0  0  0  0  0  0  0  0  0  0  0
  -29.3040  -15.6970   20.5090 H   0  0  0  0  0  0  0  0  0  0  0  0
  -25.5930  -13.9300   20.3540 C   0  0  0  0  0  0  0  0  0  0  0  0
  -24.5240  -13.1770   20.7560 C   0  0  0  0  0  0  0  0  0  0  0  0
  -24.9450  -11.8140   20.6690 C   0  0  0  0  0  0  0  0  0  0  0  0
  -26.5980  -13.0280   20.0460 N   0  0  0  0  0  0  0  0  0  0  0  0
  -26.2170  -11.7490   20.2960 N   0  0  0  0  0  0  0  0  0  0  0  0
  -24.1930  -10.5670   20.8630 C   0  0  0  0  0  0  0  0  0  0  0  0
  -24.6130   -9.5890   21.7910 C   0  0  0  0  0  3  0  0  0  0  0  0
  -23.8630   -8.4070   21.9730 C   0  0  0  0  0  3  0  0  0  0  0  0
  -22.6790   -8.1960   21.2270 C   0  0  0  0  0  0  0  0  0  0  0  0
  -22.2780   -9.1630   20.2890 C   0  0  0  0  0  3  0  0  0  0  0  0
  -23.0280  -10.3360   20.1050 C   0  0  0  0  0  3  0  0  0  0  0  0
  -21.9000   -7.0670   21.3200 O   0  0  0  0  0  0  0  0  0  0  0  0
  -21.8110   -6.3480   22.4850 C   0  0  0  0  0  0  0  0  0  0  0  0
  -21.3390   -6.9280   23.6830 C   0  0  0  0  0  3  0  0  0  0  0  0
  -21.1950   -6.1340   24.8390 C   0  0  0  0  0  3  0  0  0  0  0  0
  -21.5150   -4.7640   24.7970 C   0  0  0  0  0  0  0  0  0  0  0  0
  -21.9790   -4.1840   23.6030 C   0  0  0  0  0  3  0  0  0  0  0  0
  -22.1240   -4.9740   22.4500 C   0  0  0  0  0  0  0  0  0  0  0  0
  -22.5510   -4.4070   21.2970 F   0  0  0  0  0  0  0  0  0  0  0  0
  -21.3690   -4.0000   25.9060 F   0  0  0  0  0  0  0  0  0  0  0  0
  -23.1550  -13.6840   21.1090 C   0  0  0  0  0  0  0  0  0  0  0  0
  -22.4550  -12.9890   21.9980 N   0  0  0  0  0  0  0  0  0  0  0  0
  -22.7200  -14.7300   20.6320 O   0  0  0  0  0  0  0  0  0  0  0  0
  -22.8230  -12.1410   22.4050 H   0  0  0  0  0  0  0  0  0  0  0  0
  -21.5380  -13.3080   22.2750 H   0  0  0  0  0  0  0  0  0  0  0  0
  -25.7870  -15.3000   20.2010 N   0  0  0  0  0  0  0  0  0  0  0  0
  -25.0420  -15.9700   20.3590 H   0  0  0  0  0  0  0  0  0  0  0  0
  -26.6200  -15.7210   19.8100 H   0  0  0  0  0  0  0  0  0  0  0  0
  1  4  1  0
  2  1  2  0
  2  5  1  0
  4  3  2  0
  4  8  1  0
  5 50  1  0
  5  6  2  0
  6  3  1  0
  6  7  1  0
  9  8  1  0
 10 21  2  0
 11  9  1  0
 11 16  1  0
 12 20  1  0
 12 22  1  0
 13 19  1  0
 13 15  1  0
 14 20  1  0
 15 14  1  0
 16 15  2  0
 17 18  1  0
 17 11  2  0
 18 13  2  0
 19 12  1  0
 20 10  1  0
 22 24  2  0
 23 22  1  0
 25 23  1  0
 26 35  2  0
 26 31  1  0
 27 23  1  0
 27 31  1  0
 28 27  1  0
 29 30  1  0
 29 28  1  0
 30 26  1  0
 31 32  2  0
 32 33  1  0
 34 33  2  0
 35 34  1  0
 36 10  1  0
 36 37  1  0
 36 46  1  0
 37 40  1  0
 38 42  1  0
 38 37  1  0
 39 38  2  0
 42 41  1  0
 44 42  1  0
 44 45  1  0
 44 43  1  0
 46 49  1  1
 46 47  1  0
 48 46  1  0
 50 55  1  0
 50 51  1  0
 51 54  1  0
 51 53  1  0
 51 52  1  0
 55 56  1  0
 56 65  1  0
 57 63  1  0
 57 65  1  0
 58 63  1  0
 59 60  1  0
 59 58  1  0
 61 60  1  0
 61 70  1  0
 61 62  1  0
 63 62  1  0
 64 57  2  0
 65 66  1  0
 67 68  2  0
 68 87  1  0
 69 68  1  0
 69 72  1  0
 70 71  1  0
 70 67  1  0
 71 69  2  0
 72 73  1  0
 73 74  2  0
 75 78  1  0
 75 74  1  0
 76 75  2  0
 77 76  1  0
 77 72  2  0
 78 79  1  0
 79 80  1  0
 80 81  2  0
 82 81  1  0
 82 86  1  0
 83 82  2  0
 84 79  2  0
 84 83  1  0
 85 84  1  0
 87 88  1  0
 88 91  1  0
 88 90  1  0
 89 87  2  0
 92 67  1  0
 92 93  1  0
 94 92  1  0
M  ISO  4   8 101   9 101  57 100  65 100
M  END
>  <TORSDO>  (97) 
F 21

>  <SCORE>  (97) 
-12.950

>  <name>  (97) 
97

>  <ligand_id>  (97) 
97

>  <original_smiles>  (97) 
[H]c1c([H])c([H])c2c(c1[H])C([H])([H])C([H])([H])C([H])([H])C2([H])N([H])C(=O)C1([H])N(C(=O)C([H])(N([H])C(=O)C([H])(N([H])C([H])([H])[H])C([H])([H])[H])C(C([H])([H])[H])(C([H])([H])[H])C([H])([H])[H])C([H])([H])c2c([H])c(OC([H])([H])c3c([H])c([H])c(C([H])(C([H])([H])C([H])([H])N([H])C(=O)N4C([H])([H])C([H])([H])C([H])([H])C([H])(n5nc(-c6c([H])c([H])c(Oc7c([H])c([H])c(F)c([H])c7F)c([H])c6[H])c(C(=O)N([H])[H])c5N([H])[H])C4([H])[H])[N+]([H])([H])[H])c(C([H])([H])[H])c3[H])c([H])c([H])c2C1([H])[H]

>  <smiles>  (97) 
[H]c1c([H])c([H])c2c(c1[H])C([H])([H])C([H])([H])C([H])([H])C2([H])N([H])C(=O)C1([H])N(C(=O)C([H])(N([H])C(=O)C([H])(N([H])C([H])([H])[H])C([H])([H])[H])C(C([H])([H])[H])(C([H])([H])[H])C([H])([H])[H])C([H])([H])c2c([H])c(OC([H])([H])c3c([H])c([H])c(C([H])(C([H])([H])C([H])([H])N([H])C(=O)N4C([H])([H])C([H])([H])C([H])([H])C([H])(n5nc(-c6c([H])c([H])c(Oc7c([H])c([H])c(F)c([H])c7F)c([H])c6[H])c(C(=O)N([H])[H])c5N([H])[H])C4([H])[H])[N+]([H])([H])[H])c(C([H])([H])[H])c3[H])c([H])c([H])c2C1([H])[H]

$$$$
98:0:0
     RDKit          3D

 98107  0  0  1  0  0  0  0  0999 V2000
  -32.8460  -21.7240   20.0790 C   0  0  0  0  0  2  0  0  0  0  0  0
  -31.8810  -22.9000   20.3170 C   0  0  0  0  0  2  0  0  0  0  0  0
  -30.0070  -20.2220   20.3260 C   0  0  0  0  0  2  0  0  0  0  0  0
  -31.9850  -20.5830   19.5580 C   0  0  0  0  0  3  0  0  0  0  0  0
  -30.6010  -21.1390   19.2430 C   0  0  0  0  0  3  0  0  0  0  0  0
  -30.6680  -22.6640   19.3910 C   0  0  0  0  0  3  0  0  0  0  0  0
  -31.3740  -19.5610   20.5340 C   0  0  0  0  0  3  0  0  0  0  0  0
  -31.5600  -18.0540   20.2780 C   0  0  0  0  0  3  0  0  0  0  0  0
  -34.1370  -18.4680   20.3600 C   0  0  0  0  0  1  0  0  0  0  0  0
  -32.9570  -17.7610   19.6710 C   0  0  0  0  0  2  0  0  0  0  0  0
  -31.2600  -17.2340   21.5580 C   0  0  0  0  0  2  0  0  0  0  0  0
  -31.6040  -15.7260   21.5230 C   0  0  0  0  0  2  0  0  0  0  0  0
  -30.7640  -14.2310   19.7020 C   0  0  0  0  0  0  0  0  0  0  0  0
  -30.2310  -12.1370   18.5080 C   0  0  0  0  0  2  0  0  0  0  0  0
  -29.1470  -12.3000   17.4300 C   0  0  0  0  0  2  0  0  0  0  0  0
  -27.7440  -12.1480   18.0460 C   0  0  0  0  0  2  0  0  0  0  0  0
  -27.5520  -13.0350   19.3040 C   0  0  0  0  0  3  0  0  0  0  0  0
  -28.7280  -12.8580   20.2880 C   0  0  0  0  0  2  0  0  0  0  0  0
  -29.9900  -13.1250   19.5700 N   0  0  0  0  0  0  0  0  0  0  0  0
  -31.6520  -14.5370   18.9020 O   0  0  0  0  0  0  0  0  0  0  0  0
  -30.6070  -14.8830   20.8630 N   0  0  0  0  0  0  0  0  0  0  0  0
  -29.8430  -14.5580   21.4380 H   0  0  0  0  0  0  0  0  0  0  0  0
  -25.2780  -13.6630   20.3330 C   0  0  0  0  0  0  0  0  0  0  0  0
  -24.2520  -12.8990   20.8210 C   0  0  0  0  0  0  0  0  0  0  0  0
  -24.6790  -11.5400   20.6990 C   0  0  0  0  0  0  0  0  0  0  0  0
  -26.2670  -12.7710   19.9480 N   0  0  0  0  0  0  0  0  0  0  0  0
  -25.9160  -11.4880   20.2230 N   0  0  0  0  0  0  0  0  0  0  0  0
  -23.9590  -10.2860   20.9560 C   0  0  0  0  0  0  0  0  0  0  0  0
  -24.4300   -9.3450   21.8990 C   0  0  0  0  0  3  0  0  0  0  0  0
  -23.7120   -8.1540   22.1400 C   0  0  0  0  0  3  0  0  0  0  0  0
  -22.5090   -7.8940   21.4400 C   0  0  0  0  0  0  0  0  0  0  0  0
  -22.0580   -8.8250   20.4860 C   0  0  0  0  0  3  0  0  0  0  0  0
  -22.7770  -10.0070   20.2430 C   0  0  0  0  0  3  0  0  0  0  0  0
  -21.7600   -6.7530   21.5900 O   0  0  0  0  0  0  0  0  0  0  0  0
  -21.6950   -6.0880   22.7870 C   0  0  0  0  0  0  0  0  0  0  0  0
  -21.2270   -6.7130   23.9640 C   0  0  0  0  0  3  0  0  0  0  0  0
  -21.1110   -5.9730   25.1570 C   0  0  0  0  0  3  0  0  0  0  0  0
  -21.4530   -4.6070   25.1760 C   0  0  0  0  0  0  0  0  0  0  0  0
  -21.9140   -3.9810   24.0040 C   0  0  0  0  0  3  0  0  0  0  0  0
  -22.0320   -4.7190   22.8130 C   0  0  0  0  0  0  0  0  0  0  0  0
  -22.4560   -4.1060   21.6820 F   0  0  0  0  0  0  0  0  0  0  0  0
  -21.3330   -3.8940   26.3190 F   0  0  0  0  0  0  0  0  0  0  0  0
  -22.9120  -13.3910   21.2870 C   0  0  0  0  0  0  0  0  0  0  0  0
  -22.3020  -12.6980   22.2420 N   0  0  0  0  0  0  0  0  0  0  0  0
  -22.4190  -14.4240   20.8380 O   0  0  0  0  0  0  0  0  0  0  0  0
  -22.7150  -11.8600   22.6260 H   0  0  0  0  0  0  0  0  0  0  0  0
  -21.4090  -13.0090   22.5960 H   0  0  0  0  0  0  0  0  0  0  0  0
  -25.4450  -15.0350   20.1680 N   0  0  0  0  0  0  0  0  0  0  0  0
  -24.7180  -15.7050   20.3910 H   0  0  0  0  0  0  0  0  0  0  0  0
  -26.2670  -15.4640   19.7560 H   0  0  0  0  0  0  0  0  0  0  0  0
  -29.3600  -23.3670   19.8450 C   0  0  0  0  0  3  0  0  0  0  0  0
  -27.0520  -22.4010   19.8830 C   0  0  0  0  0  1  0  0  0  0  0  0
  -28.2240  -22.8020   19.0770 N   0  0  0  0  0  4  0  0  0  0  0  0
  -27.9420  -23.4310   18.3440 H   0  0  0  0  0  0  0  0  0  0  0  0
  -28.5640  -21.9650   18.6300 H   0  0  0  0  0  0  0  0  0  0  0  0
  -29.4580  -24.9080   19.6560 C   0  0  0  0  0  2  0  0  0  0  0  0
  -28.3650  -25.7260   20.3670 C   0  0  0  0  0  2  0  0  0  0  0  0
  -28.4230  -27.0970   19.9560 O   0  0  0  0  0  0  0  0  0  0  0  0
  -24.6340  -32.0260   23.4150 C   0  0  0  0  0  0  0  0  0  0  0  0
  -27.2410  -27.7990   20.0310 C   0  0  0  0  0  0  0  0  0  0  0  0
  -23.4000  -30.7100   21.7220 C   0  0  0  0  0  3  0  0  0  0  0  0
  -24.8330  -29.2700   20.1820 C   0  0  0  0  0  0  0  0  0  0  0  0
  -25.9180  -31.1040   21.4890 C   0  0  0  0  0  2  0  0  0  0  0  0
  -25.9990  -29.7730   20.7730 C   0  0  0  0  0  0  0  0  0  0  0  0
  -27.2070  -29.0450   20.6940 C   0  0  0  0  0  3  0  0  0  0  0  0
  -26.0600  -27.3150   19.4230 C   0  0  0  0  0  3  0  0  0  0  0  0
  -24.8580  -28.0390   19.5040 C   0  0  0  0  0  3  0  0  0  0  0  0
  -23.5840  -30.1130   20.3020 C   0  0  0  0  0  2  0  0  0  0  0  0
  -24.6700  -31.2910   22.2680 N   0  0  0  0  0  0  0  0  0  0  0  0
  -23.5640  -32.2590   23.9920 O   0  0  0  0  0  0  0  0  0  0  0  0
  -22.7790  -29.6290   22.6350 C   0  0  0  0  0  0  0  0  0  0  0  0
  -21.4630  -29.4070   22.4880 N   0  0  0  0  0  0  0  0  0  0  0  0
  -23.4780  -28.9950   23.4310 O   0  0  0  0  0  0  0  0  0  0  0  0
  -20.9610  -29.9750   21.8200 H   0  0  0  0  0  0  0  0  0  0  0  0
  -18.1330  -28.0610   22.8750 C   0  0  0  0  0  0  0  0  0  0  0  0
  -20.6710  -28.4130   23.2120 C   0  0  0  0  0  3  0  0  0  0  0  0
  -20.8450  -27.0060   22.5940 C   0  0  0  0  0  2  0  0  0  0  0  0
  -19.7780  -26.6700   21.5470 C   0  0  0  0  0  2  0  0  0  0  0  0
  -18.3790  -26.7390   22.1650 C   0  0  0  0  0  2  0  0  0  0  0  0
  -19.2100  -28.8540   23.3520 C   0  0  0  0  0  0  0  0  0  0  0  0
  -18.9280  -30.0890   23.9740 C   0  0  0  0  0  3  0  0  0  0  0  0
  -17.6010  -30.5320   24.1250 C   0  0  0  0  0  3  0  0  0  0  0  0
  -16.5380  -29.7370   23.6650 C   0  0  0  0  0  3  0  0  0  0  0  0
  -16.8040  -28.5020   23.0460 C   0  0  0  0  0  3  0  0  0  0  0  0
  -25.9300  -32.6270   24.0420 C   0  0  0  0  0  3  0  0  0  0  0  0
  -25.6530  -34.0340   24.3640 N   0  0  0  0  0  0  0  0  0  0  0  0
  -26.0060  -35.0720   23.5940 C   0  0  0  0  0  0  0  0  0  0  0  0
  -26.6710  -34.9470   22.5620 O   0  0  0  0  0  0  0  0  0  0  0  0
  -25.0650  -34.2080   25.1650 H   0  0  0  0  0  0  0  0  0  0  0  0
  -24.3010  -36.8870   23.2420 C   0  0  0  0  0  1  0  0  0  0  0  0
  -25.5470  -36.4740   24.0410 C   0  0  0  0  0  3  0  0  0  0  0  0
  -27.7060  -37.3340   24.8300 C   0  0  0  0  0  1  0  0  0  0  0  0
  -26.5950  -37.5080   23.8990 N   0  0  0  0  0  0  0  0  0  0  0  0
  -26.2070  -38.4360   24.0380 H   0  0  0  0  0  0  0  0  0  0  0  0
  -26.4230  -31.8470   25.3220 C   0  0  1  0  0  0  0  0  0  0  0  0
  -25.3100  -31.6090   26.3700 C   0  0  0  0  0  1  0  0  0  0  0  0
  -27.0080  -30.4700   24.9300 C   0  0  0  0  0  1  0  0  0  0  0  0
  -27.5670  -32.6330   26.0070 C   0  0  0  0  0  1  0  0  0  0  0  0
  1  2  1  0
  3  7  1  0
  4  1  1  0
  4  7  1  0
  5  6  1  0
  5  4  1  0
  5  3  1  0
  6 51  1  0
  6  2  1  0
  7  8  1  0
  8 10  1  0
  8 11  1  0
 10  9  1  0
 12 11  1  0
 13 21  1  0
 14 19  1  0
 15 16  1  0
 15 14  1  0
 17 16  1  0
 17 26  1  0
 17 18  1  0
 19 13  1  0
 19 18  1  0
 20 13  2  0
 21 22  1  0
 21 12  1  0
 23 24  2  0
 24 43  1  0
 25 24  1  0
 25 28  1  0
 26 27  1  0
 26 23  1  0
 27 25  2  0
 28 29  1  0
 29 30  2  0
 31 34  1  0
 31 30  1  0
 32 31  2  0
 33 32  1  0
 33 28  2  0
 34 35  1  0
 35 40  2  0
 35 36  1  0
 36 37  2  0
 37 38  1  0
 38 42  1  0
 39 38  2  0
 40 39  1  0
 41 40  1  0
 43 44  1  0
 44 47  1  0
 44 46  1  0
 45 43  2  0
 48 23  1  0
 48 49  1  0
 50 48  1  0
 51 56  1  0
 53 51  1  0
 53 52  1  0
 54 53  1  0
 55 53  1  0
 56 57  1  0
 58 60  1  0
 58 57  1  0
 59 70  2  0
 60 65  1  0
 61 69  1  0
 61 71  1  0
 62 68  1  0
 62 64  1  0
 63 69  1  0
 64 63  1  0
 65 64  2  0
 66 67  1  0
 66 60  2  0
 67 62  2  0
 68 61  1  0
 69 59  1  0
 71 73  2  0
 72 71  1  0
 74 72  1  0
 75 84  2  0
 75 80  1  0
 76 72  1  0
 76 80  1  0
 77 76  1  0
 78 79  1  0
 78 77  1  0
 79 75  1  0
 80 81  2  0
 81 82  1  0
 83 82  2  0
 84 83  1  0
 85 59  1  0
 85 86  1  0
 85 95  1  0
 86 89  1  0
 87 91  1  0
 87 86  1  0
 88 87  2  0
 91 90  1  0
 93 94  1  0
 93 91  1  0
 93 92  1  0
 95 98  1  1
 95 96  1  0
 97 95  1  0
M  ISO  4  13 100  21 100  57 101  58 101
M  END
>  <TORSDO>  (98) 
F 24

>  <SCORE>  (98) 
-11.505

>  <name>  (98) 
98

>  <ligand_id>  (98) 
98

>  <original_smiles>  (98) 
[H]c1c([H])c([H])c2c(c1[H])C([H])([H])C([H])([H])C([H])([H])C2([H])N([H])C(=O)C1([H])N(C(=O)C([H])(N([H])C(=O)C([H])(N([H])C([H])([H])[H])C([H])([H])[H])C(C([H])([H])[H])(C([H])([H])[H])C([H])([H])[H])C([H])([H])c2c([H])c(OC([H])([H])C([H])([H])C([H])(C3([H])C([H])([H])C([H])([H])C4([H])C([H])(C([H])(C([H])([H])C([H])([H])[H])C([H])([H])C([H])([H])N([H])C(=O)N5C([H])([H])C([H])([H])C([H])([H])C([H])(n6nc(-c7c([H])c([H])c(Oc8c([H])c([H])c(F)c([H])c8F)c([H])c7[H])c(C(=O)N([H])[H])c6N([H])[H])C5([H])[H])C([H])([H])C43[H])[N+]([H])([H])C([H])([H])[H])c([H])c([H])c2C1([H])[H]

>  <smiles>  (98) 
[H]c1c([H])c([H])c2c(c1[H])C([H])([H])C([H])([H])C([H])([H])C2([H])N([H])C(=O)C1([H])N(C(=O)C([H])(N([H])C(=O)C([H])(N([H])C([H])([H])[H])C([H])([H])[H])C(C([H])([H])[H])(C([H])([H])[H])C([H])([H])[H])C([H])([H])c2c([H])c(OC([H])([H])C([H])([H])C([H])(C3([H])C([H])([H])C([H])([H])C4([H])C([H])(C([H])(C([H])([H])C([H])([H])[H])C([H])([H])C([H])([H])N([H])C(=O)N5C([H])([H])C([H])([H])C([H])([H])C([H])(n6nc(-c7c([H])c([H])c(Oc8c([H])c([H])c(F)c([H])c8F)c([H])c7[H])c(C(=O)N([H])[H])c6N([H])[H])C5([H])[H])C([H])([H])C43[H])[N+]([H])([H])C([H])([H])[H])c([H])c([H])c2C1([H])[H]

$$$$
