0:0:0
     RDKit          3D

 94103  0  0  1  0  0  0  0  0999 V2000
  -30.4400  -18.9570   21.9520 C   0  0  0  0  0  0  0  0  0  0  0  0
  -31.2950  -19.2050   22.9600 C   0  0  0  0  0  2  0  0  0  0  0  0
  -29.9290  -17.8060   19.7670 C   0  0  0  0  0  2  0  0  0  0  0  0
  -28.2600  -19.5610   20.7430 C   0  0  0  0  0  2  0  0  0  0  0  0
  -30.2510  -17.5920   21.2750 C   0  0  0  0  0  3  0  0  0  0  0  0
  -29.5880  -20.0650   21.3240 C   0  0  0  0  0  3  0  0  0  0  0  0
  -29.1500  -19.1190   19.5710 C   0  0  0  0  0  3  0  0  0  0  0  0
  -30.0250  -20.2540   19.9320 N   0  0  1  0  0  4  0  0  0  0  0  0
  -31.0000  -20.0220   19.8140 H   0  0  0  0  0  0  0  0  0  0  0  0
  -31.3850  -16.5740   21.5230 C   0  0  0  0  0  2  0  0  0  0  0  0
  -31.4290  -14.2880   20.5390 C   0  0  0  0  0  0  0  0  0  0  0  0
  -31.0170  -12.1370   19.4130 C   0  0  0  0  0  2  0  0  0  0  0  0
  -30.1170  -12.3440   18.1780 C   0  0  0  0  0  2  0  0  0  0  0  0
  -28.6280  -12.3070   18.5700 C   0  0  0  0  0  2  0  0  0  0  0  0
  -28.3060  -13.2320   19.7720 C   0  0  0  0  0  3  0  0  0  0  0  0
  -29.3070  -12.9850   20.9230 C   0  0  0  0  0  2  0  0  0  0  0  0
  -30.6760  -13.1690   20.4000 N   0  0  0  0  0  0  0  0  0  0  0  0
  -32.5030  -14.4750   19.9590 O   0  0  0  0  0  0  0  0  0  0  0  0
  -30.8950  -15.2150   21.3360 N   0  0  0  0  0  0  0  0  0  0  0  0
  -30.0390  -14.9580   21.8040 H   0  0  0  0  0  0  0  0  0  0  0  0
  -25.9720  -14.0370   20.5100 C   0  0  0  0  0  0  0  0  0  0  0  0
  -24.8220  -13.3540   20.8050 C   0  0  0  0  0  0  0  0  0  0  0  0
  -25.1370  -11.9690   20.6590 C   0  0  0  0  0  0  0  0  0  0  0  0
  -26.9220  -13.0710   20.2120 N   0  0  0  0  0  0  0  0  0  0  0  0
  -26.4200  -11.8170   20.3560 N   0  0  0  0  0  0  0  0  0  0  0  0
  -24.2790  -10.7800   20.7320 C   0  0  0  0  0  0  0  0  0  0  0  0
  -24.6250   -9.6680   21.5320 C   0  0  0  0  0  3  0  0  0  0  0  0
  -23.7750   -8.5440   21.6010 C   0  0  0  0  0  3  0  0  0  0  0  0
  -22.5640   -8.5240   20.8680 C   0  0  0  0  0  0  0  0  0  0  0  0
  -22.2340   -9.6230   20.0570 C   0  0  0  0  0  3  0  0  0  0  0  0
  -23.0850  -10.7390   19.9850 C   0  0  0  0  0  3  0  0  0  0  0  0
  -21.6890   -7.4630   20.8550 O   0  0  0  0  0  0  0  0  0  0  0  0
  -21.5860   -6.6010   21.9160 C   0  0  0  0  0  0  0  0  0  0  0  0
  -21.3010   -7.0570   23.2210 C   0  0  0  0  0  3  0  0  0  0  0  0
  -21.1330   -6.1300   24.2690 C   0  0  0  0  0  3  0  0  0  0  0  0
  -21.2430   -4.7490   24.0140 C   0  0  0  0  0  0  0  0  0  0  0  0
  -21.5240   -4.2940   22.7130 C   0  0  0  0  0  3  0  0  0  0  0  0
  -21.6910   -5.2170   21.6670 C   0  0  0  0  0  0  0  0  0  0  0  0
  -21.9390   -4.7720   20.4110 F   0  0  0  0  0  0  0  0  0  0  0  0
  -21.0760   -3.8590   25.0190 F   0  0  0  0  0  0  0  0  0  0  0  0
  -23.4790  -13.9530   21.1120 C   0  0  0  0  0  0  0  0  0  0  0  0
  -22.6760  -13.2730   21.9230 N   0  0  0  0  0  0  0  0  0  0  0  0
  -23.1520  -15.0520   20.6680 O   0  0  0  0  0  0  0  0  0  0  0  0
  -22.9480  -12.3760   22.2970 H   0  0  0  0  0  0  0  0  0  0  0  0
  -21.7710  -13.6500   22.1710 H   0  0  0  0  0  0  0  0  0  0  0  0
  -26.2850  -15.3930   20.4480 N   0  0  0  0  0  0  0  0  0  0  0  0
  -25.5880  -16.1130   20.6060 H   0  0  0  0  0  0  0  0  0  0  0  0
  -27.1530  -15.7540   20.0760 H   0  0  0  0  0  0  0  0  0  0  0  0
  -29.7500  -21.5720   19.2950 C   0  0  0  0  0  2  0  0  0  0  0  0
  -30.3990  -22.7470   20.0580 C   0  0  0  0  0  2  0  0  0  0  0  0
  -29.5320  -24.0130   20.0140 C   0  0  0  0  0  2  0  0  0  0  0  0
  -30.0570  -25.1700   20.8800 C   0  0  0  0  0  2  0  0  0  0  0  0
  -31.0320  -26.1280   20.1580 C   0  0  0  0  0  2  0  0  0  0  0  0
  -30.7080  -27.4960   20.4300 O   0  0  0  0  0  0  0  0  0  0  0  0
  -25.3040  -30.9970   23.4110 C   0  0  0  0  0  0  0  0  0  0  0  0
  -29.3860  -27.8700   20.2990 C   0  0  0  0  0  0  0  0  0  0  0  0
  -24.7140  -29.5520   21.4910 C   0  0  0  0  0  3  0  0  0  0  0  0
  -26.6760  -28.6540   20.1380 C   0  0  0  0  0  0  0  0  0  0  0  0
  -27.0430  -30.5910   21.6760 C   0  0  0  0  0  2  0  0  0  0  0  0
  -27.5720  -29.3880   20.9270 C   0  0  0  0  0  0  0  0  0  0  0  0
  -28.9290  -29.0050   21.0030 C   0  0  0  0  0  3  0  0  0  0  0  0
  -28.4680  -27.1440   19.5030 C   0  0  0  0  0  3  0  0  0  0  0  0
  -27.1200  -27.5300   19.4230 C   0  0  0  0  0  3  0  0  0  0  0  0
  -25.2460  -29.1400   20.0940 C   0  0  0  0  0  2  0  0  0  0  0  0
  -25.6930  -30.3910   22.2540 N   0  0  0  0  0  0  0  0  0  0  0  0
  -24.1390  -30.9010   23.8230 O   0  0  0  0  0  0  0  0  0  0  0  0
  -24.2780  -28.2780   22.2510 C   0  0  0  0  0  0  0  0  0  0  0  0
  -23.0930  -27.7500   21.9040 N   0  0  0  0  0  0  0  0  0  0  0  0
  -25.0060  -27.7730   23.1110 O   0  0  0  0  0  0  0  0  0  0  0  0
  -22.5580  -28.2240   21.1900 H   0  0  0  0  0  0  0  0  0  0  0  0
  -20.1830  -25.6190   21.7650 C   0  0  0  0  0  0  0  0  0  0  0  0
  -22.4940  -26.5380   22.4600 C   0  0  0  0  0  3  0  0  0  0  0  0
  -23.0810  -25.2700   21.7990 C   0  0  0  0  0  2  0  0  0  0  0  0
  -22.2660  -24.7840   20.5970 C   0  0  0  0  0  2  0  0  0  0  0  0
  -20.8300  -24.4630   21.0210 C   0  0  0  0  0  2  0  0  0  0  0  0
  -20.9650  -26.6020   22.4260 C   0  0  0  0  0  0  0  0  0  0  0  0
  -20.3150  -27.6750   23.0720 C   0  0  0  0  0  3  0  0  0  0  0  0
  -18.9110  -27.7740   23.0640 C   0  0  0  0  0  3  0  0  0  0  0  0
  -18.1400  -26.7900   22.4170 C   0  0  0  0  0  3  0  0  0  0  0  0
  -18.7760  -25.7140   21.7750 C   0  0  0  0  0  3  0  0  0  0  0  0
  -26.2920  -31.8570   24.2590 C   0  0  0  0  0  3  0  0  0  0  0  0
  -25.6950  -33.1900   24.4150 N   0  0  0  0  0  0  0  0  0  0  0  0
  -26.0190  -34.2600   23.6750 C   0  0  0  0  0  0  0  0  0  0  0  0
  -26.9160  -34.2410   22.8300 O   0  0  0  0  0  0  0  0  0  0  0  0
  -24.9120  -33.2630   25.0480 H   0  0  0  0  0  0  0  0  0  0  0  0
  -24.1520  -35.7120   22.8190 C   0  0  0  0  0  1  0  0  0  0  0  0
  -25.2200  -35.5560   23.9130 C   0  0  0  0  0  3  0  0  0  0  0  0
  -26.9540  -36.8110   25.1160 C   0  0  0  0  0  1  0  0  0  0  0  0
  -26.0680  -36.7660   23.9560 N   0  0  0  0  0  0  0  0  0  0  0  0
  -25.4960  -37.6060   23.9620 H   0  0  0  0  0  0  0  0  0  0  0  0
  -26.6200  -31.2230   25.6660 C   0  0  1  0  0  0  0  0  0  0  0  0
  -25.3650  -30.8420   26.4850 C   0  0  0  0  0  1  0  0  0  0  0  0
  -27.4830  -29.9510   25.5000 C   0  0  0  0  0  1  0  0  0  0  0  0
  -27.4540  -32.2170   26.5070 C   0  0  0  0  0  1  0  0  0  0  0  0
  1  2  2  0
  3  5  1  0
  5 10  1  0
  5  1  1  0
  6  4  1  0
  6  1  1  0
  7  3  1  0
  7  8  1  0
  7  4  1  0
  8  6  1  0
  8  9  1  1
 11 19  1  0
 12 17  1  0
 13 14  1  0
 13 12  1  0
 15 14  1  0
 15 24  1  0
 15 16  1  0
 17 11  1  0
 17 16  1  0
 18 11  2  0
 19 10  1  0
 19 20  1  0
 21 22  2  0
 22 41  1  0
 23 26  1  0
 23 22  1  0
 24 25  1  0
 24 21  1  0
 25 23  2  0
 26 27  1  0
 27 28  2  0
 29 28  1  0
 30 29  2  0
 31 30  1  0
 31 26  2  0
 32 29  1  0
 32 33  1  0
 33 34  1  0
 34 35  2  0
 36 35  1  0
 36 40  1  0
 37 36  2  0
 38 33  2  0
 38 37  1  0
 39 38  1  0
 41 42  1  0
 42 45  1  0
 42 44  1  0
 43 41  2  0
 46 21  1  0
 46 47  1  0
 48 46  1  0
 49  8  1  0
 49 50  1  0
 51 50  1  0
 51 52  1  0
 53 54  1  0
 53 52  1  0
 55 66  2  0
 56 54  1  0
 56 61  1  0
 57 67  1  0
 57 65  1  0
 58 60  1  0
 59 65  1  0
 60 61  2  0
 60 59  1  0
 62 56  2  0
 63 62  1  0
 63 58  2  0
 64 58  1  0
 64 57  1  0
 65 55  1  0
 67 69  2  0
 68 67  1  0
 70 68  1  0
 71 80  2  0
 71 76  1  0
 72 68  1  0
 73 72  1  0
 74 75  1  0
 74 73  1  0
 75 71  1  0
 76 72  1  0
 76 77  2  0
 78 77  1  0
 79 78  2  0
 80 79  1  0
 81 55  1  0
 81 82  1  0
 81 91  1  0
 82 85  1  0
 83 87  1  0
 83 82  1  0
 84 83  2  0
 87 86  1  0
 87 89  1  0
 89 90  1  0
 89 88  1  0
 91 92  1  1
 91 94  1  0
 93 91  1  0
M  ISO  4  11 100  19 100  53 101  54 101
M  END
>  <TORSDO>  (1) 
F 22

>  <SCORE>  (1) 
-8.866

>  <name>  (1) 
0

>  <ligand_id>  (1) 
0

>  <original_smiles>  (1) 
[H]C([H])=C1C([H])(C([H])([H])N([H])C(=O)N2C([H])([H])C([H])([H])C([H])([H])C([H])(n3nc(-c4c([H])c([H])c(Oc5c([H])c([H])c(F)c([H])c5F)c([H])c4[H])c(C(=O)N([H])[H])c3N([H])[H])C2([H])[H])C([H])([H])C2([H])C([H])([H])C1([H])[N+]2([H])C([H])([H])C([H])([H])C([H])([H])C([H])([H])C([H])([H])Oc1c([H])c([H])c2c(c1[H])C([H])([H])N(C(=O)C([H])(N([H])C(=O)C([H])(N([H])C([H])([H])[H])C([H])([H])[H])C(C([H])([H])[H])(C([H])([H])[H])C([H])([H])[H])C([H])(C(=O)N([H])C1([H])c3c([H])c([H])c([H])c([H])c3C([H])([H])C([H])([H])C1([H])[H])C2([H])[H]

>  <smiles>  (1) 
[H]C([H])=C1C([H])(C([H])([H])N([H])C(=O)N2C([H])([H])C([H])([H])C([H])([H])C([H])(n3nc(-c4c([H])c([H])c(Oc5c([H])c([H])c(F)c([H])c5F)c([H])c4[H])c(C(=O)N([H])[H])c3N([H])[H])C2([H])[H])C([H])([H])C2([H])C([H])([H])C1([H])[N+]2([H])C([H])([H])C([H])([H])C([H])([H])C([H])([H])C([H])([H])Oc1c([H])c([H])c2c(c1[H])C([H])([H])N(C(=O)C([H])(N([H])C(=O)C([H])(N([H])C([H])([H])[H])C([H])([H])[H])C(C([H])([H])[H])(C([H])([H])[H])C([H])([H])[H])C([H])(C(=O)N([H])C1([H])c3c([H])c([H])c([H])c([H])c3C([H])([H])C([H])([H])C1([H])[H])C2([H])[H]

$$$$
1:0:0
     RDKit          3D

 94103  0  0  1  0  0  0  0  0999 V2000
  -29.9850  -19.9460   20.9300 C   0  0  0  0  0  0  0  0  0  0  0  0
  -30.2810  -18.5240   20.8830 C   0  0  0  0  0  0  0  0  0  0  0  0
  -29.7610  -21.0630   17.8580 C   0  0  0  0  0  2  0  0  0  0  0  0
  -29.3220  -22.5280   18.2330 C   0  0  0  0  0  2  0  0  0  0  0  0
  -29.5670  -18.4150   18.6350 C   0  0  0  0  0  2  0  0  0  0  0  0
  -29.0040  -20.9200   20.0650 C   0  0  0  0  0  3  0  0  0  0  0  0
  -29.0220  -20.0290   18.7430 C   0  0  0  0  0  3  0  0  0  0  0  0
  -29.1620  -22.7180   19.7680 C   0  0  0  0  0  3  0  0  0  0  0  0
  -29.7420  -17.3310   19.8760 C   0  0  1  0  0  0  0  0  0  0  0  0
  -30.5200  -15.6830   19.6010 C   0  0  0  0  0  0  0  0  0  0  0  0
  -30.5790  -13.1640   18.8120 C   0  0  0  0  0  2  0  0  0  0  0  0
  -29.5780  -12.8360   17.6670 C   0  0  0  0  0  2  0  0  0  0  0  0
  -28.1840  -12.4910   18.2200 C   0  0  0  0  0  2  0  0  0  0  0  0
  -27.7750  -13.4640   19.3500 C   0  0  0  0  0  3  0  0  0  0  0  0
  -28.9060  -13.6880   20.3800 C   0  0  0  0  0  2  0  0  0  0  0  0
  -30.0450  -14.3110   19.6610 N   0  0  0  0  0  0  0  0  0  0  0  0
  -31.6990  -15.6620   19.2080 O   0  0  0  0  0  0  0  0  0  0  0  0
  -25.4820  -13.9570   20.3570 C   0  0  0  0  0  0  0  0  0  0  0  0
  -24.4690  -13.1560   20.8000 C   0  0  0  0  0  0  0  0  0  0  0  0
  -24.9370  -11.8150   20.6540 C   0  0  0  0  0  0  0  0  0  0  0  0
  -26.5040  -13.1080   19.9710 N   0  0  0  0  0  0  0  0  0  0  0  0
  -26.1920  -11.8060   20.2120 N   0  0  0  0  0  0  0  0  0  0  0  0
  -24.2300  -10.5420   20.8480 C   0  0  0  0  0  0  0  0  0  0  0  0
  -24.6600   -9.5940   21.8020 C   0  0  0  0  0  3  0  0  0  0  0  0
  -23.9480   -8.3900   21.9820 C   0  0  0  0  0  3  0  0  0  0  0  0
  -22.7920   -8.1250   21.2100 C   0  0  0  0  0  0  0  0  0  0  0  0
  -22.3820   -9.0620   20.2460 C   0  0  0  0  0  3  0  0  0  0  0  0
  -23.0950  -10.2580   20.0620 C   0  0  0  0  0  3  0  0  0  0  0  0
  -22.0520   -6.9700   21.3000 O   0  0  0  0  0  0  0  0  0  0  0  0
  -21.8300   -6.3510   22.5050 C   0  0  0  0  0  0  0  0  0  0  0  0
  -21.1740   -7.0070   23.5690 C   0  0  0  0  0  3  0  0  0  0  0  0
  -20.9040   -6.3120   24.7650 C   0  0  0  0  0  3  0  0  0  0  0  0
  -21.2800   -4.9610   24.8940 C   0  0  0  0  0  0  0  0  0  0  0  0
  -21.9280   -4.3050   23.8330 C   0  0  0  0  0  3  0  0  0  0  0  0
  -22.2010   -4.9980   22.6410 C   0  0  0  0  0  0  0  0  0  0  0  0
  -22.8070   -4.3540   21.6140 F   0  0  0  0  0  0  0  0  0  0  0  0
  -21.0150   -4.2900   26.0400 F   0  0  0  0  0  0  0  0  0  0  0  0
  -23.1070  -13.6140   21.2340 C   0  0  0  0  0  0  0  0  0  0  0  0
  -22.4830  -12.8870   22.1520 N   0  0  0  0  0  0  0  0  0  0  0  0
  -22.6120  -14.6530   20.7960 O   0  0  0  0  0  0  0  0  0  0  0  0
  -22.8990  -12.0480   22.5250 H   0  0  0  0  0  0  0  0  0  0  0  0
  -21.5760  -13.1760   22.4910 H   0  0  0  0  0  0  0  0  0  0  0  0
  -25.5950  -15.3350   20.2200 N   0  0  0  0  0  0  0  0  0  0  0  0
  -24.8230  -15.9570   20.4290 H   0  0  0  0  0  0  0  0  0  0  0  0
  -26.3870  -15.8130   19.8140 H   0  0  0  0  0  0  0  0  0  0  0  0
  -30.6710  -20.7950   21.9270 C   0  0  0  0  0  0  0  0  0  0  0  0
  -29.8280  -21.4140   23.0330 C   0  0  0  0  0  1  0  0  0  0  0  0
  -31.8710  -21.0750   21.8690 O   0  0  0  0  0  0  0  0  0  0  0  0
  -30.5070  -17.5860   23.2430 C   0  0  0  0  0  1  0  0  0  0  0  0
  -31.2300  -17.9200   21.9300 C   0  0  0  0  0  2  0  0  0  0  0  0
  -27.1820  -17.9390   20.3970 C   0  0  0  0  0  1  0  0  0  0  0  0
  -28.3410  -16.9270   20.3980 C   0  0  0  0  0  2  0  0  0  0  0  0
  -28.1950  -24.2770   20.0900 C   0  0  0  0  0  2  0  0  0  0  0  0
  -28.3710  -25.9570   19.9570 O   0  0  0  0  0  0  0  0  0  0  0  0
  -24.7570  -31.9010   23.1470 C   0  0  0  0  0  0  0  0  0  0  0  0
  -27.3410  -27.0690   19.9840 C   0  0  0  0  0  0  0  0  0  0  0  0
  -23.5690  -30.5360   21.4830 C   0  0  0  0  0  3  0  0  0  0  0  0
  -25.0220  -28.9710   20.0100 C   0  0  0  0  0  0  0  0  0  0  0  0
  -26.1350  -30.7600   21.3250 C   0  0  0  0  0  2  0  0  0  0  0  0
  -26.2160  -29.3600   20.6320 C   0  0  0  0  0  0  0  0  0  0  0  0
  -27.3650  -28.4350   20.5880 C   0  0  0  0  0  3  0  0  0  0  0  0
  -26.1090  -26.8500   19.3240 C   0  0  0  0  0  3  0  0  0  0  0  0
  -24.9970  -27.7390   19.3350 C   0  0  0  0  0  3  0  0  0  0  0  0
  -23.7960  -29.8870   20.0890 C   0  0  0  0  0  2  0  0  0  0  0  0
  -24.8440  -31.0920   22.0390 N   0  0  0  0  0  0  0  0  0  0  0  0
  -23.6670  -32.1670   23.6810 O   0  0  0  0  0  0  0  0  0  0  0  0
  -22.8860  -29.5110   22.4280 C   0  0  0  0  0  0  0  0  0  0  0  0
  -21.5570  -29.3330   22.3050 N   0  0  0  0  0  0  0  0  0  0  0  0
  -23.5620  -28.8780   23.2430 O   0  0  0  0  0  0  0  0  0  0  0  0
  -21.0630  -29.8970   21.6300 H   0  0  0  0  0  0  0  0  0  0  0  0
  -18.1920  -28.0750   22.8230 C   0  0  0  0  0  0  0  0  0  0  0  0
  -20.7540  -28.3600   23.0550 C   0  0  0  0  0  3  0  0  0  0  0  0
  -20.8590  -26.9490   22.4290 C   0  0  0  0  0  2  0  0  0  0  0  0
  -19.7440  -26.6510   21.4220 C   0  0  0  0  0  2  0  0  0  0  0  0
  -18.3720  -26.7540   22.0940 C   0  0  0  0  0  2  0  0  0  0  0  0
  -19.3100  -28.8360   23.2600 C   0  0  0  0  0  0  0  0  0  0  0  0
  -19.0840  -30.0690   23.9090 C   0  0  0  0  0  3  0  0  0  0  0  0
  -17.7760  -30.5450   24.1190 C   0  0  0  0  0  3  0  0  0  0  0  0
  -16.6740  -29.7830   23.6930 C   0  0  0  0  0  3  0  0  0  0  0  0
  -16.8840  -28.5490   23.0530 C   0  0  0  0  0  3  0  0  0  0  0  0
  -26.0230  -32.5450   23.7910 C   0  0  0  0  0  3  0  0  0  0  0  0
  -26.5460  -31.7490   25.0520 C   0  0  1  0  0  0  0  0  0  0  0  0
  -25.4520  -31.4700   26.1100 C   0  0  0  0  0  1  0  0  0  0  0  0
  -27.1510  -30.3890   24.6370 C   0  0  0  0  0  1  0  0  0  0  0  0
  -27.6820  -32.5440   25.7370 C   0  0  0  0  0  1  0  0  0  0  0  0
  -25.6880  -33.9290   24.1720 N   0  0  0  0  0  0  0  0  0  0  0  0
  -25.9490  -35.0150   23.4340 C   0  0  0  0  0  0  0  0  0  0  0  0
  -26.5590  -34.9590   22.3630 O   0  0  0  0  0  0  0  0  0  0  0  0
  -25.1350  -34.0430   25.0090 H   0  0  0  0  0  0  0  0  0  0  0  0
  -24.1390  -36.7600   23.2750 C   0  0  0  0  0  1  0  0  0  0  0  0
  -25.4610  -36.3800   23.9630 C   0  0  0  0  0  3  0  0  0  0  0  0
  -27.6220  -37.3370   24.6310 C   0  0  0  0  0  1  0  0  0  0  0  0
  -26.4450  -37.4700   23.7800 N   0  0  0  0  0  0  0  0  0  0  0  0
  -26.0190  -38.3750   23.9670 H   0  0  0  0  0  0  0  0  0  0  0  0
  1 46  1  0
  2  1  2  0
  2 50  1  0
  3  4  1  0
  4  8  1  0
  5  7  1  0
  5  9  1  0
  6  1  1  0
  7  3  1  0
  7  6  1  0
  8  6  1  0
  8 53  1  0
  9 52  1  1
  9  2  1  0
 10 16  1  0
 10  9  1  0
 11 16  1  0
 12 13  1  0
 12 11  1  0
 14 13  1  0
 14 21  1  0
 14 15  1  0
 16 15  1  0
 17 10  2  0
 18 19  2  0
 19 38  1  0
 20 19  1  0
 20 23  1  0
 21 22  1  0
 21 18  1  0
 22 20  2  0
 23 24  1  0
 24 25  2  0
 26 29  1  0
 26 25  1  0
 27 26  2  0
 28 27  1  0
 28 23  2  0
 29 30  1  0
 30 35  2  0
 30 31  1  0
 31 32  2  0
 32 33  1  0
 33 37  1  0
 34 33  2  0
 35 34  1  0
 36 35  1  0
 38 39  1  0
 39 42  1  0
 39 41  1  0
 40 38  2  0
 43 18  1  0
 43 44  1  0
 45 43  1  0
 46 47  1  0
 48 46  2  0
 50 49  1  0
 51 52  1  0
 54 56  1  0
 54 53  1  0
 55 66  2  0
 56 61  1  0
 57 65  1  0
 57 67  1  0
 58 64  1  0
 58 60  1  0
 59 65  1  0
 60 59  1  0
 61 60  2  0
 62 63  1  0
 62 56  2  0
 63 58  2  0
 64 57  1  0
 65 55  1  0
 67 69  2  0
 68 67  1  0
 70 68  1  0
 71 80  2  0
 71 76  1  0
 72 68  1  0
 72 76  1  0
 73 72  1  0
 74 75  1  0
 74 73  1  0
 75 71  1  0
 76 77  2  0
 77 78  1  0
 79 78  2  0
 80 79  1  0
 81 55  1  0
 81 86  1  0
 81 82  1  0
 82 85  1  1
 82 83  1  0
 84 82  1  0
 86 89  1  0
 87 91  1  0
 87 86  1  0
 88 87  2  0
 91 90  1  0
 93 91  1  0
 93 94  1  0
 93 92  1  0
M  ISO  4   9 100  10 100  53 101  54 101
M  END
>  <TORSDO>  (2) 
F 20

>  <SCORE>  (2) 
-14.609

>  <name>  (2) 
1

>  <ligand_id>  (2) 
1

>  <original_smiles>  (2) 
[H]c1c([H])c([H])c2c(c1[H])C([H])([H])C([H])([H])C([H])([H])C2([H])N([H])C(=O)C1([H])N(C(=O)C([H])(N([H])C(=O)C([H])(N([H])C([H])([H])[H])C([H])([H])[H])C(C([H])([H])[H])(C([H])([H])[H])C([H])([H])[H])C([H])([H])c2c([H])c(OC([H])([H])C3([H])C([H])([H])C([H])([H])C4([H])C([H])([H])C(C(=O)N5C([H])([H])C([H])([H])C([H])([H])C([H])(n6nc(-c7c([H])c([H])c(Oc8c([H])c([H])c(F)c([H])c8F)c([H])c7[H])c(C(=O)N([H])[H])c6N([H])[H])C5([H])[H])(C([H])([H])C([H])([H])[H])C(C([H])([H])C([H])([H])[H])=C(C(=O)C([H])([H])[H])C34[H])c([H])c([H])c2C1([H])[H]

>  <smiles>  (2) 
[H]c1c([H])c([H])c2c(c1[H])C([H])([H])C([H])([H])C([H])([H])C2([H])N([H])C(=O)C1([H])N(C(=O)C([H])(N([H])C(=O)C([H])(N([H])C([H])([H])[H])C([H])([H])[H])C(C([H])([H])[H])(C([H])([H])[H])C([H])([H])[H])C([H])([H])c2c([H])c(OC([H])([H])C3([H])C([H])([H])C([H])([H])C4([H])C([H])([H])C(C(=O)N5C([H])([H])C([H])([H])C([H])([H])C([H])(n6nc(-c7c([H])c([H])c(Oc8c([H])c([H])c(F)c([H])c8F)c([H])c7[H])c(C(=O)N([H])[H])c6N([H])[H])C5([H])[H])(C([H])([H])C([H])([H])[H])C(C([H])([H])C([H])([H])[H])=C(C(=O)C([H])([H])[H])C34[H])c([H])c([H])c2C1([H])[H]

$$$$
2:0:0
     RDKit          3D

 88 95  0  0  1  0  0  0  0  0999 V2000
  -28.9900  -23.8360   20.1030 C   0  0  0  0  0  0  0  0  0  0  0  0
  -30.1980  -24.0970   20.1490 O   0  0  0  0  0  0  0  0  0  0  0  0
  -27.1700  -22.0380   19.5460 C   0  0  0  0  0  1  0  0  0  0  0  0
  -28.4920  -22.3280   20.2980 C   0  0  0  0  0  3  0  0  0  0  0  0
  -29.5030  -21.1030   20.0220 C   0  0  0  0  0  2  0  0  0  0  0  0
  -29.3090  -19.7420   20.8490 C   0  0  0  0  0  2  0  0  0  0  0  0
  -29.7310  -18.3290   20.2150 C   0  0  0  0  0  2  0  0  0  0  0  0
  -30.1470  -17.1360   21.1940 C   0  0  0  0  0  2  0  0  0  0  0  0
  -30.6310  -14.6500   20.4610 C   0  0  0  0  0  0  0  0  0  0  0  0
  -30.4190  -12.4210   19.3540 C   0  0  0  0  0  2  0  0  0  0  0  0
  -29.4820  -12.5660   18.1340 C   0  0  0  0  0  2  0  0  0  0  0  0
  -28.0040  -12.4170   18.5550 C   0  0  0  0  0  2  0  0  0  0  0  0
  -27.6470  -13.2720   19.8010 C   0  0  0  0  0  3  0  0  0  0  0  0
  -28.6970  -13.0930   20.9180 C   0  0  0  0  0  2  0  0  0  0  0  0
  -30.0080  -13.4350   20.3450 N   0  0  0  0  0  0  0  0  0  0  0  0
  -31.8050  -14.8070   20.1080 O   0  0  0  0  0  0  0  0  0  0  0  0
  -29.8340  -15.7040   20.8230 N   0  0  0  0  0  0  0  0  0  0  0  0
  -28.8770  -15.4350   20.9940 H   0  0  0  0  0  0  0  0  0  0  0  0
  -25.2490  -13.8840   20.4900 C   0  0  0  0  0  0  0  0  0  0  0  0
  -24.1780  -13.1170   20.8570 C   0  0  0  0  0  0  0  0  0  0  0  0
  -24.6350  -11.7630   20.8420 C   0  0  0  0  0  0  0  0  0  0  0  0
  -26.2940  -12.9990   20.2750 N   0  0  0  0  0  0  0  0  0  0  0  0
  -25.9270  -11.7190   20.5420 N   0  0  0  0  0  0  0  0  0  0  0  0
  -23.9000  -10.5080   21.0400 C   0  0  0  0  0  0  0  0  0  0  0  0
  -24.3320   -9.5350   21.9710 C   0  0  0  0  0  3  0  0  0  0  0  0
  -23.6000   -8.3430   22.1520 C   0  0  0  0  0  3  0  0  0  0  0  0
  -22.4230   -8.1100   21.4030 C   0  0  0  0  0  0  0  0  0  0  0  0
  -22.0080   -9.0710   20.4610 C   0  0  0  0  0  3  0  0  0  0  0  0
  -22.7410  -10.2560   20.2810 C   0  0  0  0  0  3  0  0  0  0  0  0
  -21.6640   -6.9680   21.4930 O   0  0  0  0  0  0  0  0  0  0  0  0
  -21.6330   -6.2160   22.6400 C   0  0  0  0  0  0  0  0  0  0  0  0
  -21.2470   -6.7660   23.8820 C   0  0  0  0  0  3  0  0  0  0  0  0
  -21.1630   -5.9410   25.0200 C   0  0  0  0  0  3  0  0  0  0  0  0
  -21.4520   -4.5670   24.9190 C   0  0  0  0  0  0  0  0  0  0  0  0
  -21.8290   -4.0160   23.6820 C   0  0  0  0  0  3  0  0  0  0  0  0
  -21.9170   -4.8380   22.5450 C   0  0  0  0  0  0  0  0  0  0  0  0
  -22.2610   -4.3000   21.3500 F   0  0  0  0  0  0  0  0  0  0  0  0
  -21.3630   -3.7720   26.0110 F   0  0  0  0  0  0  0  0  0  0  0  0
  -22.7790  -13.6000   21.1140 C   0  0  0  0  0  0  0  0  0  0  0  0
  -22.0460  -12.9150   21.9840 N   0  0  0  0  0  0  0  0  0  0  0  0
  -22.3480  -14.6210   20.5800 O   0  0  0  0  0  0  0  0  0  0  0  0
  -22.4070  -12.0840   22.4300 H   0  0  0  0  0  0  0  0  0  0  0  0
  -21.1060  -13.2190   22.2040 H   0  0  0  0  0  0  0  0  0  0  0  0
  -25.4180  -15.2520   20.2940 N   0  0  0  0  0  0  0  0  0  0  0  0
  -24.6440  -15.9020   20.3640 H   0  0  0  0  0  0  0  0  0  0  0  0
  -26.2590  -15.6720   19.9200 H   0  0  0  0  0  0  0  0  0  0  0  0
  -27.9400  -24.9950   19.8420 C   0  0  0  0  0  2  0  0  0  0  0  0
  -28.2810  -26.4190   20.1310 O   0  0  0  0  0  0  0  0  0  0  0  0
  -24.6300  -31.8790   23.2250 C   0  0  0  0  0  0  0  0  0  0  0  0
  -27.1890  -27.3110   20.1040 C   0  0  0  0  0  0  0  0  0  0  0  0
  -23.4070  -30.4870   21.6000 C   0  0  0  0  0  3  0  0  0  0  0  0
  -24.8370  -28.9510   20.1430 C   0  0  0  0  0  0  0  0  0  0  0  0
  -25.9510  -30.7900   21.3990 C   0  0  0  0  0  2  0  0  0  0  0  0
  -26.0170  -29.4160   20.7390 C   0  0  0  0  0  0  0  0  0  0  0  0
  -27.1940  -28.6050   20.7190 C   0  0  0  0  0  3  0  0  0  0  0  0
  -25.9800  -26.9180   19.4730 C   0  0  0  0  0  3  0  0  0  0  0  0
  -24.8230  -27.7070   19.5050 C   0  0  0  0  0  3  0  0  0  0  0  0
  -23.6040  -29.8250   20.2130 C   0  0  0  0  0  2  0  0  0  0  0  0
  -24.6820  -31.0680   22.1300 N   0  0  0  0  0  0  0  0  0  0  0  0
  -23.5520  -32.1580   23.7700 O   0  0  0  0  0  0  0  0  0  0  0  0
  -22.7530  -29.4640   22.5600 C   0  0  0  0  0  0  0  0  0  0  0  0
  -21.4270  -29.2840   22.4440 N   0  0  0  0  0  0  0  0  0  0  0  0
  -23.4400  -28.8380   23.3730 O   0  0  0  0  0  0  0  0  0  0  0  0
  -20.9320  -29.8350   21.7580 H   0  0  0  0  0  0  0  0  0  0  0  0
  -18.0590  -28.0750   22.9620 C   0  0  0  0  0  0  0  0  0  0  0  0
  -20.6160  -28.3460   23.2220 C   0  0  0  0  0  3  0  0  0  0  0  0
  -20.7240  -26.9140   22.6510 C   0  0  0  0  0  2  0  0  0  0  0  0
  -19.6200  -26.5820   21.6420 C   0  0  0  0  0  2  0  0  0  0  0  0
  -18.2400  -26.7240   22.2900 C   0  0  0  0  0  2  0  0  0  0  0  0
  -19.1760  -28.8430   23.3840 C   0  0  0  0  0  0  0  0  0  0  0  0
  -18.9540  -30.1090   23.9700 C   0  0  0  0  0  3  0  0  0  0  0  0
  -17.6470  -30.6050   24.1420 C   0  0  0  0  0  3  0  0  0  0  0  0
  -16.5450  -29.8330   23.7360 C   0  0  0  0  0  3  0  0  0  0  0  0
  -16.7520  -28.5700   23.1510 C   0  0  0  0  0  3  0  0  0  0  0  0
  -25.9180  -32.5110   23.8320 C   0  0  0  0  0  3  0  0  0  0  0  0
  -26.4510  -31.7330   25.0970 C   0  0  1  0  0  0  0  0  0  0  0  0
  -25.3700  -31.4910   26.1760 C   0  0  0  0  0  1  0  0  0  0  0  0
  -27.0310  -30.3570   24.6950 C   0  0  0  0  0  1  0  0  0  0  0  0
  -27.6070  -32.5250   25.7490 C   0  0  0  0  0  1  0  0  0  0  0  0
  -25.6070  -33.9060   24.1750 N   0  0  0  0  0  0  0  0  0  0  0  0
  -25.9260  -34.9660   23.4200 C   0  0  0  0  0  0  0  0  0  0  0  0
  -26.5800  -34.8730   22.3780 O   0  0  0  0  0  0  0  0  0  0  0  0
  -25.0220  -34.0510   24.9840 H   0  0  0  0  0  0  0  0  0  0  0  0
  -24.1830  -36.7560   23.1110 C   0  0  0  0  0  1  0  0  0  0  0  0
  -25.4410  -36.3500   23.8970 C   0  0  0  0  0  3  0  0  0  0  0  0
  -27.5870  -37.2380   24.6930 C   0  0  0  0  0  1  0  0  0  0  0  0
  -26.4660  -37.4070   23.7720 N   0  0  0  0  0  0  0  0  0  0  0  0
  -26.0610  -38.3260   23.9310 H   0  0  0  0  0  0  0  0  0  0  0  0
  1  2  2  0
  1  4  1  0
  4  3  1  0
  5  4  1  0
  5  6  1  0
  7  6  1  0
  7  8  1  0
  9 17  1  0
 10 15  1  0
 11 12  1  0
 11 10  1  0
 13 12  1  0
 13 22  1  0
 13 14  1  0
 15  9  1  0
 15 14  1  0
 16  9  2  0
 17 18  1  0
 17  8  1  0
 19 20  2  0
 20 39  1  0
 21 20  1  0
 21 24  1  0
 22 19  1  0
 22 23  1  0
 23 21  2  0
 24 25  1  0
 25 26  2  0
 27 30  1  0
 27 26  1  0
 28 27  2  0
 29 28  1  0
 29 24  2  0
 30 31  1  0
 31 32  1  0
 32 33  2  0
 34 33  1  0
 34 38  1  0
 35 34  2  0
 36 31  2  0
 36 35  1  0
 37 36  1  0
 39 40  1  0
 40 43  1  0
 40 42  1  0
 41 39  2  0
 44 45  1  0
 44 19  1  0
 46 44  1  0
 47  1  1  0
 47 48  1  0
 49 60  2  0
 50 48  1  0
 50 55  1  0
 51 59  1  0
 51 61  1  0
 52 58  1  0
 52 54  1  0
 53 59  1  0
 54 53  1  0
 55 54  2  0
 56 57  1  0
 56 50  2  0
 57 52  2  0
 58 51  1  0
 59 49  1  0
 61 63  2  0
 62 61  1  0
 64 62  1  0
 65 74  2  0
 65 70  1  0
 66 62  1  0
 66 70  1  0
 67 66  1  0
 68 69  1  0
 68 67  1  0
 69 65  1  0
 70 71  2  0
 71 72  1  0
 73 72  2  0
 74 73  1  0
 75 49  1  0
 75 80  1  0
 75 76  1  0
 76 79  1  1
 76 77  1  0
 78 76  1  0
 80 83  1  0
 81 85  1  0
 81 80  1  0
 82 81  2  0
 85 84  1  0
 87 85  1  0
 87 88  1  0
 87 86  1  0
M  ISO  4   9 100  17 100  47 101  48 101
M  END
>  <TORSDO>  (3) 
F 22

>  <SCORE>  (3) 
-12.928

>  <name>  (3) 
2

>  <ligand_id>  (3) 
2

>  <original_smiles>  (3) 
[H]c1c([H])c([H])c2c(c1[H])C([H])([H])C([H])([H])C([H])([H])C2([H])N([H])C(=O)C1([H])N(C(=O)C([H])(N([H])C(=O)C([H])(N([H])C([H])([H])[H])C([H])([H])[H])C(C([H])([H])[H])(C([H])([H])[H])C([H])([H])[H])C([H])([H])c2c([H])c(OC([H])([H])C(=O)C([H])(C([H])([H])[H])C([H])([H])C([H])([H])C([H])([H])C([H])([H])N([H])C(=O)N3C([H])([H])C([H])([H])C([H])([H])C([H])(n4nc(-c5c([H])c([H])c(Oc6c([H])c([H])c(F)c([H])c6F)c([H])c5[H])c(C(=O)N([H])[H])c4N([H])[H])C3([H])[H])c([H])c([H])c2C1([H])[H]

>  <smiles>  (3) 
[H]c1c([H])c([H])c2c(c1[H])C([H])([H])C([H])([H])C([H])([H])C2([H])N([H])C(=O)C1([H])N(C(=O)C([H])(N([H])C(=O)C([H])(N([H])C([H])([H])[H])C([H])([H])[H])C(C([H])([H])[H])(C([H])([H])[H])C([H])([H])[H])C([H])([H])c2c([H])c(OC([H])([H])C(=O)C([H])(C([H])([H])[H])C([H])([H])C([H])([H])C([H])([H])C([H])([H])N([H])C(=O)N3C([H])([H])C([H])([H])C([H])([H])C([H])(n4nc(-c5c([H])c([H])c(Oc6c([H])c([H])c(F)c([H])c6F)c([H])c5[H])c(C(=O)N([H])[H])c4N([H])[H])C3([H])[H])c([H])c([H])c2C1([H])[H]

$$$$
3:0:0
     RDKit          3D

 90 99  0  0  1  0  0  0  0  0999 V2000
  -28.5010  -19.8310   19.6960 C   0  0  0  0  0  3  0  0  0  0  0  0
  -29.9130  -17.6160   20.4130 C   0  0  0  0  0  0  0  0  0  0  0  0
  -28.8520  -18.3450   19.6580 C   0  0  0  0  0  0  0  0  0  0  0  0
  -29.1620  -20.9410   20.4080 C   0  0  0  0  0  0  0  0  0  0  0  0
  -30.5460  -18.7990   21.0570 C   0  0  0  0  0  0  0  0  0  0  0  0
  -31.8160  -18.5430   21.8440 C   0  0  0  0  0  1  0  0  0  0  0  0
  -30.2010  -20.2180   21.0610 N   0  0  0  0  0  0  0  0  0  0  0  0
  -30.5170  -15.9560   20.3430 C   0  0  0  0  0  0  0  0  0  0  0  0
  -30.5740  -13.4200   19.5650 C   0  0  0  0  0  2  0  0  0  0  0  0
  -29.7240  -13.0420   18.3220 C   0  0  0  0  0  2  0  0  0  0  0  0
  -28.2920  -12.6800   18.7420 C   0  0  0  0  0  2  0  0  0  0  0  0
  -27.7450  -13.6880   19.7760 C   0  0  0  0  0  3  0  0  0  0  0  0
  -28.7340  -14.0460   20.9070 C   0  0  0  0  0  2  0  0  0  0  0  0
  -29.9500  -14.6160   20.2880 N   0  0  0  0  0  0  0  0  0  0  0  0
  -31.7480  -15.8300   20.2210 O   0  0  0  0  0  0  0  0  0  0  0  0
  -25.3650  -14.2160   20.4840 C   0  0  0  0  0  0  0  0  0  0  0  0
  -24.3030  -13.4280   20.8240 C   0  0  0  0  0  0  0  0  0  0  0  0
  -24.7870  -12.0830   20.8150 C   0  0  0  0  0  0  0  0  0  0  0  0
  -26.4210  -13.3490   20.2710 N   0  0  0  0  0  0  0  0  0  0  0  0
  -26.0860  -12.0600   20.5400 N   0  0  0  0  0  0  0  0  0  0  0  0
  -24.0690  -10.8150   20.9920 C   0  0  0  0  0  0  0  0  0  0  0  0
  -24.4650   -9.8690   21.9640 C   0  0  0  0  0  3  0  0  0  0  0  0
  -23.7420   -8.6680   22.1280 C   0  0  0  0  0  3  0  0  0  0  0  0
  -22.6100   -8.4040   21.3210 C   0  0  0  0  0  0  0  0  0  0  0  0
  -22.2330   -9.3390   20.3420 C   0  0  0  0  0  3  0  0  0  0  0  0
  -22.9560  -10.5310   20.1750 C   0  0  0  0  0  3  0  0  0  0  0  0
  -21.8630   -7.2520   21.3930 O   0  0  0  0  0  0  0  0  0  0  0  0
  -21.7420   -6.5450   22.5620 C   0  0  0  0  0  0  0  0  0  0  0  0
  -21.1820   -7.1180   23.7260 C   0  0  0  0  0  3  0  0  0  0  0  0
  -21.0120   -6.3340   24.8840 C   0  0  0  0  0  3  0  0  0  0  0  0
  -21.3910   -4.9780   24.8790 C   0  0  0  0  0  0  0  0  0  0  0  0
  -21.9440   -4.4040   23.7220 C   0  0  0  0  0  3  0  0  0  0  0  0
  -22.1160   -5.1870   22.5660 C   0  0  0  0  0  0  0  0  0  0  0  0
  -22.6290   -4.6230   21.4440 F   0  0  0  0  0  0  0  0  0  0  0  0
  -21.2210   -4.2220   25.9900 F   0  0  0  0  0  0  0  0  0  0  0  0
  -22.8930  -13.8930   21.0410 C   0  0  0  0  0  0  0  0  0  0  0  0
  -22.1450  -13.2000   21.8920 N   0  0  0  0  0  0  0  0  0  0  0  0
  -22.4630  -14.9060   20.4930 O   0  0  0  0  0  0  0  0  0  0  0  0
  -22.5080  -12.3850   22.3650 H   0  0  0  0  0  0  0  0  0  0  0  0
  -21.1960  -13.4910   22.0770 H   0  0  0  0  0  0  0  0  0  0  0  0
  -25.5190  -15.5880   20.3110 N   0  0  0  0  0  0  0  0  0  0  0  0
  -24.7460  -16.2340   20.4260 H   0  0  0  0  0  0  0  0  0  0  0  0
  -26.3880  -16.0450   20.0740 H   0  0  0  0  0  0  0  0  0  0  0  0
  -27.9290  -22.7080   22.0830 C   0  0  0  0  0  2  0  0  0  0  0  0
  -29.3670  -23.0960   22.1580 C   0  0  0  0  0  2  0  0  0  0  0  0
  -28.7630  -22.7180   20.8110 C   0  0  1  0  0  0  0  0  0  0  0  0
  -28.3470  -24.3090   19.9420 C   0  0  0  0  0  2  0  0  0  0  0  0
  -28.3110  -26.0030   20.3070 O   0  0  0  0  0  0  0  0  0  0  0  0
  -24.6380  -32.0340   23.3060 C   0  0  0  0  0  0  0  0  0  0  0  0
  -27.2990  -27.1500   20.2100 C   0  0  0  0  0  0  0  0  0  0  0  0
  -23.4890  -30.6580   21.6210 C   0  0  0  0  0  3  0  0  0  0  0  0
  -24.9820  -29.0870   20.1780 C   0  0  0  0  0  0  0  0  0  0  0  0
  -26.0600  -30.8740   21.5220 C   0  0  0  0  0  2  0  0  0  0  0  0
  -26.1580  -29.4660   20.8310 C   0  0  0  0  0  0  0  0  0  0  0  0
  -27.3000  -28.5230   20.8230 C   0  0  0  0  0  3  0  0  0  0  0  0
  -26.0900  -26.9610   19.4960 C   0  0  0  0  0  3  0  0  0  0  0  0
  -24.9810  -27.8590   19.4860 C   0  0  0  0  0  3  0  0  0  0  0  0
  -23.7520  -30.0040   20.2320 C   0  0  0  0  0  2  0  0  0  0  0  0
  -24.7510  -31.2180   22.2040 N   0  0  0  0  0  0  0  0  0  0  0  0
  -23.5360  -32.2970   23.8180 O   0  0  0  0  0  0  0  0  0  0  0  0
  -22.7900  -29.6370   22.5590 C   0  0  0  0  0  0  0  0  0  0  0  0
  -21.4630  -29.4570   22.4180 N   0  0  0  0  0  0  0  0  0  0  0  0
  -23.4520  -29.0070   23.3860 O   0  0  0  0  0  0  0  0  0  0  0  0
  -20.9770  -30.0180   21.7310 H   0  0  0  0  0  0  0  0  0  0  0  0
  -18.0960  -28.1750   22.8700 C   0  0  0  0  0  0  0  0  0  0  0  0
  -20.6490  -28.4860   23.1590 C   0  0  0  0  0  3  0  0  0  0  0  0
  -20.7810  -27.0700   22.5510 C   0  0  0  0  0  2  0  0  0  0  0  0
  -19.6940  -26.7520   21.5190 C   0  0  0  0  0  2  0  0  0  0  0  0
  -18.3050  -26.8500   22.1550 C   0  0  0  0  0  2  0  0  0  0  0  0
  -19.1960  -28.9490   23.3290 C   0  0  0  0  0  0  0  0  0  0  0  0
  -18.9420  -30.1860   23.9610 C   0  0  0  0  0  3  0  0  0  0  0  0
  -17.6250  -30.6500   24.1370 C   0  0  0  0  0  3  0  0  0  0  0  0
  -16.5400  -29.8720   23.6930 C   0  0  0  0  0  3  0  0  0  0  0  0
  -16.7780  -28.6360   23.0660 C   0  0  0  0  0  3  0  0  0  0  0  0
  -25.8860  -32.6910   23.9720 C   0  0  0  0  0  3  0  0  0  0  0  0
  -26.3820  -31.9110   25.2530 C   0  0  1  0  0  0  0  0  0  0  0  0
  -25.2680  -31.6490   26.2950 C   0  0  0  0  0  1  0  0  0  0  0  0
  -26.9930  -30.5440   24.8700 C   0  0  0  0  0  1  0  0  0  0  0  0
  -27.5080  -32.7120   25.9520 C   0  0  0  0  0  1  0  0  0  0  0  0
  -25.5370  -34.0780   24.3350 N   0  0  0  0  0  0  0  0  0  0  0  0
  -25.8940  -35.1690   23.6440 C   0  0  0  0  0  0  0  0  0  0  0  0
  -26.6130  -35.1140   22.6440 O   0  0  0  0  0  0  0  0  0  0  0  0
  -24.9040  -34.1910   25.1130 H   0  0  0  0  0  0  0  0  0  0  0  0
  -24.2010  -36.9960   23.2660 C   0  0  0  0  0  1  0  0  0  0  0  0
  -25.3800  -36.5360   24.1410 C   0  0  0  0  0  3  0  0  0  0  0  0
  -27.4470  -37.3760   25.1740 C   0  0  0  0  0  1  0  0  0  0  0  0
  -26.4200  -37.5880   24.1570 N   0  0  0  0  0  0  0  0  0  0  0  0
  -26.0060  -38.5040   24.3140 H   0  0  0  0  0  0  0  0  0  0  0  0
  -28.7340  -17.4620   17.2860 C   0  0  0  0  0  1  0  0  0  0  0  0
  -28.0490  -17.5360   18.6580 C   0  0  0  0  0  2  0  0  0  0  0  0
  1  4  1  0
  2  5  2  0
  3  1  2  0
  3  2  1  0
  4 46  1  0
  4  7  2  0
  5  7  1  0
  5  6  1  0
  8  2  1  0
  9 14  1  0
 10 11  1  0
 10  9  1  0
 12 11  1  0
 12 19  1  0
 12 13  1  0
 14  8  1  0
 14 13  1  0
 15  8  2  0
 16 17  2  0
 17 36  1  0
 18 17  1  0
 18 21  1  0
 19 16  1  0
 19 20  1  0
 20 18  2  0
 21 22  1  0
 22 23  2  0
 24 27  1  0
 24 23  1  0
 25 24  2  0
 26 25  1  0
 26 21  2  0
 27 28  1  0
 28 33  2  0
 28 29  1  0
 29 30  2  0
 31 30  1  0
 31 35  1  0
 32 31  2  0
 33 32  1  0
 34 33  1  0
 36 37  1  0
 37 40  1  0
 37 39  1  0
 38 36  2  0
 41 42  1  0
 41 16  1  0
 43 41  1  0
 44 45  1  0
 46 44  1  0
 46 45  1  0
 47 48  1  0
 46 47  1  6
 49 60  2  0
 50 48  1  0
 50 55  1  0
 51 59  1  0
 51 61  1  0
 52 58  1  0
 52 54  1  0
 53 59  1  0
 54 53  1  0
 55 54  2  0
 56 50  2  0
 57 56  1  0
 57 52  2  0
 58 51  1  0
 59 49  1  0
 61 63  2  0
 62 61  1  0
 64 62  1  0
 65 74  2  0
 65 70  1  0
 66 62  1  0
 66 70  1  0
 67 66  1  0
 68 69  1  0
 68 67  1  0
 69 65  1  0
 70 71  2  0
 71 72  1  0
 73 72  2  0
 74 73  1  0
 75 49  1  0
 75 80  1  0
 75 76  1  0
 76 79  1  1
 76 77  1  0
 78 76  1  0
 80 83  1  0
 81 85  1  0
 81 80  1  0
 82 81  2  0
 85 84  1  0
 85 87  1  0
 87 88  1  0
 87 86  1  0
 89 90  1  0
 90  3  1  0
M  ISO  4   2 100   8 100  47 101  48 101
M  END
>  <TORSDO>  (4) 
F 19

>  <SCORE>  (4) 
-15.138

>  <name>  (4) 
3

>  <ligand_id>  (4) 
3

>  <original_smiles>  (4) 
[H]c1c([H])c([H])c2c(c1[H])C([H])([H])C([H])([H])C([H])([H])C2([H])N([H])C(=O)C1([H])N(C(=O)C([H])(N([H])C(=O)C([H])(N([H])C([H])([H])[H])C([H])([H])[H])C(C([H])([H])[H])(C([H])([H])[H])C([H])([H])[H])C([H])([H])c2c([H])c(OC([H])([H])C3(c4nc(C([H])([H])[H])c(C(=O)N5C([H])([H])C([H])([H])C([H])([H])C([H])(n6nc(-c7c([H])c([H])c(Oc8c([H])c([H])c(F)c([H])c8F)c([H])c7[H])c(C(=O)N([H])[H])c6N([H])[H])C5([H])[H])c(C([H])([H])C([H])([H])[H])c4[H])C([H])([H])C3([H])[H])c([H])c([H])c2C1([H])[H]

>  <smiles>  (4) 
[H]c1c([H])c([H])c2c(c1[H])C([H])([H])C([H])([H])C([H])([H])C2([H])N([H])C(=O)C1([H])N(C(=O)C([H])(N([H])C(=O)C([H])(N([H])C([H])([H])[H])C([H])([H])[H])C(C([H])([H])[H])(C([H])([H])[H])C([H])([H])[H])C([H])([H])c2c([H])c(OC([H])([H])C3(c4nc(C([H])([H])[H])c(C(=O)N5C([H])([H])C([H])([H])C([H])([H])C([H])(n6nc(-c7c([H])c([H])c(Oc8c([H])c([H])c(F)c([H])c8F)c([H])c7[H])c(C(=O)N([H])[H])c6N([H])[H])C5([H])[H])c(C([H])([H])C([H])([H])[H])c4[H])C([H])([H])C3([H])[H])c([H])c([H])c2C1([H])[H]

$$$$
4:0:0
     RDKit          3D

 89 98  0  0  1  0  0  0  0  0999 V2000
  -29.2420  -21.6000   21.4270 C   0  0  0  0  0  2  0  0  0  0  0  0
  -28.2620  -21.7080   19.2610 C   0  0  0  0  0  2  0  0  0  0  0  0
  -28.4430  -22.8970   21.3610 C   0  0  0  0  0  3  0  0  0  0  0  0
  -27.8330  -22.9850   19.9890 C   0  0  0  0  0  3  0  0  0  0  0  0
  -28.6320  -20.6820   20.3560 C   0  0  0  0  0  3  0  0  0  0  0  0
  -28.7500  -24.1050   20.4790 C   0  0  0  0  0  3  0  0  0  0  0  0
  -29.5060  -19.4680   19.9010 C   0  0  0  0  0  2  0  0  0  0  0  0
  -29.2600  -18.1120   20.6410 C   0  0  0  0  0  2  0  0  0  0  0  0
  -30.2150  -16.9710   20.1730 C   0  0  0  0  0  2  0  0  0  0  0  0
  -30.6400  -14.5220   20.3880 C   0  0  0  0  0  0  0  0  0  0  0  0
  -30.3510  -12.3250   19.3170 C   0  0  0  0  0  2  0  0  0  0  0  0
  -29.4180  -12.5280   18.1050 C   0  0  0  0  0  2  0  0  0  0  0  0
  -27.9430  -12.3920   18.5330 C   0  0  0  0  0  2  0  0  0  0  0  0
  -27.6020  -13.2450   19.7870 C   0  0  0  0  0  3  0  0  0  0  0  0
  -28.6600  -13.0520   20.9000 C   0  0  0  0  0  2  0  0  0  0  0  0
  -29.9820  -13.3340   20.3240 N   0  0  0  0  0  0  0  0  0  0  0  0
  -31.8020  -14.6600   19.9960 O   0  0  0  0  0  0  0  0  0  0  0  0
  -29.8740  -15.6080   20.6390 N   0  0  0  0  0  0  0  0  0  0  0  0
  -28.9240  -15.4310   20.9300 H   0  0  0  0  0  0  0  0  0  0  0  0
  -25.2050  -13.8550   20.4950 C   0  0  0  0  0  0  0  0  0  0  0  0
  -24.1380  -13.0830   20.8720 C   0  0  0  0  0  0  0  0  0  0  0  0
  -24.6020  -11.7310   20.8520 C   0  0  0  0  0  0  0  0  0  0  0  0
  -26.2500  -12.9730   20.2720 N   0  0  0  0  0  0  0  0  0  0  0  0
  -25.8910  -11.6930   20.5450 N   0  0  0  0  0  0  0  0  0  0  0  0
  -23.8780  -10.4690   21.0490 C   0  0  0  0  0  0  0  0  0  0  0  0
  -24.3220   -9.4990   21.9740 C   0  0  0  0  0  3  0  0  0  0  0  0
  -23.5950   -8.3030   22.1580 C   0  0  0  0  0  3  0  0  0  0  0  0
  -22.4130   -8.0680   21.4160 C   0  0  0  0  0  0  0  0  0  0  0  0
  -21.9910   -9.0260   20.4790 C   0  0  0  0  0  3  0  0  0  0  0  0
  -22.7160  -10.2140   20.2930 C   0  0  0  0  0  3  0  0  0  0  0  0
  -21.6600   -6.9230   21.5100 O   0  0  0  0  0  0  0  0  0  0  0  0
  -21.6360   -6.1670   22.6550 C   0  0  0  0  0  0  0  0  0  0  0  0
  -21.2540   -6.7110   23.8990 C   0  0  0  0  0  3  0  0  0  0  0  0
  -21.1800   -5.8820   25.0350 C   0  0  0  0  0  3  0  0  0  0  0  0
  -21.4780   -4.5110   24.9300 C   0  0  0  0  0  0  0  0  0  0  0  0
  -21.8570   -3.9680   23.6900 C   0  0  0  0  0  3  0  0  0  0  0  0
  -21.9330   -4.7930   22.5550 C   0  0  0  0  0  0  0  0  0  0  0  0
  -22.2750   -4.2590   21.3580 F   0  0  0  0  0  0  0  0  0  0  0  0
  -21.3970   -3.7130   26.0190 F   0  0  0  0  0  0  0  0  0  0  0  0
  -22.7410  -13.5610   21.1360 C   0  0  0  0  0  0  0  0  0  0  0  0
  -22.0140  -12.8700   22.0050 N   0  0  0  0  0  0  0  0  0  0  0  0
  -22.3030  -14.5830   20.6060 O   0  0  0  0  0  0  0  0  0  0  0  0
  -22.3840  -12.0470   22.4580 H   0  0  0  0  0  0  0  0  0  0  0  0
  -21.0790  -13.1730   22.2380 H   0  0  0  0  0  0  0  0  0  0  0  0
  -25.3670  -15.2230   20.3030 N   0  0  0  0  0  0  0  0  0  0  0  0
  -26.1990  -15.6540   19.9210 H   0  0  0  0  0  0  0  0  0  0  0  0
  -24.5860  -15.8680   20.3720 H   0  0  0  0  0  0  0  0  0  0  0  0
  -28.2480  -25.4620   21.0250 C   0  0  0  0  0  2  0  0  0  0  0  0
  -28.3710  -26.6320   20.1820 O   0  0  0  0  0  0  0  0  0  0  0  0
  -24.5980  -31.8900   23.2470 C   0  0  0  0  0  0  0  0  0  0  0  0
  -27.2400  -27.4260   20.1710 C   0  0  0  0  0  0  0  0  0  0  0  0
  -23.3940  -30.4800   21.6090 C   0  0  0  0  0  3  0  0  0  0  0  0
  -24.8500  -28.9430   20.1830 C   0  0  0  0  0  0  0  0  0  0  0  0
  -25.9220  -30.8400   21.4090 C   0  0  0  0  0  2  0  0  0  0  0  0
  -26.0110  -29.4670   20.7680 C   0  0  0  0  0  0  0  0  0  0  0  0
  -27.2140  -28.7170   20.7550 C   0  0  0  0  0  3  0  0  0  0  0  0
  -26.0650  -26.9240   19.5770 C   0  0  0  0  0  3  0  0  0  0  0  0
  -24.8730  -27.6730   19.5840 C   0  0  0  0  0  3  0  0  0  0  0  0
  -23.6030  -29.7970   20.2310 C   0  0  0  0  0  2  0  0  0  0  0  0
  -24.6550  -31.0850   22.1460 N   0  0  0  0  0  0  0  0  0  0  0  0
  -23.5150  -32.1620   23.7850 O   0  0  0  0  0  0  0  0  0  0  0  0
  -22.7440  -29.4620   22.5740 C   0  0  0  0  0  0  0  0  0  0  0  0
  -21.4180  -29.2790   22.4490 N   0  0  0  0  0  0  0  0  0  0  0  0
  -23.4280  -28.8400   23.3910 O   0  0  0  0  0  0  0  0  0  0  0  0
  -20.9280  -29.8320   21.7580 H   0  0  0  0  0  0  0  0  0  0  0  0
  -18.0470  -28.0730   22.9420 C   0  0  0  0  0  0  0  0  0  0  0  0
  -20.6030  -28.3420   23.2210 C   0  0  0  0  0  3  0  0  0  0  0  0
  -20.7150  -26.9090   22.6530 C   0  0  0  0  0  2  0  0  0  0  0  0
  -19.6170  -26.5760   21.6380 C   0  0  0  0  0  2  0  0  0  0  0  0
  -18.2320  -26.7190   22.2760 C   0  0  0  0  0  2  0  0  0  0  0  0
  -19.1600  -28.8410   23.3710 C   0  0  0  0  0  0  0  0  0  0  0  0
  -18.9340  -30.1070   23.9560 C   0  0  0  0  0  3  0  0  0  0  0  0
  -17.6270  -30.6040   24.1130 C   0  0  0  0  0  3  0  0  0  0  0  0
  -16.5280  -29.8330   23.7000 C   0  0  0  0  0  3  0  0  0  0  0  0
  -16.7380  -28.5670   23.1220 C   0  0  0  0  0  3  0  0  0  0  0  0
  -25.8810  -32.5260   23.8650 C   0  0  0  0  0  3  0  0  0  0  0  0
  -26.4070  -31.7560   25.1380 C   0  0  1  0  0  0  0  0  0  0  0  0
  -25.3200  -31.5160   26.2120 C   0  0  0  0  0  1  0  0  0  0  0  0
  -26.9920  -30.3800   24.7430 C   0  0  0  0  0  1  0  0  0  0  0  0
  -27.5590  -32.5550   25.7930 C   0  0  0  0  0  1  0  0  0  0  0  0
  -25.5720  -33.9240   24.1930 N   0  0  0  0  0  0  0  0  0  0  0  0
  -25.9040  -34.9760   23.4320 C   0  0  0  0  0  0  0  0  0  0  0  0
  -26.5720  -34.8710   22.4010 O   0  0  0  0  0  0  0  0  0  0  0  0
  -24.9820  -34.0810   24.9980 H   0  0  0  0  0  0  0  0  0  0  0  0
  -24.1730  -36.7630   23.0740 C   0  0  0  0  0  1  0  0  0  0  0  0
  -25.4150  -36.3640   23.8860 C   0  0  0  0  0  3  0  0  0  0  0  0
  -27.5500  -37.2510   24.7140 C   0  0  0  0  0  1  0  0  0  0  0  0
  -26.4470  -37.4180   23.7700 N   0  0  0  0  0  0  0  0  0  0  0  0
  -26.0410  -38.3380   23.9170 H   0  0  0  0  0  0  0  0  0  0  0  0
  2  5  1  0
  3  1  1  0
  4  2  1  0
  4  6  1  0
  4  3  1  0
  5  7  1  0
  5  1  1  0
  6 48  1  0
  6  3  1  0
  7  8  1  0
  9 18  1  0
  9  8  1  0
 10 18  1  0
 11 16  1  0
 12 13  1  0
 12 11  1  0
 14 13  1  0
 14 23  1  0
 14 15  1  0
 16 10  1  0
 16 15  1  0
 17 10  2  0
 18 19  1  0
 20 21  2  0
 21 40  1  0
 22 21  1  0
 22 25  1  0
 23 20  1  0
 23 24  1  0
 24 22  2  0
 25 26  1  0
 26 27  2  0
 28 31  1  0
 28 27  1  0
 29 28  2  0
 30 29  1  0
 30 25  2  0
 31 32  1  0
 32 33  1  0
 33 34  2  0
 35 34  1  0
 35 39  1  0
 36 35  2  0
 37 32  2  0
 37 36  1  0
 38 37  1  0
 40 41  1  0
 41 44  1  0
 41 43  1  0
 42 40  2  0
 45 47  1  0
 45 20  1  0
 46 45  1  0
 49 48  1  0
 50 61  2  0
 51 49  1  0
 51 56  1  0
 52 60  1  0
 52 62  1  0
 53 59  1  0
 53 55  1  0
 54 60  1  0
 55 54  1  0
 56 55  2  0
 57 58  1  0
 57 51  2  0
 58 53  2  0
 59 52  1  0
 60 50  1  0
 62 64  2  0
 63 62  1  0
 65 63  1  0
 66 75  2  0
 66 71  1  0
 67 63  1  0
 67 71  1  0
 68 67  1  0
 69 70  1  0
 69 68  1  0
 70 66  1  0
 71 72  2  0
 72 73  1  0
 74 73  2  0
 75 74  1  0
 76 50  1  0
 76 81  1  0
 76 77  1  0
 77 80  1  1
 77 78  1  0
 79 77  1  0
 81 84  1  0
 82 86  1  0
 82 81  1  0
 83 82  2  0
 86 85  1  0
 88 86  1  0
 88 89  1  0
 88 87  1  0
M  ISO  4  10 100  18 100  48 101  49 101
M  END
>  <TORSDO>  (5) 
F 20

>  <SCORE>  (5) 
-13.896

>  <name>  (5) 
4

>  <ligand_id>  (5) 
4

>  <original_smiles>  (5) 
[H]c1c([H])c([H])c2c(c1[H])C([H])([H])C([H])([H])C([H])([H])C2([H])N([H])C(=O)C1([H])N(C(=O)C([H])(N([H])C(=O)C([H])(N([H])C([H])([H])[H])C([H])([H])[H])C(C([H])([H])[H])(C([H])([H])[H])C([H])([H])[H])C([H])([H])c2c([H])c(OC([H])([H])C3([H])C4([H])C([H])([H])C([H])(C([H])([H])C([H])([H])C([H])([H])N([H])C(=O)N5C([H])([H])C([H])([H])C([H])([H])C([H])(n6nc(-c7c([H])c([H])c(Oc8c([H])c([H])c(F)c([H])c8F)c([H])c7[H])c(C(=O)N([H])[H])c6N([H])[H])C5([H])[H])C([H])([H])C34[H])c([H])c([H])c2C1([H])[H]

>  <smiles>  (5) 
[H]c1c([H])c([H])c2c(c1[H])C([H])([H])C([H])([H])C([H])([H])C2([H])N([H])C(=O)C1([H])N(C(=O)C([H])(N([H])C(=O)C([H])(N([H])C([H])([H])[H])C([H])([H])[H])C(C([H])([H])[H])(C([H])([H])[H])C([H])([H])[H])C([H])([H])c2c([H])c(OC([H])([H])C3([H])C4([H])C([H])([H])C([H])(C([H])([H])C([H])([H])C([H])([H])N([H])C(=O)N5C([H])([H])C([H])([H])C([H])([H])C([H])(n6nc(-c7c([H])c([H])c(Oc8c([H])c([H])c(F)c([H])c8F)c([H])c7[H])c(C(=O)N([H])[H])c6N([H])[H])C5([H])[H])C([H])([H])C34[H])c([H])c([H])c2C1([H])[H]

$$$$
5:0:0
     RDKit          3D

 89 98  0  0  1  0  0  0  0  0999 V2000
  -27.2900  -21.9270   19.3890 C   0  0  0  0  0  2  0  0  0  0  0  0
  -28.2280  -20.6610   21.1950 C   0  0  0  0  0  2  0  0  0  0  0  0
  -28.1590  -23.2300   21.2010 C   0  0  0  0  0  2  0  0  0  0  0  0
  -27.3730  -21.9240   20.9120 C   0  0  0  0  0  3  0  0  0  0  0  0
  -28.8160  -21.9800   19.2090 C   0  0  0  0  0  3  0  0  0  0  0  0
  -29.0640  -20.4560   19.9040 C   0  0  0  0  0  3  0  0  0  0  0  0
  -28.9780  -23.4960   19.9180 C   0  0  0  0  0  3  0  0  0  0  0  0
  -30.3390  -19.3790   20.0700 C   0  0  0  0  0  2  0  0  0  0  0  0
  -30.5220  -17.8580   19.3650 C   0  0  0  0  0  2  0  0  0  0  0  0
  -30.9880  -15.2050   19.8110 C   0  0  0  0  0  0  0  0  0  0  0  0
  -30.8030  -12.8040   19.0490 C   0  0  0  0  0  2  0  0  0  0  0  0
  -29.8430  -12.6830   17.8420 C   0  0  0  0  0  2  0  0  0  0  0  0
  -28.3930  -12.4930   18.3190 C   0  0  0  0  0  2  0  0  0  0  0  0
  -28.0140  -13.5070   19.4300 C   0  0  0  0  0  3  0  0  0  0  0  0
  -29.0930  -13.6080   20.5310 C   0  0  0  0  0  2  0  0  0  0  0  0
  -30.3610  -13.9640   19.8760 N   0  0  0  0  0  0  0  0  0  0  0  0
  -32.1630  -15.2240   19.4230 O   0  0  0  0  0  0  0  0  0  0  0  0
  -30.2680  -16.4190   19.9720 N   0  0  0  0  0  0  0  0  0  0  0  0
  -29.3710  -16.2890   20.4140 H   0  0  0  0  0  0  0  0  0  0  0  0
  -25.6790  -14.1440   20.2680 C   0  0  0  0  0  0  0  0  0  0  0  0
  -24.6090  -13.3930   20.6750 C   0  0  0  0  0  0  0  0  0  0  0  0
  -25.0350  -12.0330   20.6180 C   0  0  0  0  0  0  0  0  0  0  0  0
  -26.6870  -13.2390   19.9760 N   0  0  0  0  0  0  0  0  0  0  0  0
  -26.3070  -11.9640   20.2470 N   0  0  0  0  0  0  0  0  0  0  0  0
  -24.2780  -10.7900   20.8250 C   0  0  0  0  0  0  0  0  0  0  0  0
  -24.6740   -9.8360   21.7880 C   0  0  0  0  0  3  0  0  0  0  0  0
  -23.9170   -8.6600   21.9840 C   0  0  0  0  0  3  0  0  0  0  0  0
  -22.7490   -8.4300   21.2180 C   0  0  0  0  0  0  0  0  0  0  0  0
  -22.3730   -9.3730   20.2440 C   0  0  0  0  0  3  0  0  0  0  0  0
  -23.1300  -10.5390   20.0460 C   0  0  0  0  0  3  0  0  0  0  0  0
  -21.9690   -7.3040   21.3230 O   0  0  0  0  0  0  0  0  0  0  0  0
  -21.8180   -6.6410   22.5150 C   0  0  0  0  0  0  0  0  0  0  0  0
  -21.2980   -7.2760   23.6630 C   0  0  0  0  0  3  0  0  0  0  0  0
  -21.0970   -6.5370   24.8460 C   0  0  0  0  0  3  0  0  0  0  0  0
  -21.4080   -5.1650   24.8830 C   0  0  0  0  0  0  0  0  0  0  0  0
  -21.9240   -4.5290   23.7380 C   0  0  0  0  0  3  0  0  0  0  0  0
  -22.1270   -5.2650   22.5570 C   0  0  0  0  0  0  0  0  0  0  0  0
  -22.6040   -4.6420   21.4510 F   0  0  0  0  0  0  0  0  0  0  0  0
  -21.2090   -4.4520   26.0160 F   0  0  0  0  0  0  0  0  0  0  0  0
  -23.2390  -13.9110   21.0120 C   0  0  0  0  0  0  0  0  0  0  0  0
  -22.5360  -13.2380   21.9150 N   0  0  0  0  0  0  0  0  0  0  0  0
  -22.8090  -14.9480   20.5090 O   0  0  0  0  0  0  0  0  0  0  0  0
  -22.9040  -12.3970   22.3400 H   0  0  0  0  0  0  0  0  0  0  0  0
  -21.6200  -13.5660   22.1860 H   0  0  0  0  0  0  0  0  0  0  0  0
  -25.8730  -15.5080   20.0950 N   0  0  0  0  0  0  0  0  0  0  0  0
  -25.1300  -16.1810   20.2620 H   0  0  0  0  0  0  0  0  0  0  0  0
  -26.6990  -15.9280   19.6880 H   0  0  0  0  0  0  0  0  0  0  0  0
  -28.4280  -24.9220   19.1770 C   0  0  0  0  0  2  0  0  0  0  0  0
  -28.4600  -26.4060   19.6580 O   0  0  0  0  0  0  0  0  0  0  0  0
  -24.6970  -31.7190   23.0720 C   0  0  0  0  0  0  0  0  0  0  0  0
  -27.3550  -27.3380   19.6360 C   0  0  0  0  0  0  0  0  0  0  0  0
  -23.5040  -30.4070   21.3610 C   0  0  0  0  0  3  0  0  0  0  0  0
  -24.9680  -29.0000   19.7850 C   0  0  0  0  0  0  0  0  0  0  0  0
  -26.0420  -30.7740   21.1600 C   0  0  0  0  0  2  0  0  0  0  0  0
  -26.1420  -29.4360   20.4060 C   0  0  0  0  0  0  0  0  0  0  0  0
  -27.3300  -28.6180   20.3230 C   0  0  0  0  0  3  0  0  0  0  0  0
  -26.1480  -27.0160   18.9720 C   0  0  0  0  0  3  0  0  0  0  0  0
  -24.9810  -27.8050   19.0540 C   0  0  0  0  0  3  0  0  0  0  0  0
  -23.7110  -29.8440   19.9300 C   0  0  0  0  0  2  0  0  0  0  0  0
  -24.7690  -30.9810   21.9210 N   0  0  0  0  0  0  0  0  0  0  0  0
  -23.6160  -31.9250   23.6460 O   0  0  0  0  0  0  0  0  0  0  0  0
  -22.8870  -29.3080   22.2610 C   0  0  0  0  0  0  0  0  0  0  0  0
  -21.5610  -29.1010   22.1500 N   0  0  0  0  0  0  0  0  0  0  0  0
  -23.5980  -28.6420   23.0180 O   0  0  0  0  0  0  0  0  0  0  0  0
  -21.0380  -29.6920   21.5190 H   0  0  0  0  0  0  0  0  0  0  0  0
  -18.2390  -27.7290   22.6120 C   0  0  0  0  0  0  0  0  0  0  0  0
  -20.7900  -28.0840   22.8650 C   0  0  0  0  0  3  0  0  0  0  0  0
  -20.9420  -26.6980   22.1960 C   0  0  0  0  0  2  0  0  0  0  0  0
  -19.8400  -26.3960   21.1730 C   0  0  0  0  0  2  0  0  0  0  0  0
  -18.4640  -26.4390   21.8420 C   0  0  0  0  0  2  0  0  0  0  0  0
  -19.3330  -28.5080   23.0780 C   0  0  0  0  0  0  0  0  0  0  0  0
  -19.0700  -29.7160   23.7610 C   0  0  0  0  0  3  0  0  0  0  0  0
  -17.7500  -30.1520   23.9750 C   0  0  0  0  0  3  0  0  0  0  0  0
  -16.6710  -29.3700   23.5230 C   0  0  0  0  0  3  0  0  0  0  0  0
  -16.9180  -28.1590   22.8500 C   0  0  0  0  0  3  0  0  0  0  0  0
  -25.9680  -32.3490   23.7150 C   0  0  0  0  0  3  0  0  0  0  0  0
  -26.5160  -31.5240   24.9440 C   0  0  1  0  0  0  0  0  0  0  0  0
  -25.4450  -31.2140   26.0150 C   0  0  0  0  0  1  0  0  0  0  0  0
  -27.1160  -30.1760   24.4770 C   0  0  0  0  0  1  0  0  0  0  0  0
  -27.6640  -32.3010   25.6280 C   0  0  0  0  0  1  0  0  0  0  0  0
  -25.6290  -33.7190   24.1300 N   0  0  0  0  0  0  0  0  0  0  0  0
  -25.9440  -34.8260   23.4440 C   0  0  0  0  0  0  0  0  0  0  0  0
  -26.6240  -34.8010   22.4140 O   0  0  0  0  0  0  0  0  0  0  0  0
  -25.0240  -33.8100   24.9320 H   0  0  0  0  0  0  0  0  0  0  0  0
  -24.1860  -36.6090   23.1980 C   0  0  0  0  0  1  0  0  0  0  0  0
  -25.4290  -36.1730   23.9880 C   0  0  0  0  0  3  0  0  0  0  0  0
  -27.5400  -37.0460   24.8920 C   0  0  0  0  0  1  0  0  0  0  0  0
  -26.4440  -37.2510   23.9490 N   0  0  0  0  0  0  0  0  0  0  0  0
  -26.0180  -38.1530   24.1480 H   0  0  0  0  0  0  0  0  0  0  0  0
  4  1  1  0
  4  2  1  0
  4  3  1  0
  5  1  1  0
  5  6  1  0
  5  7  1  0
  6  8  1  0
  6  2  1  0
  7 48  1  0
  7  3  1  0
  9 18  1  0
  9  8  1  0
 10 16  1  0
 10 18  1  0
 11 16  1  0
 12 13  1  0
 12 11  1  0
 14 13  1  0
 14 23  1  0
 14 15  1  0
 16 15  1  0
 17 10  2  0
 18 19  1  0
 20 21  2  0
 21 40  1  0
 22 21  1  0
 22 25  1  0
 23 24  1  0
 23 20  1  0
 24 22  2  0
 25 26  1  0
 26 27  2  0
 28 31  1  0
 28 27  1  0
 29 28  2  0
 30 29  1  0
 30 25  2  0
 31 32  1  0
 32 37  2  0
 32 33  1  0
 33 34  2  0
 34 35  1  0
 35 39  1  0
 36 35  2  0
 37 36  1  0
 38 37  1  0
 40 41  1  0
 41 44  1  0
 41 43  1  0
 42 40  2  0
 45 46  1  0
 45 20  1  0
 47 45  1  0
 48 49  1  0
 50 61  2  0
 51 49  1  0
 51 56  1  0
 52 60  1  0
 52 62  1  0
 53 59  1  0
 53 55  1  0
 54 60  1  0
 55 54  1  0
 56 55  2  0
 57 58  1  0
 57 51  2  0
 58 53  2  0
 59 52  1  0
 60 50  1  0
 62 64  2  0
 63 62  1  0
 65 63  1  0
 66 75  2  0
 66 71  1  0
 67 63  1  0
 67 71  1  0
 68 67  1  0
 69 70  1  0
 69 68  1  0
 70 66  1  0
 71 72  2  0
 72 73  1  0
 74 73  2  0
 75 74  1  0
 76 50  1  0
 76 81  1  0
 76 77  1  0
 77 80  1  1
 77 78  1  0
 79 77  1  0
 81 84  1  0
 82 86  1  0
 82 81  1  0
 83 82  2  0
 86 85  1  0
 88 86  1  0
 88 89  1  0
 88 87  1  0
M  ISO  4  10 100  18 100  48 101  49 101
M  END
>  <TORSDO>  (6) 
F 19

>  <SCORE>  (6) 
-13.414

>  <name>  (6) 
5

>  <ligand_id>  (6) 
5

>  <original_smiles>  (6) 
[H]c1c([H])c([H])c2c(c1[H])C([H])([H])C([H])([H])C([H])([H])C2([H])N([H])C(=O)C1([H])N(C(=O)C([H])(N([H])C(=O)C([H])(N([H])C([H])([H])[H])C([H])([H])[H])C(C([H])([H])[H])(C([H])([H])[H])C([H])([H])[H])C([H])([H])c2c([H])c(OC([H])([H])C3([H])C([H])([H])C4([H])C([H])([H])C([H])(C([H])([H])C([H])([H])N([H])C(=O)N5C([H])([H])C([H])([H])C([H])([H])C([H])(n6nc(-c7c([H])c([H])c(Oc8c([H])c([H])c(F)c([H])c8F)c([H])c7[H])c(C(=O)N([H])[H])c6N([H])[H])C5([H])[H])C3([H])C4([H])[H])c([H])c([H])c2C1([H])[H]

>  <smiles>  (6) 
[H]c1c([H])c([H])c2c(c1[H])C([H])([H])C([H])([H])C([H])([H])C2([H])N([H])C(=O)C1([H])N(C(=O)C([H])(N([H])C(=O)C([H])(N([H])C([H])([H])[H])C([H])([H])[H])C(C([H])([H])[H])(C([H])([H])[H])C([H])([H])[H])C([H])([H])c2c([H])c(OC([H])([H])C3([H])C([H])([H])C4([H])C([H])([H])C([H])(C([H])([H])C([H])([H])N([H])C(=O)N5C([H])([H])C([H])([H])C([H])([H])C([H])(n6nc(-c7c([H])c([H])c(Oc8c([H])c([H])c(F)c([H])c8F)c([H])c7[H])c(C(=O)N([H])[H])c6N([H])[H])C5([H])[H])C3([H])C4([H])[H])c([H])c([H])c2C1([H])[H]

$$$$
6:0:0
     RDKit          3D

 91100  0  0  1  0  0  0  0  0999 V2000
  -29.5650  -21.9750   20.7740 C   0  0  0  0  0  2  0  0  0  0  0  0
  -26.9790  -20.4980   19.9740 C   0  0  0  0  0  2  0  0  0  0  0  0
  -29.0220  -19.0800   19.8200 C   0  0  0  0  0  3  0  0  0  0  0  0
  -29.3690  -20.7390   19.7580 C   0  0  0  0  0  3  0  0  0  0  0  0
  -28.0390  -21.5180   19.4930 C   0  0  0  0  0  3  0  0  0  0  0  0
  -28.3420  -22.9120   20.2990 C   0  0  0  0  0  3  0  0  0  0  0  0
  -27.5220  -19.0760   19.9940 N   0  0  2  0  0  4  0  0  0  0  0  0
  -27.3450  -18.7200   20.9200 H   0  0  0  0  0  0  0  0  0  0  0  0
  -29.9600  -17.6720   20.2160 C   0  0  0  0  0  0  0  0  0  0  0  0
  -31.4040  -18.0790   20.4950 C   0  0  0  0  0  1  0  0  0  0  0  0
  -29.6340  -16.3290   20.2260 N   0  0  0  0  0  0  0  0  0  0  0  0
  -30.5390  -15.1150   20.2440 C   0  0  0  0  0  0  0  0  0  0  0  0
  -30.5140  -12.6830   19.4640 C   0  0  0  0  0  2  0  0  0  0  0  0
  -29.6190  -12.5980   18.2050 C   0  0  0  0  0  2  0  0  0  0  0  0
  -28.1470  -12.3670   18.6000 C   0  0  0  0  0  2  0  0  0  0  0  0
  -27.7010  -13.3160   19.7460 C   0  0  0  0  0  3  0  0  0  0  0  0
  -28.7290  -13.3950   20.8850 C   0  0  0  0  0  2  0  0  0  0  0  0
  -30.0060  -13.8170   20.2950 N   0  0  0  0  0  0  0  0  0  0  0  0
  -31.7580  -15.1370   20.0370 O   0  0  0  0  0  0  0  0  0  0  0  0
  -25.3370  -13.8910   20.5260 C   0  0  0  0  0  0  0  0  0  0  0  0
  -24.2620  -13.1300   20.8850 C   0  0  0  0  0  0  0  0  0  0  0  0
  -24.7200  -11.7780   20.8450 C   0  0  0  0  0  0  0  0  0  0  0  0
  -26.3680  -13.0130   20.2530 N   0  0  0  0  0  0  0  0  0  0  0  0
  -26.0110  -11.7330   20.5250 N   0  0  0  0  0  0  0  0  0  0  0  0
  -23.9840  -10.5260   21.0350 C   0  0  0  0  0  0  0  0  0  0  0  0
  -24.4070   -9.5540   21.9660 C   0  0  0  0  0  3  0  0  0  0  0  0
  -23.6660   -8.3650   22.1450 C   0  0  0  0  0  3  0  0  0  0  0  0
  -22.4880   -8.1410   21.3920 C   0  0  0  0  0  0  0  0  0  0  0  0
  -22.0860   -9.1040   20.4500 C   0  0  0  0  0  3  0  0  0  0  0  0
  -22.8270  -10.2830   20.2700 C   0  0  0  0  0  3  0  0  0  0  0  0
  -21.7190   -7.0040   21.4770 O   0  0  0  0  0  0  0  0  0  0  0  0
  -21.6630   -6.2630   22.6290 C   0  0  0  0  0  0  0  0  0  0  0  0
  -21.2450   -6.8200   23.8590 C   0  0  0  0  0  3  0  0  0  0  0  0
  -21.1370   -5.9990   25.0030 C   0  0  0  0  0  3  0  0  0  0  0  0
  -21.4350   -4.6280   24.9160 C   0  0  0  0  0  0  0  0  0  0  0  0
  -21.8470   -4.0720   23.6920 C   0  0  0  0  0  3  0  0  0  0  0  0
  -21.9580   -4.8870   22.5520 C   0  0  0  0  0  0  0  0  0  0  0  0
  -22.3340   -4.3440   21.3710 F   0  0  0  0  0  0  0  0  0  0  0  0
  -21.3250   -3.8370   26.0110 F   0  0  0  0  0  0  0  0  0  0  0  0
  -22.8720  -13.6270   21.1540 C   0  0  0  0  0  0  0  0  0  0  0  0
  -22.1340  -12.9500   22.0260 N   0  0  0  0  0  0  0  0  0  0  0  0
  -22.4450  -14.6510   20.6230 O   0  0  0  0  0  0  0  0  0  0  0  0
  -22.4870  -12.1320   22.4970 H   0  0  0  0  0  0  0  0  0  0  0  0
  -21.1920  -13.2620   22.2290 H   0  0  0  0  0  0  0  0  0  0  0  0
  -25.5290  -15.2540   20.3980 N   0  0  0  0  0  0  0  0  0  0  0  0
  -24.8120  -15.9180   20.6650 H   0  0  0  0  0  0  0  0  0  0  0  0
  -26.4450  -15.6540   20.2620 H   0  0  0  0  0  0  0  0  0  0  0  0
  -25.2530  -18.1320   19.2640 C   0  0  0  0  0  1  0  0  0  0  0  0
  -26.7870  -18.1770   19.0430 C   0  0  0  0  0  2  0  0  0  0  0  0
  -28.3180  -24.5400   19.6570 C   0  0  0  0  0  2  0  0  0  0  0  0
  -28.2980  -26.0220   20.2760 O   0  0  0  0  0  0  0  0  0  0  0  0
  -24.6690  -31.8510   23.1950 C   0  0  0  0  0  0  0  0  0  0  0  0
  -27.2700  -27.0610   20.1670 C   0  0  0  0  0  0  0  0  0  0  0  0
  -23.4980  -30.4500   21.5480 C   0  0  0  0  0  3  0  0  0  0  0  0
  -24.9630  -28.8760   20.1280 C   0  0  0  0  0  0  0  0  0  0  0  0
  -26.0600  -30.6940   21.4210 C   0  0  0  0  0  2  0  0  0  0  0  0
  -26.1400  -29.2970   20.7610 C   0  0  0  0  0  0  0  0  0  0  0  0
  -27.2890  -28.4050   20.7640 C   0  0  0  0  0  3  0  0  0  0  0  0
  -26.0630  -26.7700   19.4970 C   0  0  0  0  0  3  0  0  0  0  0  0
  -24.9440  -27.6340   19.4810 C   0  0  0  0  0  3  0  0  0  0  0  0
  -23.7340  -29.7750   20.1700 C   0  0  0  0  0  2  0  0  0  0  0  0
  -24.7630  -31.0230   22.1080 N   0  0  0  0  0  0  0  0  0  0  0  0
  -23.5730  -32.1330   23.7070 O   0  0  0  0  0  0  0  0  0  0  0  0
  -22.8080  -29.4410   22.5030 C   0  0  0  0  0  0  0  0  0  0  0  0
  -21.4770  -29.2820   22.3810 N   0  0  0  0  0  0  0  0  0  0  0  0
  -23.4760  -28.8000   23.3180 O   0  0  0  0  0  0  0  0  0  0  0  0
  -20.9930  -29.8560   21.7040 H   0  0  0  0  0  0  0  0  0  0  0  0
  -18.0860  -28.1100   22.9020 C   0  0  0  0  0  0  0  0  0  0  0  0
  -20.6490  -28.3450   23.1460 C   0  0  0  0  0  3  0  0  0  0  0  0
  -20.7300  -26.9190   22.5540 C   0  0  0  0  0  2  0  0  0  0  0  0
  -19.6160  -26.6200   21.5450 C   0  0  0  0  0  2  0  0  0  0  0  0
  -18.2420  -26.7690   22.2040 C   0  0  0  0  0  2  0  0  0  0  0  0
  -19.2150  -28.8570   23.3300 C   0  0  0  0  0  0  0  0  0  0  0  0
  -19.0120  -30.1110   23.9450 C   0  0  0  0  0  3  0  0  0  0  0  0
  -17.7120  -30.6200   24.1320 C   0  0  0  0  0  3  0  0  0  0  0  0
  -16.5980  -29.8720   23.7160 C   0  0  0  0  0  3  0  0  0  0  0  0
  -16.7850  -28.6170   23.1090 C   0  0  0  0  0  3  0  0  0  0  0  0
  -25.9320  -32.4980   23.8390 C   0  0  0  0  0  3  0  0  0  0  0  0
  -26.4290  -31.7390   25.1320 C   0  0  1  0  0  0  0  0  0  0  0  0
  -25.3180  -31.5080   26.1840 C   0  0  0  0  0  1  0  0  0  0  0  0
  -27.0210  -30.3570   24.7680 C   0  0  0  0  0  1  0  0  0  0  0  0
  -27.5700  -32.5370   25.8060 C   0  0  0  0  0  1  0  0  0  0  0  0
  -25.6020  -33.8970   24.1700 N   0  0  0  0  0  0  0  0  0  0  0  0
  -25.9340  -34.9600   23.4230 C   0  0  0  0  0  0  0  0  0  0  0  0
  -26.6120  -34.8630   22.3960 O   0  0  0  0  0  0  0  0  0  0  0  0
  -24.9910  -34.0440   24.9600 H   0  0  0  0  0  0  0  0  0  0  0  0
  -24.1950  -36.7460   23.0760 C   0  0  0  0  0  1  0  0  0  0  0  0
  -25.4390  -36.3440   23.8850 C   0  0  0  0  0  3  0  0  0  0  0  0
  -27.5670  -37.2410   24.7190 C   0  0  0  0  0  1  0  0  0  0  0  0
  -26.4630  -37.4060   23.7760 N   0  0  0  0  0  0  0  0  0  0  0  0
  -26.0520  -38.3220   23.9250 H   0  0  0  0  0  0  0  0  0  0  0  0
  2  7  1  0
  3  7  1  0
  3  9  1  0
  4  3  1  0
  4  1  1  0
  5  4  1  0
  5  2  1  0
  5  6  1  0
  6 50  1  0
  6  1  1  0
  7  8  1  1
  9 11  2  0
  9 10  1  0
 11 12  1  0
 12 18  1  0
 13 18  1  0
 14 15  1  0
 14 13  1  0
 16 15  1  0
 16 23  1  0
 16 17  1  0
 18 17  1  0
 19 12  2  0
 20 21  2  0
 21 40  1  0
 22 21  1  0
 22 25  1  0
 23 24  1  0
 23 20  1  0
 24 22  2  0
 25 26  1  0
 26 27  2  0
 28 31  1  0
 28 27  1  0
 29 28  2  0
 30 29  1  0
 30 25  2  0
 31 32  1  0
 32 33  1  0
 33 34  2  0
 35 34  1  0
 35 39  1  0
 36 35  2  0
 37 32  2  0
 37 36  1  0
 38 37  1  0
 40 41  1  0
 41 44  1  0
 41 43  1  0
 42 40  2  0
 45 20  1  0
 45 46  1  0
 47 45  1  0
 49 48  1  0
 49  7  1  0
 50 51  1  0
 52 63  2  0
 53 51  1  0
 53 58  1  0
 54 62  1  0
 54 64  1  0
 55 61  1  0
 55 57  1  0
 56 62  1  0
 57 58  2  0
 57 56  1  0
 59 53  2  0
 60 59  1  0
 60 55  2  0
 61 54  1  0
 62 52  1  0
 64 66  2  0
 65 64  1  0
 67 65  1  0
 68 77  2  0
 68 73  1  0
 69 65  1  0
 69 73  1  0
 70 69  1  0
 71 72  1  0
 71 70  1  0
 72 68  1  0
 73 74  2  0
 74 75  1  0
 76 75  2  0
 77 76  1  0
 78 52  1  0
 78 83  1  0
 78 79  1  0
 79 82  1  1
 79 80  1  0
 81 79  1  0
 83 86  1  0
 84 88  1  0
 84 83  1  0
 85 84  2  0
 88 87  1  0
 90 88  1  0
 90 91  1  0
 90 89  1  0
M  ISO  4  11 100  12 100  50 101  51 101
M  END
>  <TORSDO>  (7) 
F 19

>  <SCORE>  (7) 
-14.114

>  <name>  (7) 
6

>  <ligand_id>  (7) 
6

>  <original_smiles>  (7) 
[H]c1c([H])c([H])c2c(c1[H])C([H])([H])C([H])([H])C([H])([H])C2([H])N([H])C(=O)C1([H])N(C(=O)C([H])(N([H])C(=O)C([H])(N([H])C([H])([H])[H])C([H])([H])[H])C(C([H])([H])[H])(C([H])([H])[H])C([H])([H])[H])C([H])([H])c2c([H])c(OC([H])([H])C3([H])C([H])([H])C4([H])C3([H])C([H])([H])[N+]([H])(C([H])([H])C([H])([H])[H])C4([H])C(=NC(=O)N3C([H])([H])C([H])([H])C([H])([H])C([H])(n4nc(-c5c([H])c([H])c(Oc6c([H])c([H])c(F)c([H])c6F)c([H])c5[H])c(C(=O)N([H])[H])c4N([H])[H])C3([H])[H])C([H])([H])[H])c([H])c([H])c2C1([H])[H]

>  <smiles>  (7) 
[H]c1c([H])c([H])c2c(c1[H])C([H])([H])C([H])([H])C([H])([H])C2([H])N([H])C(=O)C1([H])N(C(=O)C([H])(N([H])C(=O)C([H])(N([H])C([H])([H])[H])C([H])([H])[H])C(C([H])([H])[H])(C([H])([H])[H])C([H])([H])[H])C([H])([H])c2c([H])c(OC([H])([H])C3([H])C([H])([H])C4([H])C3([H])C([H])([H])[N+]([H])(C([H])([H])C([H])([H])[H])C4([H])C(=NC(=O)N3C([H])([H])C([H])([H])C([H])([H])C([H])(n4nc(-c5c([H])c([H])c(Oc6c([H])c([H])c(F)c([H])c6F)c([H])c5[H])c(C(=O)N([H])[H])c4N([H])[H])C3([H])[H])C([H])([H])[H])c([H])c([H])c2C1([H])[H]

$$$$
7:0:0
     RDKit          3D

 89 98  0  0  1  0  0  0  0  0999 V2000
  -30.9670  -18.9340   19.1010 C   0  0  0  0  0  2  0  0  0  0  0  0
  -30.5720  -20.4410   19.5540 C   0  0  0  0  0  3  0  0  0  0  0  0
  -29.4150  -20.2990   20.4680 C   0  0  0  0  0  3  0  0  0  0  0  0
  -29.3250  -21.4700   19.3690 C   0  0  0  0  0  3  0  0  0  0  0  0
  -29.8950  -17.8280   19.4920 C   0  0  0  0  0  3  0  0  0  0  0  0
  -29.0750  -18.7200   20.5460 C   0  0  2  0  0  0  0  0  0  0  0  0
  -27.5590  -18.5000   20.3940 C   0  0  0  0  0  1  0  0  0  0  0  0
  -29.4950  -18.2290   21.9530 C   0  0  0  0  0  1  0  0  0  0  0  0
  -30.8500  -15.0590   19.3980 C   0  0  0  0  0  0  0  0  0  0  0  0
  -30.6390  -12.6650   18.5260 C   0  0  0  0  0  2  0  0  0  0  0  0
  -29.5790  -12.6060   17.4000 C   0  0  0  0  0  2  0  0  0  0  0  0
  -28.1650  -12.4220   17.9860 C   0  0  0  0  0  2  0  0  0  0  0  0
  -27.9030  -13.3560   19.1960 C   0  0  0  0  0  3  0  0  0  0  0  0
  -29.0760  -13.3690   20.1980 C   0  0  0  0  0  2  0  0  0  0  0  0
  -30.2760  -13.7790   19.4560 N   0  0  0  0  0  0  0  0  0  0  0  0
  -31.9890  -15.1230   18.9210 O   0  0  0  0  0  0  0  0  0  0  0  0
  -30.0660  -16.2240   19.7070 N   0  0  0  0  0  0  0  0  0  0  0  0
  -29.2230  -15.8850   20.1460 H   0  0  0  0  0  0  0  0  0  0  0  0
  -25.6620  -13.9850   20.2540 C   0  0  0  0  0  0  0  0  0  0  0  0
  -24.6160  -13.2380   20.7230 C   0  0  0  0  0  0  0  0  0  0  0  0
  -25.0090  -11.8710   20.5690 C   0  0  0  0  0  0  0  0  0  0  0  0
  -26.6240  -13.0810   19.8440 N   0  0  0  0  0  0  0  0  0  0  0  0
  -26.2500  -11.7990   20.0960 N   0  0  0  0  0  0  0  0  0  0  0  0
  -24.2500  -10.6330   20.7890 C   0  0  0  0  0  0  0  0  0  0  0  0
  -24.6890   -9.6500   21.7020 C   0  0  0  0  0  3  0  0  0  0  0  0
  -23.9330   -8.4760   21.9120 C   0  0  0  0  0  3  0  0  0  0  0  0
  -22.7190   -8.2810   21.2080 C   0  0  0  0  0  0  0  0  0  0  0  0
  -22.2970   -9.2520   20.2840 C   0  0  0  0  0  3  0  0  0  0  0  0
  -23.0560  -10.4170   20.0730 C   0  0  0  0  0  3  0  0  0  0  0  0
  -21.9290   -7.1630   21.3300 O   0  0  0  0  0  0  0  0  0  0  0  0
  -21.8130   -6.4890   22.5200 C   0  0  0  0  0  0  0  0  0  0  0  0
  -21.3050   -7.1110   23.6810 C   0  0  0  0  0  3  0  0  0  0  0  0
  -21.1360   -6.3630   24.8640 C   0  0  0  0  0  3  0  0  0  0  0  0
  -21.4660   -4.9930   24.8840 C   0  0  0  0  0  0  0  0  0  0  0  0
  -21.9640   -4.3720   23.7270 C   0  0  0  0  0  3  0  0  0  0  0  0
  -22.1350   -5.1170   22.5460 C   0  0  0  0  0  0  0  0  0  0  0  0
  -22.5980   -4.5080   21.4280 F   0  0  0  0  0  0  0  0  0  0  0  0
  -21.2970   -4.2730   26.0170 F   0  0  0  0  0  0  0  0  0  0  0  0
  -23.2880  -13.7600   21.1890 C   0  0  0  0  0  0  0  0  0  0  0  0
  -22.6420  -13.0610   22.1160 N   0  0  0  0  0  0  0  0  0  0  0  0
  -22.8350  -14.8240   20.7680 O   0  0  0  0  0  0  0  0  0  0  0  0
  -23.0250  -12.2020   22.4820 H   0  0  0  0  0  0  0  0  0  0  0  0
  -21.7530  -13.3920   22.4650 H   0  0  0  0  0  0  0  0  0  0  0  0
  -25.8630  -15.3570   20.1150 N   0  0  0  0  0  0  0  0  0  0  0  0
  -25.1330  -16.0270   20.3310 H   0  0  0  0  0  0  0  0  0  0  0  0
  -26.6560  -15.7740   19.6480 H   0  0  0  0  0  0  0  0  0  0  0  0
  -29.4210  -23.1510   19.7170 C   0  0  0  0  0  3  0  0  0  0  0  0
  -28.3810  -24.4780   19.3160 C   0  0  0  0  0  3  0  0  0  0  0  0
  -28.5150  -26.0260   19.6840 O   0  0  0  0  0  0  0  0  0  0  0  0
  -24.6040  -31.4450   22.9630 C   0  0  0  0  0  0  0  0  0  0  0  0
  -27.4250  -27.0000   19.6650 C   0  0  0  0  0  0  0  0  0  0  0  0
  -23.4880  -30.1040   21.2210 C   0  0  0  0  0  3  0  0  0  0  0  0
  -25.0230  -28.6820   19.7150 C   0  0  0  0  0  0  0  0  0  0  0  0
  -26.0340  -30.4770   21.1120 C   0  0  0  0  0  2  0  0  0  0  0  0
  -26.1770  -29.1290   20.3700 C   0  0  0  0  0  0  0  0  0  0  0  0
  -27.3750  -28.3050   20.3270 C   0  0  0  0  0  3  0  0  0  0  0  0
  -26.2360  -26.6720   18.9780 C   0  0  0  0  0  3  0  0  0  0  0  0
  -25.0680  -27.4730   19.0020 C   0  0  0  0  0  3  0  0  0  0  0  0
  -23.7570  -29.5270   19.8040 C   0  0  0  0  0  2  0  0  0  0  0  0
  -24.7270  -30.6980   21.8200 N   0  0  0  0  0  0  0  0  0  0  0  0
  -23.4990  -31.6450   23.4920 O   0  0  0  0  0  0  0  0  0  0  0  0
  -22.8440  -29.0100   22.1110 C   0  0  0  0  0  0  0  0  0  0  0  0
  -21.5200  -28.8090   21.9820 N   0  0  0  0  0  0  0  0  0  0  0  0
  -23.5400  -28.3450   22.8830 O   0  0  0  0  0  0  0  0  0  0  0  0
  -21.0100  -29.4040   21.3440 H   0  0  0  0  0  0  0  0  0  0  0  0
  -18.1720  -27.5070   22.4640 C   0  0  0  0  0  0  0  0  0  0  0  0
  -20.7330  -27.7910   22.6850 C   0  0  0  0  0  3  0  0  0  0  0  0
  -20.8390  -26.4180   21.9790 C   0  0  0  0  0  2  0  0  0  0  0  0
  -19.7150  -26.1720   20.9680 C   0  0  0  0  0  2  0  0  0  0  0  0
  -18.3490  -26.2300   21.6580 C   0  0  0  0  0  2  0  0  0  0  0  0
  -19.2910  -28.2470   22.9310 C   0  0  0  0  0  0  0  0  0  0  0  0
  -19.0670  -29.4420   23.6480 C   0  0  0  0  0  3  0  0  0  0  0  0
  -17.7590  -29.9010   23.8960 C   0  0  0  0  0  3  0  0  0  0  0  0
  -16.6560  -29.1560   23.4420 C   0  0  0  0  0  3  0  0  0  0  0  0
  -16.8640  -27.9600   22.7340 C   0  0  0  0  0  3  0  0  0  0  0  0
  -25.8400  -32.1020   23.6460 C   0  0  0  0  0  3  0  0  0  0  0  0
  -25.4700  -33.4770   24.0210 N   0  0  0  0  0  0  0  0  0  0  0  0
  -25.7770  -34.5730   23.3140 C   0  0  0  0  0  0  0  0  0  0  0  0
  -26.4660  -34.5340   22.2910 O   0  0  0  0  0  0  0  0  0  0  0  0
  -24.8620  -33.5750   24.8190 H   0  0  0  0  0  0  0  0  0  0  0  0
  -23.9850  -36.3170   23.0210 C   0  0  0  0  0  1  0  0  0  0  0  0
  -25.2370  -35.9250   23.8220 C   0  0  0  0  0  3  0  0  0  0  0  0
  -27.3250  -36.8700   24.7070 C   0  0  0  0  0  1  0  0  0  0  0  0
  -26.2290  -37.0210   23.7540 N   0  0  0  0  0  0  0  0  0  0  0  0
  -25.7850  -37.9210   23.9210 H   0  0  0  0  0  0  0  0  0  0  0  0
  -26.3380  -31.3070   24.9170 C   0  0  1  0  0  0  0  0  0  0  0  0
  -25.2230  -31.0130   25.9480 C   0  0  0  0  0  1  0  0  0  0  0  0
  -26.9660  -29.9570   24.5090 C   0  0  0  0  0  1  0  0  0  0  0  0
  -27.4450  -32.1130   25.6350 C   0  0  0  0  0  1  0  0  0  0  0  0
  1  5  1  0
  2  1  1  0
  2  3  1  0
  3  6  1  0
  4  2  1  0
  4 47  1  0
  4  3  1  0
  5 17  1  0
  5  6  1  0
  6  8  1  1
  7  6  1  0
  9 15  1  0
  9 17  1  0
 10 15  1  0
 11 12  1  0
 11 10  1  0
 13 12  1  0
 13 22  1  0
 13 14  1  0
 15 14  1  0
 16  9  2  0
 17 18  1  0
 19 20  2  0
 20 39  1  0
 21 20  1  0
 21 24  1  0
 22 23  1  0
 22 19  1  0
 23 21  2  0
 24 25  1  0
 25 26  2  0
 27 30  1  0
 27 26  1  0
 28 27  2  0
 29 28  1  0
 29 24  2  0
 30 31  1  0
 31 36  2  0
 31 32  1  0
 32 33  2  0
 33 34  1  0
 34 38  1  0
 35 34  2  0
 36 35  1  0
 37 36  1  0
 39 40  1  0
 40 43  1  0
 40 42  1  0
 41 39  2  0
 44 19  1  0
 44 45  1  0
 46 44  1  0
 48 49  1  0
 48 47  2  0
 50 61  2  0
 51 49  1  0
 51 56  1  0
 52 60  1  0
 52 62  1  0
 53 59  1  0
 53 55  1  0
 54 60  1  0
 55 54  1  0
 56 55  2  0
 57 58  1  0
 57 51  2  0
 58 53  2  0
 59 52  1  0
 60 50  1  0
 62 64  2  0
 63 62  1  0
 65 63  1  0
 66 75  2  0
 66 71  1  0
 67 63  1  0
 67 71  1  0
 68 67  1  0
 69 70  1  0
 69 68  1  0
 70 66  1  0
 71 72  2  0
 72 73  1  0
 74 73  2  0
 75 74  1  0
 76 50  1  0
 76 77  1  0
 76 86  1  0
 77 80  1  0
 78 82  1  0
 78 77  1  0
 79 78  2  0
 82 81  1  0
 84 82  1  0
 84 85  1  0
 84 83  1  0
 86 89  1  1
 86 87  1  0
 88 86  1  0
M  ISO  4   9 100  17 100  48 101  49 101
M  END
>  <TORSDO>  (8) 
F 18

>  <SCORE>  (8) 
-12.953

>  <name>  (8) 
7

>  <ligand_id>  (8) 
7

>  <original_smiles>  (8) 
[H]c1c([H])c([H])c2c(c1[H])C([H])([H])C([H])([H])C([H])([H])C2([H])N([H])C(=O)C1([H])N(C(=O)C([H])(N([H])C(=O)C([H])(N([H])C([H])([H])[H])C([H])([H])[H])C(C([H])([H])[H])(C([H])([H])[H])C([H])([H])[H])C([H])([H])c2c([H])c(OC([H])([H])C([H])([H])C3([H])C4([H])C([H])([H])C([H])(N([H])C(=O)N5C([H])([H])C([H])([H])C([H])([H])C([H])(n6nc(-c7c([H])c([H])c(Oc8c([H])c([H])c(F)c([H])c8F)c([H])c7[H])c(C(=O)N([H])[H])c6N([H])[H])C5([H])[H])C(C([H])([H])[H])(C([H])([H])[H])C34[H])c([H])c([H])c2C1([H])[H]

>  <smiles>  (8) 
[H]c1c([H])c([H])c2c(c1[H])C([H])([H])C([H])([H])C([H])([H])C2([H])N([H])C(=O)C1([H])N(C(=O)C([H])(N([H])C(=O)C([H])(N([H])C([H])([H])[H])C([H])([H])[H])C(C([H])([H])[H])(C([H])([H])[H])C([H])([H])[H])C([H])([H])c2c([H])c(OC([H])([H])C([H])([H])C3([H])C4([H])C([H])([H])C([H])(N([H])C(=O)N5C([H])([H])C([H])([H])C([H])([H])C([H])(n6nc(-c7c([H])c([H])c(Oc8c([H])c([H])c(F)c([H])c8F)c([H])c7[H])c(C(=O)N([H])[H])c6N([H])[H])C5([H])[H])C(C([H])([H])[H])(C([H])([H])[H])C34[H])c([H])c([H])c2C1([H])[H]

$$$$
8:0:0
     RDKit          3D

 92100  0  0  1  0  0  0  0  0999 V2000
  -28.9600  -23.1990   20.7480 C   0  0  0  0  0  2  0  0  0  0  0  0
  -31.1260  -22.9300   19.8800 C   0  0  0  0  0  2  0  0  0  0  0  0
  -29.2200  -21.6450   20.5220 C   0  0  0  0  0  3  0  0  0  0  0  0
  -29.8790  -24.0090   19.8260 C   0  0  0  0  0  3  0  0  0  0  0  0
  -30.6460  -21.3580   19.8770 C   0  0  0  0  0  3  0  0  0  0  0  0
  -28.0560  -20.9740   19.7680 C   0  0  0  0  0  0  0  0  0  0  0  0
  -26.6570  -21.1840   20.3260 C   0  0  0  0  0  1  0  0  0  0  0  0
  -28.2240  -20.3040   18.7460 O   0  0  0  0  0  0  0  0  0  0  0  0
  -30.0280  -25.7050   19.9520 C   0  0  0  0  0  2  0  0  0  0  0  0
  -29.4280  -26.8280   20.8500 O   0  0  0  0  0  0  0  0  0  0  0  0
  -24.9960  -31.9510   23.6470 C   0  0  0  0  0  0  0  0  0  0  0  0
  -28.3040  -27.7030   20.6320 C   0  0  0  0  0  0  0  0  0  0  0  0
  -24.1180  -30.5950   21.7800 C   0  0  0  0  0  3  0  0  0  0  0  0
  -25.8530  -29.2550   20.4260 C   0  0  0  0  0  0  0  0  0  0  0  0
  -26.6370  -31.0730   21.9430 C   0  0  0  0  0  2  0  0  0  0  0  0
  -26.9040  -29.7460   21.2090 C   0  0  0  0  0  0  0  0  0  0  0  0
  -28.1250  -28.9810   21.2990 C   0  0  0  0  0  3  0  0  0  0  0  0
  -27.2320  -27.3110   19.8030 C   0  0  0  0  0  3  0  0  0  0  0  0
  -26.0310  -28.0570   19.7070 C   0  0  0  0  0  3  0  0  0  0  0  0
  -24.5530  -30.0450   20.3920 C   0  0  0  0  0  2  0  0  0  0  0  0
  -25.2620  -31.2270   22.5150 N   0  0  0  0  0  0  0  0  0  0  0  0
  -23.8370  -32.1080   24.0580 O   0  0  0  0  0  0  0  0  0  0  0  0
  -23.4240  -29.4680   22.5850 C   0  0  0  0  0  0  0  0  0  0  0  0
  -22.1190  -29.2550   22.3390 N   0  0  0  0  0  0  0  0  0  0  0  0
  -24.0630  -28.7940   23.3950 O   0  0  0  0  0  0  0  0  0  0  0  0
  -21.6560  -29.8580   21.6740 H   0  0  0  0  0  0  0  0  0  0  0  0
  -18.7570  -27.9170   22.5260 C   0  0  0  0  0  0  0  0  0  0  0  0
  -21.2920  -28.2080   22.9470 C   0  0  0  0  0  3  0  0  0  0  0  0
  -21.4620  -26.8610   22.2040 C   0  0  0  0  0  2  0  0  0  0  0  0
  -20.4180  -26.6440   21.1040 C   0  0  0  0  0  2  0  0  0  0  0  0
  -19.0050  -26.6700   21.6920 C   0  0  0  0  0  2  0  0  0  0  0  0
  -19.8310  -28.6470   23.1020 C   0  0  0  0  0  0  0  0  0  0  0  0
  -19.5470  -29.8150   23.8400 C   0  0  0  0  0  3  0  0  0  0  0  0
  -18.2210  -30.2570   24.0090 C   0  0  0  0  0  3  0  0  0  0  0  0
  -17.1600  -29.5230   23.4490 C   0  0  0  0  0  3  0  0  0  0  0  0
  -17.4280  -28.3550   22.7140 C   0  0  0  0  0  3  0  0  0  0  0  0
  -26.1330  -32.6340   24.4660 C   0  0  0  0  0  3  0  0  0  0  0  0
  -25.7220  -34.0220   24.7340 N   0  0  0  0  0  0  0  0  0  0  0  0
  -26.1340  -35.0900   24.0390 C   0  0  0  0  0  0  0  0  0  0  0  0
  -26.9630  -35.0130   23.1280 O   0  0  0  0  0  0  0  0  0  0  0  0
  -24.9980  -34.1510   25.4260 H   0  0  0  0  0  0  0  0  0  0  0  0
  -24.4180  -36.8260   23.4210 C   0  0  0  0  0  1  0  0  0  0  0  0
  -25.5350  -36.4610   24.4110 C   0  0  0  0  0  3  0  0  0  0  0  0
  -27.4970  -37.4120   25.5430 C   0  0  0  0  0  1  0  0  0  0  0  0
  -26.5340  -37.5500   24.4520 N   0  0  0  0  0  0  0  0  0  0  0  0
  -26.0790  -38.4530   24.5450 H   0  0  0  0  0  0  0  0  0  0  0  0
  -26.4570  -31.8870   25.8190 C   0  0  1  0  0  0  0  0  0  0  0  0
  -25.2030  -31.5690   26.6690 C   0  0  0  0  0  1  0  0  0  0  0  0
  -27.1890  -30.5510   25.5520 C   0  0  0  0  0  1  0  0  0  0  0  0
  -27.4150  -32.7480   26.6790 C   0  0  0  0  0  1  0  0  0  0  0  0
  -31.5220  -19.9640   20.4030 C   0  0  0  0  0  3  0  0  0  0  0  0
  -32.7550  -19.1670   22.5660 C   0  0  0  0  0  1  0  0  0  0  0  0
  -31.4750  -19.7490   21.9410 C   0  0  0  0  0  2  0  0  0  0  0  0
  -31.5330  -18.4370   19.6660 C   0  0  0  0  0  2  0  0  0  0  0  0
  -32.2200  -15.7890   20.2110 C   0  0  0  0  0  0  0  0  0  0  0  0
  -32.0360  -13.3790   19.4470 C   0  0  0  0  0  2  0  0  0  0  0  0
  -31.1700  -13.3220   18.1650 C   0  0  0  0  0  2  0  0  0  0  0  0
  -29.6750  -13.2290   18.5210 C   0  0  0  0  0  2  0  0  0  0  0  0
  -29.2680  -14.2420   19.6220 C   0  0  0  0  0  3  0  0  0  0  0  0
  -30.2570  -14.2490   20.8090 C   0  0  0  0  0  2  0  0  0  0  0  0
  -31.5850  -14.5490   20.2590 N   0  0  0  0  0  0  0  0  0  0  0  0
  -33.4130  -15.7990   19.8870 O   0  0  0  0  0  0  0  0  0  0  0  0
  -31.4690  -16.9920   20.3280 N   0  0  0  0  0  0  0  0  0  0  0  0
  -30.5580  -16.8020   20.7180 H   0  0  0  0  0  0  0  0  0  0  0  0
  -26.9190  -15.0140   20.2820 C   0  0  0  0  0  0  0  0  0  0  0  0
  -25.7760  -14.3290   20.5850 C   0  0  0  0  0  0  0  0  0  0  0  0
  -26.1200  -12.9430   20.5330 C   0  0  0  0  0  0  0  0  0  0  0  0
  -27.8890  -14.0530   20.0560 N   0  0  0  0  0  0  0  0  0  0  0  0
  -27.4150  -12.7990   20.2730 N   0  0  0  0  0  0  0  0  0  0  0  0
  -25.2780  -11.7460   20.6600 C   0  0  0  0  0  0  0  0  0  0  0  0
  -25.5520  -10.7480   21.6210 C   0  0  0  0  0  3  0  0  0  0  0  0
  -24.7140   -9.6170   21.7380 C   0  0  0  0  0  3  0  0  0  0  0  0
  -23.5880   -9.4780   20.8920 C   0  0  0  0  0  0  0  0  0  0  0  0
  -23.3330  -10.4640   19.9220 C   0  0  0  0  0  3  0  0  0  0  0  0
  -24.1710  -11.5850   19.8040 C   0  0  0  0  0  3  0  0  0  0  0  0
  -22.7330   -8.4020   20.9150 O   0  0  0  0  0  0  0  0  0  0  0  0
  -22.4170   -7.7590   22.0850 C   0  0  0  0  0  0  0  0  0  0  0  0
  -21.8230   -8.4390   23.1710 C   0  0  0  0  0  3  0  0  0  0  0  0
  -21.4510   -7.7270   24.3290 C   0  0  0  0  0  3  0  0  0  0  0  0
  -21.6630   -6.3370   24.3990 C   0  0  0  0  0  0  0  0  0  0  0  0
  -22.2490   -5.6580   23.3160 C   0  0  0  0  0  3  0  0  0  0  0  0
  -22.6210   -6.3670   22.1620 C   0  0  0  0  0  0  0  0  0  0  0  0
  -23.1670   -5.7050   21.1120 F   0  0  0  0  0  0  0  0  0  0  0  0
  -21.2990   -5.6500   25.5070 F   0  0  0  0  0  0  0  0  0  0  0  0
  -24.4170  -14.9210   20.8160 C   0  0  0  0  0  0  0  0  0  0  0  0
  -23.6040  -14.2830   21.6490 N   0  0  0  0  0  0  0  0  0  0  0  0
  -24.0890  -15.9860   20.2950 O   0  0  0  0  0  0  0  0  0  0  0  0
  -23.8820  -13.4190   22.0900 H   0  0  0  0  0  0  0  0  0  0  0  0
  -22.6900  -14.6630   21.8510 H   0  0  0  0  0  0  0  0  0  0  0  0
  -27.2120  -16.3690   20.1580 N   0  0  0  0  0  0  0  0  0  0  0  0
  -26.5100  -17.0890   20.2990 H   0  0  0  0  0  0  0  0  0  0  0  0
  -28.1170  -16.7470   19.9040 H   0  0  0  0  0  0  0  0  0  0  0  0
  3  6  1  0
  3  1  1  0
  4  2  1  0
  4  9  1  0
  4  1  1  0
  5  2  1  0
  5 51  1  0
  5  3  1  0
  6  7  1  0
  8  6  2  0
  9 10  1  0
 11 22  2  0
 12 10  1  0
 12 17  1  0
 13 21  1  0
 13 23  1  0
 14 16  1  0
 15 21  1  0
 16 17  2  0
 16 15  1  0
 18 12  2  0
 19 18  1  0
 19 14  2  0
 20 14  1  0
 20 13  1  0
 21 11  1  0
 23 25  2  0
 24 23  1  0
 26 24  1  0
 27 36  2  0
 27 32  1  0
 28 24  1  0
 28 32  1  0
 29 28  1  0
 30 31  1  0
 30 29  1  0
 31 27  1  0
 32 33  2  0
 33 34  1  0
 35 34  2  0
 36 35  1  0
 37 11  1  0
 37 38  1  0
 37 47  1  0
 38 41  1  0
 39 43  1  0
 39 38  1  0
 40 39  2  0
 43 42  1  0
 43 45  1  0
 45 46  1  0
 45 44  1  0
 47 48  1  1
 47 50  1  0
 49 47  1  0
 51 54  1  0
 51 53  1  0
 53 52  1  0
 54 63  1  0
 55 61  1  0
 55 63  1  0
 56 61  1  0
 57 58  1  0
 57 56  1  0
 59 58  1  0
 59 68  1  0
 59 60  1  0
 61 60  1  0
 62 55  2  0
 63 64  1  0
 65 66  2  0
 66 85  1  0
 67 66  1  0
 67 70  1  0
 68 69  1  0
 68 65  1  0
 69 67  2  0
 70 71  1  0
 71 72  2  0
 73 76  1  0
 73 72  1  0
 74 73  2  0
 75 74  1  0
 75 70  2  0
 76 77  1  0
 77 82  2  0
 77 78  1  0
 78 79  2  0
 79 80  1  0
 80 84  1  0
 81 80  2  0
 82 81  1  0
 83 82  1  0
 85 86  1  0
 86 89  1  0
 86 88  1  0
 87 85  2  0
 90 65  1  0
 90 91  1  0
 92 90  1  0
M  ISO  4   9 101  10 101  55 100  63 100
M  END
>  <TORSDO>  (9) 
F 21

>  <SCORE>  (9) 
-9.670

>  <name>  (9) 
8

>  <ligand_id>  (9) 
8

>  <original_smiles>  (9) 
[H]c1c([H])c([H])c2c(c1[H])C([H])([H])C([H])([H])C([H])([H])C2([H])N([H])C(=O)C1([H])N(C(=O)C([H])(N([H])C(=O)C([H])(N([H])C([H])([H])[H])C([H])([H])[H])C(C([H])([H])[H])(C([H])([H])[H])C([H])([H])[H])C([H])([H])c2c([H])c(OC([H])([H])C3([H])C([H])([H])C([H])(C(=O)C([H])([H])[H])C([H])(C([H])(C([H])([H])N([H])C(=O)N4C([H])([H])C([H])([H])C([H])([H])C([H])(n5nc(-c6c([H])c([H])c(Oc7c([H])c([H])c(F)c([H])c7F)c([H])c6[H])c(C(=O)N([H])[H])c5N([H])[H])C4([H])[H])C([H])([H])C([H])([H])[H])C3([H])[H])c([H])c([H])c2C1([H])[H]

>  <smiles>  (9) 
[H]c1c([H])c([H])c2c(c1[H])C([H])([H])C([H])([H])C([H])([H])C2([H])N([H])C(=O)C1([H])N(C(=O)C([H])(N([H])C(=O)C([H])(N([H])C([H])([H])[H])C([H])([H])[H])C(C([H])([H])[H])(C([H])([H])[H])C([H])([H])[H])C([H])([H])c2c([H])c(OC([H])([H])C3([H])C([H])([H])C([H])(C(=O)C([H])([H])[H])C([H])(C([H])(C([H])([H])N([H])C(=O)N4C([H])([H])C([H])([H])C([H])([H])C([H])(n5nc(-c6c([H])c([H])c(Oc7c([H])c([H])c(F)c([H])c7F)c([H])c6[H])c(C(=O)N([H])[H])c5N([H])[H])C4([H])[H])C([H])([H])C([H])([H])[H])C3([H])[H])c([H])c([H])c2C1([H])[H]

$$$$
9:0:0
     RDKit          3D

 89 98  0  0  1  0  0  0  0  0999 V2000
  -29.4350  -20.2280   21.9750 C   0  0  0  0  0  2  0  0  0  0  0  0
  -27.9910  -21.5600   20.5260 C   0  0  0  0  0  2  0  0  0  0  0  0
  -28.6580  -19.1100   20.0500 C   0  0  0  0  0  2  0  0  0  0  0  0
  -28.1780  -20.1250   21.1110 C   0  0  0  0  0  3  0  0  0  0  0  0
  -30.2960  -20.7850   20.8220 C   0  0  0  0  0  3  0  0  0  0  0  0
  -29.3840  -22.1920   20.6660 C   0  0  0  0  0  3  0  0  0  0  0  0
  -30.1750  -19.3810   19.9170 C   0  0  0  0  0  3  0  0  0  0  0  0
  -29.6450  -23.7380   20.0730 C   0  0  0  0  0  3  0  0  0  0  0  0
  -28.6430  -25.0350   20.4470 C   0  0  0  0  0  3  0  0  0  0  0  0
  -28.7990  -26.5360   20.0900 O   0  0  0  0  0  0  0  0  0  0  0  0
  -24.6140  -31.7760   23.1390 C   0  0  0  0  0  0  0  0  0  0  0  0
  -27.6660  -27.4170   20.0580 C   0  0  0  0  0  0  0  0  0  0  0  0
  -23.5950  -30.3670   21.3900 C   0  0  0  0  0  3  0  0  0  0  0  0
  -25.2170  -28.9670   19.9770 C   0  0  0  0  0  0  0  0  0  0  0  0
  -26.1240  -30.8330   21.3550 C   0  0  0  0  0  2  0  0  0  0  0  0
  -26.3300  -29.4800   20.6570 C   0  0  0  0  0  0  0  0  0  0  0  0
  -27.5580  -28.7240   20.6780 C   0  0  0  0  0  3  0  0  0  0  0  0
  -26.5260  -26.9990   19.3420 C   0  0  0  0  0  3  0  0  0  0  0  0
  -25.3260  -27.7400   19.3040 C   0  0  0  0  0  3  0  0  0  0  0  0
  -23.9260  -29.7670   19.9980 C   0  0  0  0  0  2  0  0  0  0  0  0
  -24.7930  -31.0120   22.0180 N   0  0  0  0  0  0  0  0  0  0  0  0
  -23.4880  -31.9580   23.6250 O   0  0  0  0  0  0  0  0  0  0  0  0
  -22.9530  -29.2710   22.2800 C   0  0  0  0  0  0  0  0  0  0  0  0
  -21.6330  -29.0620   22.1340 N   0  0  0  0  0  0  0  0  0  0  0  0
  -23.6450  -28.6150   23.0620 O   0  0  0  0  0  0  0  0  0  0  0  0
  -21.1310  -29.6470   21.4810 H   0  0  0  0  0  0  0  0  0  0  0  0
  -18.2760  -27.7960   22.6280 C   0  0  0  0  0  0  0  0  0  0  0  0
  -20.8410  -28.0480   22.8370 C   0  0  0  0  0  3  0  0  0  0  0  0
  -20.9290  -26.6800   22.1210 C   0  0  0  0  0  2  0  0  0  0  0  0
  -19.7950  -26.4510   21.1170 C   0  0  0  0  0  2  0  0  0  0  0  0
  -18.4350  -26.5200   21.8180 C   0  0  0  0  0  2  0  0  0  0  0  0
  -19.4050  -28.5200   23.0930 C   0  0  0  0  0  0  0  0  0  0  0  0
  -19.2000  -29.7150   23.8170 C   0  0  0  0  0  3  0  0  0  0  0  0
  -17.9000  -30.1860   24.0770 C   0  0  0  0  0  3  0  0  0  0  0  0
  -16.7850  -29.4570   23.6280 C   0  0  0  0  0  3  0  0  0  0  0  0
  -16.9750  -28.2630   22.9090 C   0  0  0  0  0  3  0  0  0  0  0  0
  -25.8130  -32.4730   23.8500 C   0  0  0  0  0  3  0  0  0  0  0  0
  -26.2720  -31.7300   25.1640 C   0  0  1  0  0  0  0  0  0  0  0  0
  -25.1150  -31.4250   26.1430 C   0  0  0  0  0  1  0  0  0  0  0  0
  -26.9650  -30.3910   24.8240 C   0  0  0  0  0  1  0  0  0  0  0  0
  -27.3180  -32.5900   25.9130 C   0  0  0  0  0  1  0  0  0  0  0  0
  -25.4080  -33.8540   24.1570 N   0  0  0  0  0  0  0  0  0  0  0  0
  -25.7220  -34.9260   23.4160 C   0  0  0  0  0  0  0  0  0  0  0  0
  -26.4500  -34.8590   22.4220 O   0  0  0  0  0  0  0  0  0  0  0  0
  -24.7650  -33.9750   24.9260 H   0  0  0  0  0  0  0  0  0  0  0  0
  -23.9090  -36.6160   22.9860 C   0  0  0  0  0  1  0  0  0  0  0  0
  -25.1390  -36.2860   23.8460 C   0  0  0  0  0  3  0  0  0  0  0  0
  -27.1820  -37.3000   24.7550 C   0  0  0  0  0  1  0  0  0  0  0  0
  -26.1140  -37.3970   23.7660 N   0  0  0  0  0  0  0  0  0  0  0  0
  -25.6490  -38.2940   23.8870 H   0  0  0  0  0  0  0  0  0  0  0  0
  -31.1050  -18.0120   20.2680 C   0  0  0  0  0  2  0  0  0  0  0  0
  -31.3890  -15.3030   20.1730 C   0  0  0  0  0  0  0  0  0  0  0  0
  -31.2150  -12.9310   19.3200 C   0  0  0  0  0  2  0  0  0  0  0  0
  -30.2960  -12.8720   18.0790 C   0  0  0  0  0  2  0  0  0  0  0  0
  -28.8200  -12.7260   18.4960 C   0  0  0  0  0  2  0  0  0  0  0  0
  -28.4270  -13.7020   19.6380 C   0  0  0  0  0  3  0  0  0  0  0  0
  -29.4680  -13.7180   20.7750 C   0  0  0  0  0  2  0  0  0  0  0  0
  -30.7560  -14.0670   20.1640 N   0  0  0  0  0  0  0  0  0  0  0  0
  -32.5980  -15.3300   19.9240 O   0  0  0  0  0  0  0  0  0  0  0  0
  -30.6450  -16.5080   20.2570 N   0  0  0  0  0  0  0  0  0  0  0  0
  -29.6530  -16.3690   20.3830 H   0  0  0  0  0  0  0  0  0  0  0  0
  -26.0770  -14.3740   20.3990 C   0  0  0  0  0  0  0  0  0  0  0  0
  -24.9770  -13.6390   20.7470 C   0  0  0  0  0  0  0  0  0  0  0  0
  -25.3760  -12.2690   20.6750 C   0  0  0  0  0  0  0  0  0  0  0  0
  -27.0770  -13.4550   20.1300 N   0  0  0  0  0  0  0  0  0  0  0  0
  -26.6640  -12.1810   20.3620 N   0  0  0  0  0  0  0  0  0  0  0  0
  -24.5900  -11.0380   20.8260 C   0  0  0  0  0  0  0  0  0  0  0  0
  -24.9390  -10.0490   21.7720 C   0  0  0  0  0  3  0  0  0  0  0  0
  -24.1540   -8.8850   21.9130 C   0  0  0  0  0  3  0  0  0  0  0  0
  -23.0050   -8.7000   21.1060 C   0  0  0  0  0  0  0  0  0  0  0  0
  -22.6750   -9.6780   20.1510 C   0  0  0  0  0  3  0  0  0  0  0  0
  -23.4600  -10.8340   20.0080 C   0  0  0  0  0  3  0  0  0  0  0  0
  -22.1980   -7.5890   21.1560 O   0  0  0  0  0  0  0  0  0  0  0  0
  -21.9820   -6.9090   22.3260 C   0  0  0  0  0  0  0  0  0  0  0  0
  -21.4360   -7.5400   23.4660 C   0  0  0  0  0  3  0  0  0  0  0  0
  -21.1660   -6.7870   24.6260 C   0  0  0  0  0  3  0  0  0  0  0  0
  -21.4290   -5.4050   24.6460 C   0  0  0  0  0  0  0  0  0  0  0  0
  -21.9670   -4.7730   23.5110 C   0  0  0  0  0  3  0  0  0  0  0  0
  -22.2390   -5.5230   22.3540 C   0  0  0  0  0  0  0  0  0  0  0  0
  -22.7370   -4.9060   21.2540 F   0  0  0  0  0  0  0  0  0  0  0  0
  -21.1630   -4.6790   25.7580 F   0  0  0  0  0  0  0  0  0  0  0  0
  -23.6040  -14.1750   21.0310 C   0  0  0  0  0  0  0  0  0  0  0  0
  -22.8540  -13.5070   21.8990 N   0  0  0  0  0  0  0  0  0  0  0  0
  -23.2080  -15.2210   20.5180 O   0  0  0  0  0  0  0  0  0  0  0  0
  -23.1870  -12.6590   22.3340 H   0  0  0  0  0  0  0  0  0  0  0  0
  -21.9320  -13.8490   22.1340 H   0  0  0  0  0  0  0  0  0  0  0  0
  -26.3040  -15.7400   20.2610 N   0  0  0  0  0  0  0  0  0  0  0  0
  -25.5650  -16.4210   20.3960 H   0  0  0  0  0  0  0  0  0  0  0  0
  -27.1520  -16.1470   19.8910 H   0  0  0  0  0  0  0  0  0  0  0  0
  2  6  1  0
  2  4  1  0
  4  3  1  0
  4  1  1  0
  5  1  1  0
  6  8  1  0
  6  5  1  0
  7  3  1  0
  7 51  1  0
  7  5  1  0
  8  9  2  0
 10  9  1  0
 11 22  2  0
 12 10  1  0
 12 17  1  0
 13 21  1  0
 13 23  1  0
 14 20  1  0
 14 16  1  0
 15 21  1  0
 16 17  2  0
 16 15  1  0
 18 12  2  0
 19 18  1  0
 19 14  2  0
 20 13  1  0
 21 11  1  0
 23 25  2  0
 24 23  1  0
 26 24  1  0
 27 36  2  0
 27 32  1  0
 28 24  1  0
 28 32  1  0
 29 28  1  0
 30 31  1  0
 30 29  1  0
 31 27  1  0
 32 33  2  0
 33 34  1  0
 35 34  2  0
 36 35  1  0
 37 11  1  0
 37 42  1  0
 37 38  1  0
 38 41  1  1
 38 39  1  0
 40 38  1  0
 42 45  1  0
 43 47  1  0
 43 42  1  0
 44 43  2  0
 47 46  1  0
 49 47  1  0
 49 50  1  0
 49 48  1  0
 52 60  1  0
 53 58  1  0
 54 55  1  0
 54 53  1  0
 56 55  1  0
 56 65  1  0
 56 57  1  0
 58 52  1  0
 58 57  1  0
 59 52  2  0
 60 51  1  0
 60 61  1  0
 62 63  2  0
 63 82  1  0
 64 63  1  0
 64 67  1  0
 65 66  1  0
 65 62  1  0
 66 64  2  0
 67 68  1  0
 68 69  2  0
 70 73  1  0
 70 69  1  0
 71 70  2  0
 72 71  1  0
 72 67  2  0
 73 74  1  0
 74 79  2  0
 74 75  1  0
 75 76  2  0
 76 77  1  0
 77 81  1  0
 78 77  2  0
 79 78  1  0
 80 79  1  0
 82 83  1  0
 83 86  1  0
 83 85  1  0
 84 82  2  0
 87 88  1  0
 87 62  1  0
 89 87  1  0
M  ISO  4   9 101  10 101  52 100  60 100
M  END
>  <TORSDO>  (10) 
F 19

>  <SCORE>  (10) 
-11.933

>  <name>  (10) 
9

>  <ligand_id>  (10) 
9

>  <original_smiles>  (10) 
[H]c1c([H])c([H])c2c(c1[H])C([H])([H])C([H])([H])C([H])([H])C2([H])N([H])C(=O)C1([H])N(C(=O)C([H])(N([H])C(=O)C([H])(N([H])C([H])([H])[H])C([H])([H])[H])C(C([H])([H])[H])(C([H])([H])[H])C([H])([H])[H])C([H])([H])c2c([H])c(OC([H])([H])C([H])([H])C3([H])C([H])([H])C4([H])C([H])([H])C([H])(C([H])([H])N([H])C(=O)N5C([H])([H])C([H])([H])C([H])([H])C([H])(n6nc(-c7c([H])c([H])c(Oc8c([H])c([H])c(F)c([H])c8F)c([H])c7[H])c(C(=O)N([H])[H])c6N([H])[H])C5([H])[H])C3([H])C4([H])[H])c([H])c([H])c2C1([H])[H]

>  <smiles>  (10) 
[H]c1c([H])c([H])c2c(c1[H])C([H])([H])C([H])([H])C([H])([H])C2([H])N([H])C(=O)C1([H])N(C(=O)C([H])(N([H])C(=O)C([H])(N([H])C([H])([H])[H])C([H])([H])[H])C(C([H])([H])[H])(C([H])([H])[H])C([H])([H])[H])C([H])([H])c2c([H])c(OC([H])([H])C([H])([H])C3([H])C([H])([H])C4([H])C([H])([H])C([H])(C([H])([H])N([H])C(=O)N5C([H])([H])C([H])([H])C([H])([H])C([H])(n6nc(-c7c([H])c([H])c(Oc8c([H])c([H])c(F)c([H])c8F)c([H])c7[H])c(C(=O)N([H])[H])c6N([H])[H])C5([H])[H])C3([H])C4([H])[H])c([H])c([H])c2C1([H])[H]

$$$$
10:0:0
     RDKit          3D

 88 97  0  0  1  0  0  0  0  0999 V2000
  -29.1550  -22.2620   21.6640 C   0  0  0  0  0  2  0  0  0  0  0  0
  -28.5290  -19.6560   21.2750 C   0  0  0  0  0  2  0  0  0  0  0  0
  -29.5310  -20.8550   19.8710 C   0  0  0  0  0  3  0  0  0  0  0  0
  -28.7030  -22.4950   20.2440 C   0  0  0  0  0  3  0  0  0  0  0  0
  -29.2840  -18.9860   20.0770 C   0  0  0  0  0  3  0  0  0  0  0  0
  -29.5840  -20.7900   21.4130 C   0  0  1  0  0  0  0  0  0  0  0  0
  -30.9580  -20.4750   22.0520 C   0  0  0  0  0  1  0  0  0  0  0  0
  -30.7800  -17.3150   21.7620 C   0  0  0  0  0  1  0  0  0  0  0  0
  -28.4790  -16.6790   21.0970 C   0  0  0  0  0  1  0  0  0  0  0  0
  -29.8360  -17.1840   20.5320 C   0  0  1  0  0  0  0  0  0  0  0  0
  -30.4910  -15.5890   19.8560 C   0  0  0  0  0  0  0  0  0  0  0  0
  -30.5360  -13.0980   18.9210 C   0  0  0  0  0  2  0  0  0  0  0  0
  -29.5390  -12.8480   17.7500 C   0  0  0  0  0  2  0  0  0  0  0  0
  -28.1210  -12.5250   18.2570 C   0  0  0  0  0  2  0  0  0  0  0  0
  -27.7360  -13.4460   19.4370 C   0  0  0  0  0  3  0  0  0  0  0  0
  -28.8600  -13.5380   20.4900 C   0  0  0  0  0  2  0  0  0  0  0  0
  -30.0100  -14.2090   19.8310 N   0  0  0  0  0  0  0  0  0  0  0  0
  -31.6410  -15.5870   19.3820 O   0  0  0  0  0  0  0  0  0  0  0  0
  -25.4170  -13.9860   20.3440 C   0  0  0  0  0  0  0  0  0  0  0  0
  -24.3840  -13.2090   20.7660 C   0  0  0  0  0  0  0  0  0  0  0  0
  -24.8430  -11.8600   20.6730 C   0  0  0  0  0  0  0  0  0  0  0  0
  -26.4450  -13.1190   20.0160 N   0  0  0  0  0  0  0  0  0  0  0  0
  -26.1120  -11.8280   20.2780 N   0  0  0  0  0  0  0  0  0  0  0  0
  -24.1180  -10.6060   20.8790 C   0  0  0  0  0  0  0  0  0  0  0  0
  -24.5690   -9.6400   21.8050 C   0  0  0  0  0  3  0  0  0  0  0  0
  -23.8430   -8.4460   22.0020 C   0  0  0  0  0  3  0  0  0  0  0  0
  -22.6480   -8.2180   21.2790 C   0  0  0  0  0  0  0  0  0  0  0  0
  -22.2170   -9.1700   20.3360 C   0  0  0  0  0  3  0  0  0  0  0  0
  -22.9460  -10.3550   20.1400 C   0  0  0  0  0  3  0  0  0  0  0  0
  -21.8850   -7.0820   21.3880 O   0  0  0  0  0  0  0  0  0  0  0  0
  -21.8120   -6.3740   22.5610 C   0  0  0  0  0  0  0  0  0  0  0  0
  -21.3750   -6.9680   23.7640 C   0  0  0  0  0  3  0  0  0  0  0  0
  -21.2540   -6.1870   24.9310 C   0  0  0  0  0  3  0  0  0  0  0  0
  -21.5510   -4.8130   24.8920 C   0  0  0  0  0  0  0  0  0  0  0  0
  -21.9690   -4.2170   23.6900 C   0  0  0  0  0  3  0  0  0  0  0  0
  -22.0970   -4.9940   22.5250 C   0  0  0  0  0  0  0  0  0  0  0  0
  -22.4860   -4.4110   21.3670 F   0  0  0  0  0  0  0  0  0  0  0  0
  -21.4220   -4.0590   26.0080 F   0  0  0  0  0  0  0  0  0  0  0  0
  -23.0120  -13.6920   21.1350 C   0  0  0  0  0  0  0  0  0  0  0  0
  -22.3350  -12.9930   22.0360 N   0  0  0  0  0  0  0  0  0  0  0  0
  -22.5540  -14.7330   20.6610 O   0  0  0  0  0  0  0  0  0  0  0  0
  -22.7220  -12.1560   22.4460 H   0  0  0  0  0  0  0  0  0  0  0  0
  -21.4190  -13.3060   22.3260 H   0  0  0  0  0  0  0  0  0  0  0  0
  -25.5370  -15.3610   20.1820 N   0  0  0  0  0  0  0  0  0  0  0  0
  -24.7570  -15.9770   20.3870 H   0  0  0  0  0  0  0  0  0  0  0  0
  -26.3470  -15.8500   19.8270 H   0  0  0  0  0  0  0  0  0  0  0  0
  -28.5640  -24.2650   19.6770 C   0  0  0  0  0  2  0  0  0  0  0  0
  -28.3800  -25.8370   20.2820 O   0  0  0  0  0  0  0  0  0  0  0  0
  -24.6590  -31.8400   23.1430 C   0  0  0  0  0  0  0  0  0  0  0  0
  -27.3420  -26.9350   20.1520 C   0  0  0  0  0  0  0  0  0  0  0  0
  -23.5090  -30.4030   21.5100 C   0  0  0  0  0  3  0  0  0  0  0  0
  -25.0030  -28.8050   20.1060 C   0  0  0  0  0  0  0  0  0  0  0  0
  -26.0740  -30.6520   21.3760 C   0  0  0  0  0  2  0  0  0  0  0  0
  -26.1790  -29.2290   20.7310 C   0  0  0  0  0  0  0  0  0  0  0  0
  -27.3370  -28.3120   20.7340 C   0  0  0  0  0  3  0  0  0  0  0  0
  -26.1350  -26.6860   19.4610 C   0  0  0  0  0  3  0  0  0  0  0  0
  -25.0060  -27.5610   19.4510 C   0  0  0  0  0  3  0  0  0  0  0  0
  -23.7650  -29.7070   20.1410 C   0  0  0  0  0  2  0  0  0  0  0  0
  -24.7710  -30.9950   22.0660 N   0  0  0  0  0  0  0  0  0  0  0  0
  -23.5590  -32.1100   23.6540 O   0  0  0  0  0  0  0  0  0  0  0  0
  -22.8260  -29.4090   22.4880 C   0  0  0  0  0  0  0  0  0  0  0  0
  -21.4980  -29.2270   22.3710 N   0  0  0  0  0  0  0  0  0  0  0  0
  -23.5000  -28.7990   23.3220 O   0  0  0  0  0  0  0  0  0  0  0  0
  -20.9990  -29.7720   21.6790 H   0  0  0  0  0  0  0  0  0  0  0  0
  -18.1340  -27.9670   22.9100 C   0  0  0  0  0  0  0  0  0  0  0  0
  -20.6940  -28.2760   23.1500 C   0  0  0  0  0  3  0  0  0  0  0  0
  -20.8110  -26.8440   22.5750 C   0  0  0  0  0  2  0  0  0  0  0  0
  -19.7040  -26.5060   21.5710 C   0  0  0  0  0  2  0  0  0  0  0  0
  -18.3270  -26.6230   22.2290 C   0  0  0  0  0  2  0  0  0  0  0  0
  -19.2450  -28.7490   23.3300 C   0  0  0  0  0  0  0  0  0  0  0  0
  -19.0040  -30.0020   23.9360 C   0  0  0  0  0  3  0  0  0  0  0  0
  -17.6910  -30.4740   24.1220 C   0  0  0  0  0  3  0  0  0  0  0  0
  -16.5970  -29.6890   23.7170 C   0  0  0  0  0  3  0  0  0  0  0  0
  -16.8210  -28.4390   23.1150 C   0  0  0  0  0  3  0  0  0  0  0  0
  -25.9070  -32.5230   23.7800 C   0  0  0  0  0  3  0  0  0  0  0  0
  -25.5560  -33.9210   24.0860 N   0  0  0  0  0  0  0  0  0  0  0  0
  -25.8680  -34.9800   23.3250 C   0  0  0  0  0  0  0  0  0  0  0  0
  -26.5400  -34.8830   22.2940 O   0  0  0  0  0  0  0  0  0  0  0  0
  -24.9540  -34.0710   24.8810 H   0  0  0  0  0  0  0  0  0  0  0  0
  -24.1050  -36.7460   22.9700 C   0  0  0  0  0  1  0  0  0  0  0  0
  -25.3600  -36.3650   23.7730 C   0  0  0  0  0  3  0  0  0  0  0  0
  -27.4780  -37.3110   24.5770 C   0  0  0  0  0  1  0  0  0  0  0  0
  -26.3670  -37.4390   23.6400 N   0  0  0  0  0  0  0  0  0  0  0  0
  -25.9380  -38.3490   23.7800 H   0  0  0  0  0  0  0  0  0  0  0  0
  -26.4120  -31.7980   25.0900 C   0  0  1  0  0  0  0  0  0  0  0  0
  -25.3060  -31.5620   26.1470 C   0  0  0  0  0  1  0  0  0  0  0  0
  -27.0240  -30.4200   24.7500 C   0  0  0  0  0  1  0  0  0  0  0  0
  -27.5380  -32.6290   25.7510 C   0  0  0  0  0  1  0  0  0  0  0  0
  2  6  1  0
  3  5  1  0
  3  4  1  0
  3  6  1  0
  4  1  1  0
  5 10  1  0
  5  2  1  0
  6  1  1  0
  6  7  1  6
 10  9  1  1
 10  8  1  0
 11 10  1  0
 12 17  1  0
 13 14  1  0
 13 12  1  0
 14 15  1  0
 15 22  1  0
 15 16  1  0
 17 11  1  0
 17 16  1  0
 18 11  2  0
 19 20  2  0
 20 39  1  0
 21 20  1  0
 21 24  1  0
 22 23  1  0
 22 19  1  0
 23 21  2  0
 24 25  1  0
 25 26  2  0
 27 30  1  0
 27 26  1  0
 28 27  2  0
 29 28  1  0
 29 24  2  0
 30 31  1  0
 31 32  1  0
 32 33  2  0
 34 33  1  0
 34 38  1  0
 35 34  2  0
 36 31  2  0
 36 35  1  0
 37 36  1  0
 39 40  1  0
 40 43  1  0
 40 42  1  0
 41 39  2  0
 44 19  1  0
 44 45  1  0
 46 44  1  0
 47  4  1  0
 47 48  1  0
 49 60  2  0
 49 75  1  0
 50 48  1  0
 50 55  1  0
 51 59  1  0
 51 61  1  0
 52 58  1  0
 52 54  1  0
 53 59  1  0
 54 55  2  0
 54 53  1  0
 56 50  2  0
 57 56  1  0
 57 52  2  0
 58 51  1  0
 59 49  1  0
 61 63  2  0
 62 61  1  0
 62 66  1  0
 64 62  1  0
 65 74  2  0
 65 70  1  0
 66 70  1  0
 67 66  1  0
 68 69  1  0
 68 67  1  0
 69 65  1  0
 70 71  2  0
 71 72  1  0
 73 72  2  0
 74 73  1  0
 75 76  1  0
 75 85  1  0
 76 79  1  0
 77 81  1  0
 77 76  1  0
 78 77  2  0
 80 81  1  0
 83 81  1  0
 83 84  1  0
 83 82  1  0
 85 88  1  1
 85 86  1  0
 87 85  1  0
M  ISO  4  10 100  11 100  47 101  48 101
M  END
>  <TORSDO>  (11) 
F 18

>  <SCORE>  (11) 
-15.660

>  <name>  (11) 
10

>  <ligand_id>  (11) 
10

>  <original_smiles>  (11) 
[H]c1c([H])c([H])c2c(c1[H])C([H])([H])C([H])([H])C([H])([H])C2([H])N([H])C(=O)C1([H])N(C(=O)C([H])(N([H])C(=O)C([H])(N([H])C([H])([H])[H])C([H])([H])[H])C(C([H])([H])[H])(C([H])([H])[H])C([H])([H])[H])C([H])([H])c2c([H])c(OC([H])([H])C3([H])C([H])([H])C4(C([H])([H])[H])C([H])([H])C([H])(C(C(=O)N5C([H])([H])C([H])([H])C([H])([H])C([H])(n6nc(-c7c([H])c([H])c(Oc8c([H])c([H])c(F)c([H])c8F)c([H])c7[H])c(C(=O)N([H])[H])c6N([H])[H])C5([H])[H])(C([H])([H])[H])C([H])([H])[H])C34[H])c([H])c([H])c2C1([H])[H]

>  <smiles>  (11) 
[H]c1c([H])c([H])c2c(c1[H])C([H])([H])C([H])([H])C([H])([H])C2([H])N([H])C(=O)C1([H])N(C(=O)C([H])(N([H])C(=O)C([H])(N([H])C([H])([H])[H])C([H])([H])[H])C(C([H])([H])[H])(C([H])([H])[H])C([H])([H])[H])C([H])([H])c2c([H])c(OC([H])([H])C3([H])C([H])([H])C4(C([H])([H])[H])C([H])([H])C([H])(C(C(=O)N5C([H])([H])C([H])([H])C([H])([H])C([H])(n6nc(-c7c([H])c([H])c(Oc8c([H])c([H])c(F)c([H])c8F)c([H])c7[H])c(C(=O)N([H])[H])c6N([H])[H])C5([H])[H])(C([H])([H])[H])C([H])([H])[H])C34[H])c([H])c([H])c2C1([H])[H]

$$$$
11:0:0
     RDKit          3D

 89 98  0  0  1  0  0  0  0  0999 V2000
  -28.9730  -21.0960   19.2400 C   0  0  0  0  0  2  0  0  0  0  0  0
  -29.9820  -19.6930   18.9770 C   0  0  0  0  0  0  0  0  0  0  0  0
  -31.1670  -19.9580   18.7600 O   0  0  0  0  0  0  0  0  0  0  0  0
  -30.9550  -15.3600   19.5170 C   0  0  0  0  0  0  0  0  0  0  0  0
  -30.9830  -12.8180   18.9520 C   0  0  0  0  0  2  0  0  0  0  0  0
  -30.0380  -12.4370   17.7800 C   0  0  0  0  0  2  0  0  0  0  0  0
  -28.6020  -12.1950   18.2760 C   0  0  0  0  0  2  0  0  0  0  0  0
  -28.1600  -13.2850   19.2790 C   0  0  0  0  0  3  0  0  0  0  0  0
  -29.2230  -13.5500   20.3580 C   0  0  0  0  0  2  0  0  0  0  0  0
  -30.4400  -14.0340   19.6730 N   0  0  0  0  0  0  0  0  0  0  0  0
  -32.0990  -15.3750   19.0410 O   0  0  0  0  0  0  0  0  0  0  0  0
  -27.9280  -18.7770   20.9890 C   0  0  0  0  0  2  0  0  0  0  0  0
  -29.6990  -16.7440   21.1360 C   0  0  0  0  0  2  0  0  0  0  0  0
  -29.5480  -17.9530   18.9860 C   0  0  0  0  0  3  0  0  0  0  0  0
  -28.2900  -17.3260   21.0290 C   0  0  0  0  0  3  0  0  0  0  0  0
  -28.1830  -18.0150   19.6970 C   0  0  0  0  0  3  0  0  0  0  0  0
  -30.1950  -16.6130   19.7590 N   0  0  0  0  0  0  0  0  0  0  0  0
  -25.8570  -13.9350   20.1710 C   0  0  0  0  0  0  0  0  0  0  0  0
  -24.7940  -13.1980   20.6070 C   0  0  0  0  0  0  0  0  0  0  0  0
  -25.2040  -11.8310   20.5320 C   0  0  0  0  0  0  0  0  0  0  0  0
  -26.8490  -13.0230   19.8570 N   0  0  0  0  0  0  0  0  0  0  0  0
  -26.4690  -11.7490   20.1410 N   0  0  0  0  0  0  0  0  0  0  0  0
  -24.4380  -10.5970   20.7510 C   0  0  0  0  0  0  0  0  0  0  0  0
  -24.8010   -9.6680   21.7500 C   0  0  0  0  0  3  0  0  0  0  0  0
  -24.0340   -8.5010   21.9540 C   0  0  0  0  0  3  0  0  0  0  0  0
  -22.8900   -8.2550   21.1570 C   0  0  0  0  0  0  0  0  0  0  0  0
  -22.5490   -9.1690   20.1450 C   0  0  0  0  0  3  0  0  0  0  0  0
  -23.3180  -10.3270   19.9400 C   0  0  0  0  0  3  0  0  0  0  0  0
  -22.1000   -7.1360   21.2660 O   0  0  0  0  0  0  0  0  0  0  0  0
  -21.8360   -6.5580   22.4820 C   0  0  0  0  0  0  0  0  0  0  0  0
  -21.2380   -7.2810   23.5360 C   0  0  0  0  0  3  0  0  0  0  0  0
  -20.9190   -6.6320   24.7450 C   0  0  0  0  0  3  0  0  0  0  0  0
  -21.1880   -5.2570   24.8990 C   0  0  0  0  0  0  0  0  0  0  0  0
  -21.7780   -4.5340   23.8470 C   0  0  0  0  0  3  0  0  0  0  0  0
  -22.0990   -5.1810   22.6420 C   0  0  0  0  0  0  0  0  0  0  0  0
  -22.6470   -4.4760   21.6240 F   0  0  0  0  0  0  0  0  0  0  0  0
  -20.8740   -4.6310   26.0560 F   0  0  0  0  0  0  0  0  0  0  0  0
  -23.4370  -13.7270   20.9700 C   0  0  0  0  0  0  0  0  0  0  0  0
  -22.7500  -13.0660   21.8960 N   0  0  0  0  0  0  0  0  0  0  0  0
  -22.9980  -14.7590   20.4670 O   0  0  0  0  0  0  0  0  0  0  0  0
  -23.1240  -12.2310   22.3230 H   0  0  0  0  0  0  0  0  0  0  0  0
  -21.8410  -13.4010   22.1830 H   0  0  0  0  0  0  0  0  0  0  0  0
  -26.0510  -15.3000   19.9830 N   0  0  0  0  0  0  0  0  0  0  0  0
  -25.3140  -15.9770   20.1480 H   0  0  0  0  0  0  0  0  0  0  0  0
  -26.9040  -15.7190   19.6410 H   0  0  0  0  0  0  0  0  0  0  0  0
  -29.9660  -22.8010   21.0270 C   0  0  0  0  0  1  0  0  0  0  0  0
  -29.3170  -22.8090   19.6380 C   0  0  0  0  0  3  0  0  0  0  0  0
  -28.2880  -24.2710   19.6240 C   0  0  0  0  0  2  0  0  0  0  0  0
  -28.5300  -25.8440   19.9970 O   0  0  0  0  0  0  0  0  0  0  0  0
  -25.0220  -31.5720   23.3690 C   0  0  0  0  0  0  0  0  0  0  0  0
  -27.5220  -26.9310   20.0020 C   0  0  0  0  0  0  0  0  0  0  0  0
  -23.8080  -30.3110   21.6380 C   0  0  0  0  0  3  0  0  0  0  0  0
  -25.2360  -28.8020   20.1000 C   0  0  0  0  0  0  0  0  0  0  0  0
  -26.3740  -30.5210   21.4910 C   0  0  0  0  0  2  0  0  0  0  0  0
  -26.4300  -29.1650   20.7360 C   0  0  0  0  0  0  0  0  0  0  0  0
  -27.5690  -28.2510   20.6630 C   0  0  0  0  0  3  0  0  0  0  0  0
  -26.2980  -26.7130   19.3330 C   0  0  0  0  0  3  0  0  0  0  0  0
  -25.1910  -27.5970   19.3820 C   0  0  0  0  0  3  0  0  0  0  0  0
  -24.0260  -29.7240   20.2170 C   0  0  0  0  0  2  0  0  0  0  0  0
  -25.0890  -30.8240   22.2220 N   0  0  0  0  0  0  0  0  0  0  0  0
  -23.9380  -31.8310   23.9170 O   0  0  0  0  0  0  0  0  0  0  0  0
  -23.1100  -29.2540   22.5330 C   0  0  0  0  0  0  0  0  0  0  0  0
  -21.7950  -29.0400   22.3340 N   0  0  0  0  0  0  0  0  0  0  0  0
  -23.7600  -28.6240   23.3710 O   0  0  0  0  0  0  0  0  0  0  0  0
  -21.3240  -29.6020   21.6400 H   0  0  0  0  0  0  0  0  0  0  0  0
  -18.4600  -27.6370   22.5810 C   0  0  0  0  0  0  0  0  0  0  0  0
  -20.9750  -28.0420   23.0300 C   0  0  0  0  0  3  0  0  0  0  0  0
  -21.1970  -26.6290   22.4400 C   0  0  0  0  0  2  0  0  0  0  0  0
  -20.1900  -26.2650   21.3450 C   0  0  0  0  0  2  0  0  0  0  0  0
  -18.7600  -26.3180   21.8920 C   0  0  0  0  0  2  0  0  0  0  0  0
  -19.5000  -28.4540   23.1000 C   0  0  0  0  0  0  0  0  0  0  0  0
  -19.1640  -29.6870   23.7000 C   0  0  0  0  0  3  0  0  0  0  0  0
  -17.8230  -30.1040   23.7870 C   0  0  0  0  0  3  0  0  0  0  0  0
  -16.7970  -29.2850   23.2820 C   0  0  0  0  0  3  0  0  0  0  0  0
  -17.1160  -28.0520   22.6870 C   0  0  0  0  0  3  0  0  0  0  0  0
  -26.3030  -32.1550   24.0420 C   0  0  0  0  0  3  0  0  0  0  0  0
  -26.7350  -31.3650   25.3390 C   0  0  1  0  0  0  0  0  0  0  0  0
  -25.5910  -31.1720   26.3640 C   0  0  0  0  0  1  0  0  0  0  0  0
  -27.2770  -29.9650   24.9740 C   0  0  0  0  0  1  0  0  0  0  0  0
  -27.8890  -32.1130   26.0480 C   0  0  0  0  0  1  0  0  0  0  0  0
  -26.0360  -33.5660   24.3740 N   0  0  0  0  0  0  0  0  0  0  0  0
  -26.3880  -34.6120   23.6130 C   0  0  0  0  0  0  0  0  0  0  0  0
  -27.0300  -34.4880   22.5680 O   0  0  0  0  0  0  0  0  0  0  0  0
  -25.4620  -33.7370   25.1870 H   0  0  0  0  0  0  0  0  0  0  0  0
  -24.7040  -36.4620   23.3190 C   0  0  0  0  0  1  0  0  0  0  0  0
  -25.9600  -36.0170   24.0860 C   0  0  0  0  0  3  0  0  0  0  0  0
  -28.1430  -36.8490   24.8480 C   0  0  0  0  0  1  0  0  0  0  0  0
  -27.0190  -37.0400   23.9320 N   0  0  0  0  0  0  0  0  0  0  0  0
  -26.6450  -37.9720   24.0820 H   0  0  0  0  0  0  0  0  0  0  0  0
  1 47  1  0
  2  1  1  0
  3  2  2  0
  4 10  1  0
  4 17  1  0
  5 10  1  0
  6  7  1  0
  6  5  1  0
  8  7  1  0
  8 21  1  0
  8  9  1  0
 10  9  1  0
 11  4  2  0
 14  2  1  0
 14 16  1  0
 14 17  1  0
 15 12  1  0
 15 13  1  0
 16 12  1  0
 16 15  1  0
 17 13  1  0
 18 19  2  0
 19 38  1  0
 20 19  1  0
 20 23  1  0
 21 22  1  0
 21 18  1  0
 22 20  2  0
 23 24  1  0
 24 25  2  0
 26 29  1  0
 26 25  1  0
 27 26  2  0
 28 27  1  0
 28 23  2  0
 29 30  1  0
 30 35  2  0
 30 31  1  0
 31 32  2  0
 32 33  1  0
 33 37  1  0
 34 33  2  0
 35 34  1  0
 36 35  1  0
 38 39  1  0
 39 42  1  0
 39 41  1  0
 40 38  2  0
 43 44  1  0
 43 18  1  0
 45 43  1  0
 47 46  1  0
 48 47  1  0
 48 49  1  0
 49 51  1  0
 50 61  2  0
 51 56  1  0
 52 60  1  0
 52 62  1  0
 53 59  1  0
 53 55  1  0
 54 60  1  0
 55 54  1  0
 56 55  2  0
 57 58  1  0
 57 51  2  0
 58 53  2  0
 59 52  1  0
 60 50  1  0
 62 64  2  0
 63 62  1  0
 65 63  1  0
 66 75  2  0
 66 71  1  0
 67 63  1  0
 67 71  1  0
 68 67  1  0
 69 70  1  0
 69 68  1  0
 70 66  1  0
 71 72  2  0
 72 73  1  0
 74 73  2  0
 75 74  1  0
 76 50  1  0
 76 81  1  0
 76 77  1  0
 77 80  1  1
 77 78  1  0
 79 77  1  0
 81 84  1  0
 82 86  1  0
 82 81  1  0
 83 82  2  0
 86 85  1  0
 88 89  1  0
 88 86  1  0
 88 87  1  0
M  ISO  4   4 100  17 100  48 101  49 101
M  END
>  <TORSDO>  (12) 
F 19

>  <SCORE>  (12) 
-13.221

>  <name>  (12) 
11

>  <ligand_id>  (12) 
11

>  <original_smiles>  (12) 
[H]c1c([H])c([H])c2c(c1[H])C([H])([H])C([H])([H])C([H])([H])C2([H])N([H])C(=O)C1([H])N(C(=O)C([H])(N([H])C(=O)C([H])(N([H])C([H])([H])[H])C([H])([H])[H])C(C([H])([H])[H])(C([H])([H])[H])C([H])([H])[H])C([H])([H])c2c([H])c(OC([H])([H])C([H])(C([H])([H])[H])C([H])([H])C(=O)C3([H])N(C(=O)N4C([H])([H])C([H])([H])C([H])([H])C([H])(n5nc(-c6c([H])c([H])c(Oc7c([H])c([H])c(F)c([H])c7F)c([H])c6[H])c(C(=O)N([H])[H])c5N([H])[H])C4([H])[H])C([H])([H])C4([H])C([H])([H])C34[H])c([H])c([H])c2C1([H])[H]

>  <smiles>  (12) 
[H]c1c([H])c([H])c2c(c1[H])C([H])([H])C([H])([H])C([H])([H])C2([H])N([H])C(=O)C1([H])N(C(=O)C([H])(N([H])C(=O)C([H])(N([H])C([H])([H])[H])C([H])([H])[H])C(C([H])([H])[H])(C([H])([H])[H])C([H])([H])[H])C([H])([H])c2c([H])c(OC([H])([H])C([H])(C([H])([H])[H])C([H])([H])C(=O)C3([H])N(C(=O)N4C([H])([H])C([H])([H])C([H])([H])C([H])(n5nc(-c6c([H])c([H])c(Oc7c([H])c([H])c(F)c([H])c7F)c([H])c6[H])c(C(=O)N([H])[H])c5N([H])[H])C4([H])[H])C([H])([H])C4([H])C([H])([H])C34[H])c([H])c([H])c2C1([H])[H]

$$$$
12:0:0
     RDKit          3D

 99106  0  0  1  0  0  0  0  0999 V2000
  -30.6450  -18.1140   21.6710 C   0  0  0  0  0  2  0  0  0  0  0  0
  -30.3630  -19.6760   21.7760 C   0  0  0  0  0  2  0  0  0  0  0  0
  -30.9650  -20.6350   20.6880 C   0  0  0  0  0  2  0  0  0  0  0  0
  -30.1210  -21.7980   20.2220 N   0  0  0  0  0  4  0  0  0  0  0  0
  -29.2240  -21.4510   19.9240 H   0  0  0  0  0  0  0  0  0  0  0  0
  -30.5890  -22.1260   19.3920 H   0  0  0  0  0  0  0  0  0  0  0  0
  -29.9030  -23.0170   21.0760 C   0  0  0  0  0  2  0  0  0  0  0  0
  -29.3850  -24.2740   20.2570 C   0  0  0  0  0  3  0  0  0  0  0  0
  -28.7390  -25.4680   21.0530 C   0  0  0  0  0  3  0  0  0  0  0  0
  -28.6900  -26.7350   20.3350 O   0  0  0  0  0  0  0  0  0  0  0  0
  -24.6450  -31.9090   23.2380 C   0  0  0  0  0  0  0  0  0  0  0  0
  -27.4990  -27.4520   20.3310 C   0  0  0  0  0  0  0  0  0  0  0  0
  -23.5300  -30.4580   21.5760 C   0  0  0  0  0  3  0  0  0  0  0  0
  -25.0670  -28.9260   20.2260 C   0  0  0  0  0  0  0  0  0  0  0  0
  -26.0530  -30.8710   21.4500 C   0  0  0  0  0  2  0  0  0  0  0  0
  -26.1950  -29.4860   20.8410 C   0  0  0  0  0  0  0  0  0  0  0  0
  -27.4150  -28.7590   20.8770 C   0  0  0  0  0  3  0  0  0  0  0  0
  -26.3490  -26.9140   19.7140 C   0  0  0  0  0  3  0  0  0  0  0  0
  -25.1400  -27.6390   19.6590 C   0  0  0  0  0  3  0  0  0  0  0  0
  -23.8060  -29.7670   20.2130 C   0  0  0  0  0  2  0  0  0  0  0  0
  -24.7590  -31.0960   22.1480 N   0  0  0  0  0  0  0  0  0  0  0  0
  -23.5400  -32.1600   23.7410 O   0  0  0  0  0  0  0  0  0  0  0  0
  -22.8680  -29.4350   22.5270 C   0  0  0  0  0  0  0  0  0  0  0  0
  -21.5520  -29.2220   22.3620 N   0  0  0  0  0  0  0  0  0  0  0  0
  -23.5370  -28.8340   23.3730 O   0  0  0  0  0  0  0  0  0  0  0  0
  -21.0750  -29.7600   21.6520 H   0  0  0  0  0  0  0  0  0  0  0  0
  -18.1940  -27.9490   22.7610 C   0  0  0  0  0  0  0  0  0  0  0  0
  -20.7330  -28.2770   23.1190 C   0  0  0  0  0  3  0  0  0  0  0  0
  -20.8940  -26.8410   22.5710 C   0  0  0  0  0  2  0  0  0  0  0  0
  -19.8370  -26.4750   21.5230 C   0  0  0  0  0  2  0  0  0  0  0  0
  -18.4280  -26.5950   22.1150 C   0  0  0  0  0  2  0  0  0  0  0  0
  -19.2770  -28.7450   23.2190 C   0  0  0  0  0  0  0  0  0  0  0  0
  -19.0070  -30.0110   23.7830 C   0  0  0  0  0  3  0  0  0  0  0  0
  -17.6840  -30.4790   23.8990 C   0  0  0  0  0  3  0  0  0  0  0  0
  -16.6140  -29.6810   23.4600 C   0  0  0  0  0  3  0  0  0  0  0  0
  -16.8700  -28.4200   22.8930 C   0  0  0  0  0  3  0  0  0  0  0  0
  -25.8940  -32.5780   23.8930 C   0  0  0  0  0  3  0  0  0  0  0  0
  -25.5390  -33.9710   24.2010 N   0  0  0  0  0  0  0  0  0  0  0  0
  -25.8760  -35.0260   23.4480 C   0  0  0  0  0  0  0  0  0  0  0  0
  -26.5870  -34.9300   22.4430 O   0  0  0  0  0  0  0  0  0  0  0  0
  -24.9050  -34.1140   24.9740 H   0  0  0  0  0  0  0  0  0  0  0  0
  -24.1220  -36.7760   23.0130 C   0  0  0  0  0  1  0  0  0  0  0  0
  -25.3400  -36.4060   23.8750 C   0  0  0  0  0  3  0  0  0  0  0  0
  -27.4200  -37.3430   24.7820 C   0  0  0  0  0  1  0  0  0  0  0  0
  -26.3520  -37.4810   23.7960 N   0  0  0  0  0  0  0  0  0  0  0  0
  -25.9180  -38.3910   23.9240 H   0  0  0  0  0  0  0  0  0  0  0  0
  -26.3930  -31.8290   25.1900 C   0  0  1  0  0  0  0  0  0  0  0  0
  -25.2750  -31.5650   26.2250 C   0  0  0  0  0  1  0  0  0  0  0  0
  -27.0340  -30.4710   24.8220 C   0  0  0  0  0  1  0  0  0  0  0  0
  -27.4970  -32.6630   25.8830 C   0  0  0  0  0  1  0  0  0  0  0  0
  -29.9240  -17.2610   20.5540 C   0  0  0  0  0  3  0  0  0  0  0  0
  -30.6030  -14.7630   20.4700 C   0  0  0  0  0  0  0  0  0  0  0  0
  -30.3890  -12.5940   19.2930 C   0  0  0  0  0  2  0  0  0  0  0  0
  -29.4320  -12.7920   18.0970 C   0  0  0  0  0  2  0  0  0  0  0  0
  -27.9680  -12.5800   18.5320 C   0  0  0  0  0  2  0  0  0  0  0  0
  -27.6160  -13.3610   19.8220 C   0  0  0  0  0  3  0  0  0  0  0  0
  -28.6860  -13.1700   20.9200 C   0  0  0  0  0  2  0  0  0  0  0  0
  -29.9890  -13.5460   20.3470 N   0  0  0  0  0  0  0  0  0  0  0  0
  -31.7480  -14.9590   20.0510 O   0  0  0  0  0  0  0  0  0  0  0  0
  -29.8090  -15.7960   20.8710 N   0  0  0  0  0  0  0  0  0  0  0  0
  -28.9120  -15.5000   21.2250 H   0  0  0  0  0  0  0  0  0  0  0  0
  -25.1930  -13.9210   20.5030 C   0  0  0  0  0  0  0  0  0  0  0  0
  -24.1480  -13.1320   20.8840 C   0  0  0  0  0  0  0  0  0  0  0  0
  -24.6410  -11.7920   20.8560 C   0  0  0  0  0  0  0  0  0  0  0  0
  -26.2660  -13.0660   20.2920 N   0  0  0  0  0  0  0  0  0  0  0  0
  -25.9330  -11.7800   20.5590 N   0  0  0  0  0  0  0  0  0  0  0  0
  -23.9450  -10.5150   21.0330 C   0  0  0  0  0  0  0  0  0  0  0  0
  -24.3780   -9.5700   21.9870 C   0  0  0  0  0  3  0  0  0  0  0  0
  -23.6840   -8.3540   22.1550 C   0  0  0  0  0  3  0  0  0  0  0  0
  -22.5410   -8.0740   21.3690 C   0  0  0  0  0  0  0  0  0  0  0  0
  -22.1280   -9.0080   20.4020 C   0  0  0  0  0  3  0  0  0  0  0  0
  -22.8250  -10.2160   20.2310 C   0  0  0  0  0  3  0  0  0  0  0  0
  -21.8180   -6.9100   21.4480 O   0  0  0  0  0  0  0  0  0  0  0  0
  -21.7400   -6.1920   22.6150 C   0  0  0  0  0  0  0  0  0  0  0  0
  -21.2460   -6.7640   23.8080 C   0  0  0  0  0  3  0  0  0  0  0  0
  -21.1180   -5.9730   24.9660 C   0  0  0  0  0  3  0  0  0  0  0  0
  -21.4720   -4.6110   24.9320 C   0  0  0  0  0  0  0  0  0  0  0  0
  -21.9580   -4.0380   23.7440 C   0  0  0  0  0  3  0  0  0  0  0  0
  -22.0880   -4.8280   22.5870 C   0  0  0  0  0  0  0  0  0  0  0  0
  -22.5380   -4.2670   21.4380 F   0  0  0  0  0  0  0  0  0  0  0  0
  -21.3400   -3.8470   26.0420 F   0  0  0  0  0  0  0  0  0  0  0  0
  -22.7370  -13.5780   21.1330 C   0  0  0  0  0  0  0  0  0  0  0  0
  -22.0120  -12.8740   21.9950 N   0  0  0  0  0  0  0  0  0  0  0  0
  -22.2900  -14.5920   20.5960 O   0  0  0  0  0  0  0  0  0  0  0  0
  -22.3870  -12.0560   22.4530 H   0  0  0  0  0  0  0  0  0  0  0  0
  -21.0640  -13.1580   22.2020 H   0  0  0  0  0  0  0  0  0  0  0  0
  -25.2900  -15.2850   20.2450 N   0  0  0  0  0  0  0  0  0  0  0  0
  -24.3130  -15.5620   20.1980 H   0  0  0  0  0  0  0  0  0  0  0  0
  -25.7130  -15.2880   19.3240 H   0  0  0  0  0  0  0  0  0  0  0  0
  -28.5310  -17.9000   20.2820 C   0  0  0  0  0  2  0  0  0  0  0  0
  -27.6870  -17.4800   19.0640 C   0  0  0  0  0  3  0  0  0  0  0  0
  -28.4560  -17.6090   17.8360 N   0  0  0  0  0  0  0  0  0  0  0  0
  -28.6070  -18.5850   17.6070 H   0  0  0  0  0  0  0  0  0  0  0  0
  -27.9200  -17.2460   17.0530 H   0  0  0  0  0  0  0  0  0  0  0  0
  -26.3690  -18.2960   18.9750 C   0  0  0  0  0  2  0  0  0  0  0  0
  -25.5680  -18.1840   20.2070 N   0  0  0  0  0  4  0  0  0  0  0  0
  -25.4560  -17.2110   20.4640 H   0  0  0  0  0  0  0  0  0  0  0  0
  -24.6620  -18.5990   20.0770 H   0  0  0  0  0  0  0  0  0  0  0  0
  -26.0210  -18.6580   20.9670 H   0  0  0  0  0  0  0  0  0  0  0  0
  1  2  1  0
  3  2  1  0
  4  3  1  0
  4  7  1  0
  5  4  1  0
  6  4  1  0
  8  9  2  0
  8  7  1  0
 10  9  1  0
 11 22  2  0
 12 10  1  0
 12 17  1  0
 13 21  1  0
 13 23  1  0
 14 16  1  0
 15 21  1  0
 16 17  2  0
 16 15  1  0
 18 12  2  0
 19 18  1  0
 19 14  2  0
 20 14  1  0
 20 13  1  0
 21 11  1  0
 23 25  2  0
 24 23  1  0
 26 24  1  0
 27 36  2  0
 27 32  1  0
 28 24  1  0
 28 32  1  0
 29 28  1  0
 30 31  1  0
 30 29  1  0
 31 27  1  0
 32 33  2  0
 33 34  1  0
 35 34  2  0
 36 35  1  0
 37 11  1  0
 37 38  1  0
 37 47  1  0
 38 41  1  0
 39 43  1  0
 39 38  1  0
 40 39  2  0
 43 42  1  0
 45 43  1  0
 45 46  1  0
 45 44  1  0
 47 50  1  1
 47 48  1  0
 49 47  1  0
 51 90  1  0
 51 60  1  0
 51  1  1  0
 52 60  1  0
 53 58  1  0
 54 55  1  0
 54 53  1  0
 56 55  1  0
 56 65  1  0
 56 57  1  0
 58 52  1  0
 58 57  1  0
 59 52  2  0
 60 61  1  0
 62 63  2  0
 63 82  1  0
 64 63  1  0
 64 67  1  0
 65 62  1  0
 65 66  1  0
 66 64  2  0
 67 68  1  0
 68 69  2  0
 70 73  1  0
 70 69  1  0
 71 70  2  0
 72 71  1  0
 72 67  2  0
 73 74  1  0
 74 75  1  0
 75 76  2  0
 77 76  1  0
 77 81  1  0
 78 77  2  0
 79 74  2  0
 79 78  1  0
 80 79  1  0
 82 83  1  0
 83 86  1  0
 83 85  1  0
 84 82  2  0
 87 62  1  0
 88 87  1  0
 89 87  1  0
 91 95  1  0
 91 90  1  0
 92 91  1  0
 93 92  1  0
 94 92  1  0
 95 96  1  0
 96 97  1  0
 96 99  1  0
 98 96  1  0
M  ISO  4   9 101  10 101  52 100  60 100
M  END
>  <TORSDO>  (13) 
F 28

>  <SCORE>  (13) 
-11.447

>  <name>  (13) 
12

>  <ligand_id>  (13) 
12

>  <original_smiles>  (13) 
[H]c1c([H])c([H])c2c(c1[H])C([H])([H])C([H])([H])C([H])([H])C2([H])N([H])C(=O)C1([H])N(C(=O)C([H])(N([H])C(=O)C([H])(N([H])C([H])([H])[H])C([H])([H])[H])C(C([H])([H])[H])(C([H])([H])[H])C([H])([H])[H])C([H])([H])c2c([H])c(OC([H])([H])C([H])([H])C([H])([H])[N+]([H])([H])C([H])([H])C([H])([H])C([H])([H])C([H])(N([H])C(=O)N3C([H])([H])C([H])([H])C([H])([H])C([H])(n4nc(-c5c([H])c([H])c(Oc6c([H])c([H])c(F)c([H])c6F)c([H])c5[H])c(C(=O)N([H])[H])c4N([H])[H])C3([H])[H])C([H])([H])C([H])(N([H])[H])C([H])([H])[N+]([H])([H])[H])c([H])c([H])c2C1([H])[H]

>  <smiles>  (13) 
[H]c1c([H])c([H])c2c(c1[H])C([H])([H])C([H])([H])C([H])([H])C2([H])N([H])C(=O)C1([H])N(C(=O)C([H])(N([H])C(=O)C([H])(N([H])C([H])([H])[H])C([H])([H])[H])C(C([H])([H])[H])(C([H])([H])[H])C([H])([H])[H])C([H])([H])c2c([H])c(OC([H])([H])C([H])([H])C([H])([H])[N+]([H])([H])C([H])([H])C([H])([H])C([H])([H])C([H])(N([H])C(=O)N3C([H])([H])C([H])([H])C([H])([H])C([H])(n4nc(-c5c([H])c([H])c(Oc6c([H])c([H])c(F)c([H])c6F)c([H])c5[H])c(C(=O)N([H])[H])c4N([H])[H])C3([H])[H])C([H])([H])C([H])(N([H])[H])C([H])([H])[N+]([H])([H])[H])c([H])c([H])c2C1([H])[H]

$$$$
13:0:0
     RDKit          3D

 91101  0  0  1  0  0  0  0  0999 V2000
  -31.6620  -21.8660   20.5120 C   0  0  0  0  0  2  0  0  0  0  0  0
  -30.1960  -23.4180   19.1130 C   0  0  0  0  0  2  0  0  0  0  0  0
  -30.3840  -20.8480   18.8500 C   0  0  0  0  0  2  0  0  0  0  0  0
  -29.6320  -22.8750   21.4960 C   0  0  0  0  0  2  0  0  0  0  0  0
  -28.3870  -21.8170   19.9090 C   0  0  0  0  0  2  0  0  0  0  0  0
  -31.1450  -22.1600   19.1040 C   0  0  0  0  0  3  0  0  0  0  0  0
  -30.3490  -21.4860   21.2200 C   0  0  0  0  0  3  0  0  0  0  0  0
  -29.0140  -23.3010   20.1380 C   0  0  2  0  0  0  0  0  0  0  0  0
  -29.5300  -20.6790   20.1280 C   0  0  2  0  0  0  0  0  0  0  0  0
  -29.1660  -19.0380   20.3930 C   0  0  0  0  0  3  0  0  0  0  0  0
  -30.2030  -17.7050   20.3330 C   0  0  0  0  0  3  0  0  0  0  0  0
  -30.5230  -14.9780   20.3210 C   0  0  0  0  0  0  0  0  0  0  0  0
  -30.3630  -12.6460   19.3540 C   0  0  0  0  0  2  0  0  0  0  0  0
  -29.4160  -12.6280   18.1330 C   0  0  0  0  0  2  0  0  0  0  0  0
  -27.9620  -12.4010   18.5860 C   0  0  0  0  0  2  0  0  0  0  0  0
  -27.5650  -13.3090   19.7810 C   0  0  0  0  0  3  0  0  0  0  0  0
  -28.6380  -13.3140   20.8930 C   0  0  0  0  0  2  0  0  0  0  0  0
  -29.9020  -13.7300   20.2670 N   0  0  0  0  0  0  0  0  0  0  0  0
  -31.7210  -15.0220   20.0260 O   0  0  0  0  0  0  0  0  0  0  0  0
  -29.7840  -16.1810   20.4840 N   0  0  0  0  0  0  0  0  0  0  0  0
  -28.8090  -16.0310   20.6980 H   0  0  0  0  0  0  0  0  0  0  0  0
  -25.1910  -13.8700   20.5540 C   0  0  0  0  0  0  0  0  0  0  0  0
  -24.1320  -13.0860   20.9240 C   0  0  0  0  0  0  0  0  0  0  0  0
  -24.6000  -11.7370   20.8690 C   0  0  0  0  0  0  0  0  0  0  0  0
  -26.2340  -12.9970   20.2910 N   0  0  0  0  0  0  0  0  0  0  0  0
  -25.8880  -11.7090   20.5460 N   0  0  0  0  0  0  0  0  0  0  0  0
  -23.8760  -10.4710   21.0490 C   0  0  0  0  0  0  0  0  0  0  0  0
  -24.3150   -9.4940   21.9670 C   0  0  0  0  0  3  0  0  0  0  0  0
  -23.5920   -8.2940   22.1350 C   0  0  0  0  0  3  0  0  0  0  0  0
  -22.4160   -8.0620   21.3830 C   0  0  0  0  0  0  0  0  0  0  0  0
  -21.9960   -9.0280   20.4510 C   0  0  0  0  0  3  0  0  0  0  0  0
  -22.7190  -10.2200   20.2820 C   0  0  0  0  0  3  0  0  0  0  0  0
  -21.6630   -6.9150   21.4610 O   0  0  0  0  0  0  0  0  0  0  0  0
  -21.6160   -6.1630   22.6070 C   0  0  0  0  0  0  0  0  0  0  0  0
  -21.1760   -6.7020   23.8370 C   0  0  0  0  0  3  0  0  0  0  0  0
  -21.0790   -5.8750   24.9730 C   0  0  0  0  0  3  0  0  0  0  0  0
  -21.4070   -4.5090   24.8820 C   0  0  0  0  0  0  0  0  0  0  0  0
  -21.8370   -3.9680   23.6570 C   0  0  0  0  0  3  0  0  0  0  0  0
  -21.9400   -4.7930   22.5230 C   0  0  0  0  0  0  0  0  0  0  0  0
  -22.3340   -4.2650   21.3390 F   0  0  0  0  0  0  0  0  0  0  0  0
  -21.3070   -3.7120   25.9710 F   0  0  0  0  0  0  0  0  0  0  0  0
  -22.7380  -13.5580   21.2160 C   0  0  0  0  0  0  0  0  0  0  0  0
  -22.0180  -12.8510   22.0780 N   0  0  0  0  0  0  0  0  0  0  0  0
  -22.2940  -14.5890   20.7120 O   0  0  0  0  0  0  0  0  0  0  0  0
  -22.3890  -12.0170   22.5100 H   0  0  0  0  0  0  0  0  0  0  0  0
  -21.0820  -13.1500   22.3120 H   0  0  0  0  0  0  0  0  0  0  0  0
  -25.3460  -15.2430   20.3940 N   0  0  0  0  0  0  0  0  0  0  0  0
  -24.5720  -15.8900   20.5120 H   0  0  0  0  0  0  0  0  0  0  0  0
  -26.1840  -15.6940   20.0440 H   0  0  0  0  0  0  0  0  0  0  0  0
  -28.0040  -24.6700   20.0840 C   0  0  0  0  0  2  0  0  0  0  0  0
  -28.2720  -26.1970   20.2610 O   0  0  0  0  0  0  0  0  0  0  0  0
  -24.6390  -31.9100   23.2400 C   0  0  0  0  0  0  0  0  0  0  0  0
  -27.2020  -27.1720   20.2120 C   0  0  0  0  0  0  0  0  0  0  0  0
  -23.4290  -30.5150   21.6070 C   0  0  0  0  0  3  0  0  0  0  0  0
  -24.8670  -28.9260   20.1890 C   0  0  0  0  0  0  0  0  0  0  0  0
  -25.9860  -30.7650   21.4390 C   0  0  0  0  0  2  0  0  0  0  0  0
  -26.0530  -29.3700   20.7900 C   0  0  0  0  0  0  0  0  0  0  0  0
  -27.2170  -28.5110   20.7830 C   0  0  0  0  0  3  0  0  0  0  0  0
  -25.9820  -26.8290   19.5850 C   0  0  0  0  0  3  0  0  0  0  0  0
  -24.8460  -27.6670   19.5720 C   0  0  0  0  0  3  0  0  0  0  0  0
  -23.6450  -29.8280   20.2320 C   0  0  0  0  0  2  0  0  0  0  0  0
  -24.7050  -31.0860   22.1490 N   0  0  0  0  0  0  0  0  0  0  0  0
  -23.5550  -32.2000   23.7690 O   0  0  0  0  0  0  0  0  0  0  0  0
  -22.7440  -29.5150   22.5740 C   0  0  0  0  0  0  0  0  0  0  0  0
  -21.4160  -29.3470   22.4440 N   0  0  0  0  0  0  0  0  0  0  0  0
  -23.4120  -28.8930   23.4050 O   0  0  0  0  0  0  0  0  0  0  0  0
  -20.9340  -29.9010   21.7500 H   0  0  0  0  0  0  0  0  0  0  0  0
  -18.0300  -28.1550   22.9380 C   0  0  0  0  0  0  0  0  0  0  0  0
  -20.5880  -28.4180   23.2190 C   0  0  0  0  0  3  0  0  0  0  0  0
  -20.6910  -26.9800   22.6570 C   0  0  0  0  0  2  0  0  0  0  0  0
  -19.5950  -26.6500   21.6390 C   0  0  0  0  0  2  0  0  0  0  0  0
  -18.2090  -26.8010   22.2720 C   0  0  0  0  0  2  0  0  0  0  0  0
  -19.1480  -28.9210   23.3680 C   0  0  0  0  0  0  0  0  0  0  0  0
  -18.9240  -30.1880   23.9500 C   0  0  0  0  0  3  0  0  0  0  0  0
  -17.6180  -30.6890   24.1070 C   0  0  0  0  0  3  0  0  0  0  0  0
  -16.5170  -29.9200   23.6930 C   0  0  0  0  0  3  0  0  0  0  0  0
  -16.7230  -28.6550   23.1160 C   0  0  0  0  0  3  0  0  0  0  0  0
  -25.9210  -32.5390   23.8650 C   0  0  0  0  0  3  0  0  0  0  0  0
  -26.4290  -31.7680   25.1450 C   0  0  1  0  0  0  0  0  0  0  0  0
  -25.3330  -31.5400   26.2130 C   0  0  0  0  0  1  0  0  0  0  0  0
  -27.0030  -30.3840   24.7610 C   0  0  0  0  0  1  0  0  0  0  0  0
  -27.5860  -32.5540   25.8050 C   0  0  0  0  0  1  0  0  0  0  0  0
  -25.6160  -33.9390   24.1990 N   0  0  0  0  0  0  0  0  0  0  0  0
  -25.9240  -34.9920   23.4310 C   0  0  0  0  0  0  0  0  0  0  0  0
  -26.5610  -34.8870   22.3790 O   0  0  0  0  0  0  0  0  0  0  0  0
  -25.0460  -34.0950   25.0170 H   0  0  0  0  0  0  0  0  0  0  0  0
  -24.1690  -36.7750   23.1510 C   0  0  0  0  0  1  0  0  0  0  0  0
  -25.4510  -36.3810   23.9030 C   0  0  0  0  0  3  0  0  0  0  0  0
  -27.6190  -37.2850   24.6210 C   0  0  0  0  0  1  0  0  0  0  0  0
  -26.4690  -37.4420   23.7330 N   0  0  0  0  0  0  0  0  0  0  0  0
  -26.0630  -38.3590   23.8990 H   0  0  0  0  0  0  0  0  0  0  0  0
  2  8  1  0
  3  9  1  0
  5  9  1  0
  5  8  1  0
  6  3  1  0
  6  2  1  0
  6  1  1  0
  7  1  1  0
  7  4  1  0
  8 50  1  1
  8  4  1  0
  9 10  1  1
  9  7  1  0
 11 10  2  0
 11 20  1  0
 12 20  1  0
 13 18  1  0
 14 15  1  0
 14 13  1  0
 16 15  1  0
 16 25  1  0
 16 17  1  0
 18 12  1  0
 18 17  1  0
 19 12  2  0
 20 21  1  0
 22 23  2  0
 23 42  1  0
 24 23  1  0
 24 27  1  0
 25 26  1  0
 25 22  1  0
 26 24  2  0
 27 28  1  0
 28 29  2  0
 30 33  1  0
 30 29  1  0
 31 30  2  0
 32 31  1  0
 32 27  2  0
 33 34  1  0
 34 35  1  0
 35 36  2  0
 37 36  1  0
 37 41  1  0
 38 37  2  0
 39 34  2  0
 39 38  1  0
 40 39  1  0
 42 43  1  0
 43 46  1  0
 43 45  1  0
 44 42  2  0
 47 48  1  0
 47 22  1  0
 49 47  1  0
 50 51  1  0
 52 63  2  0
 53 51  1  0
 53 58  1  0
 54 62  1  0
 54 64  1  0
 55 61  1  0
 55 57  1  0
 56 62  1  0
 57 56  1  0
 58 57  2  0
 59 53  2  0
 60 59  1  0
 60 55  2  0
 61 54  1  0
 62 52  1  0
 64 66  2  0
 65 64  1  0
 67 65  1  0
 68 77  2  0
 68 73  1  0
 69 65  1  0
 69 73  1  0
 70 69  1  0
 71 72  1  0
 71 70  1  0
 72 68  1  0
 73 74  2  0
 74 75  1  0
 76 75  2  0
 77 76  1  0
 78 52  1  0
 78 83  1  0
 78 79  1  0
 79 82  1  1
 79 80  1  0
 81 79  1  0
 83 86  1  0
 84 88  1  0
 84 83  1  0
 85 84  2  0
 88 87  1  0
 90 91  1  0
 90 88  1  0
 90 89  1  0
M  ISO  4  12 100  20 100  50 101  51 101
M  END
>  <TORSDO>  (14) 
F 19

>  <SCORE>  (14) 
-15.581

>  <name>  (14) 
13

>  <ligand_id>  (14) 
13

>  <original_smiles>  (14) 
[H]c1c([H])c([H])c2c(c1[H])C([H])([H])C([H])([H])C([H])([H])C2([H])N([H])C(=O)C1([H])N(C(=O)C([H])(N([H])C(=O)C([H])(N([H])C([H])([H])[H])C([H])([H])[H])C(C([H])([H])[H])(C([H])([H])[H])C([H])([H])[H])C([H])([H])c2c([H])c(OC([H])([H])C34C([H])([H])C5([H])C([H])([H])C([H])(C3([H])[H])C(C([H])([H])C([H])([H])N([H])C(=O)N3C([H])([H])C([H])([H])C([H])([H])C([H])(n6nc(-c7c([H])c([H])c(Oc8c([H])c([H])c(F)c([H])c8F)c([H])c7[H])c(C(=O)N([H])[H])c6N([H])[H])C3([H])[H])(C5([H])[H])C4([H])[H])c([H])c([H])c2C1([H])[H]

>  <smiles>  (14) 
[H]c1c([H])c([H])c2c(c1[H])C([H])([H])C([H])([H])C([H])([H])C2([H])N([H])C(=O)C1([H])N(C(=O)C([H])(N([H])C(=O)C([H])(N([H])C([H])([H])[H])C([H])([H])[H])C(C([H])([H])[H])(C([H])([H])[H])C([H])([H])[H])C([H])([H])c2c([H])c(OC([H])([H])C34C([H])([H])C5([H])C([H])([H])C([H])(C3([H])[H])C(C([H])([H])C([H])([H])N([H])C(=O)N3C([H])([H])C([H])([H])C([H])([H])C([H])(n6nc(-c7c([H])c([H])c(Oc8c([H])c([H])c(F)c([H])c8F)c([H])c7[H])c(C(=O)N([H])[H])c6N([H])[H])C3([H])[H])(C5([H])[H])C4([H])[H])c([H])c([H])c2C1([H])[H]

$$$$
14:0:0
     RDKit          3D

 89 98  0  0  1  0  0  0  0  0999 V2000
  -28.5100  -22.1760   19.8470 C   0  0  0  0  0  0  0  0  0  0  0  0
  -27.3550  -22.0680   19.4240 O   0  0  0  0  0  0  0  0  0  0  0  0
  -29.7860  -18.2380   18.9210 C   0  0  0  0  0  2  0  0  0  0  0  0
  -29.2520  -18.2770   21.2760 C   0  0  0  0  0  2  0  0  0  0  0  0
  -29.3530  -20.8280   20.0440 C   0  0  0  0  0  3  0  0  0  0  0  0
  -28.9910  -19.5560   19.1980 C   0  0  0  0  0  3  0  0  0  0  0  0
  -28.6460  -19.5670   20.6430 C   0  0  0  0  0  3  0  0  0  0  0  0
  -30.0740  -17.4350   20.2370 C   0  0  0  0  0  3  0  0  0  0  0  0
  -30.6330  -14.8100   20.0150 C   0  0  0  0  0  0  0  0  0  0  0  0
  -30.4300  -12.5250   19.0170 C   0  0  0  0  0  2  0  0  0  0  0  0
  -29.4290  -12.5880   17.8430 C   0  0  0  0  0  2  0  0  0  0  0  0
  -27.9870  -12.3850   18.3480 C   0  0  0  0  0  2  0  0  0  0  0  0
  -27.6610  -13.2760   19.5750 C   0  0  0  0  0  3  0  0  0  0  0  0
  -28.7720  -13.2040   20.6430 C   0  0  0  0  0  2  0  0  0  0  0  0
  -30.0350  -13.5710   19.9870 N   0  0  0  0  0  0  0  0  0  0  0  0
  -31.8060  -14.9410   19.6530 O   0  0  0  0  0  0  0  0  0  0  0  0
  -29.8240  -15.9160   20.2480 N   0  0  0  0  0  0  0  0  0  0  0  0
  -28.8750  -15.6580   20.4710 H   0  0  0  0  0  0  0  0  0  0  0  0
  -25.3240  -13.8540   20.4560 C   0  0  0  0  0  0  0  0  0  0  0  0
  -24.2790  -13.0720   20.8630 C   0  0  0  0  0  0  0  0  0  0  0  0
  -24.7340  -11.7220   20.7660 C   0  0  0  0  0  0  0  0  0  0  0  0
  -26.3480  -12.9800   20.1320 N   0  0  0  0  0  0  0  0  0  0  0  0
  -26.0040  -11.6910   20.3850 N   0  0  0  0  0  0  0  0  0  0  0  0
  -24.0160  -10.4540   20.9530 C   0  0  0  0  0  0  0  0  0  0  0  0
  -24.4570   -9.4870   21.8830 C   0  0  0  0  0  3  0  0  0  0  0  0
  -23.7390   -8.2850   22.0600 C   0  0  0  0  0  3  0  0  0  0  0  0
  -22.5650   -8.0430   21.3080 C   0  0  0  0  0  0  0  0  0  0  0  0
  -22.1440   -8.9980   20.3670 C   0  0  0  0  0  3  0  0  0  0  0  0
  -22.8630  -10.1920   20.1880 C   0  0  0  0  0  3  0  0  0  0  0  0
  -21.8160   -6.8940   21.3940 O   0  0  0  0  0  0  0  0  0  0  0  0
  -21.7180   -6.1890   22.5660 C   0  0  0  0  0  0  0  0  0  0  0  0
  -21.2080   -6.7730   23.7470 C   0  0  0  0  0  3  0  0  0  0  0  0
  -21.0580   -5.9920   24.9100 C   0  0  0  0  0  3  0  0  0  0  0  0
  -21.4050   -4.6260   24.8920 C   0  0  0  0  0  0  0  0  0  0  0  0
  -21.9050   -4.0420   23.7150 C   0  0  0  0  0  3  0  0  0  0  0  0
  -22.0570   -4.8210   22.5540 C   0  0  0  0  0  0  0  0  0  0  0  0
  -22.5200   -4.2480   21.4170 F   0  0  0  0  0  0  0  0  0  0  0  0
  -21.2530   -3.8730   26.0060 F   0  0  0  0  0  0  0  0  0  0  0  0
  -22.9010  -13.5420   21.2280 C   0  0  0  0  0  0  0  0  0  0  0  0
  -22.2220  -12.8200   22.1110 N   0  0  0  0  0  0  0  0  0  0  0  0
  -22.4360  -14.5830   20.7600 O   0  0  0  0  0  0  0  0  0  0  0  0
  -22.6110  -11.9760   22.5060 H   0  0  0  0  0  0  0  0  0  0  0  0
  -21.3000  -13.1170   22.4010 H   0  0  0  0  0  0  0  0  0  0  0  0
  -25.4860  -15.2300   20.3120 N   0  0  0  0  0  0  0  0  0  0  0  0
  -24.7240  -15.8820   20.4700 H   0  0  0  0  0  0  0  0  0  0  0  0
  -26.3040  -15.6730   19.9150 H   0  0  0  0  0  0  0  0  0  0  0  0
  -29.0250  -23.6670   20.1610 C   0  0  0  0  0  3  0  0  0  0  0  0
  -28.0290  -24.9210   19.8640 C   0  0  0  0  0  3  0  0  0  0  0  0
  -28.2970  -26.3730   20.2060 O   0  0  0  0  0  0  0  0  0  0  0  0
  -24.6410  -31.8760   23.2870 C   0  0  0  0  0  0  0  0  0  0  0  0
  -27.2150  -27.2920   20.1630 C   0  0  0  0  0  0  0  0  0  0  0  0
  -23.4330  -30.5110   21.6280 C   0  0  0  0  0  3  0  0  0  0  0  0
  -24.8750  -28.9680   20.1830 C   0  0  0  0  0  0  0  0  0  0  0  0
  -25.9820  -30.7950   21.4590 C   0  0  0  0  0  2  0  0  0  0  0  0
  -26.0520  -29.4240   20.7890 C   0  0  0  0  0  0  0  0  0  0  0  0
  -27.2240  -28.5970   20.7720 C   0  0  0  0  0  3  0  0  0  0  0  0
  -26.0110  -26.9200   19.5230 C   0  0  0  0  0  3  0  0  0  0  0  0
  -24.8600  -27.7240   19.5420 C   0  0  0  0  0  3  0  0  0  0  0  0
  -23.6500  -29.8590   20.2400 C   0  0  0  0  0  2  0  0  0  0  0  0
  -24.7050  -31.0780   22.1810 N   0  0  0  0  0  0  0  0  0  0  0  0
  -23.5560  -32.1530   23.8210 O   0  0  0  0  0  0  0  0  0  0  0  0
  -22.7600  -29.4870   22.5760 C   0  0  0  0  0  0  0  0  0  0  0  0
  -21.4330  -29.3170   22.4420 N   0  0  0  0  0  0  0  0  0  0  0  0
  -23.4320  -28.8500   23.3910 O   0  0  0  0  0  0  0  0  0  0  0  0
  -20.9530  -29.8820   21.7580 H   0  0  0  0  0  0  0  0  0  0  0  0
  -18.0470  -28.1360   22.9300 C   0  0  0  0  0  0  0  0  0  0  0  0
  -20.6090  -28.3750   23.2000 C   0  0  0  0  0  3  0  0  0  0  0  0
  -20.7030  -26.9490   22.6060 C   0  0  0  0  0  2  0  0  0  0  0  0
  -19.5960  -26.6440   21.5920 C   0  0  0  0  0  2  0  0  0  0  0  0
  -18.2150  -26.7920   22.2410 C   0  0  0  0  0  2  0  0  0  0  0  0
  -19.1720  -28.8840   23.3690 C   0  0  0  0  0  0  0  0  0  0  0  0
  -18.9620  -30.1430   23.9740 C   0  0  0  0  0  3  0  0  0  0  0  0
  -17.6610  -30.6490   24.1490 C   0  0  0  0  0  3  0  0  0  0  0  0
  -16.5490  -29.8960   23.7290 C   0  0  0  0  0  3  0  0  0  0  0  0
  -16.7450  -28.6420   23.1240 C   0  0  0  0  0  3  0  0  0  0  0  0
  -25.9250  -32.4970   23.9150 C   0  0  0  0  0  3  0  0  0  0  0  0
  -26.4200  -31.7240   25.2000 C   0  0  1  0  0  0  0  0  0  0  0  0
  -25.3140  -31.4980   26.2590 C   0  0  0  0  0  1  0  0  0  0  0  0
  -26.9940  -30.3410   24.8180 C   0  0  0  0  0  1  0  0  0  0  0  0
  -27.5730  -32.5070   25.8690 C   0  0  0  0  0  1  0  0  0  0  0  0
  -25.6240  -33.8990   24.2440 N   0  0  0  0  0  0  0  0  0  0  0  0
  -25.9480  -34.9480   23.4770 C   0  0  0  0  0  0  0  0  0  0  0  0
  -26.5960  -34.8360   22.4340 O   0  0  0  0  0  0  0  0  0  0  0  0
  -25.0470  -34.0560   25.0570 H   0  0  0  0  0  0  0  0  0  0  0  0
  -24.2100  -36.7400   23.1660 C   0  0  0  0  0  1  0  0  0  0  0  0
  -25.4790  -36.3440   23.9370 C   0  0  0  0  0  3  0  0  0  0  0  0
  -27.6400  -37.2400   24.6850 C   0  0  0  0  0  1  0  0  0  0  0  0
  -26.5090  -37.3940   23.7740 N   0  0  0  0  0  0  0  0  0  0  0  0
  -26.1090  -38.3180   23.9200 H   0  0  0  0  0  0  0  0  0  0  0  0
  1 47  1  0
  2  1  2  0
  3  8  1  0
  5  1  1  0
  5  7  1  0
  6  3  1  0
  6  5  1  0
  6  7  1  0
  7  4  1  0
  8 17  1  0
  8  4  1  0
  9 17  1  0
 10 15  1  0
 11 12  1  0
 11 10  1  0
 13 12  1  0
 13 22  1  0
 13 14  1  0
 15  9  1  0
 15 14  1  0
 16  9  2  0
 17 18  1  0
 19 20  2  0
 20 39  1  0
 21 20  1  0
 21 24  1  0
 22 23  1  0
 22 19  1  0
 23 21  2  0
 24 25  1  0
 25 26  2  0
 27 30  1  0
 27 26  1  0
 28 27  2  0
 29 28  1  0
 29 24  2  0
 30 31  1  0
 31 32  1  0
 32 33  2  0
 34 33  1  0
 34 38  1  0
 35 34  2  0
 36 31  2  0
 36 35  1  0
 37 36  1  0
 39 40  1  0
 40 43  1  0
 40 42  1  0
 41 39  2  0
 44 19  1  0
 44 45  1  0
 46 44  1  0
 48 47  2  0
 48 49  1  0
 50 61  2  0
 51 49  1  0
 51 56  1  0
 52 60  1  0
 52 62  1  0
 53 59  1  0
 53 55  1  0
 54 60  1  0
 55 54  1  0
 56 55  2  0
 57 58  1  0
 57 51  2  0
 58 53  2  0
 59 52  1  0
 60 50  1  0
 62 64  2  0
 63 62  1  0
 65 63  1  0
 66 75  2  0
 66 71  1  0
 67 63  1  0
 67 71  1  0
 68 67  1  0
 69 70  1  0
 69 68  1  0
 70 66  1  0
 71 72  2  0
 72 73  1  0
 74 73  2  0
 75 74  1  0
 76 50  1  0
 76 81  1  0
 76 77  1  0
 77 80  1  1
 77 78  1  0
 79 77  1  0
 81 84  1  0
 82 86  1  0
 82 81  1  0
 83 82  2  0
 86 85  1  0
 88 89  1  0
 88 86  1  0
 88 87  1  0
M  ISO  4   9 100  17 100  48 101  49 101
M  END
>  <TORSDO>  (15) 
F 19

>  <SCORE>  (15) 
-13.704

>  <name>  (15) 
14

>  <ligand_id>  (15) 
14

>  <original_smiles>  (15) 
[H]c1c([H])c([H])c2c(c1[H])C([H])([H])C([H])([H])C([H])([H])C2([H])N([H])C(=O)C1([H])N(C(=O)C([H])(N([H])C(=O)C([H])(N([H])C([H])([H])[H])C([H])([H])[H])C(C([H])([H])[H])(C([H])([H])[H])C([H])([H])[H])C([H])([H])c2c([H])c(OC([H])([H])C([H])([H])C(=O)C3([H])C4([H])C([H])([H])C([H])(N([H])C(=O)N5C([H])([H])C([H])([H])C([H])([H])C([H])(n6nc(-c7c([H])c([H])c(Oc8c([H])c([H])c(F)c([H])c8F)c([H])c7[H])c(C(=O)N([H])[H])c6N([H])[H])C5([H])[H])C([H])([H])C34[H])c([H])c([H])c2C1([H])[H]

>  <smiles>  (15) 
[H]c1c([H])c([H])c2c(c1[H])C([H])([H])C([H])([H])C([H])([H])C2([H])N([H])C(=O)C1([H])N(C(=O)C([H])(N([H])C(=O)C([H])(N([H])C([H])([H])[H])C([H])([H])[H])C(C([H])([H])[H])(C([H])([H])[H])C([H])([H])[H])C([H])([H])c2c([H])c(OC([H])([H])C([H])([H])C(=O)C3([H])C4([H])C([H])([H])C([H])(N([H])C(=O)N5C([H])([H])C([H])([H])C([H])([H])C([H])(n6nc(-c7c([H])c([H])c(Oc8c([H])c([H])c(F)c([H])c8F)c([H])c7[H])c(C(=O)N([H])[H])c6N([H])[H])C5([H])[H])C([H])([H])C34[H])c([H])c([H])c2C1([H])[H]

$$$$
15:0:0
     RDKit          3D

 88 97  0  0  1  0  0  0  0  0999 V2000
  -28.5820  -22.7770   20.6050 C   0  0  0  0  0  0  0  0  0  0  0  0
  -28.2790  -22.8260   21.8000 O   0  0  0  0  0  0  0  0  0  0  0  0
  -30.3670  -19.0590   18.9310 C   0  0  0  0  0  2  0  0  0  0  0  0
  -30.7100  -21.5000   19.8610 C   0  0  0  0  0  2  0  0  0  0  0  0
  -29.0040  -19.6580   20.8790 C   0  0  0  0  0  2  0  0  0  0  0  0
  -29.9880  -20.6130   18.9130 C   0  0  0  0  0  3  0  0  0  0  0  0
  -29.4860  -18.2700   19.9630 C   0  0  0  0  0  3  0  0  0  0  0  0
  -29.2550  -21.1850   20.1700 C   0  0  1  0  0  0  0  0  0  0  0  0
  -30.3990  -15.3580   20.0690 C   0  0  0  0  0  0  0  0  0  0  0  0
  -30.3640  -12.9040   19.1890 C   0  0  0  0  0  2  0  0  0  0  0  0
  -29.4120  -12.7090   17.9800 C   0  0  0  0  0  2  0  0  0  0  0  0
  -27.9760  -12.4300   18.4520 C   0  0  0  0  0  2  0  0  0  0  0  0
  -27.5540  -13.3810   19.5990 C   0  0  0  0  0  3  0  0  0  0  0  0
  -28.6320  -13.5200   20.6990 C   0  0  0  0  0  2  0  0  0  0  0  0
  -29.8480  -14.0380   20.0490 N   0  0  0  0  0  0  0  0  0  0  0  0
  -31.5910  -15.3770   19.7290 O   0  0  0  0  0  0  0  0  0  0  0  0
  -29.6160  -16.6090   20.2890 N   0  0  0  0  0  0  0  0  0  0  0  0
  -28.7270  -16.3070   20.6640 H   0  0  0  0  0  0  0  0  0  0  0  0
  -25.1990  -13.9260   20.4120 C   0  0  0  0  0  0  0  0  0  0  0  0
  -24.1500  -13.1450   20.8080 C   0  0  0  0  0  0  0  0  0  0  0  0
  -24.6220  -11.7970   20.7630 C   0  0  0  0  0  0  0  0  0  0  0  0
  -26.2400  -13.0570   20.1400 N   0  0  0  0  0  0  0  0  0  0  0  0
  -25.9080  -11.7690   20.4210 N   0  0  0  0  0  0  0  0  0  0  0  0
  -23.9040  -10.5320   20.9700 C   0  0  0  0  0  0  0  0  0  0  0  0
  -24.3600   -9.5650   21.8940 C   0  0  0  0  0  3  0  0  0  0  0  0
  -23.6390   -8.3660   22.0900 C   0  0  0  0  0  3  0  0  0  0  0  0
  -22.4480   -8.1270   21.3630 C   0  0  0  0  0  0  0  0  0  0  0  0
  -22.0130   -9.0820   20.4260 C   0  0  0  0  0  3  0  0  0  0  0  0
  -22.7340  -10.2710   20.2280 C   0  0  0  0  0  3  0  0  0  0  0  0
  -21.6970   -6.9800   21.4680 O   0  0  0  0  0  0  0  0  0  0  0  0
  -21.6740   -6.2390   22.6220 C   0  0  0  0  0  0  0  0  0  0  0  0
  -21.2680   -6.7930   23.8570 C   0  0  0  0  0  3  0  0  0  0  0  0
  -21.1940   -5.9770   25.0040 C   0  0  0  0  0  3  0  0  0  0  0  0
  -21.5140   -4.6100   24.9170 C   0  0  0  0  0  0  0  0  0  0  0  0
  -21.9110   -4.0550   23.6880 C   0  0  0  0  0  3  0  0  0  0  0  0
  -21.9890   -4.8680   22.5440 C   0  0  0  0  0  0  0  0  0  0  0  0
  -22.3530   -4.3240   21.3580 F   0  0  0  0  0  0  0  0  0  0  0  0
  -21.4340   -3.8240   26.0160 F   0  0  0  0  0  0  0  0  0  0  0  0
  -22.7590  -13.6170   21.1100 C   0  0  0  0  0  0  0  0  0  0  0  0
  -22.0530  -12.9210   21.9920 N   0  0  0  0  0  0  0  0  0  0  0  0
  -22.3070  -14.6390   20.5950 O   0  0  0  0  0  0  0  0  0  0  0  0
  -22.4330  -12.0950   22.4310 H   0  0  0  0  0  0  0  0  0  0  0  0
  -21.1170  -13.2180   22.2320 H   0  0  0  0  0  0  0  0  0  0  0  0
  -25.3480  -15.2990   20.2320 N   0  0  0  0  0  0  0  0  0  0  0  0
  -24.5770  -15.9440   20.3570 H   0  0  0  0  0  0  0  0  0  0  0  0
  -26.1700  -15.7390   19.8370 H   0  0  0  0  0  0  0  0  0  0  0  0
  -28.2360  -24.3000   19.7830 C   0  0  0  0  0  2  0  0  0  0  0  0
  -28.1960  -25.8610   20.3630 O   0  0  0  0  0  0  0  0  0  0  0  0
  -24.6320  -31.8670   23.2340 C   0  0  0  0  0  0  0  0  0  0  0  0
  -27.1900  -26.9640   20.2280 C   0  0  0  0  0  0  0  0  0  0  0  0
  -23.4370  -30.4670   21.5970 C   0  0  0  0  0  3  0  0  0  0  0  0
  -24.8870  -28.8540   20.1760 C   0  0  0  0  0  0  0  0  0  0  0  0
  -26.0040  -30.6700   21.4560 C   0  0  0  0  0  2  0  0  0  0  0  0
  -26.0720  -29.2570   20.8010 C   0  0  0  0  0  0  0  0  0  0  0  0
  -27.2110  -28.3300   20.8080 C   0  0  0  0  0  3  0  0  0  0  0  0
  -25.9790  -26.7230   19.5390 C   0  0  0  0  0  3  0  0  0  0  0  0
  -24.8660  -27.6090   19.5240 C   0  0  0  0  0  3  0  0  0  0  0  0
  -23.6670  -29.7750   20.2240 C   0  0  0  0  0  2  0  0  0  0  0  0
  -24.7120  -31.0290   22.1490 N   0  0  0  0  0  0  0  0  0  0  0  0
  -23.5440  -32.1600   23.7550 O   0  0  0  0  0  0  0  0  0  0  0  0
  -22.7400  -29.4780   22.5680 C   0  0  0  0  0  0  0  0  0  0  0  0
  -21.4080  -29.3200   22.4470 N   0  0  0  0  0  0  0  0  0  0  0  0
  -23.4050  -28.8540   23.3990 O   0  0  0  0  0  0  0  0  0  0  0  0
  -20.9260  -29.8740   21.7540 H   0  0  0  0  0  0  0  0  0  0  0  0
  -18.0270  -28.1100   22.9580 C   0  0  0  0  0  0  0  0  0  0  0  0
  -20.5850  -28.3860   23.2220 C   0  0  0  0  0  3  0  0  0  0  0  0
  -20.6900  -26.9490   22.6570 C   0  0  0  0  0  2  0  0  0  0  0  0
  -19.5900  -26.6190   21.6410 C   0  0  0  0  0  2  0  0  0  0  0  0
  -18.2080  -26.7600   22.2840 C   0  0  0  0  0  2  0  0  0  0  0  0
  -19.1420  -28.8800   23.3830 C   0  0  0  0  0  0  0  0  0  0  0  0
  -18.9160  -30.1400   23.9770 C   0  0  0  0  0  3  0  0  0  0  0  0
  -17.6080  -30.6330   24.1470 C   0  0  0  0  0  3  0  0  0  0  0  0
  -16.5070  -29.8620   23.7330 C   0  0  0  0  0  3  0  0  0  0  0  0
  -16.7180  -28.6020   23.1460 C   0  0  0  0  0  3  0  0  0  0  0  0
  -25.9040  -32.5100   23.8650 C   0  0  0  0  0  3  0  0  0  0  0  0
  -25.5890  -33.9140   24.1900 N   0  0  0  0  0  0  0  0  0  0  0  0
  -25.9230  -34.9700   23.4370 C   0  0  0  0  0  0  0  0  0  0  0  0
  -26.5890  -34.8660   22.4040 O   0  0  0  0  0  0  0  0  0  0  0  0
  -24.9980  -34.0670   24.9920 H   0  0  0  0  0  0  0  0  0  0  0  0
  -24.1960  -36.7740   23.1050 C   0  0  0  0  0  1  0  0  0  0  0  0
  -25.4460  -36.3620   23.9000 C   0  0  0  0  0  3  0  0  0  0  0  0
  -27.5890  -37.2510   24.7090 C   0  0  0  0  0  1  0  0  0  0  0  0
  -26.4790  -37.4130   23.7730 N   0  0  0  0  0  0  0  0  0  0  0  0
  -26.0750  -38.3360   23.9150 H   0  0  0  0  0  0  0  0  0  0  0  0
  -26.4030  -31.7550   25.1610 C   0  0  1  0  0  0  0  0  0  0  0  0
  -25.2990  -31.5420   26.2230 C   0  0  0  0  0  1  0  0  0  0  0  0
  -26.9810  -30.3670   24.8040 C   0  0  0  0  0  1  0  0  0  0  0  0
  -27.5500  -32.5530   25.8220 C   0  0  0  0  0  1  0  0  0  0  0  0
  1  2  2  0
  3  7  1  0
  4  8  1  0
  6  3  1  0
  6  4  1  0
  6  8  1  0
  7 17  1  0
  7  5  1  0
  8  1  1  6
  8  5  1  0
  9 17  1  0
 10 15  1  0
 11 12  1  0
 11 10  1  0
 13 12  1  0
 13 22  1  0
 13 14  1  0
 15  9  1  0
 15 14  1  0
 16  9  2  0
 17 18  1  0
 19 20  2  0
 20 39  1  0
 21 20  1  0
 21 24  1  0
 22 19  1  0
 22 23  1  0
 23 21  2  0
 24 25  1  0
 25 26  2  0
 27 30  1  0
 27 26  1  0
 28 27  2  0
 29 28  1  0
 29 24  2  0
 30 31  1  0
 31 32  1  0
 32 33  2  0
 34 33  1  0
 34 38  1  0
 35 34  2  0
 36 31  2  0
 36 35  1  0
 37 36  1  0
 39 40  1  0
 40 43  1  0
 40 42  1  0
 41 39  2  0
 44 45  1  0
 44 19  1  0
 46 44  1  0
 47 48  1  0
 47  1  1  0
 49 60  2  0
 50 48  1  0
 50 55  1  0
 51 59  1  0
 51 61  1  0
 52 58  1  0
 52 54  1  0
 53 59  1  0
 54 55  2  0
 54 53  1  0
 56 50  2  0
 57 56  1  0
 57 52  2  0
 58 51  1  0
 59 49  1  0
 61 63  2  0
 62 61  1  0
 64 62  1  0
 65 74  2  0
 65 70  1  0
 66 62  1  0
 66 70  1  0
 67 66  1  0
 68 69  1  0
 68 67  1  0
 69 65  1  0
 70 71  2  0
 71 72  1  0
 73 72  2  0
 74 73  1  0
 75 49  1  0
 75 76  1  0
 75 85  1  0
 76 79  1  0
 77 81  1  0
 77 76  1  0
 78 77  2  0
 81 80  1  0
 83 81  1  0
 83 84  1  0
 83 82  1  0
 85 88  1  1
 85 86  1  0
 87 85  1  0
M  ISO  4   9 100  17 100  47 101  48 101
M  END
>  <TORSDO>  (16) 
F 18

>  <SCORE>  (16) 
-16.569

>  <name>  (16) 
15

>  <ligand_id>  (16) 
15

>  <original_smiles>  (16) 
[H]c1c([H])c([H])c2c(c1[H])C([H])([H])C([H])([H])C([H])([H])C2([H])N([H])C(=O)C1([H])N(C(=O)C([H])(N([H])C(=O)C([H])(N([H])C([H])([H])[H])C([H])([H])[H])C(C([H])([H])[H])(C([H])([H])[H])C([H])([H])[H])C([H])([H])c2c([H])c(OC([H])([H])C(=O)C34C([H])([H])C([H])(N([H])C(=O)N5C([H])([H])C([H])([H])C([H])([H])C([H])(n6nc(-c7c([H])c([H])c(Oc8c([H])c([H])c(F)c([H])c8F)c([H])c7[H])c(C(=O)N([H])[H])c6N([H])[H])C5([H])[H])C([H])([H])C3([H])C4([H])[H])c([H])c([H])c2C1([H])[H]

>  <smiles>  (16) 
[H]c1c([H])c([H])c2c(c1[H])C([H])([H])C([H])([H])C([H])([H])C2([H])N([H])C(=O)C1([H])N(C(=O)C([H])(N([H])C(=O)C([H])(N([H])C([H])([H])[H])C([H])([H])[H])C(C([H])([H])[H])(C([H])([H])[H])C([H])([H])[H])C([H])([H])c2c([H])c(OC([H])([H])C(=O)C34C([H])([H])C([H])(N([H])C(=O)N5C([H])([H])C([H])([H])C([H])([H])C([H])(n6nc(-c7c([H])c([H])c(Oc8c([H])c([H])c(F)c([H])c8F)c([H])c7[H])c(C(=O)N([H])[H])c6N([H])[H])C5([H])[H])C([H])([H])C3([H])C4([H])[H])c([H])c([H])c2C1([H])[H]

$$$$
16:0:0
     RDKit          3D

 90 99  0  0  1  0  0  0  0  0999 V2000
  -28.7450  -23.1590   20.5730 C   0  0  0  0  0  0  0  0  0  0  0  0
  -28.7950  -21.8210   20.0280 N   0  0  0  0  0  0  0  0  0  0  0  0
  -29.2480  -23.3230   21.6860 O   0  0  0  0  0  0  0  0  0  0  0  0
  -28.3990  -21.7870   19.0960 H   0  0  0  0  0  0  0  0  0  0  0  0
  -30.5070  -15.1050   20.2850 C   0  0  0  0  0  0  0  0  0  0  0  0
  -30.3690  -12.7180   19.3730 C   0  0  0  0  0  2  0  0  0  0  0  0
  -29.4250  -12.6150   18.1510 C   0  0  0  0  0  2  0  0  0  0  0  0
  -27.9740  -12.3880   18.6100 C   0  0  0  0  0  2  0  0  0  0  0  0
  -27.5710  -13.3360   19.7680 C   0  0  0  0  0  3  0  0  0  0  0  0
  -28.6390  -13.4130   20.8800 C   0  0  0  0  0  2  0  0  0  0  0  0
  -29.8900  -13.8430   20.2410 N   0  0  0  0  0  0  0  0  0  0  0  0
  -31.6990  -15.1130   19.9530 O   0  0  0  0  0  0  0  0  0  0  0  0
  -28.6990  -18.9250   19.7910 C   0  0  0  0  0  0  0  0  0  0  0  0
  -30.5650  -19.8870   21.0210 C   0  0  0  0  0  2  0  0  0  0  0  0
  -30.1850  -17.1740   21.7200 C   0  0  0  0  0  2  0  0  0  0  0  0
  -29.8360  -17.7670   19.7830 C   0  0  0  0  0  3  0  0  0  0  0  0
  -29.1200  -20.3220   20.5660 C   0  0  0  0  0  3  0  0  0  0  0  0
  -30.7710  -18.3090   20.8200 C   0  0  0  0  0  3  0  0  0  0  0  0
  -29.8050  -16.3550   20.5240 N   0  0  0  0  0  0  0  0  0  0  0  0
  -27.5870  -18.8090   19.2710 O   0  0  0  0  0  0  0  0  0  0  0  0
  -25.2120  -13.9090   20.5610 C   0  0  0  0  0  0  0  0  0  0  0  0
  -24.1490  -13.1340   20.9340 C   0  0  0  0  0  0  0  0  0  0  0  0
  -24.6060  -11.7810   20.8800 C   0  0  0  0  0  0  0  0  0  0  0  0
  -26.2450  -13.0290   20.2910 N   0  0  0  0  0  0  0  0  0  0  0  0
  -25.8920  -11.7430   20.5500 N   0  0  0  0  0  0  0  0  0  0  0  0
  -23.8740  -10.5210   21.0630 C   0  0  0  0  0  0  0  0  0  0  0  0
  -24.3040   -9.5420   21.9860 C   0  0  0  0  0  3  0  0  0  0  0  0
  -23.5690   -8.3490   22.1600 C   0  0  0  0  0  3  0  0  0  0  0  0
  -22.3910   -8.1250   21.4090 C   0  0  0  0  0  0  0  0  0  0  0  0
  -21.9780   -9.0920   20.4760 C   0  0  0  0  0  3  0  0  0  0  0  0
  -22.7140  -10.2760   20.3000 C   0  0  0  0  0  3  0  0  0  0  0  0
  -21.6280   -6.9850   21.4930 O   0  0  0  0  0  0  0  0  0  0  0  0
  -21.5700   -6.2410   22.6440 C   0  0  0  0  0  0  0  0  0  0  0  0
  -21.1260   -6.7920   23.8660 C   0  0  0  0  0  3  0  0  0  0  0  0
  -21.0160   -5.9730   25.0080 C   0  0  0  0  0  3  0  0  0  0  0  0
  -21.3380   -4.6050   24.9290 C   0  0  0  0  0  0  0  0  0  0  0  0
  -21.7730   -4.0540   23.7110 C   0  0  0  0  0  3  0  0  0  0  0  0
  -21.8850   -4.8700   22.5710 C   0  0  0  0  0  0  0  0  0  0  0  0
  -22.2850   -4.3280   21.3960 F   0  0  0  0  0  0  0  0  0  0  0  0
  -21.2250   -3.8170   26.0230 F   0  0  0  0  0  0  0  0  0  0  0  0
  -22.7590  -13.6170   21.2300 C   0  0  0  0  0  0  0  0  0  0  0  0
  -22.0390  -12.9150   22.0970 N   0  0  0  0  0  0  0  0  0  0  0  0
  -22.3220  -14.6520   20.7290 O   0  0  0  0  0  0  0  0  0  0  0  0
  -22.4050  -12.0750   22.5210 H   0  0  0  0  0  0  0  0  0  0  0  0
  -21.1060  -13.2210   22.3410 H   0  0  0  0  0  0  0  0  0  0  0  0
  -25.3840  -15.2800   20.4020 N   0  0  0  0  0  0  0  0  0  0  0  0
  -24.6300  -15.9440   20.5420 H   0  0  0  0  0  0  0  0  0  0  0  0
  -26.2410  -15.7180   20.0900 H   0  0  0  0  0  0  0  0  0  0  0  0
  -28.0130  -24.5290   19.8840 C   0  0  0  0  0  2  0  0  0  0  0  0
  -28.2200  -26.0510   20.3200 O   0  0  0  0  0  0  0  0  0  0  0  0
  -24.6280  -31.8780   23.2330 C   0  0  0  0  0  0  0  0  0  0  0  0
  -27.1960  -27.0930   20.2140 C   0  0  0  0  0  0  0  0  0  0  0  0
  -23.4290  -30.4780   21.5990 C   0  0  0  0  0  3  0  0  0  0  0  0
  -24.8790  -28.8950   20.1710 C   0  0  0  0  0  0  0  0  0  0  0  0
  -25.9890  -30.7230   21.4390 C   0  0  0  0  0  2  0  0  0  0  0  0
  -26.0620  -29.3230   20.7880 C   0  0  0  0  0  0  0  0  0  0  0  0
  -27.2150  -28.4380   20.7940 C   0  0  0  0  0  3  0  0  0  0  0  0
  -25.9920  -26.7980   19.5360 C   0  0  0  0  0  3  0  0  0  0  0  0
  -24.8640  -27.6490   19.5250 C   0  0  0  0  0  3  0  0  0  0  0  0
  -23.6520  -29.7970   20.2210 C   0  0  0  0  0  2  0  0  0  0  0  0
  -24.7030  -31.0510   22.1440 N   0  0  0  0  0  0  0  0  0  0  0  0
  -23.5410  -32.1640   23.7600 O   0  0  0  0  0  0  0  0  0  0  0  0
  -22.7490  -29.4760   22.5650 C   0  0  0  0  0  0  0  0  0  0  0  0
  -21.4190  -29.3060   22.4430 N   0  0  0  0  0  0  0  0  0  0  0  0
  -23.4190  -28.8520   23.3920 O   0  0  0  0  0  0  0  0  0  0  0  0
  -20.9330  -29.8590   21.7500 H   0  0  0  0  0  0  0  0  0  0  0  0
  -18.0390  -28.1010   22.9570 C   0  0  0  0  0  0  0  0  0  0  0  0
  -20.5990  -28.3700   23.2180 C   0  0  0  0  0  3  0  0  0  0  0  0
  -20.7030  -26.9360   22.6470 C   0  0  0  0  0  2  0  0  0  0  0  0
  -19.5980  -26.6080   21.6360 C   0  0  0  0  0  2  0  0  0  0  0  0
  -18.2170  -26.7510   22.2810 C   0  0  0  0  0  2  0  0  0  0  0  0
  -19.1570  -28.8670   23.3830 C   0  0  0  0  0  0  0  0  0  0  0  0
  -18.9340  -30.1290   23.9760 C   0  0  0  0  0  3  0  0  0  0  0  0
  -17.6290  -30.6240   24.1480 C   0  0  0  0  0  3  0  0  0  0  0  0
  -16.5260  -29.8550   23.7380 C   0  0  0  0  0  3  0  0  0  0  0  0
  -16.7330  -28.5950   23.1480 C   0  0  0  0  0  3  0  0  0  0  0  0
  -25.9040  -32.5200   23.8590 C   0  0  0  0  0  3  0  0  0  0  0  0
  -25.5890  -33.9190   24.1920 N   0  0  0  0  0  0  0  0  0  0  0  0
  -25.9060  -34.9760   23.4340 C   0  0  0  0  0  0  0  0  0  0  0  0
  -26.5600  -34.8790   22.3930 O   0  0  0  0  0  0  0  0  0  0  0  0
  -25.0080  -34.0690   25.0040 H   0  0  0  0  0  0  0  0  0  0  0  0
  -24.1610  -36.7650   23.1210 C   0  0  0  0  0  1  0  0  0  0  0  0
  -25.4220  -36.3630   23.9050 C   0  0  0  0  0  3  0  0  0  0  0  0
  -27.5650  -37.2630   24.6950 C   0  0  0  0  0  1  0  0  0  0  0  0
  -26.4460  -37.4220   23.7710 N   0  0  0  0  0  0  0  0  0  0  0  0
  -26.0370  -38.3400   23.9240 H   0  0  0  0  0  0  0  0  0  0  0  0
  -26.4170  -31.7540   25.1420 C   0  0  1  0  0  0  0  0  0  0  0  0
  -25.3200  -31.5230   26.2080 C   0  0  0  0  0  1  0  0  0  0  0  0
  -27.0030  -30.3740   24.7650 C   0  0  0  0  0  1  0  0  0  0  0  0
  -27.5660  -32.5540   25.8010 C   0  0  0  0  0  1  0  0  0  0  0  0
  1  3  2  0
  2  1  1  0
  4  2  1  0
  5 19  1  0
  6 11  1  0
  7  8  1  0
  7  6  1  0
  9  8  1  0
  9 24  1  0
  9 10  1  0
 11  5  1  0
 11 10  1  0
 12  5  2  0
 13 17  1  0
 16 13  1  0
 16 19  1  0
 16 18  1  0
 17  2  1  0
 17 14  1  0
 18 14  1  0
 18 15  1  0
 19 15  1  0
 20 13  2  0
 21 22  2  0
 22 41  1  0
 23 22  1  0
 23 26  1  0
 24 25  1  0
 24 21  1  0
 25 23  2  0
 26 27  1  0
 27 28  2  0
 29 32  1  0
 29 28  1  0
 30 29  2  0
 31 30  1  0
 31 26  2  0
 32 33  1  0
 33 34  1  0
 34 35  2  0
 36 35  1  0
 36 40  1  0
 37 36  2  0
 38 33  2  0
 38 37  1  0
 39 38  1  0
 41 42  1  0
 42 45  1  0
 42 44  1  0
 43 41  2  0
 46 47  1  0
 46 21  1  0
 48 46  1  0
 49 50  1  0
 49  1  1  0
 51 62  2  0
 52 50  1  0
 52 57  1  0
 53 61  1  0
 53 63  1  0
 54 60  1  0
 54 56  1  0
 55 61  1  0
 56 57  2  0
 56 55  1  0
 58 52  2  0
 59 58  1  0
 59 54  2  0
 60 53  1  0
 61 51  1  0
 63 65  2  0
 64 63  1  0
 66 64  1  0
 67 76  2  0
 67 72  1  0
 68 64  1  0
 68 72  1  0
 69 68  1  0
 70 71  1  0
 70 69  1  0
 71 67  1  0
 72 73  2  0
 73 74  1  0
 75 74  2  0
 76 75  1  0
 77 51  1  0
 77 78  1  0
 77 87  1  0
 78 81  1  0
 79 83  1  0
 79 78  1  0
 80 79  2  0
 83 82  1  0
 85 83  1  0
 85 86  1  0
 85 84  1  0
 87 90  1  1
 87 88  1  0
 89 87  1  0
M  ISO  4   5 100  19 100  49 101  50 101
M  END
>  <TORSDO>  (17) 
F 17

>  <SCORE>  (17) 
-16.000

>  <name>  (17) 
16

>  <ligand_id>  (17) 
16

>  <original_smiles>  (17) 
[H]c1c([H])c([H])c2c(c1[H])C([H])([H])C([H])([H])C([H])([H])C2([H])N([H])C(=O)C1([H])N(C(=O)C([H])(N([H])C(=O)C([H])(N([H])C([H])([H])[H])C([H])([H])[H])C(C([H])([H])[H])(C([H])([H])[H])C([H])([H])[H])C([H])([H])c2c([H])c(OC([H])([H])C(=O)N([H])C3([H])C(=O)C4([H])N(C(=O)N5C([H])([H])C([H])([H])C([H])([H])C([H])(n6nc(-c7c([H])c([H])c(Oc8c([H])c([H])c(F)c([H])c8F)c([H])c7[H])c(C(=O)N([H])[H])c6N([H])[H])C5([H])[H])C([H])([H])C4([H])C3([H])[H])c([H])c([H])c2C1([H])[H]

>  <smiles>  (17) 
[H]c1c([H])c([H])c2c(c1[H])C([H])([H])C([H])([H])C([H])([H])C2([H])N([H])C(=O)C1([H])N(C(=O)C([H])(N([H])C(=O)C([H])(N([H])C([H])([H])[H])C([H])([H])[H])C(C([H])([H])[H])(C([H])([H])[H])C([H])([H])[H])C([H])([H])c2c([H])c(OC([H])([H])C(=O)N([H])C3([H])C(=O)C4([H])N(C(=O)N5C([H])([H])C([H])([H])C([H])([H])C([H])(n6nc(-c7c([H])c([H])c(Oc8c([H])c([H])c(F)c([H])c8F)c([H])c7[H])c(C(=O)N([H])[H])c6N([H])[H])C5([H])[H])C([H])([H])C4([H])C3([H])[H])c([H])c([H])c2C1([H])[H]

$$$$
17:0:0
     RDKit          3D

 91100  0  0  1  0  0  0  0  0999 V2000
  -27.3570  -23.0550   20.0880 C   0  0  0  0  0  2  0  0  0  0  0  0
  -29.3490  -21.6630   20.5100 C   0  0  0  0  0  3  0  0  0  0  0  0
  -29.5140  -22.4040   19.2170 C   0  0  0  0  0  3  0  0  0  0  0  0
  -29.2820  -20.7560   19.2940 C   0  0  0  0  0  3  0  0  0  0  0  0
  -28.1080  -22.2340   21.1880 C   0  0  1  0  0  0  0  0  0  0  0  0
  -28.4070  -23.6290   19.0980 C   0  0  1  0  0  0  0  0  0  0  0  0
  -28.5360  -23.1490   22.3510 C   0  0  0  0  0  1  0  0  0  0  0  0
  -27.2170  -21.1110   21.7490 C   0  0  0  0  0  1  0  0  0  0  0  0
  -27.8710  -23.6510   17.6580 C   0  0  0  0  0  1  0  0  0  0  0  0
  -30.2820  -19.4560   18.9900 C   0  0  0  0  0  2  0  0  0  0  0  0
  -30.5720  -18.1270   19.9740 C   0  0  0  0  0  2  0  0  0  0  0  0
  -31.3470  -15.4440   19.6720 C   0  0  0  0  0  0  0  0  0  0  0  0
  -31.2390  -13.0100   18.9610 C   0  0  0  0  0  2  0  0  0  0  0  0
  -30.2580  -12.8260   17.7790 C   0  0  0  0  0  2  0  0  0  0  0  0
  -28.8100  -12.6640   18.2810 C   0  0  0  0  0  2  0  0  0  0  0  0
  -28.4360  -13.7090   19.3650 C   0  0  0  0  0  3  0  0  0  0  0  0
  -29.5290  -13.8300   20.4450 C   0  0  0  0  0  2  0  0  0  0  0  0
  -30.7720  -14.1810   19.7470 N   0  0  0  0  0  0  0  0  0  0  0  0
  -32.5580  -15.5170   19.4430 O   0  0  0  0  0  0  0  0  0  0  0  0
  -30.5020  -16.5840   19.6390 N   0  0  0  0  0  0  0  0  0  0  0  0
  -29.5420  -16.2760   19.6090 H   0  0  0  0  0  0  0  0  0  0  0  0
  -26.1350  -14.3900   20.2600 C   0  0  0  0  0  0  0  0  0  0  0  0
  -25.0540  -13.6590   20.6700 C   0  0  0  0  0  0  0  0  0  0  0  0
  -25.4470  -12.2890   20.5770 C   0  0  0  0  0  0  0  0  0  0  0  0
  -27.1150  -13.4670   19.9360 N   0  0  0  0  0  0  0  0  0  0  0  0
  -26.7140  -12.1960   20.1940 N   0  0  0  0  0  0  0  0  0  0  0  0
  -24.6670  -11.0590   20.7740 C   0  0  0  0  0  0  0  0  0  0  0  0
  -25.0270  -10.1040   21.7500 C   0  0  0  0  0  3  0  0  0  0  0  0
  -24.2490   -8.9410   21.9340 C   0  0  0  0  0  3  0  0  0  0  0  0
  -23.0970   -8.7250   21.1410 C   0  0  0  0  0  0  0  0  0  0  0  0
  -22.7570   -9.6670   20.1550 C   0  0  0  0  0  3  0  0  0  0  0  0
  -23.5340  -10.8230   19.9700 C   0  0  0  0  0  3  0  0  0  0  0  0
  -22.2960   -7.6120   21.2300 O   0  0  0  0  0  0  0  0  0  0  0  0
  -22.0580   -6.9920   22.4310 C   0  0  0  0  0  0  0  0  0  0  0  0
  -21.4650   -7.6720   23.5160 C   0  0  0  0  0  3  0  0  0  0  0  0
  -21.1750   -6.9790   24.7080 C   0  0  0  0  0  3  0  0  0  0  0  0
  -21.4670   -5.6060   24.8140 C   0  0  0  0  0  0  0  0  0  0  0  0
  -22.0530   -4.9250   23.7320 C   0  0  0  0  0  3  0  0  0  0  0  0
  -22.3450   -5.6160   22.5430 C   0  0  0  0  0  0  0  0  0  0  0  0
  -22.8900   -4.9510   21.4960 F   0  0  0  0  0  0  0  0  0  0  0  0
  -21.1820   -4.9370   25.9560 F   0  0  0  0  0  0  0  0  0  0  0  0
  -23.7010  -14.1990   21.0290 C   0  0  0  0  0  0  0  0  0  0  0  0
  -22.9920  -13.5230   21.9270 N   0  0  0  0  0  0  0  0  0  0  0  0
  -23.2850  -15.2530   20.5490 O   0  0  0  0  0  0  0  0  0  0  0  0
  -23.3420  -12.6700   22.3350 H   0  0  0  0  0  0  0  0  0  0  0  0
  -22.0840  -13.8660   22.2100 H   0  0  0  0  0  0  0  0  0  0  0  0
  -26.3550  -15.7560   20.1070 N   0  0  0  0  0  0  0  0  0  0  0  0
  -25.6190  -16.4340   20.2750 H   0  0  0  0  0  0  0  0  0  0  0  0
  -27.1840  -16.1680   19.7020 H   0  0  0  0  0  0  0  0  0  0  0  0
  -28.7010  -25.2370   19.5360 C   0  0  0  0  0  2  0  0  0  0  0  0
  -28.3530  -26.5870   18.8560 O   0  0  0  0  0  0  0  0  0  0  0  0
  -24.6860  -31.5850   22.8800 C   0  0  0  0  0  0  0  0  0  0  0  0
  -27.2150  -27.4180   19.1250 C   0  0  0  0  0  0  0  0  0  0  0  0
  -23.4140  -30.3250   21.1840 C   0  0  0  0  0  3  0  0  0  0  0  0
  -24.8060  -28.9970   19.4820 C   0  0  0  0  0  0  0  0  0  0  0  0
  -25.9260  -30.7570   20.8470 C   0  0  0  0  0  2  0  0  0  0  0  0
  -26.0090  -29.4510   20.0390 C   0  0  0  0  0  0  0  0  0  0  0  0
  -27.2140  -28.6840   19.8360 C   0  0  0  0  0  3  0  0  0  0  0  0
  -25.9770  -27.0460   18.5660 C   0  0  0  0  0  3  0  0  0  0  0  0
  -24.8000  -27.8090   18.7330 C   0  0  0  0  0  3  0  0  0  0  0  0
  -23.5490  -29.8170   19.7230 C   0  0  0  0  0  2  0  0  0  0  0  0
  -24.6990  -30.9060   21.6930 N   0  0  0  0  0  0  0  0  0  0  0  0
  -23.6370  -31.7440   23.5240 O   0  0  0  0  0  0  0  0  0  0  0  0
  -22.8670  -29.1790   22.0700 C   0  0  0  0  0  0  0  0  0  0  0  0
  -21.5510  -28.9160   21.9880 N   0  0  0  0  0  0  0  0  0  0  0  0
  -23.6270  -28.5300   22.7940 O   0  0  0  0  0  0  0  0  0  0  0  0
  -20.9890  -29.4960   21.3790 H   0  0  0  0  0  0  0  0  0  0  0  0
  -18.3150  -27.3570   22.4550 C   0  0  0  0  0  0  0  0  0  0  0  0
  -20.8430  -27.8450   22.6950 C   0  0  0  0  0  3  0  0  0  0  0  0
  -21.0670  -26.4790   22.0040 C   0  0  0  0  0  2  0  0  0  0  0  0
  -19.9740  -26.1310   20.9890 C   0  0  0  0  0  2  0  0  0  0  0  0
  -18.6020  -26.0890   21.6670 C   0  0  0  0  0  2  0  0  0  0  0  0
  -19.3670  -28.1890   22.9230 C   0  0  0  0  0  0  0  0  0  0  0  0
  -19.0420  -29.3720   23.6230 C   0  0  0  0  0  3  0  0  0  0  0  0
  -17.7000  -29.7260   23.8560 C   0  0  0  0  0  3  0  0  0  0  0  0
  -16.6630  -28.8910   23.4020 C   0  0  0  0  0  3  0  0  0  0  0  0
  -16.9730  -27.7080   22.7070 C   0  0  0  0  0  3  0  0  0  0  0  0
  -25.9830  -32.2120   23.4770 C   0  0  0  0  0  3  0  0  0  0  0  0
  -26.6170  -31.3430   24.6320 C   0  0  1  0  0  0  0  0  0  0  0  0
  -25.6160  -30.9650   25.7490 C   0  0  0  0  0  1  0  0  0  0  0  0
  -27.2110  -30.0310   24.0700 C   0  0  0  0  0  1  0  0  0  0  0  0
  -27.7900  -32.1130   25.2840 C   0  0  0  0  0  1  0  0  0  0  0  0
  -25.6450  -33.5550   23.9750 N   0  0  0  0  0  0  0  0  0  0  0  0
  -25.9160  -34.6990   23.3330 C   0  0  0  0  0  0  0  0  0  0  0  0
  -26.5440  -34.7350   22.2710 O   0  0  0  0  0  0  0  0  0  0  0  0
  -25.0820  -33.5970   24.8120 H   0  0  0  0  0  0  0  0  0  0  0  0
  -24.1280  -36.4680   23.2540 C   0  0  0  0  0  1  0  0  0  0  0  0
  -25.4110  -36.0110   23.9660 C   0  0  0  0  0  3  0  0  0  0  0  0
  -27.5530  -36.8630   24.8150 C   0  0  0  0  0  1  0  0  0  0  0  0
  -26.4100  -37.1010   23.9370 N   0  0  0  0  0  0  0  0  0  0  0  0
  -25.9850  -37.9860   24.2040 H   0  0  0  0  0  0  0  0  0  0  0  0
  1  5  1  0
  2  5  1  0
  3  4  1  0
  3  2  1  0
  4  2  1  0
  5  8  1  1
  5  7  1  0
  6  3  1  0
  6 50  1  0
  6  1  1  0
  6  9  1  6
 10  4  1  0
 10 11  1  0
 12 18  1  0
 13 18  1  0
 14 15  1  0
 14 13  1  0
 15 16  1  0
 16 25  1  0
 16 17  1  0
 18 17  1  0
 19 12  2  0
 20 12  1  0
 20 11  1  0
 21 20  1  0
 22 23  2  0
 23 42  1  0
 24 23  1  0
 24 27  1  0
 25 26  1  0
 25 22  1  0
 26 24  2  0
 27 28  1  0
 28 29  2  0
 30 33  1  0
 30 29  1  0
 31 30  2  0
 32 31  1  0
 32 27  2  0
 33 34  1  0
 34 39  2  0
 34 35  1  0
 35 36  2  0
 36 37  1  0
 37 41  1  0
 38 37  2  0
 39 38  1  0
 40 39  1  0
 42 43  1  0
 43 46  1  0
 43 45  1  0
 44 42  2  0
 47 22  1  0
 47 48  1  0
 49 47  1  0
 51 53  1  0
 51 50  1  0
 52 78  1  0
 52 63  2  0
 53 58  1  0
 54 62  1  0
 54 64  1  0
 55 61  1  0
 55 57  1  0
 56 62  1  0
 57 56  1  0
 58 57  2  0
 59 60  1  0
 59 53  2  0
 60 55  2  0
 61 54  1  0
 62 52  1  0
 64 66  2  0
 65 64  1  0
 65 69  1  0
 67 65  1  0
 68 77  2  0
 68 73  1  0
 69 73  1  0
 70 69  1  0
 71 72  1  0
 71 70  1  0
 72 68  1  0
 73 74  2  0
 74 75  1  0
 76 75  2  0
 77 76  1  0
 78 83  1  0
 78 79  1  0
 79 82  1  1
 79 80  1  0
 81 79  1  0
 83 86  1  0
 84 88  1  0
 84 83  1  0
 85 84  2  0
 87 88  1  0
 90 88  1  0
 90 91  1  0
 90 89  1  0
M  ISO  4  12 100  20 100  50 101  51 101
M  END
>  <TORSDO>  (18) 
F 19

>  <SCORE>  (18) 
-9.565

>  <name>  (18) 
17

>  <ligand_id>  (18) 
17

>  <original_smiles>  (18) 
[H]c1c([H])c([H])c2c(c1[H])C([H])([H])C([H])([H])C([H])([H])C2([H])N([H])C(=O)C1([H])N(C(=O)C([H])(N([H])C(=O)C([H])(N([H])C([H])([H])[H])C([H])([H])[H])C(C([H])([H])[H])(C([H])([H])[H])C([H])([H])[H])C([H])([H])c2c([H])c(OC([H])([H])C3(C([H])([H])[H])C([H])([H])C(C([H])([H])[H])(C([H])([H])[H])C4([H])C([H])(C([H])([H])C([H])([H])N([H])C(=O)N5C([H])([H])C([H])([H])C([H])([H])C([H])(n6nc(-c7c([H])c([H])c(Oc8c([H])c([H])c(F)c([H])c8F)c([H])c7[H])c(C(=O)N([H])[H])c6N([H])[H])C5([H])[H])C43[H])c([H])c([H])c2C1([H])[H]

>  <smiles>  (18) 
[H]c1c([H])c([H])c2c(c1[H])C([H])([H])C([H])([H])C([H])([H])C2([H])N([H])C(=O)C1([H])N(C(=O)C([H])(N([H])C(=O)C([H])(N([H])C([H])([H])[H])C([H])([H])[H])C(C([H])([H])[H])(C([H])([H])[H])C([H])([H])[H])C([H])([H])c2c([H])c(OC([H])([H])C3(C([H])([H])[H])C([H])([H])C(C([H])([H])[H])(C([H])([H])[H])C4([H])C([H])(C([H])([H])C([H])([H])N([H])C(=O)N5C([H])([H])C([H])([H])C([H])([H])C([H])(n6nc(-c7c([H])c([H])c(Oc8c([H])c([H])c(F)c([H])c8F)c([H])c7[H])c(C(=O)N([H])[H])c6N([H])[H])C5([H])[H])C43[H])c([H])c([H])c2C1([H])[H]

$$$$
18:0:0
     RDKit          3D

 91101  0  0  1  0  0  0  0  0999 V2000
  -30.5170  -20.1800   22.0970 C   0  0  0  0  0  2  0  0  0  0  0  0
  -28.6410  -20.8780   21.9040 C   0  0  0  0  0  2  0  0  0  0  0  0
  -29.9940  -21.4810   21.4730 C   0  0  1  0  0  0  0  0  0  0  0  0
  -29.3200  -19.6450   21.2750 C   0  0  2  0  0  0  0  0  0  0  0  0
  -30.0580  -21.5250   19.9430 C   0  0  0  0  0  3  0  0  0  0  0  0
  -29.6760  -19.7590   19.7830 C   0  0  1  0  0  0  0  0  0  0  0  0
  -31.2040  -15.6490   20.0780 C   0  0  0  0  0  0  0  0  0  0  0  0
  -31.2120  -13.1120   19.5540 C   0  0  0  0  0  2  0  0  0  0  0  0
  -30.3370  -12.7670   18.3240 C   0  0  0  0  0  2  0  0  0  0  0  0
  -28.8660  -12.5640   18.7310 C   0  0  0  0  0  2  0  0  0  0  0  0
  -28.3820  -13.6510   19.7250 C   0  0  0  0  0  3  0  0  0  0  0  0
  -29.3910  -13.9320   20.8600 C   0  0  0  0  0  2  0  0  0  0  0  0
  -30.6470  -14.3450   20.2180 N   0  0  0  0  0  0  0  0  0  0  0  0
  -32.4230  -15.6100   19.8600 O   0  0  0  0  0  0  0  0  0  0  0  0
  -30.6820  -18.3170   19.6340 C   0  0  0  0  0  0  0  0  0  0  0  0
  -30.4230  -16.9100   20.0260 N   0  0  0  0  0  0  0  0  0  0  0  0
  -31.7770  -18.5510   19.1160 O   0  0  0  0  0  0  0  0  0  0  0  0
  -29.4700  -16.7740   20.3210 H   0  0  0  0  0  0  0  0  0  0  0  0
  -26.0520  -14.3180   20.5100 C   0  0  0  0  0  0  0  0  0  0  0  0
  -24.9470  -13.5930   20.8530 C   0  0  0  0  0  0  0  0  0  0  0  0
  -25.3310  -12.2190   20.7590 C   0  0  0  0  0  0  0  0  0  0  0  0
  -27.0390  -13.3920   20.2230 N   0  0  0  0  0  0  0  0  0  0  0  0
  -26.6170  -12.1200   20.4410 N   0  0  0  0  0  0  0  0  0  0  0  0
  -24.5250  -10.9980   20.8930 C   0  0  0  0  0  0  0  0  0  0  0  0
  -24.8690   -9.9820   21.8130 C   0  0  0  0  0  3  0  0  0  0  0  0
  -24.0660   -8.8270   21.9370 C   0  0  0  0  0  3  0  0  0  0  0  0
  -22.9030   -8.6810   21.1420 C   0  0  0  0  0  0  0  0  0  0  0  0
  -22.5780   -9.6840   20.2120 C   0  0  0  0  0  3  0  0  0  0  0  0
  -23.3810  -10.8300   20.0860 C   0  0  0  0  0  3  0  0  0  0  0  0
  -22.0770   -7.5840   21.1780 O   0  0  0  0  0  0  0  0  0  0  0  0
  -21.8810   -6.8690   22.3320 C   0  0  0  0  0  0  0  0  0  0  0  0
  -21.3650   -7.4720   23.5000 C   0  0  0  0  0  3  0  0  0  0  0  0
  -21.1090   -6.6860   24.6430 C   0  0  0  0  0  3  0  0  0  0  0  0
  -21.3580   -5.3000   24.6150 C   0  0  0  0  0  0  0  0  0  0  0  0
  -21.8660   -4.6990   23.4500 C   0  0  0  0  0  3  0  0  0  0  0  0
  -22.1230   -5.4810   22.3100 C   0  0  0  0  0  0  0  0  0  0  0  0
  -22.5870   -4.8910   21.1820 F   0  0  0  0  0  0  0  0  0  0  0  0
  -21.1090   -4.5450   25.7100 F   0  0  0  0  0  0  0  0  0  0  0  0
  -23.5830  -14.1430   21.1440 C   0  0  0  0  0  0  0  0  0  0  0  0
  -22.8220  -13.4770   22.0040 N   0  0  0  0  0  0  0  0  0  0  0  0
  -23.2010  -15.2000   20.6440 O   0  0  0  0  0  0  0  0  0  0  0  0
  -23.1410  -12.6220   22.4360 H   0  0  0  0  0  0  0  0  0  0  0  0
  -21.9050  -13.8320   22.2380 H   0  0  0  0  0  0  0  0  0  0  0  0
  -26.2910  -15.6850   20.3860 N   0  0  0  0  0  0  0  0  0  0  0  0
  -25.5420  -16.3580   20.5000 H   0  0  0  0  0  0  0  0  0  0  0  0
  -27.1080  -16.0800   19.9450 H   0  0  0  0  0  0  0  0  0  0  0  0
  -27.0850  -19.4490   19.2610 C   0  0  0  0  0  1  0  0  0  0  0  0
  -28.5240  -19.6000   18.7440 C   0  0  0  0  0  2  0  0  0  0  0  0
  -29.1620  -23.0570   19.6180 C   0  0  0  0  0  2  0  0  0  0  0  0
  -29.5150  -24.8140   19.4500 C   0  0  0  0  0  2  0  0  0  0  0  0
  -29.1970  -26.2660   20.1480 O   0  0  0  0  0  0  0  0  0  0  0  0
  -24.7720  -31.5750   23.0820 C   0  0  0  0  0  0  0  0  0  0  0  0
  -28.0900  -27.2450   19.9930 C   0  0  0  0  0  0  0  0  0  0  0  0
  -23.8850  -30.1960   21.2480 C   0  0  0  0  0  3  0  0  0  0  0  0
  -25.6150  -28.8700   19.8570 C   0  0  0  0  0  0  0  0  0  0  0  0
  -26.4140  -30.6820   21.3600 C   0  0  0  0  0  2  0  0  0  0  0  0
  -26.6900  -29.3440   20.6180 C   0  0  0  0  0  0  0  0  0  0  0  0
  -27.9170  -28.5480   20.6690 C   0  0  0  0  0  3  0  0  0  0  0  0
  -26.9780  -26.9200   19.1850 C   0  0  0  0  0  3  0  0  0  0  0  0
  -25.7810  -27.6800   19.1280 C   0  0  0  0  0  3  0  0  0  0  0  0
  -24.3020  -29.6520   19.8530 C   0  0  0  0  0  2  0  0  0  0  0  0
  -25.0370  -30.8430   21.9540 N   0  0  0  0  0  0  0  0  0  0  0  0
  -23.6170  -31.7100   23.5160 O   0  0  0  0  0  0  0  0  0  0  0  0
  -23.2250  -29.0610   22.0740 C   0  0  0  0  0  0  0  0  0  0  0  0
  -21.9160  -28.8270   21.8740 N   0  0  0  0  0  0  0  0  0  0  0  0
  -23.9020  -28.3960   22.8620 O   0  0  0  0  0  0  0  0  0  0  0  0
  -21.4220  -29.4180   21.2200 H   0  0  0  0  0  0  0  0  0  0  0  0
  -18.5810  -27.4420   22.2060 C   0  0  0  0  0  0  0  0  0  0  0  0
  -21.1300  -27.7640   22.5080 C   0  0  0  0  0  3  0  0  0  0  0  0
  -21.2840  -26.4280   21.7460 C   0  0  0  0  0  2  0  0  0  0  0  0
  -20.1930  -26.2060   20.6950 C   0  0  0  0  0  2  0  0  0  0  0  0
  -18.8080  -26.2090   21.3500 C   0  0  0  0  0  2  0  0  0  0  0  0
  -19.6720  -28.1810   22.7380 C   0  0  0  0  0  0  0  0  0  0  0  0
  -19.4060  -29.3380   23.5010 C   0  0  0  0  0  3  0  0  0  0  0  0
  -18.0840  -29.7570   23.7370 C   0  0  0  0  0  3  0  0  0  0  0  0
  -17.0070  -29.0140   23.2210 C   0  0  0  0  0  3  0  0  0  0  0  0
  -17.2570  -27.8590   22.4610 C   0  0  0  0  0  3  0  0  0  0  0  0
  -25.9060  -32.2960   23.8750 C   0  0  0  0  0  3  0  0  0  0  0  0
  -26.3140  -31.5390   25.2000 C   0  0  1  0  0  0  0  0  0  0  0  0
  -25.1160  -31.2060   26.1210 C   0  0  0  0  0  1  0  0  0  0  0  0
  -27.0350  -30.2110   24.8760 C   0  0  0  0  0  1  0  0  0  0  0  0
  -27.3170  -32.3970   26.0040 C   0  0  0  0  0  1  0  0  0  0  0  0
  -25.4420  -33.6570   24.1920 N   0  0  0  0  0  0  0  0  0  0  0  0
  -25.7610  -34.7600   23.5000 C   0  0  0  0  0  0  0  0  0  0  0  0
  -26.5370  -34.7410   22.5400 O   0  0  0  0  0  0  0  0  0  0  0  0
  -24.7600  -33.7400   24.9320 H   0  0  0  0  0  0  0  0  0  0  0  0
  -23.9230  -36.4150   23.0290 C   0  0  0  0  0  1  0  0  0  0  0  0
  -25.1190  -36.0910   23.9380 C   0  0  0  0  0  3  0  0  0  0  0  0
  -27.0850  -37.1380   24.9740 C   0  0  0  0  0  1  0  0  0  0  0  0
  -26.0640  -37.2310   23.9350 N   0  0  0  0  0  0  0  0  0  0  0  0
  -25.5670  -38.1100   24.0570 H   0  0  0  0  0  0  0  0  0  0  0  0
  3  2  1  1
  3  1  1  0
  4  3  1  0
  4  2  1  1
  4  1  1  0
  5 49  1  0
  5  3  1  0
  6 48  1  6
  6  5  1  0
  6  4  1  0
  7 13  1  0
  8 13  1  0
  9 10  1  0
  9  8  1  0
 11 10  1  0
 11 22  1  0
 11 12  1  0
 13 12  1  0
 14  7  2  0
 15  6  1  0
 15 16  1  0
 16  7  1  0
 16 18  1  0
 17 15  2  0
 19 20  2  0
 20 39  1  0
 21 20  1  0
 21 24  1  0
 22 23  1  0
 22 19  1  0
 23 21  2  0
 24 25  1  0
 25 26  2  0
 27 30  1  0
 27 26  1  0
 28 27  2  0
 29 28  1  0
 29 24  2  0
 30 31  1  0
 31 32  1  0
 32 33  2  0
 34 33  1  0
 34 38  1  0
 35 34  2  0
 36 31  2  0
 36 35  1  0
 37 36  1  0
 39 40  1  0
 40 43  1  0
 40 42  1  0
 41 39  2  0
 44 45  1  0
 44 19  1  0
 46 44  1  0
 48 47  1  0
 50 49  1  0
 50 51  1  0
 52 63  2  0
 53 51  1  0
 53 58  1  0
 54 62  1  0
 54 64  1  0
 55 57  1  0
 56 62  1  0
 57 58  2  0
 57 56  1  0
 59 53  2  0
 60 59  1  0
 60 55  2  0
 61 55  1  0
 61 54  1  0
 62 52  1  0
 64 66  2  0
 65 64  1  0
 67 65  1  0
 68 77  2  0
 68 73  1  0
 69 65  1  0
 69 73  1  0
 70 69  1  0
 71 72  1  0
 71 70  1  0
 72 68  1  0
 73 74  2  0
 74 75  1  0
 76 75  2  0
 77 76  1  0
 78 52  1  0
 78 83  1  0
 78 79  1  0
 79 82  1  1
 79 80  1  0
 81 79  1  0
 83 86  1  0
 84 88  1  0
 84 83  1  0
 85 84  2  0
 88 87  1  0
 90 88  1  0
 90 91  1  0
 90 89  1  0
M  ISO  4   7 100  16 100  50 101  51 101
M  END
>  <TORSDO>  (19) 
F 19

>  <SCORE>  (19) 
-12.541

>  <name>  (19) 
18

>  <ligand_id>  (19) 
18

>  <original_smiles>  (19) 
[H]c1c([H])c([H])c2c(c1[H])C([H])([H])C([H])([H])C([H])([H])C2([H])N([H])C(=O)C1([H])N(C(=O)C([H])(N([H])C(=O)C([H])(N([H])C([H])([H])[H])C([H])([H])[H])C(C([H])([H])[H])(C([H])([H])[H])C([H])([H])[H])C([H])([H])c2c([H])c(OC([H])([H])C([H])([H])C3([H])C4([H])C([H])([H])C([H])(C4([H])[H])C3(C(=O)N([H])C(=O)N3C([H])([H])C([H])([H])C([H])([H])C([H])(n4nc(-c5c([H])c([H])c(Oc6c([H])c([H])c(F)c([H])c6F)c([H])c5[H])c(C(=O)N([H])[H])c4N([H])[H])C3([H])[H])C([H])([H])C([H])([H])[H])c([H])c([H])c2C1([H])[H]

>  <smiles>  (19) 
[H]c1c([H])c([H])c2c(c1[H])C([H])([H])C([H])([H])C([H])([H])C2([H])N([H])C(=O)C1([H])N(C(=O)C([H])(N([H])C(=O)C([H])(N([H])C([H])([H])[H])C([H])([H])[H])C(C([H])([H])[H])(C([H])([H])[H])C([H])([H])[H])C([H])([H])c2c([H])c(OC([H])([H])C([H])([H])C3([H])C4([H])C([H])([H])C([H])(C4([H])[H])C3(C(=O)N([H])C(=O)N3C([H])([H])C([H])([H])C([H])([H])C([H])(n4nc(-c5c([H])c([H])c(Oc6c([H])c([H])c(F)c([H])c6F)c([H])c5[H])c(C(=O)N([H])[H])c4N([H])[H])C3([H])[H])C([H])([H])C([H])([H])[H])c([H])c([H])c2C1([H])[H]

$$$$
19:0:0
     RDKit          3D

 90100  0  0  1  0  0  0  0  0999 V2000
  -29.0350  -20.9450   18.3160 C   0  0  0  0  0  2  0  0  0  0  0  0
  -30.2740  -22.1500   20.5410 C   0  0  0  0  0  2  0  0  0  0  0  0
  -30.1710  -18.6940   18.6870 C   0  0  0  0  0  2  0  0  0  0  0  0
  -28.3540  -19.4730   20.3040 C   0  0  0  0  0  2  0  0  0  0  0  0
  -30.6760  -19.3070   20.8920 C   0  0  0  0  0  2  0  0  0  0  0  0
  -30.3800  -20.2470   18.6340 C   0  0  0  0  0  3  0  0  0  0  0  0
  -28.2570  -21.0770   19.6400 C   0  0  0  0  0  3  0  0  0  0  0  0
  -30.8570  -20.6780   20.0590 C   0  0  0  0  0  3  0  0  0  0  0  0
  -28.7270  -22.5690   20.3410 C   0  0  0  0  0  3  0  0  0  0  0  0
  -29.6630  -18.3790   20.1100 C   0  0  2  0  0  0  0  0  0  0  0  0
  -30.3780  -15.4010   20.2690 C   0  0  0  0  0  0  0  0  0  0  0  0
  -30.3900  -12.9340   19.4210 C   0  0  0  0  0  2  0  0  0  0  0  0
  -29.4690  -12.6640   18.2030 C   0  0  0  0  0  2  0  0  0  0  0  0
  -28.0410  -12.3350   18.6710 C   0  0  0  0  0  2  0  0  0  0  0  0
  -27.5610  -13.3300   19.7530 C   0  0  0  0  0  3  0  0  0  0  0  0
  -28.6030  -13.5460   20.8730 C   0  0  0  0  0  2  0  0  0  0  0  0
  -29.8240  -14.0800   20.2360 N   0  0  0  0  0  0  0  0  0  0  0  0
  -31.5960  -15.3890   20.0380 O   0  0  0  0  0  0  0  0  0  0  0  0
  -29.6040  -16.6870   20.3620 N   0  0  0  0  0  0  0  0  0  0  0  0
  -28.6520  -16.4340   20.5910 H   0  0  0  0  0  0  0  0  0  0  0  0
  -25.1950  -13.8750   20.5210 C   0  0  0  0  0  0  0  0  0  0  0  0
  -24.1330  -13.0960   20.8810 C   0  0  0  0  0  0  0  0  0  0  0  0
  -24.5990  -11.7460   20.8340 C   0  0  0  0  0  0  0  0  0  0  0  0
  -26.2370  -13.0040   20.2670 N   0  0  0  0  0  0  0  0  0  0  0  0
  -25.8910  -11.7150   20.5240 N   0  0  0  0  0  0  0  0  0  0  0  0
  -23.8690  -10.4840   21.0110 C   0  0  0  0  0  0  0  0  0  0  0  0
  -24.2920   -9.5130   21.9470 C   0  0  0  0  0  3  0  0  0  0  0  0
  -23.5650   -8.3150   22.1160 C   0  0  0  0  0  3  0  0  0  0  0  0
  -22.3980   -8.0780   21.3520 C   0  0  0  0  0  0  0  0  0  0  0  0
  -21.9940   -9.0380   20.4080 C   0  0  0  0  0  3  0  0  0  0  0  0
  -22.7210  -10.2270   20.2360 C   0  0  0  0  0  3  0  0  0  0  0  0
  -21.6450   -6.9320   21.4290 O   0  0  0  0  0  0  0  0  0  0  0  0
  -21.5730   -6.1940   22.5830 C   0  0  0  0  0  0  0  0  0  0  0  0
  -21.0980   -6.7470   23.7920 C   0  0  0  0  0  3  0  0  0  0  0  0
  -20.9750   -5.9340   24.9370 C   0  0  0  0  0  3  0  0  0  0  0  0
  -21.3160   -4.5700   24.8740 C   0  0  0  0  0  0  0  0  0  0  0  0
  -21.7840   -4.0160   23.6670 C   0  0  0  0  0  3  0  0  0  0  0  0
  -21.9070   -4.8250   22.5260 C   0  0  0  0  0  0  0  0  0  0  0  0
  -22.3410   -4.2820   21.3630 F   0  0  0  0  0  0  0  0  0  0  0  0
  -21.1880   -3.7880   25.9710 F   0  0  0  0  0  0  0  0  0  0  0  0
  -22.7360  -13.5720   21.1510 C   0  0  0  0  0  0  0  0  0  0  0  0
  -22.0030  -12.8680   22.0050 N   0  0  0  0  0  0  0  0  0  0  0  0
  -22.3050  -14.6040   20.6400 O   0  0  0  0  0  0  0  0  0  0  0  0
  -22.3650  -12.0340   22.4430 H   0  0  0  0  0  0  0  0  0  0  0  0
  -21.0650  -13.1680   22.2280 H   0  0  0  0  0  0  0  0  0  0  0  0
  -25.3590  -15.2470   20.3670 N   0  0  0  0  0  0  0  0  0  0  0  0
  -24.5900  -15.8970   20.5000 H   0  0  0  0  0  0  0  0  0  0  0  0
  -26.2120  -15.6940   20.0650 H   0  0  0  0  0  0  0  0  0  0  0  0
  -28.2630  -24.2560   19.7730 C   0  0  0  0  0  2  0  0  0  0  0  0
  -28.2310  -25.8370   20.3040 O   0  0  0  0  0  0  0  0  0  0  0  0
  -24.6190  -31.8340   23.2220 C   0  0  0  0  0  0  0  0  0  0  0  0
  -27.2000  -26.9290   20.2010 C   0  0  0  0  0  0  0  0  0  0  0  0
  -23.4330  -30.4320   21.5800 C   0  0  0  0  0  3  0  0  0  0  0  0
  -24.8850  -28.8150   20.1630 C   0  0  0  0  0  0  0  0  0  0  0  0
  -25.9980  -30.6400   21.4350 C   0  0  0  0  0  2  0  0  0  0  0  0
  -26.0720  -29.2210   20.7860 C   0  0  0  0  0  0  0  0  0  0  0  0
  -27.2140  -28.2950   20.7850 C   0  0  0  0  0  3  0  0  0  0  0  0
  -25.9790  -26.6830   19.5290 C   0  0  0  0  0  3  0  0  0  0  0  0
  -24.8650  -27.5660   19.5180 C   0  0  0  0  0  3  0  0  0  0  0  0
  -23.6650  -29.7370   20.2060 C   0  0  0  0  0  2  0  0  0  0  0  0
  -24.7060  -30.9960   22.1350 N   0  0  0  0  0  0  0  0  0  0  0  0
  -23.5290  -32.1180   23.7450 O   0  0  0  0  0  0  0  0  0  0  0  0
  -22.7320  -29.4400   22.5480 C   0  0  0  0  0  0  0  0  0  0  0  0
  -21.4010  -29.2790   22.4240 N   0  0  0  0  0  0  0  0  0  0  0  0
  -23.3940  -28.8170   23.3800 O   0  0  0  0  0  0  0  0  0  0  0  0
  -20.9190  -29.8280   21.7260 H   0  0  0  0  0  0  0  0  0  0  0  0
  -18.0130  -28.0880   22.9410 C   0  0  0  0  0  0  0  0  0  0  0  0
  -20.5750  -28.3440   23.1980 C   0  0  0  0  0  3  0  0  0  0  0  0
  -20.6680  -26.9130   22.6190 C   0  0  0  0  0  2  0  0  0  0  0  0
  -19.5640  -26.6000   21.6060 C   0  0  0  0  0  2  0  0  0  0  0  0
  -18.1850  -26.7410   22.2560 C   0  0  0  0  0  2  0  0  0  0  0  0
  -19.1360  -28.8450   23.3670 C   0  0  0  0  0  0  0  0  0  0  0  0
  -18.9160  -30.1050   23.9720 C   0  0  0  0  0  3  0  0  0  0  0  0
  -17.6120  -30.6030   24.1470 C   0  0  0  0  0  3  0  0  0  0  0  0
  -16.5060  -29.8400   23.7350 C   0  0  0  0  0  3  0  0  0  0  0  0
  -16.7080  -28.5830   23.1380 C   0  0  0  0  0  3  0  0  0  0  0  0
  -25.8860  -32.4830   23.8550 C   0  0  0  0  0  3  0  0  0  0  0  0
  -25.5720  -33.8900   24.1680 N   0  0  0  0  0  0  0  0  0  0  0  0
  -25.9140  -34.9400   23.4100 C   0  0  0  0  0  0  0  0  0  0  0  0
  -26.5890  -34.8260   22.3850 O   0  0  0  0  0  0  0  0  0  0  0  0
  -24.9790  -34.0500   24.9660 H   0  0  0  0  0  0  0  0  0  0  0  0
  -24.2050  -36.7480   23.0210 C   0  0  0  0  0  1  0  0  0  0  0  0
  -25.4300  -36.3360   23.8540 C   0  0  0  0  0  3  0  0  0  0  0  0
  -27.5610  -37.2110   24.7080 C   0  0  0  0  0  1  0  0  0  0  0  0
  -26.4690  -37.3850   23.7530 N   0  0  0  0  0  0  0  0  0  0  0  0
  -26.0660  -38.3070   23.8960 H   0  0  0  0  0  0  0  0  0  0  0  0
  -26.3690  -31.7420   25.1630 C   0  0  1  0  0  0  0  0  0  0  0  0
  -25.2580  -31.5460   26.2240 C   0  0  0  0  0  1  0  0  0  0  0  0
  -26.9320  -30.3460   24.8170 C   0  0  0  0  0  1  0  0  0  0  0  0
  -27.5240  -32.5310   25.8230 C   0  0  0  0  0  1  0  0  0  0  0  0
  3 10  1  0
  6  1  1  0
  6  3  1  0
  6  8  1  0
  7  1  1  0
  7  4  1  0
  7  9  1  0
  8  2  1  0
  8  5  1  0
  9 49  1  0
  9  2  1  0
 10  4  1  0
 10 19  1  1
 10  5  1  0
 11 19  1  0
 12 17  1  0
 13 14  1  0
 13 12  1  0
 15 14  1  0
 15 24  1  0
 15 16  1  0
 17 11  1  0
 17 16  1  0
 18 11  2  0
 19 20  1  0
 21 22  2  0
 22 41  1  0
 23 22  1  0
 23 26  1  0
 24 21  1  0
 24 25  1  0
 25 23  2  0
 26 27  1  0
 27 28  2  0
 29 32  1  0
 29 28  1  0
 30 29  2  0
 31 30  1  0
 31 26  2  0
 32 33  1  0
 33 34  1  0
 34 35  2  0
 36 35  1  0
 36 40  1  0
 37 36  2  0
 38 33  2  0
 38 37  1  0
 39 38  1  0
 41 42  1  0
 42 45  1  0
 42 44  1  0
 43 41  2  0
 46 47  1  0
 46 21  1  0
 48 46  1  0
 49 50  1  0
 51 62  2  0
 52 50  1  0
 52 57  1  0
 53 61  1  0
 53 63  1  0
 54 60  1  0
 54 56  1  0
 55 61  1  0
 56 55  1  0
 57 56  2  0
 58 52  2  0
 59 58  1  0
 59 54  2  0
 60 53  1  0
 61 51  1  0
 63 65  2  0
 64 63  1  0
 66 64  1  0
 67 76  2  0
 67 72  1  0
 68 64  1  0
 68 72  1  0
 69 68  1  0
 70 71  1  0
 70 69  1  0
 71 67  1  0
 72 73  2  0
 73 74  1  0
 75 74  2  0
 76 75  1  0
 77 51  1  0
 77 78  1  0
 77 87  1  0
 78 81  1  0
 79 83  1  0
 79 78  1  0
 80 79  2  0
 83 82  1  0
 85 83  1  0
 85 86  1  0
 85 84  1  0
 87 90  1  1
 87 88  1  0
 89 87  1  0
M  ISO  4  11 100  19 100  49 101  50 101
M  END
>  <TORSDO>  (20) 
F 17

>  <SCORE>  (20) 
-16.832

>  <name>  (20) 
19

>  <ligand_id>  (20) 
19

>  <original_smiles>  (20) 
[H]c1c([H])c([H])c2c(c1[H])C([H])([H])C([H])([H])C([H])([H])C2([H])N([H])C(=O)C1([H])N(C(=O)C([H])(N([H])C(=O)C([H])(N([H])C([H])([H])[H])C([H])([H])[H])C(C([H])([H])[H])(C([H])([H])[H])C([H])([H])[H])C([H])([H])c2c([H])c(OC([H])([H])C3([H])C([H])([H])C4([H])C([H])([H])C5(N([H])C(=O)N6C([H])([H])C([H])([H])C([H])([H])C([H])(n7nc(-c8c([H])c([H])c(Oc9c([H])c([H])c(F)c([H])c9F)c([H])c8[H])c(C(=O)N([H])[H])c7N([H])[H])C6([H])[H])C([H])([H])C3([H])C([H])([H])C4([H])C5([H])[H])c([H])c([H])c2C1([H])[H]

>  <smiles>  (20) 
[H]c1c([H])c([H])c2c(c1[H])C([H])([H])C([H])([H])C([H])([H])C2([H])N([H])C(=O)C1([H])N(C(=O)C([H])(N([H])C(=O)C([H])(N([H])C([H])([H])[H])C([H])([H])[H])C(C([H])([H])[H])(C([H])([H])[H])C([H])([H])[H])C([H])([H])c2c([H])c(OC([H])([H])C3([H])C([H])([H])C4([H])C([H])([H])C5(N([H])C(=O)N6C([H])([H])C([H])([H])C([H])([H])C([H])(n7nc(-c8c([H])c([H])c(Oc9c([H])c([H])c(F)c([H])c9F)c([H])c8[H])c(C(=O)N([H])[H])c7N([H])[H])C6([H])[H])C([H])([H])C3([H])C([H])([H])C4([H])C5([H])[H])c([H])c([H])c2C1([H])[H]

$$$$
20:0:0
     RDKit          3D

 93102  0  0  1  0  0  0  0  0999 V2000
  -29.3110  -20.6550   21.6040 C   0  0  0  0  0  2  0  0  0  0  0  0
  -29.2280  -19.7180   20.4900 C   0  0  0  0  0  0  0  0  0  0  0  0
  -29.0180  -20.4420   19.3330 C   0  0  0  0  0  0  0  0  0  0  0  0
  -29.1460  -21.8180   20.7860 C   0  0  0  0  0  3  0  0  0  0  0  0
  -28.8170  -21.9690   19.3550 C   0  0  0  0  0  3  0  0  0  0  0  0
  -29.2360  -23.1840   20.2100 C   0  0  0  0  0  3  0  0  0  0  0  0
  -28.7860  -19.8180   18.0190 C   0  0  0  0  0  0  0  0  0  0  0  0
  -27.3700  -19.3760   17.6730 C   0  0  0  0  0  1  0  0  0  0  0  0
  -29.6760  -19.6890   17.1760 O   0  0  0  0  0  0  0  0  0  0  0  0
  -29.1720  -18.1640   20.6470 C   0  0  0  0  0  2  0  0  0  0  0  0
  -31.6580  -17.7330   21.1420 C   0  0  0  0  0  1  0  0  0  0  0  0
  -30.4330  -17.2760   20.3270 C   0  0  0  0  0  3  0  0  0  0  0  0
  -30.8880  -14.7460   20.1120 C   0  0  0  0  0  0  0  0  0  0  0  0
  -30.6020  -12.5190   19.0750 C   0  0  0  0  0  2  0  0  0  0  0  0
  -29.6140  -12.6530   17.8950 C   0  0  0  0  0  2  0  0  0  0  0  0
  -28.1620  -12.4900   18.3850 C   0  0  0  0  0  2  0  0  0  0  0  0
  -27.8490  -13.3670   19.6270 C   0  0  0  0  0  3  0  0  0  0  0  0
  -28.9490  -13.2310   20.7060 C   0  0  0  0  0  2  0  0  0  0  0  0
  -30.2400  -13.5440   20.0730 N   0  0  0  0  0  0  0  0  0  0  0  0
  -32.0060  -14.8950   19.6140 O   0  0  0  0  0  0  0  0  0  0  0  0
  -30.1610  -15.8160   20.5400 N   0  0  0  0  0  0  0  0  0  0  0  0
  -29.2640  -15.5890   20.9380 H   0  0  0  0  0  0  0  0  0  0  0  0
  -25.4980  -13.9600   20.4850 C   0  0  0  0  0  0  0  0  0  0  0  0
  -24.4420  -13.1830   20.8750 C   0  0  0  0  0  0  0  0  0  0  0  0
  -24.8880  -11.8290   20.7740 C   0  0  0  0  0  0  0  0  0  0  0  0
  -26.5210  -13.0790   20.1660 N   0  0  0  0  0  0  0  0  0  0  0  0
  -26.1630  -11.7920   20.4010 N   0  0  0  0  0  0  0  0  0  0  0  0
  -24.1620  -10.5660   20.9600 C   0  0  0  0  0  0  0  0  0  0  0  0
  -24.5680   -9.6150   21.9220 C   0  0  0  0  0  3  0  0  0  0  0  0
  -23.8430   -8.4150   22.0910 C   0  0  0  0  0  3  0  0  0  0  0  0
  -22.6980   -8.1600   21.3010 C   0  0  0  0  0  0  0  0  0  0  0  0
  -22.3100   -9.1000   20.3300 C   0  0  0  0  0  3  0  0  0  0  0  0
  -23.0350  -10.2910   20.1590 C   0  0  0  0  0  3  0  0  0  0  0  0
  -21.9480   -7.0090   21.3810 O   0  0  0  0  0  0  0  0  0  0  0  0
  -21.7890   -6.3350   22.5630 C   0  0  0  0  0  0  0  0  0  0  0  0
  -21.1750   -6.9310   23.6880 C   0  0  0  0  0  3  0  0  0  0  0  0
  -20.9680   -6.1750   24.8590 C   0  0  0  0  0  3  0  0  0  0  0  0
  -21.3660   -4.8270   24.9070 C   0  0  0  0  0  0  0  0  0  0  0  0
  -21.9720   -4.2300   23.7880 C   0  0  0  0  0  3  0  0  0  0  0  0
  -22.1820   -4.9810   22.6180 C   0  0  0  0  0  0  0  0  0  0  0  0
  -22.7470   -4.3960   21.5360 F   0  0  0  0  0  0  0  0  0  0  0  0
  -21.1600   -4.0990   26.0290 F   0  0  0  0  0  0  0  0  0  0  0  0
  -23.0620  -13.6600   21.2300 C   0  0  0  0  0  0  0  0  0  0  0  0
  -22.3600  -12.9300   22.0890 N   0  0  0  0  0  0  0  0  0  0  0  0
  -22.6140  -14.7140   20.7830 O   0  0  0  0  0  0  0  0  0  0  0  0
  -22.7340  -12.0760   22.4770 H   0  0  0  0  0  0  0  0  0  0  0  0
  -21.4390  -13.2340   22.3680 H   0  0  0  0  0  0  0  0  0  0  0  0
  -25.6700  -15.3340   20.3520 N   0  0  0  0  0  0  0  0  0  0  0  0
  -24.9400  -15.9930   20.6010 H   0  0  0  0  0  0  0  0  0  0  0  0
  -26.5070  -15.7790   19.9970 H   0  0  0  0  0  0  0  0  0  0  0  0
  -28.1700  -24.2630   20.5360 C   0  0  0  0  0  2  0  0  0  0  0  0
  -28.6700  -25.6470   21.0860 C   0  0  0  0  0  2  0  0  0  0  0  0
  -28.5990  -26.8170   20.2200 O   0  0  0  0  0  0  0  0  0  0  0  0
  -24.6340  -31.9580   23.2790 C   0  0  0  0  0  0  0  0  0  0  0  0
  -27.4310  -27.5600   20.2400 C   0  0  0  0  0  0  0  0  0  0  0  0
  -23.4930  -30.5260   21.6180 C   0  0  0  0  0  3  0  0  0  0  0  0
  -25.0060  -29.0340   20.2060 C   0  0  0  0  0  0  0  0  0  0  0  0
  -26.0130  -30.9510   21.4530 C   0  0  0  0  0  2  0  0  0  0  0  0
  -26.1450  -29.5800   20.8130 C   0  0  0  0  0  0  0  0  0  0  0  0
  -27.3630  -28.8520   20.8250 C   0  0  0  0  0  3  0  0  0  0  0  0
  -26.2790  -27.0440   19.6150 C   0  0  0  0  0  3  0  0  0  0  0  0
  -25.0700  -27.7670   19.6000 C   0  0  0  0  0  3  0  0  0  0  0  0
  -23.7390  -29.8610   20.2370 C   0  0  0  0  0  2  0  0  0  0  0  0
  -24.7320  -31.1620   22.1750 N   0  0  0  0  0  0  0  0  0  0  0  0
  -23.5390  -32.1960   23.8050 O   0  0  0  0  0  0  0  0  0  0  0  0
  -22.8580  -29.4830   22.5660 C   0  0  0  0  0  0  0  0  0  0  0  0
  -21.5410  -29.2550   22.4160 N   0  0  0  0  0  0  0  0  0  0  0  0
  -23.5470  -28.8830   23.3950 O   0  0  0  0  0  0  0  0  0  0  0  0
  -21.0440  -29.7940   21.7210 H   0  0  0  0  0  0  0  0  0  0  0  0
  -18.1930  -27.9770   22.8900 C   0  0  0  0  0  0  0  0  0  0  0  0
  -20.7440  -28.2880   23.1710 C   0  0  0  0  0  3  0  0  0  0  0  0
  -20.8780  -26.8680   22.5740 C   0  0  0  0  0  2  0  0  0  0  0  0
  -19.7860  -26.5340   21.5540 C   0  0  0  0  0  2  0  0  0  0  0  0
  -18.3990  -26.6410   22.1970 C   0  0  0  0  0  2  0  0  0  0  0  0
  -19.2940  -28.7570   23.3330 C   0  0  0  0  0  0  0  0  0  0  0  0
  -19.0460  -30.0070   23.9410 C   0  0  0  0  0  3  0  0  0  0  0  0
  -17.7290  -30.4790   24.1090 C   0  0  0  0  0  3  0  0  0  0  0  0
  -16.6430  -29.6940   23.6820 C   0  0  0  0  0  3  0  0  0  0  0  0
  -16.8760  -28.4460   23.0800 C   0  0  0  0  0  3  0  0  0  0  0  0
  -25.8930  -32.6250   23.9170 C   0  0  0  0  0  3  0  0  0  0  0  0
  -25.5530  -34.0250   24.2130 N   0  0  0  0  0  0  0  0  0  0  0  0
  -25.9000  -35.0690   23.4490 C   0  0  0  0  0  0  0  0  0  0  0  0
  -26.6110  -34.9580   22.4460 O   0  0  0  0  0  0  0  0  0  0  0  0
  -24.9290  -34.1880   24.9890 H   0  0  0  0  0  0  0  0  0  0  0  0
  -24.1810  -36.8430   22.9730 C   0  0  0  0  0  1  0  0  0  0  0  0
  -25.3750  -36.4570   23.8630 C   0  0  0  0  0  3  0  0  0  0  0  0
  -27.4430  -37.3720   24.8180 C   0  0  0  0  0  1  0  0  0  0  0  0
  -26.4040  -37.5180   23.8020 N   0  0  0  0  0  0  0  0  0  0  0  0
  -25.9800  -38.4350   23.9080 H   0  0  0  0  0  0  0  0  0  0  0  0
  -26.3970  -31.8880   25.2170 C   0  0  1  0  0  0  0  0  0  0  0  0
  -25.2820  -31.6290   26.2570 C   0  0  0  0  0  1  0  0  0  0  0  0
  -27.0320  -30.5250   24.8590 C   0  0  0  0  0  1  0  0  0  0  0  0
  -27.5030  -32.7250   25.9010 C   0  0  0  0  0  1  0  0  0  0  0  0
  2 10  1  0
  2  1  1  0
  3  2  2  0
  4  1  1  0
  5  3  1  0
  5  6  1  0
  5  4  1  0
  6 51  1  0
  6  4  1  0
  7  3  1  0
  8  7  1  0
  9  7  2  0
 12 21  1  0
 12 10  1  0
 12 11  1  0
 13 21  1  0
 14 19  1  0
 15 16  1  0
 15 14  1  0
 17 16  1  0
 17 26  1  0
 17 18  1  0
 19 13  1  0
 19 18  1  0
 20 13  2  0
 21 22  1  0
 23 24  2  0
 24 43  1  0
 25 24  1  0
 25 28  1  0
 26 27  1  0
 26 23  1  0
 27 25  2  0
 28 29  1  0
 29 30  2  0
 31 34  1  0
 31 30  1  0
 32 31  2  0
 33 32  1  0
 33 28  2  0
 34 35  1  0
 35 40  2  0
 35 36  1  0
 36 37  2  0
 37 38  1  0
 38 42  1  0
 39 38  2  0
 40 39  1  0
 41 40  1  0
 43 44  1  0
 44 47  1  0
 44 46  1  0
 45 43  2  0
 48 23  1  0
 48 49  1  0
 50 48  1  0
 51 52  1  0
 53 55  1  0
 53 52  1  0
 54 65  2  0
 55 60  1  0
 56 64  1  0
 56 66  1  0
 57 63  1  0
 57 59  1  0
 58 64  1  0
 59 60  2  0
 59 58  1  0
 61 55  2  0
 62 61  1  0
 62 57  2  0
 63 56  1  0
 64 54  1  0
 66 68  2  0
 67 66  1  0
 69 67  1  0
 70 79  2  0
 70 75  1  0
 71 67  1  0
 71 75  1  0
 72 71  1  0
 73 74  1  0
 73 72  1  0
 74 70  1  0
 75 76  2  0
 76 77  1  0
 78 77  2  0
 79 78  1  0
 80 54  1  0
 80 81  1  0
 80 90  1  0
 81 84  1  0
 82 86  1  0
 82 81  1  0
 83 82  2  0
 86 85  1  0
 88 86  1  0
 88 89  1  0
 88 87  1  0
 90 93  1  1
 90 91  1  0
 92 90  1  0
M  ISO  4  13 100  21 100  52 101  53 101
M  END
>  <TORSDO>  (21) 
F 21

>  <SCORE>  (21) 
-13.318

>  <name>  (21) 
20

>  <ligand_id>  (21) 
20

>  <original_smiles>  (21) 
[H]C1=C2C([H])(C(C(=O)C([H])([H])[H])=C1C([H])([H])C([H])(N([H])C(=O)N1C([H])([H])C([H])([H])C([H])([H])C([H])(n3nc(-c4c([H])c([H])c(Oc5c([H])c([H])c(F)c([H])c5F)c([H])c4[H])c(C(=O)N([H])[H])c3N([H])[H])C1([H])[H])C([H])([H])[H])C2([H])C([H])([H])C([H])([H])Oc1c([H])c([H])c2c(c1[H])C([H])([H])N(C(=O)C([H])(N([H])C(=O)C([H])(N([H])C([H])([H])[H])C([H])([H])[H])C(C([H])([H])[H])(C([H])([H])[H])C([H])([H])[H])C([H])(C(=O)N([H])C1([H])c3c([H])c([H])c([H])c([H])c3C([H])([H])C([H])([H])C1([H])[H])C2([H])[H]

>  <smiles>  (21) 
[H]C1=C2C([H])(C(C(=O)C([H])([H])[H])=C1C([H])([H])C([H])(N([H])C(=O)N1C([H])([H])C([H])([H])C([H])([H])C([H])(n3nc(-c4c([H])c([H])c(Oc5c([H])c([H])c(F)c([H])c5F)c([H])c4[H])c(C(=O)N([H])[H])c3N([H])[H])C1([H])[H])C([H])([H])[H])C2([H])C([H])([H])C([H])([H])Oc1c([H])c([H])c2c(c1[H])C([H])([H])N(C(=O)C([H])(N([H])C(=O)C([H])(N([H])C([H])([H])[H])C([H])([H])[H])C(C([H])([H])[H])(C([H])([H])[H])C([H])([H])[H])C([H])(C(=O)N([H])C1([H])c3c([H])c([H])c([H])c([H])c3C([H])([H])C([H])([H])C1([H])[H])C2([H])[H]

$$$$
21:0:0
     RDKit          3D

 95102  0  0  1  0  0  0  0  0999 V2000
  -27.6170  -20.8530   20.6100 C   0  0  0  0  0  2  0  0  0  0  0  0
  -29.7910  -20.8710   21.9650 C   0  0  0  0  0  1  0  0  0  0  0  0
  -29.0730  -20.3150   20.7180 C   0  0  0  0  0  3  0  0  0  0  0  0
  -29.0320  -18.7580   20.7140 C   0  0  0  0  0  2  0  0  0  0  0  0
  -30.3700  -17.9800   20.5580 C   0  0  0  0  0  3  0  0  0  0  0  0
  -31.2320  -18.1090   21.7490 N   0  0  0  0  0  4  0  0  0  0  0  0
  -32.0880  -17.5970   21.6250 H   0  0  0  0  0  0  0  0  0  0  0  0
  -30.7730  -17.7550   22.5690 H   0  0  0  0  0  0  0  0  0  0  0  0
  -31.4750  -19.0720   21.9060 H   0  0  0  0  0  0  0  0  0  0  0  0
  -30.0850  -16.4860   20.2540 C   0  0  0  0  0  2  0  0  0  0  0  0
  -31.5760  -14.5860   19.8710 C   0  0  0  0  0  0  0  0  0  0  0  0
  -31.1360  -12.3390   18.9580 C   0  0  0  0  0  2  0  0  0  0  0  0
  -30.1640  -12.4080   17.7640 C   0  0  0  0  0  2  0  0  0  0  0  0
  -28.7000  -12.3760   18.2500 C   0  0  0  0  0  2  0  0  0  0  0  0
  -28.4290  -13.3910   19.3910 C   0  0  0  0  0  3  0  0  0  0  0  0
  -29.5050  -13.2710   20.4950 C   0  0  0  0  0  2  0  0  0  0  0  0
  -30.8240  -13.4530   19.8670 N   0  0  0  0  0  0  0  0  0  0  0  0
  -32.6290  -14.7060   19.2420 O   0  0  0  0  0  0  0  0  0  0  0  0
  -31.1760  -15.5890   20.6630 N   0  0  0  0  0  0  0  0  0  0  0  0
  -31.9970  -16.1050   20.9410 H   0  0  0  0  0  0  0  0  0  0  0  0
  -26.1300  -14.2120   20.2110 C   0  0  0  0  0  0  0  0  0  0  0  0
  -25.0130  -13.5370   20.6270 C   0  0  0  0  0  0  0  0  0  0  0  0
  -25.3440  -12.1500   20.5630 C   0  0  0  0  0  0  0  0  0  0  0  0
  -27.0790  -13.2400   19.9290 N   0  0  0  0  0  0  0  0  0  0  0  0
  -26.6100  -11.9940   20.1940 N   0  0  0  0  0  0  0  0  0  0  0  0
  -24.5140  -10.9580   20.7740 C   0  0  0  0  0  0  0  0  0  0  0  0
  -24.8620   -9.9760   21.7270 C   0  0  0  0  0  3  0  0  0  0  0  0
  -24.0390   -8.8470   21.9250 C   0  0  0  0  0  3  0  0  0  0  0  0
  -22.8530   -8.6910   21.1690 C   0  0  0  0  0  0  0  0  0  0  0  0
  -22.5240   -9.6590   20.2030 C   0  0  0  0  0  3  0  0  0  0  0  0
  -23.3470  -10.7810   20.0030 C   0  0  0  0  0  3  0  0  0  0  0  0
  -22.0060   -7.6150   21.2770 O   0  0  0  0  0  0  0  0  0  0  0  0
  -21.8340   -6.9490   22.4640 C   0  0  0  0  0  0  0  0  0  0  0  0
  -21.3860   -7.6070   23.6290 C   0  0  0  0  0  3  0  0  0  0  0  0
  -21.1560   -6.8710   24.8090 C   0  0  0  0  0  3  0  0  0  0  0  0
  -21.3650   -5.4790   24.8250 C   0  0  0  0  0  0  0  0  0  0  0  0
  -21.8070   -4.8210   23.6640 C   0  0  0  0  0  3  0  0  0  0  0  0
  -22.0390   -5.5530   22.4860 C   0  0  0  0  0  0  0  0  0  0  0  0
  -22.4440   -4.9120   21.3650 F   0  0  0  0  0  0  0  0  0  0  0  0
  -21.1390   -4.7720   25.9560 F   0  0  0  0  0  0  0  0  0  0  0  0
  -23.6800  -14.1400   20.9680 C   0  0  0  0  0  0  0  0  0  0  0  0
  -22.9420  -13.5230   21.8840 N   0  0  0  0  0  0  0  0  0  0  0  0
  -23.3050  -15.1930   20.4550 O   0  0  0  0  0  0  0  0  0  0  0  0
  -23.2560  -12.6710   22.3240 H   0  0  0  0  0  0  0  0  0  0  0  0
  -22.0480  -13.9110   22.1500 H   0  0  0  0  0  0  0  0  0  0  0  0
  -26.4120  -15.5620   20.0260 N   0  0  0  0  0  0  0  0  0  0  0  0
  -25.7070  -16.2810   20.1480 H   0  0  0  0  0  0  0  0  0  0  0  0
  -27.2440  -15.9000   19.5610 H   0  0  0  0  0  0  0  0  0  0  0  0
  -27.3680  -22.3580   20.8630 C   0  0  0  0  0  2  0  0  0  0  0  0
  -27.9060  -23.2570   19.8160 N   0  0  0  0  0  4  0  0  0  0  0  0
  -27.3910  -23.0860   18.9660 H   0  0  0  0  0  0  0  0  0  0  0  0
  -28.8740  -23.0380   19.6370 H   0  0  0  0  0  0  0  0  0  0  0  0
  -27.7870  -24.6950   20.1740 C   0  0  0  0  0  2  0  0  0  0  0  0
  -28.1200  -25.6470   19.0030 C   0  0  0  0  0  2  0  0  0  0  0  0
  -28.1130  -27.0200   19.4130 O   0  0  0  0  0  0  0  0  0  0  0  0
  -24.5380  -31.9010   23.1200 C   0  0  0  0  0  0  0  0  0  0  0  0
  -26.9200  -27.7060   19.5270 C   0  0  0  0  0  0  0  0  0  0  0  0
  -23.2050  -30.6350   21.4670 C   0  0  0  0  0  3  0  0  0  0  0  0
  -24.5370  -29.2050   19.8310 C   0  0  0  0  0  0  0  0  0  0  0  0
  -25.7120  -30.9970   21.1180 C   0  0  0  0  0  2  0  0  0  0  0  0
  -25.7360  -29.6800   20.3730 C   0  0  0  0  0  0  0  0  0  0  0  0
  -26.9280  -28.9360   20.2230 C   0  0  0  0  0  3  0  0  0  0  0  0
  -25.7000  -27.2490   18.9720 C   0  0  0  0  0  3  0  0  0  0  0  0
  -24.5140  -27.9880   19.1280 C   0  0  0  0  0  3  0  0  0  0  0  0
  -23.3070  -30.0590   20.0300 C   0  0  0  0  0  2  0  0  0  0  0  0
  -24.5070  -31.1880   21.9600 N   0  0  0  0  0  0  0  0  0  0  0  0
  -23.4990  -32.1370   23.7540 O   0  0  0  0  0  0  0  0  0  0  0  0
  -22.6130  -29.5470   22.3920 C   0  0  0  0  0  0  0  0  0  0  0  0
  -21.2880  -29.3470   22.3080 N   0  0  0  0  0  0  0  0  0  0  0  0
  -23.3410  -28.8880   23.1370 O   0  0  0  0  0  0  0  0  0  0  0  0
  -20.7590  -29.9360   21.6800 H   0  0  0  0  0  0  0  0  0  0  0  0
  -17.9730  -28.0030   22.8050 C   0  0  0  0  0  0  0  0  0  0  0  0
  -20.5220  -28.3490   23.0530 C   0  0  0  0  0  3  0  0  0  0  0  0
  -20.6710  -26.9460   22.4230 C   0  0  0  0  0  2  0  0  0  0  0  0
  -19.5690  -26.6180   21.4100 C   0  0  0  0  0  2  0  0  0  0  0  0
  -18.1910  -26.6870   22.0770 C   0  0  0  0  0  2  0  0  0  0  0  0
  -19.0680  -28.7910   23.2480 C   0  0  0  0  0  0  0  0  0  0  0  0
  -18.8120  -30.0240   23.8850 C   0  0  0  0  0  3  0  0  0  0  0  0
  -17.4920  -30.4700   24.0850 C   0  0  0  0  0  3  0  0  0  0  0  0
  -16.4120  -29.6790   23.6580 C   0  0  0  0  0  3  0  0  0  0  0  0
  -16.6530  -28.4470   23.0250 C   0  0  0  0  0  3  0  0  0  0  0  0
  -25.8700  -32.4780   23.6920 C   0  0  0  0  0  3  0  0  0  0  0  0
  -26.4580  -31.6220   24.8820 C   0  0  1  0  0  0  0  0  0  0  0  0
  -25.4340  -31.3360   26.0040 C   0  0  0  0  0  1  0  0  0  0  0  0
  -26.9870  -30.2640   24.3670 C   0  0  0  0  0  1  0  0  0  0  0  0
  -27.6640  -32.3580   25.5110 C   0  0  0  0  0  1  0  0  0  0  0  0
  -25.6080  -33.8570   24.1230 N   0  0  0  0  0  0  0  0  0  0  0  0
  -25.9280  -34.9480   23.4130 C   0  0  0  0  0  0  0  0  0  0  0  0
  -26.5490  -34.8970   22.3480 O   0  0  0  0  0  0  0  0  0  0  0  0
  -25.0570  -33.9740   24.9610 H   0  0  0  0  0  0  0  0  0  0  0  0
  -24.2250  -36.7910   23.2480 C   0  0  0  0  0  1  0  0  0  0  0  0
  -25.4910  -36.3140   23.9770 C   0  0  0  0  0  3  0  0  0  0  0  0
  -27.6800  -37.1030   24.7630 C   0  0  0  0  0  1  0  0  0  0  0  0
  -26.5400  -37.3520   23.8830 N   0  0  0  0  0  0  0  0  0  0  0  0
  -26.1610  -38.2680   24.1060 H   0  0  0  0  0  0  0  0  0  0  0  0
  1  3  1  0
  1 49  1  0
  3  2  1  0
  4  3  1  0
  5 10  1  0
  5  4  1  0
  5  6  1  0
  6  9  1  0
  6  8  1  0
  7  6  1  0
 10 19  1  0
 11 19  1  0
 12 17  1  0
 13 14  1  0
 13 12  1  0
 15 14  1  0
 15 24  1  0
 15 16  1  0
 17 11  1  0
 17 16  1  0
 18 11  2  0
 19 20  1  0
 21 22  2  0
 22 41  1  0
 23 22  1  0
 23 26  1  0
 24 25  1  0
 24 21  1  0
 25 23  2  0
 26 27  1  0
 27 28  2  0
 29 32  1  0
 29 28  1  0
 30 29  2  0
 31 30  1  0
 31 26  2  0
 32 33  1  0
 33 38  2  0
 33 34  1  0
 34 35  2  0
 35 36  1  0
 36 40  1  0
 37 36  2  0
 38 37  1  0
 39 38  1  0
 41 42  1  0
 42 45  1  0
 42 44  1  0
 43 41  2  0
 46 47  1  0
 46 21  1  0
 48 46  1  0
 50 53  1  0
 50 49  1  0
 51 50  1  0
 52 50  1  0
 54 55  1  0
 54 53  1  0
 55 57  1  0
 56 67  2  0
 57 62  1  0
 58 66  1  0
 58 68  1  0
 59 65  1  0
 59 61  1  0
 60 66  1  0
 61 60  1  0
 62 61  2  0
 63 64  1  0
 63 57  2  0
 64 59  2  0
 65 58  1  0
 66 56  1  0
 68 70  2  0
 69 68  1  0
 71 69  1  0
 72 81  2  0
 72 77  1  0
 73 69  1  0
 73 77  1  0
 74 73  1  0
 75 76  1  0
 75 74  1  0
 76 72  1  0
 77 78  2  0
 78 79  1  0
 80 79  2  0
 81 80  1  0
 82 56  1  0
 82 87  1  0
 82 83  1  0
 83 86  1  1
 83 84  1  0
 85 83  1  0
 87 90  1  0
 88 92  1  0
 88 87  1  0
 89 88  2  0
 92 91  1  0
 94 92  1  0
 94 95  1  0
 94 93  1  0
M  ISO  4  11 100  19 100  54 101  55 101
M  END
>  <TORSDO>  (22) 
F 25

>  <SCORE>  (22) 
-10.892

>  <name>  (22) 
21

>  <ligand_id>  (22) 
21

>  <original_smiles>  (22) 
[H]c1c([H])c([H])c2c(c1[H])C([H])([H])C([H])([H])C([H])([H])C2([H])N([H])C(=O)C1([H])N(C(=O)C([H])(N([H])C(=O)C([H])(N([H])C([H])([H])[H])C([H])([H])[H])C(C([H])([H])[H])(C([H])([H])[H])C([H])([H])[H])C([H])([H])c2c([H])c(OC([H])([H])C([H])([H])[N+]([H])([H])C([H])([H])C([H])([H])C([H])(C([H])([H])[H])C([H])([H])C([H])(C([H])([H])N([H])C(=O)N3C([H])([H])C([H])([H])C([H])([H])C([H])(n4nc(-c5c([H])c([H])c(Oc6c([H])c([H])c(F)c([H])c6F)c([H])c5[H])c(C(=O)N([H])[H])c4N([H])[H])C3([H])[H])[N+]([H])([H])[H])c([H])c([H])c2C1([H])[H]

>  <smiles>  (22) 
[H]c1c([H])c([H])c2c(c1[H])C([H])([H])C([H])([H])C([H])([H])C2([H])N([H])C(=O)C1([H])N(C(=O)C([H])(N([H])C(=O)C([H])(N([H])C([H])([H])[H])C([H])([H])[H])C(C([H])([H])[H])(C([H])([H])[H])C([H])([H])[H])C([H])([H])c2c([H])c(OC([H])([H])C([H])([H])[N+]([H])([H])C([H])([H])C([H])([H])C([H])(C([H])([H])[H])C([H])([H])C([H])(C([H])([H])N([H])C(=O)N3C([H])([H])C([H])([H])C([H])([H])C([H])(n4nc(-c5c([H])c([H])c(Oc6c([H])c([H])c(F)c([H])c6F)c([H])c5[H])c(C(=O)N([H])[H])c4N([H])[H])C3([H])[H])[N+]([H])([H])[H])c([H])c([H])c2C1([H])[H]

$$$$
22:0:0
     RDKit          3D

 92102  0  0  1  0  0  0  0  0999 V2000
  -27.5600  -22.2130   21.7520 C   0  0  0  0  0  2  0  0  0  0  0  0
  -28.3980  -23.0270   21.1470 C   0  0  0  0  0  3  0  0  0  0  0  0
  -27.2860  -20.1800   20.4690 C   0  0  0  0  0  2  0  0  0  0  0  0
  -28.3950  -19.7800   19.5310 C   0  0  0  0  0  2  0  0  0  0  0  0
  -29.3460  -22.0000   20.6720 C   0  0  0  0  0  3  0  0  0  0  0  0
  -28.2630  -20.9800   21.3170 C   0  0  2  0  0  0  0  0  0  0  0  0
  -29.3830  -20.5240   20.4160 C   0  0  1  0  0  0  0  0  0  0  0  0
  -28.4130  -24.5370   21.0000 C   0  0  0  0  0  2  0  0  0  0  0  0
  -29.6860  -25.2060   21.5510 C   0  0  0  0  0  2  0  0  0  0  0  0
  -29.5560  -26.7380   21.6860 C   0  0  0  0  0  2  0  0  0  0  0  0
  -29.1530  -27.3120   20.4460 O   0  0  0  0  0  0  0  0  0  0  0  0
  -24.9090  -32.0670   23.6640 C   0  0  0  0  0  0  0  0  0  0  0  0
  -27.9560  -27.9820   20.4810 C   0  0  0  0  0  0  0  0  0  0  0  0
  -23.8630  -30.6920   21.8920 C   0  0  0  0  0  3  0  0  0  0  0  0
  -25.4720  -29.3180   20.4640 C   0  0  0  0  0  0  0  0  0  0  0  0
  -26.3660  -31.2080   21.8370 C   0  0  0  0  0  2  0  0  0  0  0  0
  -26.5640  -29.8790   21.1410 C   0  0  0  0  0  0  0  0  0  0  0  0
  -27.8100  -29.2140   21.1550 C   0  0  0  0  0  3  0  0  0  0  0  0
  -26.8550  -27.4310   19.7970 C   0  0  0  0  0  3  0  0  0  0  0  0
  -25.6100  -28.0900   19.7930 C   0  0  0  0  0  3  0  0  0  0  0  0
  -24.1760  -30.0980   20.4910 C   0  0  0  0  0  2  0  0  0  0  0  0
  -25.0610  -31.3340   22.5250 N   0  0  0  0  0  0  0  0  0  0  0  0
  -23.7890  -32.2490   24.1620 O   0  0  0  0  0  0  0  0  0  0  0  0
  -23.2300  -29.5860   22.7630 C   0  0  0  0  0  0  0  0  0  0  0  0
  -21.9460  -29.2880   22.5090 N   0  0  0  0  0  0  0  0  0  0  0  0
  -23.8950  -28.9990   23.6210 O   0  0  0  0  0  0  0  0  0  0  0  0
  -21.4740  -29.8170   21.7910 H   0  0  0  0  0  0  0  0  0  0  0  0
  -18.6810  -27.7480   22.6420 C   0  0  0  0  0  0  0  0  0  0  0  0
  -21.1570  -28.2530   23.1780 C   0  0  0  0  0  3  0  0  0  0  0  0
  -21.4660  -26.8530   22.5970 C   0  0  0  0  0  2  0  0  0  0  0  0
  -20.5100  -26.4380   21.4730 C   0  0  0  0  0  2  0  0  0  0  0  0
  -19.0630  -26.4360   21.9750 C   0  0  0  0  0  2  0  0  0  0  0  0
  -19.6670  -28.6080   23.1930 C   0  0  0  0  0  0  0  0  0  0  0  0
  -19.2620  -29.8300   23.7720 C   0  0  0  0  0  3  0  0  0  0  0  0
  -17.9020  -30.1940   23.8080 C   0  0  0  0  0  3  0  0  0  0  0  0
  -16.9290  -29.3330   23.2740 C   0  0  0  0  0  3  0  0  0  0  0  0
  -17.3200  -28.1110   22.6970 C   0  0  0  0  0  3  0  0  0  0  0  0
  -26.1260  -32.7310   24.3790 C   0  0  0  0  0  3  0  0  0  0  0  0
  -25.7700  -34.1300   24.6530 N   0  0  0  0  0  0  0  0  0  0  0  0
  -26.1650  -35.1730   23.9120 C   0  0  0  0  0  0  0  0  0  0  0  0
  -26.9390  -35.0610   22.9560 O   0  0  0  0  0  0  0  0  0  0  0  0
  -25.0950  -34.2900   25.3870 H   0  0  0  0  0  0  0  0  0  0  0  0
  -24.4640  -36.9350   23.3430 C   0  0  0  0  0  1  0  0  0  0  0  0
  -25.6160  -36.5620   24.2900 C   0  0  0  0  0  3  0  0  0  0  0  0
  -27.6500  -37.4740   25.3200 C   0  0  0  0  0  1  0  0  0  0  0  0
  -26.6420  -37.6260   24.2720 N   0  0  0  0  0  0  0  0  0  0  0  0
  -26.2150  -38.5430   24.3720 H   0  0  0  0  0  0  0  0  0  0  0  0
  -26.5480  -31.9910   25.7060 C   0  0  1  0  0  0  0  0  0  0  0  0
  -25.3640  -31.7000   26.6570 C   0  0  0  0  0  1  0  0  0  0  0  0
  -27.2380  -30.6450   25.3830 C   0  0  0  0  0  1  0  0  0  0  0  0
  -27.5850  -32.8420   26.4740 C   0  0  0  0  0  1  0  0  0  0  0  0
  -30.5230  -19.6640   21.0040 C   0  0  0  0  0  2  0  0  0  0  0  0
  -30.7400  -18.2630   20.3830 C   0  0  0  0  0  2  0  0  0  0  0  0
  -31.8850  -17.4520   21.0310 C   0  0  0  0  0  2  0  0  0  0  0  0
  -32.1850  -15.0020   20.4750 C   0  0  0  0  0  0  0  0  0  0  0  0
  -31.8340  -12.7260   19.5800 C   0  0  0  0  0  2  0  0  0  0  0  0
  -30.9470  -12.7970   18.3210 C   0  0  0  0  0  2  0  0  0  0  0  0
  -29.4510  -12.7960   18.6970 C   0  0  0  0  0  2  0  0  0  0  0  0
  -29.1110  -13.8250   19.8080 C   0  0  0  0  0  3  0  0  0  0  0  0
  -30.1000  -13.6840   20.9860 C   0  0  0  0  0  2  0  0  0  0  0  0
  -31.4680  -13.8480   20.4560 N   0  0  0  0  0  0  0  0  0  0  0  0
  -33.2930  -15.1290   19.9460 O   0  0  0  0  0  0  0  0  0  0  0  0
  -31.5420  -16.0300   21.0430 N   0  0  0  0  0  0  0  0  0  0  0  0
  -30.6530  -15.7950   21.4570 H   0  0  0  0  0  0  0  0  0  0  0  0
  -26.7890  -14.6910   20.5210 C   0  0  0  0  0  0  0  0  0  0  0  0
  -25.6270  -14.0380   20.8320 C   0  0  0  0  0  0  0  0  0  0  0  0
  -25.9170  -12.6430   20.7250 C   0  0  0  0  0  0  0  0  0  0  0  0
  -27.7220  -13.7010   20.2520 N   0  0  0  0  0  0  0  0  0  0  0  0
  -27.1980  -12.4610   20.4300 N   0  0  0  0  0  0  0  0  0  0  0  0
  -25.0390  -11.4700   20.8310 C   0  0  0  0  0  0  0  0  0  0  0  0
  -25.3280  -10.4110   21.7180 C   0  0  0  0  0  3  0  0  0  0  0  0
  -24.4590   -9.3020   21.8170 C   0  0  0  0  0  3  0  0  0  0  0  0
  -23.2860   -9.2470   21.0260 C   0  0  0  0  0  0  0  0  0  0  0  0
  -23.0160  -10.2940   20.1270 C   0  0  0  0  0  3  0  0  0  0  0  0
  -23.8840  -11.3930   20.0270 C   0  0  0  0  0  3  0  0  0  0  0  0
  -22.4000   -8.1970   21.0330 O   0  0  0  0  0  0  0  0  0  0  0  0
  -22.1880   -7.4420   22.1580 C   0  0  0  0  0  0  0  0  0  0  0  0
  -21.7690   -8.0210   23.3760 C   0  0  0  0  0  3  0  0  0  0  0  0
  -21.4980   -7.2000   24.4880 C   0  0  0  0  0  3  0  0  0  0  0  0
  -21.6340   -5.8030   24.3820 C   0  0  0  0  0  0  0  0  0  0  0  0
  -22.0450   -5.2250   23.1690 C   0  0  0  0  0  3  0  0  0  0  0  0
  -22.3190   -6.0430   22.0590 C   0  0  0  0  0  0  0  0  0  0  0  0
  -22.6940   -5.4790   20.8850 F   0  0  0  0  0  0  0  0  0  0  0  0
  -21.3640   -5.0120   25.4470 F   0  0  0  0  0  0  0  0  0  0  0  0
  -24.2930  -14.6660   21.1170 C   0  0  0  0  0  0  0  0  0  0  0  0
  -23.4790  -14.0260   21.9480 N   0  0  0  0  0  0  0  0  0  0  0  0
  -23.9860  -15.7560   20.6370 O   0  0  0  0  0  0  0  0  0  0  0  0
  -23.7410  -13.1410   22.3570 H   0  0  0  0  0  0  0  0  0  0  0  0
  -22.5830  -14.4310   22.1820 H   0  0  0  0  0  0  0  0  0  0  0  0
  -27.1240  -16.0380   20.4280 N   0  0  0  0  0  0  0  0  0  0  0  0
  -26.4430  -16.7750   20.5720 H   0  0  0  0  0  0  0  0  0  0  0  0
  -28.0300  -16.3870   20.1400 H   0  0  0  0  0  0  0  0  0  0  0  0
  2  8  1  0
  2  1  1  0
  6  3  1  6
  4  7  1  0
  4  3  1  0
  5  2  1  0
  5  6  1  0
  6  1  1  0
  7  5  1  0
  7 52  1  1
  7  6  1  0
  8  9  1  0
  9 10  1  0
 11 13  1  0
 11 10  1  0
 12 23  2  0
 12 38  1  0
 13 18  1  0
 14 22  1  0
 14 24  1  0
 15 21  1  0
 15 17  1  0
 16 22  1  0
 17 18  2  0
 17 16  1  0
 19 13  2  0
 20 19  1  0
 20 15  2  0
 21 14  1  0
 22 12  1  0
 24 26  2  0
 25 24  1  0
 25 29  1  0
 27 25  1  0
 28 37  2  0
 28 33  1  0
 29 33  1  0
 30 29  1  0
 31 32  1  0
 31 30  1  0
 32 28  1  0
 33 34  2  0
 34 35  1  0
 36 35  2  0
 37 36  1  0
 38 39  1  0
 38 48  1  0
 39 42  1  0
 40 44  1  0
 40 39  1  0
 41 40  2  0
 43 44  1  0
 46 44  1  0
 46 47  1  0
 46 45  1  0
 48 51  1  1
 48 49  1  0
 50 48  1  0
 53 52  1  0
 53 54  1  0
 54 63  1  0
 55 63  1  0
 56 61  1  0
 57 58  1  0
 57 56  1  0
 58 59  1  0
 59 68  1  0
 59 60  1  0
 61 55  1  0
 61 60  1  0
 62 55  2  0
 63 64  1  0
 65 66  2  0
 66 85  1  0
 67 70  1  0
 67 66  1  0
 68 69  1  0
 68 65  1  0
 69 67  2  0
 70 71  1  0
 71 72  2  0
 73 76  1  0
 73 72  1  0
 74 73  2  0
 75 74  1  0
 75 70  2  0
 76 77  1  0
 77 78  1  0
 78 79  2  0
 80 79  1  0
 80 84  1  0
 81 80  2  0
 82 77  2  0
 82 81  1  0
 83 82  1  0
 85 86  1  0
 86 89  1  0
 86 88  1  0
 87 85  2  0
 90 65  1  0
 90 91  1  0
 92 90  1  0
M  ISO  4  10 101  11 101  55 100  63 100
M  END
>  <TORSDO>  (23) 
F 22

>  <SCORE>  (23) 
-9.469

>  <name>  (23) 
22

>  <ligand_id>  (23) 
22

>  <original_smiles>  (23) 
[H]C1=C(C([H])([H])C([H])([H])C([H])([H])Oc2c([H])c([H])c3c(c2[H])C([H])([H])N(C(=O)C([H])(N([H])C(=O)C([H])(N([H])C([H])([H])[H])C([H])([H])[H])C(C([H])([H])[H])(C([H])([H])[H])C([H])([H])[H])C([H])(C(=O)N([H])C2([H])c4c([H])c([H])c([H])c([H])c4C([H])([H])C([H])([H])C2([H])[H])C3([H])[H])C2([H])C13C([H])([H])C([H])([H])C23C([H])([H])C([H])([H])C([H])([H])N([H])C(=O)N1C([H])([H])C([H])([H])C([H])([H])C([H])(n2nc(-c3c([H])c([H])c(Oc4c([H])c([H])c(F)c([H])c4F)c([H])c3[H])c(C(=O)N([H])[H])c2N([H])[H])C1([H])[H]

>  <smiles>  (23) 
[H]C1=C(C([H])([H])C([H])([H])C([H])([H])Oc2c([H])c([H])c3c(c2[H])C([H])([H])N(C(=O)C([H])(N([H])C(=O)C([H])(N([H])C([H])([H])[H])C([H])([H])[H])C(C([H])([H])[H])(C([H])([H])[H])C([H])([H])[H])C([H])(C(=O)N([H])C2([H])c4c([H])c([H])c([H])c([H])c4C([H])([H])C([H])([H])C2([H])[H])C3([H])[H])C2([H])C13C([H])([H])C([H])([H])C23C([H])([H])C([H])([H])C([H])([H])N([H])C(=O)N1C([H])([H])C([H])([H])C([H])([H])C([H])(n2nc(-c3c([H])c([H])c(Oc4c([H])c([H])c(F)c([H])c4F)c([H])c3[H])c(C(=O)N([H])[H])c2N([H])[H])C1([H])[H]

$$$$
23:0:0
     RDKit          3D

 91100  0  0  1  0  0  0  0  0999 V2000
  -28.0490  -20.3580   21.0130 C   0  0  0  0  0  2  0  0  0  0  0  0
  -27.2820  -22.7250   20.6880 C   0  0  0  0  0  2  0  0  0  0  0  0
  -27.9390  -21.7750   21.5500 C   0  0  0  0  0  3  0  0  0  0  0  0
  -29.1350  -20.6080   19.9390 C   0  0  2  0  0  0  0  0  0  0  0  0
  -28.7920  -22.4230   20.4620 C   0  0  1  0  0  0  0  0  0  0  0  0
  -28.6550  -20.5750   18.4690 C   0  0  0  0  0  0  0  0  0  0  0  0
  -28.1270  -19.1950   16.4880 C   0  0  0  0  0  1  0  0  0  0  0  0
  -28.4020  -19.3860   17.9100 N   0  0  0  0  0  0  0  0  0  0  0  0
  -28.5840  -21.6200   17.8150 O   0  0  0  0  0  0  0  0  0  0  0  0
  -28.4840  -18.5620   18.4900 H   0  0  0  0  0  0  0  0  0  0  0  0
  -30.2040  -19.0210   20.2270 C   0  0  0  0  0  2  0  0  0  0  0  0
  -30.7250  -15.8950   20.1630 C   0  0  0  0  0  0  0  0  0  0  0  0
  -30.7770  -13.3600   19.3460 C   0  0  0  0  0  2  0  0  0  0  0  0
  -29.8850  -13.0100   18.1200 C   0  0  0  0  0  2  0  0  0  0  0  0
  -28.4500  -12.6850   18.5670 C   0  0  0  0  0  2  0  0  0  0  0  0
  -27.9600  -13.6820   19.6470 C   0  0  0  0  0  3  0  0  0  0  0  0
  -28.9910  -13.9540   20.7660 C   0  0  0  0  0  2  0  0  0  0  0  0
  -30.1770  -14.5450   20.1060 N   0  0  0  0  0  0  0  0  0  0  0  0
  -31.9560  -15.8250   19.9980 O   0  0  0  0  0  0  0  0  0  0  0  0
  -29.9830  -17.2580   20.2170 N   0  0  0  0  0  0  0  0  0  0  0  0
  -29.0020  -17.0440   20.3190 H   0  0  0  0  0  0  0  0  0  0  0  0
  -25.6160  -14.2440   20.4360 C   0  0  0  0  0  0  0  0  0  0  0  0
  -24.5410  -13.4750   20.7790 C   0  0  0  0  0  0  0  0  0  0  0  0
  -24.9840  -12.1180   20.7140 C   0  0  0  0  0  0  0  0  0  0  0  0
  -26.6390  -13.3590   20.1620 N   0  0  0  0  0  0  0  0  0  0  0  0
  -26.2760  -12.0730   20.4030 N   0  0  0  0  0  0  0  0  0  0  0  0
  -24.2330  -10.8650   20.8670 C   0  0  0  0  0  0  0  0  0  0  0  0
  -24.6250   -9.8800   21.7990 C   0  0  0  0  0  3  0  0  0  0  0  0
  -23.8740   -8.6950   21.9450 C   0  0  0  0  0  3  0  0  0  0  0  0
  -22.7140   -8.4880   21.1620 C   0  0  0  0  0  0  0  0  0  0  0  0
  -22.3420   -9.4620   20.2200 C   0  0  0  0  0  3  0  0  0  0  0  0
  -23.0940  -10.6410   20.0710 C   0  0  0  0  0  3  0  0  0  0  0  0
  -21.9350   -7.3590   21.2200 O   0  0  0  0  0  0  0  0  0  0  0  0
  -21.8100   -6.6280   22.3730 C   0  0  0  0  0  0  0  0  0  0  0  0
  -21.3010   -7.1910   23.5640 C   0  0  0  0  0  3  0  0  0  0  0  0
  -21.1250   -6.3850   24.7060 C   0  0  0  0  0  3  0  0  0  0  0  0
  -21.4500   -5.0160   24.6590 C   0  0  0  0  0  0  0  0  0  0  0  0
  -21.9540   -4.4520   23.4730 C   0  0  0  0  0  3  0  0  0  0  0  0
  -22.1310   -5.2560   22.3340 C   0  0  0  0  0  0  0  0  0  0  0  0
  -22.5950   -4.7010   21.1880 F   0  0  0  0  0  0  0  0  0  0  0  0
  -21.2740   -4.2400   25.7530 F   0  0  0  0  0  0  0  0  0  0  0  0
  -23.1530  -13.9750   21.0550 C   0  0  0  0  0  0  0  0  0  0  0  0
  -22.4120  -13.2760   21.9070 N   0  0  0  0  0  0  0  0  0  0  0  0
  -22.7380  -15.0180   20.5520 O   0  0  0  0  0  0  0  0  0  0  0  0
  -22.7660  -12.4320   22.3350 H   0  0  0  0  0  0  0  0  0  0  0  0
  -21.4770  -13.5880   22.1370 H   0  0  0  0  0  0  0  0  0  0  0  0
  -25.8020  -15.6150   20.2910 N   0  0  0  0  0  0  0  0  0  0  0  0
  -25.0430  -16.2750   20.4180 H   0  0  0  0  0  0  0  0  0  0  0  0
  -26.6470  -16.0430   19.9420 H   0  0  0  0  0  0  0  0  0  0  0  0
  -29.0190  -24.2210   19.9210 C   0  0  0  0  0  2  0  0  0  0  0  0
  -28.7120  -25.8890   20.3850 O   0  0  0  0  0  0  0  0  0  0  0  0
  -24.8370  -31.9230   23.1890 C   0  0  0  0  0  0  0  0  0  0  0  0
  -27.6810  -27.0250   20.2220 C   0  0  0  0  0  0  0  0  0  0  0  0
  -23.7610  -30.5010   21.4940 C   0  0  0  0  0  3  0  0  0  0  0  0
  -25.3230  -28.9340   20.1050 C   0  0  0  0  0  0  0  0  0  0  0  0
  -26.3310  -30.7560   21.4640 C   0  0  0  0  0  2  0  0  0  0  0  0
  -26.4720  -29.3400   20.7930 C   0  0  0  0  0  0  0  0  0  0  0  0
  -27.6300  -28.4080   20.8280 C   0  0  0  0  0  3  0  0  0  0  0  0
  -26.5050  -26.8250   19.4590 C   0  0  0  0  0  3  0  0  0  0  0  0
  -25.3810  -27.7090   19.4100 C   0  0  0  0  0  3  0  0  0  0  0  0
  -24.0700  -29.8200   20.1260 C   0  0  0  0  0  2  0  0  0  0  0  0
  -24.9970  -31.0910   22.1040 N   0  0  0  0  0  0  0  0  0  0  0  0
  -23.7160  -32.1730   23.6650 O   0  0  0  0  0  0  0  0  0  0  0  0
  -23.0520  -29.4860   22.4330 C   0  0  0  0  0  0  0  0  0  0  0  0
  -21.7250  -29.3060   22.2880 N   0  0  0  0  0  0  0  0  0  0  0  0
  -23.7100  -28.8590   23.2650 O   0  0  0  0  0  0  0  0  0  0  0  0
  -21.2400  -29.8670   21.5990 H   0  0  0  0  0  0  0  0  0  0  0  0
  -18.3510  -28.0530   22.7770 C   0  0  0  0  0  0  0  0  0  0  0  0
  -20.9110  -28.3310   23.0250 C   0  0  0  0  0  3  0  0  0  0  0  0
  -21.0150  -26.9230   22.3920 C   0  0  0  0  0  2  0  0  0  0  0  0
  -19.9080  -26.6380   21.3710 C   0  0  0  0  0  2  0  0  0  0  0  0
  -18.5310  -26.7410   22.0330 C   0  0  0  0  0  2  0  0  0  0  0  0
  -19.4670  -28.8080   23.2280 C   0  0  0  0  0  0  0  0  0  0  0  0
  -19.2380  -30.0360   23.8840 C   0  0  0  0  0  3  0  0  0  0  0  0
  -17.9290  -30.5100   24.0920 C   0  0  0  0  0  3  0  0  0  0  0  0
  -16.8280  -29.7540   23.6510 C   0  0  0  0  0  3  0  0  0  0  0  0
  -17.0400  -28.5280   23.0010 C   0  0  0  0  0  3  0  0  0  0  0  0
  -26.0500  -32.6160   23.8790 C   0  0  0  0  0  3  0  0  0  0  0  0
  -26.5170  -31.8780   25.1960 C   0  0  1  0  0  0  0  0  0  0  0  0
  -25.3680  -31.5900   26.1910 C   0  0  0  0  0  1  0  0  0  0  0  0
  -27.1920  -30.5290   24.8640 C   0  0  0  0  0  1  0  0  0  0  0  0
  -27.5800  -32.7320   25.9240 C   0  0  0  0  0  1  0  0  0  0  0  0
  -25.6660  -34.0070   24.1960 N   0  0  0  0  0  0  0  0  0  0  0  0
  -25.9840  -35.0810   23.4610 C   0  0  0  0  0  0  0  0  0  0  0  0
  -26.6850  -35.0070   22.4500 O   0  0  0  0  0  0  0  0  0  0  0  0
  -25.0400  -34.1360   24.9750 H   0  0  0  0  0  0  0  0  0  0  0  0
  -24.1930  -36.8190   23.1040 C   0  0  0  0  0  1  0  0  0  0  0  0
  -25.4430  -36.4520   23.9210 C   0  0  0  0  0  3  0  0  0  0  0  0
  -27.5320  -37.4310   24.7700 C   0  0  0  0  0  1  0  0  0  0  0  0
  -26.4340  -37.5460   23.8130 N   0  0  0  0  0  0  0  0  0  0  0  0
  -25.9880  -38.4510   23.9460 H   0  0  0  0  0  0  0  0  0  0  0  0
  1  3  1  0
  3  2  1  0
  4 11  1  6
  4  5  1  0
  4  1  1  0
  5 50  1  1
  5  2  1  0
  5  3  1  0
  6  4  1  0
  7  8  1  0
  8  6  1  0
  8 10  1  0
  9  6  2  0
 12 20  1  0
 13 18  1  0
 14 15  1  0
 14 13  1  0
 16 15  1  0
 16 25  1  0
 16 17  1  0
 18 12  1  0
 18 17  1  0
 19 12  2  0
 20 11  1  0
 20 21  1  0
 22 23  2  0
 23 42  1  0
 24 23  1  0
 24 27  1  0
 25 26  1  0
 25 22  1  0
 26 24  2  0
 27 28  1  0
 28 29  2  0
 30 33  1  0
 30 29  1  0
 31 30  2  0
 32 31  1  0
 32 27  2  0
 33 34  1  0
 34 35  1  0
 35 36  2  0
 37 36  1  0
 37 41  1  0
 38 37  2  0
 39 34  2  0
 39 38  1  0
 40 39  1  0
 42 43  1  0
 43 46  1  0
 43 45  1  0
 44 42  2  0
 47 48  1  0
 47 22  1  0
 49 47  1  0
 50 51  1  0
 52 63  2  0
 53 51  1  0
 53 58  1  0
 54 62  1  0
 54 64  1  0
 55 61  1  0
 55 57  1  0
 56 62  1  0
 57 58  2  0
 57 56  1  0
 59 53  2  0
 60 59  1  0
 60 55  2  0
 61 54  1  0
 62 52  1  0
 64 66  2  0
 65 64  1  0
 67 65  1  0
 68 77  2  0
 68 73  1  0
 69 65  1  0
 69 73  1  0
 70 69  1  0
 71 72  1  0
 71 70  1  0
 72 68  1  0
 73 74  2  0
 74 75  1  0
 76 75  2  0
 77 76  1  0
 78 52  1  0
 78 83  1  0
 78 79  1  0
 79 82  1  1
 79 80  1  0
 81 79  1  0
 83 86  1  0
 84 88  1  0
 84 83  1  0
 85 84  2  0
 88 87  1  0
 90 88  1  0
 90 91  1  0
 90 89  1  0
M  ISO  4  12 100  20 100  50 101  51 101
M  END
>  <TORSDO>  (24) 
F 19

>  <SCORE>  (24) 
-15.459

>  <name>  (24) 
23

>  <ligand_id>  (24) 
23

>  <original_smiles>  (24) 
[H]c1c([H])c([H])c2c(c1[H])C([H])([H])C([H])([H])C([H])([H])C2([H])N([H])C(=O)C1([H])N(C(=O)C([H])(N([H])C(=O)C([H])(N([H])C([H])([H])[H])C([H])([H])[H])C(C([H])([H])[H])(C([H])([H])[H])C([H])([H])[H])C([H])([H])c2c([H])c(OC([H])([H])C34C([H])([H])C3([H])C([H])([H])C4(C(=O)N([H])C([H])([H])[H])C([H])([H])N([H])C(=O)N3C([H])([H])C([H])([H])C([H])([H])C([H])(n4nc(-c5c([H])c([H])c(Oc6c([H])c([H])c(F)c([H])c6F)c([H])c5[H])c(C(=O)N([H])[H])c4N([H])[H])C3([H])[H])c([H])c([H])c2C1([H])[H]

>  <smiles>  (24) 
[H]c1c([H])c([H])c2c(c1[H])C([H])([H])C([H])([H])C([H])([H])C2([H])N([H])C(=O)C1([H])N(C(=O)C([H])(N([H])C(=O)C([H])(N([H])C([H])([H])[H])C([H])([H])[H])C(C([H])([H])[H])(C([H])([H])[H])C([H])([H])[H])C([H])([H])c2c([H])c(OC([H])([H])C34C([H])([H])C3([H])C([H])([H])C4(C(=O)N([H])C([H])([H])[H])C([H])([H])N([H])C(=O)N3C([H])([H])C([H])([H])C([H])([H])C([H])(n4nc(-c5c([H])c([H])c(Oc6c([H])c([H])c(F)c([H])c6F)c([H])c5[H])c(C(=O)N([H])[H])c4N([H])[H])C3([H])[H])c([H])c([H])c2C1([H])[H]

$$$$
24:0:0
     RDKit          3D

 90 99  0  0  1  0  0  0  0  0999 V2000
  -29.0450  -20.8230   21.9440 C   0  0  0  0  0  3  0  0  0  0  0  0
  -28.9070  -22.1390   21.4120 C   0  0  0  0  0  3  0  0  0  0  0  0
  -29.5570  -21.3010   19.2270 C   0  0  0  0  0  3  0  0  0  0  0  0
  -29.4430  -19.7460   21.1160 C   0  0  0  0  0  0  0  0  0  0  0  0
  -29.6870  -19.9650   19.7720 C   0  0  0  0  0  0  0  0  0  0  0  0
  -29.1610  -22.4350   20.0450 C   0  0  0  0  0  0  0  0  0  0  0  0
  -29.6480  -18.2760   21.5100 C   0  0  0  0  0  2  0  0  0  0  0  0
  -30.0700  -18.6030   19.1150 C   0  0  0  0  0  2  0  0  0  0  0  0
  -30.3560  -17.5650   20.2990 C   0  0  0  0  0  3  0  0  0  0  0  0
  -30.8450  -14.9630   19.9100 C   0  0  0  0  0  0  0  0  0  0  0  0
  -30.6280  -12.6710   18.9280 C   0  0  0  0  0  2  0  0  0  0  0  0
  -29.6030  -12.7090   17.7740 C   0  0  0  0  0  2  0  0  0  0  0  0
  -28.1700  -12.5150   18.3090 C   0  0  0  0  0  2  0  0  0  0  0  0
  -27.8640  -13.4110   19.5390 C   0  0  0  0  0  3  0  0  0  0  0  0
  -29.0010  -13.3520   20.5820 C   0  0  0  0  0  2  0  0  0  0  0  0
  -30.2430  -13.7240   19.8930 N   0  0  0  0  0  0  0  0  0  0  0  0
  -32.0130  -15.0900   19.5320 O   0  0  0  0  0  0  0  0  0  0  0  0
  -30.0470  -16.0680   20.1640 N   0  0  0  0  0  0  0  0  0  0  0  0
  -29.0890  -15.8250   20.3620 H   0  0  0  0  0  0  0  0  0  0  0  0
  -25.5530  -13.9860   20.4980 C   0  0  0  0  0  0  0  0  0  0  0  0
  -24.5110  -13.2040   20.9110 C   0  0  0  0  0  0  0  0  0  0  0  0
  -24.9480  -11.8510   20.7640 C   0  0  0  0  0  0  0  0  0  0  0  0
  -26.5610  -13.1100   20.1250 N   0  0  0  0  0  0  0  0  0  0  0  0
  -26.2080  -11.8180   20.3470 N   0  0  0  0  0  0  0  0  0  0  0  0
  -24.2200  -10.5880   20.9410 C   0  0  0  0  0  0  0  0  0  0  0  0
  -24.6350   -9.6210   21.8820 C   0  0  0  0  0  3  0  0  0  0  0  0
  -23.9080   -8.4220   22.0460 C   0  0  0  0  0  3  0  0  0  0  0  0
  -22.7500   -8.1810   21.2680 C   0  0  0  0  0  0  0  0  0  0  0  0
  -22.3540   -9.1370   20.3160 C   0  0  0  0  0  3  0  0  0  0  0  0
  -23.0820  -10.3280   20.1500 C   0  0  0  0  0  3  0  0  0  0  0  0
  -21.9970   -7.0350   21.3410 O   0  0  0  0  0  0  0  0  0  0  0  0
  -21.8220   -6.3630   22.5240 C   0  0  0  0  0  0  0  0  0  0  0  0
  -21.2050   -6.9680   23.6400 C   0  0  0  0  0  3  0  0  0  0  0  0
  -20.9820   -6.2200   24.8140 C   0  0  0  0  0  3  0  0  0  0  0  0
  -21.3660   -4.8660   24.8690 C   0  0  0  0  0  0  0  0  0  0  0  0
  -21.9740   -4.2600   23.7570 C   0  0  0  0  0  3  0  0  0  0  0  0
  -22.1990   -5.0060   22.5860 C   0  0  0  0  0  0  0  0  0  0  0  0
  -22.7660   -4.4110   21.5090 F   0  0  0  0  0  0  0  0  0  0  0  0
  -21.1440   -4.1440   25.9930 F   0  0  0  0  0  0  0  0  0  0  0  0
  -23.1470  -13.6780   21.3230 C   0  0  0  0  0  0  0  0  0  0  0  0
  -22.4790  -12.9380   22.2010 N   0  0  0  0  0  0  0  0  0  0  0  0
  -22.6850  -14.7380   20.9020 O   0  0  0  0  0  0  0  0  0  0  0  0
  -22.8700  -12.0800   22.5640 H   0  0  0  0  0  0  0  0  0  0  0  0
  -21.5660  -13.2320   22.5150 H   0  0  0  0  0  0  0  0  0  0  0  0
  -25.7230  -15.3630   20.3850 N   0  0  0  0  0  0  0  0  0  0  0  0
  -24.9720  -16.0150   20.5810 H   0  0  0  0  0  0  0  0  0  0  0  0
  -26.5310  -15.8070   19.9660 H   0  0  0  0  0  0  0  0  0  0  0  0
  -29.0650  -23.9340   19.4800 C   0  0  0  0  0  3  0  0  0  0  0  0
  -28.3300  -25.1440   20.2760 C   0  0  0  0  0  3  0  0  0  0  0  0
  -28.4310  -26.5790   19.8270 O   0  0  0  0  0  0  0  0  0  0  0  0
  -24.6530  -31.8660   23.1020 C   0  0  0  0  0  0  0  0  0  0  0  0
  -27.2960  -27.4210   19.8740 C   0  0  0  0  0  0  0  0  0  0  0  0
  -23.4470  -30.4980   21.4390 C   0  0  0  0  0  3  0  0  0  0  0  0
  -24.9020  -29.0080   19.9480 C   0  0  0  0  0  0  0  0  0  0  0  0
  -25.9800  -30.8620   21.2240 C   0  0  0  0  0  2  0  0  0  0  0  0
  -26.0760  -29.5010   20.5340 C   0  0  0  0  0  0  0  0  0  0  0  0
  -27.2770  -28.7240   20.4780 C   0  0  0  0  0  3  0  0  0  0  0  0
  -26.0990  -26.9890   19.2680 C   0  0  0  0  0  3  0  0  0  0  0  0
  -24.9190  -27.7590   19.3050 C   0  0  0  0  0  3  0  0  0  0  0  0
  -23.6510  -29.8620   20.0380 C   0  0  0  0  0  2  0  0  0  0  0  0
  -24.7130  -31.0920   21.9780 N   0  0  0  0  0  0  0  0  0  0  0  0
  -23.5730  -32.1070   23.6640 O   0  0  0  0  0  0  0  0  0  0  0  0
  -22.8160  -29.4440   22.3800 C   0  0  0  0  0  0  0  0  0  0  0  0
  -21.4910  -29.2480   22.2710 N   0  0  0  0  0  0  0  0  0  0  0  0
  -23.5190  -28.8070   23.1690 O   0  0  0  0  0  0  0  0  0  0  0  0
  -20.9810  -29.8170   21.6080 H   0  0  0  0  0  0  0  0  0  0  0  0
  -18.1400  -27.9890   22.7990 C   0  0  0  0  0  0  0  0  0  0  0  0
  -20.7010  -28.2740   23.0240 C   0  0  0  0  0  3  0  0  0  0  0  0
  -20.8090  -26.8650   22.3960 C   0  0  0  0  0  2  0  0  0  0  0  0
  -19.6890  -26.5630   21.3940 C   0  0  0  0  0  2  0  0  0  0  0  0
  -18.3210  -26.6660   22.0710 C   0  0  0  0  0  2  0  0  0  0  0  0
  -19.2590  -28.7500   23.2320 C   0  0  0  0  0  0  0  0  0  0  0  0
  -19.0350  -29.9870   23.8740 C   0  0  0  0  0  3  0  0  0  0  0  0
  -17.7280  -30.4630   24.0890 C   0  0  0  0  0  3  0  0  0  0  0  0
  -16.6250  -29.6960   23.6720 C   0  0  0  0  0  3  0  0  0  0  0  0
  -16.8320  -28.4620   23.0310 C   0  0  0  0  0  3  0  0  0  0  0  0
  -25.9320  -32.5030   23.7250 C   0  0  0  0  0  3  0  0  0  0  0  0
  -25.6060  -33.8870   24.0960 N   0  0  0  0  0  0  0  0  0  0  0  0
  -25.9090  -34.9660   23.3610 C   0  0  0  0  0  0  0  0  0  0  0  0
  -26.5610  -34.9000   22.3150 O   0  0  0  0  0  0  0  0  0  0  0  0
  -25.0230  -34.0110   24.9110 H   0  0  0  0  0  0  0  0  0  0  0  0
  -24.1510  -36.7460   23.0840 C   0  0  0  0  0  1  0  0  0  0  0  0
  -25.4110  -36.3350   23.8650 C   0  0  0  0  0  3  0  0  0  0  0  0
  -27.5400  -37.2360   24.6940 C   0  0  0  0  0  1  0  0  0  0  0  0
  -26.4260  -37.4060   23.7640 N   0  0  0  0  0  0  0  0  0  0  0  0
  -26.0090  -38.3160   23.9330 H   0  0  0  0  0  0  0  0  0  0  0  0
  -26.4760  -31.7090   24.9770 C   0  0  1  0  0  0  0  0  0  0  0  0
  -25.3950  -31.4150   26.0440 C   0  0  0  0  0  1  0  0  0  0  0  0
  -27.0920  -30.3570   24.5440 C   0  0  0  0  0  1  0  0  0  0  0  0
  -27.6100  -32.5130   25.6560 C   0  0  0  0  0  1  0  0  0  0  0  0
  2  1  1  0
  3  5  2  0
  3  6  1  0
  4  7  1  0
  4  1  2  0
  5  4  1  0
  6  2  2  0
  8  5  1  0
  8  9  1  0
  9 18  1  0
  9  7  1  0
 10 18  1  0
 11 16  1  0
 12 13  1  0
 12 11  1  0
 14 13  1  0
 14 23  1  0
 14 15  1  0
 16 10  1  0
 16 15  1  0
 17 10  2  0
 18 19  1  0
 20 21  2  0
 21 40  1  0
 22 21  1  0
 22 25  1  0
 23 24  1  0
 23 20  1  0
 24 22  2  0
 25 26  1  0
 26 27  2  0
 28 31  1  0
 28 27  1  0
 29 28  2  0
 30 29  1  0
 30 25  2  0
 31 32  1  0
 32 37  2  0
 32 33  1  0
 33 34  2  0
 34 35  1  0
 35 39  1  0
 36 35  2  0
 37 36  1  0
 38 37  1  0
 40 41  1  0
 41 44  1  0
 41 43  1  0
 42 40  2  0
 45 20  1  0
 45 46  1  0
 47 45  1  0
 48  6  1  0
 48 49  2  0
 50 52  1  0
 50 49  1  0
 51 62  2  0
 52 57  1  0
 53 61  1  0
 53 63  1  0
 54 60  1  0
 54 56  1  0
 55 61  1  0
 56 55  1  0
 57 56  2  0
 58 59  1  0
 58 52  2  0
 59 54  2  0
 60 53  1  0
 61 51  1  0
 63 65  2  0
 64 63  1  0
 66 64  1  0
 67 76  2  0
 67 72  1  0
 68 64  1  0
 68 72  1  0
 69 68  1  0
 70 71  1  0
 70 69  1  0
 71 67  1  0
 72 73  2  0
 73 74  1  0
 75 74  2  0
 76 75  1  0
 77 51  1  0
 77 78  1  0
 77 87  1  0
 78 81  1  0
 79 83  1  0
 79 78  1  0
 80 79  2  0
 83 82  1  0
 85 83  1  0
 85 86  1  0
 85 84  1  0
 87 90  1  1
 87 88  1  0
 89 87  1  0
M  ISO  4  10 100  18 100  49 101  50 101
M  END
>  <TORSDO>  (25) 
F 18

>  <SCORE>  (25) 
-13.228

>  <name>  (25) 
24

>  <ligand_id>  (25) 
24

>  <original_smiles>  (25) 
[H]c1c([H])c([H])c2c(c1[H])C([H])([H])C([H])([H])C([H])([H])C2([H])N([H])C(=O)C1([H])N(C(=O)C([H])(N([H])C(=O)C([H])(N([H])C([H])([H])[H])C([H])([H])[H])C(C([H])([H])[H])(C([H])([H])[H])C([H])([H])[H])C([H])([H])c2c([H])c(OC([H])([H])C([H])([H])c3c([H])c([H])c4c(c3[H])C([H])([H])C([H])(N([H])C(=O)N3C([H])([H])C([H])([H])C([H])([H])C([H])(n5nc(-c6c([H])c([H])c(Oc7c([H])c([H])c(F)c([H])c7F)c([H])c6[H])c(C(=O)N([H])[H])c5N([H])[H])C3([H])[H])C4([H])[H])c([H])c([H])c2C1([H])[H]

>  <smiles>  (25) 
[H]c1c([H])c([H])c2c(c1[H])C([H])([H])C([H])([H])C([H])([H])C2([H])N([H])C(=O)C1([H])N(C(=O)C([H])(N([H])C(=O)C([H])(N([H])C([H])([H])[H])C([H])([H])[H])C(C([H])([H])[H])(C([H])([H])[H])C([H])([H])[H])C([H])([H])c2c([H])c(OC([H])([H])C([H])([H])c3c([H])c([H])c4c(c3[H])C([H])([H])C([H])(N([H])C(=O)N3C([H])([H])C([H])([H])C([H])([H])C([H])(n5nc(-c6c([H])c([H])c(Oc7c([H])c([H])c(F)c([H])c7F)c([H])c6[H])c(C(=O)N([H])[H])c5N([H])[H])C3([H])[H])C4([H])[H])c([H])c([H])c2C1([H])[H]

$$$$
25:0:0
     RDKit          3D

 96105  0  0  1  0  0  0  0  0999 V2000
  -29.2460  -20.2680   21.1070 C   0  0  0  0  0  0  0  0  0  0  0  0
  -29.0050  -20.1970   22.3150 O   0  0  0  0  0  0  0  0  0  0  0  0
  -30.6670  -14.7210   20.1180 C   0  0  0  0  0  0  0  0  0  0  0  0
  -30.3450  -12.5160   19.0320 C   0  0  0  0  0  2  0  0  0  0  0  0
  -29.3530  -12.6770   17.8610 C   0  0  0  0  0  2  0  0  0  0  0  0
  -27.8990  -12.5370   18.3560 C   0  0  0  0  0  2  0  0  0  0  0  0
  -27.6080  -13.3890   19.6210 C   0  0  0  0  0  3  0  0  0  0  0  0
  -28.7140  -13.2190   20.6850 C   0  0  0  0  0  2  0  0  0  0  0  0
  -29.9970  -13.5320   20.0430 N   0  0  0  0  0  0  0  0  0  0  0  0
  -31.8280  -14.8270   19.7080 O   0  0  0  0  0  0  0  0  0  0  0  0
  -29.0550  -18.1670   19.5600 C   0  0  0  0  0  2  0  0  0  0  0  0
  -30.6550  -18.0370   21.4480 C   0  0  0  0  0  2  0  0  0  0  0  0
  -29.5980  -16.7420   19.1890 C   0  0  0  0  0  2  0  0  0  0  0  0
  -29.9950  -16.6190   21.6010 C   0  0  0  0  0  2  0  0  0  0  0  0
  -30.0260  -19.0620   20.4060 C   0  0  2  0  0  0  0  0  0  0  0  0
  -29.9120  -15.8530   20.3380 N   0  0  0  0  0  0  0  0  0  0  0  0
  -33.4200  -20.7940   18.2240 C   0  0  0  0  0  3  0  0  0  0  0  0
  -32.3900  -20.1560   17.5100 C   0  0  0  0  0  3  0  0  0  0  0  0
  -33.3530  -20.8670   19.6260 C   0  0  0  0  0  3  0  0  0  0  0  0
  -31.2900  -19.5990   18.1920 C   0  0  0  0  0  3  0  0  0  0  0  0
  -32.2560  -20.3060   20.3060 C   0  0  0  0  0  3  0  0  0  0  0  0
  -31.2010  -19.6690   19.6040 C   0  0  0  0  0  0  0  0  0  0  0  0
  -25.2630  -14.0050   20.4640 C   0  0  0  0  0  0  0  0  0  0  0  0
  -24.2020  -13.2380   20.8660 C   0  0  0  0  0  0  0  0  0  0  0  0
  -24.6430  -11.8830   20.7860 C   0  0  0  0  0  0  0  0  0  0  0  0
  -26.2820  -13.1150   20.1650 N   0  0  0  0  0  0  0  0  0  0  0  0
  -25.9180  -11.8320   20.4210 N   0  0  0  0  0  0  0  0  0  0  0  0
  -23.9100  -10.6270   20.9840 C   0  0  0  0  0  0  0  0  0  0  0  0
  -24.3590   -9.6470   21.8970 C   0  0  0  0  0  3  0  0  0  0  0  0
  -23.6280   -8.4530   22.0830 C   0  0  0  0  0  3  0  0  0  0  0  0
  -22.4330   -8.2320   21.3580 C   0  0  0  0  0  0  0  0  0  0  0  0
  -22.0030   -9.2010   20.4350 C   0  0  0  0  0  3  0  0  0  0  0  0
  -22.7350  -10.3850   20.2460 C   0  0  0  0  0  3  0  0  0  0  0  0
  -21.6710   -7.0930   21.4570 O   0  0  0  0  0  0  0  0  0  0  0  0
  -21.6300   -6.3500   22.6090 C   0  0  0  0  0  0  0  0  0  0  0  0
  -21.2110   -6.9050   23.8380 C   0  0  0  0  0  3  0  0  0  0  0  0
  -21.1190   -6.0890   24.9830 C   0  0  0  0  0  3  0  0  0  0  0  0
  -21.4330   -4.7190   24.9000 C   0  0  0  0  0  0  0  0  0  0  0  0
  -21.8430   -4.1640   23.6750 C   0  0  0  0  0  3  0  0  0  0  0  0
  -21.9390   -4.9780   22.5330 C   0  0  0  0  0  0  0  0  0  0  0  0
  -22.3160   -4.4330   21.3510 F   0  0  0  0  0  0  0  0  0  0  0  0
  -21.3360   -3.9340   25.9970 F   0  0  0  0  0  0  0  0  0  0  0  0
  -22.8260  -13.7290   21.2090 C   0  0  0  0  0  0  0  0  0  0  0  0
  -22.1270  -13.0250   22.0920 N   0  0  0  0  0  0  0  0  0  0  0  0
  -22.3790  -14.7680   20.7270 O   0  0  0  0  0  0  0  0  0  0  0  0
  -22.5010  -12.1850   22.5080 H   0  0  0  0  0  0  0  0  0  0  0  0
  -21.2020  -13.3330   22.3590 H   0  0  0  0  0  0  0  0  0  0  0  0
  -25.4430  -15.3750   20.3070 N   0  0  0  0  0  0  0  0  0  0  0  0
  -24.6980  -16.0430   20.4730 H   0  0  0  0  0  0  0  0  0  0  0  0
  -26.2980  -15.8060   19.9780 H   0  0  0  0  0  0  0  0  0  0  0  0
  -28.0220  -21.2770   19.0320 C   0  0  0  0  0  1  0  0  0  0  0  0
  -28.7230  -21.5720   20.3680 C   0  0  0  0  0  3  0  0  0  0  0  0
  -29.6860  -22.8240   20.2620 C   0  0  0  0  0  2  0  0  0  0  0  0
  -29.2240  -24.2740   20.7360 C   0  0  0  0  0  2  0  0  0  0  0  0
  -28.3250  -25.1960   19.8240 C   0  0  0  0  0  2  0  0  0  0  0  0
  -28.3830  -26.6420   20.1230 O   0  0  0  0  0  0  0  0  0  0  0  0
  -24.6300  -31.9280   23.2140 C   0  0  0  0  0  0  0  0  0  0  0  0
  -27.2320  -27.4400   20.0740 C   0  0  0  0  0  0  0  0  0  0  0  0
  -23.4080  -30.5340   21.5800 C   0  0  0  0  0  3  0  0  0  0  0  0
  -24.8470  -29.0130   20.1150 C   0  0  0  0  0  0  0  0  0  0  0  0
  -25.9380  -30.8820   21.3550 C   0  0  0  0  0  2  0  0  0  0  0  0
  -26.0170  -29.5120   20.6970 C   0  0  0  0  0  0  0  0  0  0  0  0
  -27.2100  -28.7360   20.6710 C   0  0  0  0  0  3  0  0  0  0  0  0
  -26.0420  -26.9950   19.4540 C   0  0  0  0  0  3  0  0  0  0  0  0
  -24.8610  -27.7600   19.4840 C   0  0  0  0  0  3  0  0  0  0  0  0
  -23.6010  -29.8720   20.1910 C   0  0  0  0  0  2  0  0  0  0  0  0
  -24.6790  -31.1320   22.1060 N   0  0  0  0  0  0  0  0  0  0  0  0
  -23.5550  -32.1900   23.7710 O   0  0  0  0  0  0  0  0  0  0  0  0
  -22.7720  -29.5030   22.5410 C   0  0  0  0  0  0  0  0  0  0  0  0
  -21.4460  -29.3110   22.4310 N   0  0  0  0  0  0  0  0  0  0  0  0
  -23.4700  -28.8790   23.3460 O   0  0  0  0  0  0  0  0  0  0  0  0
  -20.9420  -29.8680   21.7560 H   0  0  0  0  0  0  0  0  0  0  0  0
  -18.0910  -28.0710   22.9610 C   0  0  0  0  0  0  0  0  0  0  0  0
  -20.6490  -28.3610   23.2060 C   0  0  0  0  0  3  0  0  0  0  0  0
  -20.7620  -26.9320   22.6240 C   0  0  0  0  0  2  0  0  0  0  0  0
  -19.6530  -26.6000   21.6200 C   0  0  0  0  0  2  0  0  0  0  0  0
  -18.2780  -26.7260   22.2790 C   0  0  0  0  0  2  0  0  0  0  0  0
  -19.2060  -28.8450   23.3830 C   0  0  0  0  0  0  0  0  0  0  0  0
  -18.9780  -30.1030   23.9820 C   0  0  0  0  0  3  0  0  0  0  0  0
  -17.6690  -30.5880   24.1630 C   0  0  0  0  0  3  0  0  0  0  0  0
  -16.5690  -29.8130   23.7570 C   0  0  0  0  0  3  0  0  0  0  0  0
  -16.7820  -28.5550   23.1620 C   0  0  0  0  0  3  0  0  0  0  0  0
  -25.9190  -32.5650   23.8190 C   0  0  0  0  0  3  0  0  0  0  0  0
  -25.6080  -33.9610   24.1570 N   0  0  0  0  0  0  0  0  0  0  0  0
  -25.9280  -35.0170   23.3980 C   0  0  0  0  0  0  0  0  0  0  0  0
  -26.5860  -34.9190   22.3580 O   0  0  0  0  0  0  0  0  0  0  0  0
  -25.0240  -34.1100   24.9660 H   0  0  0  0  0  0  0  0  0  0  0  0
  -24.1900  -36.8070   23.0660 C   0  0  0  0  0  1  0  0  0  0  0  0
  -25.4390  -36.4020   23.8660 C   0  0  0  0  0  3  0  0  0  0  0  0
  -27.5760  -37.2910   24.6850 C   0  0  0  0  0  1  0  0  0  0  0  0
  -26.4680  -37.4580   23.7500 N   0  0  0  0  0  0  0  0  0  0  0  0
  -26.0590  -38.3760   23.9050 H   0  0  0  0  0  0  0  0  0  0  0  0
  -26.4560  -31.7930   25.0880 C   0  0  1  0  0  0  0  0  0  0  0  0
  -25.3780  -31.5510   26.1700 C   0  0  0  0  0  1  0  0  0  0  0  0
  -27.0420  -30.4200   24.6870 C   0  0  0  0  0  1  0  0  0  0  0  0
  -27.6110  -32.5940   25.7360 C   0  0  0  0  0  1  0  0  0  0  0  0
  1  2  2  0
  3 16  1  0
  4  9  1  0
  5  6  1  0
  5  4  1  0
  7  6  1  0
  7 26  1  0
  7  8  1  0
  9  3  1  0
  9  8  1  0
 10  3  2  0
 11 15  1  0
 12 14  1  0
 13 11  1  0
 13 16  1  0
 15  1  1  1
 15 12  1  0
 16 14  1  0
 17 19  1  0
 18 20  1  0
 18 17  2  0
 19 21  2  0
 20 22  2  0
 22 21  1  0
 22 15  1  0
 23 24  2  0
 24 43  1  0
 25 24  1  0
 25 28  1  0
 26 27  1  0
 26 23  1  0
 27 25  2  0
 28 29  1  0
 29 30  2  0
 31 34  1  0
 31 30  1  0
 32 31  2  0
 33 32  1  0
 33 28  2  0
 34 35  1  0
 35 36  1  0
 36 37  2  0
 38 37  1  0
 38 42  1  0
 39 38  2  0
 40 35  2  0
 40 39  1  0
 41 40  1  0
 43 44  1  0
 44 47  1  0
 44 46  1  0
 45 43  2  0
 48 23  1  0
 48 49  1  0
 50 48  1  0
 52 51  1  0
 52  1  1  0
 53 52  1  0
 53 54  1  0
 55 56  1  0
 55 54  1  0
 57 68  2  0
 58 56  1  0
 58 63  1  0
 59 67  1  0
 59 69  1  0
 60 66  1  0
 60 62  1  0
 61 67  1  0
 62 61  1  0
 63 62  2  0
 64 65  1  0
 64 58  2  0
 65 60  2  0
 66 59  1  0
 67 57  1  0
 69 71  2  0
 70 69  1  0
 72 70  1  0
 73 82  2  0
 73 78  1  0
 74 70  1  0
 74 78  1  0
 75 74  1  0
 76 77  1  0
 76 75  1  0
 77 73  1  0
 78 79  2  0
 79 80  1  0
 81 80  2  0
 82 81  1  0
 83 57  1  0
 83 84  1  0
 83 93  1  0
 84 87  1  0
 85 89  1  0
 85 84  1  0
 86 85  2  0
 89 88  1  0
 91 89  1  0
 91 92  1  0
 91 90  1  0
 93 96  1  1
 93 94  1  0
 95 93  1  0
M  ISO  4   3 100  16 100  55 101  56 101
M  END
>  <TORSDO>  (26) 
F 21

>  <SCORE>  (26) 
-12.823

>  <name>  (26) 
25

>  <ligand_id>  (26) 
25

>  <original_smiles>  (26) 
[H]c1c([H])c([H])c(C2(C(=O)C([H])(C([H])([H])[H])C([H])([H])C([H])([H])C([H])([H])Oc3c([H])c([H])c4c(c3[H])C([H])([H])N(C(=O)C([H])(N([H])C(=O)C([H])(N([H])C([H])([H])[H])C([H])([H])[H])C(C([H])([H])[H])(C([H])([H])[H])C([H])([H])[H])C([H])(C(=O)N([H])C3([H])c5c([H])c([H])c([H])c([H])c5C([H])([H])C([H])([H])C3([H])[H])C4([H])[H])C([H])([H])C([H])([H])N(C(=O)N3C([H])([H])C([H])([H])C([H])([H])C([H])(n4nc(-c5c([H])c([H])c(Oc6c([H])c([H])c(F)c([H])c6F)c([H])c5[H])c(C(=O)N([H])[H])c4N([H])[H])C3([H])[H])C([H])([H])C2([H])[H])c([H])c1[H]

>  <smiles>  (26) 
[H]c1c([H])c([H])c(C2(C(=O)C([H])(C([H])([H])[H])C([H])([H])C([H])([H])C([H])([H])Oc3c([H])c([H])c4c(c3[H])C([H])([H])N(C(=O)C([H])(N([H])C(=O)C([H])(N([H])C([H])([H])[H])C([H])([H])[H])C(C([H])([H])[H])(C([H])([H])[H])C([H])([H])[H])C([H])(C(=O)N([H])C3([H])c5c([H])c([H])c([H])c([H])c5C([H])([H])C([H])([H])C3([H])[H])C4([H])[H])C([H])([H])C([H])([H])N(C(=O)N3C([H])([H])C([H])([H])C([H])([H])C([H])(n4nc(-c5c([H])c([H])c(Oc6c([H])c([H])c(F)c([H])c6F)c([H])c5[H])c(C(=O)N([H])[H])c4N([H])[H])C3([H])[H])C([H])([H])C2([H])[H])c([H])c1[H]

$$$$
26:0:0
     RDKit          3D

 92100  0  0  1  0  0  0  0  0999 V2000
  -28.1010  -21.4300   20.5650 C   0  0  0  0  0  2  0  0  0  0  0  0
  -30.4130  -20.8240   20.1330 C   0  0  0  0  0  2  0  0  0  0  0  0
  -28.3100  -21.2070   19.0740 C   0  0  0  0  0  3  0  0  0  0  0  0
  -29.5730  -19.9340   19.1170 C   0  0  0  0  0  3  0  0  0  0  0  0
  -29.5140  -21.6330   21.1300 C   0  0  1  0  0  0  0  0  0  0  0  0
  -29.9730  -23.1150   21.1880 C   0  0  0  0  0  1  0  0  0  0  0  0
  -29.5340  -21.1690   22.6040 C   0  0  0  0  0  1  0  0  0  0  0  0
  -28.9840  -17.8480   20.7510 C   0  0  0  0  0  1  0  0  0  0  0  0
  -31.4140  -18.2760   20.1190 C   0  0  0  0  0  1  0  0  0  0  0  0
  -29.9540  -18.1710   19.5940 C   0  0  2  0  0  0  0  0  0  0  0  0
  -30.8650  -15.3900   19.1920 C   0  0  0  0  0  0  0  0  0  0  0  0
  -30.8660  -12.8430   18.7020 C   0  0  0  0  0  2  0  0  0  0  0  0
  -29.8590  -12.3530   17.6360 C   0  0  0  0  0  2  0  0  0  0  0  0
  -28.4590  -12.1530   18.2390 C   0  0  0  0  0  2  0  0  0  0  0  0
  -28.0570  -13.3020   19.1990 C   0  0  0  0  0  3  0  0  0  0  0  0
  -29.1850  -13.6730   20.1760 C   0  0  0  0  0  2  0  0  0  0  0  0
  -30.3170  -14.0910   19.3350 N   0  0  0  0  0  0  0  0  0  0  0  0
  -32.0960  -15.3710   19.0330 O   0  0  0  0  0  0  0  0  0  0  0  0
  -30.0790  -16.6360   18.9590 N   0  0  0  0  0  0  0  0  0  0  0  0
  -29.1740  -16.3660   18.6020 H   0  0  0  0  0  0  0  0  0  0  0  0
  -25.8550  -13.9930   20.2810 C   0  0  0  0  0  0  0  0  0  0  0  0
  -24.7870  -13.2750   20.7420 C   0  0  0  0  0  0  0  0  0  0  0  0
  -25.1410  -11.8990   20.5940 C   0  0  0  0  0  0  0  0  0  0  0  0
  -26.7870  -13.0560   19.8670 N   0  0  0  0  0  0  0  0  0  0  0  0
  -26.3800  -11.7870   20.1280 N   0  0  0  0  0  0  0  0  0  0  0  0
  -24.3450  -10.6830   20.8110 C   0  0  0  0  0  0  0  0  0  0  0  0
  -24.7550   -9.6870   21.7250 C   0  0  0  0  0  3  0  0  0  0  0  0
  -23.9630   -8.5370   21.9310 C   0  0  0  0  0  3  0  0  0  0  0  0
  -22.7470   -8.3780   21.2250 C   0  0  0  0  0  0  0  0  0  0  0  0
  -22.3530   -9.3600   20.3000 C   0  0  0  0  0  3  0  0  0  0  0  0
  -23.1460  -10.5000   20.0920 C   0  0  0  0  0  3  0  0  0  0  0  0
  -21.9230   -7.2830   21.3430 O   0  0  0  0  0  0  0  0  0  0  0  0
  -21.7940   -6.6060   22.5300 C   0  0  0  0  0  0  0  0  0  0  0  0
  -21.3480   -7.2400   23.7080 C   0  0  0  0  0  3  0  0  0  0  0  0
  -21.1660   -6.4890   24.8880 C   0  0  0  0  0  3  0  0  0  0  0  0
  -21.4170   -5.1030   24.8860 C   0  0  0  0  0  0  0  0  0  0  0  0
  -21.8510   -4.4690   23.7090 C   0  0  0  0  0  3  0  0  0  0  0  0
  -22.0380   -5.2170   22.5350 C   0  0  0  0  0  0  0  0  0  0  0  0
  -22.4400   -4.5960   21.3990 F   0  0  0  0  0  0  0  0  0  0  0  0
  -21.2350   -4.3800   26.0160 F   0  0  0  0  0  0  0  0  0  0  0  0
  -23.4730  -13.8350   21.1950 C   0  0  0  0  0  0  0  0  0  0  0  0
  -22.8040  -13.1520   22.1190 N   0  0  0  0  0  0  0  0  0  0  0  0
  -23.0540  -14.9100   20.7690 O   0  0  0  0  0  0  0  0  0  0  0  0
  -23.1660  -12.2870   22.4890 H   0  0  0  0  0  0  0  0  0  0  0  0
  -21.9150  -13.4900   22.4550 H   0  0  0  0  0  0  0  0  0  0  0  0
  -26.1040  -15.3550   20.1470 N   0  0  0  0  0  0  0  0  0  0  0  0
  -25.4160  -16.0630   20.3800 H   0  0  0  0  0  0  0  0  0  0  0  0
  -26.9450  -15.7420   19.7430 H   0  0  0  0  0  0  0  0  0  0  0  0
  -28.3790  -22.8390   18.4290 C   0  0  0  0  0  0  0  0  0  0  0  0
  -29.2760  -23.0360   17.6060 O   0  0  0  0  0  0  0  0  0  0  0  0
  -27.3780  -24.2210   18.7720 C   0  0  0  0  0  2  0  0  0  0  0  0
  -27.7230  -25.8140   18.6530 O   0  0  0  0  0  0  0  0  0  0  0  0
  -24.7190  -31.3350   22.8040 C   0  0  0  0  0  0  0  0  0  0  0  0
  -26.7460  -26.9080   18.8770 C   0  0  0  0  0  0  0  0  0  0  0  0
  -23.2870  -30.1810   21.1660 C   0  0  0  0  0  3  0  0  0  0  0  0
  -24.5050  -28.7730   19.3760 C   0  0  0  0  0  0  0  0  0  0  0  0
  -25.8180  -30.4010   20.7140 C   0  0  0  0  0  2  0  0  0  0  0  0
  -25.7710  -29.0900   19.8800 C   0  0  0  0  0  0  0  0  0  0  0  0
  -26.8860  -28.1790   19.6120 C   0  0  0  0  0  3  0  0  0  0  0  0
  -25.4470  -26.7420   18.3500 C   0  0  0  0  0  3  0  0  0  0  0  0
  -24.3630  -27.6210   18.5900 C   0  0  0  0  0  3  0  0  0  0  0  0
  -23.3250  -29.6870   19.6960 C   0  0  0  0  0  2  0  0  0  0  0  0
  -24.6370  -30.6570   21.6160 N   0  0  0  0  0  0  0  0  0  0  0  0
  -23.7150  -31.5580   23.4990 O   0  0  0  0  0  0  0  0  0  0  0  0
  -22.7000  -29.0680   22.0700 C   0  0  0  0  0  0  0  0  0  0  0  0
  -21.3680  -28.8670   22.0240 N   0  0  0  0  0  0  0  0  0  0  0  0
  -23.4430  -28.3910   22.7850 O   0  0  0  0  0  0  0  0  0  0  0  0
  -20.8160  -29.4670   21.4260 H   0  0  0  0  0  0  0  0  0  0  0  0
  -18.0920  -27.3900   22.5170 C   0  0  0  0  0  0  0  0  0  0  0  0
  -20.6310  -27.8300   22.7560 C   0  0  0  0  0  3  0  0  0  0  0  0
  -20.8240  -26.4420   22.1030 C   0  0  0  0  0  2  0  0  0  0  0  0
  -19.7310  -26.0950   21.0880 C   0  0  0  0  0  2  0  0  0  0  0  0
  -18.3560  -26.0980   21.7610 C   0  0  0  0  0  2  0  0  0  0  0  0
  -19.1590  -28.2110   22.9700 C   0  0  0  0  0  0  0  0  0  0  0  0
  -18.8530  -29.4160   23.6400 C   0  0  0  0  0  3  0  0  0  0  0  0
  -17.5160  -29.8040   23.8550 C   0  0  0  0  0  3  0  0  0  0  0  0
  -16.4660  -28.9800   23.4160 C   0  0  0  0  0  3  0  0  0  0  0  0
  -16.7540  -27.7740   22.7550 C   0  0  0  0  0  3  0  0  0  0  0  0
  -26.0790  -31.8750   23.3460 C   0  0  0  0  0  3  0  0  0  0  0  0
  -26.7440  -30.9160   24.4100 C   0  0  1  0  0  0  0  0  0  0  0  0
  -25.8030  -30.5230   25.5730 C   0  0  0  0  0  1  0  0  0  0  0  0
  -27.2340  -29.6090   23.7460 C   0  0  0  0  0  1  0  0  0  0  0  0
  -27.9960  -31.5930   25.0180 C   0  0  0  0  0  1  0  0  0  0  0  0
  -25.8390  -33.2010   23.9360 N   0  0  0  0  0  0  0  0  0  0  0  0
  -26.1570  -34.3670   23.3560 C   0  0  0  0  0  0  0  0  0  0  0  0
  -26.7480  -34.4340   22.2750 O   0  0  0  0  0  0  0  0  0  0  0  0
  -25.3180  -33.2230   24.8000 H   0  0  0  0  0  0  0  0  0  0  0  0
  -24.5000  -36.2580   23.4320 C   0  0  0  0  0  1  0  0  0  0  0  0
  -25.7560  -35.6630   24.0890 C   0  0  0  0  0  3  0  0  0  0  0  0
  -27.9630  -36.2980   24.9560 C   0  0  0  0  0  1  0  0  0  0  0  0
  -26.8280  -36.6810   24.1210 N   0  0  0  0  0  0  0  0  0  0  0  0
  -26.4710  -37.5700   24.4610 H   0  0  0  0  0  0  0  0  0  0  0  0
  1  5  1  0
  2  5  1  0
  3 49  1  0
  3  4  1  0
  3  1  1  0
  4 10  1  0
  4  2  1  0
  5  6  1  1
  5  7  1  0
 10  9  1  1
 10  8  1  0
 11 17  1  0
 12 17  1  0
 13 14  1  0
 13 12  1  0
 15 14  1  0
 15 24  1  0
 15 16  1  0
 17 16  1  0
 18 11  2  0
 19 11  1  0
 19 10  1  0
 20 19  1  0
 21 22  2  0
 22 41  1  0
 23 22  1  0
 23 26  1  0
 24 25  1  0
 24 21  1  0
 25 23  2  0
 26 27  1  0
 27 28  2  0
 29 32  1  0
 29 28  1  0
 30 29  2  0
 31 30  1  0
 31 26  2  0
 32 33  1  0
 33 38  2  0
 33 34  1  0
 34 35  2  0
 36 35  1  0
 36 40  1  0
 37 36  2  0
 38 37  1  0
 39 38  1  0
 41 42  1  0
 42 45  1  0
 42 44  1  0
 43 41  2  0
 46 21  1  0
 46 47  1  0
 48 46  1  0
 49 51  1  0
 50 49  2  0
 52 51  1  0
 52 54  1  0
 53 64  2  0
 54 59  1  0
 55 63  1  0
 55 65  1  0
 56 62  1  0
 56 58  1  0
 57 63  1  0
 58 57  1  0
 59 58  2  0
 60 61  1  0
 60 54  2  0
 61 56  2  0
 62 55  1  0
 63 53  1  0
 65 67  2  0
 66 65  1  0
 68 66  1  0
 69 78  2  0
 69 74  1  0
 70 66  1  0
 70 74  1  0
 71 70  1  0
 72 73  1  0
 72 71  1  0
 73 69  1  0
 74 75  2  0
 75 76  1  0
 77 76  2  0
 78 77  1  0
 79 53  1  0
 79 84  1  0
 79 80  1  0
 80 83  1  1
 80 81  1  0
 82 80  1  0
 84 87  1  0
 85 84  1  0
 85 89  1  0
 86 85  2  0
 89 88  1  0
 89 91  1  0
 91 92  1  0
 91 90  1  0
M  ISO  4  11 100  19 100  51 101  52 101
M  END
>  <TORSDO>  (27) 
F 19

>  <SCORE>  (27) 
-13.641

>  <name>  (27) 
26

>  <ligand_id>  (27) 
26

>  <original_smiles>  (27) 
[H]c1c([H])c([H])c2c(c1[H])C([H])([H])C([H])([H])C([H])([H])C2([H])N([H])C(=O)C1([H])N(C(=O)C([H])(N([H])C(=O)C([H])(N([H])C([H])([H])[H])C([H])([H])[H])C(C([H])([H])[H])(C([H])([H])[H])C([H])([H])[H])C([H])([H])c2c([H])c(OC([H])([H])C(=O)C3([H])C([H])([H])C(C([H])([H])[H])(C([H])([H])[H])C([H])([H])C3([H])C(N([H])C(=O)N3C([H])([H])C([H])([H])C([H])([H])C([H])(n4nc(-c5c([H])c([H])c(Oc6c([H])c([H])c(F)c([H])c6F)c([H])c5[H])c(C(=O)N([H])[H])c4N([H])[H])C3([H])[H])(C([H])([H])[H])C([H])([H])[H])c([H])c([H])c2C1([H])[H]

>  <smiles>  (27) 
[H]c1c([H])c([H])c2c(c1[H])C([H])([H])C([H])([H])C([H])([H])C2([H])N([H])C(=O)C1([H])N(C(=O)C([H])(N([H])C(=O)C([H])(N([H])C([H])([H])[H])C([H])([H])[H])C(C([H])([H])[H])(C([H])([H])[H])C([H])([H])[H])C([H])([H])c2c([H])c(OC([H])([H])C(=O)C3([H])C([H])([H])C(C([H])([H])[H])(C([H])([H])[H])C([H])([H])C3([H])C(N([H])C(=O)N3C([H])([H])C([H])([H])C([H])([H])C([H])(n4nc(-c5c([H])c([H])c(Oc6c([H])c([H])c(F)c([H])c6F)c([H])c5[H])c(C(=O)N([H])[H])c4N([H])[H])C3([H])[H])(C([H])([H])[H])C([H])([H])[H])c([H])c([H])c2C1([H])[H]

$$$$
27:0:0
     RDKit          3D

 96106  0  0  1  0  0  0  0  0999 V2000
  -30.0590  -20.3790   18.8790 C   0  0  0  0  0  3  0  0  0  0  0  0
  -30.4240  -19.0790   19.3150 C   0  0  0  0  0  3  0  0  0  0  0  0
  -29.2230  -19.4550   21.3500 C   0  0  0  0  0  3  0  0  0  0  0  0
  -29.2530  -21.2800   19.6430 C   0  0  0  0  0  0  0  0  0  0  0  0
  -28.8470  -20.7710   20.9190 C   0  0  0  0  0  0  0  0  0  0  0  0
  -30.0180  -18.5770   20.5670 C   0  0  0  0  0  0  0  0  0  0  0  0
  -27.9960  -21.6050   21.8780 C   0  0  0  0  0  2  0  0  0  0  0  0
  -29.9700  -23.3050   22.0630 C   0  0  0  0  0  2  0  0  0  0  0  0
  -30.2360  -23.9950   20.7120 C   0  0  0  0  0  2  0  0  0  0  0  0
  -27.8890  -24.0390   21.0950 C   0  0  0  0  0  2  0  0  0  0  0  0
  -28.4520  -23.0630   22.1310 C   0  0  0  0  0  3  0  0  0  0  0  0
  -28.7530  -22.6740   19.0310 C   0  0  1  0  0  0  0  0  0  0  0  0
  -28.9000  -24.0290   19.9330 C   0  0  2  0  0  0  0  0  0  0  0  0
  -29.4980  -22.9370   17.6870 C   0  0  0  0  0  1  0  0  0  0  0  0
  -27.2810  -22.4570   18.5980 C   0  0  0  0  0  1  0  0  0  0  0  0
  -30.6110  -17.2400   21.1340 C   0  0  0  0  0  2  0  0  0  0  0  0
  -30.8070  -14.7920   20.4070 C   0  0  0  0  0  0  0  0  0  0  0  0
  -30.5720  -12.5560   19.3460 C   0  0  0  0  0  2  0  0  0  0  0  0
  -29.6450  -12.6620   18.1160 C   0  0  0  0  0  2  0  0  0  0  0  0
  -28.1690  -12.5110   18.5320 C   0  0  0  0  0  2  0  0  0  0  0  0
  -27.7940  -13.3950   19.7520 C   0  0  0  0  0  3  0  0  0  0  0  0
  -28.8390  -13.2720   20.8820 C   0  0  0  0  0  2  0  0  0  0  0  0
  -30.1500  -13.5960   20.3040 N   0  0  0  0  0  0  0  0  0  0  0  0
  -31.9860  -14.9020   20.0580 O   0  0  0  0  0  0  0  0  0  0  0  0
  -30.0750  -15.8930   20.7550 N   0  0  0  0  0  0  0  0  0  0  0  0
  -29.0960  -15.7360   20.9370 H   0  0  0  0  0  0  0  0  0  0  0  0
  -25.3960  -13.9970   20.4470 C   0  0  0  0  0  0  0  0  0  0  0  0
  -24.3240  -13.2270   20.8040 C   0  0  0  0  0  0  0  0  0  0  0  0
  -24.7840  -11.8740   20.7800 C   0  0  0  0  0  0  0  0  0  0  0  0
  -26.4410  -13.1160   20.2260 N   0  0  0  0  0  0  0  0  0  0  0  0
  -26.0780  -11.8340   20.4870 N   0  0  0  0  0  0  0  0  0  0  0  0
  -24.0530  -10.6130   20.9620 C   0  0  0  0  0  0  0  0  0  0  0  0
  -24.4810   -9.6380   21.8890 C   0  0  0  0  0  3  0  0  0  0  0  0
  -23.7500   -8.4420   22.0590 C   0  0  0  0  0  3  0  0  0  0  0  0
  -22.5770   -8.2140   21.3010 C   0  0  0  0  0  0  0  0  0  0  0  0
  -22.1690   -9.1780   20.3620 C   0  0  0  0  0  3  0  0  0  0  0  0
  -22.8990  -10.3650   20.1910 C   0  0  0  0  0  3  0  0  0  0  0  0
  -21.8170   -7.0710   21.3800 O   0  0  0  0  0  0  0  0  0  0  0  0
  -21.7720   -6.3160   22.5240 C   0  0  0  0  0  0  0  0  0  0  0  0
  -21.3600   -6.8580   23.7600 C   0  0  0  0  0  3  0  0  0  0  0  0
  -21.2620   -6.0290   24.8960 C   0  0  0  0  0  3  0  0  0  0  0  0
  -21.5660   -4.6590   24.7960 C   0  0  0  0  0  0  0  0  0  0  0  0
  -21.9700   -4.1150   23.5640 C   0  0  0  0  0  3  0  0  0  0  0  0
  -22.0700   -4.9410   22.4300 C   0  0  0  0  0  0  0  0  0  0  0  0
  -22.4400   -4.4090   21.2410 F   0  0  0  0  0  0  0  0  0  0  0  0
  -21.4630   -3.8600   25.8840 F   0  0  0  0  0  0  0  0  0  0  0  0
  -22.9240  -13.7070   21.0580 C   0  0  0  0  0  0  0  0  0  0  0  0
  -22.1870  -13.0170   21.9210 N   0  0  0  0  0  0  0  0  0  0  0  0
  -22.4920  -14.7300   20.5270 O   0  0  0  0  0  0  0  0  0  0  0  0
  -22.5480  -12.1900   22.3730 H   0  0  0  0  0  0  0  0  0  0  0  0
  -21.2470  -13.3230   22.1370 H   0  0  0  0  0  0  0  0  0  0  0  0
  -25.5630  -15.3680   20.2690 N   0  0  0  0  0  0  0  0  0  0  0  0
  -24.7940  -16.0210   20.3630 H   0  0  0  0  0  0  0  0  0  0  0  0
  -26.4140  -15.8070   19.9390 H   0  0  0  0  0  0  0  0  0  0  0  0
  -28.7870  -25.4100   19.1120 C   0  0  0  0  0  2  0  0  0  0  0  0
  -28.6530  -26.7150   19.7880 O   0  0  0  0  0  0  0  0  0  0  0  0
  -24.6790  -31.7600   23.0230 C   0  0  0  0  0  0  0  0  0  0  0  0
  -27.4620  -27.4520   19.7750 C   0  0  0  0  0  0  0  0  0  0  0  0
  -23.5200  -30.3620   21.3500 C   0  0  0  0  0  3  0  0  0  0  0  0
  -25.0190  -28.9330   19.8580 C   0  0  0  0  0  0  0  0  0  0  0  0
  -26.0360  -30.8100   21.1470 C   0  0  0  0  0  2  0  0  0  0  0  0
  -26.1700  -29.4610   20.4540 C   0  0  0  0  0  0  0  0  0  0  0  0
  -27.3910  -28.7300   20.4050 C   0  0  0  0  0  3  0  0  0  0  0  0
  -26.2740  -26.9560   19.1870 C   0  0  0  0  0  3  0  0  0  0  0  0
  -25.0710  -27.6850   19.2210 C   0  0  0  0  0  3  0  0  0  0  0  0
  -23.7450  -29.7460   19.9470 C   0  0  0  0  0  2  0  0  0  0  0  0
  -24.7640  -30.9940   21.8970 N   0  0  0  0  0  0  0  0  0  0  0  0
  -23.5920  -31.9670   23.5800 O   0  0  0  0  0  0  0  0  0  0  0  0
  -22.9200  -29.2830   22.2830 C   0  0  0  0  0  0  0  0  0  0  0  0
  -21.6010  -29.0540   22.1710 N   0  0  0  0  0  0  0  0  0  0  0  0
  -23.6400  -28.6560   23.0640 O   0  0  0  0  0  0  0  0  0  0  0  0
  -21.0770  -29.6130   21.5130 H   0  0  0  0  0  0  0  0  0  0  0  0
  -18.2840  -27.7070   22.6860 C   0  0  0  0  0  0  0  0  0  0  0  0
  -20.8350  -28.0560   22.9220 C   0  0  0  0  0  3  0  0  0  0  0  0
  -20.9810  -26.6520   22.2900 C   0  0  0  0  0  2  0  0  0  0  0  0
  -19.8740  -26.3250   21.2830 C   0  0  0  0  0  2  0  0  0  0  0  0
  -18.4990  -26.3920   21.9540 C   0  0  0  0  0  2  0  0  0  0  0  0
  -19.3820  -28.4960   23.1250 C   0  0  0  0  0  0  0  0  0  0  0  0
  -19.1260  -29.7270   23.7670 C   0  0  0  0  0  3  0  0  0  0  0  0
  -17.8070  -30.1710   23.9760 C   0  0  0  0  0  3  0  0  0  0  0  0
  -16.7260  -29.3790   23.5550 C   0  0  0  0  0  3  0  0  0  0  0  0
  -16.9640  -28.1490   22.9140 C   0  0  0  0  0  3  0  0  0  0  0  0
  -25.9400  -32.4310   23.6510 C   0  0  0  0  0  3  0  0  0  0  0  0
  -25.5660  -33.7940   24.0520 N   0  0  0  0  0  0  0  0  0  0  0  0
  -25.8230  -34.8970   23.3380 C   0  0  0  0  0  0  0  0  0  0  0  0
  -26.4750  -34.8780   22.2900 O   0  0  0  0  0  0  0  0  0  0  0  0
  -24.9840  -33.8800   24.8730 H   0  0  0  0  0  0  0  0  0  0  0  0
  -23.9880  -36.6000   23.1110 C   0  0  0  0  0  1  0  0  0  0  0  0
  -25.2720  -36.2340   23.8700 C   0  0  0  0  0  3  0  0  0  0  0  0
  -27.3750  -37.2000   24.6880 C   0  0  0  0  0  1  0  0  0  0  0  0
  -26.2390  -37.3490   23.7810 N   0  0  0  0  0  0  0  0  0  0  0  0
  -25.7860  -38.2350   23.9840 H   0  0  0  0  0  0  0  0  0  0  0  0
  -26.5210  -31.6310   24.8810 C   0  0  1  0  0  0  0  0  0  0  0  0
  -25.4640  -31.2920   25.9580 C   0  0  0  0  0  1  0  0  0  0  0  0
  -27.1640  -30.3040   24.4160 C   0  0  0  0  0  1  0  0  0  0  0  0
  -27.6460  -32.4520   25.5550 C   0  0  0  0  0  1  0  0  0  0  0  0
  1  2  2  0
  1  4  1  0
  2  6  1  0
  4  5  2  0
  5  3  1  0
  5  7  1  0
  6 16  1  0
  6  3  2  0
  7 11  1  0
  8 11  1  0
  9  8  1  0
 11 10  1  0
 12  4  1  0
 12 13  1  0
 13 55  1  6
 13  9  1  0
 13 10  1  0
 12 14  1  6
 15 12  1  0
 17 25  1  0
 18 23  1  0
 19 20  1  0
 19 18  1  0
 21 20  1  0
 21 30  1  0
 21 22  1  0
 23 17  1  0
 23 22  1  0
 24 17  2  0
 25 26  1  0
 25 16  1  0
 27 28  2  0
 28 47  1  0
 29 28  1  0
 29 32  1  0
 30 27  1  0
 30 31  1  0
 31 29  2  0
 32 33  1  0
 33 34  2  0
 35 38  1  0
 35 34  1  0
 36 35  2  0
 37 36  1  0
 37 32  2  0
 38 39  1  0
 39 40  1  0
 40 41  2  0
 42 41  1  0
 42 46  1  0
 43 42  2  0
 44 39  2  0
 44 43  1  0
 45 44  1  0
 47 48  1  0
 48 51  1  0
 48 50  1  0
 49 47  2  0
 52 53  1  0
 52 27  1  0
 54 52  1  0
 55 56  1  0
 57 68  2  0
 58 56  1  0
 58 63  1  0
 59 67  1  0
 59 69  1  0
 60 66  1  0
 60 62  1  0
 61 67  1  0
 62 61  1  0
 63 62  2  0
 64 65  1  0
 64 58  2  0
 65 60  2  0
 66 59  1  0
 67 57  1  0
 69 71  2  0
 70 69  1  0
 72 70  1  0
 73 82  2  0
 73 78  1  0
 74 70  1  0
 74 78  1  0
 75 74  1  0
 76 77  1  0
 76 75  1  0
 77 73  1  0
 78 79  2  0
 79 80  1  0
 81 80  2  0
 82 81  1  0
 83 57  1  0
 83 84  1  0
 83 93  1  0
 84 87  1  0
 85 89  1  0
 85 84  1  0
 86 85  2  0
 89 88  1  0
 91 89  1  0
 91 92  1  0
 91 90  1  0
 93 96  1  1
 93 94  1  0
 95 93  1  0
M  ISO  4  17 100  25 100  55 101  56 101
M  END
>  <TORSDO>  (28) 
F 18

>  <SCORE>  (28) 
-13.781

>  <name>  (28) 
27

>  <ligand_id>  (28) 
27

>  <original_smiles>  (28) 
[H]c1c([H])c([H])c2c(c1[H])C([H])([H])C([H])([H])C([H])([H])C2([H])N([H])C(=O)C1([H])N(C(=O)C([H])(N([H])C(=O)C([H])(N([H])C([H])([H])[H])C([H])([H])[H])C(C([H])([H])[H])(C([H])([H])[H])C([H])([H])[H])C([H])([H])c2c([H])c(OC([H])([H])C34C([H])([H])C([H])([H])C([H])(C([H])([H])c5c([H])c(C([H])([H])N([H])C(=O)N6C([H])([H])C([H])([H])C([H])([H])C([H])(n7nc(-c8c([H])c([H])c(Oc9c([H])c([H])c(F)c([H])c9F)c([H])c8[H])c(C(=O)N([H])[H])c7N([H])[H])C6([H])[H])c([H])c([H])c5C3(C([H])([H])[H])C([H])([H])[H])C4([H])[H])c([H])c([H])c2C1([H])[H]

>  <smiles>  (28) 
[H]c1c([H])c([H])c2c(c1[H])C([H])([H])C([H])([H])C([H])([H])C2([H])N([H])C(=O)C1([H])N(C(=O)C([H])(N([H])C(=O)C([H])(N([H])C([H])([H])[H])C([H])([H])[H])C(C([H])([H])[H])(C([H])([H])[H])C([H])([H])[H])C([H])([H])c2c([H])c(OC([H])([H])C34C([H])([H])C([H])([H])C([H])(C([H])([H])c5c([H])c(C([H])([H])N([H])C(=O)N6C([H])([H])C([H])([H])C([H])([H])C([H])(n7nc(-c8c([H])c([H])c(Oc9c([H])c([H])c(F)c([H])c9F)c([H])c8[H])c(C(=O)N([H])[H])c7N([H])[H])C6([H])[H])c([H])c([H])c5C3(C([H])([H])[H])C([H])([H])[H])C4([H])[H])c([H])c([H])c2C1([H])[H]

$$$$
28:0:0
     RDKit          3D

 91100  0  0  1  0  0  0  0  0999 V2000
  -31.2420  -21.4900   20.9120 C   0  0  0  0  0  2  0  0  0  0  0  0
  -30.1730  -19.2580   21.7330 C   0  0  0  0  0  2  0  0  0  0  0  0
  -29.0140  -19.8480   19.7110 C   0  0  0  0  0  2  0  0  0  0  0  0
  -30.6690  -22.7130   20.1710 C   0  0  0  0  0  2  0  0  0  0  0  0
  -30.0470  -20.8140   21.5970 C   0  0  0  0  0  3  0  0  0  0  0  0
  -29.3480  -18.5790   20.6120 C   0  0  0  0  0  3  0  0  0  0  0  0
  -28.9090  -21.1430   20.6310 C   0  0  0  0  0  3  0  0  0  0  0  0
  -29.1990  -22.5240   20.0200 N   0  0  1  0  0  4  0  0  0  0  0  0
  -28.9940  -22.4380   19.0350 H   0  0  0  0  0  0  0  0  0  0  0  0
  -30.0400  -17.2770   19.9440 C   0  0  0  0  0  2  0  0  0  0  0  0
  -30.5950  -14.7490   20.2710 C   0  0  0  0  0  0  0  0  0  0  0  0
  -30.3610  -12.4870   19.2540 C   0  0  0  0  0  2  0  0  0  0  0  0
  -29.4090  -12.6010   18.0420 C   0  0  0  0  0  2  0  0  0  0  0  0
  -27.9420  -12.4420   18.4890 C   0  0  0  0  0  2  0  0  0  0  0  0
  -27.5980  -13.3130   19.7290 C   0  0  0  0  0  3  0  0  0  0  0  0
  -28.6700  -13.1890   20.8340 C   0  0  0  0  0  2  0  0  0  0  0  0
  -29.9650  -13.5270   20.2310 N   0  0  0  0  0  0  0  0  0  0  0  0
  -31.7610  -14.8580   19.8810 O   0  0  0  0  0  0  0  0  0  0  0  0
  -29.8250  -15.8750   20.5050 N   0  0  0  0  0  0  0  0  0  0  0  0
  -28.8960  -15.6840   20.8520 H   0  0  0  0  0  0  0  0  0  0  0  0
  -25.2190  -13.9100   20.4810 C   0  0  0  0  0  0  0  0  0  0  0  0
  -24.1550  -13.1390   20.8650 C   0  0  0  0  0  0  0  0  0  0  0  0
  -24.6160  -11.7870   20.8310 C   0  0  0  0  0  0  0  0  0  0  0  0
  -26.2570  -13.0280   20.2330 N   0  0  0  0  0  0  0  0  0  0  0  0
  -25.9030  -11.7460   20.5070 N   0  0  0  0  0  0  0  0  0  0  0  0
  -23.8900  -10.5260   21.0320 C   0  0  0  0  0  0  0  0  0  0  0  0
  -24.3400   -9.5520   21.9490 C   0  0  0  0  0  3  0  0  0  0  0  0
  -23.6140   -8.3560   22.1380 C   0  0  0  0  0  3  0  0  0  0  0  0
  -22.4220   -8.1270   21.4090 C   0  0  0  0  0  0  0  0  0  0  0  0
  -21.9910   -9.0890   20.4810 C   0  0  0  0  0  3  0  0  0  0  0  0
  -22.7180  -10.2760   20.2890 C   0  0  0  0  0  3  0  0  0  0  0  0
  -21.6650   -6.9850   21.5090 O   0  0  0  0  0  0  0  0  0  0  0  0
  -21.6500   -6.2270   22.6540 C   0  0  0  0  0  0  0  0  0  0  0  0
  -21.2770   -6.7720   23.9020 C   0  0  0  0  0  3  0  0  0  0  0  0
  -21.2090   -5.9420   25.0400 C   0  0  0  0  0  3  0  0  0  0  0  0
  -21.5040   -4.5710   24.9300 C   0  0  0  0  0  0  0  0  0  0  0  0
  -21.8710   -4.0260   23.6860 C   0  0  0  0  0  3  0  0  0  0  0  0
  -21.9400   -4.8520   22.5510 C   0  0  0  0  0  0  0  0  0  0  0  0
  -22.2730   -4.3190   21.3510 F   0  0  0  0  0  0  0  0  0  0  0  0
  -21.4320   -3.7710   26.0200 F   0  0  0  0  0  0  0  0  0  0  0  0
  -22.7630  -13.6190   21.1520 C   0  0  0  0  0  0  0  0  0  0  0  0
  -22.0440  -12.9260   22.0280 N   0  0  0  0  0  0  0  0  0  0  0  0
  -22.3210  -14.6440   20.6340 O   0  0  0  0  0  0  0  0  0  0  0  0
  -22.4160  -12.0970   22.4690 H   0  0  0  0  0  0  0  0  0  0  0  0
  -21.1100  -13.2300   22.2630 H   0  0  0  0  0  0  0  0  0  0  0  0
  -25.3830  -15.2800   20.2970 N   0  0  0  0  0  0  0  0  0  0  0  0
  -24.6130  -15.9330   20.4070 H   0  0  0  0  0  0  0  0  0  0  0  0
  -26.2180  -15.7140   19.9260 H   0  0  0  0  0  0  0  0  0  0  0  0
  -28.4200  -23.7640   20.5230 C   0  0  0  0  0  2  0  0  0  0  0  0
  -28.5230  -25.1360   19.6670 C   0  0  0  0  0  2  0  0  0  0  0  0
  -28.3850  -26.4990   20.2730 O   0  0  0  0  0  0  0  0  0  0  0  0
  -24.6090  -31.8950   23.2410 C   0  0  0  0  0  0  0  0  0  0  0  0
  -27.2420  -27.3210   20.1890 C   0  0  0  0  0  0  0  0  0  0  0  0
  -23.4140  -30.4950   21.5950 C   0  0  0  0  0  3  0  0  0  0  0  0
  -24.8720  -28.9430   20.1700 C   0  0  0  0  0  0  0  0  0  0  0  0
  -25.9540  -30.8130   21.4210 C   0  0  0  0  0  2  0  0  0  0  0  0
  -26.0360  -29.4320   20.7730 C   0  0  0  0  0  0  0  0  0  0  0  0
  -27.2190  -28.6310   20.7730 C   0  0  0  0  0  3  0  0  0  0  0  0
  -26.0500  -26.8850   19.5690 C   0  0  0  0  0  3  0  0  0  0  0  0
  -24.8830  -27.6770   19.5610 C   0  0  0  0  0  3  0  0  0  0  0  0
  -23.6330  -29.8180   20.2160 C   0  0  0  0  0  2  0  0  0  0  0  0
  -24.6780  -31.0870   22.1420 N   0  0  0  0  0  0  0  0  0  0  0  0
  -23.5230  -32.1700   23.7720 O   0  0  0  0  0  0  0  0  0  0  0  0
  -22.7490  -29.4790   22.5530 C   0  0  0  0  0  0  0  0  0  0  0  0
  -21.4240  -29.2970   22.4210 N   0  0  0  0  0  0  0  0  0  0  0  0
  -23.4250  -28.8560   23.3770 O   0  0  0  0  0  0  0  0  0  0  0  0
  -20.9370  -29.8510   21.7290 H   0  0  0  0  0  0  0  0  0  0  0  0
  -18.0500  -28.0810   22.8940 C   0  0  0  0  0  0  0  0  0  0  0  0
  -20.6040  -28.3570   23.1870 C   0  0  0  0  0  3  0  0  0  0  0  0
  -20.7210  -26.9240   22.6170 C   0  0  0  0  0  2  0  0  0  0  0  0
  -19.6300  -26.5910   21.5930 C   0  0  0  0  0  2  0  0  0  0  0  0
  -18.2410  -26.7300   22.2250 C   0  0  0  0  0  2  0  0  0  0  0  0
  -19.1590  -28.8520   23.3320 C   0  0  0  0  0  0  0  0  0  0  0  0
  -18.9270  -30.1150   23.9180 C   0  0  0  0  0  3  0  0  0  0  0  0
  -17.6170  -30.6070   24.0690 C   0  0  0  0  0  3  0  0  0  0  0  0
  -16.5210  -29.8340   23.6480 C   0  0  0  0  0  3  0  0  0  0  0  0
  -16.7380  -28.5720   23.0650 C   0  0  0  0  0  3  0  0  0  0  0  0
  -25.8880  -32.5310   23.8690 C   0  0  0  0  0  3  0  0  0  0  0  0
  -26.3950  -31.7650   25.1520 C   0  0  1  0  0  0  0  0  0  0  0  0
  -25.2950  -31.5350   26.2160 C   0  0  0  0  0  1  0  0  0  0  0  0
  -26.9770  -30.3840   24.7720 C   0  0  0  0  0  1  0  0  0  0  0  0
  -27.5430  -32.5610   25.8180 C   0  0  0  0  0  1  0  0  0  0  0  0
  -25.5760  -33.9310   24.1940 N   0  0  0  0  0  0  0  0  0  0  0  0
  -25.9100  -34.9820   23.4350 C   0  0  0  0  0  0  0  0  0  0  0  0
  -26.5840  -34.8760   22.4060 O   0  0  0  0  0  0  0  0  0  0  0  0
  -24.9780  -34.0860   24.9930 H   0  0  0  0  0  0  0  0  0  0  0  0
  -24.1830  -36.7740   23.0740 C   0  0  0  0  0  1  0  0  0  0  0  0
  -25.4240  -36.3720   23.8890 C   0  0  0  0  0  3  0  0  0  0  0  0
  -27.5580  -37.2600   24.7180 C   0  0  0  0  0  1  0  0  0  0  0  0
  -26.4560  -37.4250   23.7730 N   0  0  0  0  0  0  0  0  0  0  0  0
  -26.0500  -38.3460   23.9170 H   0  0  0  0  0  0  0  0  0  0  0  0
  3  6  1  0
  4  1  1  0
  5  1  1  0
  5  2  1  0
  6 10  1  0
  6  2  1  0
  7  3  1  0
  7  5  1  0
  8  4  1  0
  8 49  1  0
  8  7  1  0
  8  9  1  6
 10 19  1  0
 11 19  1  0
 12 17  1  0
 13 14  1  0
 13 12  1  0
 15 14  1  0
 15 24  1  0
 15 16  1  0
 17 11  1  0
 17 16  1  0
 18 11  2  0
 19 20  1  0
 21 22  2  0
 22 41  1  0
 23 22  1  0
 23 26  1  0
 24 21  1  0
 24 25  1  0
 25 23  2  0
 26 27  1  0
 27 28  2  0
 29 32  1  0
 29 28  1  0
 30 29  2  0
 31 30  1  0
 31 26  2  0
 32 33  1  0
 33 34  1  0
 34 35  2  0
 36 35  1  0
 36 40  1  0
 37 36  2  0
 38 33  2  0
 38 37  1  0
 39 38  1  0
 41 42  1  0
 42 45  1  0
 42 44  1  0
 43 41  2  0
 46 47  1  0
 46 21  1  0
 48 46  1  0
 50 51  1  0
 50 49  1  0
 52 63  2  0
 53 51  1  0
 53 58  1  0
 54 62  1  0
 54 64  1  0
 55 61  1  0
 55 57  1  0
 56 62  1  0
 57 58  2  0
 57 56  1  0
 59 53  2  0
 60 59  1  0
 60 55  2  0
 61 54  1  0
 62 52  1  0
 64 66  2  0
 65 64  1  0
 67 65  1  0
 68 77  2  0
 68 73  1  0
 69 65  1  0
 69 73  1  0
 70 69  1  0
 71 72  1  0
 71 70  1  0
 72 68  1  0
 73 74  2  0
 74 75  1  0
 76 75  2  0
 77 76  1  0
 78 52  1  0
 78 83  1  0
 78 79  1  0
 79 82  1  1
 79 80  1  0
 81 79  1  0
 83 86  1  0
 84 88  1  0
 84 83  1  0
 85 84  2  0
 88 87  1  0
 90 88  1  0
 90 91  1  0
 90 89  1  0
M  ISO  4  11 100  19 100  50 101  51 101
M  END
>  <TORSDO>  (29) 
F 19

>  <SCORE>  (29) 
-14.080

>  <name>  (29) 
28

>  <ligand_id>  (29) 
28

>  <original_smiles>  (29) 
[H]c1c([H])c([H])c2c(c1[H])C([H])([H])C([H])([H])C([H])([H])C2([H])N([H])C(=O)C1([H])N(C(=O)C([H])(N([H])C(=O)C([H])(N([H])C([H])([H])[H])C([H])([H])[H])C(C([H])([H])[H])(C([H])([H])[H])C([H])([H])[H])C([H])([H])c2c([H])c(OC([H])([H])C([H])([H])[N+]3([H])C([H])([H])C([H])([H])C4([H])C([H])([H])C([H])(C([H])([H])N([H])C(=O)N5C([H])([H])C([H])([H])C([H])([H])C([H])(n6nc(-c7c([H])c([H])c(Oc8c([H])c([H])c(F)c([H])c8F)c([H])c7[H])c(C(=O)N([H])[H])c6N([H])[H])C5([H])[H])C([H])([H])C43[H])c([H])c([H])c2C1([H])[H]

>  <smiles>  (29) 
[H]c1c([H])c([H])c2c(c1[H])C([H])([H])C([H])([H])C([H])([H])C2([H])N([H])C(=O)C1([H])N(C(=O)C([H])(N([H])C(=O)C([H])(N([H])C([H])([H])[H])C([H])([H])[H])C(C([H])([H])[H])(C([H])([H])[H])C([H])([H])[H])C([H])([H])c2c([H])c(OC([H])([H])C([H])([H])[N+]3([H])C([H])([H])C([H])([H])C4([H])C([H])([H])C([H])(C([H])([H])N([H])C(=O)N5C([H])([H])C([H])([H])C([H])([H])C([H])(n6nc(-c7c([H])c([H])c(Oc8c([H])c([H])c(F)c([H])c8F)c([H])c7[H])c(C(=O)N([H])[H])c6N([H])[H])C5([H])[H])C([H])([H])C43[H])c([H])c([H])c2C1([H])[H]

$$$$
29:0:0
     RDKit          3D

 88 97  0  0  1  0  0  0  0  0999 V2000
  -28.2010  -22.3200   21.8430 C   0  0  0  0  0  2  0  0  0  0  0  0
  -29.8090  -21.7490   19.7800 C   0  0  0  0  0  2  0  0  0  0  0  0
  -28.1720  -21.1850   20.8360 C   0  0  0  0  0  3  0  0  0  0  0  0
  -28.7010  -22.6980   20.4750 C   0  0  1  0  0  0  0  0  0  0  0  0
  -29.4800  -20.2740   20.4870 C   0  0  2  0  0  0  0  0  0  0  0  0
  -30.2960  -20.0610   21.7640 C   0  0  0  0  0  1  0  0  0  0  0  0
  -28.0470  -24.2820   19.9300 C   0  0  0  0  0  2  0  0  0  0  0  0
  -28.2200  -25.8960   20.2690 O   0  0  0  0  0  0  0  0  0  0  0  0
  -24.6690  -31.8840   23.1990 C   0  0  0  0  0  0  0  0  0  0  0  0
  -27.2160  -27.0010   20.1720 C   0  0  0  0  0  0  0  0  0  0  0  0
  -23.4710  -30.4890   21.5620 C   0  0  0  0  0  3  0  0  0  0  0  0
  -24.9170  -28.8880   20.1280 C   0  0  0  0  0  0  0  0  0  0  0  0
  -26.0360  -30.7000   21.4100 C   0  0  0  0  0  2  0  0  0  0  0  0
  -26.1040  -29.2900   20.7490 C   0  0  0  0  0  0  0  0  0  0  0  0
  -27.2460  -28.3660   20.7490 C   0  0  0  0  0  3  0  0  0  0  0  0
  -26.0020  -26.7580   19.4880 C   0  0  0  0  0  3  0  0  0  0  0  0
  -24.8910  -27.6430   19.4750 C   0  0  0  0  0  3  0  0  0  0  0  0
  -23.6950  -29.8080   20.1830 C   0  0  0  0  0  2  0  0  0  0  0  0
  -24.7470  -31.0510   22.1100 N   0  0  0  0  0  0  0  0  0  0  0  0
  -23.5800  -32.1740   23.7220 O   0  0  0  0  0  0  0  0  0  0  0  0
  -22.7800  -29.4920   22.5290 C   0  0  0  0  0  0  0  0  0  0  0  0
  -21.4500  -29.3250   22.4060 N   0  0  0  0  0  0  0  0  0  0  0  0
  -23.4480  -28.8680   23.3580 O   0  0  0  0  0  0  0  0  0  0  0  0
  -20.9640  -29.8770   21.7140 H   0  0  0  0  0  0  0  0  0  0  0  0
  -18.0680  -28.1150   22.9270 C   0  0  0  0  0  0  0  0  0  0  0  0
  -20.6290  -28.3850   23.1780 C   0  0  0  0  0  3  0  0  0  0  0  0
  -20.7300  -26.9550   22.6000 C   0  0  0  0  0  2  0  0  0  0  0  0
  -19.6230  -26.6330   21.5900 C   0  0  0  0  0  2  0  0  0  0  0  0
  -18.2440  -26.7700   22.2420 C   0  0  0  0  0  2  0  0  0  0  0  0
  -19.1880  -28.8800   23.3530 C   0  0  0  0  0  0  0  0  0  0  0  0
  -18.9660  -30.1360   23.9570 C   0  0  0  0  0  3  0  0  0  0  0  0
  -17.6590  -30.6290   24.1380 C   0  0  0  0  0  3  0  0  0  0  0  0
  -16.5560  -29.8610   23.7260 C   0  0  0  0  0  3  0  0  0  0  0  0
  -16.7600  -28.6060   23.1280 C   0  0  0  0  0  3  0  0  0  0  0  0
  -25.9410  -32.5270   23.8300 C   0  0  0  0  0  3  0  0  0  0  0  0
  -26.4470  -31.7630   25.1160 C   0  0  1  0  0  0  0  0  0  0  0  0
  -25.3450  -31.5280   26.1780 C   0  0  0  0  0  1  0  0  0  0  0  0
  -27.0340  -30.3820   24.7450 C   0  0  0  0  0  1  0  0  0  0  0  0
  -27.5920  -32.5610   25.7820 C   0  0  0  0  0  1  0  0  0  0  0  0
  -25.6230  -33.9270   24.1670 N   0  0  0  0  0  0  0  0  0  0  0  0
  -25.9660  -34.9910   23.4290 C   0  0  0  0  0  0  0  0  0  0  0  0
  -26.6450  -34.8970   22.4020 O   0  0  0  0  0  0  0  0  0  0  0  0
  -25.0180  -34.0720   24.9610 H   0  0  0  0  0  0  0  0  0  0  0  0
  -24.2600  -36.8090   23.0730 C   0  0  0  0  0  1  0  0  0  0  0  0
  -25.4820  -36.3770   23.9000 C   0  0  0  0  0  3  0  0  0  0  0  0
  -27.6030  -37.2380   24.7930 C   0  0  0  0  0  1  0  0  0  0  0  0
  -26.5260  -37.4240   23.8240 N   0  0  0  0  0  0  0  0  0  0  0  0
  -26.1240  -38.3470   23.9690 H   0  0  0  0  0  0  0  0  0  0  0  0
  -29.4950  -18.5740   19.8260 C   0  0  0  0  0  3  0  0  0  0  0  0
  -29.2870  -19.0320   17.2990 C   0  0  0  0  0  1  0  0  0  0  0  0
  -30.2000  -18.5860   18.4550 C   0  0  0  0  0  2  0  0  0  0  0  0
  -29.8170  -16.9560   20.5990 C   0  0  0  0  0  2  0  0  0  0  0  0
  -30.5200  -15.3960   20.1400 C   0  0  0  0  0  0  0  0  0  0  0  0
  -30.5170  -12.9300   19.2880 C   0  0  0  0  0  2  0  0  0  0  0  0
  -29.5840  -12.7320   18.0660 C   0  0  0  0  0  2  0  0  0  0  0  0
  -28.1430  -12.4490   18.5220 C   0  0  0  0  0  2  0  0  0  0  0  0
  -27.7030  -13.4050   19.6590 C   0  0  0  0  0  3  0  0  0  0  0  0
  -28.7640  -13.5580   20.7710 C   0  0  0  0  0  2  0  0  0  0  0  0
  -29.9910  -14.0680   20.1370 N   0  0  0  0  0  0  0  0  0  0  0  0
  -31.7030  -15.3940   19.7650 O   0  0  0  0  0  0  0  0  0  0  0  0
  -25.3430  -13.9390   20.4640 C   0  0  0  0  0  0  0  0  0  0  0  0
  -24.2940  -13.1520   20.8490 C   0  0  0  0  0  0  0  0  0  0  0  0
  -24.7680  -11.8040   20.7950 C   0  0  0  0  0  0  0  0  0  0  0  0
  -26.3870  -13.0720   20.1900 N   0  0  0  0  0  0  0  0  0  0  0  0
  -26.0540  -11.7820   20.4580 N   0  0  0  0  0  0  0  0  0  0  0  0
  -24.0500  -10.5370   20.9870 C   0  0  0  0  0  0  0  0  0  0  0  0
  -24.4850   -9.5730   21.9240 C   0  0  0  0  0  3  0  0  0  0  0  0
  -23.7630   -8.3740   22.1060 C   0  0  0  0  0  3  0  0  0  0  0  0
  -22.5910   -8.1270   21.3510 C   0  0  0  0  0  0  0  0  0  0  0  0
  -22.1740   -9.0800   20.4040 C   0  0  0  0  0  3  0  0  0  0  0  0
  -22.8960  -10.2700   20.2200 C   0  0  0  0  0  3  0  0  0  0  0  0
  -21.8410   -6.9790   21.4420 O   0  0  0  0  0  0  0  0  0  0  0  0
  -21.7700   -6.2550   22.6040 C   0  0  0  0  0  0  0  0  0  0  0  0
  -21.2890   -6.8180   23.8060 C   0  0  0  0  0  3  0  0  0  0  0  0
  -21.1670   -6.0190   24.9600 C   0  0  0  0  0  3  0  0  0  0  0  0
  -21.5180   -4.6570   24.9140 C   0  0  0  0  0  0  0  0  0  0  0  0
  -21.9940   -4.0920   23.7170 C   0  0  0  0  0  3  0  0  0  0  0  0
  -22.1160   -4.8890   22.5650 C   0  0  0  0  0  0  0  0  0  0  0  0
  -22.5540   -4.3350   21.4080 F   0  0  0  0  0  0  0  0  0  0  0  0
  -21.3970   -3.8870   26.0190 F   0  0  0  0  0  0  0  0  0  0  0  0
  -22.9010  -13.6180   21.1490 C   0  0  0  0  0  0  0  0  0  0  0  0
  -22.1880  -12.9110   22.0200 N   0  0  0  0  0  0  0  0  0  0  0  0
  -22.4500  -14.6480   20.6470 O   0  0  0  0  0  0  0  0  0  0  0  0
  -22.5630  -12.0800   22.4520 H   0  0  0  0  0  0  0  0  0  0  0  0
  -21.2530  -13.2100   22.2590 H   0  0  0  0  0  0  0  0  0  0  0  0
  -25.4960  -15.3120   20.2970 N   0  0  0  0  0  0  0  0  0  0  0  0
  -24.7340  -15.9650   20.4450 H   0  0  0  0  0  0  0  0  0  0  0  0
  -26.3430  -15.7600   19.9730 H   0  0  0  0  0  0  0  0  0  0  0  0
  2  4  1  0
  2  5  1  0
  3  1  1  0
  4  7  1  6
  4  3  1  0
  4  1  1  0
  5  3  1  0
  5  6  1  1
  7  8  1  0
  9 20  2  0
 10  8  1  0
 10 15  1  0
 11 19  1  0
 11 21  1  0
 12 18  1  0
 12 14  1  0
 13 19  1  0
 14 13  1  0
 15 14  2  0
 16 10  2  0
 17 16  1  0
 17 12  2  0
 18 11  1  0
 19  9  1  0
 21 23  2  0
 22 21  1  0
 24 22  1  0
 25 34  2  0
 25 30  1  0
 26 22  1  0
 26 30  1  0
 27 26  1  0
 28 29  1  0
 28 27  1  0
 29 25  1  0
 30 31  2  0
 31 32  1  0
 33 32  2  0
 34 33  1  0
 35  9  1  0
 35 40  1  0
 35 36  1  0
 36 39  1  1
 36 37  1  0
 38 36  1  0
 40 43  1  0
 41 45  1  0
 41 40  1  0
 42 41  2  0
 45 44  1  0
 47 45  1  0
 47 48  1  0
 47 46  1  0
 49 51  1  0
 49  5  1  0
 49 52  1  0
 50 51  1  0
 53 52  1  0
 54 59  1  0
 55 56  1  0
 55 54  1  0
 57 56  1  0
 57 64  1  0
 57 58  1  0
 59 53  1  0
 59 58  1  0
 60 53  2  0
 61 62  2  0
 62 81  1  0
 63 62  1  0
 63 66  1  0
 64 65  1  0
 64 61  1  0
 65 63  2  0
 66 67  1  0
 67 68  2  0
 69 72  1  0
 69 68  1  0
 70 69  2  0
 71 70  1  0
 71 66  2  0
 72 73  1  0
 73 74  1  0
 74 75  2  0
 76 75  1  0
 76 80  1  0
 77 76  2  0
 78 73  2  0
 78 77  1  0
 79 78  1  0
 81 82  1  0
 82 85  1  0
 82 84  1  0
 83 81  2  0
 86 87  1  0
 86 61  1  0
 88 86  1  0
M  ISO  4   7 101   8 101  52 100  53 100
M  END
>  <TORSDO>  (30) 
F 20

>  <SCORE>  (30) 
-16.507

>  <name>  (30) 
29

>  <ligand_id>  (30) 
29

>  <original_smiles>  (30) 
[H]c1c([H])c([H])c2c(c1[H])C([H])([H])C([H])([H])C([H])([H])C2([H])N([H])C(=O)C1([H])N(C(=O)C([H])(N([H])C(=O)C([H])(N([H])C([H])([H])[H])C([H])([H])[H])C(C([H])([H])[H])(C([H])([H])[H])C([H])([H])[H])C([H])([H])c2c([H])c(OC([H])([H])C34C([H])([H])C3([H])C(C([H])([H])[H])(C([H])(C([H])([H])C(=O)N3C([H])([H])C([H])([H])C([H])([H])C([H])(n5nc(-c6c([H])c([H])c(Oc7c([H])c([H])c(F)c([H])c7F)c([H])c6[H])c(C(=O)N([H])[H])c5N([H])[H])C3([H])[H])C([H])([H])C([H])([H])[H])C4([H])[H])c([H])c([H])c2C1([H])[H]

>  <smiles>  (30) 
[H]c1c([H])c([H])c2c(c1[H])C([H])([H])C([H])([H])C([H])([H])C2([H])N([H])C(=O)C1([H])N(C(=O)C([H])(N([H])C(=O)C([H])(N([H])C([H])([H])[H])C([H])([H])[H])C(C([H])([H])[H])(C([H])([H])[H])C([H])([H])[H])C([H])([H])c2c([H])c(OC([H])([H])C34C([H])([H])C3([H])C(C([H])([H])[H])(C([H])(C([H])([H])C(=O)N3C([H])([H])C([H])([H])C([H])([H])C([H])(n5nc(-c6c([H])c([H])c(Oc7c([H])c([H])c(F)c([H])c7F)c([H])c6[H])c(C(=O)N([H])[H])c5N([H])[H])C3([H])[H])C([H])([H])C([H])([H])[H])C4([H])[H])c([H])c([H])c2C1([H])[H]

$$$$
30:0:0
     RDKit          3D

 93102  0  0  1  0  0  0  0  0999 V2000
  -27.2600  -20.8060   19.9010 C   0  0  0  0  0  2  0  0  0  0  0  0
  -27.9570  -19.5850   20.5450 C   0  0  0  0  0  2  0  0  0  0  0  0
  -29.7890  -21.1640   21.3390 C   0  0  0  0  0  2  0  0  0  0  0  0
  -29.5150  -20.7200   19.1030 C   0  0  0  0  0  3  0  0  0  0  0  0
  -28.4310  -21.7370   19.5380 C   0  0  0  0  0  3  0  0  0  0  0  0
  -29.4690  -19.8900   20.4120 C   0  0  2  0  0  0  0  0  0  0  0  0
  -28.9160  -22.3080   20.8180 N   0  0  2  0  0  4  0  0  0  0  0  0
  -28.1030  -22.2970   21.4170 H   0  0  0  0  0  0  0  0  0  0  0  0
  -29.4170  -20.8920   16.5380 C   0  0  0  0  0  1  0  0  0  0  0  0
  -29.2560  -19.9810   17.7640 C   0  0  0  0  0  2  0  0  0  0  0  0
  -30.3510  -18.5140   20.3640 C   0  0  0  0  0  2  0  0  0  0  0  0
  -30.3210  -17.3380   21.4630 C   0  0  0  0  0  2  0  0  0  0  0  0
  -30.8140  -14.8030   20.7470 C   0  0  0  0  0  0  0  0  0  0  0  0
  -30.6120  -12.6180   19.5470 C   0  0  0  0  0  2  0  0  0  0  0  0
  -29.6960  -12.7980   18.3160 C   0  0  0  0  0  2  0  0  0  0  0  0
  -28.2140  -12.6210   18.7020 C   0  0  0  0  0  2  0  0  0  0  0  0
  -27.8280  -13.4190   19.9760 C   0  0  0  0  0  3  0  0  0  0  0  0
  -28.8640  -13.2180   21.1050 C   0  0  0  0  0  2  0  0  0  0  0  0
  -30.1780  -13.5980   20.5650 N   0  0  0  0  0  0  0  0  0  0  0  0
  -32.0110  -14.9310   20.4740 O   0  0  0  0  0  0  0  0  0  0  0  0
  -30.0240  -15.8940   21.0580 N   0  0  0  0  0  0  0  0  0  0  0  0
  -29.0530  -15.6410   21.1630 H   0  0  0  0  0  0  0  0  0  0  0  0
  -25.4160  -13.9940   20.6390 C   0  0  0  0  0  0  0  0  0  0  0  0
  -24.3390  -13.2110   20.9550 C   0  0  0  0  0  0  0  0  0  0  0  0
  -24.8040  -11.8620   20.9040 C   0  0  0  0  0  0  0  0  0  0  0  0
  -26.4690  -13.1190   20.4160 N   0  0  0  0  0  0  0  0  0  0  0  0
  -26.1040  -11.8300   20.6370 N   0  0  0  0  0  0  0  0  0  0  0  0
  -24.0720  -10.5940   21.0360 C   0  0  0  0  0  0  0  0  0  0  0  0
  -24.4660   -9.6070   21.9660 C   0  0  0  0  0  3  0  0  0  0  0  0
  -23.7330   -8.4060   22.0880 C   0  0  0  0  0  3  0  0  0  0  0  0
  -22.5940   -8.1840   21.2780 C   0  0  0  0  0  0  0  0  0  0  0  0
  -22.2200   -9.1610   20.3380 C   0  0  0  0  0  3  0  0  0  0  0  0
  -22.9530  -10.3540   20.2140 C   0  0  0  0  0  3  0  0  0  0  0  0
  -21.8360   -7.0390   21.3100 O   0  0  0  0  0  0  0  0  0  0  0  0
  -21.7230   -6.2820   22.4480 C   0  0  0  0  0  0  0  0  0  0  0  0
  -21.1400   -6.7920   23.6280 C   0  0  0  0  0  3  0  0  0  0  0  0
  -20.9810   -5.9570   24.7520 C   0  0  0  0  0  3  0  0  0  0  0  0
  -21.3950   -4.6130   24.6970 C   0  0  0  0  0  0  0  0  0  0  0  0
  -21.9720   -4.1020   23.5200 C   0  0  0  0  0  3  0  0  0  0  0  0
  -22.1320   -4.9340   22.3980 C   0  0  0  0  0  0  0  0  0  0  0  0
  -22.6670   -4.4300   21.2600 F   0  0  0  0  0  0  0  0  0  0  0  0
  -21.2370   -3.8090   25.7740 F   0  0  0  0  0  0  0  0  0  0  0  0
  -22.9340  -13.6820   21.1930 C   0  0  0  0  0  0  0  0  0  0  0  0
  -22.1760  -12.9650   22.0170 N   0  0  0  0  0  0  0  0  0  0  0  0
  -22.5120  -14.7180   20.6830 O   0  0  0  0  0  0  0  0  0  0  0  0
  -22.5270  -12.1230   22.4490 H   0  0  0  0  0  0  0  0  0  0  0  0
  -21.2320  -13.2620   22.2180 H   0  0  0  0  0  0  0  0  0  0  0  0
  -25.5840  -15.3690   20.4990 N   0  0  0  0  0  0  0  0  0  0  0  0
  -24.8110  -16.0180   20.5970 H   0  0  0  0  0  0  0  0  0  0  0  0
  -26.4320  -15.8140   20.1750 H   0  0  0  0  0  0  0  0  0  0  0  0
  -29.3850  -23.7820   20.8270 C   0  0  0  0  0  3  0  0  0  0  0  0
  -28.2910  -24.9290   20.4910 C   0  0  0  0  0  3  0  0  0  0  0  0
  -28.5360  -26.4100   20.6300 O   0  0  0  0  0  0  0  0  0  0  0  0
  -24.6610  -31.9230   23.3590 C   0  0  0  0  0  0  0  0  0  0  0  0
  -27.4290  -27.2880   20.5120 C   0  0  0  0  0  0  0  0  0  0  0  0
  -23.5380  -30.4810   21.7030 C   0  0  0  0  0  3  0  0  0  0  0  0
  -25.0590  -28.9130   20.3710 C   0  0  0  0  0  0  0  0  0  0  0  0
  -26.0850  -30.8070   21.6210 C   0  0  0  0  0  2  0  0  0  0  0  0
  -26.2030  -29.4140   21.0030 C   0  0  0  0  0  0  0  0  0  0  0  0
  -27.3920  -28.6160   21.0610 C   0  0  0  0  0  3  0  0  0  0  0  0
  -26.2540  -26.8580   19.8470 C   0  0  0  0  0  3  0  0  0  0  0  0
  -25.0890  -27.6430   19.7830 C   0  0  0  0  0  3  0  0  0  0  0  0
  -23.8160  -29.7810   20.3480 C   0  0  0  0  0  2  0  0  0  0  0  0
  -24.7790  -31.0890   22.2840 N   0  0  0  0  0  0  0  0  0  0  0  0
  -23.5540  -32.2020   23.8420 O   0  0  0  0  0  0  0  0  0  0  0  0
  -22.8430  -29.4780   22.6560 C   0  0  0  0  0  0  0  0  0  0  0  0
  -21.5240  -29.2920   22.4810 N   0  0  0  0  0  0  0  0  0  0  0  0
  -23.4920  -28.8720   23.5120 O   0  0  0  0  0  0  0  0  0  0  0  0
  -21.0600  -29.8300   21.7630 H   0  0  0  0  0  0  0  0  0  0  0  0
  -18.1220  -28.1420   22.9330 C   0  0  0  0  0  0  0  0  0  0  0  0
  -20.6810  -28.3650   23.2390 C   0  0  0  0  0  3  0  0  0  0  0  0
  -20.7690  -26.9330   22.6620 C   0  0  0  0  0  2  0  0  0  0  0  0
  -19.6770  -26.6270   21.6330 C   0  0  0  0  0  2  0  0  0  0  0  0
  -18.2890  -26.7910   22.2580 C   0  0  0  0  0  2  0  0  0  0  0  0
  -19.2450  -28.8870   23.3800 C   0  0  0  0  0  0  0  0  0  0  0  0
  -19.0370  -30.1530   23.9720 C   0  0  0  0  0  3  0  0  0  0  0  0
  -17.7360  -30.6710   24.1220 C   0  0  0  0  0  3  0  0  0  0  0  0
  -16.6270  -29.9220   23.6930 C   0  0  0  0  0  3  0  0  0  0  0  0
  -16.8210  -28.6600   23.1020 C   0  0  0  0  0  3  0  0  0  0  0  0
  -25.9120  -32.5810   24.0200 C   0  0  0  0  0  3  0  0  0  0  0  0
  -25.5880  -33.9920   24.2760 N   0  0  0  0  0  0  0  0  0  0  0  0
  -25.9540  -35.0140   23.4900 C   0  0  0  0  0  0  0  0  0  0  0  0
  -26.6670  -34.8680   22.4940 O   0  0  0  0  0  0  0  0  0  0  0  0
  -24.9570  -34.1790   25.0420 H   0  0  0  0  0  0  0  0  0  0  0  0
  -24.2610  -36.8010   22.9670 C   0  0  0  0  0  1  0  0  0  0  0  0
  -25.4470  -36.4190   23.8670 C   0  0  0  0  0  3  0  0  0  0  0  0
  -27.5180  -37.3390   24.8140 C   0  0  0  0  0  1  0  0  0  0  0  0
  -26.4910  -37.4640   23.7820 N   0  0  0  0  0  0  0  0  0  0  0  0
  -26.0800  -38.3910   23.8540 H   0  0  0  0  0  0  0  0  0  0  0  0
  -26.3580  -31.8650   25.3530 C   0  0  1  0  0  0  0  0  0  0  0  0
  -25.2030  -31.6420   26.3560 C   0  0  0  0  0  1  0  0  0  0  0  0
  -26.9920  -30.4860   25.0520 C   0  0  0  0  0  1  0  0  0  0  0  0
  -27.4490  -32.7040   26.0590 C   0  0  0  0  0  1  0  0  0  0  0  0
  1  2  1  0
  4 10  1  0
  4  5  1  0
  4  6  1  0
  5  1  1  0
  5  7  1  0
  6 11  1  6
  6  2  1  0
  6  3  1  0
  7 51  1  0
  7  3  1  0
  7  8  1  1
  9 10  1  0
 11 12  1  0
 13 21  1  0
 14 19  1  0
 15 16  1  0
 15 14  1  0
 17 16  1  0
 17 26  1  0
 17 18  1  0
 19 13  1  0
 19 18  1  0
 20 13  2  0
 21 22  1  0
 21 12  1  0
 23 24  2  0
 24 43  1  0
 25 24  1  0
 25 28  1  0
 26 27  1  0
 26 23  1  0
 27 25  2  0
 28 29  1  0
 29 30  2  0
 31 34  1  0
 31 30  1  0
 32 31  2  0
 33 32  1  0
 33 28  2  0
 34 35  1  0
 35 36  1  0
 36 37  2  0
 38 37  1  0
 38 42  1  0
 39 38  2  0
 40 35  2  0
 40 39  1  0
 41 40  1  0
 43 44  1  0
 44 47  1  0
 44 46  1  0
 45 43  2  0
 48 49  1  0
 48 23  1  0
 50 48  1  0
 52 53  1  0
 52 51  2  0
 54 65  2  0
 55 53  1  0
 55 60  1  0
 56 64  1  0
 56 66  1  0
 57 59  1  0
 58 64  1  0
 59 60  2  0
 59 58  1  0
 61 55  2  0
 62 61  1  0
 62 57  2  0
 63 57  1  0
 63 56  1  0
 64 54  1  0
 66 68  2  0
 67 66  1  0
 69 67  1  0
 70 79  2  0
 70 75  1  0
 71 67  1  0
 71 75  1  0
 72 71  1  0
 73 74  1  0
 73 72  1  0
 74 70  1  0
 75 76  2  0
 76 77  1  0
 78 77  2  0
 79 78  1  0
 80 54  1  0
 80 81  1  0
 80 90  1  0
 81 84  1  0
 82 86  1  0
 82 81  1  0
 83 82  2  0
 86 85  1  0
 88 89  1  0
 88 86  1  0
 88 87  1  0
 90 93  1  1
 90 91  1  0
 92 90  1  0
M  ISO  4  13 100  21 100  52 101  53 101
M  END
>  <TORSDO>  (31) 
F 21

>  <SCORE>  (31) 
-13.115

>  <name>  (31) 
30

>  <ligand_id>  (31) 
30

>  <original_smiles>  (31) 
[H]c1c([H])c([H])c2c(c1[H])C([H])([H])C([H])([H])C([H])([H])C2([H])N([H])C(=O)C1([H])N(C(=O)C([H])(N([H])C(=O)C([H])(N([H])C([H])([H])[H])C([H])([H])[H])C(C([H])([H])[H])(C([H])([H])[H])C([H])([H])[H])C([H])([H])c2c([H])c(OC([H])([H])C([H])([H])[N+]3([H])C([H])([H])C4(C([H])([H])C([H])([H])N([H])C(=O)N5C([H])([H])C([H])([H])C([H])([H])C([H])(n6nc(-c7c([H])c([H])c(Oc8c([H])c([H])c(F)c([H])c8F)c([H])c7[H])c(C(=O)N([H])[H])c6N([H])[H])C5([H])[H])C([H])([H])C([H])([H])C3([H])C4([H])C([H])([H])C([H])([H])[H])c([H])c([H])c2C1([H])[H]

>  <smiles>  (31) 
[H]c1c([H])c([H])c2c(c1[H])C([H])([H])C([H])([H])C([H])([H])C2([H])N([H])C(=O)C1([H])N(C(=O)C([H])(N([H])C(=O)C([H])(N([H])C([H])([H])[H])C([H])([H])[H])C(C([H])([H])[H])(C([H])([H])[H])C([H])([H])[H])C([H])([H])c2c([H])c(OC([H])([H])C([H])([H])[N+]3([H])C([H])([H])C4(C([H])([H])C([H])([H])N([H])C(=O)N5C([H])([H])C([H])([H])C([H])([H])C([H])(n6nc(-c7c([H])c([H])c(Oc8c([H])c([H])c(F)c([H])c8F)c([H])c7[H])c(C(=O)N([H])[H])c6N([H])[H])C5([H])[H])C([H])([H])C([H])([H])C3([H])C4([H])C([H])([H])C([H])([H])[H])c([H])c([H])c2C1([H])[H]

$$$$
31:0:0
     RDKit          3D

 92101  0  0  1  0  0  0  0  0999 V2000
  -29.3280  -19.2150   19.3390 C   0  0  0  0  0  3  0  0  0  0  0  0
  -29.3100  -20.5700   19.6230 C   0  0  0  0  0  0  0  0  0  0  0  0
  -28.6160  -21.8950   19.0930 C   0  0  0  0  0  2  0  0  0  0  0  0
  -29.3420  -22.2760   21.3090 C   0  0  0  0  0  2  0  0  0  0  0  0
  -30.1670  -18.2920   20.3240 C   0  0  0  0  0  3  0  0  0  0  0  0
  -30.0590  -20.8960   20.8380 C   0  0  0  0  0  3  0  0  0  0  0  0
  -28.9980  -23.1840   20.0120 C   0  0  0  0  0  3  0  0  0  0  0  0
  -30.1440  -19.4130   21.5130 C   0  0  0  0  0  3  0  0  0  0  0  0
  -29.8080  -16.6190   20.5990 C   0  0  0  0  0  2  0  0  0  0  0  0
  -30.6990  -15.1970   20.3370 C   0  0  0  0  0  0  0  0  0  0  0  0
  -30.6460  -12.8260   19.3690 C   0  0  0  0  0  2  0  0  0  0  0  0
  -29.7030  -12.7800   18.1400 C   0  0  0  0  0  2  0  0  0  0  0  0
  -28.2440  -12.5370   18.5730 C   0  0  0  0  0  2  0  0  0  0  0  0
  -27.8320  -13.4400   19.7630 C   0  0  0  0  0  3  0  0  0  0  0  0
  -28.8930  -13.4510   20.8810 C   0  0  0  0  0  2  0  0  0  0  0  0
  -30.1610  -13.9010   20.2890 N   0  0  0  0  0  0  0  0  0  0  0  0
  -31.8950  -15.2780   20.0310 O   0  0  0  0  0  0  0  0  0  0  0  0
  -25.4540  -13.9900   20.5300 C   0  0  0  0  0  0  0  0  0  0  0  0
  -24.3960  -13.2040   20.8940 C   0  0  0  0  0  0  0  0  0  0  0  0
  -24.8690  -11.8550   20.8420 C   0  0  0  0  0  0  0  0  0  0  0  0
  -26.5010  -13.1230   20.2680 N   0  0  0  0  0  0  0  0  0  0  0  0
  -26.1590  -11.8320   20.5240 N   0  0  0  0  0  0  0  0  0  0  0  0
  -24.1490  -10.5870   21.0190 C   0  0  0  0  0  0  0  0  0  0  0  0
  -24.5720   -9.6210   21.9580 C   0  0  0  0  0  3  0  0  0  0  0  0
  -23.8490   -8.4210   22.1250 C   0  0  0  0  0  3  0  0  0  0  0  0
  -22.6910   -8.1760   21.3510 C   0  0  0  0  0  0  0  0  0  0  0  0
  -22.2870   -9.1310   20.4010 C   0  0  0  0  0  3  0  0  0  0  0  0
  -23.0100  -10.3240   20.2330 C   0  0  0  0  0  3  0  0  0  0  0  0
  -21.9410   -7.0260   21.4250 O   0  0  0  0  0  0  0  0  0  0  0  0
  -21.8380   -6.3080   22.5900 C   0  0  0  0  0  0  0  0  0  0  0  0
  -21.3280   -6.8790   23.7750 C   0  0  0  0  0  3  0  0  0  0  0  0
  -21.1740   -6.0850   24.9300 C   0  0  0  0  0  3  0  0  0  0  0  0
  -21.5230   -4.7210   24.8990 C   0  0  0  0  0  0  0  0  0  0  0  0
  -22.0270   -4.1510   23.7170 C   0  0  0  0  0  3  0  0  0  0  0  0
  -22.1820   -4.9410   22.5660 C   0  0  0  0  0  0  0  0  0  0  0  0
  -22.6470   -4.3810   21.4240 F   0  0  0  0  0  0  0  0  0  0  0  0
  -21.3700   -3.9580   26.0050 F   0  0  0  0  0  0  0  0  0  0  0  0
  -22.9970  -13.6700   21.1790 C   0  0  0  0  0  0  0  0  0  0  0  0
  -22.2810  -12.9650   22.0450 N   0  0  0  0  0  0  0  0  0  0  0  0
  -22.5510  -14.6960   20.6670 O   0  0  0  0  0  0  0  0  0  0  0  0
  -22.6530  -12.1350   22.4840 H   0  0  0  0  0  0  0  0  0  0  0  0
  -21.3430  -13.2600   22.2780 H   0  0  0  0  0  0  0  0  0  0  0  0
  -25.6050  -15.3630   20.3720 N   0  0  0  0  0  0  0  0  0  0  0  0
  -24.8300  -16.0070   20.4910 H   0  0  0  0  0  0  0  0  0  0  0  0
  -26.4500  -15.8180   20.0500 H   0  0  0  0  0  0  0  0  0  0  0  0
  -31.3390  -19.2610   22.4830 C   0  0  0  0  0  2  0  0  0  0  0  0
  -31.2690  -20.1940   23.6230 N   0  0  0  0  0  4  0  0  0  0  0  0
  -31.3320  -21.1460   23.3130 H   0  0  0  0  0  0  0  0  0  0  0  0
  -32.0350  -20.0230   24.2520 H   0  0  0  0  0  0  0  0  0  0  0  0
  -30.4170  -20.0740   24.1400 H   0  0  0  0  0  0  0  0  0  0  0  0
  -28.0140  -24.6090   19.9920 C   0  0  0  0  0  2  0  0  0  0  0  0
  -28.2980  -26.1570   20.1730 O   0  0  0  0  0  0  0  0  0  0  0  0
  -24.6870  -31.8850   23.2270 C   0  0  0  0  0  0  0  0  0  0  0  0
  -27.2530  -27.1750   20.1190 C   0  0  0  0  0  0  0  0  0  0  0  0
  -23.4810  -30.5090   21.5760 C   0  0  0  0  0  3  0  0  0  0  0  0
  -24.9250  -28.9520   20.1200 C   0  0  0  0  0  0  0  0  0  0  0  0
  -26.0390  -30.7680   21.4060 C   0  0  0  0  0  2  0  0  0  0  0  0
  -26.1100  -29.3830   20.7290 C   0  0  0  0  0  0  0  0  0  0  0  0
  -27.2730  -28.5130   20.7090 C   0  0  0  0  0  3  0  0  0  0  0  0
  -26.0370  -26.8620   19.4720 C   0  0  0  0  0  3  0  0  0  0  0  0
  -24.9050  -27.7080   19.4730 C   0  0  0  0  0  3  0  0  0  0  0  0
  -23.6980  -29.8510   20.1870 C   0  0  0  0  0  2  0  0  0  0  0  0
  -24.7560  -31.0770   22.1240 N   0  0  0  0  0  0  0  0  0  0  0  0
  -23.6020  -32.1630   23.7620 O   0  0  0  0  0  0  0  0  0  0  0  0
  -22.8080  -29.4900   22.5290 C   0  0  0  0  0  0  0  0  0  0  0  0
  -21.4790  -29.3190   22.4110 N   0  0  0  0  0  0  0  0  0  0  0  0
  -23.4840  -28.8540   23.3430 O   0  0  0  0  0  0  0  0  0  0  0  0
  -20.9900  -29.8840   21.7290 H   0  0  0  0  0  0  0  0  0  0  0  0
  -18.1020  -28.1020   22.9140 C   0  0  0  0  0  0  0  0  0  0  0  0
  -20.6620  -28.3710   23.1720 C   0  0  0  0  0  3  0  0  0  0  0  0
  -20.7650  -26.9460   22.5810 C   0  0  0  0  0  2  0  0  0  0  0  0
  -19.6600  -26.6300   21.5680 C   0  0  0  0  0  2  0  0  0  0  0  0
  -18.2800  -26.7630   22.2190 C   0  0  0  0  0  2  0  0  0  0  0  0
  -19.2210  -28.8650   23.3480 C   0  0  0  0  0  0  0  0  0  0  0  0
  -18.9990  -30.1170   23.9610 C   0  0  0  0  0  3  0  0  0  0  0  0
  -17.6920  -30.6070   24.1440 C   0  0  0  0  0  3  0  0  0  0  0  0
  -16.5890  -29.8430   23.7280 C   0  0  0  0  0  3  0  0  0  0  0  0
  -16.7950  -28.5930   23.1170 C   0  0  0  0  0  3  0  0  0  0  0  0
  -25.9650  -32.5170   23.8570 C   0  0  0  0  0  3  0  0  0  0  0  0
  -26.4770  -31.7420   25.1330 C   0  0  1  0  0  0  0  0  0  0  0  0
  -25.3800  -31.5050   26.1970 C   0  0  0  0  0  1  0  0  0  0  0  0
  -27.0590  -30.3640   24.7430 C   0  0  0  0  0  1  0  0  0  0  0  0
  -27.6280  -32.5340   25.7990 C   0  0  0  0  0  1  0  0  0  0  0  0
  -25.6510  -33.9140   24.2000 N   0  0  0  0  0  0  0  0  0  0  0  0
  -25.9520  -34.9760   23.4430 C   0  0  0  0  0  0  0  0  0  0  0  0
  -26.5840  -34.8860   22.3870 O   0  0  0  0  0  0  0  0  0  0  0  0
  -25.0880  -34.0570   25.0260 H   0  0  0  0  0  0  0  0  0  0  0  0
  -24.1830  -36.7500   23.1900 C   0  0  0  0  0  1  0  0  0  0  0  0
  -25.4720  -36.3590   23.9300 C   0  0  0  0  0  3  0  0  0  0  0  0
  -27.6340  -37.2740   24.6510 C   0  0  0  0  0  1  0  0  0  0  0  0
  -26.4840  -37.4260   23.7640 N   0  0  0  0  0  0  0  0  0  0  0  0
  -26.0730  -38.3400   23.9330 H   0  0  0  0  0  0  0  0  0  0  0  0
  1  2  2  0
  1  5  1  0
  2  6  1  0
  3  2  1  0
  3  7  1  0
  5  9  1  0
  5  8  1  0
  6  4  1  0
  6  8  1  0
  7 51  1  0
  7  4  1  0
  8 46  1  0
 10  9  1  0
 11 16  1  0
 12 13  1  0
 12 11  1  0
 14 13  1  0
 14 21  1  0
 14 15  1  0
 16 10  1  0
 16 15  1  0
 17 10  2  0
 18 19  2  0
 19 38  1  0
 20 19  1  0
 20 23  1  0
 21 22  1  0
 21 18  1  0
 22 20  2  0
 23 24  1  0
 24 25  2  0
 26 29  1  0
 26 25  1  0
 27 26  2  0
 28 27  1  0
 28 23  2  0
 29 30  1  0
 30 31  1  0
 31 32  2  0
 33 32  1  0
 33 37  1  0
 34 33  2  0
 35 30  2  0
 35 34  1  0
 36 35  1  0
 38 39  1  0
 39 42  1  0
 39 41  1  0
 40 38  2  0
 43 44  1  0
 43 18  1  0
 45 43  1  0
 46 47  1  0
 47 50  1  0
 47 49  1  0
 48 47  1  0
 51 52  1  0
 53 64  2  0
 54 52  1  0
 54 59  1  0
 55 63  1  0
 55 65  1  0
 56 62  1  0
 56 58  1  0
 57 63  1  0
 58 57  1  0
 59 58  2  0
 60 61  1  0
 60 54  2  0
 61 56  2  0
 62 55  1  0
 63 53  1  0
 65 67  2  0
 66 65  1  0
 68 66  1  0
 69 78  2  0
 69 74  1  0
 70 66  1  0
 70 74  1  0
 71 70  1  0
 72 73  1  0
 72 71  1  0
 73 69  1  0
 74 75  2  0
 75 76  1  0
 77 76  2  0
 78 77  1  0
 79 53  1  0
 79 84  1  0
 79 80  1  0
 80 83  1  1
 80 81  1  0
 82 80  1  0
 84 87  1  0
 85 89  1  0
 85 84  1  0
 86 85  2  0
 89 88  1  0
 91 89  1  0
 91 92  1  0
 91 90  1  0
M  ISO  4   9 100  10 100  51 101  52 101
M  END
>  <TORSDO>  (32) 
F 20

>  <SCORE>  (32) 
-15.571

>  <name>  (32) 
31

>  <ligand_id>  (32) 
31

>  <original_smiles>  (32) 
[H]C1=C2C([H])([H])C([H])(C([H])([H])Oc3c([H])c([H])c4c(c3[H])C([H])([H])N(C(=O)C([H])(N([H])C(=O)C([H])(N([H])C([H])([H])[H])C([H])([H])[H])C(C([H])([H])[H])(C([H])([H])[H])C([H])([H])[H])C([H])(C(=O)N([H])C3([H])c5c([H])c([H])c([H])c([H])c5C([H])([H])C([H])([H])C3([H])[H])C4([H])[H])C([H])([H])C2([H])C([H])(C([H])([H])[N+]([H])([H])[H])C1([H])C([H])([H])C(=O)N1C([H])([H])C([H])([H])C([H])([H])C([H])(n2nc(-c3c([H])c([H])c(Oc4c([H])c([H])c(F)c([H])c4F)c([H])c3[H])c(C(=O)N([H])[H])c2N([H])[H])C1([H])[H]

>  <smiles>  (32) 
[H]C1=C2C([H])([H])C([H])(C([H])([H])Oc3c([H])c([H])c4c(c3[H])C([H])([H])N(C(=O)C([H])(N([H])C(=O)C([H])(N([H])C([H])([H])[H])C([H])([H])[H])C(C([H])([H])[H])(C([H])([H])[H])C([H])([H])[H])C([H])(C(=O)N([H])C3([H])c5c([H])c([H])c([H])c([H])c5C([H])([H])C([H])([H])C3([H])[H])C4([H])[H])C([H])([H])C2([H])C([H])(C([H])([H])[N+]([H])([H])[H])C1([H])C([H])([H])C(=O)N1C([H])([H])C([H])([H])C([H])([H])C([H])(n2nc(-c3c([H])c([H])c(Oc4c([H])c([H])c(F)c([H])c4F)c([H])c3[H])c(C(=O)N([H])[H])c2N([H])[H])C1([H])[H]

$$$$
32:0:0
     RDKit          3D

 89 98  0  0  1  0  0  0  0  0999 V2000
  -29.3790  -18.8300   21.9510 C   0  0  0  0  0  2  0  0  0  0  0  0
  -29.9010  -21.2830   20.8820 C   0  0  0  0  0  2  0  0  0  0  0  0
  -29.4970  -19.6470   18.8810 C   0  0  0  0  0  2  0  0  0  0  0  0
  -30.2990  -19.9910   21.6340 C   0  0  0  0  0  3  0  0  0  0  0  0
  -30.5610  -18.6110   21.0320 C   0  0  0  0  0  3  0  0  0  0  0  0
  -30.3610  -18.2620   19.5650 C   0  0  0  0  0  3  0  0  0  0  0  0
  -29.0360  -21.2070   19.5920 C   0  0  1  0  0  0  0  0  0  0  0  0
  -27.5400  -21.0620   19.9550 C   0  0  0  0  0  1  0  0  0  0  0  0
  -30.9800  -15.3860   19.3910 C   0  0  0  0  0  0  0  0  0  0  0  0
  -30.9380  -12.8780   18.7370 C   0  0  0  0  0  2  0  0  0  0  0  0
  -29.9240  -12.5450   17.6160 C   0  0  0  0  0  2  0  0  0  0  0  0
  -28.5180  -12.3120   18.1970 C   0  0  0  0  0  2  0  0  0  0  0  0
  -28.1420  -13.3810   19.2520 C   0  0  0  0  0  3  0  0  0  0  0  0
  -29.2720  -13.6390   20.2680 C   0  0  0  0  0  2  0  0  0  0  0  0
  -30.4370  -14.0820   19.4880 N   0  0  0  0  0  0  0  0  0  0  0  0
  -32.1890  -15.3990   19.1200 O   0  0  0  0  0  0  0  0  0  0  0  0
  -30.1720  -16.6200   19.4040 N   0  0  0  0  0  0  0  0  0  0  0  0
  -29.1990  -16.3670   19.4810 H   0  0  0  0  0  0  0  0  0  0  0  0
  -25.9120  -14.0210   20.3070 C   0  0  0  0  0  0  0  0  0  0  0  0
  -24.8550  -13.2790   20.7580 C   0  0  0  0  0  0  0  0  0  0  0  0
  -25.2360  -11.9120   20.6000 C   0  0  0  0  0  0  0  0  0  0  0  0
  -26.8660  -13.1080   19.8960 N   0  0  0  0  0  0  0  0  0  0  0  0
  -26.4810  -11.8280   20.1400 N   0  0  0  0  0  0  0  0  0  0  0  0
  -24.4620  -10.6790   20.8030 C   0  0  0  0  0  0  0  0  0  0  0  0
  -24.8420   -9.7140   21.7620 C   0  0  0  0  0  3  0  0  0  0  0  0
  -24.0690   -8.5490   21.9540 C   0  0  0  0  0  3  0  0  0  0  0  0
  -22.9000   -8.3400   21.1820 C   0  0  0  0  0  0  0  0  0  0  0  0
  -22.5380   -9.2910   20.2110 C   0  0  0  0  0  3  0  0  0  0  0  0
  -23.3130  -10.4470   20.0190 C   0  0  0  0  0  3  0  0  0  0  0  0
  -22.1010   -7.2260   21.2790 O   0  0  0  0  0  0  0  0  0  0  0  0
  -21.8590   -6.6180   22.4840 C   0  0  0  0  0  0  0  0  0  0  0  0
  -21.2210   -7.2980   23.5450 C   0  0  0  0  0  3  0  0  0  0  0  0
  -20.9280   -6.6160   24.7430 C   0  0  0  0  0  3  0  0  0  0  0  0
  -21.2630   -5.2550   24.8800 C   0  0  0  0  0  0  0  0  0  0  0  0
  -21.8960   -4.5760   23.8240 C   0  0  0  0  0  3  0  0  0  0  0  0
  -22.1890   -5.2550   22.6280 C   0  0  0  0  0  0  0  0  0  0  0  0
  -22.7780   -4.5910   21.6050 F   0  0  0  0  0  0  0  0  0  0  0  0
  -20.9740   -4.5960   26.0270 F   0  0  0  0  0  0  0  0  0  0  0  0
  -23.5270  -13.8100   21.2100 C   0  0  0  0  0  0  0  0  0  0  0  0
  -22.8720  -13.1170   22.1330 N   0  0  0  0  0  0  0  0  0  0  0  0
  -23.0860  -14.8780   20.7810 O   0  0  0  0  0  0  0  0  0  0  0  0
  -23.2450  -12.2530   22.5000 H   0  0  0  0  0  0  0  0  0  0  0  0
  -21.9870  -13.4570   22.4840 H   0  0  0  0  0  0  0  0  0  0  0  0
  -26.1280  -15.3900   20.1840 N   0  0  0  0  0  0  0  0  0  0  0  0
  -25.3960  -16.0640   20.3830 H   0  0  0  0  0  0  0  0  0  0  0  0
  -26.9140  -15.8030   19.7000 H   0  0  0  0  0  0  0  0  0  0  0  0
  -29.0270  -22.8630   18.8990 C   0  0  0  0  0  3  0  0  0  0  0  0
  -28.0970  -24.3450   19.2760 C   0  0  0  0  0  3  0  0  0  0  0  0
  -28.2460  -25.9440   18.9460 O   0  0  0  0  0  0  0  0  0  0  0  0
  -24.7270  -31.3460   22.8430 C   0  0  0  0  0  0  0  0  0  0  0  0
  -27.2030  -26.9860   19.1070 C   0  0  0  0  0  0  0  0  0  0  0  0
  -23.4710  -30.1330   21.1090 C   0  0  0  0  0  3  0  0  0  0  0  0
  -24.8680  -28.7730   19.4160 C   0  0  0  0  0  0  0  0  0  0  0  0
  -26.0160  -30.4460   20.8480 C   0  0  0  0  0  2  0  0  0  0  0  0
  -26.0770  -29.1340   20.0210 C   0  0  0  0  0  0  0  0  0  0  0  0
  -27.2410  -28.2650   19.8430 C   0  0  0  0  0  3  0  0  0  0  0  0
  -25.9620  -26.7780   18.4660 C   0  0  0  0  0  3  0  0  0  0  0  0
  -24.8330  -27.6170   18.6190 C   0  0  0  0  0  3  0  0  0  0  0  0
  -23.6320  -29.6380   19.6450 C   0  0  0  0  0  2  0  0  0  0  0  0
  -24.7620  -30.6610   21.6550 N   0  0  0  0  0  0  0  0  0  0  0  0
  -23.6660  -31.5330   23.4570 O   0  0  0  0  0  0  0  0  0  0  0  0
  -22.8610  -29.0010   21.9740 C   0  0  0  0  0  0  0  0  0  0  0  0
  -21.5280  -28.8170   21.9100 N   0  0  0  0  0  0  0  0  0  0  0  0
  -23.5890  -28.2900   22.6700 O   0  0  0  0  0  0  0  0  0  0  0  0
  -20.9900  -29.4410   21.3280 H   0  0  0  0  0  0  0  0  0  0  0  0
  -18.2010  -27.5020   22.5010 C   0  0  0  0  0  0  0  0  0  0  0  0
  -20.7740  -27.7660   22.6000 C   0  0  0  0  0  3  0  0  0  0  0  0
  -20.8350  -26.4340   21.8160 C   0  0  0  0  0  2  0  0  0  0  0  0
  -19.6560  -26.2430   20.8550 C   0  0  0  0  0  2  0  0  0  0  0  0
  -18.3290  -26.2700   21.6210 C   0  0  0  0  0  2  0  0  0  0  0  0
  -19.3480  -28.2130   22.9470 C   0  0  0  0  0  0  0  0  0  0  0  0
  -19.1700  -29.3680   23.7370 C   0  0  0  0  0  3  0  0  0  0  0  0
  -17.8810  -29.8180   24.0800 C   0  0  0  0  0  3  0  0  0  0  0  0
  -16.7510  -29.1020   23.6490 C   0  0  0  0  0  3  0  0  0  0  0  0
  -16.9120  -27.9440   22.8670 C   0  0  0  0  0  3  0  0  0  0  0  0
  -26.0190  -31.9400   23.4790 C   0  0  0  0  0  3  0  0  0  0  0  0
  -25.6960  -33.2840   23.9910 N   0  0  0  0  0  0  0  0  0  0  0  0
  -25.9650  -34.4330   23.3560 C   0  0  0  0  0  0  0  0  0  0  0  0
  -26.5760  -34.4740   22.2850 O   0  0  0  0  0  0  0  0  0  0  0  0
  -25.1480  -33.3230   24.8370 H   0  0  0  0  0  0  0  0  0  0  0  0
  -24.1750  -36.2040   23.3470 C   0  0  0  0  0  1  0  0  0  0  0  0
  -25.4830  -35.7440   24.0100 C   0  0  0  0  0  3  0  0  0  0  0  0
  -27.6410  -36.6090   24.8040 C   0  0  0  0  0  1  0  0  0  0  0  0
  -26.4810  -36.8360   23.9490 N   0  0  0  0  0  0  0  0  0  0  0  0
  -26.0610  -37.7220   24.2150 H   0  0  0  0  0  0  0  0  0  0  0  0
  -26.6060  -31.0450   24.6400 C   0  0  1  0  0  0  0  0  0  0  0  0
  -25.5650  -30.6710   25.7210 C   0  0  0  0  0  1  0  0  0  0  0  0
  -27.1900  -29.7300   24.0780 C   0  0  0  0  0  1  0  0  0  0  0  0
  -27.7770  -31.7810   25.3310 C   0  0  0  0  0  1  0  0  0  0  0  0
  3  6  1  0
  3  7  1  0
  4  2  1  0
  4  1  1  0
  5  4  1  0
  5  1  1  0
  6 17  1  0
  6  5  1  0
  7  8  1  1
  7  2  1  0
  9 17  1  0
  9 15  1  0
 10 15  1  0
 11 12  1  0
 11 10  1  0
 13 12  1  0
 13 22  1  0
 13 14  1  0
 15 14  1  0
 16  9  2  0
 17 18  1  0
 19 20  2  0
 20 39  1  0
 21 20  1  0
 21 24  1  0
 22 23  1  0
 22 19  1  0
 23 21  2  0
 24 25  1  0
 25 26  2  0
 27 30  1  0
 27 26  1  0
 28 27  2  0
 29 28  1  0
 29 24  2  0
 30 31  1  0
 31 36  2  0
 31 32  1  0
 32 33  2  0
 33 34  1  0
 34 38  1  0
 35 34  2  0
 36 35  1  0
 37 36  1  0
 39 40  1  0
 40 43  1  0
 40 42  1  0
 41 39  2  0
 44 19  1  0
 44 45  1  0
 46 44  1  0
 47 48  2  0
 47  7  1  0
 49 51  1  0
 49 48  1  0
 50 61  2  0
 51 56  1  0
 52 60  1  0
 52 62  1  0
 53 59  1  0
 53 55  1  0
 54 60  1  0
 55 54  1  0
 56 55  2  0
 57 58  1  0
 57 51  2  0
 58 53  2  0
 59 52  1  0
 60 50  1  0
 62 64  2  0
 63 62  1  0
 65 63  1  0
 66 75  2  0
 66 71  1  0
 67 63  1  0
 67 71  1  0
 68 67  1  0
 69 70  1  0
 69 68  1  0
 70 66  1  0
 71 72  2  0
 72 73  1  0
 74 73  2  0
 75 74  1  0
 76 50  1  0
 76 77  1  0
 76 86  1  0
 77 80  1  0
 78 77  1  0
 78 82  1  0
 79 78  2  0
 82 81  1  0
 84 82  1  0
 84 85  1  0
 84 83  1  0
 86 89  1  1
 86 87  1  0
 88 86  1  0
M  ISO  4   9 100  17 100  48 101  49 101
M  END
>  <TORSDO>  (33) 
F 18

>  <SCORE>  (33) 
-11.658

>  <name>  (33) 
32

>  <ligand_id>  (33) 
32

>  <original_smiles>  (33) 
[H]c1c([H])c([H])c2c(c1[H])C([H])([H])C([H])([H])C([H])([H])C2([H])N([H])C(=O)C1([H])N(C(=O)C([H])(N([H])C(=O)C([H])(N([H])C([H])([H])[H])C([H])([H])[H])C(C([H])([H])[H])(C([H])([H])[H])C([H])([H])[H])C([H])([H])c2c([H])c(OC([H])([H])C([H])([H])C3(C([H])([H])[H])C([H])([H])C([H])(N([H])C(=O)N4C([H])([H])C([H])([H])C([H])([H])C([H])(n5nc(-c6c([H])c([H])c(Oc7c([H])c([H])c(F)c([H])c7F)c([H])c6[H])c(C(=O)N([H])[H])c5N([H])[H])C4([H])[H])C4([H])C([H])([H])C4([H])C3([H])[H])c([H])c([H])c2C1([H])[H]

>  <smiles>  (33) 
[H]c1c([H])c([H])c2c(c1[H])C([H])([H])C([H])([H])C([H])([H])C2([H])N([H])C(=O)C1([H])N(C(=O)C([H])(N([H])C(=O)C([H])(N([H])C([H])([H])[H])C([H])([H])[H])C(C([H])([H])[H])(C([H])([H])[H])C([H])([H])[H])C([H])([H])c2c([H])c(OC([H])([H])C([H])([H])C3(C([H])([H])[H])C([H])([H])C([H])(N([H])C(=O)N4C([H])([H])C([H])([H])C([H])([H])C([H])(n5nc(-c6c([H])c([H])c(Oc7c([H])c([H])c(F)c([H])c7F)c([H])c6[H])c(C(=O)N([H])[H])c5N([H])[H])C4([H])[H])C4([H])C([H])([H])C4([H])C3([H])[H])c([H])c([H])c2C1([H])[H]

$$$$
33:0:0
     RDKit          3D

 90 98  0  0  1  0  0  0  0  0999 V2000
  -30.1950  -23.0610   19.7770 C   0  0  0  0  0  2  0  0  0  0  0  0
  -30.3520  -21.4880   19.6600 C   0  0  0  0  0  2  0  0  0  0  0  0
  -28.3440  -21.8900   20.6850 C   0  0  0  0  0  2  0  0  0  0  0  0
  -28.9020  -23.4310   20.5510 C   0  0  0  0  0  3  0  0  0  0  0  0
  -29.5200  -20.7340   20.7500 C   0  0  2  0  0  0  0  0  0  0  0  0
  -31.7810  -20.5580   22.0660 C   0  0  0  0  0  1  0  0  0  0  0  0
  -29.9280  -21.7810   23.1950 C   0  0  0  0  0  1  0  0  0  0  0  0
  -30.2460  -20.6910   22.1540 C   0  0  0  0  0  3  0  0  0  0  0  0
  -28.0140  -24.7800   20.0660 C   0  0  0  0  0  2  0  0  0  0  0  0
  -28.2740  -26.2890   20.3450 O   0  0  0  0  0  0  0  0  0  0  0  0
  -24.5760  -31.9300   23.3050 C   0  0  0  0  0  0  0  0  0  0  0  0
  -27.2200  -27.2710   20.2570 C   0  0  0  0  0  0  0  0  0  0  0  0
  -23.4100  -30.5530   21.6270 C   0  0  0  0  0  3  0  0  0  0  0  0
  -24.8880  -29.0060   20.2050 C   0  0  0  0  0  0  0  0  0  0  0  0
  -25.9640  -30.8300   21.5110 C   0  0  0  0  0  2  0  0  0  0  0  0
  -26.0540  -29.4480   20.8430 C   0  0  0  0  0  0  0  0  0  0  0  0
  -27.2220  -28.5950   20.8540 C   0  0  0  0  0  3  0  0  0  0  0  0
  -26.0310  -26.9350   19.5740 C   0  0  0  0  0  3  0  0  0  0  0  0
  -24.8880  -27.7620   19.5560 C   0  0  0  0  0  3  0  0  0  0  0  0
  -23.6560  -29.8970   20.2430 C   0  0  0  0  0  2  0  0  0  0  0  0
  -24.6690  -31.1250   22.2040 N   0  0  0  0  0  0  0  0  0  0  0  0
  -23.4800  -32.2050   23.8170 O   0  0  0  0  0  0  0  0  0  0  0  0
  -22.7180  -29.5290   22.5630 C   0  0  0  0  0  0  0  0  0  0  0  0
  -21.3930  -29.3550   22.4090 N   0  0  0  0  0  0  0  0  0  0  0  0
  -23.3750  -28.8960   23.3910 O   0  0  0  0  0  0  0  0  0  0  0  0
  -20.9170  -29.9190   21.7200 H   0  0  0  0  0  0  0  0  0  0  0  0
  -18.0010  -28.1650   22.8610 C   0  0  0  0  0  0  0  0  0  0  0  0
  -20.5600  -28.4060   23.1540 C   0  0  0  0  0  3  0  0  0  0  0  0
  -20.6580  -26.9850   22.5480 C   0  0  0  0  0  2  0  0  0  0  0  0
  -19.5610  -26.6930   21.5180 C   0  0  0  0  0  2  0  0  0  0  0  0
  -18.1760  -26.8310   22.1550 C   0  0  0  0  0  2  0  0  0  0  0  0
  -19.1220  -28.9110   23.3160 C   0  0  0  0  0  0  0  0  0  0  0  0
  -18.9040  -30.1600   23.9360 C   0  0  0  0  0  3  0  0  0  0  0  0
  -17.6010  -30.6630   24.1070 C   0  0  0  0  0  3  0  0  0  0  0  0
  -16.4960  -29.9130   23.6680 C   0  0  0  0  0  3  0  0  0  0  0  0
  -16.6970  -28.6660   23.0510 C   0  0  0  0  0  3  0  0  0  0  0  0
  -25.8400  -32.5620   23.9630 C   0  0  0  0  0  3  0  0  0  0  0  0
  -26.3000  -31.8080   25.2710 C   0  0  1  0  0  0  0  0  0  0  0  0
  -25.1660  -31.5940   26.3000 C   0  0  0  0  0  1  0  0  0  0  0  0
  -26.8870  -30.4200   24.9250 C   0  0  0  0  0  1  0  0  0  0  0  0
  -27.4330  -32.6030   25.9630 C   0  0  0  0  0  1  0  0  0  0  0  0
  -25.5320  -33.9690   24.2660 N   0  0  0  0  0  0  0  0  0  0  0  0
  -25.8670  -35.0090   23.4900 C   0  0  0  0  0  0  0  0  0  0  0  0
  -26.5350  -34.8840   22.4600 O   0  0  0  0  0  0  0  0  0  0  0  0
  -24.9370  -34.1390   25.0640 H   0  0  0  0  0  0  0  0  0  0  0  0
  -24.1330  -36.7960   23.1250 C   0  0  0  0  0  1  0  0  0  0  0  0
  -25.3870  -36.4080   23.9250 C   0  0  0  0  0  3  0  0  0  0  0  0
  -27.5290  -37.3190   24.7070 C   0  0  0  0  0  1  0  0  0  0  0  0
  -26.4180  -37.4590   23.7700 N   0  0  0  0  0  0  0  0  0  0  0  0
  -26.0110  -38.3820   23.8940 H   0  0  0  0  0  0  0  0  0  0  0  0
  -29.1690  -19.0980   20.4200 C   0  0  0  0  0  3  0  0  0  0  0  0
  -30.1910  -17.7640   20.6220 C   0  0  0  0  0  3  0  0  0  0  0  0
  -30.5510  -15.0590   20.3620 C   0  0  0  0  0  0  0  0  0  0  0  0
  -30.4160  -12.7350   19.3670 C   0  0  0  0  0  2  0  0  0  0  0  0
  -29.4700  -12.7200   18.1450 C   0  0  0  0  0  2  0  0  0  0  0  0
  -28.0110  -12.4980   18.5910 C   0  0  0  0  0  2  0  0  0  0  0  0
  -27.6150  -13.3990   19.7910 C   0  0  0  0  0  3  0  0  0  0  0  0
  -28.6830  -13.3860   20.9040 C   0  0  0  0  0  2  0  0  0  0  0  0
  -29.9460  -13.8080   20.2880 N   0  0  0  0  0  0  0  0  0  0  0  0
  -31.7540  -15.1270   20.0890 O   0  0  0  0  0  0  0  0  0  0  0  0
  -29.7830  -16.2410   20.5390 N   0  0  0  0  0  0  0  0  0  0  0  0
  -28.8010  -16.0610   20.6900 H   0  0  0  0  0  0  0  0  0  0  0  0
  -25.2370  -13.9510   20.5550 C   0  0  0  0  0  0  0  0  0  0  0  0
  -24.1820  -13.1630   20.9260 C   0  0  0  0  0  0  0  0  0  0  0  0
  -24.6580  -11.8160   20.8770 C   0  0  0  0  0  0  0  0  0  0  0  0
  -26.2850  -13.0840   20.2970 N   0  0  0  0  0  0  0  0  0  0  0  0
  -25.9460  -11.7940   20.5570 N   0  0  0  0  0  0  0  0  0  0  0  0
  -23.9430  -10.5460   21.0570 C   0  0  0  0  0  0  0  0  0  0  0  0
  -24.3780   -9.5800   21.9910 C   0  0  0  0  0  3  0  0  0  0  0  0
  -23.6610   -8.3750   22.1600 C   0  0  0  0  0  3  0  0  0  0  0  0
  -22.4960   -8.1280   21.3950 C   0  0  0  0  0  0  0  0  0  0  0  0
  -22.0820   -9.0830   20.4500 C   0  0  0  0  0  3  0  0  0  0  0  0
  -22.7990  -10.2790   20.2790 C   0  0  0  0  0  3  0  0  0  0  0  0
  -21.7520   -6.9750   21.4740 O   0  0  0  0  0  0  0  0  0  0  0  0
  -21.6850   -6.2390   22.6300 C   0  0  0  0  0  0  0  0  0  0  0  0
  -21.1860   -6.7840   23.8330 C   0  0  0  0  0  3  0  0  0  0  0  0
  -21.0690   -5.9730   24.9790 C   0  0  0  0  0  3  0  0  0  0  0  0
  -21.4420   -4.6160   24.9220 C   0  0  0  0  0  0  0  0  0  0  0  0
  -21.9350   -4.0700   23.7250 C   0  0  0  0  0  3  0  0  0  0  0  0
  -22.0530   -4.8800   22.5800 C   0  0  0  0  0  0  0  0  0  0  0  0
  -22.5080   -4.3430   21.4230 F   0  0  0  0  0  0  0  0  0  0  0  0
  -21.3240   -3.8350   26.0210 F   0  0  0  0  0  0  0  0  0  0  0  0
  -22.7820  -13.6250   21.2090 C   0  0  0  0  0  0  0  0  0  0  0  0
  -22.0650  -12.9140   22.0710 N   0  0  0  0  0  0  0  0  0  0  0  0
  -22.3330  -14.6510   20.6990 O   0  0  0  0  0  0  0  0  0  0  0  0
  -22.4400  -12.0840   22.5040 H   0  0  0  0  0  0  0  0  0  0  0  0
  -21.1260  -13.2050   22.3030 H   0  0  0  0  0  0  0  0  0  0  0  0
  -25.3880  -15.3250   20.3890 N   0  0  0  0  0  0  0  0  0  0  0  0
  -24.6140  -15.9700   20.5050 H   0  0  0  0  0  0  0  0  0  0  0  0
  -26.2200  -15.7690   20.0230 H   0  0  0  0  0  0  0  0  0  0  0  0
  1  4  1  0
  2  1  1  0
  2  5  1  0
  3  5  1  0
  4  9  1  0
  4  3  1  0
  5 51  1  0
  5  8  1  1
  6  8  1  0
  8  7  1  0
  9 10  1  0
 11 22  2  0
 12 10  1  0
 12 17  1  0
 13 21  1  0
 13 23  1  0
 14 20  1  0
 14 16  1  0
 15 21  1  0
 16 17  2  0
 16 15  1  0
 18 12  2  0
 19 18  1  0
 19 14  2  0
 20 13  1  0
 21 11  1  0
 23 25  2  0
 24 23  1  0
 26 24  1  0
 27 36  2  0
 27 32  1  0
 28 24  1  0
 28 32  1  0
 29 28  1  0
 30 31  1  0
 30 29  1  0
 31 27  1  0
 32 33  2  0
 33 34  1  0
 35 34  2  0
 36 35  1  0
 37 11  1  0
 37 42  1  0
 37 38  1  0
 38 41  1  1
 38 39  1  0
 40 38  1  0
 42 45  1  0
 43 47  1  0
 43 42  1  0
 44 43  2  0
 47 46  1  0
 49 50  1  0
 49 47  1  0
 49 48  1  0
 51 52  2  0
 53 61  1  0
 54 59  1  0
 55 56  1  0
 55 54  1  0
 57 56  1  0
 57 66  1  0
 57 58  1  0
 59 53  1  0
 59 58  1  0
 60 53  2  0
 61 52  1  0
 61 62  1  0
 63 64  2  0
 64 83  1  0
 65 64  1  0
 65 68  1  0
 66 63  1  0
 66 67  1  0
 67 65  2  0
 68 69  1  0
 69 70  2  0
 71 74  1  0
 71 70  1  0
 72 71  2  0
 73 72  1  0
 73 68  2  0
 74 75  1  0
 75 76  1  0
 76 77  2  0
 78 77  1  0
 78 82  1  0
 79 78  2  0
 80 75  2  0
 80 79  1  0
 81 80  1  0
 83 84  1  0
 84 87  1  0
 84 86  1  0
 85 83  2  0
 88 89  1  0
 88 63  1  0
 90 88  1  0
M  ISO  4   9 101  10 101  53 100  61 100
M  END
>  <TORSDO>  (34) 
F 20

>  <SCORE>  (34) 
-14.675

>  <name>  (34) 
33

>  <ligand_id>  (34) 
33

>  <original_smiles>  (34) 
[H]c1c([H])c([H])c2c(c1[H])C([H])([H])C([H])([H])C([H])([H])C2([H])N([H])C(=O)C1([H])N(C(=O)C([H])(N([H])C(=O)C([H])(N([H])C([H])([H])[H])C([H])([H])[H])C(C([H])([H])[H])(C([H])([H])[H])C([H])([H])[H])C([H])([H])c2c([H])c(OC([H])([H])C3([H])C([H])([H])C([H])([H])C(C([H])([H])C([H])([H])N([H])C(=O)N4C([H])([H])C([H])([H])C([H])([H])C([H])(n5nc(-c6c([H])c([H])c(Oc7c([H])c([H])c(F)c([H])c7F)c([H])c6[H])c(C(=O)N([H])[H])c5N([H])[H])C4([H])[H])(C([H])(C([H])([H])[H])C([H])([H])[H])C3([H])[H])c([H])c([H])c2C1([H])[H]

>  <smiles>  (34) 
[H]c1c([H])c([H])c2c(c1[H])C([H])([H])C([H])([H])C([H])([H])C2([H])N([H])C(=O)C1([H])N(C(=O)C([H])(N([H])C(=O)C([H])(N([H])C([H])([H])[H])C([H])([H])[H])C(C([H])([H])[H])(C([H])([H])[H])C([H])([H])[H])C([H])([H])c2c([H])c(OC([H])([H])C3([H])C([H])([H])C([H])([H])C(C([H])([H])C([H])([H])N([H])C(=O)N4C([H])([H])C([H])([H])C([H])([H])C([H])(n5nc(-c6c([H])c([H])c(Oc7c([H])c([H])c(F)c([H])c7F)c([H])c6[H])c(C(=O)N([H])[H])c5N([H])[H])C4([H])[H])(C([H])(C([H])([H])[H])C([H])([H])[H])C3([H])[H])c([H])c([H])c2C1([H])[H]

$$$$
34:0:0
     RDKit          3D

 91100  0  0  1  0  0  0  0  0999 V2000
  -30.2990  -22.0020   21.2850 C   0  0  0  0  0  2  0  0  0  0  0  0
  -28.8580  -21.1650   19.4840 C   0  0  0  0  0  2  0  0  0  0  0  0
  -29.1340  -22.9740   21.1250 C   0  0  0  0  0  3  0  0  0  0  0  0
  -28.3000  -22.5040   19.9780 C   0  0  0  0  0  3  0  0  0  0  0  0
  -28.9650  -23.9000   19.9230 C   0  0  0  0  0  3  0  0  0  0  0  0
  -30.0690  -20.7620   20.3690 C   0  0  0  0  0  3  0  0  0  0  0  0
  -29.9430  -19.4880   21.1620 N   0  0  0  0  0  4  0  0  0  0  0  0
  -29.2070  -19.5940   21.8420 H   0  0  0  0  0  0  0  0  0  0  0  0
  -30.8030  -19.4120   21.6800 H   0  0  0  0  0  0  0  0  0  0  0  0
  -29.7620  -18.1640   20.4730 C   0  0  0  0  0  2  0  0  0  0  0  0
  -30.3320  -16.9630   21.3200 C   0  0  0  0  0  2  0  0  0  0  0  0
  -30.6350  -14.5510   20.4870 C   0  0  0  0  0  0  0  0  0  0  0  0
  -30.3670  -12.3600   19.3600 C   0  0  0  0  0  2  0  0  0  0  0  0
  -29.4260  -12.5270   18.1470 C   0  0  0  0  0  2  0  0  0  0  0  0
  -27.9510  -12.3880   18.5730 C   0  0  0  0  0  2  0  0  0  0  0  0
  -27.6050  -13.2460   19.8180 C   0  0  0  0  0  3  0  0  0  0  0  0
  -28.6550  -13.0500   20.9350 C   0  0  0  0  0  2  0  0  0  0  0  0
  -29.9750  -13.3640   20.3620 N   0  0  0  0  0  0  0  0  0  0  0  0
  -31.7900  -14.7140   20.0860 O   0  0  0  0  0  0  0  0  0  0  0  0
  -29.8970  -15.5900   20.9450 N   0  0  0  0  0  0  0  0  0  0  0  0
  -28.9420  -15.3530   21.1770 H   0  0  0  0  0  0  0  0  0  0  0  0
  -25.2060  -13.8700   20.5050 C   0  0  0  0  0  0  0  0  0  0  0  0
  -24.1310  -13.1050   20.8730 C   0  0  0  0  0  0  0  0  0  0  0  0
  -24.5880  -11.7520   20.8590 C   0  0  0  0  0  0  0  0  0  0  0  0
  -26.2490  -12.9830   20.2930 N   0  0  0  0  0  0  0  0  0  0  0  0
  -25.8800  -11.7050   20.5640 N   0  0  0  0  0  0  0  0  0  0  0  0
  -23.8540  -10.4950   21.0540 C   0  0  0  0  0  0  0  0  0  0  0  0
  -24.2870   -9.5210   21.9840 C   0  0  0  0  0  3  0  0  0  0  0  0
  -23.5560   -8.3290   22.1630 C   0  0  0  0  0  3  0  0  0  0  0  0
  -22.3760   -8.0990   21.4140 C   0  0  0  0  0  0  0  0  0  0  0  0
  -21.9630   -9.0600   20.4750 C   0  0  0  0  0  3  0  0  0  0  0  0
  -22.6960  -10.2450   20.2930 C   0  0  0  0  0  3  0  0  0  0  0  0
  -21.6150   -6.9600   21.5070 O   0  0  0  0  0  0  0  0  0  0  0  0
  -21.5830   -6.2050   22.6520 C   0  0  0  0  0  0  0  0  0  0  0  0
  -21.1970   -6.7540   23.8940 C   0  0  0  0  0  3  0  0  0  0  0  0
  -21.1100   -5.9280   25.0320 C   0  0  0  0  0  3  0  0  0  0  0  0
  -21.3990   -4.5540   24.9300 C   0  0  0  0  0  0  0  0  0  0  0  0
  -21.7790   -4.0060   23.6930 C   0  0  0  0  0  3  0  0  0  0  0  0
  -21.8670   -4.8280   22.5560 C   0  0  0  0  0  0  0  0  0  0  0  0
  -22.2130   -4.2900   21.3630 F   0  0  0  0  0  0  0  0  0  0  0  0
  -21.3090   -3.7590   26.0210 F   0  0  0  0  0  0  0  0  0  0  0  0
  -22.7340  -13.5910   21.1280 C   0  0  0  0  0  0  0  0  0  0  0  0
  -21.9970  -12.9040   21.9940 N   0  0  0  0  0  0  0  0  0  0  0  0
  -22.3030  -14.6140   20.5950 O   0  0  0  0  0  0  0  0  0  0  0  0
  -22.3560  -12.0750   22.4440 H   0  0  0  0  0  0  0  0  0  0  0  0
  -21.0590  -13.2120   22.2130 H   0  0  0  0  0  0  0  0  0  0  0  0
  -25.3760  -15.2380   20.3120 N   0  0  0  0  0  0  0  0  0  0  0  0
  -24.6040  -15.8920   20.3910 H   0  0  0  0  0  0  0  0  0  0  0  0
  -26.2160  -15.6630   19.9420 H   0  0  0  0  0  0  0  0  0  0  0  0
  -27.9680  -25.0830   19.8250 C   0  0  0  0  0  2  0  0  0  0  0  0
  -28.2760  -26.4880   20.1330 O   0  0  0  0  0  0  0  0  0  0  0  0
  -24.5940  -31.8800   23.2340 C   0  0  0  0  0  0  0  0  0  0  0  0
  -27.1640  -27.3490   20.1160 C   0  0  0  0  0  0  0  0  0  0  0  0
  -23.3760  -30.4960   21.6010 C   0  0  0  0  0  3  0  0  0  0  0  0
  -24.8090  -28.9660   20.1560 C   0  0  0  0  0  0  0  0  0  0  0  0
  -25.9200  -30.8060   21.4080 C   0  0  0  0  0  2  0  0  0  0  0  0
  -25.9890  -29.4380   20.7470 C   0  0  0  0  0  0  0  0  0  0  0  0
  -27.1730  -28.6410   20.7220 C   0  0  0  0  0  3  0  0  0  0  0  0
  -25.9510  -26.9360   19.5070 C   0  0  0  0  0  3  0  0  0  0  0  0
  -24.7910  -27.7170   19.5310 C   0  0  0  0  0  3  0  0  0  0  0  0
  -23.5770  -29.8400   20.2150 C   0  0  0  0  0  2  0  0  0  0  0  0
  -24.6490  -31.0750   22.1360 N   0  0  0  0  0  0  0  0  0  0  0  0
  -23.5140  -32.1610   23.7750 O   0  0  0  0  0  0  0  0  0  0  0  0
  -22.7210  -29.4660   22.5540 C   0  0  0  0  0  0  0  0  0  0  0  0
  -21.3980  -29.2810   22.4260 N   0  0  0  0  0  0  0  0  0  0  0  0
  -23.4050  -28.8400   23.3700 O   0  0  0  0  0  0  0  0  0  0  0  0
  -20.9040  -29.8370   21.7400 H   0  0  0  0  0  0  0  0  0  0  0  0
  -18.0260  -28.0650   22.9110 C   0  0  0  0  0  0  0  0  0  0  0  0
  -20.5810  -28.3440   23.1980 C   0  0  0  0  0  3  0  0  0  0  0  0
  -20.6980  -26.9080   22.6360 C   0  0  0  0  0  2  0  0  0  0  0  0
  -19.6040  -26.5700   21.6180 C   0  0  0  0  0  2  0  0  0  0  0  0
  -18.2170  -26.7100   22.2490 C   0  0  0  0  0  2  0  0  0  0  0  0
  -19.1360  -28.8390   23.3420 C   0  0  0  0  0  0  0  0  0  0  0  0
  -18.9030  -30.1070   23.9190 C   0  0  0  0  0  3  0  0  0  0  0  0
  -17.5950  -30.5990   24.0710 C   0  0  0  0  0  3  0  0  0  0  0  0
  -16.4990  -29.8220   23.6590 C   0  0  0  0  0  3  0  0  0  0  0  0
  -16.7150  -28.5590   23.0810 C   0  0  0  0  0  3  0  0  0  0  0  0
  -25.8830  -32.5070   23.8470 C   0  0  0  0  0  3  0  0  0  0  0  0
  -26.4100  -31.7300   25.1160 C   0  0  1  0  0  0  0  0  0  0  0  0
  -25.3240  -31.4870   26.1920 C   0  0  0  0  0  1  0  0  0  0  0  0
  -26.9920  -30.3530   24.7180 C   0  0  0  0  0  1  0  0  0  0  0  0
  -27.5690  -32.5210   25.7680 C   0  0  0  0  0  1  0  0  0  0  0  0
  -25.5780  -33.9040   24.1850 N   0  0  0  0  0  0  0  0  0  0  0  0
  -25.8970  -34.9590   23.4240 C   0  0  0  0  0  0  0  0  0  0  0  0
  -26.5510  -34.8600   22.3830 O   0  0  0  0  0  0  0  0  0  0  0  0
  -25.0000  -34.0560   24.9980 H   0  0  0  0  0  0  0  0  0  0  0  0
  -24.1570  -36.7460   23.1020 C   0  0  0  0  0  1  0  0  0  0  0  0
  -25.4130  -36.3430   23.8920 C   0  0  0  0  0  3  0  0  0  0  0  0
  -27.5610  -37.2270   24.6860 C   0  0  0  0  0  1  0  0  0  0  0  0
  -26.4390  -37.4020   23.7690 N   0  0  0  0  0  0  0  0  0  0  0  0
  -26.0300  -38.3180   23.9400 H   0  0  0  0  0  0  0  0  0  0  0  0
  2  6  1  0
  3  1  1  0
  4  2  1  0
  4  3  1  0
  5 50  1  0
  5  4  1  0
  5  3  1  0
  6  7  1  0
  6  1  1  0
  7  9  1  0
  7  8  1  0
 10  7  1  0
 10 11  1  0
 12 20  1  0
 13 18  1  0
 14 15  1  0
 14 13  1  0
 16 15  1  0
 16 25  1  0
 16 17  1  0
 18 12  1  0
 18 17  1  0
 19 12  2  0
 20 21  1  0
 20 11  1  0
 22 23  2  0
 23 42  1  0
 24 23  1  0
 24 27  1  0
 25 22  1  0
 25 26  1  0
 26 24  2  0
 27 28  1  0
 28 29  2  0
 30 33  1  0
 30 29  1  0
 31 30  2  0
 32 31  1  0
 32 27  2  0
 33 34  1  0
 34 35  1  0
 35 36  2  0
 37 36  1  0
 37 41  1  0
 38 37  2  0
 39 34  2  0
 39 38  1  0
 40 39  1  0
 42 43  1  0
 43 46  1  0
 43 45  1  0
 44 42  2  0
 47 48  1  0
 47 22  1  0
 49 47  1  0
 50 51  1  0
 52 63  2  0
 53 51  1  0
 53 58  1  0
 54 62  1  0
 54 64  1  0
 55 61  1  0
 55 57  1  0
 56 62  1  0
 57 56  1  0
 58 57  2  0
 59 60  1  0
 59 53  2  0
 60 55  2  0
 61 54  1  0
 62 52  1  0
 64 66  2  0
 65 64  1  0
 67 65  1  0
 68 77  2  0
 68 73  1  0
 69 65  1  0
 69 73  1  0
 70 69  1  0
 71 72  1  0
 71 70  1  0
 72 68  1  0
 73 74  2  0
 74 75  1  0
 76 75  2  0
 77 76  1  0
 78 52  1  0
 78 83  1  0
 78 79  1  0
 79 82  1  1
 79 80  1  0
 81 79  1  0
 83 86  1  0
 84 88  1  0
 84 83  1  0
 85 84  2  0
 88 87  1  0
 90 88  1  0
 90 91  1  0
 90 89  1  0
M  ISO  4  12 100  20 100  50 101  51 101
M  END
>  <TORSDO>  (35) 
F 20

>  <SCORE>  (35) 
-13.951

>  <name>  (35) 
34

>  <ligand_id>  (35) 
34

>  <original_smiles>  (35) 
[H]c1c([H])c([H])c2c(c1[H])C([H])([H])C([H])([H])C([H])([H])C2([H])N([H])C(=O)C1([H])N(C(=O)C([H])(N([H])C(=O)C([H])(N([H])C([H])([H])[H])C([H])([H])[H])C(C([H])([H])[H])(C([H])([H])[H])C([H])([H])[H])C([H])([H])c2c([H])c(OC([H])([H])C3([H])C4([H])C([H])([H])C([H])([N+]([H])([H])C([H])([H])C([H])([H])N([H])C(=O)N5C([H])([H])C([H])([H])C([H])([H])C([H])(n6nc(-c7c([H])c([H])c(Oc8c([H])c([H])c(F)c([H])c8F)c([H])c7[H])c(C(=O)N([H])[H])c6N([H])[H])C5([H])[H])C([H])([H])C34[H])c([H])c([H])c2C1([H])[H]

>  <smiles>  (35) 
[H]c1c([H])c([H])c2c(c1[H])C([H])([H])C([H])([H])C([H])([H])C2([H])N([H])C(=O)C1([H])N(C(=O)C([H])(N([H])C(=O)C([H])(N([H])C([H])([H])[H])C([H])([H])[H])C(C([H])([H])[H])(C([H])([H])[H])C([H])([H])[H])C([H])([H])c2c([H])c(OC([H])([H])C3([H])C4([H])C([H])([H])C([H])([N+]([H])([H])C([H])([H])C([H])([H])N([H])C(=O)N5C([H])([H])C([H])([H])C([H])([H])C([H])(n6nc(-c7c([H])c([H])c(Oc8c([H])c([H])c(F)c([H])c8F)c([H])c7[H])c(C(=O)N([H])[H])c6N([H])[H])C5([H])[H])C([H])([H])C34[H])c([H])c([H])c2C1([H])[H]

$$$$
35:0:0
     RDKit          3D

 91 98  0  0  1  0  0  0  0  0999 V2000
  -28.6240  -22.5000   20.6990 N   0  0  0  0  0  4  0  0  0  0  0  0
  -29.4570  -22.6140   21.2530 H   0  0  0  0  0  0  0  0  0  0  0  0
  -27.8580  -22.4090   21.3500 H   0  0  0  0  0  0  0  0  0  0  0  0
  -28.7390  -21.1620   19.9600 C   0  0  0  0  0  2  0  0  0  0  0  0
  -29.3530  -19.9220   20.7810 C   0  0  0  0  0  2  0  0  0  0  0  0
  -29.0380  -18.4150   20.3840 C   0  0  0  0  0  0  0  0  0  0  0  0
  -27.8660  -18.0970   20.1610 O   0  0  0  0  0  0  0  0  0  0  0  0
  -30.2100  -17.3230   20.2830 C   0  0  0  0  0  3  0  0  0  0  0  0
  -30.5810  -14.7130   20.3000 C   0  0  0  0  0  0  0  0  0  0  0  0
  -30.3620  -12.4450   19.3040 C   0  0  0  0  0  2  0  0  0  0  0  0
  -29.4160  -12.5190   18.0880 C   0  0  0  0  0  2  0  0  0  0  0  0
  -27.9490  -12.3520   18.5350 C   0  0  0  0  0  2  0  0  0  0  0  0
  -27.5850  -13.2530   19.7470 C   0  0  0  0  0  3  0  0  0  0  0  0
  -28.6520  -13.1690   20.8600 C   0  0  0  0  0  2  0  0  0  0  0  0
  -29.9430  -13.5000   20.2490 N   0  0  0  0  0  0  0  0  0  0  0  0
  -31.7820  -14.7890   20.0320 O   0  0  0  0  0  0  0  0  0  0  0  0
  -29.8050  -15.8540   20.4020 N   0  0  0  0  0  0  0  0  0  0  0  0
  -28.8180  -15.7070   20.5580 H   0  0  0  0  0  0  0  0  0  0  0  0
  -25.2040  -13.8470   20.4990 C   0  0  0  0  0  0  0  0  0  0  0  0
  -24.1420  -13.0720   20.8830 C   0  0  0  0  0  0  0  0  0  0  0  0
  -24.6080  -11.7220   20.8550 C   0  0  0  0  0  0  0  0  0  0  0  0
  -26.2460  -12.9680   20.2540 N   0  0  0  0  0  0  0  0  0  0  0  0
  -25.8960  -11.6860   20.5350 N   0  0  0  0  0  0  0  0  0  0  0  0
  -23.8850  -10.4590   21.0540 C   0  0  0  0  0  0  0  0  0  0  0  0
  -24.3420   -9.4830   21.9650 C   0  0  0  0  0  3  0  0  0  0  0  0
  -23.6180   -8.2860   22.1530 C   0  0  0  0  0  3  0  0  0  0  0  0
  -22.4250   -8.0560   21.4280 C   0  0  0  0  0  0  0  0  0  0  0  0
  -21.9880   -9.0220   20.5050 C   0  0  0  0  0  3  0  0  0  0  0  0
  -22.7120  -10.2100   20.3150 C   0  0  0  0  0  3  0  0  0  0  0  0
  -21.6690   -6.9120   21.5280 O   0  0  0  0  0  0  0  0  0  0  0  0
  -21.6670   -6.1480   22.6680 C   0  0  0  0  0  0  0  0  0  0  0  0
  -21.3140   -6.6840   23.9250 C   0  0  0  0  0  3  0  0  0  0  0  0
  -21.2600   -5.8460   25.0570 C   0  0  0  0  0  3  0  0  0  0  0  0
  -21.5450   -4.4740   24.9330 C   0  0  0  0  0  0  0  0  0  0  0  0
  -21.8910   -3.9360   23.6810 C   0  0  0  0  0  3  0  0  0  0  0  0
  -21.9470   -4.7720   22.5510 C   0  0  0  0  0  0  0  0  0  0  0  0
  -22.2610   -4.2440   21.3430 F   0  0  0  0  0  0  0  0  0  0  0  0
  -21.4850   -3.6670   26.0180 F   0  0  0  0  0  0  0  0  0  0  0  0
  -22.7460  -13.5500   21.1610 C   0  0  0  0  0  0  0  0  0  0  0  0
  -22.0240  -12.8610   22.0380 N   0  0  0  0  0  0  0  0  0  0  0  0
  -22.3040  -14.5690   20.6350 O   0  0  0  0  0  0  0  0  0  0  0  0
  -22.3960  -12.0390   22.4910 H   0  0  0  0  0  0  0  0  0  0  0  0
  -21.0870  -13.1650   22.2640 H   0  0  0  0  0  0  0  0  0  0  0  0
  -25.3600  -15.2180   20.3150 N   0  0  0  0  0  0  0  0  0  0  0  0
  -24.5830  -15.8610   20.4350 H   0  0  0  0  0  0  0  0  0  0  0  0
  -26.1910  -15.6730   19.9600 H   0  0  0  0  0  0  0  0  0  0  0  0
  -32.4240  -18.0370   19.1480 C   0  0  0  0  0  1  0  0  0  0  0  0
  -30.9720  -17.5750   18.9470 C   0  0  0  0  0  2  0  0  0  0  0  0
  -28.4270  -23.8050   19.9160 C   0  0  0  0  0  3  0  0  0  0  0  0
  -28.1910  -25.1370   20.7810 C   0  0  0  0  0  3  0  0  0  0  0  0
  -28.3350  -26.4880   20.1800 O   0  0  0  0  0  0  0  0  0  0  0  0
  -24.6230  -31.8810   23.2360 C   0  0  0  0  0  0  0  0  0  0  0  0
  -27.2190  -27.3300   20.1770 C   0  0  0  0  0  0  0  0  0  0  0  0
  -23.4110  -30.4810   21.6010 C   0  0  0  0  0  3  0  0  0  0  0  0
  -24.8560  -28.9290   20.1710 C   0  0  0  0  0  0  0  0  0  0  0  0
  -25.9460  -30.8070   21.4010 C   0  0  0  0  0  2  0  0  0  0  0  0
  -26.0260  -29.4270   20.7590 C   0  0  0  0  0  0  0  0  0  0  0  0
  -27.2150  -28.6390   20.7490 C   0  0  0  0  0  3  0  0  0  0  0  0
  -26.0330  -26.8800   19.5630 C   0  0  0  0  0  3  0  0  0  0  0  0
  -24.8620  -27.6630   19.5600 C   0  0  0  0  0  3  0  0  0  0  0  0
  -23.6180  -29.8010   20.2210 C   0  0  0  0  0  2  0  0  0  0  0  0
  -24.6790  -31.0740   22.1370 N   0  0  0  0  0  0  0  0  0  0  0  0
  -23.5420  -32.1560   23.7790 O   0  0  0  0  0  0  0  0  0  0  0  0
  -22.7540  -29.4660   22.5650 C   0  0  0  0  0  0  0  0  0  0  0  0
  -21.4280  -29.2860   22.4480 N   0  0  0  0  0  0  0  0  0  0  0  0
  -23.4400  -28.8380   23.3790 O   0  0  0  0  0  0  0  0  0  0  0  0
  -20.9320  -29.8480   21.7690 H   0  0  0  0  0  0  0  0  0  0  0  0
  -18.0570  -28.0810   22.9580 C   0  0  0  0  0  0  0  0  0  0  0  0
  -20.6150  -28.3500   23.2250 C   0  0  0  0  0  3  0  0  0  0  0  0
  -20.7210  -26.9160   22.6560 C   0  0  0  0  0  2  0  0  0  0  0  0
  -19.6190  -26.5860   21.6430 C   0  0  0  0  0  2  0  0  0  0  0  0
  -18.2380  -26.7300   22.2890 C   0  0  0  0  0  2  0  0  0  0  0  0
  -19.1740  -28.8490   23.3850 C   0  0  0  0  0  0  0  0  0  0  0  0
  -18.9530  -30.1140   23.9710 C   0  0  0  0  0  3  0  0  0  0  0  0
  -17.6470  -30.6140   24.1350 C   0  0  0  0  0  3  0  0  0  0  0  0
  -16.5440  -29.8430   23.7260 C   0  0  0  0  0  3  0  0  0  0  0  0
  -16.7500  -28.5790   23.1460 C   0  0  0  0  0  3  0  0  0  0  0  0
  -25.9090  -32.5160   23.8500 C   0  0  0  0  0  3  0  0  0  0  0  0
  -26.4400  -31.7420   25.1190 C   0  0  1  0  0  0  0  0  0  0  0  0
  -25.3610  -31.5010   26.1990 C   0  0  0  0  0  1  0  0  0  0  0  0
  -27.0160  -30.3650   24.7140 C   0  0  0  0  0  1  0  0  0  0  0  0
  -27.5970  -32.5340   25.7720 C   0  0  0  0  0  1  0  0  0  0  0  0
  -25.6010  -33.9120   24.1870 N   0  0  0  0  0  0  0  0  0  0  0  0
  -25.9230  -34.9690   23.4280 C   0  0  0  0  0  0  0  0  0  0  0  0
  -26.5820  -34.8700   22.3900 O   0  0  0  0  0  0  0  0  0  0  0  0
  -25.0190  -34.0630   24.9980 H   0  0  0  0  0  0  0  0  0  0  0  0
  -24.1860  -36.7580   23.1020 C   0  0  0  0  0  1  0  0  0  0  0  0
  -25.4380  -36.3550   23.8950 C   0  0  0  0  0  3  0  0  0  0  0  0
  -27.5860  -37.2400   24.6940 C   0  0  0  0  0  1  0  0  0  0  0  0
  -26.4640  -37.4140   23.7750 N   0  0  0  0  0  0  0  0  0  0  0  0
  -26.0560  -38.3290   23.9450 H   0  0  0  0  0  0  0  0  0  0  0  0
  1  2  1  0
  1  3  1  0
  4  1  1  0
  4  5  1  0
  6  5  1  0
  7  6  2  0
  8 48  1  0
  8  6  1  0
  8 17  1  0
  9 17  1  0
 10 15  1  0
 11 12  1  0
 11 10  1  0
 13 12  1  0
 13 22  1  0
 13 14  1  0
 15  9  1  0
 15 14  1  0
 16  9  2  0
 17 18  1  0
 19 20  2  0
 20 39  1  0
 21 20  1  0
 21 24  1  0
 22 19  1  0
 22 23  1  0
 23 21  2  0
 24 25  1  0
 25 26  2  0
 27 30  1  0
 27 26  1  0
 28 27  2  0
 29 28  1  0
 29 24  2  0
 30 31  1  0
 31 32  1  0
 32 33  2  0
 34 33  1  0
 34 38  1  0
 35 34  2  0
 36 31  2  0
 36 35  1  0
 37 36  1  0
 39 40  1  0
 40 43  1  0
 40 42  1  0
 41 39  2  0
 44 45  1  0
 44 19  1  0
 46 44  1  0
 48 47  1  0
 49  1  1  0
 49 50  2  0
 51 50  1  0
 52 63  2  0
 53 51  1  0
 53 58  1  0
 54 62  1  0
 54 64  1  0
 55 61  1  0
 55 57  1  0
 56 62  1  0
 57 56  1  0
 58 57  2  0
 59 53  2  0
 60 59  1  0
 60 55  2  0
 61 54  1  0
 62 52  1  0
 64 66  2  0
 65 64  1  0
 67 65  1  0
 68 77  2  0
 68 73  1  0
 69 65  1  0
 69 73  1  0
 70 69  1  0
 71 72  1  0
 71 70  1  0
 72 68  1  0
 73 74  2  0
 74 75  1  0
 76 75  2  0
 77 76  1  0
 78 52  1  0
 78 83  1  0
 78 79  1  0
 79 82  1  1
 79 80  1  0
 81 79  1  0
 83 86  1  0
 84 88  1  0
 84 83  1  0
 85 84  2  0
 88 87  1  0
 90 88  1  0
 90 91  1  0
 90 89  1  0
M  ISO  4   9 100  17 100  50 101  51 101
M  END
>  <TORSDO>  (36) 
F 23

>  <SCORE>  (36) 
-12.774

>  <name>  (36) 
35

>  <ligand_id>  (36) 
35

>  <original_smiles>  (36) 
[H]c1c([H])c([H])c2c(c1[H])C([H])([H])C([H])([H])C([H])([H])C2([H])N([H])C(=O)C1([H])N(C(=O)C([H])(N([H])C(=O)C([H])(N([H])C([H])([H])[H])C([H])([H])[H])C(C([H])([H])[H])(C([H])([H])[H])C([H])([H])[H])C([H])([H])c2c([H])c(OC([H])([H])C([H])([H])[N+]([H])([H])C([H])([H])C([H])([H])C(=O)C([H])(N([H])C(=O)N3C([H])([H])C([H])([H])C([H])([H])C([H])(n4nc(-c5c([H])c([H])c(Oc6c([H])c([H])c(F)c([H])c6F)c([H])c5[H])c(C(=O)N([H])[H])c4N([H])[H])C3([H])[H])C([H])([H])C([H])([H])[H])c([H])c([H])c2C1([H])[H]

>  <smiles>  (36) 
[H]c1c([H])c([H])c2c(c1[H])C([H])([H])C([H])([H])C([H])([H])C2([H])N([H])C(=O)C1([H])N(C(=O)C([H])(N([H])C(=O)C([H])(N([H])C([H])([H])[H])C([H])([H])[H])C(C([H])([H])[H])(C([H])([H])[H])C([H])([H])[H])C([H])([H])c2c([H])c(OC([H])([H])C([H])([H])[N+]([H])([H])C([H])([H])C([H])([H])C(=O)C([H])(N([H])C(=O)N3C([H])([H])C([H])([H])C([H])([H])C([H])(n4nc(-c5c([H])c([H])c(Oc6c([H])c([H])c(F)c([H])c6F)c([H])c5[H])c(C(=O)N([H])[H])c4N([H])[H])C3([H])[H])C([H])([H])C([H])([H])[H])c([H])c([H])c2C1([H])[H]

$$$$
36:0:0
     RDKit          3D

 95103  0  0  1  0  0  0  0  0999 V2000
  -30.6930  -19.0890   19.9500 C   0  0  0  0  0  3  0  0  0  0  0  0
  -32.5450  -19.1350   22.5200 C   0  0  0  0  0  2  0  0  0  0  0  0
  -31.3060  -20.0140   22.3340 C   0  0  0  0  0  2  0  0  0  0  0  0
  -31.6380  -17.9430   22.2410 C   0  0  0  0  0  2  0  0  0  0  0  0
  -30.6520  -18.8900   21.4900 C   0  0  2  0  0  0  0  0  0  0  0  0
  -29.2560  -18.6060   21.9030 N   0  0  0  0  0  4  0  0  0  0  0  0
  -28.8970  -17.7980   21.4270 H   0  0  0  0  0  0  0  0  0  0  0  0
  -28.6450  -19.3780   21.6930 H   0  0  0  0  0  0  0  0  0  0  0  0
  -29.2010  -18.4200   22.8900 H   0  0  0  0  0  0  0  0  0  0  0  0
  -29.8650  -20.4920   19.4630 C   0  0  0  0  0  2  0  0  0  0  0  0
  -29.7610  -21.9840   20.2490 C   0  0  0  0  0  3  0  0  0  0  0  0
  -29.2510  -23.4690   19.6220 C   0  0  0  0  0  3  0  0  0  0  0  0
  -28.7370  -24.7940   20.5320 C   0  0  0  0  0  2  0  0  0  0  0  0
  -28.8220  -26.3110   20.2010 O   0  0  0  0  0  0  0  0  0  0  0  0
  -24.7770  -31.6830   23.2610 C   0  0  0  0  0  0  0  0  0  0  0  0
  -27.6850  -27.1960   20.2040 C   0  0  0  0  0  0  0  0  0  0  0  0
  -23.6990  -30.2770   21.5430 C   0  0  0  0  0  3  0  0  0  0  0  0
  -25.2650  -28.8050   20.1360 C   0  0  0  0  0  0  0  0  0  0  0  0
  -26.2380  -30.6770   21.4650 C   0  0  0  0  0  2  0  0  0  0  0  0
  -26.4030  -29.3050   20.7860 C   0  0  0  0  0  0  0  0  0  0  0  0
  -27.6180  -28.5230   20.7850 C   0  0  0  0  0  3  0  0  0  0  0  0
  -26.5130  -26.7810   19.5370 C   0  0  0  0  0  3  0  0  0  0  0  0
  -25.3320  -27.5570   19.4920 C   0  0  0  0  0  3  0  0  0  0  0  0
  -23.9950  -29.6410   20.1580 C   0  0  0  0  0  2  0  0  0  0  0  0
  -24.9210  -30.9030   22.1450 N   0  0  0  0  0  0  0  0  0  0  0  0
  -23.6630  -31.8970   23.7640 O   0  0  0  0  0  0  0  0  0  0  0  0
  -23.0370  -29.2190   22.4630 C   0  0  0  0  0  0  0  0  0  0  0  0
  -21.7290  -28.9700   22.2680 N   0  0  0  0  0  0  0  0  0  0  0  0
  -23.7030  -28.6220   23.3110 O   0  0  0  0  0  0  0  0  0  0  0  0
  -21.2430  -29.5130   21.5680 H   0  0  0  0  0  0  0  0  0  0  0  0
  -18.4120  -27.5380   22.5700 C   0  0  0  0  0  0  0  0  0  0  0  0
  -20.9280  -27.9710   22.9810 C   0  0  0  0  0  3  0  0  0  0  0  0
  -21.1560  -26.5550   22.4010 C   0  0  0  0  0  2  0  0  0  0  0  0
  -20.1370  -26.1700   21.3230 C   0  0  0  0  0  2  0  0  0  0  0  0
  -18.7150  -26.2130   21.8910 C   0  0  0  0  0  2  0  0  0  0  0  0
  -19.4500  -28.3710   23.0670 C   0  0  0  0  0  0  0  0  0  0  0  0
  -19.1110  -29.6060   23.6590 C   0  0  0  0  0  3  0  0  0  0  0  0
  -17.7650  -30.0120   23.7600 C   0  0  0  0  0  3  0  0  0  0  0  0
  -16.7440  -29.1810   23.2750 C   0  0  0  0  0  3  0  0  0  0  0  0
  -17.0660  -27.9440   22.6860 C   0  0  0  0  0  3  0  0  0  0  0  0
  -26.0030  -32.3590   23.9500 C   0  0  0  0  0  3  0  0  0  0  0  0
  -26.4460  -31.6350   25.2810 C   0  0  1  0  0  0  0  0  0  0  0  0
  -25.2890  -31.4050   26.2820 C   0  0  0  0  0  1  0  0  0  0  0  0
  -27.0770  -30.2620   24.9680 C   0  0  0  0  0  1  0  0  0  0  0  0
  -27.5370  -32.4680   25.9940 C   0  0  0  0  0  1  0  0  0  0  0  0
  -25.6430  -33.7600   24.2290 N   0  0  0  0  0  0  0  0  0  0  0  0
  -25.9890  -34.8070   23.4670 C   0  0  0  0  0  0  0  0  0  0  0  0
  -26.7090  -34.6940   22.4720 O   0  0  0  0  0  0  0  0  0  0  0  0
  -25.0130  -33.9130   25.0030 H   0  0  0  0  0  0  0  0  0  0  0  0
  -24.2300  -36.5470   23.0070 C   0  0  0  0  0  1  0  0  0  0  0  0
  -25.4520  -36.1950   23.8710 C   0  0  0  0  0  3  0  0  0  0  0  0
  -27.5310  -37.1600   24.7540 C   0  0  0  0  0  1  0  0  0  0  0  0
  -26.4620  -37.2710   23.7640 N   0  0  0  0  0  0  0  0  0  0  0  0
  -26.0270  -38.1850   23.8680 H   0  0  0  0  0  0  0  0  0  0  0  0
  -30.6360  -17.6420   19.0860 C   0  0  0  0  0  3  0  0  0  0  0  0
  -31.1590  -15.0390   19.6320 C   0  0  0  0  0  0  0  0  0  0  0  0
  -30.8740  -12.6830   18.8340 C   0  0  0  0  0  2  0  0  0  0  0  0
  -29.8710  -12.6810   17.6580 C   0  0  0  0  0  2  0  0  0  0  0  0
  -28.4230  -12.5490   18.1750 C   0  0  0  0  0  2  0  0  0  0  0  0
  -28.1250  -13.5140   19.3560 C   0  0  0  0  0  3  0  0  0  0  0  0
  -29.2540  -13.5230   20.4140 C   0  0  0  0  0  2  0  0  0  0  0  0
  -30.5120  -13.8200   19.7170 N   0  0  0  0  0  0  0  0  0  0  0  0
  -32.3370  -15.0640   19.2610 O   0  0  0  0  0  0  0  0  0  0  0  0
  -30.4120  -16.2240   19.7060 N   0  0  0  0  0  0  0  0  0  0  0  0
  -29.4680  -16.0460   20.0100 H   0  0  0  0  0  0  0  0  0  0  0  0
  -25.8430  -14.1890   20.3180 C   0  0  0  0  0  0  0  0  0  0  0  0
  -24.7690  -13.4600   20.7420 C   0  0  0  0  0  0  0  0  0  0  0  0
  -25.1450  -12.0870   20.6050 C   0  0  0  0  0  0  0  0  0  0  0  0
  -26.8110  -13.2710   19.9510 N   0  0  0  0  0  0  0  0  0  0  0  0
  -26.4030  -11.9960   20.1890 N   0  0  0  0  0  0  0  0  0  0  0  0
  -24.3610  -10.8610   20.7880 C   0  0  0  0  0  0  0  0  0  0  0  0
  -24.7630   -9.8520   21.6920 C   0  0  0  0  0  3  0  0  0  0  0  0
  -23.9780   -8.6930   21.8660 C   0  0  0  0  0  3  0  0  0  0  0  0
  -22.7770   -8.5290   21.1360 C   0  0  0  0  0  0  0  0  0  0  0  0
  -22.3950   -9.5240   20.2200 C   0  0  0  0  0  3  0  0  0  0  0  0
  -23.1790  -10.6750   20.0430 C   0  0  0  0  0  3  0  0  0  0  0  0
  -21.9650   -7.4230   21.2220 O   0  0  0  0  0  0  0  0  0  0  0  0
  -21.8500   -6.7020   22.3830 C   0  0  0  0  0  0  0  0  0  0  0  0
  -21.3840   -7.2890   23.5800 C   0  0  0  0  0  3  0  0  0  0  0  0
  -21.2160   -6.4950   24.7330 C   0  0  0  0  0  3  0  0  0  0  0  0
  -21.4990   -5.1170   24.6860 C   0  0  0  0  0  0  0  0  0  0  0  0
  -21.9560   -4.5310   23.4930 C   0  0  0  0  0  3  0  0  0  0  0  0
  -22.1280   -5.3220   22.3440 C   0  0  0  0  0  0  0  0  0  0  0  0
  -22.5480   -4.7470   21.1910 F   0  0  0  0  0  0  0  0  0  0  0  0
  -21.3300   -4.3520   25.7910 F   0  0  0  0  0  0  0  0  0  0  0  0
  -23.4260  -13.9980   21.1450 C   0  0  0  0  0  0  0  0  0  0  0  0
  -22.7250  -13.3070   22.0370 N   0  0  0  0  0  0  0  0  0  0  0  0
  -23.0130  -15.0710   20.7050 O   0  0  0  0  0  0  0  0  0  0  0  0
  -23.0700  -12.4410   22.4220 H   0  0  0  0  0  0  0  0  0  0  0  0
  -21.8260  -13.6530   22.3450 H   0  0  0  0  0  0  0  0  0  0  0  0
  -26.0680  -15.5590   20.1760 N   0  0  0  0  0  0  0  0  0  0  0  0
  -25.2450  -16.1520   20.2150 H   0  0  0  0  0  0  0  0  0  0  0  0
  -26.7340  -15.8760   19.4830 H   0  0  0  0  0  0  0  0  0  0  0  0
  -30.3270  -18.3160   16.6060 C   0  0  0  0  0  1  0  0  0  0  0  0
  -29.6700  -17.7580   17.8810 C   0  0  0  0  0  2  0  0  0  0  0  0
  1 10  1  0
  5  1  1  6
  3  2  1  0
  4  2  1  0
  5  6  1  0
  5  4  1  0
  5  3  1  0
  6  9  1  0
  7  6  1  0
  8  6  1  0
 10 11  1  0
 12 11  2  0
 12 13  1  0
 14 16  1  0
 14 13  1  0
 15 26  2  0
 16 21  1  0
 17 25  1  0
 17 27  1  0
 18 24  1  0
 18 20  1  0
 19 25  1  0
 20 19  1  0
 21 20  2  0
 22 16  2  0
 23 22  1  0
 23 18  2  0
 24 17  1  0
 25 15  1  0
 27 29  2  0
 28 27  1  0
 30 28  1  0
 31 40  2  0
 31 36  1  0
 32 28  1  0
 32 36  1  0
 33 32  1  0
 34 35  1  0
 34 33  1  0
 35 31  1  0
 36 37  2  0
 37 38  1  0
 39 38  2  0
 40 39  1  0
 41 15  1  0
 41 46  1  0
 41 42  1  0
 42 45  1  1
 42 43  1  0
 44 42  1  0
 46 49  1  0
 47 51  1  0
 47 46  1  0
 48 47  2  0
 51 50  1  0
 53 54  1  0
 53 51  1  0
 53 52  1  0
 55 95  1  0
 55 64  1  0
 55  1  1  0
 56 64  1  0
 56 62  1  0
 57 62  1  0
 58 59  1  0
 58 57  1  0
 60 59  1  0
 60 69  1  0
 60 61  1  0
 62 61  1  0
 63 56  2  0
 64 65  1  0
 66 67  2  0
 67 86  1  0
 68 67  1  0
 68 71  1  0
 69 70  1  0
 69 66  1  0
 70 68  2  0
 71 72  1  0
 72 73  2  0
 74 77  1  0
 74 73  1  0
 75 74  2  0
 76 75  1  0
 76 71  2  0
 77 78  1  0
 78 79  1  0
 79 80  2  0
 81 80  1  0
 81 85  1  0
 82 81  2  0
 83 78  2  0
 83 82  1  0
 84 83  1  0
 86 87  1  0
 87 90  1  0
 87 89  1  0
 88 86  2  0
 91 92  1  0
 91 66  1  0
 93 91  1  0
 94 95  1  0
M  ISO  4  13 101  14 101  56 100  64 100
M  END
>  <TORSDO>  (37) 
F 24

>  <SCORE>  (37) 
-10.808

>  <name>  (37) 
36

>  <ligand_id>  (37) 
36

>  <original_smiles>  (37) 
[H]c1c([H])c([H])c2c(c1[H])C([H])([H])C([H])([H])C([H])([H])C2([H])N([H])C(=O)C1([H])N(C(=O)C([H])(N([H])C(=O)C([H])(N([H])C([H])([H])[H])C([H])([H])[H])C(C([H])([H])[H])(C([H])([H])[H])C([H])([H])[H])C([H])([H])c2c([H])c(OC([H])([H])C([H])([H])C([H])([H])C([H])([H])C([H])(C([H])(N([H])C(=O)N3C([H])([H])C([H])([H])C([H])([H])C([H])(n4nc(-c5c([H])c([H])c(Oc6c([H])c([H])c(F)c([H])c6F)c([H])c5[H])c(C(=O)N([H])[H])c4N([H])[H])C3([H])[H])C([H])([H])C([H])([H])[H])C3([N+]([H])([H])[H])C([H])([H])C([H])([H])C3([H])[H])c([H])c([H])c2C1([H])[H]

>  <smiles>  (37) 
[H]c1c([H])c([H])c2c(c1[H])C([H])([H])C([H])([H])C([H])([H])C2([H])N([H])C(=O)C1([H])N(C(=O)C([H])(N([H])C(=O)C([H])(N([H])C([H])([H])[H])C([H])([H])[H])C(C([H])([H])[H])(C([H])([H])[H])C([H])([H])[H])C([H])([H])c2c([H])c(OC([H])([H])C([H])([H])C([H])([H])C([H])([H])C([H])(C([H])(N([H])C(=O)N3C([H])([H])C([H])([H])C([H])([H])C([H])(n4nc(-c5c([H])c([H])c(Oc6c([H])c([H])c(F)c([H])c6F)c([H])c5[H])c(C(=O)N([H])[H])c4N([H])[H])C3([H])[H])C([H])([H])C([H])([H])[H])C3([N+]([H])([H])[H])C([H])([H])C([H])([H])C3([H])[H])c([H])c([H])c2C1([H])[H]

$$$$
37:0:0
     RDKit          3D

 89 96  0  0  1  0  0  0  0  0999 V2000
  -29.3030  -21.7610   20.7310 C   0  0  0  0  0  2  0  0  0  0  0  0
  -28.8550  -22.9150   19.7900 C   0  0  0  0  0  2  0  0  0  0  0  0
  -28.7070  -24.2980   20.4830 C   0  0  0  0  0  2  0  0  0  0  0  0
  -28.6150  -25.4980   19.5040 C   0  0  0  0  0  2  0  0  0  0  0  0
  -28.4420  -26.7570   20.1850 O   0  0  0  0  0  0  0  0  0  0  0  0
  -24.5730  -31.8880   23.2710 C   0  0  0  0  0  0  0  0  0  0  0  0
  -27.2330  -27.4360   20.1830 C   0  0  0  0  0  0  0  0  0  0  0  0
  -23.3710  -30.4820   21.6320 C   0  0  0  0  0  3  0  0  0  0  0  0
  -24.8260  -28.9460   20.2100 C   0  0  0  0  0  0  0  0  0  0  0  0
  -25.8990  -30.8410   21.4340 C   0  0  0  0  0  2  0  0  0  0  0  0
  -25.9850  -29.4690   20.7940 C   0  0  0  0  0  0  0  0  0  0  0  0
  -27.1860  -28.7220   20.7770 C   0  0  0  0  0  3  0  0  0  0  0  0
  -26.0410  -26.9190   19.6210 C   0  0  0  0  0  3  0  0  0  0  0  0
  -24.8490  -27.6690   19.6250 C   0  0  0  0  0  3  0  0  0  0  0  0
  -23.5820  -29.8020   20.2530 C   0  0  0  0  0  2  0  0  0  0  0  0
  -24.6320  -31.0870   22.1700 N   0  0  0  0  0  0  0  0  0  0  0  0
  -23.4900  -32.1580   23.8100 O   0  0  0  0  0  0  0  0  0  0  0  0
  -22.7230  -29.4600   22.5930 C   0  0  0  0  0  0  0  0  0  0  0  0
  -21.4000  -29.2710   22.4630 N   0  0  0  0  0  0  0  0  0  0  0  0
  -23.4080  -28.8370   23.4090 O   0  0  0  0  0  0  0  0  0  0  0  0
  -20.9080  -29.8250   21.7760 H   0  0  0  0  0  0  0  0  0  0  0  0
  -18.0290  -28.0680   22.9600 C   0  0  0  0  0  0  0  0  0  0  0  0
  -20.5850  -28.3320   23.2340 C   0  0  0  0  0  3  0  0  0  0  0  0
  -20.6930  -26.9010   22.6570 C   0  0  0  0  0  2  0  0  0  0  0  0
  -19.5920  -26.5760   21.6420 C   0  0  0  0  0  2  0  0  0  0  0  0
  -18.2090  -26.7190   22.2850 C   0  0  0  0  0  2  0  0  0  0  0  0
  -19.1450  -28.8330   23.3910 C   0  0  0  0  0  0  0  0  0  0  0  0
  -18.9240  -30.0970   23.9800 C   0  0  0  0  0  3  0  0  0  0  0  0
  -17.6180  -30.5960   24.1430 C   0  0  0  0  0  3  0  0  0  0  0  0
  -16.5150  -29.8280   23.7290 C   0  0  0  0  0  3  0  0  0  0  0  0
  -16.7220  -28.5670   23.1430 C   0  0  0  0  0  3  0  0  0  0  0  0
  -25.8570  -32.5240   23.8900 C   0  0  0  0  0  3  0  0  0  0  0  0
  -26.3730  -31.7610   25.1710 C   0  0  1  0  0  0  0  0  0  0  0  0
  -25.2810  -31.5260   26.2400 C   0  0  0  0  0  1  0  0  0  0  0  0
  -26.9600  -30.3830   24.7860 C   0  0  0  0  0  1  0  0  0  0  0  0
  -27.5230  -32.5610   25.8300 C   0  0  0  0  0  1  0  0  0  0  0  0
  -25.5460  -33.9240   24.2090 N   0  0  0  0  0  0  0  0  0  0  0  0
  -25.8810  -34.9720   23.4430 C   0  0  0  0  0  0  0  0  0  0  0  0
  -26.5550  -34.8610   22.4150 O   0  0  0  0  0  0  0  0  0  0  0  0
  -24.9500  -34.0840   25.0080 H   0  0  0  0  0  0  0  0  0  0  0  0
  -24.1550  -36.7620   23.0660 C   0  0  0  0  0  1  0  0  0  0  0  0
  -25.3900  -36.3620   23.8890 C   0  0  0  0  0  3  0  0  0  0  0  0
  -27.5200  -37.2510   24.7300 C   0  0  0  0  0  1  0  0  0  0  0  0
  -26.4240  -37.4150   23.7780 N   0  0  0  0  0  0  0  0  0  0  0  0
  -26.0160  -38.3350   23.9190 H   0  0  0  0  0  0  0  0  0  0  0  0
  -29.2480  -20.3420   20.0920 C   0  0  0  0  0  2  0  0  0  0  0  0
  -29.8600  -19.2850   20.9440 N   0  0  0  0  0  4  0  0  0  0  0  0
  -29.5060  -19.3900   21.8820 H   0  0  0  0  0  0  0  0  0  0  0  0
  -30.8550  -19.4380   20.9740 H   0  0  0  0  0  0  0  0  0  0  0  0
  -29.6010  -17.8810   20.5160 C   0  0  0  0  0  2  0  0  0  0  0  0
  -30.3540  -16.8330   21.3870 C   0  0  0  0  0  2  0  0  0  0  0  0
  -30.6360  -14.4870   20.4560 C   0  0  0  0  0  0  0  0  0  0  0  0
  -30.3350  -12.3580   19.2370 C   0  0  0  0  0  2  0  0  0  0  0  0
  -29.3660  -12.5750   18.0560 C   0  0  0  0  0  2  0  0  0  0  0  0
  -27.8980  -12.4290   18.5080 C   0  0  0  0  0  2  0  0  0  0  0  0
  -27.5830  -13.2450   19.7880 C   0  0  0  0  0  3  0  0  0  0  0  0
  -28.6520  -12.9870   20.8740 C   0  0  0  0  0  2  0  0  0  0  0  0
  -29.9690  -13.3120   20.2960 N   0  0  0  0  0  0  0  0  0  0  0  0
  -31.7360  -14.7150   19.9480 O   0  0  0  0  0  0  0  0  0  0  0  0
  -29.9530  -15.4420   21.1160 N   0  0  0  0  0  0  0  0  0  0  0  0
  -29.0550  -15.1540   21.4770 H   0  0  0  0  0  0  0  0  0  0  0  0
  -25.1900  -13.8540   20.5190 C   0  0  0  0  0  0  0  0  0  0  0  0
  -24.1260  -13.0820   20.8980 C   0  0  0  0  0  0  0  0  0  0  0  0
  -24.5860  -11.7300   20.8600 C   0  0  0  0  0  0  0  0  0  0  0  0
  -26.2330  -12.9730   20.2790 N   0  0  0  0  0  0  0  0  0  0  0  0
  -25.8730  -11.6910   20.5400 N   0  0  0  0  0  0  0  0  0  0  0  0
  -23.8620  -10.4680   21.0550 C   0  0  0  0  0  0  0  0  0  0  0  0
  -24.3100   -9.4950   21.9750 C   0  0  0  0  0  3  0  0  0  0  0  0
  -23.5880   -8.2960   22.1570 C   0  0  0  0  0  3  0  0  0  0  0  0
  -22.4040   -8.0620   21.4190 C   0  0  0  0  0  0  0  0  0  0  0  0
  -21.9740   -9.0240   20.4880 C   0  0  0  0  0  3  0  0  0  0  0  0
  -22.6970  -10.2150   20.3040 C   0  0  0  0  0  3  0  0  0  0  0  0
  -21.6510   -6.9160   21.5110 O   0  0  0  0  0  0  0  0  0  0  0  0
  -21.6270   -6.1610   22.6570 C   0  0  0  0  0  0  0  0  0  0  0  0
  -21.2250   -6.7030   23.8970 C   0  0  0  0  0  3  0  0  0  0  0  0
  -21.1490   -5.8740   25.0340 C   0  0  0  0  0  3  0  0  0  0  0  0
  -21.4630   -4.5060   24.9330 C   0  0  0  0  0  0  0  0  0  0  0  0
  -21.8590   -3.9650   23.6970 C   0  0  0  0  0  3  0  0  0  0  0  0
  -21.9370   -4.7900   22.5610 C   0  0  0  0  0  0  0  0  0  0  0  0
  -22.2980   -4.2590   21.3690 F   0  0  0  0  0  0  0  0  0  0  0  0
  -21.3830   -3.7080   26.0230 F   0  0  0  0  0  0  0  0  0  0  0  0
  -22.7310  -13.5580   21.1840 C   0  0  0  0  0  0  0  0  0  0  0  0
  -22.0100  -12.8590   22.0550 N   0  0  0  0  0  0  0  0  0  0  0  0
  -22.2870  -14.5860   20.6740 O   0  0  0  0  0  0  0  0  0  0  0  0
  -22.3820  -12.0270   22.4900 H   0  0  0  0  0  0  0  0  0  0  0  0
  -21.0760  -13.1590   22.2900 H   0  0  0  0  0  0  0  0  0  0  0  0
  -25.3540  -15.2240   20.3390 N   0  0  0  0  0  0  0  0  0  0  0  0
  -24.5840  -15.8780   20.4420 H   0  0  0  0  0  0  0  0  0  0  0  0
  -26.1930  -15.6560   19.9730 H   0  0  0  0  0  0  0  0  0  0  0  0
  2  3  1  0
  2  1  1  0
  4  5  1  0
  4  3  1  0
  6 17  2  0
  7  5  1  0
  7 12  1  0
  8 16  1  0
  8 18  1  0
  9 15  1  0
  9 11  1  0
 10 16  1  0
 11 10  1  0
 12 11  2  0
 13 14  1  0
 13  7  2  0
 14  9  2  0
 15  8  1  0
 16  6  1  0
 18 20  2  0
 19 18  1  0
 21 19  1  0
 22 31  2  0
 22 27  1  0
 23 19  1  0
 23 27  1  0
 24 23  1  0
 25 26  1  0
 25 24  1  0
 26 22  1  0
 27 28  2  0
 28 29  1  0
 30 29  2  0
 31 30  1  0
 32  6  1  0
 32 37  1  0
 32 33  1  0
 33 36  1  1
 33 34  1  0
 35 33  1  0
 37 40  1  0
 38 42  1  0
 38 37  1  0
 39 38  2  0
 42 41  1  0
 44 42  1  0
 44 45  1  0
 44 43  1  0
 46  1  1  0
 46 47  1  0
 47 49  1  0
 47 48  1  0
 50 47  1  0
 50 51  1  0
 52 60  1  0
 53 58  1  0
 54 55  1  0
 54 53  1  0
 56 55  1  0
 56 65  1  0
 56 57  1  0
 58 52  1  0
 58 57  1  0
 59 52  2  0
 60 51  1  0
 60 61  1  0
 62 63  2  0
 63 82  1  0
 64 63  1  0
 64 67  1  0
 65 62  1  0
 65 66  1  0
 66 64  2  0
 67 68  1  0
 68 69  2  0
 70 73  1  0
 70 69  1  0
 71 70  2  0
 72 71  1  0
 72 67  2  0
 73 74  1  0
 74 75  1  0
 75 76  2  0
 77 76  1  0
 77 81  1  0
 78 77  2  0
 79 74  2  0
 79 78  1  0
 80 79  1  0
 82 83  1  0
 83 86  1  0
 83 85  1  0
 84 82  2  0
 87 88  1  0
 87 62  1  0
 89 87  1  0
M  ISO  4   4 101   5 101  52 100  60 100
M  END
>  <TORSDO>  (38) 
F 23

>  <SCORE>  (38) 
-12.782

>  <name>  (38) 
37

>  <ligand_id>  (38) 
37

>  <original_smiles>  (38) 
[H]c1c([H])c([H])c2c(c1[H])C([H])([H])C([H])([H])C([H])([H])C2([H])N([H])C(=O)C1([H])N(C(=O)C([H])(N([H])C(=O)C([H])(N([H])C([H])([H])[H])C([H])([H])[H])C(C([H])([H])[H])(C([H])([H])[H])C([H])([H])[H])C([H])([H])c2c([H])c(OC([H])([H])C([H])([H])C([H])([H])C([H])([H])C([H])([H])[N+]([H])([H])C([H])([H])C([H])([H])N([H])C(=O)N3C([H])([H])C([H])([H])C([H])([H])C([H])(n4nc(-c5c([H])c([H])c(Oc6c([H])c([H])c(F)c([H])c6F)c([H])c5[H])c(C(=O)N([H])[H])c4N([H])[H])C3([H])[H])c([H])c([H])c2C1([H])[H]

>  <smiles>  (38) 
[H]c1c([H])c([H])c2c(c1[H])C([H])([H])C([H])([H])C([H])([H])C2([H])N([H])C(=O)C1([H])N(C(=O)C([H])(N([H])C(=O)C([H])(N([H])C([H])([H])[H])C([H])([H])[H])C(C([H])([H])[H])(C([H])([H])[H])C([H])([H])[H])C([H])([H])c2c([H])c(OC([H])([H])C([H])([H])C([H])([H])C([H])([H])C([H])([H])[N+]([H])([H])C([H])([H])C([H])([H])N([H])C(=O)N3C([H])([H])C([H])([H])C([H])([H])C([H])(n4nc(-c5c([H])c([H])c(Oc6c([H])c([H])c(F)c([H])c6F)c([H])c5[H])c(C(=O)N([H])[H])c4N([H])[H])C3([H])[H])c([H])c([H])c2C1([H])[H]

$$$$
38:0:0
     RDKit          3D

 92101  0  0  1  0  0  0  0  0999 V2000
  -26.9750  -22.7320   21.1310 C   0  0  0  0  0  2  0  0  0  0  0  0
  -27.9520  -23.5030   21.9380 N   0  0  0  0  0  4  0  0  0  0  0  0
  -28.8810  -23.1430   21.7870 H   0  0  0  0  0  0  0  0  0  0  0  0
  -27.7300  -23.3360   22.9080 H   0  0  0  0  0  0  0  0  0  0  0  0
  -27.9370  -24.9800   21.7300 C   0  0  0  0  0  2  0  0  0  0  0  0
  -28.6110  -25.4580   20.4170 C   0  0  0  0  0  2  0  0  0  0  0  0
  -28.6960  -26.8930   20.3610 O   0  0  0  0  0  0  0  0  0  0  0  0
  -24.6840  -31.9280   23.3560 C   0  0  0  0  0  0  0  0  0  0  0  0
  -27.5130  -27.5980   20.2900 C   0  0  0  0  0  0  0  0  0  0  0  0
  -23.5690  -30.5430   21.6400 C   0  0  0  0  0  3  0  0  0  0  0  0
  -25.0990  -29.0640   20.2400 C   0  0  0  0  0  0  0  0  0  0  0  0
  -26.0940  -30.9480   21.5450 C   0  0  0  0  0  2  0  0  0  0  0  0
  -26.2270  -29.5960   20.8770 C   0  0  0  0  0  0  0  0  0  0  0  0
  -27.4400  -28.8750   20.8880 C   0  0  0  0  0  3  0  0  0  0  0  0
  -26.3690  -27.0820   19.6370 C   0  0  0  0  0  3  0  0  0  0  0  0
  -25.1680  -27.8100   19.6110 C   0  0  0  0  0  3  0  0  0  0  0  0
  -23.8440  -29.9030   20.2530 C   0  0  0  0  0  2  0  0  0  0  0  0
  -24.7990  -31.1550   22.2380 N   0  0  0  0  0  0  0  0  0  0  0  0
  -23.5790  -32.1650   23.8610 O   0  0  0  0  0  0  0  0  0  0  0  0
  -22.9030  -29.4870   22.5500 C   0  0  0  0  0  0  0  0  0  0  0  0
  -21.5860  -29.2880   22.3690 N   0  0  0  0  0  0  0  0  0  0  0  0
  -23.5660  -28.8500   23.3740 O   0  0  0  0  0  0  0  0  0  0  0  0
  -21.1150  -29.8660   21.6840 H   0  0  0  0  0  0  0  0  0  0  0  0
  -18.2130  -28.0180   22.7010 C   0  0  0  0  0  0  0  0  0  0  0  0
  -20.7520  -28.3210   23.0870 C   0  0  0  0  0  3  0  0  0  0  0  0
  -20.9040  -26.9000   22.4990 C   0  0  0  0  0  2  0  0  0  0  0  0
  -19.8560  -26.5720   21.4290 C   0  0  0  0  0  2  0  0  0  0  0  0
  -18.4440  -26.6900   22.0020 C   0  0  0  0  0  2  0  0  0  0  0  0
  -19.2970  -28.7920   23.1950 C   0  0  0  0  0  0  0  0  0  0  0  0
  -19.0270  -30.0400   23.7990 C   0  0  0  0  0  3  0  0  0  0  0  0
  -17.7070  -30.5090   23.9200 C   0  0  0  0  0  3  0  0  0  0  0  0
  -16.6380  -29.7330   23.4400 C   0  0  0  0  0  3  0  0  0  0  0  0
  -16.8920  -28.4910   22.8360 C   0  0  0  0  0  3  0  0  0  0  0  0
  -25.9330  -32.5670   24.0380 C   0  0  0  0  0  3  0  0  0  0  0  0
  -25.6020  -33.9640   24.3480 N   0  0  0  0  0  0  0  0  0  0  0  0
  -25.9640  -35.0160   23.6010 C   0  0  0  0  0  0  0  0  0  0  0  0
  -26.6830  -34.9130   22.6030 O   0  0  0  0  0  0  0  0  0  0  0  0
  -24.9690  -34.1150   25.1190 H   0  0  0  0  0  0  0  0  0  0  0  0
  -24.2370  -36.7910   23.1610 C   0  0  0  0  0  1  0  0  0  0  0  0
  -25.4460  -36.4030   24.0280 C   0  0  0  0  0  3  0  0  0  0  0  0
  -27.5390  -37.3050   24.9410 C   0  0  0  0  0  1  0  0  0  0  0  0
  -26.4750  -37.4630   23.9530 N   0  0  0  0  0  0  0  0  0  0  0  0
  -26.0590  -38.3810   24.0810 H   0  0  0  0  0  0  0  0  0  0  0  0
  -26.3960  -31.7990   25.3360 C   0  0  1  0  0  0  0  0  0  0  0  0
  -25.2540  -31.5460   26.3480 C   0  0  0  0  0  1  0  0  0  0  0  0
  -27.0130  -30.4310   24.9650 C   0  0  0  0  0  1  0  0  0  0  0  0
  -27.5070  -32.6040   26.0490 C   0  0  0  0  0  1  0  0  0  0  0  0
  -27.1760  -21.1980   21.1970 C   0  0  0  0  0  2  0  0  0  0  0  0
  -28.5090  -20.7240   20.5680 C   0  0  0  0  0  2  0  0  0  0  0  0
  -27.6710  -18.7860   18.9990 C   0  0  0  0  0  2  0  0  0  0  0  0
  -27.5570  -18.2100   20.3870 C   0  0  0  0  0  2  0  0  0  0  0  0
  -28.6060  -19.2650   20.0810 C   0  0  2  0  0  0  0  0  0  0  0  0
  -30.0820  -18.9080   19.8820 C   0  0  0  0  0  2  0  0  0  0  0  0
  -32.0930  -17.5380   20.0580 C   0  0  0  0  0  2  0  0  0  0  0  0
  -31.1640  -16.3920   19.6950 C   0  0  0  0  0  3  0  0  0  0  0  0
  -30.6730  -17.6310   20.5000 C   0  0  0  0  0  3  0  0  0  0  0  0
  -31.8290  -15.1080   20.1610 C   0  0  0  0  0  0  0  0  0  0  0  0
  -31.4510  -12.8060   19.4460 C   0  0  0  0  0  2  0  0  0  0  0  0
  -30.6040  -12.8580   18.1590 C   0  0  0  0  0  2  0  0  0  0  0  0
  -29.1070  -12.8290   18.5180 C   0  0  0  0  0  2  0  0  0  0  0  0
  -28.7230  -13.8740   19.6010 C   0  0  0  0  0  3  0  0  0  0  0  0
  -29.7180  -13.8810   20.7820 C   0  0  0  0  0  2  0  0  0  0  0  0
  -31.0800  -13.9790   20.2530 N   0  0  0  0  0  0  0  0  0  0  0  0
  -33.0510  -15.0330   20.0150 O   0  0  0  0  0  0  0  0  0  0  0  0
  -26.3620  -14.6460   20.2590 C   0  0  0  0  0  0  0  0  0  0  0  0
  -25.2300  -13.9630   20.6000 C   0  0  0  0  0  0  0  0  0  0  0  0
  -25.5870  -12.5810   20.5780 C   0  0  0  0  0  0  0  0  0  0  0  0
  -27.3450  -13.6920   20.0550 N   0  0  0  0  0  0  0  0  0  0  0  0
  -26.8800  -12.4420   20.3080 N   0  0  0  0  0  0  0  0  0  0  0  0
  -24.7580  -11.3810   20.7370 C   0  0  0  0  0  0  0  0  0  0  0  0
  -25.0600  -10.4010   21.7080 C   0  0  0  0  0  3  0  0  0  0  0  0
  -24.2360   -9.2640   21.8540 C   0  0  0  0  0  3  0  0  0  0  0  0
  -23.1000   -9.1020   21.0280 C   0  0  0  0  0  0  0  0  0  0  0  0
  -22.8180  -10.0680   20.0490 C   0  0  0  0  0  3  0  0  0  0  0  0
  -23.6410  -11.1960   19.9000 C   0  0  0  0  0  3  0  0  0  0  0  0
  -22.2570   -8.0170   21.0820 O   0  0  0  0  0  0  0  0  0  0  0  0
  -22.0450   -7.3310   22.2510 C   0  0  0  0  0  0  0  0  0  0  0  0
  -21.5830   -7.9740   23.4200 C   0  0  0  0  0  3  0  0  0  0  0  0
  -21.3110   -7.2210   24.5780 C   0  0  0  0  0  3  0  0  0  0  0  0
  -21.4930   -5.8240   24.5690 C   0  0  0  0  0  0  0  0  0  0  0  0
  -21.9490   -5.1810   23.4050 C   0  0  0  0  0  3  0  0  0  0  0  0
  -22.2220   -5.9330   22.2490 C   0  0  0  0  0  0  0  0  0  0  0  0
  -22.6410   -5.3060   21.1230 F   0  0  0  0  0  0  0  0  0  0  0  0
  -21.2240   -5.0980   25.6790 F   0  0  0  0  0  0  0  0  0  0  0  0
  -23.8690  -14.5530   20.8310 C   0  0  0  0  0  0  0  0  0  0  0  0
  -23.0700  -13.9290   21.6920 N   0  0  0  0  0  0  0  0  0  0  0  0
  -23.5230  -15.5990   20.2850 O   0  0  0  0  0  0  0  0  0  0  0  0
  -23.3610  -13.0820   22.1550 H   0  0  0  0  0  0  0  0  0  0  0  0
  -22.1540  -14.3060   21.8890 H   0  0  0  0  0  0  0  0  0  0  0  0
  -26.6280  -15.9920   20.0790 N   0  0  0  0  0  0  0  0  0  0  0  0
  -25.9210  -16.7100   20.1940 H   0  0  0  0  0  0  0  0  0  0  0  0
  -27.5340  -16.3610   19.8240 H   0  0  0  0  0  0  0  0  0  0  0  0
  1 48  1  0
  1  2  1  0
  2  4  1  0
  3  2  1  0
  5  2  1  0
  6  5  1  0
  7  6  1  0
  8 19  2  0
  9  7  1  0
  9 14  1  0
 10 18  1  0
 10 20  1  0
 11 17  1  0
 11 13  1  0
 12 18  1  0
 13 14  2  0
 13 12  1  0
 15  9  2  0
 16 15  1  0
 16 11  2  0
 17 10  1  0
 18  8  1  0
 20 22  2  0
 21 20  1  0
 23 21  1  0
 24 33  2  0
 24 29  1  0
 25 21  1  0
 25 29  1  0
 26 25  1  0
 27 28  1  0
 27 26  1  0
 28 24  1  0
 29 30  2  0
 30 31  1  0
 32 31  2  0
 33 32  1  0
 34  8  1  0
 34 35  1  0
 34 44  1  0
 35 38  1  0
 36 40  1  0
 36 35  1  0
 37 36  2  0
 40 39  1  0
 42 40  1  0
 42 43  1  0
 42 41  1  0
 44 47  1  1
 44 45  1  0
 46 44  1  0
 49 48  1  0
 50 52  1  0
 50 51  1  0
 52 51  1  0
 52 49  1  1
 53 52  1  0
 54 56  1  0
 55 54  1  0
 55 57  1  0
 55 56  1  0
 56 53  1  0
 57 63  1  0
 58 63  1  0
 59 60  1  0
 59 58  1  0
 61 60  1  0
 61 68  1  0
 61 62  1  0
 63 62  1  0
 64 57  2  0
 65 66  2  0
 66 85  1  0
 67 66  1  0
 67 70  1  0
 68 65  1  0
 68 69  1  0
 69 67  2  0
 70 71  1  0
 71 72  2  0
 73 76  1  0
 73 72  1  0
 74 73  2  0
 75 74  1  0
 75 70  2  0
 76 77  1  0
 77 78  1  0
 78 79  2  0
 80 79  1  0
 80 84  1  0
 81 80  2  0
 82 77  2  0
 82 81  1  0
 83 82  1  0
 85 86  1  0
 86 89  1  0
 86 88  1  0
 87 85  2  0
 90 91  1  0
 90 65  1  0
 92 90  1  0
M  ISO  4   6 101   7 101  55 100  57 100
M  END
>  <TORSDO>  (39) 
F 24

>  <SCORE>  (39) 
-10.411

>  <name>  (39) 
38

>  <ligand_id>  (39) 
38

>  <original_smiles>  (39) 
[H]c1c([H])c([H])c2c(c1[H])C([H])([H])C([H])([H])C([H])([H])C2([H])N([H])C(=O)C1([H])N(C(=O)C([H])(N([H])C(=O)C([H])(N([H])C([H])([H])[H])C([H])([H])[H])C(C([H])([H])[H])(C([H])([H])[H])C([H])([H])[H])C([H])([H])c2c([H])c(OC([H])([H])C([H])([H])[N+]([H])([H])C([H])([H])C([H])([H])C([H])([H])C3(C([H])([H])C4([H])C([H])([H])C4([H])C(=O)N4C([H])([H])C([H])([H])C([H])([H])C([H])(n5nc(-c6c([H])c([H])c(Oc7c([H])c([H])c(F)c([H])c7F)c([H])c6[H])c(C(=O)N([H])[H])c5N([H])[H])C4([H])[H])C([H])([H])C3([H])[H])c([H])c([H])c2C1([H])[H]

>  <smiles>  (39) 
[H]c1c([H])c([H])c2c(c1[H])C([H])([H])C([H])([H])C([H])([H])C2([H])N([H])C(=O)C1([H])N(C(=O)C([H])(N([H])C(=O)C([H])(N([H])C([H])([H])[H])C([H])([H])[H])C(C([H])([H])[H])(C([H])([H])[H])C([H])([H])[H])C([H])([H])c2c([H])c(OC([H])([H])C([H])([H])[N+]([H])([H])C([H])([H])C([H])([H])C([H])([H])C3(C([H])([H])C4([H])C([H])([H])C4([H])C(=O)N4C([H])([H])C([H])([H])C([H])([H])C([H])(n5nc(-c6c([H])c([H])c(Oc7c([H])c([H])c(F)c([H])c7F)c([H])c6[H])c(C(=O)N([H])[H])c5N([H])[H])C4([H])[H])C([H])([H])C3([H])[H])c([H])c([H])c2C1([H])[H]

$$$$
39:0:0
     RDKit          3D

 81 85  0  0  1  0  0  0  0  0999 V2000
  -28.1090  -24.6470   20.3000 O   0  0  0  0  0  1  0  0  0  0  0  0
  -24.7100  -31.7810   23.1610 C   0  0  0  0  0  0  0  0  0  0  0  0
  -27.2070  -26.1440   20.2640 C   0  0  0  0  0  0  0  0  0  0  0  0
  -23.5560  -30.3680   21.5220 C   0  0  0  0  0  3  0  0  0  0  0  0
  -25.0090  -28.5810   20.1690 C   0  0  0  0  0  0  0  0  0  0  0  0
  -26.1560  -30.3130   21.5020 C   0  0  0  0  0  2  0  0  0  0  0  0
  -26.2110  -28.8120   20.8490 C   0  0  0  0  0  0  0  0  0  0  0  0
  -27.2590  -27.6460   20.8460 C   0  0  0  0  0  3  0  0  0  0  0  0
  -25.9680  -26.2870   19.5230 C   0  0  0  0  0  3  0  0  0  0  0  0
  -24.9660  -27.3480   19.4800 C   0  0  0  0  0  3  0  0  0  0  0  0
  -23.8360  -29.6140   20.1780 C   0  0  0  0  0  2  0  0  0  0  0  0
  -24.8390  -30.8700   22.1140 N   0  0  0  0  0  0  0  0  0  0  0  0
  -23.6010  -32.1150   23.6230 O   0  0  0  0  0  0  0  0  0  0  0  0
  -22.7620  -29.4580   22.5040 C   0  0  0  0  0  0  0  0  0  0  0  0
  -21.4220  -29.3560   22.3730 N   0  0  0  0  0  0  0  0  0  0  0  0
  -23.3780  -28.8290   23.3670 O   0  0  0  0  0  0  0  0  0  0  0  0
  -20.9670  -29.9120   21.6630 H   0  0  0  0  0  0  0  0  0  0  0  0
  -17.9970  -28.2130   22.9010 C   0  0  0  0  0  0  0  0  0  0  0  0
  -20.5670  -28.4380   23.1430 C   0  0  0  0  0  3  0  0  0  0  0  0
  -20.6330  -27.0060   22.5600 C   0  0  0  0  0  2  0  0  0  0  0  0
  -19.5210  -26.7160   21.5460 C   0  0  0  0  0  2  0  0  0  0  0  0
  -18.1460  -26.8740   22.1990 C   0  0  0  0  0  2  0  0  0  0  0  0
  -19.1320  -28.9550   23.3290 C   0  0  0  0  0  0  0  0  0  0  0  0
  -18.9320  -30.2040   23.9560 C   0  0  0  0  0  3  0  0  0  0  0  0
  -17.6350  -30.7130   24.1530 C   0  0  0  0  0  3  0  0  0  0  0  0
  -16.5160  -29.9710   23.7350 C   0  0  0  0  0  3  0  0  0  0  0  0
  -16.6980  -28.7220   23.1160 C   0  0  0  0  0  3  0  0  0  0  0  0
  -25.9400  -32.4590   23.8420 C   0  0  0  0  0  3  0  0  0  0  0  0
  -25.5980  -33.8650   24.1720 N   0  0  0  0  0  0  0  0  0  0  0  0
  -25.9200  -34.9450   23.4450 C   0  0  0  0  0  0  0  0  0  0  0  0
  -26.5760  -34.8640   22.4040 O   0  0  0  0  0  0  0  0  0  0  0  0
  -25.0070  -33.9990   24.9800 H   0  0  0  0  0  0  0  0  0  0  0  0
  -24.1680  -36.7480   23.1980 C   0  0  0  0  0  1  0  0  0  0  0  0
  -25.4480  -36.3330   23.9420 C   0  0  0  0  0  3  0  0  0  0  0  0
  -27.6060  -37.2470   24.6880 C   0  0  0  0  0  1  0  0  0  0  0  0
  -26.4650  -37.3980   23.7880 N   0  0  0  0  0  0  0  0  0  0  0  0
  -26.0550  -38.3150   23.9480 H   0  0  0  0  0  0  0  0  0  0  0  0
  -26.3960  -31.7200   25.1620 C   0  0  1  0  0  0  0  0  0  0  0  0
  -25.2580  -31.5140   26.1910 C   0  0  0  0  0  1  0  0  0  0  0  0
  -26.9880  -30.3300   24.8490 C   0  0  0  0  0  1  0  0  0  0  0  0
  -27.5230  -32.5250   25.8520 C   0  0  0  0  0  1  0  0  0  0  0  0
  -28.1400  -22.5480   20.1630 C   0  0  0  0  0 15  0  0  0  0  0  0
  -29.1420  -20.4180   20.2160 C   0  0  0  0  0 15  0  0  0  0  0  0
  -29.9010  -16.6470   20.0860 C   0  0  0  0  0  0  0  0  0  0  0  0
  -30.2300  -13.8900   19.2940 C   0  0  0  0  0  2  0  0  0  0  0  0
  -29.4480  -13.0530   18.1990 C   0  0  0  0  0  2  0  0  0  0  0  0
  -28.1340  -12.4820   18.7300 C   0  0  0  0  0  2  0  0  0  0  0  0
  -27.5010  -13.5140   19.6750 C   0  0  0  0  0  3  0  0  0  0  0  0
  -28.4750  -14.2100   20.6950 C   0  0  0  0  0  2  0  0  0  0  0  0
  -29.4550  -15.1290   19.9600 N   0  0  0  0  0  0  0  0  0  0  0  0
  -31.1430  -16.3980   20.0040 O   0  0  0  0  0  0  0  0  0  0  0  0
  -29.2570  -18.3100   20.1340 N   0  0  0  0  0  2  0  0  0  0  0  0
  -30.2580  -18.4710   20.1320 H   0  0  0  0  0  0  0  0  0  0  0  0
  -25.1600  -13.9200   20.5080 C   0  0  0  0  0  0  0  0  0  0  0  0
  -24.1280  -13.1120   20.8810 C   0  0  0  0  0  0  0  0  0  0  0  0
  -24.6260  -11.7720   20.8220 C   0  0  0  0  0  0  0  0  0  0  0  0
  -26.2240  -13.0860   20.2420 N   0  0  0  0  0  0  0  0  0  0  0  0
  -25.9190  -11.7780   20.4820 N   0  0  0  0  0  0  0  0  0  0  0  0
  -23.9140  -10.4950   21.0120 C   0  0  0  0  0  0  0  0  0  0  0  0
  -24.3570   -9.5290   21.9420 C   0  0  0  0  0  3  0  0  0  0  0  0
  -23.6350   -8.3280   22.1300 C   0  0  0  0  0  3  0  0  0  0  0  0
  -22.4560   -8.0830   21.3870 C   0  0  0  0  0  0  0  0  0  0  0  0
  -22.0290   -9.0390   20.4470 C   0  0  0  0  0  3  0  0  0  0  0  0
  -22.7510  -10.2310   20.2590 C   0  0  0  0  0  3  0  0  0  0  0  0
  -21.7070   -6.9350   21.4820 O   0  0  0  0  0  0  0  0  0  0  0  0
  -21.6700   -6.1910   22.6350 C   0  0  0  0  0  0  0  0  0  0  0  0
  -21.2140   -6.7320   23.8560 C   0  0  0  0  0  3  0  0  0  0  0  0
  -21.1260   -5.9140   25.0000 C   0  0  0  0  0  3  0  0  0  0  0  0
  -21.4850   -4.5540   24.9250 C   0  0  0  0  0  0  0  0  0  0  0  0
  -21.9340   -4.0110   23.7070 C   0  0  0  0  0  3  0  0  0  0  0  0
  -22.0220   -4.8270   22.5660 C   0  0  0  0  0  0  0  0  0  0  0  0
  -22.4340   -4.2930   21.3900 F   0  0  0  0  0  0  0  0  0  0  0  0
  -21.3950   -3.7660   26.0220 F   0  0  0  0  0  0  0  0  0  0  0  0
  -22.7270  -13.5620   21.1730 C   0  0  0  0  0  0  0  0  0  0  0  0
  -22.0260  -12.8570   22.0520 N   0  0  0  0  0  0  0  0  0  0  0  0
  -22.2670  -14.5820   20.6590 O   0  0  0  0  0  0  0  0  0  0  0  0
  -22.4140  -12.0340   22.4890 H   0  0  0  0  0  0  0  0  0  0  0  0
  -21.0880  -13.1430   22.2910 H   0  0  0  0  0  0  0  0  0  0  0  0
  -25.2790  -15.2960   20.3350 N   0  0  0  0  0  0  0  0  0  0  0  0
  -24.4980  -15.9290   20.4650 H   0  0  0  0  0  0  0  0  0  0  0  0
  -26.1180  -15.7610   20.0090 H   0  0  0  0  0  0  0  0  0  0  0  0
  2 13  2  0
  3  1  1  0
  3  8  1  0
  4 12  1  0
  4 14  1  0
  5 11  1  0
  5  7  1  0
  6 12  1  0
  7  6  1  0
  8  7  2  0
  9  3  2  0
 10  9  1  0
 10  5  2  0
 11  4  1  0
 12  2  1  0
 14 16  2  0
 15 14  1  0
 17 15  1  0
 18 27  2  0
 18 23  1  0
 19 15  1  0
 19 23  1  0
 20 19  1  0
 21 22  1  0
 21 20  1  0
 22 18  1  0
 23 24  2  0
 24 25  1  0
 26 25  2  0
 27 26  1  0
 28  2  1  0
 28 29  1  0
 28 38  1  0
 29 32  1  0
 30 34  1  0
 30 29  1  0
 31 30  2  0
 34 33  1  0
 36 34  1  0
 36 37  1  0
 36 35  1  0
 38 41  1  1
 38 39  1  0
 40 38  1  0
 44 52  1  0
 45 50  1  0
 46 47  1  0
 46 45  1  0
 48 47  1  0
 48 57  1  0
 48 49  1  0
 50 44  1  0
 50 49  1  0
 51 44  2  0
 53 52  1  0
 54 55  2  0
 55 74  1  0
 56 55  1  0
 56 59  1  0
 57 58  1  0
 57 54  1  0
 58 56  2  0
 59 60  1  0
 60 61  2  0
 62 65  1  0
 62 61  1  0
 63 62  2  0
 64 63  1  0
 64 59  2  0
 65 66  1  0
 66 67  1  0
 67 68  2  0
 69 68  1  0
 69 73  1  0
 70 69  2  0
 71 66  2  0
 71 70  1  0
 72 71  1  0
 74 75  1  0
 75 78  1  0
 75 77  1  0
 76 74  2  0
 79 80  1  0
 79 54  1  0
 81 79  1  0
M  ISO  4   1 101  42 101  44 100  52 100
M  END
>  <TORSDO>  (40) 
F 17

>  <SCORE>  (40) 
-16.141

>  <name>  (40) 
39

>  <ligand_id>  (40) 
39

>  <original_smiles>  (40) 
[H]c1c([H])c([H])c2c(c1[H])C([H])([H])C([H])([H])C([H])([H])C2([H])N([H])C(=O)C1([H])N(C(=O)C([H])(N([H])C(=O)C([H])(N([H])C([H])([H])[H])C([H])([H])[H])C(C([H])([H])[H])(C([H])([H])[H])C([H])([H])[H])C([H])([H])c2c([H])c(OC([H])([H])C([H])([H])N([H])C(=O)N3C([H])([H])C([H])([H])C([H])([H])C([H])(n4nc(-c5c([H])c([H])c(Oc6c([H])c([H])c(F)c([H])c6F)c([H])c5[H])c(C(=O)N([H])[H])c4N([H])[H])C3([H])[H])c([H])c([H])c2C1([H])[H]

>  <smiles>  (40) 
[H]c1c([H])c([H])c2c(c1[H])C([H])([H])C([H])([H])C([H])([H])C2([H])N([H])C(=O)C1([H])N(C(=O)C([H])(N([H])C(=O)C([H])(N([H])C([H])([H])[H])C([H])([H])[H])C(C([H])([H])[H])(C([H])([H])[H])C([H])([H])[H])C([H])([H])c2c([H])c(OC([H])([H])C([H])([H])N([H])C(=O)N3C([H])([H])C([H])([H])C([H])([H])C([H])(n4nc(-c5c([H])c([H])c(Oc6c([H])c([H])c(F)c([H])c6F)c([H])c5[H])c(C(=O)N([H])[H])c4N([H])[H])C3([H])[H])c([H])c([H])c2C1([H])[H]

$$$$
40:0:0
     RDKit          3D

 91100  0  0  1  0  0  0  0  0999 V2000
  -27.2850  -23.7500   20.3200 C   0  0  0  0  0  2  0  0  0  0  0  0
  -29.3410  -22.9170   19.2140 C   0  0  0  0  0  3  0  0  0  0  0  0
  -28.8240  -21.8590   20.1770 C   0  0  0  0  0  3  0  0  0  0  0  0
  -28.6320  -24.2220   19.7430 C   0  0  0  0  0  3  0  0  0  0  0  0
  -28.8890  -21.4540   18.7710 C   0  0  0  0  0  3  0  0  0  0  0  0
  -27.5450  -22.3150   20.8630 C   0  0  2  0  0  0  0  0  0  0  0  0
  -26.3260  -21.3910   20.6000 C   0  0  0  0  0  1  0  0  0  0  0  0
  -27.8590  -22.2810   22.3620 C   0  0  0  0  0  1  0  0  0  0  0  0
  -29.8400  -20.2300   18.5580 C   0  0  0  0  0  2  0  0  0  0  0  0
  -29.4120  -18.8040   19.1290 C   0  0  0  0  0  3  0  0  0  0  0  0
  -30.5240  -17.6670   19.0780 C   0  0  0  0  0  3  0  0  0  0  0  0
  -31.1430  -15.2740   19.8650 C   0  0  0  0  0  0  0  0  0  0  0  0
  -30.9960  -12.9590   19.0450 C   0  0  0  0  0  2  0  0  0  0  0  0
  -30.0170  -12.9600   17.8550 C   0  0  0  0  0  2  0  0  0  0  0  0
  -28.5530  -12.8050   18.3210 C   0  0  0  0  0  2  0  0  0  0  0  0
  -28.1970  -13.7370   19.5110 C   0  0  0  0  0  3  0  0  0  0  0  0
  -29.2920  -13.7120   20.6010 C   0  0  0  0  0  2  0  0  0  0  0  0
  -30.5680  -14.0380   19.9520 N   0  0  0  0  0  0  0  0  0  0  0  0
  -32.3380  -15.4030   19.5890 O   0  0  0  0  0  0  0  0  0  0  0  0
  -30.2820  -16.3420   19.7740 N   0  0  0  0  0  0  0  0  0  0  0  0
  -29.3270  -16.1330   20.0090 H   0  0  0  0  0  0  0  0  0  0  0  0
  -25.8530  -14.3370   20.3790 C   0  0  0  0  0  0  0  0  0  0  0  0
  -24.7880  -13.5590   20.7620 C   0  0  0  0  0  0  0  0  0  0  0  0
  -25.2280  -12.2080   20.6470 C   0  0  0  0  0  0  0  0  0  0  0  0
  -26.8690  -13.4520   20.0510 N   0  0  0  0  0  0  0  0  0  0  0  0
  -26.5060  -12.1640   20.2840 N   0  0  0  0  0  0  0  0  0  0  0  0
  -24.4870  -10.9480   20.8100 C   0  0  0  0  0  0  0  0  0  0  0  0
  -24.8650   -9.9930   21.7780 C   0  0  0  0  0  3  0  0  0  0  0  0
  -24.1310   -8.7970   21.9280 C   0  0  0  0  0  3  0  0  0  0  0  0
  -23.0020   -8.5510   21.1120 C   0  0  0  0  0  0  0  0  0  0  0  0
  -22.6440   -9.4950   20.1350 C   0  0  0  0  0  3  0  0  0  0  0  0
  -23.3770  -10.6850   19.9830 C   0  0  0  0  0  3  0  0  0  0  0  0
  -22.2390   -7.4090   21.1720 O   0  0  0  0  0  0  0  0  0  0  0  0
  -21.9990   -6.7650   22.3590 C   0  0  0  0  0  0  0  0  0  0  0  0
  -21.3530   -7.4040   23.4410 C   0  0  0  0  0  3  0  0  0  0  0  0
  -21.0720   -6.6860   24.6190 C   0  0  0  0  0  3  0  0  0  0  0  0
  -21.4180   -5.3220   24.7120 C   0  0  0  0  0  0  0  0  0  0  0  0
  -22.0470   -4.6800   23.6300 C   0  0  0  0  0  3  0  0  0  0  0  0
  -22.3360   -5.3990   22.4580 C   0  0  0  0  0  0  0  0  0  0  0  0
  -22.9300   -4.7720   21.4130 F   0  0  0  0  0  0  0  0  0  0  0  0
  -21.1340   -4.6270   25.8350 F   0  0  0  0  0  0  0  0  0  0  0  0
  -23.4110  -14.0490   21.1060 C   0  0  0  0  0  0  0  0  0  0  0  0
  -22.6990  -13.3410   21.9790 N   0  0  0  0  0  0  0  0  0  0  0  0
  -22.9720  -15.0960   20.6380 O   0  0  0  0  0  0  0  0  0  0  0  0
  -23.0630  -12.4980   22.3950 H   0  0  0  0  0  0  0  0  0  0  0  0
  -21.7740  -13.6590   22.2290 H   0  0  0  0  0  0  0  0  0  0  0  0
  -26.0220  -15.7100   20.2590 N   0  0  0  0  0  0  0  0  0  0  0  0
  -25.2510  -16.3480   20.4220 H   0  0  0  0  0  0  0  0  0  0  0  0
  -26.8500  -16.1700   19.9020 H   0  0  0  0  0  0  0  0  0  0  0  0
  -28.7010  -25.5810   18.8970 C   0  0  0  0  0  2  0  0  0  0  0  0
  -28.6480  -26.9120   19.5670 O   0  0  0  0  0  0  0  0  0  0  0  0
  -24.6840  -31.8630   23.0830 C   0  0  0  0  0  0  0  0  0  0  0  0
  -27.4740  -27.6750   19.6340 C   0  0  0  0  0  0  0  0  0  0  0  0
  -23.5330  -30.5010   21.3800 C   0  0  0  0  0  3  0  0  0  0  0  0
  -25.0310  -29.1500   19.8150 C   0  0  0  0  0  0  0  0  0  0  0  0
  -26.0490  -30.9830   21.1720 C   0  0  0  0  0  2  0  0  0  0  0  0
  -26.1860  -29.6620   20.4160 C   0  0  0  0  0  0  0  0  0  0  0  0
  -27.4110  -28.9340   20.3160 C   0  0  0  0  0  3  0  0  0  0  0  0
  -26.2780  -27.2050   19.0530 C   0  0  0  0  0  3  0  0  0  0  0  0
  -25.0750  -27.9320   19.1250 C   0  0  0  0  0  3  0  0  0  0  0  0
  -23.7500  -29.9430   19.9520 C   0  0  0  0  0  2  0  0  0  0  0  0
  -24.7750  -31.1320   21.9330 N   0  0  0  0  0  0  0  0  0  0  0  0
  -23.5980  -32.0280   23.6560 O   0  0  0  0  0  0  0  0  0  0  0  0
  -22.9680  -29.3730   22.2800 C   0  0  0  0  0  0  0  0  0  0  0  0
  -21.6520  -29.1130   22.1710 N   0  0  0  0  0  0  0  0  0  0  0  0
  -23.7070  -28.7430   23.0390 O   0  0  0  0  0  0  0  0  0  0  0  0
  -21.1090  -29.6920   21.5490 H   0  0  0  0  0  0  0  0  0  0  0  0
  -18.3820  -27.6410   22.6430 C   0  0  0  0  0  0  0  0  0  0  0  0
  -20.9180  -28.0680   22.8900 C   0  0  0  0  0  3  0  0  0  0  0  0
  -21.1070  -26.6850   22.2130 C   0  0  0  0  0  2  0  0  0  0  0  0
  -20.0110  -26.3570   21.1950 C   0  0  0  0  0  2  0  0  0  0  0  0
  -18.6400  -26.3560   21.8740 C   0  0  0  0  0  2  0  0  0  0  0  0
  -19.4500  -28.4540   23.1060 C   0  0  0  0  0  0  0  0  0  0  0  0
  -19.1470  -29.6580   23.7780 C   0  0  0  0  0  3  0  0  0  0  0  0
  -17.8100  -30.0480   23.9920 C   0  0  0  0  0  3  0  0  0  0  0  0
  -16.7580  -29.2300   23.5470 C   0  0  0  0  0  3  0  0  0  0  0  0
  -17.0470  -28.0280   22.8780 C   0  0  0  0  0  3  0  0  0  0  0  0
  -25.9350  -32.5460   23.7180 C   0  0  0  0  0  3  0  0  0  0  0  0
  -26.4830  -31.7800   24.9860 C   0  0  1  0  0  0  0  0  0  0  0  0
  -25.4050  -31.4690   26.0500 C   0  0  0  0  0  1  0  0  0  0  0  0
  -27.1410  -30.4420   24.5790 C   0  0  0  0  0  1  0  0  0  0  0  0
  -27.5880  -32.6220   25.6690 C   0  0  0  0  0  1  0  0  0  0  0  0
  -25.5600  -33.9200   24.0800 N   0  0  0  0  0  0  0  0  0  0  0  0
  -25.8380  -35.0050   23.3460 C   0  0  0  0  0  0  0  0  0  0  0  0
  -26.5100  -34.9560   22.3120 O   0  0  0  0  0  0  0  0  0  0  0  0
  -24.9770  -34.0290   24.8970 H   0  0  0  0  0  0  0  0  0  0  0  0
  -24.0320  -36.7260   23.0220 C   0  0  0  0  0  1  0  0  0  0  0  0
  -25.2860  -36.3590   23.8350 C   0  0  0  0  0  3  0  0  0  0  0  0
  -27.3700  -37.3250   24.7040 C   0  0  0  0  0  1  0  0  0  0  0  0
  -26.2680  -37.4630   23.7560 N   0  0  0  0  0  0  0  0  0  0  0  0
  -25.8190  -38.3600   23.9200 H   0  0  0  0  0  0  0  0  0  0  0  0
  1  6  1  0
  2  4  1  0
  2  3  1  0
  3  6  1  0
  4  1  1  0
  5  2  1  0
  5  3  1  0
  6  8  1  1
  7  6  1  0
  9  5  1  0
  9 10  1  0
 11 10  2  0
 11 20  1  0
 12 18  1  0
 13 18  1  0
 14 15  1  0
 14 13  1  0
 15 16  1  0
 16 25  1  0
 16 17  1  0
 18 17  1  0
 19 12  2  0
 20 12  1  0
 20 21  1  0
 22 23  2  0
 23 42  1  0
 24 23  1  0
 24 27  1  0
 25 26  1  0
 25 22  1  0
 26 24  2  0
 27 28  1  0
 28 29  2  0
 30 33  1  0
 30 29  1  0
 31 30  2  0
 32 31  1  0
 32 27  2  0
 33 34  1  0
 34 39  2  0
 34 35  1  0
 35 36  2  0
 36 37  1  0
 37 41  1  0
 38 37  2  0
 39 38  1  0
 40 39  1  0
 42 43  1  0
 43 46  1  0
 43 45  1  0
 44 42  2  0
 47 22  1  0
 47 48  1  0
 49 47  1  0
 50 51  1  0
 50  4  1  0
 51 53  1  0
 52 63  2  0
 52 78  1  0
 53 58  1  0
 54 62  1  0
 54 64  1  0
 55 61  1  0
 55 57  1  0
 56 62  1  0
 57 56  1  0
 58 57  2  0
 59 60  1  0
 59 53  2  0
 60 55  2  0
 61 54  1  0
 62 52  1  0
 64 66  2  0
 65 64  1  0
 65 69  1  0
 67 65  1  0
 68 77  2  0
 68 73  1  0
 69 73  1  0
 70 69  1  0
 71 72  1  0
 71 70  1  0
 72 68  1  0
 73 74  2  0
 74 75  1  0
 76 75  2  0
 77 76  1  0
 78 83  1  0
 78 79  1  0
 79 82  1  1
 79 80  1  0
 81 79  1  0
 83 86  1  0
 84 88  1  0
 84 83  1  0
 85 84  2  0
 87 88  1  0
 90 88  1  0
 90 91  1  0
 90 89  1  0
M  ISO  4  12 100  20 100  50 101  51 101
M  END
>  <TORSDO>  (41) 
F 20

>  <SCORE>  (41) 
-10.264

>  <name>  (41) 
40

>  <ligand_id>  (41) 
40

>  <original_smiles>  (41) 
[H]c1c([H])c([H])c2c(c1[H])C([H])([H])C([H])([H])C([H])([H])C2([H])N([H])C(=O)C1([H])N(C(=O)C([H])(N([H])C(=O)C([H])(N([H])C([H])([H])[H])C([H])([H])[H])C(C([H])([H])[H])(C([H])([H])[H])C([H])([H])[H])C([H])([H])c2c([H])c(OC([H])([H])C3([H])C([H])([H])C(C([H])([H])[H])(C([H])([H])[H])C4([H])C([H])(C([H])([H])C([H])([H])C([H])([H])N([H])C(=O)N5C([H])([H])C([H])([H])C([H])([H])C([H])(n6nc(-c7c([H])c([H])c(Oc8c([H])c([H])c(F)c([H])c8F)c([H])c7[H])c(C(=O)N([H])[H])c6N([H])[H])C5([H])[H])C34[H])c([H])c([H])c2C1([H])[H]

>  <smiles>  (41) 
[H]c1c([H])c([H])c2c(c1[H])C([H])([H])C([H])([H])C([H])([H])C2([H])N([H])C(=O)C1([H])N(C(=O)C([H])(N([H])C(=O)C([H])(N([H])C([H])([H])[H])C([H])([H])[H])C(C([H])([H])[H])(C([H])([H])[H])C([H])([H])[H])C([H])([H])c2c([H])c(OC([H])([H])C3([H])C([H])([H])C(C([H])([H])[H])(C([H])([H])[H])C4([H])C([H])(C([H])([H])C([H])([H])C([H])([H])N([H])C(=O)N5C([H])([H])C([H])([H])C([H])([H])C([H])(n6nc(-c7c([H])c([H])c(Oc8c([H])c([H])c(F)c([H])c8F)c([H])c7[H])c(C(=O)N([H])[H])c6N([H])[H])C5([H])[H])C34[H])c([H])c([H])c2C1([H])[H]

$$$$
41:0:0
     RDKit          3D

 93100  0  0  1  0  0  0  0  0999 V2000
  -29.0530  -20.4000   20.5270 N   0  0  0  0  0  4  0  0  0  0  0  0
  -28.0480  -20.3320   20.5310 H   0  0  0  0  0  0  0  0  0  0  0  0
  -29.3300  -20.2320   21.4820 H   0  0  0  0  0  0  0  0  0  0  0  0
  -29.3750  -21.9370   20.2660 C   0  0  0  0  0  2  0  0  0  0  0  0
  -28.2460  -23.2120   20.2170 C   0  0  0  0  0  2  0  0  0  0  0  0
  -28.3320  -24.7450   20.9360 C   0  0  0  0  0  2  0  0  0  0  0  0
  -28.3230  -26.1980   20.3700 O   0  0  0  0  0  0  0  0  0  0  0  0
  -24.6240  -31.9170   23.2760 C   0  0  0  0  0  0  0  0  0  0  0  0
  -27.2250  -27.1280   20.4000 C   0  0  0  0  0  0  0  0  0  0  0  0
  -23.4370  -30.4840   21.6580 C   0  0  0  0  0  3  0  0  0  0  0  0
  -24.8950  -28.8620   20.2990 C   0  0  0  0  0  0  0  0  0  0  0  0
  -25.9900  -30.7430   21.5090 C   0  0  0  0  0  2  0  0  0  0  0  0
  -26.0690  -29.3310   20.9010 C   0  0  0  0  0  0  0  0  0  0  0  0
  -27.2380  -28.4830   20.9250 C   0  0  0  0  0  3  0  0  0  0  0  0
  -26.0230  -26.7450   19.7740 C   0  0  0  0  0  3  0  0  0  0  0  0
  -24.8830  -27.5810   19.7200 C   0  0  0  0  0  3  0  0  0  0  0  0
  -23.6710  -29.7670   20.3020 C   0  0  0  0  0  2  0  0  0  0  0  0
  -24.7040  -31.0720   22.2030 N   0  0  0  0  0  0  0  0  0  0  0  0
  -23.5350  -32.2160   23.7880 O   0  0  0  0  0  0  0  0  0  0  0  0
  -22.7460  -29.5030   22.6400 C   0  0  0  0  0  0  0  0  0  0  0  0
  -21.4220  -29.3250   22.4960 N   0  0  0  0  0  0  0  0  0  0  0  0
  -23.4070  -28.9040   23.4910 O   0  0  0  0  0  0  0  0  0  0  0  0
  -20.9450  -29.8590   21.7840 H   0  0  0  0  0  0  0  0  0  0  0  0
  -18.0410  -28.1060   22.9560 C   0  0  0  0  0  0  0  0  0  0  0  0
  -20.5890  -28.4070   23.2810 C   0  0  0  0  0  3  0  0  0  0  0  0
  -20.7220  -26.9560   22.7610 C   0  0  0  0  0  2  0  0  0  0  0  0
  -19.6500  -26.5840   21.7320 C   0  0  0  0  0  2  0  0  0  0  0  0
  -18.2510  -26.7350   22.3340 C   0  0  0  0  0  2  0  0  0  0  0  0
  -19.1400  -28.8970   23.3860 C   0  0  0  0  0  0  0  0  0  0  0  0
  -18.8910  -30.1760   23.9280 C   0  0  0  0  0  3  0  0  0  0  0  0
  -17.5750  -30.6650   24.0460 C   0  0  0  0  0  3  0  0  0  0  0  0
  -16.4910  -29.8710   23.6320 C   0  0  0  0  0  3  0  0  0  0  0  0
  -16.7250  -28.5950   23.0920 C   0  0  0  0  0  3  0  0  0  0  0  0
  -25.8980  -32.5640   23.9020 C   0  0  0  0  0  3  0  0  0  0  0  0
  -25.5840  -33.9690   24.2080 N   0  0  0  0  0  0  0  0  0  0  0  0
  -25.9240  -35.0140   23.4400 C   0  0  0  0  0  0  0  0  0  0  0  0
  -26.6040  -34.8950   22.4170 O   0  0  0  0  0  0  0  0  0  0  0  0
  -24.9820  -34.1340   25.0010 H   0  0  0  0  0  0  0  0  0  0  0  0
  -24.2000  -36.8050   23.0530 C   0  0  0  0  0  1  0  0  0  0  0  0
  -25.4370  -36.4100   23.8760 C   0  0  0  0  0  3  0  0  0  0  0  0
  -27.5720  -37.3030   24.7000 C   0  0  0  0  0  1  0  0  0  0  0  0
  -26.4720  -37.4610   23.7520 N   0  0  0  0  0  0  0  0  0  0  0  0
  -26.0680  -38.3830   23.8860 H   0  0  0  0  0  0  0  0  0  0  0  0
  -26.3980  -31.8200   25.2020 C   0  0  1  0  0  0  0  0  0  0  0  0
  -25.2900  -31.6020   26.2600 C   0  0  0  0  0  1  0  0  0  0  0  0
  -26.9880  -30.4350   24.8500 C   0  0  0  0  0  1  0  0  0  0  0  0
  -27.5380  -32.6290   25.8630 C   0  0  0  0  0  1  0  0  0  0  0  0
  -29.5330  -19.1300   19.6800 C   0  0  0  0  0  2  0  0  0  0  0  0
  -30.4140  -17.8030   20.2930 C   0  0  0  0  0  3  0  0  0  0  0  0
  -31.0120  -15.0940   19.8260 C   0  0  0  0  0  0  0  0  0  0  0  0
  -30.8250  -12.7100   18.9610 C   0  0  0  0  0  2  0  0  0  0  0  0
  -29.8430  -12.6280   17.7690 C   0  0  0  0  0  2  0  0  0  0  0  0
  -28.3900  -12.4730   18.2640 C   0  0  0  0  0  2  0  0  0  0  0  0
  -28.0460  -13.4590   19.4110 C   0  0  0  0  0  3  0  0  0  0  0  0
  -29.1410  -13.4860   20.4960 C   0  0  0  0  0  2  0  0  0  0  0  0
  -30.3920  -13.8470   19.8180 N   0  0  0  0  0  0  0  0  0  0  0  0
  -32.2260  -15.1280   19.6040 O   0  0  0  0  0  0  0  0  0  0  0  0
  -30.2210  -16.2780   19.8750 N   0  0  0  0  0  0  0  0  0  0  0  0
  -29.2430  -16.0370   19.8180 H   0  0  0  0  0  0  0  0  0  0  0  0
  -25.7340  -14.1450   20.2650 C   0  0  0  0  0  0  0  0  0  0  0  0
  -24.6490  -13.4180   20.6730 C   0  0  0  0  0  0  0  0  0  0  0  0
  -25.0460  -12.0470   20.6060 C   0  0  0  0  0  0  0  0  0  0  0  0
  -26.7200  -13.2200   19.9690 N   0  0  0  0  0  0  0  0  0  0  0  0
  -26.3190  -11.9520   20.2410 N   0  0  0  0  0  0  0  0  0  0  0  0
  -24.2660  -10.8180   20.8110 C   0  0  0  0  0  0  0  0  0  0  0  0
  -24.6740   -9.8300   21.7340 C   0  0  0  0  0  3  0  0  0  0  0  0
  -23.8960   -8.6680   21.9280 C   0  0  0  0  0  3  0  0  0  0  0  0
  -22.6960   -8.4870   21.1990 C   0  0  0  0  0  0  0  0  0  0  0  0
  -22.3080   -9.4640   20.2650 C   0  0  0  0  0  3  0  0  0  0  0  0
  -23.0850  -10.6170   20.0690 C   0  0  0  0  0  3  0  0  0  0  0  0
  -21.8910   -7.3790   21.3020 O   0  0  0  0  0  0  0  0  0  0  0  0
  -21.8130   -6.6520   22.4630 C   0  0  0  0  0  0  0  0  0  0  0  0
  -21.4350   -7.2440   23.6880 C   0  0  0  0  0  3  0  0  0  0  0  0
  -21.2980   -6.4470   24.8420 C   0  0  0  0  0  3  0  0  0  0  0  0
  -21.5310   -5.0600   24.7720 C   0  0  0  0  0  0  0  0  0  0  0  0
  -21.9040   -4.4680   23.5520 C   0  0  0  0  0  3  0  0  0  0  0  0
  -22.0410   -5.2630   22.4010 C   0  0  0  0  0  0  0  0  0  0  0  0
  -22.3790   -4.6850   21.2230 F   0  0  0  0  0  0  0  0  0  0  0  0
  -21.3940   -4.2930   25.8800 F   0  0  0  0  0  0  0  0  0  0  0  0
  -23.2890  -13.9590   21.0040 C   0  0  0  0  0  0  0  0  0  0  0  0
  -22.5680  -13.2970   21.9000 N   0  0  0  0  0  0  0  0  0  0  0  0
  -22.8780  -15.0050   20.5000 O   0  0  0  0  0  0  0  0  0  0  0  0
  -22.9140  -12.4510   22.3280 H   0  0  0  0  0  0  0  0  0  0  0  0
  -21.6550  -13.6430   22.1630 H   0  0  0  0  0  0  0  0  0  0  0  0
  -25.9530  -15.5100   20.0940 N   0  0  0  0  0  0  0  0  0  0  0  0
  -25.2120  -16.1870   20.2330 H   0  0  0  0  0  0  0  0  0  0  0  0
  -26.7800  -15.9110   19.6730 H   0  0  0  0  0  0  0  0  0  0  0  0
  -30.3910  -17.8140   21.8450 C   0  0  0  0  0  2  0  0  0  0  0  0
  -31.3930  -18.7800   22.4870 C   0  0  0  0  0  0  0  0  0  0  0  0
  -30.9340  -19.6200   23.4060 N   0  0  0  0  0  0  0  0  0  0  0  0
  -32.5680  -18.8050   22.1310 O   0  0  0  0  0  0  0  0  0  0  0  0
  -29.9870  -19.5450   23.7550 H   0  0  0  0  0  0  0  0  0  0  0  0
  -31.5700  -20.2550   23.8730 H   0  0  0  0  0  0  0  0  0  0  0  0
  1  2  1  0
  1  3  1  0
  4  1  1  0
  5  4  1  0
  5  6  1  0
  7  9  1  0
  7  6  1  0
  8 19  2  0
  9 14  1  0
 10 18  1  0
 10 20  1  0
 11 17  1  0
 11 13  1  0
 12 18  1  0
 13 14  2  0
 13 12  1  0
 15  9  2  0
 16 15  1  0
 16 11  2  0
 17 10  1  0
 18  8  1  0
 20 22  2  0
 21 20  1  0
 23 21  1  0
 24 33  2  0
 24 29  1  0
 25 21  1  0
 25 29  1  0
 26 25  1  0
 27 28  1  0
 27 26  1  0
 28 24  1  0
 29 30  2  0
 30 31  1  0
 32 31  2  0
 33 32  1  0
 34  8  1  0
 34 35  1  0
 34 44  1  0
 35 38  1  0
 36 40  1  0
 36 35  1  0
 37 36  2  0
 40 39  1  0
 42 40  1  0
 42 43  1  0
 42 41  1  0
 44 47  1  1
 44 45  1  0
 46 44  1  0
 48  1  1  0
 49 48  1  0
 49 88  1  0
 50 58  1  0
 51 56  1  0
 52 53  1  0
 52 51  1  0
 54 53  1  0
 54 63  1  0
 54 55  1  0
 56 50  1  0
 56 55  1  0
 57 50  2  0
 58 49  1  0
 59 58  1  0
 60 61  2  0
 61 80  1  0
 62 61  1  0
 62 65  1  0
 63 64  1  0
 63 60  1  0
 64 62  2  0
 65 66  1  0
 66 67  2  0
 68 71  1  0
 68 67  1  0
 69 68  2  0
 70 69  1  0
 70 65  2  0
 71 72  1  0
 72 73  1  0
 73 74  2  0
 75 74  1  0
 75 79  1  0
 76 75  2  0
 77 72  2  0
 77 76  1  0
 78 77  1  0
 80 81  1  0
 81 84  1  0
 81 83  1  0
 82 80  2  0
 85 86  1  0
 85 60  1  0
 87 85  1  0
 88 89  1  0
 89 90  1  0
 90 92  1  0
 90 93  1  0
 91 89  2  0
M  ISO  4   6 101   7 101  50 100  58 100
M  END
>  <TORSDO>  (42) 
F 23

>  <SCORE>  (42) 
-13.868

>  <name>  (42) 
41

>  <ligand_id>  (42) 
41

>  <original_smiles>  (42) 
[H]c1c([H])c([H])c2c(c1[H])C([H])([H])C([H])([H])C([H])([H])C2([H])N([H])C(=O)C1([H])N(C(=O)C([H])(N([H])C(=O)C([H])(N([H])C([H])([H])[H])C([H])([H])[H])C(C([H])([H])[H])(C([H])([H])[H])C([H])([H])[H])C([H])([H])c2c([H])c(OC([H])([H])C([H])([H])C([H])([H])[N+]([H])([H])C([H])([H])C([H])(N([H])C(=O)N3C([H])([H])C([H])([H])C([H])([H])C([H])(n4nc(-c5c([H])c([H])c(Oc6c([H])c([H])c(F)c([H])c6F)c([H])c5[H])c(C(=O)N([H])[H])c4N([H])[H])C3([H])[H])C([H])([H])C(=O)N([H])[H])c([H])c([H])c2C1([H])[H]

>  <smiles>  (42) 
[H]c1c([H])c([H])c2c(c1[H])C([H])([H])C([H])([H])C([H])([H])C2([H])N([H])C(=O)C1([H])N(C(=O)C([H])(N([H])C(=O)C([H])(N([H])C([H])([H])[H])C([H])([H])[H])C(C([H])([H])[H])(C([H])([H])[H])C([H])([H])[H])C([H])([H])c2c([H])c(OC([H])([H])C([H])([H])C([H])([H])[N+]([H])([H])C([H])([H])C([H])(N([H])C(=O)N3C([H])([H])C([H])([H])C([H])([H])C([H])(n4nc(-c5c([H])c([H])c(Oc6c([H])c([H])c(F)c([H])c6F)c([H])c5[H])c(C(=O)N([H])[H])c4N([H])[H])C3([H])[H])C([H])([H])C(=O)N([H])[H])c([H])c([H])c2C1([H])[H]

$$$$
42:0:0
     RDKit          3D

 87 97  0  0  1  0  0  0  0  0999 V2000
  -28.8710  -19.8680   17.7700 C   0  0  0  0  0  2  0  0  0  0  0  0
  -27.5040  -18.4590   18.7020 C   0  0  0  0  0  2  0  0  0  0  0  0
  -27.8720  -19.9610   18.9540 C   0  0  2  0  0  0  0  0  0  0  0  0
  -29.0530  -18.5550   18.6000 C   0  0  1  0  0  0  0  0  0  0  0  0
  -28.6370  -20.2670   20.2420 C   0  0  0  0  0  3  0  0  0  0  0  0
  -29.6220  -18.6620   20.0150 C   0  0  0  0  0  3  0  0  0  0  0  0
  -30.3060  -15.6060   20.3240 C   0  0  0  0  0  0  0  0  0  0  0  0
  -30.4130  -13.0680   19.5650 C   0  0  0  0  0  2  0  0  0  0  0  0
  -29.5320  -12.7110   18.3380 C   0  0  0  0  0  2  0  0  0  0  0  0
  -28.1150  -12.3240   18.7990 C   0  0  0  0  0  2  0  0  0  0  0  0
  -27.5840  -13.3420   19.8390 C   0  0  0  0  0  3  0  0  0  0  0  0
  -28.6030  -13.6530   20.9630 C   0  0  0  0  0  2  0  0  0  0  0  0
  -29.7930  -14.2450   20.3160 N   0  0  0  0  0  0  0  0  0  0  0  0
  -31.5290  -15.5680   20.1000 O   0  0  0  0  0  0  0  0  0  0  0  0
  -29.5320  -16.9430   20.3990 N   0  0  0  0  0  0  0  0  0  0  0  0
  -28.5650  -16.7280   20.6010 H   0  0  0  0  0  0  0  0  0  0  0  0
  -25.2190  -13.8730   20.6120 C   0  0  0  0  0  0  0  0  0  0  0  0
  -24.1650  -13.0820   20.9830 C   0  0  0  0  0  0  0  0  0  0  0  0
  -24.6420  -11.7380   20.9340 C   0  0  0  0  0  0  0  0  0  0  0  0
  -26.2660  -13.0060   20.3580 N   0  0  0  0  0  0  0  0  0  0  0  0
  -25.9340  -11.7130   20.6200 N   0  0  0  0  0  0  0  0  0  0  0  0
  -23.9190  -10.4710   21.1150 C   0  0  0  0  0  0  0  0  0  0  0  0
  -24.3610   -9.4860   22.0260 C   0  0  0  0  0  3  0  0  0  0  0  0
  -23.6290   -8.2890   22.1950 C   0  0  0  0  0  3  0  0  0  0  0  0
  -22.4410   -8.0710   21.4550 C   0  0  0  0  0  0  0  0  0  0  0  0
  -22.0230   -9.0440   20.5290 C   0  0  0  0  0  3  0  0  0  0  0  0
  -22.7570  -10.2310   20.3570 C   0  0  0  0  0  3  0  0  0  0  0  0
  -21.6770   -6.9310   21.5380 O   0  0  0  0  0  0  0  0  0  0  0  0
  -21.6530   -6.1630   22.6740 C   0  0  0  0  0  0  0  0  0  0  0  0
  -21.2540   -6.6910   23.9220 C   0  0  0  0  0  3  0  0  0  0  0  0
  -21.1750   -5.8500   25.0500 C   0  0  0  0  0  3  0  0  0  0  0  0
  -21.4840   -4.4800   24.9320 C   0  0  0  0  0  0  0  0  0  0  0  0
  -21.8730   -3.9530   23.6890 C   0  0  0  0  0  3  0  0  0  0  0  0
  -21.9550   -4.7890   22.5640 C   0  0  0  0  0  0  0  0  0  0  0  0
  -22.3080   -4.2690   21.3630 F   0  0  0  0  0  0  0  0  0  0  0  0
  -21.4020   -3.6710   26.0150 F   0  0  0  0  0  0  0  0  0  0  0  0
  -22.7680  -13.5500   21.2630 C   0  0  0  0  0  0  0  0  0  0  0  0
  -22.0530  -12.8390   22.1310 N   0  0  0  0  0  0  0  0  0  0  0  0
  -22.3200  -14.5730   20.7480 O   0  0  0  0  0  0  0  0  0  0  0  0
  -22.4330  -12.0090   22.5600 H   0  0  0  0  0  0  0  0  0  0  0  0
  -21.1130  -13.1200   22.3640 H   0  0  0  0  0  0  0  0  0  0  0  0
  -25.3630  -15.2460   20.4450 N   0  0  0  0  0  0  0  0  0  0  0  0
  -24.5690  -15.8700   20.5370 H   0  0  0  0  0  0  0  0  0  0  0  0
  -26.1970  -15.7170   20.1150 H   0  0  0  0  0  0  0  0  0  0  0  0
  -28.8950  -22.1790   20.2180 C   0  0  0  0  0  3  0  0  0  0  0  0
  -27.9070  -23.8390   20.2180 C   0  0  0  0  0  3  0  0  0  0  0  0
  -28.1220  -25.5760   20.2460 O   0  0  0  0  0  0  0  0  0  0  0  0
  -24.6320  -31.8450   23.1700 C   0  0  0  0  0  0  0  0  0  0  0  0
  -27.1470  -26.7760   20.2030 C   0  0  0  0  0  0  0  0  0  0  0  0
  -23.4390  -30.4430   21.5420 C   0  0  0  0  0  3  0  0  0  0  0  0
  -24.8850  -28.7960   20.1340 C   0  0  0  0  0  0  0  0  0  0  0  0
  -26.0180  -30.5950   21.4120 C   0  0  0  0  0  2  0  0  0  0  0  0
  -26.0810  -29.1600   20.7640 C   0  0  0  0  0  0  0  0  0  0  0  0
  -27.2000  -28.1770   20.7680 C   0  0  0  0  0  3  0  0  0  0  0  0
  -25.9170  -26.6140   19.5200 C   0  0  0  0  0  3  0  0  0  0  0  0
  -24.8380  -27.5450   19.4940 C   0  0  0  0  0  3  0  0  0  0  0  0
  -23.6820  -29.7510   20.1690 C   0  0  0  0  0  2  0  0  0  0  0  0
  -24.7200  -30.9910   22.0940 N   0  0  0  0  0  0  0  0  0  0  0  0
  -23.5410  -32.1410   23.6870 O   0  0  0  0  0  0  0  0  0  0  0  0
  -22.7300  -29.4600   22.5080 C   0  0  0  0  0  0  0  0  0  0  0  0
  -21.3960  -29.3050   22.3830 N   0  0  0  0  0  0  0  0  0  0  0  0
  -23.3870  -28.8360   23.3450 O   0  0  0  0  0  0  0  0  0  0  0  0
  -20.9090  -29.8590   21.6940 H   0  0  0  0  0  0  0  0  0  0  0  0
  -18.0110  -28.1040   22.9250 C   0  0  0  0  0  0  0  0  0  0  0  0
  -20.5730  -28.3640   23.1530 C   0  0  0  0  0  3  0  0  0  0  0  0
  -20.6720  -26.9340   22.5620 C   0  0  0  0  0  2  0  0  0  0  0  0
  -19.5330  -26.5780   21.6000 C   0  0  0  0  0  2  0  0  0  0  0  0
  -18.1750  -26.7400   22.2780 C   0  0  0  0  0  2  0  0  0  0  0  0
  -19.1350  -28.8680   23.3350 C   0  0  0  0  0  0  0  0  0  0  0  0
  -18.9250  -30.1200   23.9490 C   0  0  0  0  0  3  0  0  0  0  0  0
  -17.6210  -30.6230   24.1290 C   0  0  0  0  0  3  0  0  0  0  0  0
  -16.5120  -29.8680   23.7100 C   0  0  0  0  0  3  0  0  0  0  0  0
  -16.7070  -28.6040   23.1260 C   0  0  0  0  0  3  0  0  0  0  0  0
  -25.8990  -32.4990   23.7990 C   0  0  0  0  0  3  0  0  0  0  0  0
  -25.5750  -33.8970   24.1420 N   0  0  0  0  0  0  0  0  0  0  0  0
  -25.9020  -34.9650   23.4010 C   0  0  0  0  0  0  0  0  0  0  0  0
  -26.5670  -34.8730   22.3650 O   0  0  0  0  0  0  0  0  0  0  0  0
  -24.9930  -34.0390   24.9530 H   0  0  0  0  0  0  0  0  0  0  0  0
  -24.1720  -36.7710   23.0870 C   0  0  0  0  0  1  0  0  0  0  0  0
  -25.4210  -36.3530   23.8820 C   0  0  0  0  0  3  0  0  0  0  0  0
  -27.5590  -37.2360   24.7070 C   0  0  0  0  0  1  0  0  0  0  0  0
  -26.4510  -37.4100   23.7730 N   0  0  0  0  0  0  0  0  0  0  0  0
  -26.0440  -38.3270   23.9380 H   0  0  0  0  0  0  0  0  0  0  0  0
  -26.4070  -31.7410   25.0890 C   0  0  1  0  0  0  0  0  0  0  0  0
  -25.3060  -31.5140   26.1510 C   0  0  0  0  0  1  0  0  0  0  0  0
  -26.9920  -30.3590   24.7280 C   0  0  0  0  0  1  0  0  0  0  0  0
  -27.5560  -32.5370   25.7530 C   0  0  0  0  0  1  0  0  0  0  0  0
  3  2  1  1
  3  1  1  0
  3  5  1  0
  4  1  1  6
  4  2  1  0
  4  3  1  0
  4  6  1  0
  5 45  1  0
  6  5  1  0
  6 15  1  0
  7 15  1  0
  8 13  1  0
  9 10  1  0
  9  8  1  0
 11 10  1  0
 11 20  1  0
 11 12  1  0
 13  7  1  0
 13 12  1  0
 14  7  2  0
 15 16  1  0
 17 18  2  0
 18 37  1  0
 19 18  1  0
 19 22  1  0
 20 17  1  0
 20 21  1  0
 21 19  2  0
 22 23  1  0
 23 24  2  0
 25 28  1  0
 25 24  1  0
 26 25  2  0
 27 26  1  0
 27 22  2  0
 28 29  1  0
 29 30  1  0
 30 31  2  0
 32 31  1  0
 32 36  1  0
 33 32  2  0
 34 29  2  0
 34 33  1  0
 35 34  1  0
 37 38  1  0
 38 41  1  0
 38 40  1  0
 39 37  2  0
 42 43  1  0
 42 17  1  0
 44 42  1  0
 46 45  2  0
 46 47  1  0
 48 59  2  0
 49 47  1  0
 49 54  1  0
 50 58  1  0
 50 60  1  0
 51 57  1  0
 51 53  1  0
 52 58  1  0
 53 54  2  0
 53 52  1  0
 55 49  2  0
 56 55  1  0
 56 51  2  0
 57 50  1  0
 58 48  1  0
 60 62  2  0
 61 60  1  0
 63 61  1  0
 64 73  2  0
 64 69  1  0
 65 61  1  0
 65 69  1  0
 66 65  1  0
 67 68  1  0
 67 66  1  0
 68 64  1  0
 69 70  2  0
 70 71  1  0
 72 71  2  0
 73 72  1  0
 74 48  1  0
 74 75  1  0
 74 84  1  0
 75 78  1  0
 76 80  1  0
 76 75  1  0
 77 76  2  0
 80 79  1  0
 82 80  1  0
 82 83  1  0
 82 81  1  0
 84 87  1  1
 84 85  1  0
 86 84  1  0
M  ISO  4   7 100  15 100  46 101  47 101
M  END
>  <TORSDO>  (43) 
F 18

>  <SCORE>  (43) 
-16.622

>  <name>  (43) 
42

>  <ligand_id>  (43) 
42

>  <original_smiles>  (43) 
[H]c1c([H])c([H])c2c(c1[H])C([H])([H])C([H])([H])C([H])([H])C2([H])N([H])C(=O)C1([H])N(C(=O)C([H])(N([H])C(=O)C([H])(N([H])C([H])([H])[H])C([H])([H])[H])C(C([H])([H])[H])(C([H])([H])[H])C([H])([H])[H])C([H])([H])c2c([H])c(OC([H])([H])C([H])([H])C3([H])C([H])(N([H])C(=O)N4C([H])([H])C([H])([H])C([H])([H])C([H])(n5nc(-c6c([H])c([H])c(Oc7c([H])c([H])c(F)c([H])c7F)c([H])c6[H])c(C(=O)N([H])[H])c5N([H])[H])C4([H])[H])C4([H])C([H])([H])C3([H])C4([H])[H])c([H])c([H])c2C1([H])[H]

>  <smiles>  (43) 
[H]c1c([H])c([H])c2c(c1[H])C([H])([H])C([H])([H])C([H])([H])C2([H])N([H])C(=O)C1([H])N(C(=O)C([H])(N([H])C(=O)C([H])(N([H])C([H])([H])[H])C([H])([H])[H])C(C([H])([H])[H])(C([H])([H])[H])C([H])([H])[H])C([H])([H])c2c([H])c(OC([H])([H])C([H])([H])C3([H])C([H])(N([H])C(=O)N4C([H])([H])C([H])([H])C([H])([H])C([H])(n5nc(-c6c([H])c([H])c(Oc7c([H])c([H])c(F)c([H])c7F)c([H])c6[H])c(C(=O)N([H])[H])c5N([H])[H])C4([H])[H])C4([H])C([H])([H])C3([H])C4([H])[H])c([H])c([H])c2C1([H])[H]

$$$$
43:0:0
     RDKit          3D

 89 98  0  0  1  0  0  0  0  0999 V2000
  -28.7940  -19.8070   21.2750 C   0  0  0  0  0  2  0  0  0  0  0  0
  -27.5230  -21.6740   19.8470 C   0  0  0  0  0  2  0  0  0  0  0  0
  -30.0620  -20.8370   19.5290 C   0  0  0  0  0  2  0  0  0  0  0  0
  -28.3120  -21.2790   21.0700 C   0  0  0  0  0  3  0  0  0  0  0  0
  -29.5790  -19.3310   20.0180 C   0  0  0  0  0  3  0  0  0  0  0  0
  -29.0040  -22.0010   19.9180 C   0  0  2  0  0  0  0  0  0  0  0  0
  -29.3480  -23.6310   19.9500 C   0  0  0  0  0  0  0  0  0  0  0  0
  -30.5220  -23.9420   20.1770 O   0  0  0  0  0  0  0  0  0  0  0  0
  -28.3000  -24.8920   19.6670 C   0  0  0  0  0  2  0  0  0  0  0  0
  -28.5820  -26.3890   20.0370 O   0  0  0  0  0  0  0  0  0  0  0  0
  -24.7570  -31.7940   23.3280 C   0  0  0  0  0  0  0  0  0  0  0  0
  -27.5180  -27.3680   20.0200 C   0  0  0  0  0  0  0  0  0  0  0  0
  -23.6330  -30.4960   21.5610 C   0  0  0  0  0  3  0  0  0  0  0  0
  -25.1540  -29.0700   20.0580 C   0  0  0  0  0  0  0  0  0  0  0  0
  -26.1850  -30.8320   21.4820 C   0  0  0  0  0  2  0  0  0  0  0  0
  -26.3070  -29.4940   20.7270 C   0  0  0  0  0  0  0  0  0  0  0  0
  -27.4920  -28.6620   20.6900 C   0  0  0  0  0  3  0  0  0  0  0  0
  -26.3320  -27.0540   19.3210 C   0  0  0  0  0  3  0  0  0  0  0  0
  -25.1790  -27.8670   19.3400 C   0  0  0  0  0  3  0  0  0  0  0  0
  -23.9040  -29.9300   20.1420 C   0  0  0  0  0  2  0  0  0  0  0  0
  -24.8760  -31.0600   22.1790 N   0  0  0  0  0  0  0  0  0  0  0  0
  -23.6520  -32.0120   23.8490 O   0  0  0  0  0  0  0  0  0  0  0  0
  -22.9570  -29.4040   22.4290 C   0  0  0  0  0  0  0  0  0  0  0  0
  -21.6330  -29.2230   22.2730 N   0  0  0  0  0  0  0  0  0  0  0  0
  -23.6280  -28.7230   23.2080 O   0  0  0  0  0  0  0  0  0  0  0  0
  -21.1450  -29.8290   21.6280 H   0  0  0  0  0  0  0  0  0  0  0  0
  -18.2530  -27.9780   22.6810 C   0  0  0  0  0  0  0  0  0  0  0  0
  -20.8160  -28.2160   22.9550 C   0  0  0  0  0  3  0  0  0  0  0  0
  -20.9100  -26.8450   22.2440 C   0  0  0  0  0  2  0  0  0  0  0  0
  -19.8000  -26.6210   21.2110 C   0  0  0  0  0  2  0  0  0  0  0  0
  -18.4240  -26.7020   21.8760 C   0  0  0  0  0  2  0  0  0  0  0  0
  -19.3750  -28.6970   23.1750 C   0  0  0  0  0  0  0  0  0  0  0  0
  -19.1560  -29.8950   23.8890 C   0  0  0  0  0  3  0  0  0  0  0  0
  -17.8490  -30.3730   24.1130 C   0  0  0  0  0  3  0  0  0  0  0  0
  -16.7430  -29.6470   23.6320 C   0  0  0  0  0  3  0  0  0  0  0  0
  -16.9480  -28.4510   22.9210 C   0  0  0  0  0  3  0  0  0  0  0  0
  -26.0010  -32.4120   24.0360 C   0  0  0  0  0  3  0  0  0  0  0  0
  -26.4370  -31.6210   25.3320 C   0  0  1  0  0  0  0  0  0  0  0  0
  -25.2810  -31.3730   26.3300 C   0  0  0  0  0  1  0  0  0  0  0  0
  -27.0390  -30.2450   24.9630 C   0  0  0  0  0  1  0  0  0  0  0  0
  -27.5480  -32.4030   26.0720 C   0  0  0  0  0  1  0  0  0  0  0  0
  -25.6800  -33.8070   24.3720 N   0  0  0  0  0  0  0  0  0  0  0  0
  -25.9990  -34.8680   23.6180 C   0  0  0  0  0  0  0  0  0  0  0  0
  -26.6620  -34.7740   22.5820 O   0  0  0  0  0  0  0  0  0  0  0  0
  -25.0870  -33.9510   25.1770 H   0  0  0  0  0  0  0  0  0  0  0  0
  -24.2260  -36.6320   23.3300 C   0  0  0  0  0  1  0  0  0  0  0  0
  -25.5080  -36.2510   24.0890 C   0  0  0  0  0  3  0  0  0  0  0  0
  -27.6500  -37.1930   24.8350 C   0  0  0  0  0  1  0  0  0  0  0  0
  -26.5140  -37.3230   23.9250 N   0  0  0  0  0  0  0  0  0  0  0  0
  -26.0940  -38.2360   24.0720 H   0  0  0  0  0  0  0  0  0  0  0  0
  -30.5830  -17.9650   20.1610 C   0  0  0  0  0  2  0  0  0  0  0  0
  -30.8870  -15.2330   20.1550 C   0  0  0  0  0  0  0  0  0  0  0  0
  -30.7390  -12.8690   19.2540 C   0  0  0  0  0  2  0  0  0  0  0  0
  -29.8090  -12.8170   18.0190 C   0  0  0  0  0  2  0  0  0  0  0  0
  -28.3420  -12.6250   18.4600 C   0  0  0  0  0  2  0  0  0  0  0  0
  -27.9440  -13.5650   19.6270 C   0  0  0  0  0  3  0  0  0  0  0  0
  -29.0020  -13.5820   20.7500 C   0  0  0  0  0  2  0  0  0  0  0  0
  -30.2690  -13.9830   20.1290 N   0  0  0  0  0  0  0  0  0  0  0  0
  -32.0850  -15.2720   19.8560 O   0  0  0  0  0  0  0  0  0  0  0  0
  -30.1490  -16.4450   20.3020 N   0  0  0  0  0  0  0  0  0  0  0  0
  -29.1690  -16.3030   20.4980 H   0  0  0  0  0  0  0  0  0  0  0  0
  -25.5740  -14.1700   20.3950 C   0  0  0  0  0  0  0  0  0  0  0  0
  -24.5010  -13.4070   20.7640 C   0  0  0  0  0  0  0  0  0  0  0  0
  -24.9450  -12.0500   20.7070 C   0  0  0  0  0  0  0  0  0  0  0  0
  -26.6040  -13.2790   20.1320 N   0  0  0  0  0  0  0  0  0  0  0  0
  -26.2320  -11.9990   20.3810 N   0  0  0  0  0  0  0  0  0  0  0  0
  -24.2020  -10.7940   20.8820 C   0  0  0  0  0  0  0  0  0  0  0  0
  -24.5940   -9.8290   21.8370 C   0  0  0  0  0  3  0  0  0  0  0  0
  -23.8460   -8.6430   22.0020 C   0  0  0  0  0  3  0  0  0  0  0  0
  -22.6940   -8.4110   21.2140 C   0  0  0  0  0  0  0  0  0  0  0  0
  -22.3190   -9.3660   20.2530 C   0  0  0  0  0  3  0  0  0  0  0  0
  -23.0670  -10.5450   20.0850 C   0  0  0  0  0  3  0  0  0  0  0  0
  -21.9260   -7.2760   21.2830 O   0  0  0  0  0  0  0  0  0  0  0  0
  -21.7770   -6.5800   22.4560 C   0  0  0  0  0  0  0  0  0  0  0  0
  -21.1960   -7.1660   23.6030 C   0  0  0  0  0  3  0  0  0  0  0  0
  -20.9990   -6.3940   24.7640 C   0  0  0  0  0  3  0  0  0  0  0  0
  -21.3730   -5.0370   24.7830 C   0  0  0  0  0  0  0  0  0  0  0  0
  -21.9480   -4.4500   23.6410 C   0  0  0  0  0  3  0  0  0  0  0  0
  -22.1460   -5.2200   22.4800 C   0  0  0  0  0  0  0  0  0  0  0  0
  -22.6800   -4.6430   21.3770 F   0  0  0  0  0  0  0  0  0  0  0  0
  -21.1770   -4.2940   25.8990 F   0  0  0  0  0  0  0  0  0  0  0  0
  -23.1130  -13.9020   21.0510 C   0  0  0  0  0  0  0  0  0  0  0  0
  -22.3760  -13.2160   21.9180 N   0  0  0  0  0  0  0  0  0  0  0  0
  -22.6900  -14.9400   20.5420 O   0  0  0  0  0  0  0  0  0  0  0  0
  -22.7320  -12.3860   22.3630 H   0  0  0  0  0  0  0  0  0  0  0  0
  -21.4470  -13.5390   22.1480 H   0  0  0  0  0  0  0  0  0  0  0  0
  -25.7570  -15.5400   20.2330 N   0  0  0  0  0  0  0  0  0  0  0  0
  -25.0080  -16.2090   20.3730 H   0  0  0  0  0  0  0  0  0  0  0  0
  -26.6060  -15.9640   19.8830 H   0  0  0  0  0  0  0  0  0  0  0  0
  2  6  1  0
  3  6  1  0
  3  5  1  0
  4  2  1  0
  4  1  1  0
  5 51  1  0
  5  1  1  0
  6  7  1  1
  6  4  1  0
  7  8  2  0
  9  7  1  0
  9 10  1  0
 11 22  2  0
 12 10  1  0
 12 17  1  0
 13 21  1  0
 13 23  1  0
 14 20  1  0
 14 16  1  0
 15 21  1  0
 16 15  1  0
 17 16  2  0
 18 19  1  0
 18 12  2  0
 19 14  2  0
 20 13  1  0
 21 11  1  0
 23 25  2  0
 24 23  1  0
 26 24  1  0
 27 36  2  0
 27 32  1  0
 28 24  1  0
 28 32  1  0
 29 28  1  0
 30 31  1  0
 30 29  1  0
 31 27  1  0
 32 33  2  0
 33 34  1  0
 35 34  2  0
 36 35  1  0
 37 11  1  0
 37 42  1  0
 37 38  1  0
 38 41  1  1
 38 39  1  0
 40 38  1  0
 42 45  1  0
 43 47  1  0
 43 42  1  0
 44 43  2  0
 47 46  1  0
 49 50  1  0
 49 47  1  0
 49 48  1  0
 51 60  1  0
 52 60  1  0
 53 58  1  0
 54 55  1  0
 54 53  1  0
 56 55  1  0
 56 65  1  0
 56 57  1  0
 58 52  1  0
 58 57  1  0
 59 52  2  0
 60 61  1  0
 62 63  2  0
 63 82  1  0
 64 63  1  0
 64 67  1  0
 65 66  1  0
 65 62  1  0
 66 64  2  0
 67 68  1  0
 68 69  2  0
 70 73  1  0
 70 69  1  0
 71 70  2  0
 72 71  1  0
 72 67  2  0
 73 74  1  0
 74 79  2  0
 74 75  1  0
 75 76  2  0
 76 77  1  0
 77 81  1  0
 78 77  2  0
 79 78  1  0
 80 79  1  0
 82 83  1  0
 83 86  1  0
 83 85  1  0
 84 82  2  0
 87 88  1  0
 87 62  1  0
 89 87  1  0
M  ISO  4   9 101  10 101  52 100  60 100
M  END
>  <TORSDO>  (44) 
F 19

>  <SCORE>  (44) 
-13.814

>  <name>  (44) 
43

>  <ligand_id>  (44) 
43

>  <original_smiles>  (44) 
[H]c1c([H])c([H])c2c(c1[H])C([H])([H])C([H])([H])C([H])([H])C2([H])N([H])C(=O)C1([H])N(C(=O)C([H])(N([H])C(=O)C([H])(N([H])C([H])([H])[H])C([H])([H])[H])C(C([H])([H])[H])(C([H])([H])[H])C([H])([H])[H])C([H])([H])c2c([H])c(OC([H])([H])C(=O)C34C([H])([H])C([H])(C([H])([H])N([H])C(=O)N5C([H])([H])C([H])([H])C([H])([H])C([H])(n6nc(-c7c([H])c([H])c(Oc8c([H])c([H])c(F)c([H])c8F)c([H])c7[H])c(C(=O)N([H])[H])c6N([H])[H])C5([H])[H])C([H])([H])C3([H])C4([H])[H])c([H])c([H])c2C1([H])[H]

>  <smiles>  (44) 
[H]c1c([H])c([H])c2c(c1[H])C([H])([H])C([H])([H])C([H])([H])C2([H])N([H])C(=O)C1([H])N(C(=O)C([H])(N([H])C(=O)C([H])(N([H])C([H])([H])[H])C([H])([H])[H])C(C([H])([H])[H])(C([H])([H])[H])C([H])([H])[H])C([H])([H])c2c([H])c(OC([H])([H])C(=O)C34C([H])([H])C([H])(C([H])([H])N([H])C(=O)N5C([H])([H])C([H])([H])C([H])([H])C([H])(n6nc(-c7c([H])c([H])c(Oc8c([H])c([H])c(F)c([H])c8F)c([H])c7[H])c(C(=O)N([H])[H])c6N([H])[H])C5([H])[H])C([H])([H])C3([H])C4([H])[H])c([H])c([H])c2C1([H])[H]

$$$$
44:0:0
     RDKit          3D

 88 97  0  0  1  0  0  0  0  0999 V2000
  -31.1290  -22.7480   19.5580 C   0  0  0  0  0  2  0  0  0  0  0  0
  -30.3600  -23.2480   20.7920 C   0  0  0  0  0  2  0  0  0  0  0  0
  -29.2320  -21.2860   18.3750 C   0  0  0  0  0  2  0  0  0  0  0  0
  -30.5120  -21.4270   19.1510 C   0  0  0  0  0  3  0  0  0  0  0  0
  -28.9000  -22.8150   20.5990 C   0  0  0  0  0  3  0  0  0  0  0  0
  -29.1970  -21.2280   19.8820 C   0  0  1  0  0  0  0  0  0  0  0  0
  -28.1020  -24.2980   19.9730 C   0  0  0  0  0  2  0  0  0  0  0  0
  -28.2310  -25.9000   20.3100 O   0  0  0  0  0  0  0  0  0  0  0  0
  -24.6560  -31.8460   23.1890 C   0  0  0  0  0  0  0  0  0  0  0  0
  -27.2080  -26.9730   20.1990 C   0  0  0  0  0  0  0  0  0  0  0  0
  -23.4540  -30.4410   21.5600 C   0  0  0  0  0  3  0  0  0  0  0  0
  -24.9000  -28.8310   20.1410 C   0  0  0  0  0  0  0  0  0  0  0  0
  -26.0170  -30.6590   21.4030 C   0  0  0  0  0  2  0  0  0  0  0  0
  -26.0860  -29.2480   20.7580 C   0  0  0  0  0  0  0  0  0  0  0  0
  -27.2330  -28.3390   20.7640 C   0  0  0  0  0  3  0  0  0  0  0  0
  -25.9940  -26.7010   19.5290 C   0  0  0  0  0  3  0  0  0  0  0  0
  -24.8780  -27.5780   19.5060 C   0  0  0  0  0  3  0  0  0  0  0  0
  -23.6780  -29.7470   20.1880 C   0  0  0  0  0  2  0  0  0  0  0  0
  -24.7310  -31.0080   22.1050 N   0  0  0  0  0  0  0  0  0  0  0  0
  -23.5680  -32.1400   23.7120 O   0  0  0  0  0  0  0  0  0  0  0  0
  -22.7610  -29.4520   22.5340 C   0  0  0  0  0  0  0  0  0  0  0  0
  -21.4300  -29.2990   22.4210 N   0  0  0  0  0  0  0  0  0  0  0  0
  -23.4300  -28.8230   23.3590 O   0  0  0  0  0  0  0  0  0  0  0  0
  -20.9450  -29.8560   21.7310 H   0  0  0  0  0  0  0  0  0  0  0  0
  -18.0430  -28.1180   22.9560 C   0  0  0  0  0  0  0  0  0  0  0  0
  -20.6050  -28.3690   23.2000 C   0  0  0  0  0  3  0  0  0  0  0  0
  -20.6930  -26.9350   22.6280 C   0  0  0  0  0  2  0  0  0  0  0  0
  -19.5830  -26.6160   21.6230 C   0  0  0  0  0  2  0  0  0  0  0  0
  -18.2070  -26.7680   22.2780 C   0  0  0  0  0  2  0  0  0  0  0  0
  -19.1670  -28.8760   23.3740 C   0  0  0  0  0  0  0  0  0  0  0  0
  -18.9580  -30.1370   23.9720 C   0  0  0  0  0  3  0  0  0  0  0  0
  -17.6560  -30.6410   24.1540 C   0  0  0  0  0  3  0  0  0  0  0  0
  -16.5450  -29.8810   23.7490 C   0  0  0  0  0  3  0  0  0  0  0  0
  -16.7390  -28.6210   23.1560 C   0  0  0  0  0  3  0  0  0  0  0  0
  -25.9300  -32.4880   23.8160 C   0  0  0  0  0  3  0  0  0  0  0  0
  -26.4450  -31.7180   25.0950 C   0  0  1  0  0  0  0  0  0  0  0  0
  -25.3540  -31.4860   26.1660 C   0  0  0  0  0  1  0  0  0  0  0  0
  -27.0260  -30.3380   24.7140 C   0  0  0  0  0  1  0  0  0  0  0  0
  -27.5970  -32.5130   25.7550 C   0  0  0  0  0  1  0  0  0  0  0  0
  -25.6110  -33.8850   24.1600 N   0  0  0  0  0  0  0  0  0  0  0  0
  -25.9320  -34.9520   23.4160 C   0  0  0  0  0  0  0  0  0  0  0  0
  -26.5910  -34.8640   22.3770 O   0  0  0  0  0  0  0  0  0  0  0  0
  -25.0210  -34.0260   24.9680 H   0  0  0  0  0  0  0  0  0  0  0  0
  -24.1910  -36.7480   23.1180 C   0  0  0  0  0  1  0  0  0  0  0  0
  -25.4490  -36.3350   23.8990 C   0  0  0  0  0  3  0  0  0  0  0  0
  -27.5950  -37.2250   24.6960 C   0  0  0  0  0  1  0  0  0  0  0  0
  -26.4740  -37.3950   23.7750 N   0  0  0  0  0  0  0  0  0  0  0  0
  -26.0670  -38.3120   23.9390 H   0  0  0  0  0  0  0  0  0  0  0  0
  -29.1070  -19.5960   20.5500 C   0  0  0  0  0  3  0  0  0  0  0  0
  -29.9380  -18.0920   20.0420 C   0  0  0  0  0  3  0  0  0  0  0  0
  -30.4380  -15.2190   20.2420 C   0  0  0  0  0  0  0  0  0  0  0  0
  -30.3670  -12.7880   19.3700 C   0  0  0  0  0  2  0  0  0  0  0  0
  -29.4290  -12.6220   18.1470 C   0  0  0  0  0  2  0  0  0  0  0  0
  -27.9840  -12.3610   18.6050 C   0  0  0  0  0  2  0  0  0  0  0  0
  -27.5580  -13.3200   19.7460 C   0  0  0  0  0  3  0  0  0  0  0  0
  -28.6220  -13.4490   20.8590 C   0  0  0  0  0  2  0  0  0  0  0  0
  -29.8570  -13.9250   20.2170 N   0  0  0  0  0  0  0  0  0  0  0  0
  -31.6430  -15.2240   19.9540 O   0  0  0  0  0  0  0  0  0  0  0  0
  -29.6910  -16.4840   20.3790 N   0  0  0  0  0  0  0  0  0  0  0  0
  -28.7290  -16.2950   20.6210 H   0  0  0  0  0  0  0  0  0  0  0  0
  -25.1980  -13.8820   20.5350 C   0  0  0  0  0  0  0  0  0  0  0  0
  -24.1400  -13.1050   20.9160 C   0  0  0  0  0  0  0  0  0  0  0  0
  -24.6040  -11.7550   20.8750 C   0  0  0  0  0  0  0  0  0  0  0  0
  -26.2360  -13.0050   20.2730 N   0  0  0  0  0  0  0  0  0  0  0  0
  -25.8920  -11.7200   20.5470 N   0  0  0  0  0  0  0  0  0  0  0  0
  -23.8780  -10.4930   21.0700 C   0  0  0  0  0  0  0  0  0  0  0  0
  -24.3280   -9.5130   21.9830 C   0  0  0  0  0  3  0  0  0  0  0  0
  -23.5990   -8.3180   22.1680 C   0  0  0  0  0  3  0  0  0  0  0  0
  -22.4060   -8.0950   21.4400 C   0  0  0  0  0  0  0  0  0  0  0  0
  -21.9750   -9.0630   20.5160 C   0  0  0  0  0  3  0  0  0  0  0  0
  -22.7040  -10.2500   20.3280 C   0  0  0  0  0  3  0  0  0  0  0  0
  -21.6460   -6.9530   21.5360 O   0  0  0  0  0  0  0  0  0  0  0  0
  -21.6340   -6.1910   22.6750 C   0  0  0  0  0  0  0  0  0  0  0  0
  -21.2700   -6.7290   23.9290 C   0  0  0  0  0  3  0  0  0  0  0  0
  -21.2030   -5.8920   25.0610 C   0  0  0  0  0  3  0  0  0  0  0  0
  -21.4900   -4.5200   24.9420 C   0  0  0  0  0  0  0  0  0  0  0  0
  -21.8470   -3.9820   23.6920 C   0  0  0  0  0  3  0  0  0  0  0  0
  -21.9170   -4.8130   22.5630 C   0  0  0  0  0  0  0  0  0  0  0  0
  -22.2410   -4.2850   21.3580 F   0  0  0  0  0  0  0  0  0  0  0  0
  -21.4190   -3.7150   26.0280 F   0  0  0  0  0  0  0  0  0  0  0  0
  -22.7470  -13.5840   21.2020 C   0  0  0  0  0  0  0  0  0  0  0  0
  -22.0280  -12.8890   22.0760 N   0  0  0  0  0  0  0  0  0  0  0  0
  -22.3060  -14.6100   20.6860 O   0  0  0  0  0  0  0  0  0  0  0  0
  -22.4000  -12.0600   22.5150 H   0  0  0  0  0  0  0  0  0  0  0  0
  -21.0920  -13.1900   22.3080 H   0  0  0  0  0  0  0  0  0  0  0  0
  -25.3580  -15.2530   20.3590 N   0  0  0  0  0  0  0  0  0  0  0  0
  -24.5880  -15.9020   20.4800 H   0  0  0  0  0  0  0  0  0  0  0  0
  -26.1880  -15.6930   19.9820 H   0  0  0  0  0  0  0  0  0  0  0  0
  1  2  1  0
  3  6  1  0
  4  3  1  0
  4  1  1  0
  4  6  1  0
  5  7  1  0
  5  2  1  0
  6 49  1  6
  6  5  1  0
  7  8  1  0
  9 20  2  0
 10  8  1  0
 10 15  1  0
 11 19  1  0
 11 21  1  0
 12 18  1  0
 12 14  1  0
 13 19  1  0
 14 15  2  0
 14 13  1  0
 16 10  2  0
 17 16  1  0
 17 12  2  0
 18 11  1  0
 19  9  1  0
 21 23  2  0
 22 21  1  0
 24 22  1  0
 25 34  2  0
 25 30  1  0
 26 22  1  0
 26 30  1  0
 27 26  1  0
 28 29  1  0
 28 27  1  0
 29 25  1  0
 30 31  2  0
 31 32  1  0
 33 32  2  0
 34 33  1  0
 35  9  1  0
 35 40  1  0
 35 36  1  0
 36 39  1  1
 36 37  1  0
 38 36  1  0
 40 43  1  0
 41 45  1  0
 41 40  1  0
 42 41  2  0
 45 44  1  0
 47 45  1  0
 47 48  1  0
 47 46  1  0
 50 59  1  0
 50 49  2  0
 51 59  1  0
 52 57  1  0
 53 54  1  0
 53 52  1  0
 55 54  1  0
 55 64  1  0
 55 56  1  0
 57 51  1  0
 57 56  1  0
 58 51  2  0
 59 60  1  0
 61 62  2  0
 62 81  1  0
 63 62  1  0
 63 66  1  0
 64 61  1  0
 64 65  1  0
 65 63  2  0
 66 67  1  0
 67 68  2  0
 69 72  1  0
 69 68  1  0
 70 69  2  0
 71 70  1  0
 71 66  2  0
 72 73  1  0
 73 74  1  0
 74 75  2  0
 76 75  1  0
 76 80  1  0
 77 76  2  0
 78 73  2  0
 78 77  1  0
 79 78  1  0
 81 82  1  0
 82 85  1  0
 82 84  1  0
 83 81  2  0
 86 87  1  0
 86 61  1  0
 88 86  1  0
M  ISO  4   7 101   8 101  51 100  59 100
M  END
>  <TORSDO>  (45) 
F 19

>  <SCORE>  (45) 
-15.745

>  <name>  (45) 
44

>  <ligand_id>  (45) 
44

>  <original_smiles>  (45) 
[H]c1c([H])c([H])c2c(c1[H])C([H])([H])C([H])([H])C([H])([H])C2([H])N([H])C(=O)C1([H])N(C(=O)C([H])(N([H])C(=O)C([H])(N([H])C([H])([H])[H])C([H])([H])[H])C(C([H])([H])[H])(C([H])([H])[H])C([H])([H])[H])C([H])([H])c2c([H])c(OC([H])([H])C3([H])C([H])([H])C([H])([H])C4([H])C([H])([H])C34C([H])([H])C([H])([H])N([H])C(=O)N3C([H])([H])C([H])([H])C([H])([H])C([H])(n4nc(-c5c([H])c([H])c(Oc6c([H])c([H])c(F)c([H])c6F)c([H])c5[H])c(C(=O)N([H])[H])c4N([H])[H])C3([H])[H])c([H])c([H])c2C1([H])[H]

>  <smiles>  (45) 
[H]c1c([H])c([H])c2c(c1[H])C([H])([H])C([H])([H])C([H])([H])C2([H])N([H])C(=O)C1([H])N(C(=O)C([H])(N([H])C(=O)C([H])(N([H])C([H])([H])[H])C([H])([H])[H])C(C([H])([H])[H])(C([H])([H])[H])C([H])([H])[H])C([H])([H])c2c([H])c(OC([H])([H])C3([H])C([H])([H])C([H])([H])C4([H])C([H])([H])C34C([H])([H])C([H])([H])N([H])C(=O)N3C([H])([H])C([H])([H])C([H])([H])C([H])(n4nc(-c5c([H])c([H])c(Oc6c([H])c([H])c(F)c([H])c6F)c([H])c5[H])c(C(=O)N([H])[H])c4N([H])[H])C3([H])[H])c([H])c([H])c2C1([H])[H]

$$$$
45:0:0
     RDKit          3D

 91100  0  0  1  0  0  0  0  0999 V2000
  -29.8390  -23.6140   21.5010 C   0  0  0  0  0  2  0  0  0  0  0  0
  -27.9560  -22.3370   20.2220 C   0  0  0  0  0  2  0  0  0  0  0  0
  -30.0040  -22.7990   20.2230 C   0  0  0  0  0  3  0  0  0  0  0  0
  -29.2280  -21.4780   19.8680 C   0  0  2  0  0  0  0  0  0  0  0  0
  -28.7390  -23.6460   20.4740 C   0  0  2  0  0  0  0  0  0  0  0  0
  -29.3780  -21.2210   18.3770 C   0  0  0  0  0  0  0  0  0  0  0  0
  -28.1850  -20.5590   17.6980 C   0  0  0  0  0  1  0  0  0  0  0  0
  -30.3610  -21.4820   17.6780 O   0  0  0  0  0  0  0  0  0  0  0  0
  -29.7250  -20.1430   20.6710 C   0  0  0  0  0  2  0  0  0  0  0  0
  -29.3720  -18.6120   20.2190 C   0  0  0  0  0  3  0  0  0  0  0  0
  -30.2370  -17.3670   20.8060 C   0  0  0  0  0  3  0  0  0  0  0  0
  -30.5600  -14.7740   20.3790 C   0  0  0  0  0  0  0  0  0  0  0  0
  -30.3590  -12.5040   19.3440 C   0  0  0  0  0  2  0  0  0  0  0  0
  -29.4130  -12.5610   18.1260 C   0  0  0  0  0  2  0  0  0  0  0  0
  -27.9470  -12.3810   18.5670 C   0  0  0  0  0  2  0  0  0  0  0  0
  -27.5730  -13.2740   19.7790 C   0  0  0  0  0  3  0  0  0  0  0  0
  -28.6360  -13.1940   20.8960 C   0  0  0  0  0  2  0  0  0  0  0  0
  -29.9270  -13.5540   20.2950 N   0  0  0  0  0  0  0  0  0  0  0  0
  -31.7500  -14.8710   20.0690 O   0  0  0  0  0  0  0  0  0  0  0  0
  -29.7980  -15.9090   20.6200 N   0  0  0  0  0  0  0  0  0  0  0  0
  -28.8220  -15.7240   20.7910 H   0  0  0  0  0  0  0  0  0  0  0  0
  -25.1830  -13.8570   20.5050 C   0  0  0  0  0  0  0  0  0  0  0  0
  -24.1210  -13.0790   20.8790 C   0  0  0  0  0  0  0  0  0  0  0  0
  -24.5910  -11.7290   20.8540 C   0  0  0  0  0  0  0  0  0  0  0  0
  -26.2310  -12.9810   20.2740 N   0  0  0  0  0  0  0  0  0  0  0  0
  -25.8830  -11.6980   20.5480 N   0  0  0  0  0  0  0  0  0  0  0  0
  -23.8720  -10.4640   21.0490 C   0  0  0  0  0  0  0  0  0  0  0  0
  -24.3200   -9.4940   21.9720 C   0  0  0  0  0  3  0  0  0  0  0  0
  -23.6010   -8.2940   22.1560 C   0  0  0  0  0  3  0  0  0  0  0  0
  -22.4190   -8.0550   21.4160 C   0  0  0  0  0  0  0  0  0  0  0  0
  -21.9890   -9.0130   20.4820 C   0  0  0  0  0  3  0  0  0  0  0  0
  -22.7080  -10.2050   20.2970 C   0  0  0  0  0  3  0  0  0  0  0  0
  -21.6700   -6.9060   21.5100 O   0  0  0  0  0  0  0  0  0  0  0  0
  -21.6540   -6.1470   22.6520 C   0  0  0  0  0  0  0  0  0  0  0  0
  -21.2700   -6.6860   23.8990 C   0  0  0  0  0  3  0  0  0  0  0  0
  -21.2020   -5.8550   25.0350 C   0  0  0  0  0  3  0  0  0  0  0  0
  -21.5080   -4.4850   24.9240 C   0  0  0  0  0  0  0  0  0  0  0  0
  -21.8840   -3.9450   23.6820 C   0  0  0  0  0  3  0  0  0  0  0  0
  -21.9540   -4.7740   22.5490 C   0  0  0  0  0  0  0  0  0  0  0  0
  -22.2970   -4.2450   21.3500 F   0  0  0  0  0  0  0  0  0  0  0  0
  -21.4360   -3.6840   26.0130 F   0  0  0  0  0  0  0  0  0  0  0  0
  -22.7210  -13.5490   21.1450 C   0  0  0  0  0  0  0  0  0  0  0  0
  -21.9970  -12.8520   22.0160 N   0  0  0  0  0  0  0  0  0  0  0  0
  -22.2770  -14.5670   20.6180 O   0  0  0  0  0  0  0  0  0  0  0  0
  -22.3710  -12.0280   22.4630 H   0  0  0  0  0  0  0  0  0  0  0  0
  -21.0570  -13.1480   22.2400 H   0  0  0  0  0  0  0  0  0  0  0  0
  -25.3390  -15.2270   20.3190 N   0  0  0  0  0  0  0  0  0  0  0  0
  -24.5670  -15.8760   20.4170 H   0  0  0  0  0  0  0  0  0  0  0  0
  -26.1780  -15.6650   19.9600 H   0  0  0  0  0  0  0  0  0  0  0  0
  -28.3000  -24.9800   19.6850 C   0  0  0  0  0  2  0  0  0  0  0  0
  -28.3020  -26.3880   20.2430 O   0  0  0  0  0  0  0  0  0  0  0  0
  -24.6120  -31.8920   23.2440 C   0  0  0  0  0  0  0  0  0  0  0  0
  -27.1890  -27.2700   20.1680 C   0  0  0  0  0  0  0  0  0  0  0  0
  -23.4030  -30.5000   21.6080 C   0  0  0  0  0  3  0  0  0  0  0  0
  -24.8410  -28.9470   20.1730 C   0  0  0  0  0  0  0  0  0  0  0  0
  -25.9500  -30.7910   21.4240 C   0  0  0  0  0  2  0  0  0  0  0  0
  -26.0190  -29.4110   20.7690 C   0  0  0  0  0  0  0  0  0  0  0  0
  -27.1920  -28.5850   20.7550 C   0  0  0  0  0  3  0  0  0  0  0  0
  -25.9750  -26.8830   19.5470 C   0  0  0  0  0  3  0  0  0  0  0  0
  -24.8240  -27.6920   19.5550 C   0  0  0  0  0  3  0  0  0  0  0  0
  -23.6110  -29.8330   20.2250 C   0  0  0  0  0  2  0  0  0  0  0  0
  -24.6740  -31.0800   22.1470 N   0  0  0  0  0  0  0  0  0  0  0  0
  -23.5280  -32.1730   23.7790 O   0  0  0  0  0  0  0  0  0  0  0  0
  -22.7370  -29.4820   22.5670 C   0  0  0  0  0  0  0  0  0  0  0  0
  -21.4090  -29.3080   22.4430 N   0  0  0  0  0  0  0  0  0  0  0  0
  -23.4140  -28.8530   23.3850 O   0  0  0  0  0  0  0  0  0  0  0  0
  -20.9210  -29.8690   21.7580 H   0  0  0  0  0  0  0  0  0  0  0  0
  -18.0310  -28.1060   22.9410 C   0  0  0  0  0  0  0  0  0  0  0  0
  -20.5880  -28.3700   23.2140 C   0  0  0  0  0  3  0  0  0  0  0  0
  -20.6950  -26.9370   22.6430 C   0  0  0  0  0  2  0  0  0  0  0  0
  -19.5940  -26.6100   21.6290 C   0  0  0  0  0  2  0  0  0  0  0  0
  -18.2120  -26.7550   22.2700 C   0  0  0  0  0  2  0  0  0  0  0  0
  -19.1480  -28.8710   23.3710 C   0  0  0  0  0  0  0  0  0  0  0  0
  -18.9260  -30.1350   23.9580 C   0  0  0  0  0  3  0  0  0  0  0  0
  -17.6200  -30.6340   24.1240 C   0  0  0  0  0  3  0  0  0  0  0  0
  -16.5170  -29.8650   23.7120 C   0  0  0  0  0  3  0  0  0  0  0  0
  -16.7240  -28.6040   23.1260 C   0  0  0  0  0  3  0  0  0  0  0  0
  -25.8960  -32.5230   23.8630 C   0  0  0  0  0  3  0  0  0  0  0  0
  -25.5890  -33.9230   24.1920 N   0  0  0  0  0  0  0  0  0  0  0  0
  -25.9160  -34.9740   23.4300 C   0  0  0  0  0  0  0  0  0  0  0  0
  -26.5810  -34.8690   22.3960 O   0  0  0  0  0  0  0  0  0  0  0  0
  -25.0010  -34.0780   24.9990 H   0  0  0  0  0  0  0  0  0  0  0  0
  -24.1860  -36.7690   23.0940 C   0  0  0  0  0  1  0  0  0  0  0  0
  -25.4350  -36.3630   23.8930 C   0  0  0  0  0  3  0  0  0  0  0  0
  -27.5790  -37.2480   24.7000 C   0  0  0  0  0  1  0  0  0  0  0  0
  -26.4670  -37.4160   23.7690 N   0  0  0  0  0  0  0  0  0  0  0  0
  -26.0630  -38.3360   23.9230 H   0  0  0  0  0  0  0  0  0  0  0  0
  -26.4110  -31.7550   25.1420 C   0  0  1  0  0  0  0  0  0  0  0  0
  -25.3180  -31.5250   26.2120 C   0  0  0  0  0  1  0  0  0  0  0  0
  -26.9900  -30.3730   24.7570 C   0  0  0  0  0  1  0  0  0  0  0  0
  -27.5640  -32.5480   25.8000 C   0  0  0  0  0  1  0  0  0  0  0  0
  2  5  1  0
  3  5  1  0
  3  1  1  0
  4  2  1  0
  4  3  1  0
  4  9  1  1
  5 50  1  6
  5  1  1  0
  6  4  1  0
  7  6  1  0
  8  6  2  0
 10  9  1  0
 10 11  2  0
 12 20  1  0
 13 18  1  0
 14 15  1  0
 14 13  1  0
 16 15  1  0
 16 25  1  0
 16 17  1  0
 18 12  1  0
 18 17  1  0
 19 12  2  0
 20 21  1  0
 20 11  1  0
 22 23  2  0
 23 42  1  0
 24 23  1  0
 24 27  1  0
 25 22  1  0
 25 26  1  0
 26 24  2  0
 27 28  1  0
 28 29  2  0
 30 33  1  0
 30 29  1  0
 31 30  2  0
 32 31  1  0
 32 27  2  0
 33 34  1  0
 34 35  1  0
 35 36  2  0
 37 36  1  0
 37 41  1  0
 38 37  2  0
 39 34  2  0
 39 38  1  0
 40 39  1  0
 42 43  1  0
 43 46  1  0
 43 45  1  0
 44 42  2  0
 47 48  1  0
 47 22  1  0
 49 47  1  0
 50 51  1  0
 52 63  2  0
 53 51  1  0
 53 58  1  0
 54 62  1  0
 54 64  1  0
 55 61  1  0
 55 57  1  0
 56 62  1  0
 57 56  1  0
 58 57  2  0
 59 60  1  0
 59 53  2  0
 60 55  2  0
 61 54  1  0
 62 52  1  0
 64 66  2  0
 65 64  1  0
 67 65  1  0
 68 77  2  0
 68 73  1  0
 69 65  1  0
 69 73  1  0
 70 69  1  0
 71 72  1  0
 71 70  1  0
 72 68  1  0
 73 74  2  0
 74 75  1  0
 76 75  2  0
 77 76  1  0
 78 52  1  0
 78 79  1  0
 78 88  1  0
 79 82  1  0
 80 84  1  0
 80 79  1  0
 81 80  2  0
 84 83  1  0
 86 84  1  0
 86 87  1  0
 86 85  1  0
 88 91  1  1
 88 89  1  0
 90 88  1  0
M  ISO  4  12 100  20 100  50 101  51 101
M  END
>  <TORSDO>  (46) 
F 21

>  <SCORE>  (46) 
-13.560

>  <name>  (46) 
45

>  <ligand_id>  (46) 
45

>  <original_smiles>  (46) 
[H]c1c([H])c([H])c2c(c1[H])C([H])([H])C([H])([H])C([H])([H])C2([H])N([H])C(=O)C1([H])N(C(=O)C([H])(N([H])C(=O)C([H])(N([H])C([H])([H])[H])C([H])([H])[H])C(C([H])([H])[H])(C([H])([H])[H])C([H])([H])[H])C([H])([H])c2c([H])c(OC([H])([H])C34C([H])([H])C3([H])C(C(=O)C([H])([H])[H])(C([H])([H])C([H])([H])C([H])([H])N([H])C(=O)N3C([H])([H])C([H])([H])C([H])([H])C([H])(n5nc(-c6c([H])c([H])c(Oc7c([H])c([H])c(F)c([H])c7F)c([H])c6[H])c(C(=O)N([H])[H])c5N([H])[H])C3([H])[H])C4([H])[H])c([H])c([H])c2C1([H])[H]

>  <smiles>  (46) 
[H]c1c([H])c([H])c2c(c1[H])C([H])([H])C([H])([H])C([H])([H])C2([H])N([H])C(=O)C1([H])N(C(=O)C([H])(N([H])C(=O)C([H])(N([H])C([H])([H])[H])C([H])([H])[H])C(C([H])([H])[H])(C([H])([H])[H])C([H])([H])[H])C([H])([H])c2c([H])c(OC([H])([H])C34C([H])([H])C3([H])C(C(=O)C([H])([H])[H])(C([H])([H])C([H])([H])C([H])([H])N([H])C(=O)N3C([H])([H])C([H])([H])C([H])([H])C([H])(n5nc(-c6c([H])c([H])c(Oc7c([H])c([H])c(F)c([H])c7F)c([H])c6[H])c(C(=O)N([H])[H])c5N([H])[H])C3([H])[H])C4([H])[H])c([H])c([H])c2C1([H])[H]

$$$$
46:0:0
     RDKit          3D

 88 96  0  0  1  0  0  0  0  0999 V2000
  -28.8100  -22.2480   19.6820 C   0  0  0  0  0  3  0  0  0  0  0  0
  -31.1850  -19.8800   21.4910 C   0  0  0  0  0  2  0  0  0  0  0  0
  -29.8540  -20.6500   21.6140 C   0  0  0  0  0  2  0  0  0  0  0  0
  -31.2220  -19.1220   20.1590 C   0  0  0  0  0  2  0  0  0  0  0  0
  -29.0160  -20.4490   20.3410 C   0  0  0  0  0  3  0  0  0  0  0  0
  -29.7770  -18.7700   19.8200 C   0  0  0  0  0  3  0  0  0  0  0  0
  -30.3620  -15.6720   20.0950 C   0  0  0  0  0  0  0  0  0  0  0  0
  -30.4300  -13.1390   19.3050 C   0  0  0  0  0  2  0  0  0  0  0  0
  -29.5190  -12.7600   18.1050 C   0  0  0  0  0  2  0  0  0  0  0  0
  -28.0760  -12.4750   18.5510 C   0  0  0  0  0  2  0  0  0  0  0  0
  -27.6050  -13.4340   19.6660 C   0  0  0  0  0  3  0  0  0  0  0  0
  -28.6670  -13.7070   20.7570 C   0  0  0  0  0  2  0  0  0  0  0  0
  -29.8320  -14.3160   20.0750 N   0  0  0  0  0  0  0  0  0  0  0  0
  -31.5880  -15.6060   19.8820 O   0  0  0  0  0  0  0  0  0  0  0  0
  -29.6200  -17.0330   20.1490 N   0  0  0  0  0  0  0  0  0  0  0  0
  -28.6460  -16.8260   20.3160 H   0  0  0  0  0  0  0  0  0  0  0  0
  -25.2460  -13.9250   20.4770 C   0  0  0  0  0  0  0  0  0  0  0  0
  -24.2030  -13.1300   20.8610 C   0  0  0  0  0  0  0  0  0  0  0  0
  -24.6930  -11.7880   20.8140 C   0  0  0  0  0  0  0  0  0  0  0  0
  -26.2980  -13.0720   20.2020 N   0  0  0  0  0  0  0  0  0  0  0  0
  -25.9810  -11.7780   20.4760 N   0  0  0  0  0  0  0  0  0  0  0  0
  -23.9760  -10.5160   20.9980 C   0  0  0  0  0  0  0  0  0  0  0  0
  -24.3990   -9.5540   21.9420 C   0  0  0  0  0  3  0  0  0  0  0  0
  -23.6750   -8.3540   22.1180 C   0  0  0  0  0  3  0  0  0  0  0  0
  -22.5120   -8.1050   21.3510 C   0  0  0  0  0  0  0  0  0  0  0  0
  -22.1050   -9.0540   20.3970 C   0  0  0  0  0  3  0  0  0  0  0  0
  -22.8300  -10.2460   20.2200 C   0  0  0  0  0  3  0  0  0  0  0  0
  -21.7670   -6.9520   21.4340 O   0  0  0  0  0  0  0  0  0  0  0  0
  -21.6830   -6.2290   22.5990 C   0  0  0  0  0  0  0  0  0  0  0  0
  -21.1810   -6.7930   23.7910 C   0  0  0  0  0  3  0  0  0  0  0  0
  -21.0540   -5.9970   24.9480 C   0  0  0  0  0  3  0  0  0  0  0  0
  -21.4120   -4.6360   24.9110 C   0  0  0  0  0  0  0  0  0  0  0  0
  -21.9000   -4.0690   23.7210 C   0  0  0  0  0  3  0  0  0  0  0  0
  -22.0320   -4.8630   22.5670 C   0  0  0  0  0  0  0  0  0  0  0  0
  -22.4840   -4.3050   21.4180 F   0  0  0  0  0  0  0  0  0  0  0  0
  -21.2820   -3.8710   26.0190 F   0  0  0  0  0  0  0  0  0  0  0  0
  -22.8040  -13.5860   21.1440 C   0  0  0  0  0  0  0  0  0  0  0  0
  -22.0850  -12.8790   22.0080 N   0  0  0  0  0  0  0  0  0  0  0  0
  -22.3540  -14.6080   20.6310 O   0  0  0  0  0  0  0  0  0  0  0  0
  -22.4520  -12.0480   22.4500 H   0  0  0  0  0  0  0  0  0  0  0  0
  -21.1480  -13.1740   22.2320 H   0  0  0  0  0  0  0  0  0  0  0  0
  -25.3850  -15.2990   20.3060 N   0  0  0  0  0  0  0  0  0  0  0  0
  -24.6250  -15.9490   20.4790 H   0  0  0  0  0  0  0  0  0  0  0  0
  -26.1940  -15.7350   19.8880 H   0  0  0  0  0  0  0  0  0  0  0  0
  -29.6940  -22.8950   17.2940 C   0  0  0  0  0  1  0  0  0  0  0  0
  -30.0230  -22.5540   18.7640 C   0  0  0  0  0  2  0  0  0  0  0  0
  -28.0370  -23.9240   20.2210 C   0  0  0  0  0  2  0  0  0  0  0  0
  -28.2150  -25.6550   20.1510 O   0  0  0  0  0  0  0  0  0  0  0  0
  -24.6200  -31.8620   23.1620 C   0  0  0  0  0  0  0  0  0  0  0  0
  -27.2120  -26.8240   20.1810 C   0  0  0  0  0  0  0  0  0  0  0  0
  -23.4540  -30.4550   21.5180 C   0  0  0  0  0  3  0  0  0  0  0  0
  -24.9150  -28.8100   20.1340 C   0  0  0  0  0  0  0  0  0  0  0  0
  -26.0350  -30.6130   21.4210 C   0  0  0  0  0  2  0  0  0  0  0  0
  -26.1080  -29.1860   20.7660 C   0  0  0  0  0  0  0  0  0  0  0  0
  -27.2420  -28.2200   20.7560 C   0  0  0  0  0  3  0  0  0  0  0  0
  -25.9680  -26.6390   19.5260 C   0  0  0  0  0  3  0  0  0  0  0  0
  -24.8760  -27.5540   19.5050 C   0  0  0  0  0  3  0  0  0  0  0  0
  -23.7090  -29.7550   20.1540 C   0  0  0  0  0  2  0  0  0  0  0  0
  -24.7260  -31.0100   22.0840 N   0  0  0  0  0  0  0  0  0  0  0  0
  -23.5190  -32.1570   23.6580 O   0  0  0  0  0  0  0  0  0  0  0  0
  -22.7350  -29.4740   22.4830 C   0  0  0  0  0  0  0  0  0  0  0  0
  -21.3990  -29.3280   22.3590 N   0  0  0  0  0  0  0  0  0  0  0  0
  -23.3880  -28.8410   23.3160 O   0  0  0  0  0  0  0  0  0  0  0  0
  -20.9200  -29.8880   21.6680 H   0  0  0  0  0  0  0  0  0  0  0  0
  -18.0060  -28.1460   22.8940 C   0  0  0  0  0  0  0  0  0  0  0  0
  -20.5720  -28.3940   23.1310 C   0  0  0  0  0  3  0  0  0  0  0  0
  -20.6530  -26.9620   22.5500 C   0  0  0  0  0  2  0  0  0  0  0  0
  -19.5400  -26.6550   21.5420 C   0  0  0  0  0  2  0  0  0  0  0  0
  -18.1660  -26.8040   22.2000 C   0  0  0  0  0  2  0  0  0  0  0  0
  -19.1350  -28.9000   23.3160 C   0  0  0  0  0  0  0  0  0  0  0  0
  -18.9270  -30.1560   23.9290 C   0  0  0  0  0  3  0  0  0  0  0  0
  -17.6250  -30.6570   24.1240 C   0  0  0  0  0  3  0  0  0  0  0  0
  -16.5140  -29.9030   23.7110 C   0  0  0  0  0  3  0  0  0  0  0  0
  -16.7040  -28.6510   23.1010 C   0  0  0  0  0  3  0  0  0  0  0  0
  -25.8720  -32.5230   23.8110 C   0  0  0  0  0  3  0  0  0  0  0  0
  -26.3610  -31.7730   25.1150 C   0  0  1  0  0  0  0  0  0  0  0  0
  -25.2470  -31.5460   26.1640 C   0  0  0  0  0  1  0  0  0  0  0  0
  -26.9580  -30.3890   24.7730 C   0  0  0  0  0  1  0  0  0  0  0  0
  -27.4980  -32.5780   25.7860 C   0  0  0  0  0  1  0  0  0  0  0  0
  -25.5350  -33.9230   24.1400 N   0  0  0  0  0  0  0  0  0  0  0  0
  -25.8760  -34.9920   23.4110 C   0  0  0  0  0  0  0  0  0  0  0  0
  -26.5650  -34.9070   22.3900 O   0  0  0  0  0  0  0  0  0  0  0  0
  -24.9230  -34.0610   24.9320 H   0  0  0  0  0  0  0  0  0  0  0  0
  -24.1550  -36.7990   23.0520 C   0  0  0  0  0  1  0  0  0  0  0  0
  -25.3790  -36.3760   23.8800 C   0  0  0  0  0  3  0  0  0  0  0  0
  -27.4920  -37.2570   24.7740 C   0  0  0  0  0  1  0  0  0  0  0  0
  -26.4130  -37.4330   23.8060 N   0  0  0  0  0  0  0  0  0  0  0  0
  -26.0020  -38.3530   23.9500 H   0  0  0  0  0  0  0  0  0  0  0  0
  1 46  1  0
  1 47  1  0
  2  3  1  0
  4  2  1  0
  5  1  1  0
  5  3  1  0
  6 15  1  0
  6  4  1  0
  6  5  1  0
  7 15  1  0
  8 13  1  0
  9 10  1  0
  9  8  1  0
 11 10  1  0
 11 20  1  0
 11 12  1  0
 13  7  1  0
 13 12  1  0
 14  7  2  0
 15 16  1  0
 17 18  2  0
 18 37  1  0
 19 18  1  0
 19 22  1  0
 20 21  1  0
 20 17  1  0
 21 19  2  0
 22 23  1  0
 23 24  2  0
 25 28  1  0
 25 24  1  0
 26 25  2  0
 27 26  1  0
 27 22  2  0
 28 29  1  0
 29 30  1  0
 30 31  2  0
 32 31  1  0
 32 36  1  0
 33 32  2  0
 34 29  2  0
 34 33  1  0
 35 34  1  0
 37 38  1  0
 38 41  1  0
 38 40  1  0
 39 37  2  0
 42 17  1  0
 42 43  1  0
 44 42  1  0
 45 46  1  0
 48 50  1  0
 48 47  1  0
 49 60  2  0
 50 55  1  0
 51 59  1  0
 51 61  1  0
 52 58  1  0
 52 54  1  0
 53 59  1  0
 54 53  1  0
 55 54  2  0
 56 50  2  0
 57 56  1  0
 57 52  2  0
 58 51  1  0
 59 49  1  0
 61 63  2  0
 62 61  1  0
 64 62  1  0
 65 74  2  0
 65 70  1  0
 66 62  1  0
 66 70  1  0
 67 66  1  0
 68 69  1  0
 68 67  1  0
 69 65  1  0
 70 71  2  0
 71 72  1  0
 73 72  2  0
 74 73  1  0
 75 49  1  0
 75 80  1  0
 75 76  1  0
 76 79  1  1
 76 77  1  0
 78 76  1  0
 80 83  1  0
 81 85  1  0
 81 80  1  0
 82 81  2  0
 85 84  1  0
 87 85  1  0
 87 88  1  0
 87 86  1  0
M  ISO  4   7 100  15 100  47 101  48 101
M  END
>  <TORSDO>  (47) 
F 19

>  <SCORE>  (47) 
-16.422

>  <name>  (47) 
46

>  <ligand_id>  (47) 
46

>  <original_smiles>  (47) 
[H]c1c([H])c([H])c2c(c1[H])C([H])([H])C([H])([H])C([H])([H])C2([H])N([H])C(=O)C1([H])N(C(=O)C([H])(N([H])C(=O)C([H])(N([H])C([H])([H])[H])C([H])([H])[H])C(C([H])([H])[H])(C([H])([H])[H])C([H])([H])[H])C([H])([H])c2c([H])c(OC([H])([H])C([H])(C([H])([H])C([H])([H])[H])C3([H])C([H])([H])C([H])([H])C([H])([H])C3([H])N([H])C(=O)N3C([H])([H])C([H])([H])C([H])([H])C([H])(n4nc(-c5c([H])c([H])c(Oc6c([H])c([H])c(F)c([H])c6F)c([H])c5[H])c(C(=O)N([H])[H])c4N([H])[H])C3([H])[H])c([H])c([H])c2C1([H])[H]

>  <smiles>  (47) 
[H]c1c([H])c([H])c2c(c1[H])C([H])([H])C([H])([H])C([H])([H])C2([H])N([H])C(=O)C1([H])N(C(=O)C([H])(N([H])C(=O)C([H])(N([H])C([H])([H])[H])C([H])([H])[H])C(C([H])([H])[H])(C([H])([H])[H])C([H])([H])[H])C([H])([H])c2c([H])c(OC([H])([H])C([H])(C([H])([H])C([H])([H])[H])C3([H])C([H])([H])C([H])([H])C([H])([H])C3([H])N([H])C(=O)N3C([H])([H])C([H])([H])C([H])([H])C([H])(n4nc(-c5c([H])c([H])c(Oc6c([H])c([H])c(F)c([H])c6F)c([H])c5[H])c(C(=O)N([H])[H])c4N([H])[H])C3([H])[H])c([H])c([H])c2C1([H])[H]

$$$$
47:0:0
     RDKit          3D

 89 96  0  0  1  0  0  0  0  0999 V2000
  -29.1790  -21.4460   20.8280 C   0  0  0  0  0  2  0  0  0  0  0  0
  -28.7990  -22.7240   20.0170 C   0  0  0  0  0  2  0  0  0  0  0  0
  -29.0390  -24.1370   20.6400 C   0  0  0  0  0  2  0  0  0  0  0  0
  -28.2150  -25.2170   19.8810 C   0  0  0  0  0  2  0  0  0  0  0  0
  -28.3460  -26.6080   20.2840 O   0  0  0  0  0  0  0  0  0  0  0  0
  -24.5680  -31.9190   23.2280 C   0  0  0  0  0  0  0  0  0  0  0  0
  -27.2080  -27.4070   20.1940 C   0  0  0  0  0  0  0  0  0  0  0  0
  -23.3670  -30.5070   21.5970 C   0  0  0  0  0  3  0  0  0  0  0  0
  -24.8260  -28.9680   20.1790 C   0  0  0  0  0  0  0  0  0  0  0  0
  -25.9030  -30.8470   21.4140 C   0  0  0  0  0  2  0  0  0  0  0  0
  -25.9860  -29.4700   20.7780 C   0  0  0  0  0  0  0  0  0  0  0  0
  -27.1760  -28.6950   20.7930 C   0  0  0  0  0  3  0  0  0  0  0  0
  -26.0310  -26.9650   19.5350 C   0  0  0  0  0  3  0  0  0  0  0  0
  -24.8470  -27.7150   19.5540 C   0  0  0  0  0  3  0  0  0  0  0  0
  -23.5830  -29.8310   20.2190 C   0  0  0  0  0  2  0  0  0  0  0  0
  -24.6300  -31.1070   22.1360 N   0  0  0  0  0  0  0  0  0  0  0  0
  -23.4830  -32.1970   23.7620 O   0  0  0  0  0  0  0  0  0  0  0  0
  -22.7120  -29.4880   22.5580 C   0  0  0  0  0  0  0  0  0  0  0  0
  -21.3860  -29.3110   22.4380 N   0  0  0  0  0  0  0  0  0  0  0  0
  -23.3970  -28.8630   23.3720 O   0  0  0  0  0  0  0  0  0  0  0  0
  -20.8900  -29.8710   21.7560 H   0  0  0  0  0  0  0  0  0  0  0  0
  -18.0080  -28.1360   22.9610 C   0  0  0  0  0  0  0  0  0  0  0  0
  -20.5700  -28.3770   23.2170 C   0  0  0  0  0  3  0  0  0  0  0  0
  -20.6570  -26.9430   22.6440 C   0  0  0  0  0  2  0  0  0  0  0  0
  -19.5460  -26.6230   21.6380 C   0  0  0  0  0  2  0  0  0  0  0  0
  -18.1680  -26.7830   22.2900 C   0  0  0  0  0  2  0  0  0  0  0  0
  -19.1360  -28.8900   23.3830 C   0  0  0  0  0  0  0  0  0  0  0  0
  -18.9330  -30.1570   23.9720 C   0  0  0  0  0  3  0  0  0  0  0  0
  -17.6350  -30.6710   24.1440 C   0  0  0  0  0  3  0  0  0  0  0  0
  -16.5210  -29.9150   23.7400 C   0  0  0  0  0  3  0  0  0  0  0  0
  -16.7080  -28.6500   23.1540 C   0  0  0  0  0  3  0  0  0  0  0  0
  -25.8510  -32.5560   23.8440 C   0  0  0  0  0  3  0  0  0  0  0  0
  -25.5390  -33.9570   24.1580 N   0  0  0  0  0  0  0  0  0  0  0  0
  -25.8640  -35.0010   23.3840 C   0  0  0  0  0  0  0  0  0  0  0  0
  -26.5270  -34.8870   22.3490 O   0  0  0  0  0  0  0  0  0  0  0  0
  -24.9500  -34.1180   24.9610 H   0  0  0  0  0  0  0  0  0  0  0  0
  -24.1250  -36.7790   23.0170 C   0  0  0  0  0  1  0  0  0  0  0  0
  -25.3730  -36.3920   23.8250 C   0  0  0  0  0  3  0  0  0  0  0  0
  -27.5060  -37.2990   24.6300 C   0  0  0  0  0  1  0  0  0  0  0  0
  -26.3990  -37.4470   23.6910 N   0  0  0  0  0  0  0  0  0  0  0  0
  -25.9900  -38.3670   23.8260 H   0  0  0  0  0  0  0  0  0  0  0  0
  -26.3680  -31.7960   25.1270 C   0  0  1  0  0  0  0  0  0  0  0  0
  -25.2740  -31.5600   26.1930 C   0  0  0  0  0  1  0  0  0  0  0  0
  -26.9610  -30.4180   24.7460 C   0  0  0  0  0  1  0  0  0  0  0  0
  -27.5140  -32.5990   25.7850 C   0  0  0  0  0  1  0  0  0  0  0  0
  -28.7720  -20.1590   20.0480 C   0  0  0  0  0  2  0  0  0  0  0  0
  -28.7490  -18.7740   20.7790 C   0  0  0  0  0  2  0  0  0  0  0  0
  -30.8050  -17.9990   19.4280 C   0  0  0  0  0  1  0  0  0  0  0  0
  -30.8850  -18.0800   21.9250 C   0  0  0  0  0  1  0  0  0  0  0  0
  -29.9770  -17.8000   20.7160 C   0  0  1  0  0  0  0  0  0  0  0  0
  -29.4650  -16.3140   20.7780 C   0  0  0  0  0  2  0  0  0  0  0  0
  -30.8770  -14.3920   20.0680 C   0  0  0  0  0  0  0  0  0  0  0  0
  -30.4190  -12.2500   18.9290 C   0  0  0  0  0  2  0  0  0  0  0  0
  -29.4100  -12.4400   17.7800 C   0  0  0  0  0  2  0  0  0  0  0  0
  -27.9680  -12.3070   18.3020 C   0  0  0  0  0  2  0  0  0  0  0  0
  -27.7100  -13.1860   19.5540 C   0  0  0  0  0  3  0  0  0  0  0  0
  -28.8280  -13.0020   20.6090 C   0  0  0  0  0  2  0  0  0  0  0  0
  -30.1250  -13.2610   19.9610 N   0  0  0  0  0  0  0  0  0  0  0  0
  -31.9160  -14.5630   19.4330 O   0  0  0  0  0  0  0  0  0  0  0  0
  -30.5230  -15.3100   20.9800 N   0  0  0  0  0  0  0  0  0  0  0  0
  -31.3470  -15.7730   21.3310 H   0  0  0  0  0  0  0  0  0  0  0  0
  -25.3830  -13.8350   20.4400 C   0  0  0  0  0  0  0  0  0  0  0  0
  -24.3200  -13.0830   20.8570 C   0  0  0  0  0  0  0  0  0  0  0  0
  -24.7380  -11.7190   20.7630 C   0  0  0  0  0  0  0  0  0  0  0  0
  -26.3860  -12.9340   20.1170 N   0  0  0  0  0  0  0  0  0  0  0  0
  -26.0030  -11.6550   20.3690 N   0  0  0  0  0  0  0  0  0  0  0  0
  -23.9900  -10.4710   20.9650 C   0  0  0  0  0  0  0  0  0  0  0  0
  -24.4270   -9.4910   21.8820 C   0  0  0  0  0  3  0  0  0  0  0  0
  -23.6830   -8.3090   22.0780 C   0  0  0  0  0  3  0  0  0  0  0  0
  -22.4840   -8.0970   21.3550 C   0  0  0  0  0  0  0  0  0  0  0  0
  -22.0640   -9.0650   20.4270 C   0  0  0  0  0  3  0  0  0  0  0  0
  -22.8090  -10.2380   20.2310 C   0  0  0  0  0  3  0  0  0  0  0  0
  -21.7100   -6.9660   21.4590 O   0  0  0  0  0  0  0  0  0  0  0  0
  -21.6440   -6.2450   22.6240 C   0  0  0  0  0  0  0  0  0  0  0  0
  -21.2120   -6.8240   23.8370 C   0  0  0  0  0  3  0  0  0  0  0  0
  -21.0950   -6.0280   24.9940 C   0  0  0  0  0  3  0  0  0  0  0  0
  -21.3990   -4.6560   24.9370 C   0  0  0  0  0  0  0  0  0  0  0  0
  -21.8270   -4.0760   23.7300 C   0  0  0  0  0  3  0  0  0  0  0  0
  -21.9450   -4.8690   22.5750 C   0  0  0  0  0  0  0  0  0  0  0  0
  -22.3370   -4.3030   21.4070 F   0  0  0  0  0  0  0  0  0  0  0  0
  -21.2790   -3.8870   26.0440 F   0  0  0  0  0  0  0  0  0  0  0  0
  -22.9560  -13.5860   21.2310 C   0  0  0  0  0  0  0  0  0  0  0  0
  -22.2710  -12.8860   22.1290 N   0  0  0  0  0  0  0  0  0  0  0  0
  -22.5090  -14.6340   20.7630 O   0  0  0  0  0  0  0  0  0  0  0  0
  -22.6470  -12.0330   22.5190 H   0  0  0  0  0  0  0  0  0  0  0  0
  -21.3570  -13.1990   22.4240 H   0  0  0  0  0  0  0  0  0  0  0  0
  -25.5760  -15.2050   20.2830 N   0  0  0  0  0  0  0  0  0  0  0  0
  -24.8360  -15.8720   20.4620 H   0  0  0  0  0  0  0  0  0  0  0  0
  -26.4210  -15.6260   19.9200 H   0  0  0  0  0  0  0  0  0  0  0  0
  2  3  1  0
  2  1  1  0
  4  5  1  0
  4  3  1  0
  6 17  2  0
  7  5  1  0
  7 12  1  0
  8 16  1  0
  8 18  1  0
  9 15  1  0
  9 11  1  0
 10 16  1  0
 11 12  2  0
 11 10  1  0
 13 14  1  0
 13  7  2  0
 14  9  2  0
 15  8  1  0
 16  6  1  0
 18 20  2  0
 19 18  1  0
 21 19  1  0
 22 31  2  0
 22 27  1  0
 23 19  1  0
 23 27  1  0
 24 23  1  0
 25 26  1  0
 25 24  1  0
 26 22  1  0
 27 28  2  0
 28 29  1  0
 30 29  2  0
 31 30  1  0
 32  6  1  0
 32 33  1  0
 32 42  1  0
 33 36  1  0
 34 38  1  0
 34 33  1  0
 35 34  2  0
 38 37  1  0
 40 38  1  0
 40 41  1  0
 40 39  1  0
 42 45  1  1
 42 43  1  0
 44 42  1  0
 46 47  1  0
 46  1  1  0
 50 48  1  6
 50 51  1  0
 50 47  1  0
 50 49  1  0
 51 60  1  0
 52 60  1  0
 53 58  1  0
 54 55  1  0
 54 53  1  0
 56 55  1  0
 56 65  1  0
 56 57  1  0
 58 52  1  0
 58 57  1  0
 59 52  2  0
 60 61  1  0
 62 63  2  0
 63 82  1  0
 64 63  1  0
 64 67  1  0
 65 66  1  0
 65 62  1  0
 66 64  2  0
 67 68  1  0
 68 69  2  0
 70 73  1  0
 70 69  1  0
 71 70  2  0
 72 71  1  0
 72 67  2  0
 73 74  1  0
 74 75  1  0
 75 76  2  0
 77 76  1  0
 77 81  1  0
 78 77  2  0
 79 74  2  0
 79 78  1  0
 80 79  1  0
 82 83  1  0
 83 86  1  0
 83 85  1  0
 84 82  2  0
 87 62  1  0
 87 88  1  0
 89 87  1  0
M  ISO  4   4 101   5 101  52 100  60 100
M  END
>  <TORSDO>  (48) 
F 23

>  <SCORE>  (48) 
-12.600

>  <name>  (48) 
47

>  <ligand_id>  (48) 
47

>  <original_smiles>  (48) 
[H]c1c([H])c([H])c2c(c1[H])C([H])([H])C([H])([H])C([H])([H])C2([H])N([H])C(=O)C1([H])N(C(=O)C([H])(N([H])C(=O)C([H])(N([H])C([H])([H])[H])C([H])([H])[H])C(C([H])([H])[H])(C([H])([H])[H])C([H])([H])[H])C([H])([H])c2c([H])c(OC([H])([H])C([H])([H])C([H])([H])C([H])([H])C([H])([H])C([H])([H])C(C([H])([H])[H])(C([H])([H])[H])C([H])([H])N([H])C(=O)N3C([H])([H])C([H])([H])C([H])([H])C([H])(n4nc(-c5c([H])c([H])c(Oc6c([H])c([H])c(F)c([H])c6F)c([H])c5[H])c(C(=O)N([H])[H])c4N([H])[H])C3([H])[H])c([H])c([H])c2C1([H])[H]

>  <smiles>  (48) 
[H]c1c([H])c([H])c2c(c1[H])C([H])([H])C([H])([H])C([H])([H])C2([H])N([H])C(=O)C1([H])N(C(=O)C([H])(N([H])C(=O)C([H])(N([H])C([H])([H])[H])C([H])([H])[H])C(C([H])([H])[H])(C([H])([H])[H])C([H])([H])[H])C([H])([H])c2c([H])c(OC([H])([H])C([H])([H])C([H])([H])C([H])([H])C([H])([H])C([H])([H])C(C([H])([H])[H])(C([H])([H])[H])C([H])([H])N([H])C(=O)N3C([H])([H])C([H])([H])C([H])([H])C([H])(n4nc(-c5c([H])c([H])c(Oc6c([H])c([H])c(F)c([H])c6F)c([H])c5[H])c(C(=O)N([H])[H])c4N([H])[H])C3([H])[H])c([H])c([H])c2C1([H])[H]

$$$$
48:0:0
     RDKit          3D

 94103  0  0  1  0  0  0  0  0999 V2000
  -30.1570  -20.8030   21.0780 C   0  0  0  0  0  2  0  0  0  0  0  0
  -30.9390  -16.9800   18.8900 C   0  0  0  0  0  2  0  0  0  0  0  0
  -29.5040  -17.5410   18.8730 C   0  0  0  0  0  2  0  0  0  0  0  0
  -30.5680  -18.1370   20.9730 C   0  0  0  0  0  3  0  0  0  0  0  0
  -30.4250  -19.5200   20.2920 C   0  0  0  0  0  3  0  0  0  0  0  0
  -31.3640  -16.9750   20.3710 C   0  0  0  0  0  3  0  0  0  0  0  0
  -29.3900  -18.4290   20.0920 C   0  0  1  0  0  0  0  0  0  0  0  0
  -31.7730  -14.5040   20.5240 C   0  0  0  0  0  0  0  0  0  0  0  0
  -31.3110  -12.4120   19.3140 C   0  0  0  0  0  2  0  0  0  0  0  0
  -30.4180  -12.7540   18.1000 C   0  0  0  0  0  2  0  0  0  0  0  0
  -28.9270  -12.7370   18.4940 C   0  0  0  0  0  2  0  0  0  0  0  0
  -28.6390  -13.5340   19.7940 C   0  0  0  0  0  3  0  0  0  0  0  0
  -29.6530  -13.1840   20.9110 C   0  0  0  0  0  2  0  0  0  0  0  0
  -31.0100  -13.3840   20.3780 N   0  0  0  0  0  0  0  0  0  0  0  0
  -32.9330  -14.5750   20.1070 O   0  0  0  0  0  0  0  0  0  0  0  0
  -31.1120  -15.6160   20.9100 N   0  0  0  0  0  0  0  0  0  0  0  0
  -30.2010  -15.4670   21.3160 H   0  0  0  0  0  0  0  0  0  0  0  0
  -26.2760  -14.3120   20.4520 C   0  0  0  0  0  0  0  0  0  0  0  0
  -25.1450  -13.6230   20.7840 C   0  0  0  0  0  0  0  0  0  0  0  0
  -25.5000  -12.2410   20.7360 C   0  0  0  0  0  0  0  0  0  0  0  0
  -27.2580  -13.3580   20.2330 N   0  0  0  0  0  0  0  0  0  0  0  0
  -26.7910  -12.1050   20.4630 N   0  0  0  0  0  0  0  0  0  0  0  0
  -24.6710  -11.0410   20.8800 C   0  0  0  0  0  0  0  0  0  0  0  0
  -25.0070  -10.0190   21.7950 C   0  0  0  0  0  3  0  0  0  0  0  0
  -24.1850   -8.8790   21.9250 C   0  0  0  0  0  3  0  0  0  0  0  0
  -23.0140   -8.7530   21.1410 C   0  0  0  0  0  0  0  0  0  0  0  0
  -22.6990   -9.7600   20.2120 C   0  0  0  0  0  3  0  0  0  0  0  0
  -23.5200  -10.8910   20.0810 C   0  0  0  0  0  3  0  0  0  0  0  0
  -22.1650   -7.6740   21.1890 O   0  0  0  0  0  0  0  0  0  0  0  0
  -21.9590   -6.9750   22.3500 C   0  0  0  0  0  0  0  0  0  0  0  0
  -21.4890   -7.6000   23.5260 C   0  0  0  0  0  3  0  0  0  0  0  0
  -21.2220   -6.8260   24.6740 C   0  0  0  0  0  3  0  0  0  0  0  0
  -21.4170   -5.4320   24.6470 C   0  0  0  0  0  0  0  0  0  0  0  0
  -21.8790   -4.8080   23.4760 C   0  0  0  0  0  3  0  0  0  0  0  0
  -22.1500   -5.5790   22.3310 C   0  0  0  0  0  0  0  0  0  0  0  0
  -22.5770   -4.9710   21.1980 F   0  0  0  0  0  0  0  0  0  0  0  0
  -21.1540   -4.6890   25.7470 F   0  0  0  0  0  0  0  0  0  0  0  0
  -23.7870  -14.2060   21.0330 C   0  0  0  0  0  0  0  0  0  0  0  0
  -22.9980  -13.5800   21.8990 N   0  0  0  0  0  0  0  0  0  0  0  0
  -23.4330  -15.2520   20.4910 O   0  0  0  0  0  0  0  0  0  0  0  0
  -23.2970  -12.7340   22.3610 H   0  0  0  0  0  0  0  0  0  0  0  0
  -22.0820  -13.9500   22.1040 H   0  0  0  0  0  0  0  0  0  0  0  0
  -26.5420  -15.6680   20.3000 N   0  0  0  0  0  0  0  0  0  0  0  0
  -25.8270  -16.3760   20.4310 H   0  0  0  0  0  0  0  0  0  0  0  0
  -27.4250  -16.0510   19.9930 H   0  0  0  0  0  0  0  0  0  0  0  0
  -26.9120  -19.0660   19.7790 C   0  0  0  0  0  1  0  0  0  0  0  0
  -27.9890  -18.4690   20.6960 C   0  0  0  0  0  2  0  0  0  0  0  0
  -29.0070  -21.6020   20.5670 N   0  0  0  0  0  4  0  0  0  0  0  0
  -28.5140  -21.9200   21.3860 H   0  0  0  0  0  0  0  0  0  0  0  0
  -28.3840  -20.9920   20.0640 H   0  0  0  0  0  0  0  0  0  0  0  0
  -29.2940  -22.8140   19.7490 C   0  0  0  0  0  2  0  0  0  0  0  0
  -28.2810  -23.9650   20.0400 C   0  0  0  0  0  2  0  0  0  0  0  0
  -28.5160  -25.2620   19.2250 C   0  0  0  0  0  2  0  0  0  0  0  0
  -28.3090  -26.4550   20.0030 O   0  0  0  0  0  0  0  0  0  0  0  0
  -24.5190  -31.6310   23.0820 C   0  0  0  0  0  0  0  0  0  0  0  0
  -27.1190  -27.1610   19.9760 C   0  0  0  0  0  0  0  0  0  0  0  0
  -23.3170  -30.2960   21.3800 C   0  0  0  0  0  3  0  0  0  0  0  0
  -24.7610  -28.7390   19.9660 C   0  0  0  0  0  0  0  0  0  0  0  0
  -25.8590  -30.5740   21.2640 C   0  0  0  0  0  2  0  0  0  0  0  0
  -25.9160  -29.2140   20.5960 C   0  0  0  0  0  0  0  0  0  0  0  0
  -27.0930  -28.4310   20.5980 C   0  0  0  0  0  3  0  0  0  0  0  0
  -25.9380  -26.6910   19.3560 C   0  0  0  0  0  3  0  0  0  0  0  0
  -24.7660  -27.4770   19.3470 C   0  0  0  0  0  3  0  0  0  0  0  0
  -23.5410  -29.6320   19.9940 C   0  0  0  0  0  2  0  0  0  0  0  0
  -24.5820  -30.8500   21.9660 N   0  0  0  0  0  0  0  0  0  0  0  0
  -23.4310  -31.9260   23.5960 O   0  0  0  0  0  0  0  0  0  0  0  0
  -22.6100  -29.2800   22.3030 C   0  0  0  0  0  0  0  0  0  0  0  0
  -21.2720  -29.2080   22.2010 N   0  0  0  0  0  0  0  0  0  0  0  0
  -23.2600  -28.5590   23.0660 O   0  0  0  0  0  0  0  0  0  0  0  0
  -20.8130  -29.8370   21.5590 H   0  0  0  0  0  0  0  0  0  0  0  0
  -17.8220  -28.2870   22.7540 C   0  0  0  0  0  0  0  0  0  0  0  0
  -20.4000  -28.2930   22.9390 C   0  0  0  0  0  3  0  0  0  0  0  0
  -20.3520  -26.9040   22.2630 C   0  0  0  0  0  2  0  0  0  0  0  0
  -19.1900  -26.7530   21.2760 C   0  0  0  0  0  2  0  0  0  0  0  0
  -17.8500  -26.9770   21.9830 C   0  0  0  0  0  2  0  0  0  0  0  0
  -19.0200  -28.9120   23.1890 C   0  0  0  0  0  0  0  0  0  0  0  0
  -18.9410  -30.1450   23.8710 C   0  0  0  0  0  3  0  0  0  0  0  0
  -17.6960  -30.7510   24.1230 C   0  0  0  0  0  3  0  0  0  0  0  0
  -16.5120  -30.1190   23.7060 C   0  0  0  0  0  3  0  0  0  0  0  0
  -16.5750  -28.8890   23.0260 C   0  0  0  0  0  3  0  0  0  0  0  0
  -25.8050  -32.2100   23.7500 C   0  0  0  0  0  3  0  0  0  0  0  0
  -25.5290  -33.6090   24.1010 N   0  0  0  0  0  0  0  0  0  0  0  0
  -25.9050  -34.6670   23.3710 C   0  0  0  0  0  0  0  0  0  0  0  0
  -26.5950  -34.5650   22.3520 O   0  0  0  0  0  0  0  0  0  0  0  0
  -24.9220  -33.7660   24.8940 H   0  0  0  0  0  0  0  0  0  0  0  0
  -24.2290  -36.5090   23.0210 C   0  0  0  0  0  1  0  0  0  0  0  0
  -25.4460  -36.0590   23.8440 C   0  0  0  0  0  3  0  0  0  0  0  0
  -27.5840  -36.8810   24.7310 C   0  0  0  0  0  1  0  0  0  0  0  0
  -26.5080  -37.0870   23.7660 N   0  0  0  0  0  0  0  0  0  0  0  0
  -26.1230  -38.0170   23.9130 H   0  0  0  0  0  0  0  0  0  0  0  0
  -26.2630  -31.3960   25.0230 C   0  0  1  0  0  0  0  0  0  0  0  0
  -25.1400  -31.1910   26.0670 C   0  0  0  0  0  1  0  0  0  0  0  0
  -26.7950  -30.0010   24.6180 C   0  0  0  0  0  1  0  0  0  0  0  0
  -27.4340  -32.1310   25.7170 C   0  0  0  0  0  1  0  0  0  0  0  0
  2  6  1  0
  3  2  1  0
  3  7  1  0
  5  4  1  0
  5  1  1  0
  6 16  1  0
  6  4  1  0
  7  5  1  0
  7 47  1  1
  7  4  1  0
  8 16  1  0
  9 14  1  0
 10 11  1  0
 10  9  1  0
 11 12  1  0
 12 21  1  0
 12 13  1  0
 14  8  1  0
 14 13  1  0
 15  8  2  0
 16 17  1  0
 18 19  2  0
 19 38  1  0
 20 19  1  0
 20 23  1  0
 21 18  1  0
 21 22  1  0
 22 20  2  0
 23 24  1  0
 24 25  2  0
 26 29  1  0
 26 25  1  0
 27 26  2  0
 28 27  1  0
 28 23  2  0
 29 30  1  0
 30 31  1  0
 31 32  2  0
 33 32  1  0
 33 37  1  0
 34 33  2  0
 35 30  2  0
 35 34  1  0
 36 35  1  0
 38 39  1  0
 39 42  1  0
 39 41  1  0
 40 38  2  0
 43 44  1  0
 43 18  1  0
 45 43  1  0
 46 47  1  0
 48  1  1  0
 48 49  1  0
 50 48  1  0
 51 52  1  0
 51 48  1  0
 53 54  1  0
 53 52  1  0
 55 66  2  0
 55 81  1  0
 56 54  1  0
 56 61  1  0
 57 65  1  0
 57 67  1  0
 58 64  1  0
 58 60  1  0
 59 65  1  0
 60 61  2  0
 60 59  1  0
 62 56  2  0
 63 62  1  0
 63 58  2  0
 64 57  1  0
 65 55  1  0
 67 69  2  0
 68 67  1  0
 68 72  1  0
 70 68  1  0
 71 80  2  0
 71 76  1  0
 72 76  1  0
 73 72  1  0
 74 75  1  0
 74 73  1  0
 75 71  1  0
 76 77  2  0
 77 78  1  0
 79 78  2  0
 80 79  1  0
 81 82  1  0
 81 91  1  0
 82 85  1  0
 83 87  1  0
 83 82  1  0
 84 83  2  0
 86 87  1  0
 89 87  1  0
 89 90  1  0
 89 88  1  0
 91 94  1  1
 91 92  1  0
 93 91  1  0
M  ISO  4   8 100  16 100  53 101  54 101
M  END
>  <TORSDO>  (49) 
F 22

>  <SCORE>  (49) 
-11.798

>  <name>  (49) 
48

>  <ligand_id>  (49) 
48

>  <original_smiles>  (49) 
[H]c1c([H])c([H])c2c(c1[H])C([H])([H])C([H])([H])C([H])([H])C2([H])N([H])C(=O)C1([H])N(C(=O)C([H])(N([H])C(=O)C([H])(N([H])C([H])([H])[H])C([H])([H])[H])C(C([H])([H])[H])(C([H])([H])[H])C([H])([H])[H])C([H])([H])c2c([H])c(OC([H])([H])C([H])([H])C([H])([H])[N+]([H])([H])C([H])([H])C3([H])C4([H])C([H])(N([H])C(=O)N5C([H])([H])C([H])([H])C([H])([H])C([H])(n6nc(-c7c([H])c([H])c(Oc8c([H])c([H])c(F)c([H])c8F)c([H])c7[H])c(C(=O)N([H])[H])c6N([H])[H])C5([H])[H])C([H])([H])C([H])([H])C43C([H])([H])C([H])([H])[H])c([H])c([H])c2C1([H])[H]

>  <smiles>  (49) 
[H]c1c([H])c([H])c2c(c1[H])C([H])([H])C([H])([H])C([H])([H])C2([H])N([H])C(=O)C1([H])N(C(=O)C([H])(N([H])C(=O)C([H])(N([H])C([H])([H])[H])C([H])([H])[H])C(C([H])([H])[H])(C([H])([H])[H])C([H])([H])[H])C([H])([H])c2c([H])c(OC([H])([H])C([H])([H])C([H])([H])[N+]([H])([H])C([H])([H])C3([H])C4([H])C([H])(N([H])C(=O)N5C([H])([H])C([H])([H])C([H])([H])C([H])(n6nc(-c7c([H])c([H])c(Oc8c([H])c([H])c(F)c([H])c8F)c([H])c7[H])c(C(=O)N([H])[H])c6N([H])[H])C5([H])[H])C([H])([H])C([H])([H])C43C([H])([H])C([H])([H])[H])c([H])c([H])c2C1([H])[H]

$$$$
49:0:0
     RDKit          3D

 95105  0  0  1  0  0  0  0  0999 V2000
  -29.6450  -20.5370   18.4380 C   0  0  0  0  0  0  0  0  0  0  0  0
  -29.0790  -21.7380   18.6490 N   0  0  0  0  0  0  0  0  0  0  0  0
  -29.1200  -19.7640   17.6370 O   0  0  0  0  0  0  0  0  0  0  0  0
  -28.2300  -21.9100   18.1270 H   0  0  0  0  0  0  0  0  0  0  0  0
  -30.9450  -20.1000   19.1460 C   0  0  0  0  0  2  0  0  0  0  0  0
  -29.8400  -16.7410   20.9820 C   0  0  0  0  0  2  0  0  0  0  0  0
  -29.7170  -18.2520   20.8420 C   0  0  1  0  0  0  0  0  0  0  0  0
  -31.6090  -18.1680   21.0550 C   0  0  2  0  0  0  0  0  0  0  0  0
  -30.8060  -18.7130   19.8420 C   0  0  0  0  0  3  0  0  0  0  0  0
  -31.3640  -16.6370   21.1310 C   0  0  0  0  0  3  0  0  0  0  0  0
  -30.5570  -18.9250   21.9540 C   0  0  2  0  0  0  0  0  0  0  0  0
  -30.3200  -18.4250   23.3990 C   0  0  0  0  0  1  0  0  0  0  0  0
  -30.5010  -20.4630   22.0950 C   0  0  0  0  0  1  0  0  0  0  0  0
  -32.4830  -14.6500   19.9810 C   0  0  0  0  0  0  0  0  0  0  0  0
  -31.8090  -12.6230   18.7610 C   0  0  0  0  0  2  0  0  0  0  0  0
  -30.8380  -12.9900   17.6210 C   0  0  0  0  0  2  0  0  0  0  0  0
  -29.3860  -12.9980   18.1380 C   0  0  0  0  0  2  0  0  0  0  0  0
  -29.2190  -13.8000   19.4580 C   0  0  0  0  0  3  0  0  0  0  0  0
  -30.3130  -13.4400   20.4920 C   0  0  0  0  0  2  0  0  0  0  0  0
  -31.6150  -13.6100   19.8370 N   0  0  0  0  0  0  0  0  0  0  0  0
  -33.6370  -14.6030   19.5620 O   0  0  0  0  0  0  0  0  0  0  0  0
  -31.9440  -15.8810   20.0150 N   0  0  0  0  0  0  0  0  0  0  0  0
  -32.4990  -16.4960   19.4410 H   0  0  0  0  0  0  0  0  0  0  0  0
  -26.9590  -14.6310   20.3560 C   0  0  0  0  0  0  0  0  0  0  0  0
  -25.8320  -13.9700   20.7540 C   0  0  0  0  0  0  0  0  0  0  0  0
  -26.1140  -12.5820   20.5860 C   0  0  0  0  0  0  0  0  0  0  0  0
  -27.8760  -13.6530   20.0080 N   0  0  0  0  0  0  0  0  0  0  0  0
  -27.3710  -12.4080   20.1980 N   0  0  0  0  0  0  0  0  0  0  0  0
  -25.2360  -11.4150   20.7120 C   0  0  0  0  0  0  0  0  0  0  0  0
  -25.5410  -10.3570   21.5960 C   0  0  0  0  0  3  0  0  0  0  0  0
  -24.6710   -9.2530   21.7160 C   0  0  0  0  0  3  0  0  0  0  0  0
  -23.4830   -9.2010   20.9510 C   0  0  0  0  0  0  0  0  0  0  0  0
  -23.1950  -10.2460   20.0560 C   0  0  0  0  0  3  0  0  0  0  0  0
  -24.0640  -11.3420   19.9340 C   0  0  0  0  0  3  0  0  0  0  0  0
  -22.5860   -8.1620   20.9850 O   0  0  0  0  0  0  0  0  0  0  0  0
  -22.3910   -7.4200   22.1220 C   0  0  0  0  0  0  0  0  0  0  0  0
  -22.0360   -8.0190   23.3480 C   0  0  0  0  0  3  0  0  0  0  0  0
  -21.7760   -7.2170   24.4770 C   0  0  0  0  0  3  0  0  0  0  0  0
  -21.8630   -5.8140   24.3790 C   0  0  0  0  0  0  0  0  0  0  0  0
  -22.2100   -5.2140   23.1560 C   0  0  0  0  0  3  0  0  0  0  0  0
  -22.4700   -6.0140   22.0300 C   0  0  0  0  0  0  0  0  0  0  0  0
  -22.7860   -5.4320   20.8480 F   0  0  0  0  0  0  0  0  0  0  0  0
  -21.6050   -5.0410   25.4600 F   0  0  0  0  0  0  0  0  0  0  0  0
  -24.5290  -14.6000   21.1560 C   0  0  0  0  0  0  0  0  0  0  0  0
  -23.8050  -13.9700   22.0760 N   0  0  0  0  0  0  0  0  0  0  0  0
  -24.1720  -15.6840   20.6940 O   0  0  0  0  0  0  0  0  0  0  0  0
  -24.1250  -13.1000   22.4770 H   0  0  0  0  0  0  0  0  0  0  0  0
  -22.9330  -14.3720   22.3930 H   0  0  0  0  0  0  0  0  0  0  0  0
  -27.2500  -15.9780   20.2230 N   0  0  0  0  0  0  0  0  0  0  0  0
  -26.5390  -16.6900   20.3510 H   0  0  0  0  0  0  0  0  0  0  0  0
  -28.0770  -16.3270   19.7580 H   0  0  0  0  0  0  0  0  0  0  0  0
  -29.4740  -22.8160   19.5560 C   0  0  0  0  0  2  0  0  0  0  0  0
  -28.8020  -24.1480   19.1590 C   0  0  0  0  0  2  0  0  0  0  0  0
  -28.8130  -25.1900   20.2960 C   0  0  0  0  0  2  0  0  0  0  0  0
  -28.7760  -26.5390   19.8270 O   0  0  0  0  0  0  0  0  0  0  0  0
  -24.7720  -31.5170   22.9540 C   0  0  0  0  0  0  0  0  0  0  0  0
  -27.5660  -27.1930   19.8590 C   0  0  0  0  0  0  0  0  0  0  0  0
  -23.6220  -30.1140   21.2690 C   0  0  0  0  0  3  0  0  0  0  0  0
  -25.1320  -28.6250   19.8530 C   0  0  0  0  0  0  0  0  0  0  0  0
  -26.1410  -30.5360   21.1170 C   0  0  0  0  0  2  0  0  0  0  0  0
  -26.2660  -29.1760   20.4630 C   0  0  0  0  0  0  0  0  0  0  0  0
  -27.4870  -28.4670   20.4580 C   0  0  0  0  0  3  0  0  0  0  0  0
  -26.4130  -26.6410   19.2590 C   0  0  0  0  0  3  0  0  0  0  0  0
  -25.1970  -27.3570   19.2490 C   0  0  0  0  0  3  0  0  0  0  0  0
  -23.8670  -29.4540   19.8860 C   0  0  0  0  0  2  0  0  0  0  0  0
  -24.8610  -30.7370   21.8400 N   0  0  0  0  0  0  0  0  0  0  0  0
  -23.6760  -31.7600   23.4790 O   0  0  0  0  0  0  0  0  0  0  0  0
  -22.9750  -29.0680   22.2050 C   0  0  0  0  0  0  0  0  0  0  0  0
  -21.6470  -28.9030   22.0890 N   0  0  0  0  0  0  0  0  0  0  0  0
  -23.6640  -28.4060   22.9860 O   0  0  0  0  0  0  0  0  0  0  0  0
  -21.1540  -29.4930   21.4320 H   0  0  0  0  0  0  0  0  0  0  0  0
  -18.2660  -27.7480   22.6260 C   0  0  0  0  0  0  0  0  0  0  0  0
  -20.8350  -27.9430   22.8370 C   0  0  0  0  0  3  0  0  0  0  0  0
  -20.8890  -26.5400   22.1840 C   0  0  0  0  0  2  0  0  0  0  0  0
  -19.7480  -26.2870   21.1930 C   0  0  0  0  0  2  0  0  0  0  0  0
  -18.3950  -26.4230   21.8950 C   0  0  0  0  0  2  0  0  0  0  0  0
  -19.4110  -28.4680   23.0590 C   0  0  0  0  0  0  0  0  0  0  0  0
  -19.2330  -29.7100   23.7070 C   0  0  0  0  0  3  0  0  0  0  0  0
  -17.9450  -30.2310   23.9250 C   0  0  0  0  0  3  0  0  0  0  0  0
  -16.8150  -29.5050   23.5110 C   0  0  0  0  0  3  0  0  0  0  0  0
  -16.9780  -28.2650   22.8680 C   0  0  0  0  0  3  0  0  0  0  0  0
  -26.0330  -32.1630   23.6080 C   0  0  0  0  0  3  0  0  0  0  0  0
  -25.6610  -33.5120   24.0540 N   0  0  0  0  0  0  0  0  0  0  0  0
  -25.8980  -34.6350   23.3620 C   0  0  0  0  0  0  0  0  0  0  0  0
  -26.5280  -34.6460   22.3000 O   0  0  0  0  0  0  0  0  0  0  0  0
  -25.0970  -33.5720   24.8900 H   0  0  0  0  0  0  0  0  0  0  0  0
  -24.0470  -36.3290   23.2180 C   0  0  0  0  0  1  0  0  0  0  0  0
  -25.3510  -35.9540   23.9380 C   0  0  0  0  0  3  0  0  0  0  0  0
  -27.4640  -36.9220   24.7310 C   0  0  0  0  0  1  0  0  0  0  0  0
  -26.3100  -37.0770   23.8480 N   0  0  0  0  0  0  0  0  0  0  0  0
  -25.8550  -37.9570   24.0740 H   0  0  0  0  0  0  0  0  0  0  0  0
  -26.6170  -31.3210   24.8080 C   0  0  1  0  0  0  0  0  0  0  0  0
  -25.5600  -30.9320   25.8690 C   0  0  0  0  0  1  0  0  0  0  0  0
  -27.2640  -30.0150   24.2900 C   0  0  0  0  0  1  0  0  0  0  0  0
  -27.7380  -32.1170   25.5180 C   0  0  0  0  0  1  0  0  0  0  0  0
  1  2  1  0
  1  5  1  0
  2 52  1  0
  3  1  2  0
  4  2  1  0
  6 10  1  0
  7  6  1  6
  7  8  1  0
  7 11  1  0
  8 10  1  6
  8 11  1  0
  9  5  1  0
  9  7  1  0
  9  8  1  0
 10 22  1  0
 11 13  1  1
 11 12  1  0
 14 22  1  0
 15 20  1  0
 16 17  1  0
 16 15  1  0
 18 17  1  0
 18 27  1  0
 18 19  1  0
 20 14  1  0
 20 19  1  0
 21 14  2  0
 23 22  1  0
 24 25  2  0
 25 44  1  0
 26 29  1  0
 26 25  1  0
 27 28  1  0
 27 24  1  0
 28 26  2  0
 29 30  1  0
 30 31  2  0
 32 35  1  0
 32 31  1  0
 33 32  2  0
 34 33  1  0
 34 29  2  0
 35 36  1  0
 36 37  1  0
 37 38  2  0
 39 38  1  0
 39 43  1  0
 40 39  2  0
 41 36  2  0
 41 40  1  0
 42 41  1  0
 44 45  1  0
 45 48  1  0
 45 47  1  0
 46 44  2  0
 49 50  1  0
 49 24  1  0
 51 49  1  0
 53 52  1  0
 53 54  1  0
 55 57  1  0
 55 54  1  0
 56 67  2  0
 57 62  1  0
 58 66  1  0
 58 68  1  0
 59 65  1  0
 59 61  1  0
 60 66  1  0
 61 60  1  0
 62 61  2  0
 63 57  2  0
 64 63  1  0
 64 59  2  0
 65 58  1  0
 66 56  1  0
 68 70  2  0
 69 68  1  0
 71 69  1  0
 72 81  2  0
 72 77  1  0
 73 69  1  0
 73 77  1  0
 74 73  1  0
 75 76  1  0
 75 74  1  0
 76 72  1  0
 77 78  2  0
 78 79  1  0
 80 79  2  0
 81 80  1  0
 82 56  1  0
 82 83  1  0
 82 92  1  0
 83 86  1  0
 84 88  1  0
 84 83  1  0
 85 84  2  0
 88 87  1  0
 90 88  1  0
 90 91  1  0
 90 89  1  0
 92 95  1  1
 92 93  1  0
 94 92  1  0
M  ISO  4  14 100  22 100  54 101  55 101
M  END
>  <TORSDO>  (50) 
F 21

>  <SCORE>  (50) 
-9.867

>  <name>  (50) 
49

>  <ligand_id>  (50) 
49

>  <original_smiles>  (50) 
[H]c1c([H])c([H])c2c(c1[H])C([H])([H])C([H])([H])C([H])([H])C2([H])N([H])C(=O)C1([H])N(C(=O)C([H])(N([H])C(=O)C([H])(N([H])C([H])([H])[H])C([H])([H])[H])C(C([H])([H])[H])(C([H])([H])[H])C([H])([H])[H])C([H])([H])c2c([H])c(OC([H])([H])C([H])([H])C([H])([H])N([H])C(=O)C([H])([H])C3([H])C4([H])C([H])([H])C([H])(N([H])C(=O)N5C([H])([H])C([H])([H])C([H])([H])C([H])(n6nc(-c7c([H])c([H])c(Oc8c([H])c([H])c(F)c([H])c8F)c([H])c7[H])c(C(=O)N([H])[H])c6N([H])[H])C5([H])[H])C3([H])C4(C([H])([H])[H])C([H])([H])[H])c([H])c([H])c2C1([H])[H]

>  <smiles>  (50) 
[H]c1c([H])c([H])c2c(c1[H])C([H])([H])C([H])([H])C([H])([H])C2([H])N([H])C(=O)C1([H])N(C(=O)C([H])(N([H])C(=O)C([H])(N([H])C([H])([H])[H])C([H])([H])[H])C(C([H])([H])[H])(C([H])([H])[H])C([H])([H])[H])C([H])([H])c2c([H])c(OC([H])([H])C([H])([H])C([H])([H])N([H])C(=O)C([H])([H])C3([H])C4([H])C([H])([H])C([H])(N([H])C(=O)N5C([H])([H])C([H])([H])C([H])([H])C([H])(n6nc(-c7c([H])c([H])c(Oc8c([H])c([H])c(F)c([H])c8F)c([H])c7[H])c(C(=O)N([H])[H])c6N([H])[H])C5([H])[H])C3([H])C4(C([H])([H])[H])C([H])([H])[H])c([H])c([H])c2C1([H])[H]

$$$$
50:0:0
     RDKit          3D

 89 98  0  0  1  0  0  0  0  0999 V2000
  -29.9240  -20.0120   21.4420 C   0  0  0  0  0  2  0  0  0  0  0  0
  -29.0360  -19.8860   19.2650 C   0  0  0  0  0  2  0  0  0  0  0  0
  -29.4840  -18.5260   21.2360 C   0  0  0  0  0  3  0  0  0  0  0  0
  -28.9420  -18.4410   19.8620 C   0  0  0  0  0  3  0  0  0  0  0  0
  -30.0810  -17.4390   20.2790 C   0  0  0  0  0  3  0  0  0  0  0  0
  -29.4770  -20.8900   20.3010 N   0  0  1  0  0  4  0  0  0  0  0  0
  -30.3290  -21.2900   19.9360 H   0  0  0  0  0  0  0  0  0  0  0  0
  -30.5740  -14.8410   20.2180 C   0  0  0  0  0  0  0  0  0  0  0  0
  -30.3690  -12.5720   19.1810 C   0  0  0  0  0  2  0  0  0  0  0  0
  -29.4040  -12.6540   17.9760 C   0  0  0  0  0  2  0  0  0  0  0  0
  -27.9430  -12.4730   18.4330 C   0  0  0  0  0  2  0  0  0  0  0  0
  -27.5940  -13.3410   19.6720 C   0  0  0  0  0  3  0  0  0  0  0  0
  -28.6770  -13.2360   20.7690 C   0  0  0  0  0  2  0  0  0  0  0  0
  -29.9570  -13.6080   20.1560 N   0  0  0  0  0  0  0  0  0  0  0  0
  -31.7500  -14.9530   19.8610 O   0  0  0  0  0  0  0  0  0  0  0  0
  -29.7890  -15.9640   20.4700 N   0  0  0  0  0  0  0  0  0  0  0  0
  -28.8440  -15.7440   20.7470 H   0  0  0  0  0  0  0  0  0  0  0  0
  -25.2160  -13.9160   20.4410 C   0  0  0  0  0  0  0  0  0  0  0  0
  -24.1600  -13.1360   20.8270 C   0  0  0  0  0  0  0  0  0  0  0  0
  -24.6300  -11.7880   20.7860 C   0  0  0  0  0  0  0  0  0  0  0  0
  -26.2610  -13.0440   20.1860 N   0  0  0  0  0  0  0  0  0  0  0  0
  -25.9160  -11.7580   20.4570 N   0  0  0  0  0  0  0  0  0  0  0  0
  -23.9140  -10.5210   20.9860 C   0  0  0  0  0  0  0  0  0  0  0  0
  -24.3590   -9.5590   21.9180 C   0  0  0  0  0  3  0  0  0  0  0  0
  -23.6420   -8.3560   22.1040 C   0  0  0  0  0  3  0  0  0  0  0  0
  -22.4670   -8.1080   21.3580 C   0  0  0  0  0  0  0  0  0  0  0  0
  -22.0400   -9.0590   20.4130 C   0  0  0  0  0  3  0  0  0  0  0  0
  -22.7570  -10.2520   20.2260 C   0  0  0  0  0  3  0  0  0  0  0  0
  -21.7200   -6.9590   21.4540 O   0  0  0  0  0  0  0  0  0  0  0  0
  -21.6760   -6.2250   22.6120 C   0  0  0  0  0  0  0  0  0  0  0  0
  -21.2390   -6.7840   23.8330 C   0  0  0  0  0  3  0  0  0  0  0  0
  -21.1430   -5.9750   24.9840 C   0  0  0  0  0  3  0  0  0  0  0  0
  -21.4750   -4.6080   24.9140 C   0  0  0  0  0  0  0  0  0  0  0  0
  -21.9040   -4.0500   23.6980 C   0  0  0  0  0  3  0  0  0  0  0  0
  -22.0010   -4.8550   22.5500 C   0  0  0  0  0  0  0  0  0  0  0  0
  -22.3970   -4.3060   21.3770 F   0  0  0  0  0  0  0  0  0  0  0  0
  -21.3760   -3.8290   26.0180 F   0  0  0  0  0  0  0  0  0  0  0  0
  -22.7640  -13.6050   21.1140 C   0  0  0  0  0  0  0  0  0  0  0  0
  -22.0470  -12.9070   21.9880 N   0  0  0  0  0  0  0  0  0  0  0  0
  -22.3160  -14.6290   20.5980 O   0  0  0  0  0  0  0  0  0  0  0  0
  -22.4190  -12.0810   22.4330 H   0  0  0  0  0  0  0  0  0  0  0  0
  -21.1100  -13.2060   22.2180 H   0  0  0  0  0  0  0  0  0  0  0  0
  -25.3670  -15.2880   20.2620 N   0  0  0  0  0  0  0  0  0  0  0  0
  -24.5940  -15.9340   20.3790 H   0  0  0  0  0  0  0  0  0  0  0  0
  -26.1910  -15.7280   19.8710 H   0  0  0  0  0  0  0  0  0  0  0  0
  -28.5680  -22.1220   20.6020 C   0  0  0  0  0  2  0  0  0  0  0  0
  -29.0310  -23.6540   20.2450 C   0  0  0  0  0  3  0  0  0  0  0  0
  -28.0170  -24.9020   20.5440 C   0  0  0  0  0  3  0  0  0  0  0  0
  -28.3050  -26.3710   20.2670 O   0  0  0  0  0  0  0  0  0  0  0  0
  -24.6090  -31.9200   23.2500 C   0  0  0  0  0  0  0  0  0  0  0  0
  -27.2210  -27.2910   20.2210 C   0  0  0  0  0  0  0  0  0  0  0  0
  -23.4170  -30.5220   21.6050 C   0  0  0  0  0  3  0  0  0  0  0  0
  -24.8750  -28.9640   20.1870 C   0  0  0  0  0  0  0  0  0  0  0  0
  -25.9650  -30.8170   21.4460 C   0  0  0  0  0  2  0  0  0  0  0  0
  -26.0470  -29.4330   20.7970 C   0  0  0  0  0  0  0  0  0  0  0  0
  -27.2250  -28.6100   20.8020 C   0  0  0  0  0  3  0  0  0  0  0  0
  -26.0290  -26.9100   19.5650 C   0  0  0  0  0  3  0  0  0  0  0  0
  -24.8730  -27.7120   19.5590 C   0  0  0  0  0  3  0  0  0  0  0  0
  -23.6430  -29.8480   20.2270 C   0  0  0  0  0  2  0  0  0  0  0  0
  -24.6830  -31.1070   22.1550 N   0  0  0  0  0  0  0  0  0  0  0  0
  -23.5210  -32.2010   23.7740 O   0  0  0  0  0  0  0  0  0  0  0  0
  -22.7460  -29.5060   22.5620 C   0  0  0  0  0  0  0  0  0  0  0  0
  -21.4210  -29.3270   22.4300 N   0  0  0  0  0  0  0  0  0  0  0  0
  -23.4190  -28.8810   23.3880 O   0  0  0  0  0  0  0  0  0  0  0  0
  -20.9360  -29.8880   21.7430 H   0  0  0  0  0  0  0  0  0  0  0  0
  -18.0420  -28.1200   22.9100 C   0  0  0  0  0  0  0  0  0  0  0  0
  -20.5980  -28.3880   23.1950 C   0  0  0  0  0  3  0  0  0  0  0  0
  -20.7050  -26.9550   22.6240 C   0  0  0  0  0  2  0  0  0  0  0  0
  -19.6110  -26.6290   21.6030 C   0  0  0  0  0  2  0  0  0  0  0  0
  -18.2250  -26.7700   22.2380 C   0  0  0  0  0  2  0  0  0  0  0  0
  -19.1550  -28.8860   23.3460 C   0  0  0  0  0  0  0  0  0  0  0  0
  -18.9290  -30.1490   23.9360 C   0  0  0  0  0  3  0  0  0  0  0  0
  -17.6220  -30.6450   24.0940 C   0  0  0  0  0  3  0  0  0  0  0  0
  -16.5230  -29.8780   23.6730 C   0  0  0  0  0  3  0  0  0  0  0  0
  -16.7330  -28.6170   23.0870 C   0  0  0  0  0  3  0  0  0  0  0  0
  -25.8850  -32.5570   23.8800 C   0  0  0  0  0  3  0  0  0  0  0  0
  -26.3880  -31.7950   25.1660 C   0  0  1  0  0  0  0  0  0  0  0  0
  -25.2830  -31.5660   26.2240 C   0  0  0  0  0  1  0  0  0  0  0  0
  -26.9730  -30.4130   24.7940 C   0  0  0  0  0  1  0  0  0  0  0  0
  -27.5340  -32.5930   25.8320 C   0  0  0  0  0  1  0  0  0  0  0  0
  -25.5720  -33.9590   24.1990 N   0  0  0  0  0  0  0  0  0  0  0  0
  -25.9080  -35.0080   23.4370 C   0  0  0  0  0  0  0  0  0  0  0  0
  -26.5830  -34.8990   22.4090 O   0  0  0  0  0  0  0  0  0  0  0  0
  -24.9740  -34.1170   24.9960 H   0  0  0  0  0  0  0  0  0  0  0  0
  -24.1830  -36.8020   23.0690 C   0  0  0  0  0  1  0  0  0  0  0  0
  -25.4210  -36.4000   23.8860 C   0  0  0  0  0  3  0  0  0  0  0  0
  -27.5530  -37.2880   24.7220 C   0  0  0  0  0  1  0  0  0  0  0  0
  -26.4550  -37.4510   23.7720 N   0  0  0  0  0  0  0  0  0  0  0  0
  -26.0500  -38.3720   23.9120 H   0  0  0  0  0  0  0  0  0  0  0  0
  2  6  1  0
  3  1  1  0
  4  2  1  0
  4  5  1  0
  4  3  1  0
  5 16  1  0
  5  3  1  0
  6 46  1  0
  6  1  1  0
  6  7  1  6
  8 16  1  0
  9 14  1  0
 10 11  1  0
 10  9  1  0
 12 11  1  0
 12 21  1  0
 12 13  1  0
 14  8  1  0
 14 13  1  0
 15  8  2  0
 16 17  1  0
 18 19  2  0
 19 38  1  0
 20 19  1  0
 20 23  1  0
 21 18  1  0
 21 22  1  0
 22 20  2  0
 23 24  1  0
 24 25  2  0
 26 29  1  0
 26 25  1  0
 27 26  2  0
 28 27  1  0
 28 23  2  0
 29 30  1  0
 30 31  1  0
 31 32  2  0
 33 32  1  0
 33 37  1  0
 34 33  2  0
 35 30  2  0
 35 34  1  0
 36 35  1  0
 38 39  1  0
 39 42  1  0
 39 41  1  0
 40 38  2  0
 43 44  1  0
 43 18  1  0
 45 43  1  0
 47 48  2  0
 47 46  1  0
 49 48  1  0
 50 61  2  0
 51 49  1  0
 51 56  1  0
 52 60  1  0
 52 62  1  0
 53 59  1  0
 53 55  1  0
 54 60  1  0
 55 56  2  0
 55 54  1  0
 57 51  2  0
 58 57  1  0
 58 53  2  0
 59 52  1  0
 60 50  1  0
 62 64  2  0
 63 62  1  0
 65 63  1  0
 66 75  2  0
 66 71  1  0
 67 63  1  0
 67 71  1  0
 68 67  1  0
 69 70  1  0
 69 68  1  0
 70 66  1  0
 71 72  2  0
 72 73  1  0
 74 73  2  0
 75 74  1  0
 76 50  1  0
 76 81  1  0
 76 77  1  0
 77 80  1  1
 77 78  1  0
 79 77  1  0
 81 84  1  0
 82 86  1  0
 82 81  1  0
 83 82  2  0
 86 85  1  0
 88 86  1  0
 88 89  1  0
 88 87  1  0
M  ISO  4   8 100  16 100  48 101  49 101
M  END
>  <TORSDO>  (51) 
F 19

>  <SCORE>  (51) 
-13.875

>  <name>  (51) 
50

>  <ligand_id>  (51) 
50

>  <original_smiles>  (51) 
[H]c1c([H])c([H])c2c(c1[H])C([H])([H])C([H])([H])C([H])([H])C2([H])N([H])C(=O)C1([H])N(C(=O)C([H])(N([H])C(=O)C([H])(N([H])C([H])([H])[H])C([H])([H])[H])C(C([H])([H])[H])(C([H])([H])[H])C([H])([H])[H])C([H])([H])c2c([H])c(OC([H])([H])C([H])([H])C([H])([H])[N+]3([H])C([H])([H])C4([H])C([H])(N([H])C(=O)N5C([H])([H])C([H])([H])C([H])([H])C([H])(n6nc(-c7c([H])c([H])c(Oc8c([H])c([H])c(F)c([H])c8F)c([H])c7[H])c(C(=O)N([H])[H])c6N([H])[H])C5([H])[H])C4([H])C3([H])[H])c([H])c([H])c2C1([H])[H]

>  <smiles>  (51) 
[H]c1c([H])c([H])c2c(c1[H])C([H])([H])C([H])([H])C([H])([H])C2([H])N([H])C(=O)C1([H])N(C(=O)C([H])(N([H])C(=O)C([H])(N([H])C([H])([H])[H])C([H])([H])[H])C(C([H])([H])[H])(C([H])([H])[H])C([H])([H])[H])C([H])([H])c2c([H])c(OC([H])([H])C([H])([H])C([H])([H])[N+]3([H])C([H])([H])C4([H])C([H])(N([H])C(=O)N5C([H])([H])C([H])([H])C([H])([H])C([H])(n6nc(-c7c([H])c([H])c(Oc8c([H])c([H])c(F)c([H])c8F)c([H])c7[H])c(C(=O)N([H])[H])c6N([H])[H])C5([H])[H])C4([H])C3([H])[H])c([H])c([H])c2C1([H])[H]

$$$$
51:0:0
     RDKit          3D

 93102  0  0  1  0  0  0  0  0999 V2000
  -29.0130  -18.6220   19.0540 C   0  0  0  0  0  0  0  0  0  0  0  0
  -29.7730  -19.8860   21.0760 C   0  0  0  0  0  2  0  0  0  0  0  0
  -29.1110  -22.7390   20.4730 C   0  0  0  0  0  2  0  0  0  0  0  0
  -28.1680  -19.9870   18.7830 C   0  0  0  0  0  3  0  0  0  0  0  0
  -29.9740  -18.4290   20.3110 C   0  0  0  0  0  3  0  0  0  0  0  0
  -29.7420  -21.3010   20.1590 C   0  0  0  0  0  3  0  0  0  0  0  0
  -28.9080  -21.3860   18.8590 C   0  0  0  0  0  3  0  0  0  0  0  0
  -28.2460  -22.9150   19.1470 C   0  0  0  0  0  3  0  0  0  0  0  0
  -28.8640  -17.6670   18.2860 O   0  0  0  0  0  0  0  0  0  0  0  0
  -30.8140  -15.6990   21.0180 C   0  0  0  0  0  0  0  0  0  0  0  0
  -30.9640  -13.1840   20.4710 C   0  0  0  0  0  2  0  0  0  0  0  0
  -30.2910  -12.8470   19.1170 C   0  0  0  0  0  2  0  0  0  0  0  0
  -28.7900  -12.5790   19.3170 C   0  0  0  0  0  2  0  0  0  0  0  0
  -28.1290  -13.6570   20.2110 C   0  0  0  0  0  3  0  0  0  0  0  0
  -28.9420  -13.9490   21.4920 C   0  0  0  0  0  2  0  0  0  0  0  0
  -30.2830  -14.3860   21.0680 N   0  0  0  0  0  0  0  0  0  0  0  0
  -32.0430  -15.7470   20.8890 O   0  0  0  0  0  0  0  0  0  0  0  0
  -29.9920  -16.9020   20.9410 N   0  0  0  0  0  0  0  0  0  0  0  0
  -29.0410  -16.6450   21.1650 H   0  0  0  0  0  0  0  0  0  0  0  0
  -25.6670  -14.2400   20.5550 C   0  0  0  0  0  0  0  0  0  0  0  0
  -24.5540  -13.4690   20.7530 C   0  0  0  0  0  0  0  0  0  0  0  0
  -25.0110  -12.1180   20.8050 C   0  0  0  0  0  0  0  0  0  0  0  0
  -26.7300  -13.3570   20.4920 N   0  0  0  0  0  0  0  0  0  0  0  0
  -26.3360  -12.0740   20.7100 N   0  0  0  0  0  0  0  0  0  0  0  0
  -24.2530  -10.8600   20.8830 C   0  0  0  0  0  0  0  0  0  0  0  0
  -24.5780   -9.8550   21.8220 C   0  0  0  0  0  3  0  0  0  0  0  0
  -23.8190   -8.6660   21.8910 C   0  0  0  0  0  3  0  0  0  0  0  0
  -22.7210   -8.4720   21.0190 C   0  0  0  0  0  0  0  0  0  0  0  0
  -22.4170   -9.4640   20.0690 C   0  0  0  0  0  3  0  0  0  0  0  0
  -23.1770  -10.6440   19.9990 C   0  0  0  0  0  3  0  0  0  0  0  0
  -21.9460   -7.3370   20.9960 O   0  0  0  0  0  0  0  0  0  0  0  0
  -21.8730   -6.4930   22.0750 C   0  0  0  0  0  0  0  0  0  0  0  0
  -21.4230   -6.9370   23.3380 C   0  0  0  0  0  3  0  0  0  0  0  0
  -21.2960   -6.0220   24.4010 C   0  0  0  0  0  3  0  0  0  0  0  0
  -21.6090   -4.6640   24.2050 C   0  0  0  0  0  0  0  0  0  0  0  0
  -22.0530   -4.2190   22.9470 C   0  0  0  0  0  3  0  0  0  0  0  0
  -22.1810   -5.1300   21.8840 C   0  0  0  0  0  0  0  0  0  0  0  0
  -22.5880   -4.6930   20.6680 F   0  0  0  0  0  0  0  0  0  0  0  0
  -21.4810   -3.7820   25.2240 F   0  0  0  0  0  0  0  0  0  0  0  0
  -23.1360  -13.9570   20.7930 C   0  0  0  0  0  0  0  0  0  0  0  0
  -22.2800  -13.2940   21.5650 N   0  0  0  0  0  0  0  0  0  0  0  0
  -22.7890  -14.9630   20.1770 O   0  0  0  0  0  0  0  0  0  0  0  0
  -22.5700  -12.4800   22.0860 H   0  0  0  0  0  0  0  0  0  0  0  0
  -21.3230  -13.6080   21.6350 H   0  0  0  0  0  0  0  0  0  0  0  0
  -25.8590  -15.6080   20.3950 N   0  0  0  0  0  0  0  0  0  0  0  0
  -25.0710  -16.2410   20.3140 H   0  0  0  0  0  0  0  0  0  0  0  0
  -26.7400  -16.0620   20.1860 H   0  0  0  0  0  0  0  0  0  0  0  0
  -27.2900  -19.9240   17.5170 C   0  0  0  0  0  2  0  0  0  0  0  0
  -25.8060  -19.6870   17.8360 C   0  0  0  0  0  2  0  0  0  0  0  0
  -23.5980  -20.6750   18.5670 C   0  0  0  0  0  1  0  0  0  0  0  0
  -25.0220  -20.9830   18.1050 C   0  0  0  0  0  2  0  0  0  0  0  0
  -28.1160  -24.3370   18.0920 C   0  0  0  0  0  2  0  0  0  0  0  0
  -28.1960  -25.9490   18.2390 O   0  0  0  0  0  0  0  0  0  0  0  0
  -24.5950  -30.9980   22.3970 C   0  0  0  0  0  0  0  0  0  0  0  0
  -27.0960  -26.9250   18.3910 C   0  0  0  0  0  0  0  0  0  0  0  0
  -23.3070  -29.7750   20.6870 C   0  0  0  0  0  3  0  0  0  0  0  0
  -24.6800  -28.5490   18.8750 C   0  0  0  0  0  0  0  0  0  0  0  0
  -25.8090  -30.2400   20.3060 C   0  0  0  0  0  2  0  0  0  0  0  0
  -25.8970  -28.9620   19.4340 C   0  0  0  0  0  0  0  0  0  0  0  0
  -27.0920  -28.1670   19.1820 C   0  0  0  0  0  3  0  0  0  0  0  0
  -25.8420  -26.6690   17.7880 C   0  0  0  0  0  3  0  0  0  0  0  0
  -24.6710  -27.4280   18.0330 C   0  0  0  0  0  3  0  0  0  0  0  0
  -23.4130  -29.3370   19.2010 C   0  0  0  0  0  2  0  0  0  0  0  0
  -24.5950  -30.3580   21.1840 N   0  0  0  0  0  0  0  0  0  0  0  0
  -23.5610  -31.1110   23.0740 O   0  0  0  0  0  0  0  0  0  0  0  0
  -22.8020  -28.5880   21.5480 C   0  0  0  0  0  0  0  0  0  0  0  0
  -21.4930  -28.2870   21.4800 N   0  0  0  0  0  0  0  0  0  0  0  0
  -23.5910  -27.9400   22.2410 O   0  0  0  0  0  0  0  0  0  0  0  0
  -20.9030  -28.8680   20.9020 H   0  0  0  0  0  0  0  0  0  0  0  0
  -18.3170  -26.6130   21.9820 C   0  0  0  0  0  0  0  0  0  0  0  0
  -20.8360  -27.1690   22.1640 C   0  0  0  0  0  3  0  0  0  0  0  0
  -21.0770  -25.8400   21.4140 C   0  0  0  0  0  2  0  0  0  0  0  0
  -19.9640  -25.4990   20.4160 C   0  0  0  0  0  2  0  0  0  0  0  0
  -18.6160  -25.3890   21.1320 C   0  0  0  0  0  2  0  0  0  0  0  0
  -19.3580  -27.4570   22.4530 C   0  0  0  0  0  0  0  0  0  0  0  0
  -19.0230  -28.5970   23.2130 C   0  0  0  0  0  3  0  0  0  0  0  0
  -17.6790  -28.9010   23.5050 C   0  0  0  0  0  3  0  0  0  0  0  0
  -16.6540  -28.0560   23.0470 C   0  0  0  0  0  3  0  0  0  0  0  0
  -16.9720  -26.9130   22.2910 C   0  0  0  0  0  3  0  0  0  0  0  0
  -25.8930  -31.6380   22.9810 C   0  0  0  0  0  3  0  0  0  0  0  0
  -26.6670  -30.6770   23.9690 C   0  0  1  0  0  0  0  0  0  0  0  0
  -25.7760  -30.0960   25.0940 C   0  0  0  0  0  1  0  0  0  0  0  0
  -27.2940  -29.4880   23.2060 C   0  0  0  0  0  1  0  0  0  0  0  0
  -27.8350  -31.4430   24.6350 C   0  0  0  0  0  1  0  0  0  0  0  0
  -25.5100  -32.8790   23.6740 N   0  0  0  0  0  0  0  0  0  0  0  0
  -25.7930  -34.1160   23.2460 C   0  0  0  0  0  0  0  0  0  0  0  0
  -26.4680  -34.3330   22.2370 O   0  0  0  0  0  0  0  0  0  0  0  0
  -24.9100  -32.7760   24.4790 H   0  0  0  0  0  0  0  0  0  0  0  0
  -24.0170  -35.9000   23.3580 C   0  0  0  0  0  1  0  0  0  0  0  0
  -25.2430  -35.3010   24.0660 C   0  0  0  0  0  3  0  0  0  0  0  0
  -27.3090  -35.9710   25.2180 C   0  0  0  0  0  1  0  0  0  0  0  0
  -26.2410  -36.3700   24.3040 N   0  0  0  0  0  0  0  0  0  0  0  0
  -25.7940  -37.1990   24.6850 H   0  0  0  0  0  0  0  0  0  0  0  0
  1  5  1  0
  4 48  1  0
  4  7  1  0
  4  1  1  0
  5 18  1  0
  5  2  1  0
  6  3  1  0
  6  2  1  0
  7  8  1  0
  7  6  1  0
  8  3  1  0
  9  1  2  0
 10 16  1  0
 11 16  1  0
 12 13  1  0
 12 11  1  0
 13 14  1  0
 14 23  1  0
 14 15  1  0
 16 15  1  0
 17 10  2  0
 18 10  1  0
 18 19  1  0
 20 21  2  0
 21 40  1  0
 21 22  1  0
 22 25  1  0
 23 20  1  0
 23 24  1  0
 24 22  2  0
 25 26  1  0
 26 27  2  0
 28 27  1  0
 29 28  2  0
 30 29  1  0
 30 25  2  0
 31 28  1  0
 31 32  1  0
 32 33  1  0
 33 34  2  0
 35 34  1  0
 35 39  1  0
 36 35  2  0
 37 32  2  0
 37 36  1  0
 38 37  1  0
 40 41  1  0
 41 44  1  0
 41 43  1  0
 42 40  2  0
 45 20  1  0
 46 45  1  0
 47 45  1  0
 48 49  1  0
 49 51  1  0
 51 50  1  0
 52 53  1  0
 52  8  1  0
 53 55  1  0
 54 80  1  0
 54 65  2  0
 55 60  1  0
 56 64  1  0
 56 66  1  0
 57 63  1  0
 57 59  1  0
 58 64  1  0
 59 58  1  0
 60 59  2  0
 61 62  1  0
 61 55  2  0
 62 57  2  0
 63 56  1  0
 64 54  1  0
 66 68  2  0
 67 66  1  0
 67 71  1  0
 69 67  1  0
 70 79  2  0
 70 75  1  0
 71 75  1  0
 72 71  1  0
 73 74  1  0
 73 72  1  0
 74 70  1  0
 75 76  2  0
 76 77  1  0
 78 77  2  0
 79 78  1  0
 80 85  1  0
 80 81  1  0
 81 84  1  1
 81 82  1  0
 83 81  1  0
 85 88  1  0
 86 85  1  0
 86 90  1  0
 87 86  2  0
 89 90  1  0
 90 92  1  0
 92 93  1  0
 92 91  1  0
M  ISO  4  10 100  18 100  52 101  53 101
M  END
>  <TORSDO>  (52) 
F 20

>  <SCORE>  (52) 
-8.804

>  <name>  (52) 
51

>  <ligand_id>  (52) 
51

>  <original_smiles>  (52) 
[H]c1c([H])c([H])c2c(c1[H])C([H])([H])C([H])([H])C([H])([H])C2([H])N([H])C(=O)C1([H])N(C(=O)C([H])(N([H])C(=O)C([H])(N([H])C([H])([H])[H])C([H])([H])[H])C(C([H])([H])[H])(C([H])([H])[H])C([H])([H])[H])C([H])([H])c2c([H])c(OC([H])([H])C3([H])C([H])([H])C4([H])C([H])([H])C([H])(N([H])C(=O)N5C([H])([H])C([H])([H])C([H])([H])C([H])(n6nc(-c7c([H])c([H])c(Oc8c([H])c([H])c(F)c([H])c8F)c([H])c7[H])c(C(=O)N([H])[H])c6N([H])[H])C5([H])[H])C(=O)C([H])(C([H])([H])C([H])([H])C([H])([H])C([H])([H])[H])C34[H])c([H])c([H])c2C1([H])[H]

>  <smiles>  (52) 
[H]c1c([H])c([H])c2c(c1[H])C([H])([H])C([H])([H])C([H])([H])C2([H])N([H])C(=O)C1([H])N(C(=O)C([H])(N([H])C(=O)C([H])(N([H])C([H])([H])[H])C([H])([H])[H])C(C([H])([H])[H])(C([H])([H])[H])C([H])([H])[H])C([H])([H])c2c([H])c(OC([H])([H])C3([H])C([H])([H])C4([H])C([H])([H])C([H])(N([H])C(=O)N5C([H])([H])C([H])([H])C([H])([H])C([H])(n6nc(-c7c([H])c([H])c(Oc8c([H])c([H])c(F)c([H])c8F)c([H])c7[H])c(C(=O)N([H])[H])c6N([H])[H])C5([H])[H])C(=O)C([H])(C([H])([H])C([H])([H])C([H])([H])C([H])([H])[H])C34[H])c([H])c([H])c2C1([H])[H]

$$$$
52:0:0
     RDKit          3D

 87 95  0  0  1  0  0  0  0  0999 V2000
  -30.5000  -23.2610   20.5070 C   0  0  0  0  0  1  0  0  0  0  0  0
  -29.1380  -22.9290   19.8880 C   0  0  0  0  0  3  0  0  0  0  0  0
  -27.8540  -19.2840   19.6880 C   0  0  0  0  0  2  0  0  0  0  0  0
  -27.4810  -20.7690   19.6360 C   0  0  0  0  0  2  0  0  0  0  0  0
  -29.3580  -19.5760   19.7260 C   0  0  0  0  0  3  0  0  0  0  0  0
  -28.8230  -21.2120   20.2300 C   0  0  0  0  0  3  0  0  0  0  0  0
  -30.2530  -18.1780   20.3530 C   0  0  0  0  0  2  0  0  0  0  0  0
  -30.7200  -15.2980   20.2260 C   0  0  0  0  0  0  0  0  0  0  0  0
  -30.6800  -12.8440   19.4220 C   0  0  0  0  0  2  0  0  0  0  0  0
  -29.7730  -12.6190   18.1880 C   0  0  0  0  0  2  0  0  0  0  0  0
  -28.3130  -12.3830   18.6190 C   0  0  0  0  0  2  0  0  0  0  0  0
  -27.8580  -13.3850   19.7100 C   0  0  0  0  0  3  0  0  0  0  0  0
  -28.8950  -13.5490   20.8400 C   0  0  0  0  0  2  0  0  0  0  0  0
  -30.1390  -14.0070   20.2030 N   0  0  0  0  0  0  0  0  0  0  0  0
  -31.9450  -15.2980   20.0480 O   0  0  0  0  0  0  0  0  0  0  0  0
  -29.9550  -16.5550   20.2510 N   0  0  0  0  0  0  0  0  0  0  0  0
  -28.9650  -16.3610   20.2920 H   0  0  0  0  0  0  0  0  0  0  0  0
  -25.4940  -13.9840   20.4580 C   0  0  0  0  0  0  0  0  0  0  0  0
  -24.4170  -13.2220   20.8180 C   0  0  0  0  0  0  0  0  0  0  0  0
  -24.8620  -11.8650   20.7830 C   0  0  0  0  0  0  0  0  0  0  0  0
  -26.5230  -13.0920   20.2130 N   0  0  0  0  0  0  0  0  0  0  0  0
  -26.1540  -11.8110   20.4780 N   0  0  0  0  0  0  0  0  0  0  0  0
  -24.1120  -10.6140   20.9610 C   0  0  0  0  0  0  0  0  0  0  0  0
  -24.5010   -9.6490   21.9160 C   0  0  0  0  0  3  0  0  0  0  0  0
  -23.7500   -8.4650   22.0830 C   0  0  0  0  0  3  0  0  0  0  0  0
  -22.5970   -8.2380   21.2950 C   0  0  0  0  0  0  0  0  0  0  0  0
  -22.2280   -9.1920   20.3290 C   0  0  0  0  0  3  0  0  0  0  0  0
  -22.9790  -10.3660   20.1610 C   0  0  0  0  0  3  0  0  0  0  0  0
  -21.8210   -7.1070   21.3690 O   0  0  0  0  0  0  0  0  0  0  0  0
  -21.7070   -6.3880   22.5330 C   0  0  0  0  0  0  0  0  0  0  0  0
  -21.1920   -6.9620   23.7160 C   0  0  0  0  0  3  0  0  0  0  0  0
  -21.0270   -6.1690   24.8700 C   0  0  0  0  0  3  0  0  0  0  0  0
  -21.3660   -4.8040   24.8400 C   0  0  0  0  0  0  0  0  0  0  0  0
  -21.8730   -4.2290   23.6610 C   0  0  0  0  0  3  0  0  0  0  0  0
  -22.0400   -5.0190   22.5100 C   0  0  0  0  0  0  0  0  0  0  0  0
  -22.5090   -4.4540   21.3710 F   0  0  0  0  0  0  0  0  0  0  0  0
  -21.2000   -4.0400   25.9450 F   0  0  0  0  0  0  0  0  0  0  0  0
  -23.0260  -13.7220   21.0790 C   0  0  0  0  0  0  0  0  0  0  0  0
  -22.2800  -13.0360   21.9370 N   0  0  0  0  0  0  0  0  0  0  0  0
  -22.6120  -14.7570   20.5570 O   0  0  0  0  0  0  0  0  0  0  0  0
  -22.6290  -12.1990   22.3790 H   0  0  0  0  0  0  0  0  0  0  0  0
  -21.3460  -13.3530   22.1540 H   0  0  0  0  0  0  0  0  0  0  0  0
  -25.6770  -15.3520   20.2850 N   0  0  0  0  0  0  0  0  0  0  0  0
  -24.9140  -16.0120   20.3920 H   0  0  0  0  0  0  0  0  0  0  0  0
  -26.5200  -15.7790   19.9240 H   0  0  0  0  0  0  0  0  0  0  0  0
  -28.1030  -24.3530   20.1720 C   0  0  0  0  0  2  0  0  0  0  0  0
  -28.3270  -25.9710   20.0960 O   0  0  0  0  0  0  0  0  0  0  0  0
  -24.5420  -31.7670   23.0620 C   0  0  0  0  0  0  0  0  0  0  0  0
  -27.2780  -27.0160   20.0570 C   0  0  0  0  0  0  0  0  0  0  0  0
  -23.4250  -30.3810   21.3620 C   0  0  0  0  0  3  0  0  0  0  0  0
  -24.9430  -28.8280   19.9660 C   0  0  0  0  0  0  0  0  0  0  0  0
  -25.9880  -30.6480   21.2990 C   0  0  0  0  0  2  0  0  0  0  0  0
  -26.1030  -29.2540   20.6260 C   0  0  0  0  0  0  0  0  0  0  0  0
  -27.2680  -28.3690   20.6460 C   0  0  0  0  0  3  0  0  0  0  0  0
  -26.0870  -26.7320   19.3530 C   0  0  0  0  0  3  0  0  0  0  0  0
  -24.9580  -27.5870   19.3100 C   0  0  0  0  0  3  0  0  0  0  0  0
  -23.7080  -29.7260   19.9840 C   0  0  0  0  0  2  0  0  0  0  0  0
  -24.6710  -30.9570   21.9620 N   0  0  0  0  0  0  0  0  0  0  0  0
  -23.4320  -32.0290   23.5530 O   0  0  0  0  0  0  0  0  0  0  0  0
  -22.7190  -29.3560   22.2870 C   0  0  0  0  0  0  0  0  0  0  0  0
  -21.3850  -29.2240   22.1650 N   0  0  0  0  0  0  0  0  0  0  0  0
  -23.3770  -28.6800   23.0810 O   0  0  0  0  0  0  0  0  0  0  0  0
  -20.9080  -29.8200   21.5020 H   0  0  0  0  0  0  0  0  0  0  0  0
  -17.9710  -28.1250   22.7090 C   0  0  0  0  0  0  0  0  0  0  0  0
  -20.5470  -28.2710   22.9010 C   0  0  0  0  0  3  0  0  0  0  0  0
  -20.5700  -26.8780   22.2300 C   0  0  0  0  0  2  0  0  0  0  0  0
  -19.4230  -26.6670   21.2350 C   0  0  0  0  0  2  0  0  0  0  0  0
  -18.0700  -26.8200   21.9350 C   0  0  0  0  0  2  0  0  0  0  0  0
  -19.1340  -28.8140   23.1470 C   0  0  0  0  0  0  0  0  0  0  0  0
  -18.9840  -30.0380   23.8360 C   0  0  0  0  0  3  0  0  0  0  0  0
  -17.7060  -30.5720   24.0850 C   0  0  0  0  0  3  0  0  0  0  0  0
  -16.5590  -29.8800   23.6590 C   0  0  0  0  0  3  0  0  0  0  0  0
  -16.6930  -28.6580   22.9770 C   0  0  0  0  0  3  0  0  0  0  0  0
  -25.7820  -32.4170   23.7460 C   0  0  0  0  0  3  0  0  0  0  0  0
  -26.2540  -31.6420   25.0380 C   0  0  1  0  0  0  0  0  0  0  0  0
  -25.1190  -31.3790   26.0560 C   0  0  0  0  0  1  0  0  0  0  0  0
  -26.8760  -30.2770   24.6680 C   0  0  0  0  0  1  0  0  0  0  0  0
  -27.3620  -32.4480   25.7570 C   0  0  0  0  0  1  0  0  0  0  0  0
  -25.4340  -33.8080   24.0870 N   0  0  0  0  0  0  0  0  0  0  0  0
  -25.7760  -34.8840   23.3660 C   0  0  0  0  0  0  0  0  0  0  0  0
  -26.4820  -34.8120   22.3570 O   0  0  0  0  0  0  0  0  0  0  0  0
  -24.8100  -33.9360   24.8700 H   0  0  0  0  0  0  0  0  0  0  0  0
  -24.0420  -36.6710   22.9930 C   0  0  0  0  0  1  0  0  0  0  0  0
  -25.2570  -36.2580   23.8380 C   0  0  0  0  0  3  0  0  0  0  0  0
  -27.3420  -37.1560   24.7780 C   0  0  0  0  0  1  0  0  0  0  0  0
  -26.2810  -37.3250   23.7880 N   0  0  0  0  0  0  0  0  0  0  0  0
  -25.8570  -38.2380   23.9290 H   0  0  0  0  0  0  0  0  0  0  0  0
  2 46  1  0
  2  1  1  0
  3  5  1  0
  4  3  1  0
  4  6  1  0
  5  6  1  0
  5  7  1  0
  6  2  1  0
  8 16  1  0
  9 14  1  0
 10 11  1  0
 10  9  1  0
 12 11  1  0
 12 21  1  0
 12 13  1  0
 14  8  1  0
 14 13  1  0
 15  8  2  0
 16 17  1  0
 16  7  1  0
 18 19  2  0
 19 38  1  0
 20 19  1  0
 20 23  1  0
 21 18  1  0
 21 22  1  0
 22 20  2  0
 23 24  1  0
 24 25  2  0
 26 29  1  0
 26 25  1  0
 27 26  2  0
 28 27  1  0
 28 23  2  0
 29 30  1  0
 30 31  1  0
 31 32  2  0
 33 32  1  0
 33 37  1  0
 34 33  2  0
 35 30  2  0
 35 34  1  0
 36 35  1  0
 38 39  1  0
 39 42  1  0
 39 41  1  0
 40 38  2  0
 43 44  1  0
 43 18  1  0
 45 43  1  0
 47 46  1  0
 48 59  2  0
 49 47  1  0
 49 54  1  0
 50 58  1  0
 50 60  1  0
 51 57  1  0
 51 53  1  0
 52 58  1  0
 53 54  2  0
 53 52  1  0
 55 49  2  0
 56 55  1  0
 56 51  2  0
 57 50  1  0
 58 48  1  0
 60 62  2  0
 61 60  1  0
 63 61  1  0
 64 73  2  0
 64 69  1  0
 65 61  1  0
 65 69  1  0
 66 65  1  0
 67 68  1  0
 67 66  1  0
 68 64  1  0
 69 70  2  0
 70 71  1  0
 72 71  2  0
 73 72  1  0
 74 48  1  0
 74 79  1  0
 74 75  1  0
 75 78  1  1
 75 76  1  0
 77 75  1  0
 79 82  1  0
 80 84  1  0
 80 79  1  0
 81 80  2  0
 84 83  1  0
 86 84  1  0
 86 87  1  0
 86 85  1  0
M  ISO  4   8 100  16 100  46 101  47 101
M  END
>  <TORSDO>  (53) 
F 19

>  <SCORE>  (53) 
-15.503

>  <name>  (53) 
52

>  <ligand_id>  (53) 
52

>  <original_smiles>  (53) 
[H]c1c([H])c([H])c2c(c1[H])C([H])([H])C([H])([H])C([H])([H])C2([H])N([H])C(=O)C1([H])N(C(=O)C([H])(N([H])C(=O)C([H])(N([H])C([H])([H])[H])C([H])([H])[H])C(C([H])([H])[H])(C([H])([H])[H])C([H])([H])[H])C([H])([H])c2c([H])c(OC([H])([H])C([H])(C([H])([H])[H])C3([H])C([H])([H])C([H])([H])C3([H])C([H])([H])N([H])C(=O)N3C([H])([H])C([H])([H])C([H])([H])C([H])(n4nc(-c5c([H])c([H])c(Oc6c([H])c([H])c(F)c([H])c6F)c([H])c5[H])c(C(=O)N([H])[H])c4N([H])[H])C3([H])[H])c([H])c([H])c2C1([H])[H]

>  <smiles>  (53) 
[H]c1c([H])c([H])c2c(c1[H])C([H])([H])C([H])([H])C([H])([H])C2([H])N([H])C(=O)C1([H])N(C(=O)C([H])(N([H])C(=O)C([H])(N([H])C([H])([H])[H])C([H])([H])[H])C(C([H])([H])[H])(C([H])([H])[H])C([H])([H])[H])C([H])([H])c2c([H])c(OC([H])([H])C([H])(C([H])([H])[H])C3([H])C([H])([H])C([H])([H])C3([H])C([H])([H])N([H])C(=O)N3C([H])([H])C([H])([H])C([H])([H])C([H])(n4nc(-c5c([H])c([H])c(Oc6c([H])c([H])c(F)c([H])c6F)c([H])c5[H])c(C(=O)N([H])[H])c4N([H])[H])C3([H])[H])c([H])c([H])c2C1([H])[H]

$$$$
53:0:0
     RDKit          3D

 88 97  0  0  1  0  0  0  0  0999 V2000
  -28.1840  -20.2350   19.3780 C   0  0  0  0  0  3  0  0  0  0  0  0
  -26.5390  -22.0800   19.3650 C   0  0  0  0  0  2  0  0  0  0  0  0
  -27.7390  -21.5360   19.4900 C   0  0  0  0  0  3  0  0  0  0  0  0
  -29.2340  -19.9260   20.1730 C   0  0  0  0  0  0  0  0  0  0  0  0
  -26.8090  -22.6850   20.7640 C   0  0  0  0  0  2  0  0  0  0  0  0
  -29.4710  -21.4700   20.8030 C   0  0  0  0  0  2  0  0  0  0  0  0
  -28.3220  -22.6980   20.3730 C   0  0  1  0  0  0  0  0  0  0  0  0
  -30.0500  -18.3800   20.4410 C   0  0  0  0  0  2  0  0  0  0  0  0
  -30.4360  -15.4430   20.1900 C   0  0  0  0  0  0  0  0  0  0  0  0
  -30.3920  -13.0030   19.2760 C   0  0  0  0  0  2  0  0  0  0  0  0
  -29.4690  -12.8270   18.0450 C   0  0  0  0  0  2  0  0  0  0  0  0
  -28.0240  -12.5400   18.4970 C   0  0  0  0  0  2  0  0  0  0  0  0
  -27.5820  -13.4790   19.6490 C   0  0  0  0  0  3  0  0  0  0  0  0
  -28.6420  -13.6160   20.7600 C   0  0  0  0  0  2  0  0  0  0  0  0
  -29.8570  -14.1420   20.1140 N   0  0  0  0  0  0  0  0  0  0  0  0
  -31.6590  -15.4240   19.9890 O   0  0  0  0  0  0  0  0  0  0  0  0
  -29.6980  -16.7400   20.2890 N   0  0  0  0  0  0  0  0  0  0  0  0
  -28.7040  -16.5760   20.3410 H   0  0  0  0  0  0  0  0  0  0  0  0
  -25.2150  -14.0150   20.4280 C   0  0  0  0  0  0  0  0  0  0  0  0
  -24.1610  -13.2300   20.8040 C   0  0  0  0  0  0  0  0  0  0  0  0
  -24.6390  -11.8830   20.7650 C   0  0  0  0  0  0  0  0  0  0  0  0
  -26.2620  -13.1490   20.1710 N   0  0  0  0  0  0  0  0  0  0  0  0
  -25.9280  -11.8590   20.4420 N   0  0  0  0  0  0  0  0  0  0  0  0
  -23.9190  -10.6170   20.9590 C   0  0  0  0  0  0  0  0  0  0  0  0
  -24.3430   -9.6640   21.9120 C   0  0  0  0  0  3  0  0  0  0  0  0
  -23.6220   -8.4630   22.0940 C   0  0  0  0  0  3  0  0  0  0  0  0
  -22.4620   -8.2090   21.3240 C   0  0  0  0  0  0  0  0  0  0  0  0
  -22.0580   -9.1490   20.3590 C   0  0  0  0  0  3  0  0  0  0  0  0
  -22.7800  -10.3410   20.1770 C   0  0  0  0  0  3  0  0  0  0  0  0
  -21.7140   -7.0590   21.4140 O   0  0  0  0  0  0  0  0  0  0  0  0
  -21.6240   -6.3490   22.5840 C   0  0  0  0  0  0  0  0  0  0  0  0
  -21.1120   -6.9230   23.7680 C   0  0  0  0  0  3  0  0  0  0  0  0
  -20.9750   -6.1370   24.9290 C   0  0  0  0  0  3  0  0  0  0  0  0
  -21.3370   -4.7780   24.9070 C   0  0  0  0  0  0  0  0  0  0  0  0
  -21.8420   -4.2020   23.7270 C   0  0  0  0  0  3  0  0  0  0  0  0
  -21.9820   -4.9860   22.5680 C   0  0  0  0  0  0  0  0  0  0  0  0
  -22.4490   -4.4210   21.4280 F   0  0  0  0  0  0  0  0  0  0  0  0
  -21.1970   -4.0190   26.0190 F   0  0  0  0  0  0  0  0  0  0  0  0
  -22.7640  -13.7000   21.0800 C   0  0  0  0  0  0  0  0  0  0  0  0
  -22.0420  -12.9950   21.9470 N   0  0  0  0  0  0  0  0  0  0  0  0
  -22.3210  -14.7250   20.5660 O   0  0  0  0  0  0  0  0  0  0  0  0
  -22.4110  -12.1650   22.3850 H   0  0  0  0  0  0  0  0  0  0  0  0
  -21.1030  -13.2910   22.1730 H   0  0  0  0  0  0  0  0  0  0  0  0
  -25.3620  -15.3880   20.2470 N   0  0  0  0  0  0  0  0  0  0  0  0
  -24.5870  -16.0310   20.3670 H   0  0  0  0  0  0  0  0  0  0  0  0
  -26.1810  -15.8270   19.8490 H   0  0  0  0  0  0  0  0  0  0  0  0
  -28.5310  -24.4160   19.7750 C   0  0  0  0  0  2  0  0  0  0  0  0
  -28.3690  -25.9870   20.3020 O   0  0  0  0  0  0  0  0  0  0  0  0
  -24.6430  -31.8890   23.1780 C   0  0  0  0  0  0  0  0  0  0  0  0
  -27.3320  -27.0590   20.1600 C   0  0  0  0  0  0  0  0  0  0  0  0
  -23.4990  -30.4790   21.5140 C   0  0  0  0  0  3  0  0  0  0  0  0
  -24.9980  -28.9060   20.0930 C   0  0  0  0  0  0  0  0  0  0  0  0
  -26.0620  -30.7300   21.4090 C   0  0  0  0  0  2  0  0  0  0  0  0
  -26.1640  -29.3230   20.7430 C   0  0  0  0  0  0  0  0  0  0  0  0
  -27.3200  -28.4170   20.7540 C   0  0  0  0  0  3  0  0  0  0  0  0
  -26.1350  -26.7960   19.4570 C   0  0  0  0  0  3  0  0  0  0  0  0
  -25.0110  -27.6670   19.4260 C   0  0  0  0  0  3  0  0  0  0  0  0
  -23.7590  -29.8050   20.1360 C   0  0  0  0  0  2  0  0  0  0  0  0
  -24.7540  -31.0600   22.0880 N   0  0  0  0  0  0  0  0  0  0  0  0
  -23.5420  -32.1540   23.6860 O   0  0  0  0  0  0  0  0  0  0  0  0
  -22.8070  -29.4720   22.4670 C   0  0  0  0  0  0  0  0  0  0  0  0
  -21.4770  -29.3140   22.3450 N   0  0  0  0  0  0  0  0  0  0  0  0
  -23.4720  -28.8320   23.2860 O   0  0  0  0  0  0  0  0  0  0  0  0
  -20.9880  -29.8810   21.6650 H   0  0  0  0  0  0  0  0  0  0  0  0
  -18.0940  -28.1080   22.8570 C   0  0  0  0  0  0  0  0  0  0  0  0
  -20.6570  -28.3620   23.1030 C   0  0  0  0  0  3  0  0  0  0  0  0
  -20.7410  -26.9440   22.4930 C   0  0  0  0  0  2  0  0  0  0  0  0
  -19.6390  -26.6790   21.4630 C   0  0  0  0  0  2  0  0  0  0  0  0
  -18.2660  -26.7840   22.1300 C   0  0  0  0  0  2  0  0  0  0  0  0
  -19.2180  -28.8580   23.2960 C   0  0  0  0  0  0  0  0  0  0  0  0
  -19.0070  -30.1000   23.9350 C   0  0  0  0  0  3  0  0  0  0  0  0
  -17.7010  -30.5890   24.1360 C   0  0  0  0  0  3  0  0  0  0  0  0
  -16.5920  -29.8380   23.7080 C   0  0  0  0  0  3  0  0  0  0  0  0
  -16.7900  -28.5990   23.0730 C   0  0  0  0  0  3  0  0  0  0  0  0
  -25.8920  -32.5510   23.8370 C   0  0  0  0  0  3  0  0  0  0  0  0
  -25.5500  -33.9470   24.1640 N   0  0  0  0  0  0  0  0  0  0  0  0
  -25.8890  -35.0130   23.4280 C   0  0  0  0  0  0  0  0  0  0  0  0
  -26.5850  -34.9250   22.4130 O   0  0  0  0  0  0  0  0  0  0  0  0
  -24.9350  -34.0850   24.9520 H   0  0  0  0  0  0  0  0  0  0  0  0
  -24.1630  -36.8080   23.0450 C   0  0  0  0  0  1  0  0  0  0  0  0
  -25.3810  -36.3950   23.8890 C   0  0  0  0  0  3  0  0  0  0  0  0
  -27.4780  -37.2930   24.8020 C   0  0  0  0  0  1  0  0  0  0  0  0
  -26.4110  -37.4570   23.8190 N   0  0  0  0  0  0  0  0  0  0  0  0
  -25.9940  -38.3750   23.9550 H   0  0  0  0  0  0  0  0  0  0  0  0
  -26.3800  -31.7950   25.1360 C   0  0  1  0  0  0  0  0  0  0  0  0
  -25.2590  -31.5490   26.1750 C   0  0  0  0  0  1  0  0  0  0  0  0
  -26.9930  -30.4230   24.7810 C   0  0  0  0  0  1  0  0  0  0  0  0
  -27.5020  -32.6080   25.8270 C   0  0  0  0  0  1  0  0  0  0  0  0
  1  3  1  0
  1  4  2  0
  2  5  1  0
  3  2  1  0
  3  7  1  0
  4  8  1  0
  4  6  1  0
  7 47  1  6
  7  5  1  0
  7  6  1  0
  9 17  1  0
 10 15  1  0
 11 12  1  0
 11 10  1  0
 13 12  1  0
 13 22  1  0
 13 14  1  0
 15  9  1  0
 15 14  1  0
 16  9  2  0
 17 18  1  0
 17  8  1  0
 19 20  2  0
 20 39  1  0
 21 20  1  0
 21 24  1  0
 22 19  1  0
 22 23  1  0
 23 21  2  0
 24 25  1  0
 25 26  2  0
 27 30  1  0
 27 26  1  0
 28 27  2  0
 29 28  1  0
 29 24  2  0
 30 31  1  0
 31 32  1  0
 32 33  2  0
 34 33  1  0
 34 38  1  0
 35 34  2  0
 36 31  2  0
 36 35  1  0
 37 36  1  0
 39 40  1  0
 40 43  1  0
 40 42  1  0
 41 39  2  0
 44 45  1  0
 44 19  1  0
 46 44  1  0
 47 48  1  0
 49 60  2  0
 50 48  1  0
 50 55  1  0
 51 59  1  0
 51 61  1  0
 52 58  1  0
 52 54  1  0
 53 59  1  0
 54 55  2  0
 54 53  1  0
 56 50  2  0
 57 56  1  0
 57 52  2  0
 58 51  1  0
 59 49  1  0
 61 63  2  0
 62 61  1  0
 64 62  1  0
 65 74  2  0
 65 70  1  0
 66 62  1  0
 66 70  1  0
 67 66  1  0
 68 69  1  0
 68 67  1  0
 69 65  1  0
 70 71  2  0
 71 72  1  0
 73 72  2  0
 74 73  1  0
 75 49  1  0
 75 76  1  0
 75 85  1  0
 76 79  1  0
 77 81  1  0
 77 76  1  0
 78 77  2  0
 81 80  1  0
 83 81  1  0
 83 84  1  0
 83 82  1  0
 85 88  1  1
 85 86  1  0
 87 85  1  0
M  ISO  4   9 100  17 100  47 101  48 101
M  END
>  <TORSDO>  (54) 
F 18

>  <SCORE>  (54) 
-16.602

>  <name>  (54) 
53

>  <ligand_id>  (54) 
53

>  <original_smiles>  (54) 
[H]C1=C(C([H])([H])N([H])C(=O)N2C([H])([H])C([H])([H])C([H])([H])C([H])(n3nc(-c4c([H])c([H])c(Oc5c([H])c([H])c(F)c([H])c5F)c([H])c4[H])c(C(=O)N([H])[H])c3N([H])[H])C2([H])[H])C([H])([H])C2(C([H])([H])Oc3c([H])c([H])c4c(c3[H])C([H])([H])N(C(=O)C([H])(N([H])C(=O)C([H])(N([H])C([H])([H])[H])C([H])([H])[H])C(C([H])([H])[H])(C([H])([H])[H])C([H])([H])[H])C([H])(C(=O)N([H])C3([H])c5c([H])c([H])c([H])c([H])c5C([H])([H])C([H])([H])C3([H])[H])C4([H])[H])C1=C([H])C2([H])[H]

>  <smiles>  (54) 
[H]C1=C(C([H])([H])N([H])C(=O)N2C([H])([H])C([H])([H])C([H])([H])C([H])(n3nc(-c4c([H])c([H])c(Oc5c([H])c([H])c(F)c([H])c5F)c([H])c4[H])c(C(=O)N([H])[H])c3N([H])[H])C2([H])[H])C([H])([H])C2(C([H])([H])Oc3c([H])c([H])c4c(c3[H])C([H])([H])N(C(=O)C([H])(N([H])C(=O)C([H])(N([H])C([H])([H])[H])C([H])([H])[H])C(C([H])([H])[H])(C([H])([H])[H])C([H])([H])[H])C([H])(C(=O)N([H])C3([H])c5c([H])c([H])c([H])c([H])c5C([H])([H])C([H])([H])C3([H])[H])C4([H])[H])C1=C([H])C2([H])[H]

$$$$
54:0:0
     RDKit          3D

 89 98  0  0  1  0  0  0  0  0999 V2000
  -29.8840  -20.4340   20.6860 C   0  0  0  0  0  2  0  0  0  0  0  0
  -29.5120  -19.1500   20.3090 C   0  0  0  0  0  3  0  0  0  0  0  0
  -27.5580  -20.7390   20.3030 C   0  0  0  0  0  2  0  0  0  0  0  0
  -28.7330  -20.9230   18.6940 C   0  0  0  0  0  2  0  0  0  0  0  0
  -28.3050  -19.6180   19.4750 C   0  0  0  0  0  3  0  0  0  0  0  0
  -28.8790  -21.5490   20.1160 C   0  0  2  0  0  0  0  0  0  0  0  0
  -30.5890  -15.1740   20.3520 C   0  0  0  0  0  0  0  0  0  0  0  0
  -30.4800  -12.7760   19.4730 C   0  0  0  0  0  2  0  0  0  0  0  0
  -29.5670  -12.6390   18.2340 C   0  0  0  0  0  2  0  0  0  0  0  0
  -28.1040  -12.4210   18.6590 C   0  0  0  0  0  2  0  0  0  0  0  0
  -27.6660  -13.3800   19.7960 C   0  0  0  0  0  3  0  0  0  0  0  0
  -28.7100  -13.4820   20.9270 C   0  0  0  0  0  2  0  0  0  0  0  0
  -29.9660  -13.9150   20.3000 N   0  0  0  0  0  0  0  0  0  0  0  0
  -31.8110  -15.1330   20.1590 O   0  0  0  0  0  0  0  0  0  0  0  0
  -30.3440  -17.8020   20.4020 C   0  0  0  0  0  0  0  0  0  0  0  0
  -29.8690  -16.4360   20.3920 N   0  0  0  0  0  0  0  0  0  0  0  0
  -31.5650  -17.9510   20.5070 O   0  0  0  0  0  0  0  0  0  0  0  0
  -28.8670  -16.3500   20.4100 H   0  0  0  0  0  0  0  0  0  0  0  0
  -25.2890  -13.9490   20.5380 C   0  0  0  0  0  0  0  0  0  0  0  0
  -24.2220  -13.1730   20.8930 C   0  0  0  0  0  0  0  0  0  0  0  0
  -24.6820  -11.8210   20.8480 C   0  0  0  0  0  0  0  0  0  0  0  0
  -26.3310  -13.0720   20.2940 N   0  0  0  0  0  0  0  0  0  0  0  0
  -25.9750  -11.7850   20.5490 N   0  0  0  0  0  0  0  0  0  0  0  0
  -23.9470  -10.5610   21.0170 C   0  0  0  0  0  0  0  0  0  0  0  0
  -24.3580   -9.5850   21.9510 C   0  0  0  0  0  3  0  0  0  0  0  0
  -23.6240   -8.3900   22.1090 C   0  0  0  0  0  3  0  0  0  0  0  0
  -22.4630   -8.1620   21.3320 C   0  0  0  0  0  0  0  0  0  0  0  0
  -22.0720   -9.1260   20.3860 C   0  0  0  0  0  3  0  0  0  0  0  0
  -22.8060  -10.3130   20.2280 C   0  0  0  0  0  3  0  0  0  0  0  0
  -21.7000   -7.0200   21.4010 O   0  0  0  0  0  0  0  0  0  0  0  0
  -21.6150   -6.2780   22.5510 C   0  0  0  0  0  0  0  0  0  0  0  0
  -21.1100   -6.8220   23.7530 C   0  0  0  0  0  3  0  0  0  0  0  0
  -20.9780   -6.0060   24.8950 C   0  0  0  0  0  3  0  0  0  0  0  0
  -21.3390   -4.6460   24.8350 C   0  0  0  0  0  0  0  0  0  0  0  0
  -21.8350   -4.1020   23.6370 C   0  0  0  0  0  3  0  0  0  0  0  0
  -21.9700   -4.9150   22.4980 C   0  0  0  0  0  0  0  0  0  0  0  0
  -22.4280   -4.3800   21.3410 F   0  0  0  0  0  0  0  0  0  0  0  0
  -21.2030   -3.8590   25.9280 F   0  0  0  0  0  0  0  0  0  0  0  0
  -22.8240  -13.6520   21.1530 C   0  0  0  0  0  0  0  0  0  0  0  0
  -22.0900  -12.9570   22.0140 N   0  0  0  0  0  0  0  0  0  0  0  0
  -22.3940  -14.6790   20.6300 O   0  0  0  0  0  0  0  0  0  0  0  0
  -22.4540  -12.1280   22.4610 H   0  0  0  0  0  0  0  0  0  0  0  0
  -21.1520  -13.2610   22.2330 H   0  0  0  0  0  0  0  0  0  0  0  0
  -25.4580  -15.3210   20.3710 N   0  0  0  0  0  0  0  0  0  0  0  0
  -24.6840  -15.9710   20.4550 H   0  0  0  0  0  0  0  0  0  0  0  0
  -26.2870  -15.7450   19.9760 H   0  0  0  0  0  0  0  0  0  0  0  0
  -29.0680  -23.2520   20.3990 C   0  0  0  0  0  3  0  0  0  0  0  0
  -28.0640  -24.5990   20.0170 C   0  0  0  0  0  3  0  0  0  0  0  0
  -28.2920  -26.1480   20.3040 O   0  0  0  0  0  0  0  0  0  0  0  0
  -24.6480  -31.9240   23.2580 C   0  0  0  0  0  0  0  0  0  0  0  0
  -27.2530  -27.1700   20.2300 C   0  0  0  0  0  0  0  0  0  0  0  0
  -23.4690  -30.5290   21.6060 C   0  0  0  0  0  3  0  0  0  0  0  0
  -24.9320  -28.9540   20.1840 C   0  0  0  0  0  0  0  0  0  0  0  0
  -26.0270  -30.7810   21.4700 C   0  0  0  0  0  2  0  0  0  0  0  0
  -26.1080  -29.3860   20.8110 C   0  0  0  0  0  0  0  0  0  0  0  0
  -27.2670  -28.5100   20.8150 C   0  0  0  0  0  3  0  0  0  0  0  0
  -26.0500  -26.8570   19.5600 C   0  0  0  0  0  3  0  0  0  0  0  0
  -24.9210  -27.7070   19.5400 C   0  0  0  0  0  3  0  0  0  0  0  0
  -23.7040  -29.8540   20.2260 C   0  0  0  0  0  2  0  0  0  0  0  0
  -24.7350  -31.1010   22.1670 N   0  0  0  0  0  0  0  0  0  0  0  0
  -23.5550  -32.2070   23.7730 O   0  0  0  0  0  0  0  0  0  0  0  0
  -22.7780  -29.5210   22.5610 C   0  0  0  0  0  0  0  0  0  0  0  0
  -21.4510  -29.3490   22.4190 N   0  0  0  0  0  0  0  0  0  0  0  0
  -23.4400  -28.8960   23.3940 O   0  0  0  0  0  0  0  0  0  0  0  0
  -20.9750  -29.9060   21.7240 H   0  0  0  0  0  0  0  0  0  0  0  0
  -18.0610  -28.1580   22.9030 C   0  0  0  0  0  0  0  0  0  0  0  0
  -20.6200  -28.4090   23.1780 C   0  0  0  0  0  3  0  0  0  0  0  0
  -20.7180  -26.9820   22.5890 C   0  0  0  0  0  2  0  0  0  0  0  0
  -19.6160  -26.6720   21.5710 C   0  0  0  0  0  2  0  0  0  0  0  0
  -18.2330  -26.8160   22.2130 C   0  0  0  0  0  2  0  0  0  0  0  0
  -19.1810  -28.9130   23.3410 C   0  0  0  0  0  0  0  0  0  0  0  0
  -18.9630  -30.1700   23.9480 C   0  0  0  0  0  3  0  0  0  0  0  0
  -17.6590  -30.6700   24.1200 C   0  0  0  0  0  3  0  0  0  0  0  0
  -16.5530  -29.9120   23.6950 C   0  0  0  0  0  3  0  0  0  0  0  0
  -16.7550  -28.6580   23.0930 C   0  0  0  0  0  3  0  0  0  0  0  0
  -25.9170  -32.5610   23.9030 C   0  0  0  0  0  3  0  0  0  0  0  0
  -25.6010  -33.9630   24.2250 N   0  0  0  0  0  0  0  0  0  0  0  0
  -25.9210  -35.0150   23.4580 C   0  0  0  0  0  0  0  0  0  0  0  0
  -26.5760  -34.9070   22.4190 O   0  0  0  0  0  0  0  0  0  0  0  0
  -25.0160  -34.1210   25.0320 H   0  0  0  0  0  0  0  0  0  0  0  0
  -24.1750  -36.8000   23.1310 C   0  0  0  0  0  1  0  0  0  0  0  0
  -25.4380  -36.4080   23.9140 C   0  0  0  0  0  3  0  0  0  0  0  0
  -27.5810  -37.3190   24.6950 C   0  0  0  0  0  1  0  0  0  0  0  0
  -26.4640  -37.4640   23.7650 N   0  0  0  0  0  0  0  0  0  0  0  0
  -26.0560  -38.3850   23.8980 H   0  0  0  0  0  0  0  0  0  0  0  0
  -26.4020  -31.8000   25.1980 C   0  0  1  0  0  0  0  0  0  0  0  0
  -25.2850  -31.5680   26.2430 C   0  0  0  0  0  1  0  0  0  0  0  0
  -26.9950  -30.4210   24.8330 C   0  0  0  0  0  1  0  0  0  0  0  0
  -27.5390  -32.6010   25.8770 C   0  0  0  0  0  1  0  0  0  0  0  0
  2 15  1  0
  2  1  1  0
  4  6  1  0
  5  4  1  0
  5  3  1  0
  5  2  1  0
  6  3  1  0
  6 47  1  6
  6  1  1  0
  7 16  1  0
  8 13  1  0
  9 10  1  0
  9  8  1  0
 11 10  1  0
 11 22  1  0
 11 12  1  0
 13  7  1  0
 13 12  1  0
 14  7  2  0
 15 17  2  0
 16 15  1  0
 16 18  1  0
 19 20  2  0
 20 39  1  0
 21 20  1  0
 21 24  1  0
 22 19  1  0
 22 23  1  0
 23 21  2  0
 24 25  1  0
 25 26  2  0
 27 30  1  0
 27 26  1  0
 28 27  2  0
 29 28  1  0
 29 24  2  0
 30 31  1  0
 31 32  1  0
 32 33  2  0
 34 33  1  0
 34 38  1  0
 35 34  2  0
 36 31  2  0
 36 35  1  0
 37 36  1  0
 39 40  1  0
 40 43  1  0
 40 42  1  0
 41 39  2  0
 44 45  1  0
 44 19  1  0
 46 44  1  0
 48 49  1  0
 48 47  2  0
 50 61  2  0
 51 49  1  0
 51 56  1  0
 52 60  1  0
 52 62  1  0
 53 59  1  0
 53 55  1  0
 54 60  1  0
 55 56  2  0
 55 54  1  0
 57 51  2  0
 58 57  1  0
 58 53  2  0
 59 52  1  0
 60 50  1  0
 62 64  2  0
 63 62  1  0
 65 63  1  0
 66 75  2  0
 66 71  1  0
 67 63  1  0
 67 71  1  0
 68 67  1  0
 69 70  1  0
 69 68  1  0
 70 66  1  0
 71 72  2  0
 72 73  1  0
 74 73  2  0
 75 74  1  0
 76 50  1  0
 76 77  1  0
 76 86  1  0
 77 80  1  0
 78 82  1  0
 78 77  1  0
 79 78  2  0
 82 81  1  0
 84 85  1  0
 84 82  1  0
 84 83  1  0
 86 89  1  1
 86 87  1  0
 88 86  1  0
M  ISO  4   7 100  16 100  48 101  49 101
M  END
>  <TORSDO>  (55) 
F 18

>  <SCORE>  (55) 
-15.567

>  <name>  (55) 
54

>  <ligand_id>  (55) 
54

>  <original_smiles>  (55) 
[H]C1=C(C(=O)N([H])C(=O)N2C([H])([H])C([H])([H])C([H])([H])C([H])(n3nc(-c4c([H])c([H])c(Oc5c([H])c([H])c(F)c([H])c5F)c([H])c4[H])c(C(=O)N([H])[H])c3N([H])[H])C2([H])[H])C2([H])C([H])([H])C1(C([H])([H])C([H])([H])Oc1c([H])c([H])c3c(c1[H])C([H])([H])N(C(=O)C([H])(N([H])C(=O)C([H])(N([H])C([H])([H])[H])C([H])([H])[H])C(C([H])([H])[H])(C([H])([H])[H])C([H])([H])[H])C([H])(C(=O)N([H])C1([H])c4c([H])c([H])c([H])c([H])c4C([H])([H])C([H])([H])C1([H])[H])C3([H])[H])C2([H])[H]

>  <smiles>  (55) 
[H]C1=C(C(=O)N([H])C(=O)N2C([H])([H])C([H])([H])C([H])([H])C([H])(n3nc(-c4c([H])c([H])c(Oc5c([H])c([H])c(F)c([H])c5F)c([H])c4[H])c(C(=O)N([H])[H])c3N([H])[H])C2([H])[H])C2([H])C([H])([H])C1(C([H])([H])C([H])([H])Oc1c([H])c([H])c3c(c1[H])C([H])([H])N(C(=O)C([H])(N([H])C(=O)C([H])(N([H])C([H])([H])[H])C([H])([H])[H])C(C([H])([H])[H])(C([H])([H])[H])C([H])([H])[H])C([H])(C(=O)N([H])C1([H])c4c([H])c([H])c([H])c([H])c4C([H])([H])C([H])([H])C1([H])[H])C3([H])[H])C2([H])[H]

$$$$
55:0:0
     RDKit          3D

 92101  0  0  1  0  0  0  0  0999 V2000
  -30.9590  -20.1120   20.9190 C   0  0  0  0  0  3  0  0  0  0  0  0
  -31.0540  -18.6880   20.7230 C   0  0  0  0  0  3  0  0  0  0  0  0
  -28.6200  -20.0470   20.6450 C   0  0  0  0  0  3  0  0  0  0  0  0
  -29.7500  -20.8780   20.8390 C   0  0  0  0  0  0  0  0  0  0  0  0
  -29.9410  -17.8660   20.3770 C   0  0  0  0  0  0  0  0  0  0  0  0
  -28.7000  -18.6180   20.4370 C   0  0  0  0  0  0  0  0  0  0  0  0
  -27.5130  -17.9950   20.2820 F   0  0  0  0  0  0  0  0  0  0  0  0
  -30.3260  -23.3000   20.0630 C   0  0  0  0  0  2  0  0  0  0  0  0
  -29.7930  -22.4420   21.1780 C   0  0  0  0  0  3  0  0  0  0  0  0
  -29.2450  -23.9710   20.8790 C   0  0  0  0  0  3  0  0  0  0  0  0
  -28.1550  -24.8830   20.1220 C   0  0  0  0  0  2  0  0  0  0  0  0
  -28.3160  -26.3950   20.2790 O   0  0  0  0  0  0  0  0  0  0  0  0
  -24.6130  -31.9040   23.2830 C   0  0  0  0  0  0  0  0  0  0  0  0
  -27.2200  -27.3010   20.2080 C   0  0  0  0  0  0  0  0  0  0  0  0
  -23.4040  -30.5090   21.6490 C   0  0  0  0  0  3  0  0  0  0  0  0
  -24.8480  -28.9450   20.2220 C   0  0  0  0  0  0  0  0  0  0  0  0
  -25.9470  -30.8230   21.4450 C   0  0  0  0  0  2  0  0  0  0  0  0
  -26.0290  -29.4400   20.7870 C   0  0  0  0  0  0  0  0  0  0  0  0
  -27.2190  -28.6370   20.7540 C   0  0  0  0  0  3  0  0  0  0  0  0
  -26.0230  -26.8960   19.5850 C   0  0  0  0  0  3  0  0  0  0  0  0
  -24.8490  -27.6780   19.6180 C   0  0  0  0  0  3  0  0  0  0  0  0
  -23.6140  -29.8260   20.2750 C   0  0  0  0  0  2  0  0  0  0  0  0
  -24.6750  -31.0980   22.1810 N   0  0  0  0  0  0  0  0  0  0  0  0
  -23.5350  -32.1730   23.8300 O   0  0  0  0  0  0  0  0  0  0  0  0
  -22.7430  -29.4940   22.6080 C   0  0  0  0  0  0  0  0  0  0  0  0
  -21.4180  -29.3030   22.4700 N   0  0  0  0  0  0  0  0  0  0  0  0
  -23.4240  -28.8740   23.4290 O   0  0  0  0  0  0  0  0  0  0  0  0
  -20.9330  -29.8450   21.7670 H   0  0  0  0  0  0  0  0  0  0  0  0
  -18.0480  -28.0710   22.9550 C   0  0  0  0  0  0  0  0  0  0  0  0
  -20.6030  -28.3600   23.2410 C   0  0  0  0  0  3  0  0  0  0  0  0
  -20.7240  -26.9250   22.6790 C   0  0  0  0  0  2  0  0  0  0  0  0
  -19.6310  -26.5750   21.6640 C   0  0  0  0  0  2  0  0  0  0  0  0
  -18.2420  -26.7180   22.2910 C   0  0  0  0  0  2  0  0  0  0  0  0
  -19.1560  -28.8480   23.3850 C   0  0  0  0  0  0  0  0  0  0  0  0
  -18.9190  -30.1140   23.9620 C   0  0  0  0  0  3  0  0  0  0  0  0
  -17.6070  -30.6010   24.1150 C   0  0  0  0  0  3  0  0  0  0  0  0
  -16.5140  -29.8200   23.7040 C   0  0  0  0  0  3  0  0  0  0  0  0
  -16.7370  -28.5580   23.1270 C   0  0  0  0  0  3  0  0  0  0  0  0
  -25.8970  -32.5340   23.9010 C   0  0  0  0  0  3  0  0  0  0  0  0
  -26.4040  -31.7720   25.1860 C   0  0  1  0  0  0  0  0  0  0  0  0
  -25.3040  -31.5550   26.2530 C   0  0  0  0  0  1  0  0  0  0  0  0
  -26.9760  -30.3870   24.8090 C   0  0  0  0  0  1  0  0  0  0  0  0
  -27.5570  -32.5670   25.8400 C   0  0  0  0  0  1  0  0  0  0  0  0
  -25.5950  -33.9360   24.2200 N   0  0  0  0  0  0  0  0  0  0  0  0
  -25.9310  -34.9830   23.4530 C   0  0  0  0  0  0  0  0  0  0  0  0
  -26.5960  -34.8710   22.4200 O   0  0  0  0  0  0  0  0  0  0  0  0
  -24.9910  -34.0900   25.0140 H   0  0  0  0  0  0  0  0  0  0  0  0
  -24.2050  -36.7820   23.0940 C   0  0  0  0  0  1  0  0  0  0  0  0
  -25.4490  -36.3770   23.9010 C   0  0  0  0  0  3  0  0  0  0  0  0
  -27.5900  -37.2620   24.7190 C   0  0  0  0  0  1  0  0  0  0  0  0
  -26.4860  -37.4260   23.7770 N   0  0  0  0  0  0  0  0  0  0  0  0
  -26.0860  -38.3490   23.9160 H   0  0  0  0  0  0  0  0  0  0  0  0
  -28.9060  -16.1660   18.7560 C   0  0  0  0  0  1  0  0  0  0  0  0
  -30.1350  -16.3990   19.6500 C   0  0  2  0  0  0  0  0  0  0  0  0
  -30.5910  -14.9570   20.3820 C   0  0  0  0  0  0  0  0  0  0  0  0
  -30.3940  -12.5970   19.5480 C   0  0  0  0  0  2  0  0  0  0  0  0
  -29.4780  -12.4470   18.3160 C   0  0  0  0  0  2  0  0  0  0  0  0
  -28.0140  -12.2510   18.7520 C   0  0  0  0  0  2  0  0  0  0  0  0
  -27.5690  -13.2290   19.8630 C   0  0  0  0  0  3  0  0  0  0  0  0
  -28.6200  -13.4020   20.9790 C   0  0  0  0  0  2  0  0  0  0  0  0
  -29.9030  -13.7480   20.3480 N   0  0  0  0  0  0  0  0  0  0  0  0
  -31.8040  -14.8480   20.5620 O   0  0  0  0  0  0  0  0  0  0  0  0
  -25.1940  -13.8350   20.5770 C   0  0  0  0  0  0  0  0  0  0  0  0
  -24.1170  -13.0600   20.9250 C   0  0  0  0  0  0  0  0  0  0  0  0
  -24.5840  -11.7150   20.9200 C   0  0  0  0  0  0  0  0  0  0  0  0
  -26.2370  -12.9480   20.3670 N   0  0  0  0  0  0  0  0  0  0  0  0
  -25.8800  -11.6700   20.6460 N   0  0  0  0  0  0  0  0  0  0  0  0
  -23.8570  -10.4530   21.0940 C   0  0  0  0  0  0  0  0  0  0  0  0
  -24.2840   -9.4880   22.0320 C   0  0  0  0  0  3  0  0  0  0  0  0
  -23.5620   -8.2870   22.1930 C   0  0  0  0  0  3  0  0  0  0  0  0
  -22.4010   -8.0460   21.4190 C   0  0  0  0  0  0  0  0  0  0  0  0
  -21.9970   -9.0030   20.4720 C   0  0  0  0  0  3  0  0  0  0  0  0
  -22.7190  -10.1960   20.3060 C   0  0  0  0  0  3  0  0  0  0  0  0
  -21.6460   -6.9030   21.4990 O   0  0  0  0  0  0  0  0  0  0  0  0
  -21.5970   -6.1540   22.6480 C   0  0  0  0  0  0  0  0  0  0  0  0
  -21.1660   -6.6990   23.8780 C   0  0  0  0  0  3  0  0  0  0  0  0
  -21.0610   -5.8750   25.0140 C   0  0  0  0  0  3  0  0  0  0  0  0
  -21.3820   -4.5060   24.9270 C   0  0  0  0  0  0  0  0  0  0  0  0
  -21.8080   -3.9610   23.7030 C   0  0  0  0  0  3  0  0  0  0  0  0
  -21.9140   -4.7830   22.5680 C   0  0  0  0  0  0  0  0  0  0  0  0
  -22.3030   -4.2460   21.3870 F   0  0  0  0  0  0  0  0  0  0  0  0
  -21.2750   -3.7120   26.0200 F   0  0  0  0  0  0  0  0  0  0  0  0
  -22.7120  -13.5390   21.1470 C   0  0  0  0  0  0  0  0  0  0  0  0
  -21.9590  -12.8460   21.9960 N   0  0  0  0  0  0  0  0  0  0  0  0
  -22.2860  -14.5590   20.6050 O   0  0  0  0  0  0  0  0  0  0  0  0
  -22.3120  -12.0190   22.4560 H   0  0  0  0  0  0  0  0  0  0  0  0
  -21.0130  -13.1440   22.1860 H   0  0  0  0  0  0  0  0  0  0  0  0
  -25.3510  -15.2020   20.3920 N   0  0  0  0  0  0  0  0  0  0  0  0
  -24.5680  -15.8430   20.4690 H   0  0  0  0  0  0  0  0  0  0  0  0
  -26.2210  -15.6610   20.1450 H   0  0  0  0  0  0  0  0  0  0  0  0
  -31.2480  -17.8630   17.6550 C   0  0  0  0  0  1  0  0  0  0  0  0
  -31.2820  -16.6150   18.5780 C   0  0  0  0  0  2  0  0  0  0  0  0
  2  1  2  0
  3  4  2  0
  4  1  1  0
  5  6  2  0
  5  2  1  0
  6  3  1  0
  7  6  1  0
  8 10  1  0
  8  9  1  0
  9  4  1  0
 10 11  1  0
 10  9  1  0
 11 12  1  0
 13 24  2  0
 14 12  1  0
 14 19  1  0
 15 23  1  0
 15 25  1  0
 16 22  1  0
 16 18  1  0
 17 23  1  0
 18 17  1  0
 19 18  2  0
 20 21  1  0
 20 14  2  0
 21 16  2  0
 22 15  1  0
 23 13  1  0
 25 27  2  0
 26 25  1  0
 28 26  1  0
 29 38  2  0
 29 34  1  0
 30 26  1  0
 30 34  1  0
 31 30  1  0
 32 33  1  0
 32 31  1  0
 33 29  1  0
 34 35  2  0
 35 36  1  0
 37 36  2  0
 38 37  1  0
 39 13  1  0
 39 44  1  0
 39 40  1  0
 40 43  1  1
 40 41  1  0
 42 40  1  0
 44 47  1  0
 45 49  1  0
 45 44  1  0
 46 45  2  0
 49 48  1  0
 51 49  1  0
 51 52  1  0
 51 50  1  0
 54 53  1  6
 54  5  1  0
 54 55  1  0
 55 62  2  0
 56 61  1  0
 57 58  1  0
 57 56  1  0
 59 58  1  0
 59 66  1  0
 59 60  1  0
 61 55  1  0
 61 60  1  0
 63 64  2  0
 64 83  1  0
 65 64  1  0
 65 68  1  0
 66 63  1  0
 66 67  1  0
 67 65  2  0
 68 69  1  0
 69 70  2  0
 71 74  1  0
 71 70  1  0
 72 71  2  0
 73 72  1  0
 73 68  2  0
 74 75  1  0
 75 76  1  0
 76 77  2  0
 78 77  1  0
 78 82  1  0
 79 78  2  0
 80 75  2  0
 80 79  1  0
 81 80  1  0
 83 84  1  0
 84 87  1  0
 84 86  1  0
 85 83  2  0
 88 89  1  0
 88 63  1  0
 90 88  1  0
 91 92  1  0
 92 54  1  0
M  ISO  4  11 101  12 101  54 100  55 100
M  END
>  <TORSDO>  (56) 
F 20

>  <SCORE>  (56) 
-13.947

>  <name>  (56) 
55

>  <ligand_id>  (56) 
55

>  <original_smiles>  (56) 
[H]c1c([H])c([H])c2c(c1[H])C([H])([H])C([H])([H])C([H])([H])C2([H])N([H])C(=O)C1([H])N(C(=O)C([H])(N([H])C(=O)C([H])(N([H])C([H])([H])[H])C([H])([H])[H])C(C([H])([H])[H])(C([H])([H])[H])C([H])([H])[H])C([H])([H])c2c([H])c(OC([H])([H])C3([H])C([H])([H])C3([H])c3c([H])c([H])c(C(C(=O)N4C([H])([H])C([H])([H])C([H])([H])C([H])(n5nc(-c6c([H])c([H])c(Oc7c([H])c([H])c(F)c([H])c7F)c([H])c6[H])c(C(=O)N([H])[H])c5N([H])[H])C4([H])[H])(C([H])([H])[H])C([H])([H])C([H])([H])[H])c(F)c3[H])c([H])c([H])c2C1([H])[H]

>  <smiles>  (56) 
[H]c1c([H])c([H])c2c(c1[H])C([H])([H])C([H])([H])C([H])([H])C2([H])N([H])C(=O)C1([H])N(C(=O)C([H])(N([H])C(=O)C([H])(N([H])C([H])([H])[H])C([H])([H])[H])C(C([H])([H])[H])(C([H])([H])[H])C([H])([H])[H])C([H])([H])c2c([H])c(OC([H])([H])C3([H])C([H])([H])C3([H])c3c([H])c([H])c(C(C(=O)N4C([H])([H])C([H])([H])C([H])([H])C([H])(n5nc(-c6c([H])c([H])c(Oc7c([H])c([H])c(F)c([H])c7F)c([H])c6[H])c(C(=O)N([H])[H])c5N([H])[H])C4([H])[H])(C([H])([H])[H])C([H])([H])C([H])([H])[H])c(F)c3[H])c([H])c([H])c2C1([H])[H]

$$$$
56:0:0
     RDKit          3D

 97104  0  0  1  0  0  0  0  0999 V2000
  -28.7130  -20.0710   19.4750 C   0  0  0  0  0  2  0  0  0  0  0  0
  -28.7430  -18.4320   21.5130 C   0  0  0  0  0  1  0  0  0  0  0  0
  -28.5130  -18.6170   20.0010 C   0  0  0  0  0  3  0  0  0  0  0  0
  -29.1830  -17.4960   19.1570 C   0  0  0  0  0  2  0  0  0  0  0  0
  -30.6890  -17.1620   19.4000 C   0  0  0  0  0  3  0  0  0  0  0  0
  -31.4290  -14.6760   19.4130 C   0  0  0  0  0  0  0  0  0  0  0  0
  -31.1710  -12.2730   18.9540 C   0  0  0  0  0  2  0  0  0  0  0  0
  -30.2030  -12.1020   17.7660 C   0  0  0  0  0  2  0  0  0  0  0  0
  -28.7480  -12.0300   18.2660 C   0  0  0  0  0  2  0  0  0  0  0  0
  -28.3970  -13.1780   19.2480 C   0  0  0  0  0  3  0  0  0  0  0  0
  -29.4830  -13.3520   20.3380 C   0  0  0  0  0  2  0  0  0  0  0  0
  -30.7940  -13.4990   19.6700 N   0  0  0  0  0  0  0  0  0  0  0  0
  -32.4710  -14.7530   18.7620 O   0  0  0  0  0  0  0  0  0  0  0  0
  -30.7650  -15.7540   19.8430 N   0  0  0  0  0  0  0  0  0  0  0  0
  -29.9930  -15.4790   20.4300 H   0  0  0  0  0  0  0  0  0  0  0  0
  -26.0970  -13.9350   20.1180 C   0  0  0  0  0  0  0  0  0  0  0  0
  -25.0100  -13.2310   20.5670 C   0  0  0  0  0  0  0  0  0  0  0  0
  -25.3860  -11.8560   20.5210 C   0  0  0  0  0  0  0  0  0  0  0  0
  -27.0670  -12.9900   19.8260 N   0  0  0  0  0  0  0  0  0  0  0  0
  -26.6440  -11.7340   20.1190 N   0  0  0  0  0  0  0  0  0  0  0  0
  -24.5980  -10.6430   20.7780 C   0  0  0  0  0  0  0  0  0  0  0  0
  -24.8920   -9.7890   21.8650 C   0  0  0  0  0  3  0  0  0  0  0  0
  -24.1060   -8.6400   22.1040 C   0  0  0  0  0  3  0  0  0  0  0  0
  -23.0170   -8.3360   21.2520 C   0  0  0  0  0  0  0  0  0  0  0  0
  -22.7430   -9.1770   20.1580 C   0  0  0  0  0  3  0  0  0  0  0  0
  -23.5300  -10.3180   19.9190 C   0  0  0  0  0  3  0  0  0  0  0  0
  -22.2150   -7.2290   21.3910 O   0  0  0  0  0  0  0  0  0  0  0  0
  -21.8240   -6.7730   22.6250 C   0  0  0  0  0  0  0  0  0  0  0  0
  -21.0530   -7.5670   23.5020 C   0  0  0  0  0  3  0  0  0  0  0  0
  -20.6120   -7.0350   24.7300 C   0  0  0  0  0  3  0  0  0  0  0  0
  -20.9350   -5.7090   25.0810 C   0  0  0  0  0  0  0  0  0  0  0  0
  -21.7020   -4.9180   24.2080 C   0  0  0  0  0  3  0  0  0  0  0  0
  -22.1440   -5.4480   22.9840 C   0  0  0  0  0  0  0  0  0  0  0  0
  -22.8600   -4.6710   22.1350 F   0  0  0  0  0  0  0  0  0  0  0  0
  -20.5100   -5.1960   26.2590 F   0  0  0  0  0  0  0  0  0  0  0  0
  -23.6740  -13.8010   20.9430 C   0  0  0  0  0  0  0  0  0  0  0  0
  -22.9890  -13.1640   21.8870 N   0  0  0  0  0  0  0  0  0  0  0  0
  -23.2510  -14.8370   20.4310 O   0  0  0  0  0  0  0  0  0  0  0  0
  -23.3530  -12.3220   22.3070 H   0  0  0  0  0  0  0  0  0  0  0  0
  -22.0880  -13.5130   22.1840 H   0  0  0  0  0  0  0  0  0  0  0  0
  -26.3260  -15.2910   19.9280 N   0  0  0  0  0  0  0  0  0  0  0  0
  -25.5990  -15.9770   20.0950 H   0  0  0  0  0  0  0  0  0  0  0  0
  -27.1860  -15.7000   19.5900 H   0  0  0  0  0  0  0  0  0  0  0  0
  -31.6370  -17.6280   18.2460 C   0  0  0  0  0  2  0  0  0  0  0  0
  -31.8320  -19.1600   18.1410 C   0  0  0  0  0  2  0  0  0  0  0  0
  -32.3510  -19.7760   19.3770 N   0  0  0  0  0  4  0  0  0  0  0  0
  -31.6940  -19.7110   20.1300 H   0  0  0  0  0  0  0  0  0  0  0  0
  -32.5320  -20.7510   19.2110 H   0  0  0  0  0  0  0  0  0  0  0  0
  -33.2140  -19.3480   19.6650 H   0  0  0  0  0  0  0  0  0  0  0  0
  -27.8690  -21.1200   20.2540 C   0  0  0  0  0  2  0  0  0  0  0  0
  -27.7870  -22.4680   19.6340 N   0  0  0  0  0  4  0  0  0  0  0  0
  -28.7000  -22.7550   19.3180 H   0  0  0  0  0  0  0  0  0  0  0  0
  -27.1860  -22.4050   18.8270 H   0  0  0  0  0  0  0  0  0  0  0  0
  -27.2310  -23.5250   20.5170 C   0  0  0  0  0  2  0  0  0  0  0  0
  -28.2150  -24.6840   20.7760 C   0  0  0  0  0  2  0  0  0  0  0  0
  -28.6360  -25.4940   19.5310 C   0  0  0  0  0  2  0  0  0  0  0  0
  -28.5520  -26.8880   19.7960 O   0  0  0  0  0  0  0  0  0  0  0  0
  -24.5780  -31.7280   23.1140 C   0  0  0  0  0  0  0  0  0  0  0  0
  -27.3160  -27.4930   19.8430 C   0  0  0  0  0  0  0  0  0  0  0  0
  -23.3840  -30.3350   21.4560 C   0  0  0  0  0  3  0  0  0  0  0  0
  -24.8540  -28.8850   19.9640 C   0  0  0  0  0  0  0  0  0  0  0  0
  -25.8870  -30.7840   21.2210 C   0  0  0  0  0  2  0  0  0  0  0  0
  -26.0020  -29.4380   20.5390 C   0  0  0  0  0  0  0  0  0  0  0  0
  -27.2310  -28.7520   20.4710 C   0  0  0  0  0  3  0  0  0  0  0  0
  -26.1400  -26.9350   19.2840 C   0  0  0  0  0  3  0  0  0  0  0  0
  -24.9130  -27.6250   19.3420 C   0  0  0  0  0  3  0  0  0  0  0  0
  -23.5930  -29.7110   20.0490 C   0  0  0  0  0  2  0  0  0  0  0  0
  -24.6350  -30.9580   21.9930 N   0  0  0  0  0  0  0  0  0  0  0  0
  -23.5010  -31.9550   23.6810 O   0  0  0  0  0  0  0  0  0  0  0  0
  -22.7830  -29.2630   22.3910 C   0  0  0  0  0  0  0  0  0  0  0  0
  -21.4710  -29.0170   22.2470 N   0  0  0  0  0  0  0  0  0  0  0  0
  -23.4870  -28.6600   23.2020 O   0  0  0  0  0  0  0  0  0  0  0  0
  -20.9640  -29.5490   21.5540 H   0  0  0  0  0  0  0  0  0  0  0  0
  -18.1440  -27.6900   22.7030 C   0  0  0  0  0  0  0  0  0  0  0  0
  -20.6880  -28.0360   22.9930 C   0  0  0  0  0  3  0  0  0  0  0  0
  -20.8520  -26.6190   22.3980 C   0  0  0  0  0  2  0  0  0  0  0  0
  -19.7600  -26.2430   21.3900 C   0  0  0  0  0  2  0  0  0  0  0  0
  -18.3700  -26.3540   22.0200 C   0  0  0  0  0  2  0  0  0  0  0  0
  -19.2310  -28.4840   23.1510 C   0  0  0  0  0  0  0  0  0  0  0  0
  -18.9640  -29.7260   23.7630 C   0  0  0  0  0  3  0  0  0  0  0  0
  -17.6380  -30.1720   23.9380 C   0  0  0  0  0  3  0  0  0  0  0  0
  -16.5660  -29.3720   23.5100 C   0  0  0  0  0  3  0  0  0  0  0  0
  -16.8200  -28.1340   22.8940 C   0  0  0  0  0  3  0  0  0  0  0  0
  -25.8600  -32.3760   23.7280 C   0  0  0  0  0  3  0  0  0  0  0  0
  -25.5260  -33.7590   24.0980 N   0  0  0  0  0  0  0  0  0  0  0  0
  -25.8170  -34.8360   23.3580 C   0  0  0  0  0  0  0  0  0  0  0  0
  -26.4730  -34.7750   22.3140 O   0  0  0  0  0  0  0  0  0  0  0  0
  -24.9470  -33.8780   24.9150 H   0  0  0  0  0  0  0  0  0  0  0  0
  -24.0490  -36.5950   23.0620 C   0  0  0  0  0  1  0  0  0  0  0  0
  -25.3040  -36.1990   23.8550 C   0  0  0  0  0  3  0  0  0  0  0  0
  -27.4160  -37.1200   24.7040 C   0  0  0  0  0  1  0  0  0  0  0  0
  -26.3110  -37.2770   23.7620 N   0  0  0  0  0  0  0  0  0  0  0  0
  -25.8830  -38.1850   23.9300 H   0  0  0  0  0  0  0  0  0  0  0  0
  -26.4180  -31.5880   24.9740 C   0  0  1  0  0  0  0  0  0  0  0  0
  -25.3430  -31.2640   26.0370 C   0  0  0  0  0  1  0  0  0  0  0  0
  -27.0620  -30.2570   24.5270 C   0  0  0  0  0  1  0  0  0  0  0  0
  -27.5330  -32.4080   25.6610 C   0  0  0  0  0  1  0  0  0  0  0  0
  1  3  1  0
  1 50  1  0
  3  2  1  0
  4  5  1  0
  4  3  1  0
  5 44  1  0
  5 14  1  0
  6 12  1  0
  6 14  1  0
  7 12  1  0
  8  9  1  0
  8  7  1  0
 10  9  1  0
 10 19  1  0
 10 11  1  0
 12 11  1  0
 13  6  2  0
 14 15  1  0
 16 17  2  0
 17 36  1  0
 18 17  1  0
 18 21  1  0
 19 16  1  0
 19 20  1  0
 20 18  2  0
 21 22  1  0
 22 23  2  0
 24 27  1  0
 24 23  1  0
 25 24  2  0
 26 25  1  0
 26 21  2  0
 27 28  1  0
 28 33  2  0
 28 29  1  0
 29 30  2  0
 30 31  1  0
 31 35  1  0
 32 31  2  0
 33 32  1  0
 34 33  1  0
 36 37  1  0
 37 40  1  0
 37 39  1  0
 38 36  2  0
 41 42  1  0
 41 16  1  0
 43 41  1  0
 45 44  1  0
 45 46  1  0
 46 49  1  0
 46 47  1  0
 48 46  1  0
 51 50  1  0
 51 54  1  0
 52 51  1  0
 53 51  1  0
 54 55  1  0
 56 57  1  0
 56 55  1  0
 57 59  1  0
 58 69  2  0
 59 64  1  0
 60 68  1  0
 60 70  1  0
 61 67  1  0
 61 63  1  0
 62 68  1  0
 63 62  1  0
 64 63  2  0
 65 66  1  0
 65 59  2  0
 66 61  2  0
 67 60  1  0
 68 58  1  0
 70 72  2  0
 71 70  1  0
 73 71  1  0
 74 83  2  0
 74 79  1  0
 75 71  1  0
 75 79  1  0
 76 75  1  0
 77 78  1  0
 77 76  1  0
 78 74  1  0
 79 80  2  0
 80 81  1  0
 82 81  2  0
 83 82  1  0
 84 58  1  0
 84 85  1  0
 84 94  1  0
 85 88  1  0
 86 90  1  0
 86 85  1  0
 87 86  2  0
 90 89  1  0
 92 90  1  0
 92 93  1  0
 92 91  1  0
 94 97  1  1
 94 95  1  0
 96 94  1  0
M  ISO  4   6 100  14 100  56 101  57 101
M  END
>  <TORSDO>  (57) 
F 27

>  <SCORE>  (57) 
-9.366

>  <name>  (57) 
56

>  <ligand_id>  (57) 
56

>  <original_smiles>  (57) 
[H]c1c([H])c([H])c2c(c1[H])C([H])([H])C([H])([H])C([H])([H])C2([H])N([H])C(=O)C1([H])N(C(=O)C([H])(N([H])C(=O)C([H])(N([H])C([H])([H])[H])C([H])([H])[H])C(C([H])([H])[H])(C([H])([H])[H])C([H])([H])[H])C([H])([H])c2c([H])c(OC([H])([H])C([H])([H])C([H])([H])[N+]([H])([H])C([H])([H])C([H])([H])C([H])(C([H])([H])[H])C([H])([H])C([H])(N([H])C(=O)N3C([H])([H])C([H])([H])C([H])([H])C([H])(n4nc(-c5c([H])c([H])c(Oc6c([H])c([H])c(F)c([H])c6F)c([H])c5[H])c(C(=O)N([H])[H])c4N([H])[H])C3([H])[H])C([H])([H])C([H])([H])[N+]([H])([H])[H])c([H])c([H])c2C1([H])[H]

>  <smiles>  (57) 
[H]c1c([H])c([H])c2c(c1[H])C([H])([H])C([H])([H])C([H])([H])C2([H])N([H])C(=O)C1([H])N(C(=O)C([H])(N([H])C(=O)C([H])(N([H])C([H])([H])[H])C([H])([H])[H])C(C([H])([H])[H])(C([H])([H])[H])C([H])([H])[H])C([H])([H])c2c([H])c(OC([H])([H])C([H])([H])C([H])([H])[N+]([H])([H])C([H])([H])C([H])([H])C([H])(C([H])([H])[H])C([H])([H])C([H])(N([H])C(=O)N3C([H])([H])C([H])([H])C([H])([H])C([H])(n4nc(-c5c([H])c([H])c(Oc6c([H])c([H])c(F)c([H])c6F)c([H])c5[H])c(C(=O)N([H])[H])c4N([H])[H])C3([H])[H])C([H])([H])C([H])([H])[N+]([H])([H])[H])c([H])c([H])c2C1([H])[H]

$$$$
57:0:0
     RDKit          3D

 88 96  0  0  1  0  0  0  0  0999 V2000
  -30.3290  -15.7590   20.2520 C   0  0  0  0  0  0  0  0  0  0  0  0
  -30.4150  -13.1680   19.5360 C   0  0  0  0  0  2  0  0  0  0  0  0
  -29.5680  -12.6710   18.3290 C   0  0  0  0  0  2  0  0  0  0  0  0
  -28.1430  -12.3210   18.7740 C   0  0  0  0  0  2  0  0  0  0  0  0
  -27.5930  -13.3770   19.7590 C   0  0  0  0  0  3  0  0  0  0  0  0
  -28.5880  -13.7870   20.8730 C   0  0  0  0  0  2  0  0  0  0  0  0
  -29.7630  -14.3990   20.2030 N   0  0  0  0  0  0  0  0  0  0  0  0
  -31.5610  -15.6110   20.1050 O   0  0  0  0  0  0  0  0  0  0  0  0
  -28.2630  -20.9060   21.2470 C   0  0  0  0  0  2  0  0  0  0  0  0
  -28.4290  -17.9090   20.7200 C   0  0  0  0  0  2  0  0  0  0  0  0
  -30.2530  -18.7170   19.7050 C   0  0  0  0  0  3  0  0  0  0  0  0
  -28.1570  -19.5560   20.3670 C   0  0  0  0  0  3  0  0  0  0  0  0
  -29.2250  -20.1810   19.5270 C   0  0  0  0  0  3  0  0  0  0  0  0
  -28.9380  -21.9150   20.1850 C   0  0  0  0  0  2  0  0  0  0  0  0
  -29.6990  -17.2140   20.1500 N   0  0  0  0  0  0  0  0  0  0  0  0
  -25.2230  -13.9310   20.4680 C   0  0  0  0  0  0  0  0  0  0  0  0
  -24.1510  -13.1630   20.8230 C   0  0  0  0  0  0  0  0  0  0  0  0
  -24.6130  -11.8100   20.8250 C   0  0  0  0  0  0  0  0  0  0  0  0
  -26.2680  -13.0500   20.2610 N   0  0  0  0  0  0  0  0  0  0  0  0
  -25.9140  -11.7670   20.5430 N   0  0  0  0  0  0  0  0  0  0  0  0
  -23.8700  -10.5560   21.0170 C   0  0  0  0  0  0  0  0  0  0  0  0
  -24.2790   -9.5910   21.9640 C   0  0  0  0  0  3  0  0  0  0  0  0
  -23.5320   -8.4060   22.1460 C   0  0  0  0  0  3  0  0  0  0  0  0
  -22.3630   -8.1780   21.3820 C   0  0  0  0  0  0  0  0  0  0  0  0
  -21.9740   -9.1310   20.4230 C   0  0  0  0  0  3  0  0  0  0  0  0
  -22.7200  -10.3080   20.2400 C   0  0  0  0  0  3  0  0  0  0  0  0
  -21.5900   -7.0450   21.4740 O   0  0  0  0  0  0  0  0  0  0  0  0
  -21.5280   -6.3070   22.6280 C   0  0  0  0  0  0  0  0  0  0  0  0
  -21.1310   -6.8750   23.8580 C   0  0  0  0  0  3  0  0  0  0  0  0
  -21.0160   -6.0650   25.0040 C   0  0  0  0  0  3  0  0  0  0  0  0
  -21.2880   -4.6870   24.9230 C   0  0  0  0  0  0  0  0  0  0  0  0
  -21.6790   -4.1160   23.6990 C   0  0  0  0  0  3  0  0  0  0  0  0
  -21.7960   -4.9240   22.5540 C   0  0  0  0  0  0  0  0  0  0  0  0
  -22.1520   -4.3660   21.3730 F   0  0  0  0  0  0  0  0  0  0  0  0
  -21.1700   -3.9060   26.0230 F   0  0  0  0  0  0  0  0  0  0  0  0
  -22.7510  -13.6540   21.0460 C   0  0  0  0  0  0  0  0  0  0  0  0
  -21.9980  -12.9890   21.9130 N   0  0  0  0  0  0  0  0  0  0  0  0
  -22.3360  -14.6670   20.4830 O   0  0  0  0  0  0  0  0  0  0  0  0
  -22.3470  -12.1700   22.3900 H   0  0  0  0  0  0  0  0  0  0  0  0
  -21.0580  -13.3030   22.1060 H   0  0  0  0  0  0  0  0  0  0  0  0
  -25.3950  -15.2970   20.2690 N   0  0  0  0  0  0  0  0  0  0  0  0
  -24.6260  -15.9540   20.3480 H   0  0  0  0  0  0  0  0  0  0  0  0
  -26.2500  -15.7190   19.9320 H   0  0  0  0  0  0  0  0  0  0  0  0
  -31.5390  -19.0580   20.4700 C   0  0  0  0  0  0  0  0  0  0  0  0
  -32.4590  -20.0930   19.8370 C   0  0  0  0  0  1  0  0  0  0  0  0
  -31.8360  -18.5600   21.5580 O   0  0  0  0  0  0  0  0  0  0  0  0
  -28.1660  -23.6900   19.7150 C   0  0  0  0  0  1  0  0  0  0  0  0
  -28.2630  -25.4590   19.9780 O   0  0  0  0  0  0  0  0  0  0  0  0
  -24.7180  -31.7330   22.9900 C   0  0  0  0  0  0  0  0  0  0  0  0
  -27.2830  -26.6840   19.9200 C   0  0  0  0  0  0  0  0  0  0  0  0
  -23.5330  -30.3330   21.3540 C   0  0  0  0  0  3  0  0  0  0  0  0
  -24.9890  -28.7150   19.9030 C   0  0  0  0  0  0  0  0  0  0  0  0
  -26.1080  -30.5020   21.2080 C   0  0  0  0  0  2  0  0  0  0  0  0
  -26.1860  -29.0720   20.5350 C   0  0  0  0  0  0  0  0  0  0  0  0
  -27.3120  -28.0860   20.5110 C   0  0  0  0  0  3  0  0  0  0  0  0
  -26.0490  -26.5510   19.2310 C   0  0  0  0  0  3  0  0  0  0  0  0
  -24.9620  -27.4810   19.2270 C   0  0  0  0  0  3  0  0  0  0  0  0
  -23.7680  -29.6520   19.9740 C   0  0  0  0  0  2  0  0  0  0  0  0
  -24.8100  -30.8900   21.9040 N   0  0  0  0  0  0  0  0  0  0  0  0
  -23.6270  -32.0140   23.5140 O   0  0  0  0  0  0  0  0  0  0  0  0
  -22.8400  -29.3380   22.3250 C   0  0  0  0  0  0  0  0  0  0  0  0
  -21.5030  -29.1930   22.2380 N   0  0  0  0  0  0  0  0  0  0  0  0
  -23.5160  -28.6960   23.1310 O   0  0  0  0  0  0  0  0  0  0  0  0
  -21.0060  -29.7660   21.5690 H   0  0  0  0  0  0  0  0  0  0  0  0
  -18.1240  -27.9930   22.8410 C   0  0  0  0  0  0  0  0  0  0  0  0
  -20.6950  -28.2410   23.0120 C   0  0  0  0  0  3  0  0  0  0  0  0
  -20.7640  -26.8250   22.3950 C   0  0  0  0  0  2  0  0  0  0  0  0
  -19.6230  -26.5370   21.4130 C   0  0  0  0  0  2  0  0  0  0  0  0
  -18.2670  -26.6660   22.1120 C   0  0  0  0  0  2  0  0  0  0  0  0
  -19.2620  -28.7390   23.2480 C   0  0  0  0  0  0  0  0  0  0  0  0
  -19.0700  -29.9790   23.8970 C   0  0  0  0  0  3  0  0  0  0  0  0
  -17.7750  -30.4730   24.1370 C   0  0  0  0  0  3  0  0  0  0  0  0
  -16.6530  -29.7240   23.7420 C   0  0  0  0  0  3  0  0  0  0  0  0
  -16.8270  -28.4850   23.1000 C   0  0  0  0  0  3  0  0  0  0  0  0
  -25.9780  -32.3970   23.6250 C   0  0  0  0  0  3  0  0  0  0  0  0
  -25.6210  -33.7720   24.0340 N   0  0  0  0  0  0  0  0  0  0  0  0
  -25.8980  -34.8830   23.3390 C   0  0  0  0  0  0  0  0  0  0  0  0
  -26.5400  -34.8620   22.2860 O   0  0  0  0  0  0  0  0  0  0  0  0
  -25.0440  -33.8570   24.8580 H   0  0  0  0  0  0  0  0  0  0  0  0
  -24.1040  -36.6440   23.1620 C   0  0  0  0  0  1  0  0  0  0  0  0
  -25.3900  -36.2300   23.8960 C   0  0  0  0  0  3  0  0  0  0  0  0
  -27.5310  -37.1430   24.6850 C   0  0  0  0  0  1  0  0  0  0  0  0
  -26.3850  -37.3220   23.7990 N   0  0  0  0  0  0  0  0  0  0  0  0
  -25.9560  -38.2180   24.0140 H   0  0  0  0  0  0  0  0  0  0  0  0
  -26.5350  -31.6010   24.8710 C   0  0  1  0  0  0  0  0  0  0  0  0
  -25.4670  -31.3070   25.9520 C   0  0  0  0  0  1  0  0  0  0  0  0
  -27.1420  -30.2490   24.4390 C   0  0  0  0  0  1  0  0  0  0  0  0
  -27.6800  -32.4020   25.5350 C   0  0  0  0  0  1  0  0  0  0  0  0
  2  7  1  0
  3  4  1  0
  3  2  1  0
  5  4  1  0
  5 19  1  0
  5  6  1  0
  7  1  1  0
  7  6  1  0
  8  1  2  0
 11 15  1  0
 11 44  1  0
 12 10  1  0
 12  9  1  0
 13 11  1  0
 13 14  1  0
 13 12  1  0
 14  9  1  0
 15  1  1  0
 15 10  1  0
 16 17  2  0
 17 18  1  0
 17 36  1  0
 18 21  1  0
 19 16  1  0
 19 20  1  0
 20 18  2  0
 21 22  1  0
 22 23  2  0
 24 27  1  0
 24 23  1  0
 25 24  2  0
 26 25  1  0
 26 21  2  0
 27 28  1  0
 28 29  1  0
 29 30  2  0
 31 30  1  0
 31 35  1  0
 32 31  2  0
 33 28  2  0
 33 32  1  0
 34 33  1  0
 36 37  1  0
 37 40  1  0
 37 39  1  0
 38 36  2  0
 41 42  1  0
 41 16  1  0
 43 41  1  0
 44 46  2  0
 45 44  1  0
 47 48  1  0
 49 60  2  0
 50 48  1  0
 50 55  1  0
 51 59  1  0
 51 61  1  0
 52 58  1  0
 52 54  1  0
 53 59  1  0
 54 53  1  0
 55 54  2  0
 56 50  2  0
 57 56  1  0
 57 52  2  0
 58 51  1  0
 59 49  1  0
 61 63  2  0
 62 61  1  0
 64 62  1  0
 65 74  2  0
 65 70  1  0
 66 62  1  0
 66 70  1  0
 67 66  1  0
 68 69  1  0
 68 67  1  0
 69 65  1  0
 70 71  2  0
 71 72  1  0
 73 72  2  0
 74 73  1  0
 75 49  1  0
 75 76  1  0
 75 85  1  0
 76 79  1  0
 77 81  1  0
 77 76  1  0
 78 77  2  0
 81 80  1  0
 83 81  1  0
 83 84  1  0
 83 82  1  0
 85 88  1  1
 85 86  1  0
 87 85  1  0
M  ISO  4   1 100  15 100  47 101  48 101
M  END
>  <TORSDO>  (58) 
F 17

>  <SCORE>  (58) 
-15.632

>  <name>  (58) 
57

>  <ligand_id>  (58) 
57

>  <original_smiles>  (58) 
[H]c1c([H])c([H])c2c(c1[H])C([H])([H])C([H])([H])C([H])([H])C2([H])N([H])C(=O)C1([H])N(C(=O)C([H])(N([H])C(=O)C([H])(N([H])C([H])([H])[H])C([H])([H])[H])C(C([H])([H])[H])(C([H])([H])[H])C([H])([H])[H])C([H])([H])c2c([H])c(OC([H])([H])C3([H])C([H])([H])C4([H])C([H])([H])N(C(=O)N5C([H])([H])C([H])([H])C([H])([H])C([H])(n6nc(-c7c([H])c([H])c(Oc8c([H])c([H])c(F)c([H])c8F)c([H])c7[H])c(C(=O)N([H])[H])c6N([H])[H])C5([H])[H])C([H])(C(=O)C([H])([H])[H])C34[H])c([H])c([H])c2C1([H])[H]

>  <smiles>  (58) 
[H]c1c([H])c([H])c2c(c1[H])C([H])([H])C([H])([H])C([H])([H])C2([H])N([H])C(=O)C1([H])N(C(=O)C([H])(N([H])C(=O)C([H])(N([H])C([H])([H])[H])C([H])([H])[H])C(C([H])([H])[H])(C([H])([H])[H])C([H])([H])[H])C([H])([H])c2c([H])c(OC([H])([H])C3([H])C([H])([H])C4([H])C([H])([H])N(C(=O)N5C([H])([H])C([H])([H])C([H])([H])C([H])(n6nc(-c7c([H])c([H])c(Oc8c([H])c([H])c(F)c([H])c8F)c([H])c7[H])c(C(=O)N([H])[H])c6N([H])[H])C5([H])[H])C([H])(C(=O)C([H])([H])[H])C34[H])c([H])c([H])c2C1([H])[H]

$$$$
58:0:0
     RDKit          3D

 89 98  0  0  1  0  0  0  0  0999 V2000
  -29.3440  -22.7770   21.0130 C   0  0  0  0  0  2  0  0  0  0  0  0
  -28.5860  -23.7330   20.4260 C   0  0  0  0  0  3  0  0  0  0  0  0
  -29.0130  -21.9420   18.8040 C   0  0  0  0  0  2  0  0  0  0  0  0
  -27.5180  -21.5400   20.0960 C   0  0  0  0  0  2  0  0  0  0  0  0
  -27.9020  -22.8730   19.3770 C   0  0  0  0  0  3  0  0  0  0  0  0
  -29.0570  -21.4410   20.2710 C   0  0  2  0  0  0  0  0  0  0  0  0
  -28.1060  -25.1540   20.9580 C   0  0  0  0  0  2  0  0  0  0  0  0
  -28.3360  -26.4370   20.2280 O   0  0  0  0  0  0  0  0  0  0  0  0
  -24.6190  -31.8990   23.2440 C   0  0  0  0  0  0  0  0  0  0  0  0
  -27.2490  -27.3300   20.2020 C   0  0  0  0  0  0  0  0  0  0  0  0
  -23.4240  -30.4930   21.6040 C   0  0  0  0  0  3  0  0  0  0  0  0
  -24.8840  -28.9460   20.1790 C   0  0  0  0  0  0  0  0  0  0  0  0
  -25.9630  -30.8200   21.4210 C   0  0  0  0  0  2  0  0  0  0  0  0
  -26.0520  -29.4380   20.7760 C   0  0  0  0  0  0  0  0  0  0  0  0
  -27.2420  -28.6440   20.7750 C   0  0  0  0  0  3  0  0  0  0  0  0
  -26.0630  -26.8960   19.5790 C   0  0  0  0  0  3  0  0  0  0  0  0
  -24.8920  -27.6800   19.5680 C   0  0  0  0  0  3  0  0  0  0  0  0
  -23.6430  -29.8160   20.2250 C   0  0  0  0  0  2  0  0  0  0  0  0
  -24.6870  -31.0890   22.1460 N   0  0  0  0  0  0  0  0  0  0  0  0
  -23.5340  -32.1710   23.7780 O   0  0  0  0  0  0  0  0  0  0  0  0
  -22.7640  -29.4750   22.5660 C   0  0  0  0  0  0  0  0  0  0  0  0
  -21.4390  -29.2880   22.4360 N   0  0  0  0  0  0  0  0  0  0  0  0
  -23.4440  -28.8560   23.3880 O   0  0  0  0  0  0  0  0  0  0  0  0
  -20.9490  -29.8400   21.7460 H   0  0  0  0  0  0  0  0  0  0  0  0
  -18.0670  -28.0720   22.9320 C   0  0  0  0  0  0  0  0  0  0  0  0
  -20.6230  -28.3470   23.2070 C   0  0  0  0  0  3  0  0  0  0  0  0
  -20.7360  -26.9150   22.6360 C   0  0  0  0  0  2  0  0  0  0  0  0
  -19.6390  -26.5830   21.6190 C   0  0  0  0  0  2  0  0  0  0  0  0
  -18.2550  -26.7220   22.2600 C   0  0  0  0  0  2  0  0  0  0  0  0
  -19.1810  -28.8420   23.3630 C   0  0  0  0  0  0  0  0  0  0  0  0
  -18.9520  -30.1040   23.9520 C   0  0  0  0  0  3  0  0  0  0  0  0
  -17.6440  -30.5970   24.1140 C   0  0  0  0  0  3  0  0  0  0  0  0
  -16.5450  -29.8240   23.7010 C   0  0  0  0  0  3  0  0  0  0  0  0
  -16.7580  -28.5630   23.1140 C   0  0  0  0  0  3  0  0  0  0  0  0
  -25.8980  -32.5390   23.8660 C   0  0  0  0  0  3  0  0  0  0  0  0
  -26.4100  -31.7800   25.1520 C   0  0  1  0  0  0  0  0  0  0  0  0
  -25.3120  -31.5520   26.2170 C   0  0  0  0  0  1  0  0  0  0  0  0
  -26.9950  -30.3980   24.7740 C   0  0  0  0  0  1  0  0  0  0  0  0
  -27.5580  -32.5800   25.8110 C   0  0  0  0  0  1  0  0  0  0  0  0
  -25.5860  -33.9400   24.1840 N   0  0  0  0  0  0  0  0  0  0  0  0
  -25.9200  -34.9880   23.4200 C   0  0  0  0  0  0  0  0  0  0  0  0
  -26.5940  -34.8780   22.3920 O   0  0  0  0  0  0  0  0  0  0  0  0
  -24.9920  -34.0990   24.9850 H   0  0  0  0  0  0  0  0  0  0  0  0
  -24.1970  -36.7800   23.0420 C   0  0  0  0  0  1  0  0  0  0  0  0
  -25.4300  -36.3790   23.8660 C   0  0  0  0  0  3  0  0  0  0  0  0
  -27.5590  -37.2680   24.7110 C   0  0  0  0  0  1  0  0  0  0  0  0
  -26.4640  -37.4310   23.7560 N   0  0  0  0  0  0  0  0  0  0  0  0
  -26.0580  -38.3520   23.8940 H   0  0  0  0  0  0  0  0  0  0  0  0
  -29.8360  -20.0970   20.7220 C   0  0  0  0  0  2  0  0  0  0  0  0
  -29.3440  -18.6050   20.3260 C   0  0  0  0  0  3  0  0  0  0  0  0
  -30.3190  -17.3570   20.6750 C   0  0  0  0  0  3  0  0  0  0  0  0
  -30.5990  -14.7710   20.2970 C   0  0  0  0  0  0  0  0  0  0  0  0
  -30.3690  -12.5150   19.2490 C   0  0  0  0  0  2  0  0  0  0  0  0
  -29.4110  -12.6030   18.0410 C   0  0  0  0  0  2  0  0  0  0  0  0
  -27.9480  -12.4290   18.4930 C   0  0  0  0  0  2  0  0  0  0  0  0
  -27.5950  -13.3060   19.7240 C   0  0  0  0  0  3  0  0  0  0  0  0
  -28.6700  -13.2040   20.8270 C   0  0  0  0  0  2  0  0  0  0  0  0
  -29.9570  -13.5570   20.2160 N   0  0  0  0  0  0  0  0  0  0  0  0
  -31.7830  -14.8660   19.9660 O   0  0  0  0  0  0  0  0  0  0  0  0
  -29.8490  -15.9080   20.5570 N   0  0  0  0  0  0  0  0  0  0  0  0
  -28.8730  -15.7420   20.7480 H   0  0  0  0  0  0  0  0  0  0  0  0
  -25.2150  -13.8900   20.4860 C   0  0  0  0  0  0  0  0  0  0  0  0
  -24.1560  -13.1130   20.8660 C   0  0  0  0  0  0  0  0  0  0  0  0
  -24.6220  -11.7630   20.8240 C   0  0  0  0  0  0  0  0  0  0  0  0
  -26.2580  -13.0140   20.2320 N   0  0  0  0  0  0  0  0  0  0  0  0
  -25.9090  -11.7290   20.5000 N   0  0  0  0  0  0  0  0  0  0  0  0
  -23.9010  -10.4970   21.0170 C   0  0  0  0  0  0  0  0  0  0  0  0
  -24.3420   -9.5300   21.9460 C   0  0  0  0  0  3  0  0  0  0  0  0
  -23.6200   -8.3300   22.1270 C   0  0  0  0  0  3  0  0  0  0  0  0
  -22.4430   -8.0900   21.3790 C   0  0  0  0  0  0  0  0  0  0  0  0
  -22.0200   -9.0470   20.4390 C   0  0  0  0  0  3  0  0  0  0  0  0
  -22.7430  -10.2380   20.2560 C   0  0  0  0  0  3  0  0  0  0  0  0
  -21.6920   -6.9430   21.4700 O   0  0  0  0  0  0  0  0  0  0  0  0
  -21.6490   -6.2000   22.6230 C   0  0  0  0  0  0  0  0  0  0  0  0
  -21.2130   -6.7500   23.8480 C   0  0  0  0  0  3  0  0  0  0  0  0
  -21.1190   -5.9330   24.9920 C   0  0  0  0  0  3  0  0  0  0  0  0
  -21.4500   -4.5670   24.9130 C   0  0  0  0  0  0  0  0  0  0  0  0
  -21.8800   -4.0160   23.6920 C   0  0  0  0  0  3  0  0  0  0  0  0
  -21.9760   -4.8310   22.5500 C   0  0  0  0  0  0  0  0  0  0  0  0
  -22.3700   -4.2900   21.3710 F   0  0  0  0  0  0  0  0  0  0  0  0
  -21.3530   -3.7800   26.0090 F   0  0  0  0  0  0  0  0  0  0  0  0
  -22.7600  -13.5850   21.1540 C   0  0  0  0  0  0  0  0  0  0  0  0
  -22.0430  -12.8810   22.0220 N   0  0  0  0  0  0  0  0  0  0  0  0
  -22.3160  -14.6140   20.6450 O   0  0  0  0  0  0  0  0  0  0  0  0
  -22.4150  -12.0480   22.4540 H   0  0  0  0  0  0  0  0  0  0  0  0
  -21.1060  -13.1780   22.2580 H   0  0  0  0  0  0  0  0  0  0  0  0
  -25.3740  -15.2630   20.3100 N   0  0  0  0  0  0  0  0  0  0  0  0
  -24.6030  -15.9110   20.4310 H   0  0  0  0  0  0  0  0  0  0  0  0
  -26.2080  -15.7050   19.9480 H   0  0  0  0  0  0  0  0  0  0  0  0
  2  7  1  0
  2  1  1  0
  3  6  1  0
  4  6  1  0
  5  3  1  0
  5  4  1  0
  5  2  1  0
  6 49  1  6
  6  1  1  0
  8  7  1  0
  9 20  2  0
 10  8  1  0
 10 15  1  0
 11 19  1  0
 11 21  1  0
 12 18  1  0
 12 14  1  0
 13 19  1  0
 14 13  1  0
 15 14  2  0
 16 10  2  0
 17 16  1  0
 17 12  2  0
 18 11  1  0
 19  9  1  0
 21 23  2  0
 22 21  1  0
 24 22  1  0
 25 34  2  0
 25 30  1  0
 26 22  1  0
 26 30  1  0
 27 26  1  0
 28 29  1  0
 28 27  1  0
 29 25  1  0
 30 31  2  0
 31 32  1  0
 33 32  2  0
 34 33  1  0
 35  9  1  0
 35 40  1  0
 35 36  1  0
 36 39  1  1
 36 37  1  0
 38 36  1  0
 40 43  1  0
 41 45  1  0
 41 40  1  0
 42 41  2  0
 45 44  1  0
 47 45  1  0
 47 48  1  0
 47 46  1  0
 50 51  2  0
 50 49  1  0
 52 60  1  0
 53 58  1  0
 54 55  1  0
 54 53  1  0
 56 55  1  0
 56 65  1  0
 56 57  1  0
 58 52  1  0
 58 57  1  0
 59 52  2  0
 60 51  1  0
 60 61  1  0
 62 63  2  0
 63 82  1  0
 64 63  1  0
 64 67  1  0
 65 62  1  0
 65 66  1  0
 66 64  2  0
 67 68  1  0
 68 69  2  0
 70 73  1  0
 70 69  1  0
 71 70  2  0
 72 71  1  0
 72 67  2  0
 73 74  1  0
 74 75  1  0
 75 76  2  0
 77 76  1  0
 77 81  1  0
 78 77  2  0
 79 74  2  0
 79 78  1  0
 80 79  1  0
 82 83  1  0
 83 86  1  0
 83 85  1  0
 84 82  2  0
 87 88  1  0
 87 62  1  0
 89 87  1  0
M  ISO  4   7 101   8 101  52 100  60 100
M  END
>  <TORSDO>  (59) 
F 20

>  <SCORE>  (59) 
-13.715

>  <name>  (59) 
58

>  <ligand_id>  (59) 
58

>  <original_smiles>  (59) 
[H]C1=C(C([H])([H])Oc2c([H])c([H])c3c(c2[H])C([H])([H])N(C(=O)C([H])(N([H])C(=O)C([H])(N([H])C([H])([H])[H])C([H])([H])[H])C(C([H])([H])[H])(C([H])([H])[H])C([H])([H])[H])C([H])(C(=O)N([H])C2([H])c4c([H])c([H])c([H])c([H])c4C([H])([H])C([H])([H])C2([H])[H])C3([H])[H])C2([H])C([H])([H])C1(C([H])([H])C([H])([H])C([H])([H])N([H])C(=O)N1C([H])([H])C([H])([H])C([H])([H])C([H])(n3nc(-c4c([H])c([H])c(Oc5c([H])c([H])c(F)c([H])c5F)c([H])c4[H])c(C(=O)N([H])[H])c3N([H])[H])C1([H])[H])C2([H])[H]

>  <smiles>  (59) 
[H]C1=C(C([H])([H])Oc2c([H])c([H])c3c(c2[H])C([H])([H])N(C(=O)C([H])(N([H])C(=O)C([H])(N([H])C([H])([H])[H])C([H])([H])[H])C(C([H])([H])[H])(C([H])([H])[H])C([H])([H])[H])C([H])(C(=O)N([H])C2([H])c4c([H])c([H])c([H])c([H])c4C([H])([H])C([H])([H])C2([H])[H])C3([H])[H])C2([H])C([H])([H])C1(C([H])([H])C([H])([H])C([H])([H])N([H])C(=O)N1C([H])([H])C([H])([H])C([H])([H])C([H])(n3nc(-c4c([H])c([H])c(Oc5c([H])c([H])c(F)c([H])c5F)c([H])c4[H])c(C(=O)N([H])[H])c3N([H])[H])C1([H])[H])C2([H])[H]

$$$$
59:0:0
     RDKit          3D

100109  0  0  1  0  0  0  0  0999 V2000
  -25.0660  -23.6510   23.1820 N   0  0  0  0  0  4  0  0  0  0  0  0
  -25.1470  -22.6950   23.4930 H   0  0  0  0  0  0  0  0  0  0  0  0
  -25.1010  -24.2290   24.0060 H   0  0  0  0  0  0  0  0  0  0  0  0
  -23.7570  -23.7820   22.5100 C   0  0  0  0  0  2  0  0  0  0  0  0
  -21.3090  -24.0410   23.0470 C   0  0  0  0  0  2  0  0  0  0  0  0
  -20.5770  -25.1950   22.3760 C   0  0  0  0  0  2  0  0  0  0  0  0
  -22.6430  -26.0970   23.0270 C   0  0  0  0  0  2  0  0  0  0  0  0
  -22.7200  -24.5720   23.3360 C   0  0  0  0  0  3  0  0  0  0  0  0
  -21.1470  -26.4570   23.0630 C   0  0  0  0  0  3  0  0  0  0  0  0
  -20.7280  -27.8480   22.4380 C   0  0  0  0  0  2  0  0  0  0  0  0
  -19.4250  -28.3980   22.7940 O   0  0  0  0  0  0  0  0  0  0  0  0
  -13.2220  -25.4190   24.4020 C   0  0  0  0  0  0  0  0  0  0  0  0
  -18.3490  -27.7150   22.2850 C   0  0  0  0  0  0  0  0  0  0  0  0
  -14.4180  -24.4980   22.4460 C   0  0  0  0  0  3  0  0  0  0  0  0
  -16.3170  -25.9280   21.5250 C   0  0  0  0  0  0  0  0  0  0  0  0
  -14.6700  -26.9620   23.0890 C   0  0  0  0  0  2  0  0  0  0  0  0
  -16.0570  -26.9110   22.4890 C   0  0  0  0  0  0  0  0  0  0  0  0
  -17.0770  -27.8030   22.8890 C   0  0  0  0  0  3  0  0  0  0  0  0
  -18.5380  -26.8270   21.2110 C   0  0  0  0  0  3  0  0  0  0  0  0
  -17.5550  -25.8870   20.8750 C   0  0  0  0  0  3  0  0  0  0  0  0
  -15.1990  -24.9700   21.1950 C   0  0  0  0  0  2  0  0  0  0  0  0
  -14.0900  -25.6280   23.3730 N   0  0  0  0  0  0  0  0  0  0  0  0
  -12.6690  -24.3230   24.5610 O   0  0  0  0  0  0  0  0  0  0  0  0
  -15.2010  -23.3530   23.1270 C   0  0  0  0  0  0  0  0  0  0  0  0
  -14.5190  -22.2200   23.3680 N   0  0  0  0  0  0  0  0  0  0  0  0
  -16.3960  -23.4860   23.4040 O   0  0  0  0  0  0  0  0  0  0  0  0
  -13.5390  -22.1910   23.1200 H   0  0  0  0  0  0  0  0  0  0  0  0
  -13.6280  -19.2300   25.1920 C   0  0  0  0  0  0  0  0  0  0  0  0
  -15.0610  -21.0020   23.9730 C   0  0  0  0  0  3  0  0  0  0  0  0
  -15.3160  -19.9120   22.9070 C   0  0  0  0  0  2  0  0  0  0  0  0
  -14.1350  -18.9530   22.7310 C   0  0  0  0  0  2  0  0  0  0  0  0
  -13.8090  -18.2460   24.0510 C   0  0  0  0  0  2  0  0  0  0  0  0
  -14.2010  -20.5280   25.1490 C   0  0  0  0  0  0  0  0  0  0  0  0
  -13.9640  -21.4160   26.2200 C   0  0  0  0  0  3  0  0  0  0  0  0
  -13.1810  -21.0240   27.3210 C   0  0  0  0  0  3  0  0  0  0  0  0
  -12.6290  -19.7320   27.3670 C   0  0  0  0  0  3  0  0  0  0  0  0
  -12.8570  -18.8370   26.3060 C   0  0  0  0  0  3  0  0  0  0  0  0
  -12.8620  -26.5550   25.4060 C   0  0  0  0  0  3  0  0  0  0  0  0
  -11.5600  -26.2230   26.0000 N   0  0  0  0  0  0  0  0  0  0  0  0
  -10.3790  -26.6220   25.5110 C   0  0  0  0  0  0  0  0  0  0  0  0
  -10.2770  -27.3820   24.5430 O   0  0  0  0  0  0  0  0  0  0  0  0
  -11.5670  -25.5540   26.7580 H   0  0  0  0  0  0  0  0  0  0  0  0
   -8.5790  -24.8680   25.4560 C   0  0  0  0  0  1  0  0  0  0  0  0
   -9.1100  -26.0990   26.2100 C   0  0  0  0  0  3  0  0  0  0  0  0
   -8.3310  -28.1560   27.3010 C   0  0  0  0  0  1  0  0  0  0  0  0
   -8.0410  -27.1150   26.3200 N   0  0  0  0  0  0  0  0  0  0  0  0
   -7.1580  -26.6830   26.5760 H   0  0  0  0  0  0  0  0  0  0  0  0
  -13.9570  -26.7640   26.5230 C   0  0  1  0  0  0  0  0  0  0  0  0
  -14.3760  -25.4560   27.2340 C   0  0  0  0  0  1  0  0  0  0  0  0
  -15.2310  -27.4050   25.9280 C   0  0  0  0  0  1  0  0  0  0  0  0
  -13.4300  -27.7490   27.5920 C   0  0  0  0  0  1  0  0  0  0  0  0
  -26.2270  -23.9680   22.3240 C   0  0  0  0  0  2  0  0  0  0  0  0
  -25.9840  -25.2700   21.5350 C   0  0  0  0  0  2  0  0  0  0  0  0
  -29.5700  -26.2620   20.4960 C   0  0  0  0  0  3  0  0  0  0  0  0
  -28.4900  -25.7640   21.2530 C   0  0  0  0  0  3  0  0  0  0  0  0
  -28.0130  -26.9650   18.7600 C   0  0  0  0  0  3  0  0  0  0  0  0
  -29.3360  -26.8410   19.2350 C   0  0  0  0  0  0  0  0  0  0  0  0
  -27.1660  -25.8460   20.7600 C   0  0  0  0  0  0  0  0  0  0  0  0
  -26.9320  -26.4730   19.5100 C   0  0  0  0  0  0  0  0  0  0  0  0
  -25.5310  -26.6100   18.9310 C   0  0  0  0  0  1  0  0  0  0  0  0
  -30.3060  -28.7270   17.8760 C   0  0  0  0  0  1  0  0  0  0  0  0
  -30.4880  -27.2700   18.3410 C   0  0  0  0  0  3  0  0  0  0  0  0
  -31.4330  -26.2610   16.2630 C   0  0  0  0  0  0  0  0  0  0  0  0
  -33.4420  -25.1000   15.4550 C   0  0  0  0  0  2  0  0  0  0  0  0
  -33.1080  -23.6400   15.0900 C   0  0  0  0  0  2  0  0  0  0  0  0
  -33.2320  -22.7340   16.3300 C   0  0  0  0  0  2  0  0  0  0  0  0
  -32.4570  -23.2910   17.5510 C   0  0  0  0  0  3  0  0  0  0  0  0
  -32.8060  -24.7760   17.7780 C   0  0  0  0  0  2  0  0  0  0  0  0
  -32.5350  -25.5200   16.5330 N   0  0  0  0  0  0  0  0  0  0  0  0
  -31.1650  -26.7060   15.1450 O   0  0  0  0  0  0  0  0  0  0  0  0
  -30.5190  -26.3270   17.2260 N   0  0  0  0  0  0  0  0  0  0  0  0
  -29.5940  -26.2540   16.8360 H   0  0  0  0  0  0  0  0  0  0  0  0
  -31.8110  -21.8720   19.6020 C   0  0  0  0  0  0  0  0  0  0  0  0
  -32.5670  -21.1930   20.5200 C   0  0  0  0  0  0  0  0  0  0  0  0
  -33.9280  -21.4320   20.1610 C   0  0  0  0  0  0  0  0  0  0  0  0
  -32.7110  -22.4900   18.7470 N   0  0  0  0  0  0  0  0  0  0  0  0
  -33.9940  -22.2590   19.1250 N   0  0  0  0  0  0  0  0  0  0  0  0
  -35.1730  -20.8790   20.7100 C   0  0  0  0  0  0  0  0  0  0  0  0
  -36.2110  -21.7170   21.1760 C   0  0  0  0  0  3  0  0  0  0  0  0
  -37.3930  -21.1620   21.7140 C   0  0  0  0  0  3  0  0  0  0  0  0
  -37.5450  -19.7580   21.7930 C   0  0  0  0  0  0  0  0  0  0  0  0
  -36.5180  -18.9280   21.3090 C   0  0  0  0  0  3  0  0  0  0  0  0
  -35.3450  -19.4820   20.7690 C   0  0  0  0  0  3  0  0  0  0  0  0
  -38.6670  -19.1290   22.2760 O   0  0  0  0  0  0  0  0  0  0  0  0
  -39.4780  -19.7220   23.2100 C   0  0  0  0  0  0  0  0  0  0  0  0
  -38.9880  -20.1280   24.4720 C   0  0  0  0  0  3  0  0  0  0  0  0
  -39.8700  -20.6730   25.4260 C   0  0  0  0  0  3  0  0  0  0  0  0
  -41.2400  -20.8020   25.1270 C   0  0  0  0  0  0  0  0  0  0  0  0
  -41.7300  -20.3910   23.8750 C   0  0  0  0  0  3  0  0  0  0  0  0
  -40.8510  -19.8520   22.9190 C   0  0  0  0  0  0  0  0  0  0  0  0
  -41.3310  -19.4400   21.7220 F   0  0  0  0  0  0  0  0  0  0  0  0
  -42.0890  -21.3170   26.0470 F   0  0  0  0  0  0  0  0  0  0  0  0
  -32.0630  -20.2970   21.6150 C   0  0  0  0  0  0  0  0  0  0  0  0
  -32.7570  -20.2620   22.7480 N   0  0  0  0  0  0  0  0  0  0  0  0
  -31.0180  -19.6590   21.4890 O   0  0  0  0  0  0  0  0  0  0  0  0
  -33.6060  -20.7970   22.8600 H   0  0  0  0  0  0  0  0  0  0  0  0
  -32.4380  -19.6920   23.5180 H   0  0  0  0  0  0  0  0  0  0  0  0
  -30.4400  -21.9990   19.4080 N   0  0  0  0  0  0  0  0  0  0  0  0
  -29.7550  -21.5190   19.9830 H   0  0  0  0  0  0  0  0  0  0  0  0
  -30.0230  -22.5560   18.6710 H   0  0  0  0  0  0  0  0  0  0  0  0
  1  2  1  0
  1  3  1  0
  4  1  1  0
  5  8  1  0
  6  5  1  0
  6  9  1  0
  7  9  1  0
  7  8  1  0
  8  4  1  0
  9 10  1  0
 10 11  1  0
 12 23  2  0
 13 11  1  0
 13 18  1  0
 14 24  1  0
 14 22  1  0
 15 17  1  0
 16 22  1  0
 17 18  2  0
 17 16  1  0
 19 13  2  0
 20 19  1  0
 20 15  2  0
 21 15  1  0
 21 14  1  0
 22 12  1  0
 24 25  1  0
 24 26  2  0
 27 25  1  0
 28 37  1  0
 29 25  1  0
 29 33  1  0
 30 29  1  0
 31 30  1  0
 31 32  1  0
 32 28  1  0
 33 28  2  0
 33 34  1  0
 34 35  2  0
 35 36  1  0
 37 36  2  0
 38 12  1  0
 38 39  1  0
 38 48  1  0
 39 42  1  0
 40 39  1  0
 40 44  1  0
 41 40  2  0
 44 43  1  0
 44 46  1  0
 46 47  1  0
 46 45  1  0
 48 49  1  1
 48 51  1  0
 50 48  1  0
 52  1  1  0
 53 52  1  0
 54 55  1  0
 56 57  1  0
 56 59  2  0
 57 54  2  0
 58 55  2  0
 58 53  1  0
 59 58  1  0
 60 59  1  0
 62 61  1  0
 62 57  1  0
 63 69  1  0
 63 71  1  0
 64 69  1  0
 65 64  1  0
 65 66  1  0
 67 66  1  0
 67 68  1  0
 67 76  1  0
 69 68  1  0
 70 63  2  0
 71 62  1  0
 72 71  1  0
 73 74  2  0
 74 93  1  0
 75 74  1  0
 75 78  1  0
 76 77  1  0
 76 73  1  0
 77 75  2  0
 78 83  2  0
 78 79  1  0
 79 80  2  0
 80 81  1  0
 81 84  1  0
 82 81  2  0
 83 82  1  0
 84 85  1  0
 85 86  1  0
 86 87  2  0
 88 87  1  0
 88 92  1  0
 89 88  2  0
 90 85  2  0
 90 89  1  0
 91 90  1  0
 93 94  1  0
 94 96  1  0
 94 97  1  0
 95 93  2  0
 98 73  1  0
 98 99  1  0
100 98  1  0
M  ISO  4  10 101  11 101  63 100  71 100
M  END
>  <TORSDO>  (60) 
F 23

>  <SCORE>  (60) 
-1.551

>  <name>  (60) 
59

>  <ligand_id>  (60) 
59

>  <original_smiles>  (60) 
[H]c1c([H])c([H])c2c(c1[H])C([H])([H])C([H])([H])C([H])([H])C2([H])N([H])C(=O)C1([H])N(C(=O)C([H])(N([H])C(=O)C([H])(N([H])C([H])([H])[H])C([H])([H])[H])C(C([H])([H])[H])(C([H])([H])[H])C([H])([H])[H])C([H])([H])c2c([H])c(OC([H])([H])C3([H])C([H])([H])C([H])([H])C([H])(C([H])([H])[N+]([H])([H])C([H])([H])C([H])([H])c4c([H])c([H])c(C([H])(N([H])C(=O)N5C([H])([H])C([H])([H])C([H])([H])C([H])(n6nc(-c7c([H])c([H])c(Oc8c([H])c([H])c(F)c([H])c8F)c([H])c7[H])c(C(=O)N([H])[H])c6N([H])[H])C5([H])[H])C([H])([H])[H])c([H])c4C([H])([H])[H])C3([H])[H])c([H])c([H])c2C1([H])[H]

>  <smiles>  (60) 
[H]c1c([H])c([H])c2c(c1[H])C([H])([H])C([H])([H])C([H])([H])C2([H])N([H])C(=O)C1([H])N(C(=O)C([H])(N([H])C(=O)C([H])(N([H])C([H])([H])[H])C([H])([H])[H])C(C([H])([H])[H])(C([H])([H])[H])C([H])([H])[H])C([H])([H])c2c([H])c(OC([H])([H])C3([H])C([H])([H])C([H])([H])C([H])(C([H])([H])[N+]([H])([H])C([H])([H])C([H])([H])c4c([H])c([H])c(C([H])(N([H])C(=O)N5C([H])([H])C([H])([H])C([H])([H])C([H])(n6nc(-c7c([H])c([H])c(Oc8c([H])c([H])c(F)c([H])c8F)c([H])c7[H])c(C(=O)N([H])[H])c6N([H])[H])C5([H])[H])C([H])([H])[H])c([H])c4C([H])([H])[H])C3([H])[H])c([H])c([H])c2C1([H])[H]

$$$$
60:0:0
     RDKit          3D

 89 98  0  0  1  0  0  0  0  0999 V2000
  -26.4870  -22.2540   19.9860 C   0  0  0  0  0  2  0  0  0  0  0  0
  -29.7910  -19.0190   18.6170 C   0  0  0  0  0  2  0  0  0  0  0  0
  -26.7510  -23.7500   19.6250 C   0  0  0  0  0  2  0  0  0  0  0  0
  -27.4270  -21.2140   19.3160 C   0  0  0  0  0  2  0  0  0  0  0  0
  -29.8120  -20.6170   18.7080 C   0  0  0  0  0  2  0  0  0  0  0  0
  -29.2070  -19.7630   20.7510 C   0  0  0  0  0  2  0  0  0  0  0  0
  -29.1550  -22.9580   20.1450 C   0  0  0  0  0  2  0  0  0  0  0  0
  -29.9760  -18.3900   20.0240 C   0  0  0  0  0  3  0  0  0  0  0  0
  -28.0330  -24.3420   20.2540 C   0  0  0  0  0  3  0  0  0  0  0  0
  -28.8890  -21.2090   19.8400 C   0  0  2  0  0  0  0  0  0  0  0  0
  -30.5210  -15.4740   20.0250 C   0  0  0  0  0  0  0  0  0  0  0  0
  -30.4950  -13.0260   19.1530 C   0  0  0  0  0  2  0  0  0  0  0  0
  -29.5320  -12.8080   17.9580 C   0  0  0  0  0  2  0  0  0  0  0  0
  -28.1050  -12.5180   18.4510 C   0  0  0  0  0  2  0  0  0  0  0  0
  -27.6840  -13.4730   19.5950 C   0  0  0  0  0  3  0  0  0  0  0  0
  -28.7710  -13.6390   20.6790 C   0  0  0  0  0  2  0  0  0  0  0  0
  -29.9690  -14.1600   20.0010 N   0  0  0  0  0  0  0  0  0  0  0  0
  -31.7250  -15.4890   19.7330 O   0  0  0  0  0  0  0  0  0  0  0  0
  -29.7490  -16.7350   20.1760 N   0  0  0  0  0  0  0  0  0  0  0  0
  -28.7880  -16.5170   20.3970 H   0  0  0  0  0  0  0  0  0  0  0  0
  -25.3490  -13.9970   20.4740 C   0  0  0  0  0  0  0  0  0  0  0  0
  -24.3070  -13.2040   20.8670 C   0  0  0  0  0  0  0  0  0  0  0  0
  -24.7770  -11.8580   20.7710 C   0  0  0  0  0  0  0  0  0  0  0  0
  -26.3820  -13.1350   20.1550 N   0  0  0  0  0  0  0  0  0  0  0  0
  -26.0540  -11.8390   20.4020 N   0  0  0  0  0  0  0  0  0  0  0  0
  -24.0630  -10.5860   20.9540 C   0  0  0  0  0  0  0  0  0  0  0  0
  -24.4920   -9.6230   21.8910 C   0  0  0  0  0  3  0  0  0  0  0  0
  -23.7740   -8.4200   22.0630 C   0  0  0  0  0  3  0  0  0  0  0  0
  -22.6110   -8.1710   21.2960 C   0  0  0  0  0  0  0  0  0  0  0  0
  -22.2010   -9.1230   20.3460 C   0  0  0  0  0  3  0  0  0  0  0  0
  -22.9200  -10.3170   20.1720 C   0  0  0  0  0  3  0  0  0  0  0  0
  -21.8660   -7.0190   21.3750 O   0  0  0  0  0  0  0  0  0  0  0  0
  -21.7460   -6.3200   22.5490 C   0  0  0  0  0  0  0  0  0  0  0  0
  -21.1750   -6.8950   23.7050 C   0  0  0  0  0  3  0  0  0  0  0  0
  -21.0080   -6.1180   24.8690 C   0  0  0  0  0  3  0  0  0  0  0  0
  -21.4010   -4.7670   24.8760 C   0  0  0  0  0  0  0  0  0  0  0  0
  -21.9650   -4.1910   23.7250 C   0  0  0  0  0  3  0  0  0  0  0  0
  -22.1330   -4.9650   22.5630 C   0  0  0  0  0  0  0  0  0  0  0  0
  -22.6570   -4.3980   21.4500 F   0  0  0  0  0  0  0  0  0  0  0  0
  -21.2350   -4.0180   25.9920 F   0  0  0  0  0  0  0  0  0  0  0  0
  -22.9220  -13.6670   21.2100 C   0  0  0  0  0  0  0  0  0  0  0  0
  -22.2370  -12.9470   22.0910 N   0  0  0  0  0  0  0  0  0  0  0  0
  -22.4600  -14.7030   20.7340 O   0  0  0  0  0  0  0  0  0  0  0  0
  -22.6270  -12.1090   22.4950 H   0  0  0  0  0  0  0  0  0  0  0  0
  -21.3090  -13.2380   22.3630 H   0  0  0  0  0  0  0  0  0  0  0  0
  -25.4960  -15.3740   20.3300 N   0  0  0  0  0  0  0  0  0  0  0  0
  -24.7260  -16.0150   20.4890 H   0  0  0  0  0  0  0  0  0  0  0  0
  -26.3110  -15.8250   19.9350 H   0  0  0  0  0  0  0  0  0  0  0  0
  -28.2090  -25.9950   20.0790 O   0  0  0  0  0  0  0  0  0  0  0  0
  -24.6630  -31.9120   23.2460 C   0  0  0  0  0  0  0  0  0  0  0  0
  -27.1910  -27.0960   20.0920 C   0  0  0  0  0  0  0  0  0  0  0  0
  -23.4580  -30.5560   21.5850 C   0  0  0  0  0  3  0  0  0  0  0  0
  -24.8960  -28.9930   20.1100 C   0  0  0  0  0  0  0  0  0  0  0  0
  -26.0250  -30.7670   21.4270 C   0  0  0  0  0  2  0  0  0  0  0  0
  -26.0880  -29.3710   20.7410 C   0  0  0  0  0  0  0  0  0  0  0  0
  -27.2270  -28.4430   20.7110 C   0  0  0  0  0  3  0  0  0  0  0  0
  -25.9830  -26.9060   19.3790 C   0  0  0  0  0  3  0  0  0  0  0  0
  -24.8700  -27.7810   19.4080 C   0  0  0  0  0  3  0  0  0  0  0  0
  -23.6780  -29.9120   20.1900 C   0  0  0  0  0  2  0  0  0  0  0  0
  -24.7370  -31.1050   22.1390 N   0  0  0  0  0  0  0  0  0  0  0  0
  -23.5780  -32.1880   23.7820 O   0  0  0  0  0  0  0  0  0  0  0  0
  -22.7750  -29.5320   22.5300 C   0  0  0  0  0  0  0  0  0  0  0  0
  -21.4480  -29.3500   22.3960 N   0  0  0  0  0  0  0  0  0  0  0  0
  -23.4460  -28.9040   23.3520 O   0  0  0  0  0  0  0  0  0  0  0  0
  -20.9580  -29.9100   21.7120 H   0  0  0  0  0  0  0  0  0  0  0  0
  -18.0770  -28.1000   22.8890 C   0  0  0  0  0  0  0  0  0  0  0  0
  -20.6360  -28.3890   23.1490 C   0  0  0  0  0  3  0  0  0  0  0  0
  -20.7500  -26.9690   22.5460 C   0  0  0  0  0  2  0  0  0  0  0  0
  -19.6480  -26.6560   21.5280 C   0  0  0  0  0  2  0  0  0  0  0  0
  -18.2670  -26.7690   22.1800 C   0  0  0  0  0  2  0  0  0  0  0  0
  -19.1880  -28.8670   23.3300 C   0  0  0  0  0  0  0  0  0  0  0  0
  -18.9550  -30.1100   23.9580 C   0  0  0  0  0  3  0  0  0  0  0  0
  -17.6440  -30.5870   24.1450 C   0  0  0  0  0  3  0  0  0  0  0  0
  -16.5480  -29.8170   23.7170 C   0  0  0  0  0  3  0  0  0  0  0  0
  -16.7650  -28.5750   23.0960 C   0  0  0  0  0  3  0  0  0  0  0  0
  -25.9390  -32.5420   23.8810 C   0  0  0  0  0  3  0  0  0  0  0  0
  -25.6340  -33.9450   24.2130 N   0  0  0  0  0  0  0  0  0  0  0  0
  -25.9540  -35.0020   23.4540 C   0  0  0  0  0  0  0  0  0  0  0  0
  -26.6000  -34.8970   22.4080 O   0  0  0  0  0  0  0  0  0  0  0  0
  -25.0570  -34.0990   25.0270 H   0  0  0  0  0  0  0  0  0  0  0  0
  -24.2250  -36.8080   23.1550 C   0  0  0  0  0  1  0  0  0  0  0  0
  -25.4860  -36.3930   23.9280 C   0  0  0  0  0  3  0  0  0  0  0  0
  -27.6390  -37.2820   24.7090 C   0  0  0  0  0  1  0  0  0  0  0  0
  -26.5200  -37.4430   23.7860 N   0  0  0  0  0  0  0  0  0  0  0  0
  -26.1180  -38.3660   23.9310 H   0  0  0  0  0  0  0  0  0  0  0  0
  -26.4310  -31.7740   25.1720 C   0  0  1  0  0  0  0  0  0  0  0  0
  -25.3200  -31.5510   26.2260 C   0  0  0  0  0  1  0  0  0  0  0  0
  -27.0110  -30.3900   24.8060 C   0  0  0  0  0  1  0  0  0  0  0  0
  -27.5770  -32.5650   25.8460 C   0  0  0  0  0  1  0  0  0  0  0  0
  2  5  1  0
  2  8  1  0
  3  1  1  0
  3  9  1  0
 10  4  1  6
  4  1  1  0
  7  9  1  0
  8 19  1  0
  8  6  1  0
  9 49  1  0
 10  5  1  0
 10  7  1  0
 10  6  1  0
 11 19  1  0
 12 17  1  0
 13 14  1  0
 13 12  1  0
 15 14  1  0
 15 24  1  0
 15 16  1  0
 17 11  1  0
 17 16  1  0
 18 11  2  0
 19 20  1  0
 21 22  2  0
 22 41  1  0
 23 22  1  0
 23 26  1  0
 24 25  1  0
 24 21  1  0
 25 23  2  0
 26 27  1  0
 27 28  2  0
 29 32  1  0
 29 28  1  0
 30 29  2  0
 31 30  1  0
 31 26  2  0
 32 33  1  0
 33 38  2  0
 33 34  1  0
 34 35  2  0
 35 36  1  0
 36 40  1  0
 37 36  2  0
 38 37  1  0
 39 38  1  0
 41 42  1  0
 42 45  1  0
 42 44  1  0
 43 41  2  0
 46 21  1  0
 46 47  1  0
 48 46  1  0
 49 51  1  0
 50 61  2  0
 51 56  1  0
 52 60  1  0
 52 62  1  0
 53 59  1  0
 53 55  1  0
 54 60  1  0
 55 54  1  0
 56 55  2  0
 57 58  1  0
 57 51  2  0
 58 53  2  0
 59 52  1  0
 60 50  1  0
 62 64  2  0
 63 62  1  0
 65 63  1  0
 66 75  2  0
 66 71  1  0
 67 63  1  0
 67 71  1  0
 68 67  1  0
 69 70  1  0
 69 68  1  0
 70 66  1  0
 71 72  2  0
 72 73  1  0
 74 73  2  0
 75 74  1  0
 76 50  1  0
 76 77  1  0
 76 86  1  0
 77 80  1  0
 78 82  1  0
 78 77  1  0
 79 78  2  0
 82 81  1  0
 84 82  1  0
 84 85  1  0
 84 83  1  0
 86 89  1  1
 86 87  1  0
 88 86  1  0
M  ISO  4   9 101  11 100  19 100  49 101
M  END
>  <TORSDO>  (61) 
F 16

>  <SCORE>  (61) 
-16.329

>  <name>  (61) 
60

>  <ligand_id>  (61) 
60

>  <original_smiles>  (61) 
[H]c1c([H])c([H])c2c(c1[H])C([H])([H])C([H])([H])C([H])([H])C2([H])N([H])C(=O)C1([H])N(C(=O)C([H])(N([H])C(=O)C([H])(N([H])C([H])([H])[H])C([H])([H])[H])C(C([H])([H])[H])(C([H])([H])[H])C([H])([H])[H])C([H])([H])c2c([H])c(OC3([H])C([H])([H])C([H])([H])C([H])([H])C4(C([H])([H])C([H])([H])C([H])(N([H])C(=O)N5C([H])([H])C([H])([H])C([H])([H])C([H])(n6nc(-c7c([H])c([H])c(Oc8c([H])c([H])c(F)c([H])c8F)c([H])c7[H])c(C(=O)N([H])[H])c6N([H])[H])C5([H])[H])C4([H])[H])C3([H])[H])c([H])c([H])c2C1([H])[H]

>  <smiles>  (61) 
[H]c1c([H])c([H])c2c(c1[H])C([H])([H])C([H])([H])C([H])([H])C2([H])N([H])C(=O)C1([H])N(C(=O)C([H])(N([H])C(=O)C([H])(N([H])C([H])([H])[H])C([H])([H])[H])C(C([H])([H])[H])(C([H])([H])[H])C([H])([H])[H])C([H])([H])c2c([H])c(OC3([H])C([H])([H])C([H])([H])C([H])([H])C4(C([H])([H])C([H])([H])C([H])(N([H])C(=O)N5C([H])([H])C([H])([H])C([H])([H])C([H])(n6nc(-c7c([H])c([H])c(Oc8c([H])c([H])c(F)c([H])c8F)c([H])c7[H])c(C(=O)N([H])[H])c6N([H])[H])C5([H])[H])C4([H])[H])C3([H])[H])c([H])c([H])c2C1([H])[H]

$$$$
61:0:0
     RDKit          3D

 94103  0  0  1  0  0  0  0  0999 V2000
  -28.1350  -21.8150   18.1830 C   0  0  0  0  0  1  0  0  0  0  0  0
  -28.1780  -21.6940   19.7200 C   0  0  0  0  0  3  0  0  0  0  0  0
  -29.5010  -20.7780   21.7660 C   0  0  0  0  0  2  0  0  0  0  0  0
  -30.2890  -19.4800   22.0210 C   0  0  0  0  0  2  0  0  0  0  0  0
  -28.7460  -18.3680   20.1840 C   0  0  0  0  0  2  0  0  0  0  0  0
  -29.5850  -19.5330   19.6940 C   0  0  0  0  0  3  0  0  0  0  0  0
  -29.4410  -20.9510   20.2310 C   0  0  0  0  0  3  0  0  0  0  0  0
  -30.1140  -18.6310   20.7750 C   0  0  1  0  0  0  0  0  0  0  0  0
  -31.2730  -17.6730   20.5120 C   0  0  0  0  0  2  0  0  0  0  0  0
  -31.3580  -16.4630   21.4740 C   0  0  0  0  0  2  0  0  0  0  0  0
  -31.1000  -14.3530   20.1670 C   0  0  0  0  0  0  0  0  0  0  0  0
  -30.6340  -12.2440   18.9710 C   0  0  0  0  0  2  0  0  0  0  0  0
  -29.6790  -12.4880   17.7870 C   0  0  0  0  0  2  0  0  0  0  0  0
  -28.2110  -12.4220   18.2480 C   0  0  0  0  0  2  0  0  0  0  0  0
  -27.9420  -13.2870   19.5080 C   0  0  0  0  0  3  0  0  0  0  0  0
  -29.0000  -13.0160   20.5980 C   0  0  0  0  0  2  0  0  0  0  0  0
  -30.3330  -13.2420   20.0100 N   0  0  0  0  0  0  0  0  0  0  0  0
  -32.1630  -14.5270   19.5640 O   0  0  0  0  0  0  0  0  0  0  0  0
  -30.6280  -15.2740   21.0210 N   0  0  0  0  0  0  0  0  0  0  0  0
  -29.7460  -15.0700   21.4670 H   0  0  0  0  0  0  0  0  0  0  0  0
  -25.5850  -14.0190   20.2460 C   0  0  0  0  0  0  0  0  0  0  0  0
  -24.4880  -13.3040   20.6420 C   0  0  0  0  0  0  0  0  0  0  0  0
  -24.8830  -11.9320   20.6210 C   0  0  0  0  0  0  0  0  0  0  0  0
  -26.5830  -13.0860   20.0110 N   0  0  0  0  0  0  0  0  0  0  0  0
  -26.1640  -11.8260   20.2920 N   0  0  0  0  0  0  0  0  0  0  0  0
  -24.1010  -10.7090   20.8410 C   0  0  0  0  0  0  0  0  0  0  0  0
  -24.4970   -9.7370   21.7870 C   0  0  0  0  0  3  0  0  0  0  0  0
  -23.7190   -8.5780   21.9920 C   0  0  0  0  0  3  0  0  0  0  0  0
  -22.5280   -8.3820   21.2520 C   0  0  0  0  0  0  0  0  0  0  0  0
  -22.1510   -9.3410   20.2970 C   0  0  0  0  0  3  0  0  0  0  0  0
  -22.9290  -10.4920   20.0890 C   0  0  0  0  0  3  0  0  0  0  0  0
  -21.7230   -7.2750   21.3670 O   0  0  0  0  0  0  0  0  0  0  0  0
  -21.6360   -6.5660   22.5380 C   0  0  0  0  0  0  0  0  0  0  0  0
  -21.2460   -7.1740   23.7500 C   0  0  0  0  0  3  0  0  0  0  0  0
  -21.1030   -6.3940   24.9160 C   0  0  0  0  0  3  0  0  0  0  0  0
  -21.3400   -5.0080   24.8690 C   0  0  0  0  0  0  0  0  0  0  0  0
  -21.7220   -4.3990   23.6610 C   0  0  0  0  0  3  0  0  0  0  0  0
  -21.8670   -5.1750   22.4980 C   0  0  0  0  0  0  0  0  0  0  0  0
  -22.2160   -4.5810   21.3320 F   0  0  0  0  0  0  0  0  0  0  0  0
  -21.1940   -4.2560   25.9850 F   0  0  0  0  0  0  0  0  0  0  0  0
  -23.1210  -13.8520   20.9340 C   0  0  0  0  0  0  0  0  0  0  0  0
  -22.3820  -13.2090   21.8320 N   0  0  0  0  0  0  0  0  0  0  0  0
  -22.7180  -14.8850   20.4010 O   0  0  0  0  0  0  0  0  0  0  0  0
  -22.7210  -12.3730   22.2860 H   0  0  0  0  0  0  0  0  0  0  0  0
  -21.4650  -13.5580   22.0700 H   0  0  0  0  0  0  0  0  0  0  0  0
  -25.8140  -15.3780   20.0490 N   0  0  0  0  0  0  0  0  0  0  0  0
  -25.0850  -16.0730   20.1650 H   0  0  0  0  0  0  0  0  0  0  0  0
  -26.6870  -15.7710   19.7190 H   0  0  0  0  0  0  0  0  0  0  0  0
  -27.9900  -22.9950   20.4180 N   0  0  0  0  0  4  0  0  0  0  0  0
  -26.9950  -23.1490   20.4950 H   0  0  0  0  0  0  0  0  0  0  0  0
  -28.3320  -22.8780   21.3600 H   0  0  0  0  0  0  0  0  0  0  0  0
  -28.5960  -24.2190   19.8200 C   0  0  0  0  0  2  0  0  0  0  0  0
  -28.4900  -25.4300   20.7740 C   0  0  0  0  0  2  0  0  0  0  0  0
  -28.5820  -26.6920   20.0940 O   0  0  0  0  0  0  0  0  0  0  0  0
  -24.5810  -31.7230   23.1340 C   0  0  0  0  0  0  0  0  0  0  0  0
  -27.4030  -27.4000   20.0600 C   0  0  0  0  0  0  0  0  0  0  0  0
  -23.4430  -30.3020   21.4590 C   0  0  0  0  0  3  0  0  0  0  0  0
  -24.9650  -28.8230   20.0460 C   0  0  0  0  0  0  0  0  0  0  0  0
  -25.9590  -30.7410   21.3050 C   0  0  0  0  0  2  0  0  0  0  0  0
  -26.0960  -29.3810   20.6540 C   0  0  0  0  0  0  0  0  0  0  0  0
  -27.3220  -28.6790   20.6550 C   0  0  0  0  0  3  0  0  0  0  0  0
  -26.2570  -26.8520   19.4450 C   0  0  0  0  0  3  0  0  0  0  0  0
  -25.0390  -27.5570   19.4390 C   0  0  0  0  0  3  0  0  0  0  0  0
  -23.6940  -29.6410   20.0780 C   0  0  0  0  0  2  0  0  0  0  0  0
  -24.6780  -30.9360   22.0250 N   0  0  0  0  0  0  0  0  0  0  0  0
  -23.4820  -31.9590   23.6570 O   0  0  0  0  0  0  0  0  0  0  0  0
  -22.8060  -29.2530   22.3980 C   0  0  0  0  0  0  0  0  0  0  0  0
  -21.4860  -29.0500   22.2600 N   0  0  0  0  0  0  0  0  0  0  0  0
  -23.4960  -28.6270   23.2060 O   0  0  0  0  0  0  0  0  0  0  0  0
  -20.9910  -29.6110   21.5800 H   0  0  0  0  0  0  0  0  0  0  0  0
  -18.1280  -27.7980   22.7190 C   0  0  0  0  0  0  0  0  0  0  0  0
  -20.6810  -28.0870   23.0090 C   0  0  0  0  0  3  0  0  0  0  0  0
  -20.8060  -26.6680   22.4060 C   0  0  0  0  0  2  0  0  0  0  0  0
  -19.7140  -26.3490   21.3810 C   0  0  0  0  0  2  0  0  0  0  0  0
  -18.3270  -26.4630   22.0190 C   0  0  0  0  0  2  0  0  0  0  0  0
  -19.2340  -28.5670   23.1680 C   0  0  0  0  0  0  0  0  0  0  0  0
  -18.9950  -29.8170   23.7790 C   0  0  0  0  0  3  0  0  0  0  0  0
  -17.6830  -30.2980   23.9460 C   0  0  0  0  0  3  0  0  0  0  0  0
  -16.5910  -29.5250   23.5140 C   0  0  0  0  0  3  0  0  0  0  0  0
  -16.8150  -28.2770   22.9060 C   0  0  0  0  0  3  0  0  0  0  0  0
  -25.8370  -32.3830   23.7820 C   0  0  0  0  0  3  0  0  0  0  0  0
  -25.4810  -33.7640   24.1320 N   0  0  0  0  0  0  0  0  0  0  0  0
  -25.7860  -34.8390   23.3920 C   0  0  0  0  0  0  0  0  0  0  0  0
  -26.4690  -34.7740   22.3660 O   0  0  0  0  0  0  0  0  0  0  0  0
  -24.8750  -33.8870   24.9300 H   0  0  0  0  0  0  0  0  0  0  0  0
  -23.9980  -36.5730   23.0510 C   0  0  0  0  0  1  0  0  0  0  0  0
  -25.2480  -36.2020   23.8650 C   0  0  0  0  0  3  0  0  0  0  0  0
  -27.3460  -37.1460   24.7210 C   0  0  0  0  0  1  0  0  0  0  0  0
  -26.2440  -37.2920   23.7740 N   0  0  0  0  0  0  0  0  0  0  0  0
  -25.8060  -38.1950   23.9320 H   0  0  0  0  0  0  0  0  0  0  0  0
  -26.3670  -31.6040   25.0480 C   0  0  1  0  0  0  0  0  0  0  0  0
  -25.2710  -31.3130   26.1010 C   0  0  0  0  0  1  0  0  0  0  0  0
  -26.9960  -30.2540   24.6340 C   0  0  0  0  0  1  0  0  0  0  0  0
  -27.4870  -32.4200   25.7360 C   0  0  0  0  0  1  0  0  0  0  0  0
  2  1  1  0
  2 49  1  0
  3  4  1  0
  5  8  1  0
  6  5  1  0
  6  7  1  0
  6  8  1  0
  7  2  1  0
  7  3  1  0
  8  9  1  6
  8  4  1  0
  9 10  1  0
 11 19  1  0
 12 17  1  0
 13 14  1  0
 13 12  1  0
 15 14  1  0
 15 24  1  0
 15 16  1  0
 17 11  1  0
 17 16  1  0
 18 11  2  0
 19 20  1  0
 19 10  1  0
 21 22  2  0
 22 41  1  0
 23 22  1  0
 23 26  1  0
 24 21  1  0
 24 25  1  0
 25 23  2  0
 26 27  1  0
 27 28  2  0
 29 32  1  0
 29 28  1  0
 30 29  2  0
 31 30  1  0
 31 26  2  0
 32 33  1  0
 33 34  1  0
 34 35  2  0
 36 35  1  0
 36 40  1  0
 37 36  2  0
 38 33  2  0
 38 37  1  0
 39 38  1  0
 41 42  1  0
 42 45  1  0
 42 44  1  0
 43 41  2  0
 46 47  1  0
 46 21  1  0
 48 46  1  0
 49 50  1  0
 49 51  1  0
 52 49  1  0
 52 53  1  0
 54 53  1  0
 55 66  2  0
 56 54  1  0
 56 61  1  0
 57 65  1  0
 57 67  1  0
 58 64  1  0
 58 60  1  0
 59 65  1  0
 60 61  2  0
 60 59  1  0
 62 56  2  0
 63 62  1  0
 63 58  2  0
 64 57  1  0
 65 55  1  0
 67 69  2  0
 68 67  1  0
 70 68  1  0
 71 80  2  0
 71 76  1  0
 72 68  1  0
 72 76  1  0
 73 72  1  0
 74 75  1  0
 74 73  1  0
 75 71  1  0
 76 77  2  0
 77 78  1  0
 79 78  2  0
 80 79  1  0
 81 55  1  0
 81 82  1  0
 81 91  1  0
 82 85  1  0
 83 87  1  0
 83 82  1  0
 84 83  2  0
 87 86  1  0
 89 87  1  0
 89 90  1  0
 89 88  1  0
 91 94  1  1
 91 92  1  0
 93 91  1  0
M  ISO  4  11 100  19 100  53 101  54 101
M  END
>  <TORSDO>  (62) 
F 22

>  <SCORE>  (62) 
-12.692

>  <name>  (62) 
61

>  <ligand_id>  (62) 
61

>  <original_smiles>  (62) 
[H]c1c([H])c([H])c2c(c1[H])C([H])([H])C([H])([H])C([H])([H])C2([H])N([H])C(=O)C1([H])N(C(=O)C([H])(N([H])C(=O)C([H])(N([H])C([H])([H])[H])C([H])([H])[H])C(C([H])([H])[H])(C([H])([H])[H])C([H])([H])[H])C([H])([H])c2c([H])c(OC([H])([H])C([H])([H])[N+]([H])([H])C([H])(C([H])([H])[H])C3([H])C([H])([H])C([H])([H])C4(C([H])([H])C([H])([H])N([H])C(=O)N5C([H])([H])C([H])([H])C([H])([H])C([H])(n6nc(-c7c([H])c([H])c(Oc8c([H])c([H])c(F)c([H])c8F)c([H])c7[H])c(C(=O)N([H])[H])c6N([H])[H])C5([H])[H])C([H])([H])C34[H])c([H])c([H])c2C1([H])[H]

>  <smiles>  (62) 
[H]c1c([H])c([H])c2c(c1[H])C([H])([H])C([H])([H])C([H])([H])C2([H])N([H])C(=O)C1([H])N(C(=O)C([H])(N([H])C(=O)C([H])(N([H])C([H])([H])[H])C([H])([H])[H])C(C([H])([H])[H])(C([H])([H])[H])C([H])([H])[H])C([H])([H])c2c([H])c(OC([H])([H])C([H])([H])[N+]([H])([H])C([H])(C([H])([H])[H])C3([H])C([H])([H])C([H])([H])C4(C([H])([H])C([H])([H])N([H])C(=O)N5C([H])([H])C([H])([H])C([H])([H])C([H])(n6nc(-c7c([H])c([H])c(Oc8c([H])c([H])c(F)c([H])c8F)c([H])c7[H])c(C(=O)N([H])[H])c6N([H])[H])C5([H])[H])C([H])([H])C34[H])c([H])c([H])c2C1([H])[H]

$$$$
62:0:0
     RDKit          3D

 89 98  0  0  1  0  0  0  0  0999 V2000
  -29.7080  -22.3500   18.7270 C   0  0  0  0  0  1  0  0  0  0  0  0
  -29.2650  -22.1090   20.1820 C   0  0  2  0  0  0  0  0  0  0  0  0
  -31.5850  -23.1790   20.8250 C   0  0  0  0  0  1  0  0  0  0  0  0
  -30.4710  -22.1850   21.1610 C   0  0  0  0  0  2  0  0  0  0  0  0
  -29.0130  -20.1930   20.1550 C   0  0  0  0  0  2  0  0  0  0  0  0
  -30.5250  -15.5210   19.6620 C   0  0  0  0  0  0  0  0  0  0  0  0
  -30.4970  -13.0510   18.6360 C   0  0  0  0  0  2  0  0  0  0  0  0
  -29.4480  -12.7350   17.5300 C   0  0  0  0  0  2  0  0  0  0  0  0
  -28.0870  -12.3590   18.1340 C   0  0  0  0  0  2  0  0  0  0  0  0
  -27.7400  -13.2800   19.3240 C   0  0  0  0  0  3  0  0  0  0  0  0
  -28.9060  -13.4700   20.3100 C   0  0  0  0  0  2  0  0  0  0  0  0
  -29.9970  -14.1560   19.5760 N   0  0  0  0  0  0  0  0  0  0  0  0
  -31.6650  -15.5200   19.1560 O   0  0  0  0  0  0  0  0  0  0  0  0
  -31.3040  -17.7360   22.5700 C   0  0  0  0  0  2  0  0  0  0  0  0
  -29.2310  -16.6280   21.4600 C   0  0  0  0  0  2  0  0  0  0  0  0
  -29.8100  -17.6070   22.4470 C   0  0  0  0  0  3  0  0  0  0  0  0
  -30.5050  -18.7160   21.7290 C   0  0  0  0  0  3  0  0  0  0  0  0
  -30.0650  -18.5860   20.2660 C   0  0  0  0  0  3  0  0  0  0  0  0
  -29.8280  -16.8340   20.1270 N   0  0  0  0  0  0  0  0  0  0  0  0
  -25.5580  -13.7650   20.5400 C   0  0  0  0  0  0  0  0  0  0  0  0
  -24.5450  -12.9650   20.9870 C   0  0  0  0  0  0  0  0  0  0  0  0
  -24.9470  -11.6250   20.7040 C   0  0  0  0  0  0  0  0  0  0  0  0
  -26.5030  -12.9110   20.0020 N   0  0  0  0  0  0  0  0  0  0  0  0
  -26.1620  -11.6080   20.1670 N   0  0  0  0  0  0  0  0  0  0  0  0
  -24.2140  -10.3600   20.8500 C   0  0  0  0  0  0  0  0  0  0  0  0
  -24.6720   -9.3340   21.7050 C   0  0  0  0  0  3  0  0  0  0  0  0
  -23.9360   -8.1370   21.8510 C   0  0  0  0  0  3  0  0  0  0  0  0
  -22.7250   -7.9610   21.1430 C   0  0  0  0  0  0  0  0  0  0  0  0
  -22.2860   -8.9770   20.2760 C   0  0  0  0  0  3  0  0  0  0  0  0
  -23.0230  -10.1640   20.1270 C   0  0  0  0  0  3  0  0  0  0  0  0
  -21.9540   -6.8250   21.2030 O   0  0  0  0  0  0  0  0  0  0  0  0
  -21.8490   -6.0840   22.3510 C   0  0  0  0  0  0  0  0  0  0  0  0
  -21.3680   -6.6390   23.5570 C   0  0  0  0  0  3  0  0  0  0  0  0
  -21.2140   -5.8220   24.6950 C   0  0  0  0  0  3  0  0  0  0  0  0
  -21.5290   -4.4520   24.6270 C   0  0  0  0  0  0  0  0  0  0  0  0
  -21.9960   -3.8960   23.4220 C   0  0  0  0  0  3  0  0  0  0  0  0
  -22.1540   -4.7100   22.2870 C   0  0  0  0  0  0  0  0  0  0  0  0
  -22.5880   -4.1640   21.1250 F   0  0  0  0  0  0  0  0  0  0  0  0
  -21.3750   -3.6660   25.7160 F   0  0  0  0  0  0  0  0  0  0  0  0
  -23.2300  -13.4310   21.5420 C   0  0  0  0  0  0  0  0  0  0  0  0
  -22.6370  -12.6600   22.4460 N   0  0  0  0  0  0  0  0  0  0  0  0
  -22.7430  -14.5120   21.2110 O   0  0  0  0  0  0  0  0  0  0  0  0
  -23.0480  -11.7830   22.7300 H   0  0  0  0  0  0  0  0  0  0  0  0
  -21.7580  -12.9480   22.8510 H   0  0  0  0  0  0  0  0  0  0  0  0
  -25.7500  -15.1400   20.5100 N   0  0  0  0  0  0  0  0  0  0  0  0
  -25.0740  -15.8100   20.8540 H   0  0  0  0  0  0  0  0  0  0  0  0
  -26.5630  -15.5800   20.0960 H   0  0  0  0  0  0  0  0  0  0  0  0
  -28.2400  -23.7360   20.4440 C   0  0  0  0  0  2  0  0  0  0  0  0
  -28.3590  -25.4790   20.2970 O   0  0  0  0  0  0  0  0  0  0  0  0
  -24.6520  -31.6680   23.0710 C   0  0  0  0  0  0  0  0  0  0  0  0
  -27.3340  -26.6370   20.2140 C   0  0  0  0  0  0  0  0  0  0  0  0
  -23.5150  -30.2280   21.4320 C   0  0  0  0  0  3  0  0  0  0  0  0
  -25.0200  -28.6020   20.0620 C   0  0  0  0  0  0  0  0  0  0  0  0
  -26.0880  -30.4400   21.3360 C   0  0  0  0  0  2  0  0  0  0  0  0
  -26.1930  -29.0020   20.7080 C   0  0  0  0  0  0  0  0  0  0  0  0
  -27.3380  -28.0480   20.7490 C   0  0  0  0  0  3  0  0  0  0  0  0
  -26.1190  -26.4370   19.5050 C   0  0  0  0  0  3  0  0  0  0  0  0
  -25.0200  -27.3480   19.4310 C   0  0  0  0  0  3  0  0  0  0  0  0
  -23.7890  -29.5230   20.0710 C   0  0  0  0  0  2  0  0  0  0  0  0
  -24.7730  -30.8120   21.9980 N   0  0  0  0  0  0  0  0  0  0  0  0
  -23.5450  -31.9450   23.5710 O   0  0  0  0  0  0  0  0  0  0  0  0
  -22.8120  -29.2410   22.4040 C   0  0  0  0  0  0  0  0  0  0  0  0
  -21.4780  -29.1000   22.3060 N   0  0  0  0  0  0  0  0  0  0  0  0
  -23.4810  -28.6020   23.2200 O   0  0  0  0  0  0  0  0  0  0  0  0
  -20.9910  -29.6600   21.6210 H   0  0  0  0  0  0  0  0  0  0  0  0
  -18.0800  -27.9540   22.9150 C   0  0  0  0  0  0  0  0  0  0  0  0
  -20.6550  -28.1610   23.0840 C   0  0  0  0  0  3  0  0  0  0  0  0
  -20.7040  -26.7430   22.4700 C   0  0  0  0  0  2  0  0  0  0  0  0
  -19.5580  -26.4710   21.4900 C   0  0  0  0  0  2  0  0  0  0  0  0
  -18.2040  -26.6250   22.1870 C   0  0  0  0  0  2  0  0  0  0  0  0
  -19.2330  -28.6820   23.3190 C   0  0  0  0  0  0  0  0  0  0  0  0
  -19.0570  -29.9240   23.9670 C   0  0  0  0  0  3  0  0  0  0  0  0
  -17.7700  -30.4410   24.2050 C   0  0  0  0  0  3  0  0  0  0  0  0
  -16.6350  -29.7110   23.8110 C   0  0  0  0  0  3  0  0  0  0  0  0
  -16.7920  -28.4680   23.1730 C   0  0  0  0  0  3  0  0  0  0  0  0
  -25.8920  -32.3540   23.7160 C   0  0  0  0  0  3  0  0  0  0  0  0
  -26.4300  -31.5850   24.9860 C   0  0  1  0  0  0  0  0  0  0  0  0
  -25.3410  -31.2910   26.0430 C   0  0  0  0  0  1  0  0  0  0  0  0
  -27.0630  -30.2350   24.5840 C   0  0  0  0  0  1  0  0  0  0  0  0
  -27.5480  -32.4100   25.6640 C   0  0  0  0  0  1  0  0  0  0  0  0
  -25.5160  -33.7320   24.0940 N   0  0  0  0  0  0  0  0  0  0  0  0
  -25.7820  -34.8290   23.3700 C   0  0  0  0  0  0  0  0  0  0  0  0
  -26.4270  -34.7920   22.3200 O   0  0  0  0  0  0  0  0  0  0  0  0
  -24.9420  -33.8290   24.9170 H   0  0  0  0  0  0  0  0  0  0  0  0
  -23.9640  -36.5580   23.1360 C   0  0  0  0  0  1  0  0  0  0  0  0
  -25.2480  -36.1810   23.8930 C   0  0  0  0  0  3  0  0  0  0  0  0
  -27.3660  -37.1400   24.6840 C   0  0  0  0  0  1  0  0  0  0  0  0
  -26.2260  -37.2880   23.7850 N   0  0  0  0  0  0  0  0  0  0  0  0
  -25.7830  -38.1810   23.9810 H   0  0  0  0  0  0  0  0  0  0  0  0
  2  1  1  6
  2 48  1  0
  2  4  1  0
  3  4  1  0
  5  2  1  0
  6 19  1  0
  7 12  1  0
  8  9  1  0
  8  7  1  0
 10  9  1  0
 10 23  1  0
 10 11  1  0
 12  6  1  0
 12 11  1  0
 13  6  2  0
 16 15  1  0
 16 14  1  0
 17 16  1  0
 17 14  1  0
 18  5  1  0
 18 17  1  0
 19 18  1  0
 19 15  1  0
 20 21  2  0
 21 40  1  0
 22 25  1  0
 22 21  1  0
 23 24  1  0
 23 20  1  0
 24 22  2  0
 25 26  1  0
 26 27  2  0
 28 31  1  0
 28 27  1  0
 29 28  2  0
 30 29  1  0
 30 25  2  0
 31 32  1  0
 32 33  1  0
 33 34  2  0
 35 34  1  0
 35 39  1  0
 36 35  2  0
 37 32  2  0
 37 36  1  0
 38 37  1  0
 40 41  1  0
 41 43  1  0
 41 44  1  0
 42 40  2  0
 45 20  1  0
 45 46  1  0
 47 45  1  0
 49 48  1  0
 50 61  2  0
 51 49  1  0
 51 56  1  0
 52 60  1  0
 52 62  1  0
 53 59  1  0
 53 55  1  0
 54 60  1  0
 55 56  2  0
 55 54  1  0
 57 51  2  0
 58 57  1  0
 58 53  2  0
 59 52  1  0
 60 50  1  0
 62 64  2  0
 63 62  1  0
 65 63  1  0
 66 75  2  0
 66 71  1  0
 67 63  1  0
 67 71  1  0
 68 67  1  0
 69 70  1  0
 69 68  1  0
 70 66  1  0
 71 72  2  0
 72 73  1  0
 74 73  2  0
 75 74  1  0
 76 50  1  0
 76 81  1  0
 76 77  1  0
 77 80  1  1
 77 78  1  0
 79 77  1  0
 81 84  1  0
 82 86  1  0
 82 81  1  0
 83 82  2  0
 86 85  1  0
 88 86  1  0
 88 89  1  0
 88 87  1  0
M  ISO  4   6 100  19 100  48 101  49 101
M  END
>  <TORSDO>  (63) 
F 19

>  <SCORE>  (63) 
-13.026

>  <name>  (63) 
62

>  <ligand_id>  (63) 
62

>  <original_smiles>  (63) 
[H]c1c([H])c([H])c2c(c1[H])C([H])([H])C([H])([H])C([H])([H])C2([H])N([H])C(=O)C1([H])N(C(=O)C([H])(N([H])C(=O)C([H])(N([H])C([H])([H])[H])C([H])([H])[H])C(C([H])([H])[H])(C([H])([H])[H])C([H])([H])[H])C([H])([H])c2c([H])c(OC([H])([H])C(C([H])([H])[H])(C([H])([H])C([H])([H])[H])C([H])([H])C3([H])N(C(=O)N4C([H])([H])C([H])([H])C([H])([H])C([H])(n5nc(-c6c([H])c([H])c(Oc7c([H])c([H])c(F)c([H])c7F)c([H])c6[H])c(C(=O)N([H])[H])c5N([H])[H])C4([H])[H])C([H])([H])C4([H])C([H])([H])C34[H])c([H])c([H])c2C1([H])[H]

>  <smiles>  (63) 
[H]c1c([H])c([H])c2c(c1[H])C([H])([H])C([H])([H])C([H])([H])C2([H])N([H])C(=O)C1([H])N(C(=O)C([H])(N([H])C(=O)C([H])(N([H])C([H])([H])[H])C([H])([H])[H])C(C([H])([H])[H])(C([H])([H])[H])C([H])([H])[H])C([H])([H])c2c([H])c(OC([H])([H])C(C([H])([H])[H])(C([H])([H])C([H])([H])[H])C([H])([H])C3([H])N(C(=O)N4C([H])([H])C([H])([H])C([H])([H])C([H])(n5nc(-c6c([H])c([H])c(Oc7c([H])c([H])c(F)c([H])c7F)c([H])c6[H])c(C(=O)N([H])[H])c5N([H])[H])C4([H])[H])C([H])([H])C4([H])C([H])([H])C34[H])c([H])c([H])c2C1([H])[H]

$$$$
63:0:0
     RDKit          3D

 88 97  0  0  1  0  0  0  0  0999 V2000
  -29.6220  -22.2300   19.0150 C   0  0  0  0  0  2  0  0  0  0  0  0
  -29.9700  -20.8720   19.6870 C   0  0  0  0  0  3  0  0  0  0  0  0
  -29.0030  -21.2520   20.7900 C   0  0  0  0  0  3  0  0  0  0  0  0
  -29.1140  -19.6530   20.0970 C   0  0  0  0  0  3  0  0  0  0  0  0
  -29.1110  -22.9150   20.3000 C   0  0  1  0  0  0  0  0  0  0  0  0
  -31.2280  -24.4350   20.4970 C   0  0  0  0  0  1  0  0  0  0  0  0
  -30.2220  -23.5090   21.2030 C   0  0  0  0  0  2  0  0  0  0  0  0
  -29.9690  -18.1420   20.4590 C   0  0  0  0  0  2  0  0  0  0  0  0
  -30.3910  -15.2510   20.2750 C   0  0  0  0  0  0  0  0  0  0  0  0
  -30.3580  -12.8200   19.3840 C   0  0  0  0  0  2  0  0  0  0  0  0
  -29.4470  -12.6270   18.1470 C   0  0  0  0  0  2  0  0  0  0  0  0
  -27.9950  -12.3600   18.5780 C   0  0  0  0  0  2  0  0  0  0  0  0
  -27.5350  -13.3210   19.7040 C   0  0  0  0  0  3  0  0  0  0  0  0
  -28.5760  -13.4640   20.8340 C   0  0  0  0  0  2  0  0  0  0  0  0
  -29.8130  -13.9570   20.2070 N   0  0  0  0  0  0  0  0  0  0  0  0
  -31.6150  -15.2530   20.0800 O   0  0  0  0  0  0  0  0  0  0  0  0
  -29.6360  -16.5180   20.3590 N   0  0  0  0  0  0  0  0  0  0  0  0
  -28.6450  -16.3350   20.4250 H   0  0  0  0  0  0  0  0  0  0  0  0
  -25.1510  -13.8690   20.4270 C   0  0  0  0  0  0  0  0  0  0  0  0
  -24.0910  -13.0860   20.7940 C   0  0  0  0  0  0  0  0  0  0  0  0
  -24.5710  -11.7400   20.7850 C   0  0  0  0  0  0  0  0  0  0  0  0
  -26.2050  -13.0000   20.2050 N   0  0  0  0  0  0  0  0  0  0  0  0
  -25.8670  -11.7150   20.4890 N   0  0  0  0  0  0  0  0  0  0  0  0
  -23.8540  -10.4740   20.9810 C   0  0  0  0  0  0  0  0  0  0  0  0
  -24.2790   -9.5220   21.9330 C   0  0  0  0  0  3  0  0  0  0  0  0
  -23.5580   -8.3230   22.1190 C   0  0  0  0  0  3  0  0  0  0  0  0
  -22.3980   -8.0670   21.3510 C   0  0  0  0  0  0  0  0  0  0  0  0
  -21.9910   -9.0060   20.3880 C   0  0  0  0  0  3  0  0  0  0  0  0
  -22.7130  -10.1970   20.2010 C   0  0  0  0  0  3  0  0  0  0  0  0
  -21.6490   -6.9170   21.4440 O   0  0  0  0  0  0  0  0  0  0  0  0
  -21.5890   -6.1900   22.6040 C   0  0  0  0  0  0  0  0  0  0  0  0
  -21.1270   -6.7530   23.8140 C   0  0  0  0  0  3  0  0  0  0  0  0
  -21.0140   -5.9510   24.9670 C   0  0  0  0  0  3  0  0  0  0  0  0
  -21.3540   -4.5860   24.9120 C   0  0  0  0  0  0  0  0  0  0  0  0
  -21.8090   -4.0210   23.7080 C   0  0  0  0  0  3  0  0  0  0  0  0
  -21.9240   -4.8210   22.5560 C   0  0  0  0  0  0  0  0  0  0  0  0
  -22.3420   -4.2670   21.3930 F   0  0  0  0  0  0  0  0  0  0  0  0
  -21.2400   -3.8140   26.0180 F   0  0  0  0  0  0  0  0  0  0  0  0
  -22.6870  -13.5540   21.0360 C   0  0  0  0  0  0  0  0  0  0  0  0
  -21.9540  -12.8700   21.9080 N   0  0  0  0  0  0  0  0  0  0  0  0
  -22.2460  -14.5630   20.4880 O   0  0  0  0  0  0  0  0  0  0  0  0
  -22.3240  -12.0550   22.3730 H   0  0  0  0  0  0  0  0  0  0  0  0
  -21.0110  -13.1670   22.1110 H   0  0  0  0  0  0  0  0  0  0  0  0
  -25.3000  -15.2390   20.2340 N   0  0  0  0  0  0  0  0  0  0  0  0
  -24.5230  -15.8840   20.3330 H   0  0  0  0  0  0  0  0  0  0  0  0
  -26.1380  -15.6850   19.8860 H   0  0  0  0  0  0  0  0  0  0  0  0
  -27.9750  -24.3000   20.2630 C   0  0  0  0  0  2  0  0  0  0  0  0
  -28.2010  -25.9270   20.2880 O   0  0  0  0  0  0  0  0  0  0  0  0
  -24.6420  -31.8740   23.2440 C   0  0  0  0  0  0  0  0  0  0  0  0
  -27.1710  -26.9970   20.2410 C   0  0  0  0  0  0  0  0  0  0  0  0
  -23.4370  -30.4820   21.6120 C   0  0  0  0  0  3  0  0  0  0  0  0
  -24.8730  -28.8650   20.1940 C   0  0  0  0  0  0  0  0  0  0  0  0
  -26.0020  -30.6850   21.4570 C   0  0  0  0  0  2  0  0  0  0  0  0
  -26.0650  -29.2760   20.8060 C   0  0  0  0  0  0  0  0  0  0  0  0
  -27.2100  -28.3640   20.8010 C   0  0  0  0  0  3  0  0  0  0  0  0
  -25.9490  -26.7280   19.5870 C   0  0  0  0  0  3  0  0  0  0  0  0
  -24.8390  -27.6110   19.5630 C   0  0  0  0  0  3  0  0  0  0  0  0
  -23.6580  -29.7910   20.2390 C   0  0  0  0  0  2  0  0  0  0  0  0
  -24.7150  -31.0400   22.1580 N   0  0  0  0  0  0  0  0  0  0  0  0
  -23.5560  -32.1700   23.7680 O   0  0  0  0  0  0  0  0  0  0  0  0
  -22.7380  -29.4930   22.5810 C   0  0  0  0  0  0  0  0  0  0  0  0
  -21.4070  -29.3350   22.4560 N   0  0  0  0  0  0  0  0  0  0  0  0
  -23.4000  -28.8670   23.4120 O   0  0  0  0  0  0  0  0  0  0  0  0
  -20.9270  -29.8910   21.7620 H   0  0  0  0  0  0  0  0  0  0  0  0
  -18.0180  -28.1430   22.9630 C   0  0  0  0  0  0  0  0  0  0  0  0
  -20.5770  -28.4050   23.2310 C   0  0  0  0  0  3  0  0  0  0  0  0
  -20.6760  -26.9690   22.6660 C   0  0  0  0  0  2  0  0  0  0  0  0
  -19.5770  -26.6410   21.6510 C   0  0  0  0  0  2  0  0  0  0  0  0
  -18.1930  -26.7900   22.2920 C   0  0  0  0  0  2  0  0  0  0  0  0
  -19.1360  -28.9070   23.3890 C   0  0  0  0  0  0  0  0  0  0  0  0
  -18.9150  -30.1700   23.9810 C   0  0  0  0  0  3  0  0  0  0  0  0
  -17.6090  -30.6700   24.1450 C   0  0  0  0  0  3  0  0  0  0  0  0
  -16.5060  -29.9040   23.7330 C   0  0  0  0  0  3  0  0  0  0  0  0
  -16.7110  -28.6410   23.1490 C   0  0  0  0  0  3  0  0  0  0  0  0
  -25.9190  -32.5090   23.8740 C   0  0  0  0  0  3  0  0  0  0  0  0
  -26.4210  -31.7440   25.1610 C   0  0  1  0  0  0  0  0  0  0  0  0
  -25.3190  -31.5250   26.2260 C   0  0  0  0  0  1  0  0  0  0  0  0
  -26.9940  -30.3580   24.7910 C   0  0  0  0  0  1  0  0  0  0  0  0
  -27.5750  -32.5330   25.8230 C   0  0  0  0  0  1  0  0  0  0  0  0
  -25.6110  -33.9110   24.2080 N   0  0  0  0  0  0  0  0  0  0  0  0
  -25.9260  -34.9680   23.4460 C   0  0  0  0  0  0  0  0  0  0  0  0
  -26.5690  -34.8640   22.3990 O   0  0  0  0  0  0  0  0  0  0  0  0
  -25.0340  -34.0640   25.0220 H   0  0  0  0  0  0  0  0  0  0  0  0
  -24.1810  -36.7610   23.1610 C   0  0  0  0  0  1  0  0  0  0  0  0
  -25.4560  -36.3590   23.9200 C   0  0  0  0  0  3  0  0  0  0  0  0
  -27.6190  -37.2580   24.6610 C   0  0  0  0  0  1  0  0  0  0  0  0
  -26.4810  -37.4150   23.7590 N   0  0  0  0  0  0  0  0  0  0  0  0
  -26.0790  -38.3360   23.9140 H   0  0  0  0  0  0  0  0  0  0  0  0
  1  5  1  0
  2  1  1  0
  2  4  1  0
  2  3  1  0
  4  8  1  0
  4  3  1  0
  5  3  1  0
  5  7  1  1
  6  7  1  0
  9 17  1  0
 10 15  1  0
 11 12  1  0
 11 10  1  0
 12 13  1  0
 13 22  1  0
 13 14  1  0
 15  9  1  0
 15 14  1  0
 16  9  2  0
 17 18  1  0
 17  8  1  0
 19 20  2  0
 20 39  1  0
 21 20  1  0
 21 24  1  0
 22 19  1  0
 22 23  1  0
 23 21  2  0
 24 25  1  0
 25 26  2  0
 27 30  1  0
 27 26  1  0
 28 27  2  0
 29 28  1  0
 29 24  2  0
 30 31  1  0
 31 32  1  0
 32 33  2  0
 34 33  1  0
 34 38  1  0
 35 34  2  0
 36 31  2  0
 36 35  1  0
 37 36  1  0
 39 40  1  0
 40 43  1  0
 40 42  1  0
 41 39  2  0
 44 45  1  0
 44 19  1  0
 46 44  1  0
 47 48  1  0
 47  5  1  0
 49 60  2  0
 49 75  1  0
 50 48  1  0
 50 55  1  0
 51 59  1  0
 51 61  1  0
 52 58  1  0
 52 54  1  0
 53 59  1  0
 54 53  1  0
 55 54  2  0
 56 50  2  0
 57 56  1  0
 57 52  2  0
 58 51  1  0
 59 49  1  0
 61 63  2  0
 62 61  1  0
 62 66  1  0
 64 62  1  0
 65 74  2  0
 65 70  1  0
 66 70  1  0
 67 66  1  0
 68 69  1  0
 68 67  1  0
 69 65  1  0
 70 71  2  0
 71 72  1  0
 73 72  2  0
 74 73  1  0
 75 80  1  0
 75 76  1  0
 76 79  1  1
 76 77  1  0
 78 76  1  0
 80 83  1  0
 81 85  1  0
 81 80  1  0
 82 81  2  0
 84 85  1  0
 87 88  1  0
 87 85  1  0
 87 86  1  0
M  ISO  4   9 100  17 100  47 101  48 101
M  END
>  <TORSDO>  (64) 
F 19

>  <SCORE>  (64) 
-15.293

>  <name>  (64) 
63

>  <ligand_id>  (64) 
63

>  <original_smiles>  (64) 
[H]c1c([H])c([H])c2c(c1[H])C([H])([H])C([H])([H])C([H])([H])C2([H])N([H])C(=O)C1([H])N(C(=O)C([H])(N([H])C(=O)C([H])(N([H])C([H])([H])[H])C([H])([H])[H])C(C([H])([H])[H])(C([H])([H])[H])C([H])([H])[H])C([H])([H])c2c([H])c(OC([H])([H])C3(C([H])([H])C([H])([H])[H])C([H])([H])C4([H])C([H])(C([H])([H])N([H])C(=O)N5C([H])([H])C([H])([H])C([H])([H])C([H])(n6nc(-c7c([H])c([H])c(Oc8c([H])c([H])c(F)c([H])c8F)c([H])c7[H])c(C(=O)N([H])[H])c6N([H])[H])C5([H])[H])C43[H])c([H])c([H])c2C1([H])[H]

>  <smiles>  (64) 
[H]c1c([H])c([H])c2c(c1[H])C([H])([H])C([H])([H])C([H])([H])C2([H])N([H])C(=O)C1([H])N(C(=O)C([H])(N([H])C(=O)C([H])(N([H])C([H])([H])[H])C([H])([H])[H])C(C([H])([H])[H])(C([H])([H])[H])C([H])([H])[H])C([H])([H])c2c([H])c(OC([H])([H])C3(C([H])([H])C([H])([H])[H])C([H])([H])C4([H])C([H])(C([H])([H])N([H])C(=O)N5C([H])([H])C([H])([H])C([H])([H])C([H])(n6nc(-c7c([H])c([H])c(Oc8c([H])c([H])c(F)c([H])c8F)c([H])c7[H])c(C(=O)N([H])[H])c6N([H])[H])C5([H])[H])C43[H])c([H])c([H])c2C1([H])[H]

$$$$
64:0:0
     RDKit          3D

 89 98  0  0  1  0  0  0  0  0999 V2000
  -29.0320  -22.0070   20.8670 C   0  0  0  0  0  3  0  0  0  0  0  0
  -28.5330  -23.1390   20.2010 C   0  0  0  0  0  0  0  0  0  0  0  0
  -28.2640  -22.6310   18.7950 C   0  0  0  0  0  2  0  0  0  0  0  0
  -28.4140  -21.0480   18.8250 C   0  0  0  0  0  2  0  0  0  0  0  0
  -30.7590  -18.6180   19.4150 C   0  0  0  0  0  2  0  0  0  0  0  0
  -30.6750  -20.1770   19.7050 C   0  0  0  0  0  2  0  0  0  0  0  0
  -28.8250  -19.0780   20.6970 C   0  0  0  0  0  2  0  0  0  0  0  0
  -29.9670  -17.8750   20.5180 C   0  0  0  0  0  3  0  0  0  0  0  0
  -29.2190  -20.5850   20.0860 C   0  0  1  0  0  0  0  0  0  0  0  0
  -30.4650  -15.0870   20.2470 C   0  0  0  0  0  0  0  0  0  0  0  0
  -30.3640  -12.7160   19.3040 C   0  0  0  0  0  2  0  0  0  0  0  0
  -29.4200  -12.6300   18.0810 C   0  0  0  0  0  2  0  0  0  0  0  0
  -27.9660  -12.3950   18.5310 C   0  0  0  0  0  2  0  0  0  0  0  0
  -27.5540  -13.3260   19.7010 C   0  0  0  0  0  3  0  0  0  0  0  0
  -28.6200  -13.3770   20.8150 C   0  0  0  0  0  2  0  0  0  0  0  0
  -29.8710  -13.8200   20.1840 N   0  0  0  0  0  0  0  0  0  0  0  0
  -31.6780  -15.1290   20.0110 O   0  0  0  0  0  0  0  0  0  0  0  0
  -29.6860  -16.2940   20.3730 N   0  0  0  0  0  0  0  0  0  0  0  0
  -28.7040  -16.0760   20.4590 H   0  0  0  0  0  0  0  0  0  0  0  0
  -25.1800  -13.8880   20.4630 C   0  0  0  0  0  0  0  0  0  0  0  0
  -24.1230  -13.1060   20.8410 C   0  0  0  0  0  0  0  0  0  0  0  0
  -24.5960  -11.7580   20.8080 C   0  0  0  0  0  0  0  0  0  0  0  0
  -26.2260  -13.0160   20.2150 N   0  0  0  0  0  0  0  0  0  0  0  0
  -25.8850  -11.7300   20.4900 N   0  0  0  0  0  0  0  0  0  0  0  0
  -23.8770  -10.4920   21.0010 C   0  0  0  0  0  0  0  0  0  0  0  0
  -24.3100   -9.5300   21.9410 C   0  0  0  0  0  3  0  0  0  0  0  0
  -23.5890   -8.3310   22.1230 C   0  0  0  0  0  3  0  0  0  0  0  0
  -22.4190   -8.0840   21.3650 C   0  0  0  0  0  0  0  0  0  0  0  0
  -22.0040   -9.0350   20.4150 C   0  0  0  0  0  3  0  0  0  0  0  0
  -22.7270  -10.2260   20.2310 C   0  0  0  0  0  3  0  0  0  0  0  0
  -21.6680   -6.9360   21.4560 O   0  0  0  0  0  0  0  0  0  0  0  0
  -21.6140   -6.2030   22.6140 C   0  0  0  0  0  0  0  0  0  0  0  0
  -21.1680   -6.7640   23.8310 C   0  0  0  0  0  3  0  0  0  0  0  0
  -21.0600   -5.9570   24.9810 C   0  0  0  0  0  3  0  0  0  0  0  0
  -21.3880   -4.5900   24.9150 C   0  0  0  0  0  0  0  0  0  0  0  0
  -21.8270   -4.0280   23.7030 C   0  0  0  0  0  3  0  0  0  0  0  0
  -21.9360   -4.8330   22.5550 C   0  0  0  0  0  0  0  0  0  0  0  0
  -22.3390   -4.2810   21.3850 F   0  0  0  0  0  0  0  0  0  0  0  0
  -21.2770   -3.8120   26.0180 F   0  0  0  0  0  0  0  0  0  0  0  0
  -22.7240  -13.5770   21.1160 C   0  0  0  0  0  0  0  0  0  0  0  0
  -22.0020  -12.8780   21.9830 N   0  0  0  0  0  0  0  0  0  0  0  0
  -22.2820  -14.6000   20.5960 O   0  0  0  0  0  0  0  0  0  0  0  0
  -22.3730  -12.0510   22.4270 H   0  0  0  0  0  0  0  0  0  0  0  0
  -21.0640  -13.1770   22.2110 H   0  0  0  0  0  0  0  0  0  0  0  0
  -25.3320  -15.2590   20.2820 N   0  0  0  0  0  0  0  0  0  0  0  0
  -24.5560  -15.9030   20.3930 H   0  0  0  0  0  0  0  0  0  0  0  0
  -26.1590  -15.7020   19.9060 H   0  0  0  0  0  0  0  0  0  0  0  0
  -27.9730  -24.6350   20.7350 C   0  0  0  0  0  2  0  0  0  0  0  0
  -28.2580  -26.1080   20.2410 O   0  0  0  0  0  0  0  0  0  0  0  0
  -24.6240  -31.8890   23.2280 C   0  0  0  0  0  0  0  0  0  0  0  0
  -27.2180  -27.1280   20.2310 C   0  0  0  0  0  0  0  0  0  0  0  0
  -23.4350  -30.4860   21.5880 C   0  0  0  0  0  3  0  0  0  0  0  0
  -24.8930  -28.9000   20.1790 C   0  0  0  0  0  0  0  0  0  0  0  0
  -25.9920  -30.7430   21.4370 C   0  0  0  0  0  2  0  0  0  0  0  0
  -26.0740  -29.3440   20.7910 C   0  0  0  0  0  0  0  0  0  0  0  0
  -27.2390  -28.4760   20.7940 C   0  0  0  0  0  3  0  0  0  0  0  0
  -26.0110  -26.7990   19.5800 C   0  0  0  0  0  3  0  0  0  0  0  0
  -24.8780  -27.6430   19.5560 C   0  0  0  0  0  3  0  0  0  0  0  0
  -23.6660  -29.8030   20.2150 C   0  0  0  0  0  2  0  0  0  0  0  0
  -24.7040  -31.0620   22.1390 N   0  0  0  0  0  0  0  0  0  0  0  0
  -23.5340  -32.1740   23.7500 O   0  0  0  0  0  0  0  0  0  0  0  0
  -22.7500  -29.4820   22.5520 C   0  0  0  0  0  0  0  0  0  0  0  0
  -21.4210  -29.3130   22.4240 N   0  0  0  0  0  0  0  0  0  0  0  0
  -23.4180  -28.8590   23.3810 O   0  0  0  0  0  0  0  0  0  0  0  0
  -20.9370  -29.8680   21.7320 H   0  0  0  0  0  0  0  0  0  0  0  0
  -18.0380  -28.1150   22.9280 C   0  0  0  0  0  0  0  0  0  0  0  0
  -20.5980  -28.3770   23.1960 C   0  0  0  0  0  3  0  0  0  0  0  0
  -20.6990  -26.9440   22.6250 C   0  0  0  0  0  2  0  0  0  0  0  0
  -19.5980  -26.6210   21.6090 C   0  0  0  0  0  2  0  0  0  0  0  0
  -18.2150  -26.7660   22.2520 C   0  0  0  0  0  2  0  0  0  0  0  0
  -19.1570  -28.8790   23.3580 C   0  0  0  0  0  0  0  0  0  0  0  0
  -18.9350  -30.1390   23.9520 C   0  0  0  0  0  3  0  0  0  0  0  0
  -17.6300  -30.6380   24.1200 C   0  0  0  0  0  3  0  0  0  0  0  0
  -16.5270  -29.8710   23.7070 C   0  0  0  0  0  3  0  0  0  0  0  0
  -16.7320  -28.6120   23.1160 C   0  0  0  0  0  3  0  0  0  0  0  0
  -25.8960  -32.5310   23.8590 C   0  0  0  0  0  3  0  0  0  0  0  0
  -25.5790  -33.9310   24.1860 N   0  0  0  0  0  0  0  0  0  0  0  0
  -25.9090  -34.9880   23.4310 C   0  0  0  0  0  0  0  0  0  0  0  0
  -26.5780  -34.8860   22.3990 O   0  0  0  0  0  0  0  0  0  0  0  0
  -24.9880  -34.0830   24.9900 H   0  0  0  0  0  0  0  0  0  0  0  0
  -24.1780  -36.7810   23.0820 C   0  0  0  0  0  1  0  0  0  0  0  0
  -25.4210  -36.3760   23.8910 C   0  0  0  0  0  3  0  0  0  0  0  0
  -27.5560  -37.2660   24.7190 C   0  0  0  0  0  1  0  0  0  0  0  0
  -26.4520  -37.4310   23.7770 N   0  0  0  0  0  0  0  0  0  0  0  0
  -26.0440  -38.3510   23.9260 H   0  0  0  0  0  0  0  0  0  0  0  0
  -26.4010  -31.7700   25.1470 C   0  0  1  0  0  0  0  0  0  0  0  0
  -25.2990  -31.5450   26.2090 C   0  0  0  0  0  1  0  0  0  0  0  0
  -26.9840  -30.3880   24.7780 C   0  0  0  0  0  1  0  0  0  0  0  0
  -27.5480  -32.5680   25.8120 C   0  0  0  0  0  1  0  0  0  0  0  0
  2 48  1  0
  2  1  2  0
  3  4  1  0
  3  2  1  0
  5  6  1  0
  5  8  1  0
  9  6  1  6
  8 18  1  0
  8  7  1  0
  9  4  1  0
  9  7  1  0
  9  1  1  0
 10 18  1  0
 11 16  1  0
 12 13  1  0
 12 11  1  0
 14 13  1  0
 14 23  1  0
 14 15  1  0
 16 10  1  0
 16 15  1  0
 17 10  2  0
 18 19  1  0
 20 21  2  0
 21 40  1  0
 22 21  1  0
 22 25  1  0
 23 20  1  0
 23 24  1  0
 24 22  2  0
 25 26  1  0
 26 27  2  0
 28 31  1  0
 28 27  1  0
 29 28  2  0
 30 29  1  0
 30 25  2  0
 31 32  1  0
 32 33  1  0
 33 34  2  0
 35 34  1  0
 35 39  1  0
 36 35  2  0
 37 32  2  0
 37 36  1  0
 38 37  1  0
 40 41  1  0
 41 44  1  0
 41 43  1  0
 42 40  2  0
 45 46  1  0
 45 20  1  0
 47 45  1  0
 49 48  1  0
 50 61  2  0
 51 49  1  0
 51 56  1  0
 52 60  1  0
 52 62  1  0
 53 59  1  0
 53 55  1  0
 54 60  1  0
 55 56  2  0
 55 54  1  0
 57 51  2  0
 58 57  1  0
 58 53  2  0
 59 52  1  0
 60 50  1  0
 62 64  2  0
 63 62  1  0
 65 63  1  0
 66 75  2  0
 66 71  1  0
 67 63  1  0
 67 71  1  0
 68 67  1  0
 69 70  1  0
 69 68  1  0
 70 66  1  0
 71 72  2  0
 72 73  1  0
 74 73  2  0
 75 74  1  0
 76 50  1  0
 76 77  1  0
 76 86  1  0
 77 80  1  0
 78 82  1  0
 78 77  1  0
 79 78  2  0
 82 81  1  0
 84 82  1  0
 84 85  1  0
 84 83  1  0
 86 89  1  1
 86 87  1  0
 88 86  1  0
M  ISO  4  10 100  18 100  48 101  49 101
M  END
>  <TORSDO>  (65) 
F 17

>  <SCORE>  (65) 
-14.972

>  <name>  (65) 
64

>  <ligand_id>  (65) 
64

>  <original_smiles>  (65) 
[H]C1=C(C([H])([H])Oc2c([H])c([H])c3c(c2[H])C([H])([H])N(C(=O)C([H])(N([H])C(=O)C([H])(N([H])C([H])([H])[H])C([H])([H])[H])C(C([H])([H])[H])(C([H])([H])[H])C([H])([H])[H])C([H])(C(=O)N([H])C2([H])c4c([H])c([H])c([H])c([H])c4C([H])([H])C([H])([H])C2([H])[H])C3([H])[H])C([H])([H])C([H])([H])C12C([H])([H])C([H])([H])C([H])(N([H])C(=O)N1C([H])([H])C([H])([H])C([H])([H])C([H])(n3nc(-c4c([H])c([H])c(Oc5c([H])c([H])c(F)c([H])c5F)c([H])c4[H])c(C(=O)N([H])[H])c3N([H])[H])C1([H])[H])C2([H])[H]

>  <smiles>  (65) 
[H]C1=C(C([H])([H])Oc2c([H])c([H])c3c(c2[H])C([H])([H])N(C(=O)C([H])(N([H])C(=O)C([H])(N([H])C([H])([H])[H])C([H])([H])[H])C(C([H])([H])[H])(C([H])([H])[H])C([H])([H])[H])C([H])(C(=O)N([H])C2([H])c4c([H])c([H])c([H])c([H])c4C([H])([H])C([H])([H])C2([H])[H])C3([H])[H])C([H])([H])C([H])([H])C12C([H])([H])C([H])([H])C([H])(N([H])C(=O)N1C([H])([H])C([H])([H])C([H])([H])C([H])(n3nc(-c4c([H])c([H])c(Oc5c([H])c([H])c(F)c([H])c5F)c([H])c4[H])c(C(=O)N([H])[H])c3N([H])[H])C1([H])[H])C2([H])[H]

$$$$
65:0:0
     RDKit          3D

 88 97  0  0  1  0  0  0  0  0999 V2000
  -30.3860  -17.8800   23.0030 C   0  0  0  0  0  2  0  0  0  0  0  0
  -29.0280  -19.5090   21.3620 C   0  0  0  0  0  2  0  0  0  0  0  0
  -30.0560  -19.2350   22.4480 C   0  0  0  0  0  3  0  0  0  0  0  0
  -31.1690  -18.4040   21.8250 C   0  0  0  0  0  3  0  0  0  0  0  0
  -29.8630  -19.6000   20.0640 C   0  0  0  0  0  3  0  0  0  0  0  0
  -30.8170  -18.1230   20.3650 C   0  0  0  0  0  3  0  0  0  0  0  0
  -31.1190  -15.2200   20.0440 C   0  0  0  0  0  0  0  0  0  0  0  0
  -30.9290  -12.7990   19.1390 C   0  0  0  0  0  2  0  0  0  0  0  0
  -29.9800  -12.7060   17.9160 C   0  0  0  0  0  2  0  0  0  0  0  0
  -28.5180  -12.5260   18.3750 C   0  0  0  0  0  2  0  0  0  0  0  0
  -28.1550  -13.4730   19.5490 C   0  0  0  0  0  3  0  0  0  0  0  0
  -29.2360  -13.5260   20.6430 C   0  0  0  0  0  2  0  0  0  0  0  0
  -30.4800  -13.9560   19.9930 N   0  0  0  0  0  0  0  0  0  0  0  0
  -32.3280  -15.1690   19.7760 O   0  0  0  0  0  0  0  0  0  0  0  0
  -30.4240  -16.5160   20.2150 N   0  0  0  0  0  0  0  0  0  0  0  0
  -29.4320  -16.3700   20.3230 H   0  0  0  0  0  0  0  0  0  0  0  0
  -25.8560  -14.1310   20.4380 C   0  0  0  0  0  0  0  0  0  0  0  0
  -24.7740  -13.4000   20.8350 C   0  0  0  0  0  0  0  0  0  0  0  0
  -25.1560  -12.0270   20.7290 C   0  0  0  0  0  0  0  0  0  0  0  0
  -26.8340  -13.2090   20.1020 N   0  0  0  0  0  0  0  0  0  0  0  0
  -26.4270  -11.9340   20.3420 N   0  0  0  0  0  0  0  0  0  0  0  0
  -24.3650  -10.8030   20.9020 C   0  0  0  0  0  0  0  0  0  0  0  0
  -24.7660   -9.7750   21.7830 C   0  0  0  0  0  3  0  0  0  0  0  0
  -23.9670   -8.6230   21.9550 C   0  0  0  0  0  3  0  0  0  0  0  0
  -22.7530   -8.4900   21.2390 C   0  0  0  0  0  0  0  0  0  0  0  0
  -22.3690   -9.5050   20.3440 C   0  0  0  0  0  3  0  0  0  0  0  0
  -23.1700  -10.6450   20.1720 C   0  0  0  0  0  3  0  0  0  0  0  0
  -21.9270   -7.3940   21.3190 O   0  0  0  0  0  0  0  0  0  0  0  0
  -21.8520   -6.6280   22.4550 C   0  0  0  0  0  0  0  0  0  0  0  0
  -21.4760   -7.1810   23.6990 C   0  0  0  0  0  3  0  0  0  0  0  0
  -21.3430   -6.3450   24.8270 C   0  0  0  0  0  3  0  0  0  0  0  0
  -21.5780   -4.9630   24.7110 C   0  0  0  0  0  0  0  0  0  0  0  0
  -21.9520   -4.4110   23.4740 C   0  0  0  0  0  3  0  0  0  0  0  0
  -22.0860   -5.2430   22.3470 C   0  0  0  0  0  0  0  0  0  0  0  0
  -22.4240   -4.7050   21.1490 F   0  0  0  0  0  0  0  0  0  0  0  0
  -21.4460   -4.1600   25.7930 F   0  0  0  0  0  0  0  0  0  0  0  0
  -23.4180  -13.9470   21.1880 C   0  0  0  0  0  0  0  0  0  0  0  0
  -22.6910  -13.2700   22.0720 N   0  0  0  0  0  0  0  0  0  0  0  0
  -23.0190  -15.0090   20.7180 O   0  0  0  0  0  0  0  0  0  0  0  0
  -23.0220  -12.4130   22.4850 H   0  0  0  0  0  0  0  0  0  0  0  0
  -21.7840  -13.6250   22.3500 H   0  0  0  0  0  0  0  0  0  0  0  0
  -26.0770  -15.5000   20.3050 N   0  0  0  0  0  0  0  0  0  0  0  0
  -25.3300  -16.1710   20.4690 H   0  0  0  0  0  0  0  0  0  0  0  0
  -26.8910  -15.9240   19.8870 H   0  0  0  0  0  0  0  0  0  0  0  0
  -30.3550  -21.3270   20.0190 C   0  0  0  0  0  2  0  0  0  0  0  0
  -29.6100  -22.8640   19.4920 C   0  0  0  0  0  2  0  0  0  0  0  0
  -29.3920  -24.4610   20.2550 C   0  0  0  0  0  2  0  0  0  0  0  0
  -29.2400  -26.0270   19.8170 O   0  0  0  0  0  0  0  0  0  0  0  0
  -24.8420  -31.2930   22.9460 C   0  0  0  0  0  0  0  0  0  0  0  0
  -28.0780  -26.9400   19.8610 C   0  0  0  0  0  0  0  0  0  0  0  0
  -23.8960  -29.8900   21.1530 C   0  0  0  0  0  3  0  0  0  0  0  0
  -25.5940  -28.5330   19.7530 C   0  0  0  0  0  0  0  0  0  0  0  0
  -26.4270  -30.3860   21.1850 C   0  0  0  0  0  2  0  0  0  0  0  0
  -26.6880  -29.0350   20.4690 C   0  0  0  0  0  0  0  0  0  0  0  0
  -27.9280  -28.2610   20.4970 C   0  0  0  0  0  3  0  0  0  0  0  0
  -26.9440  -26.5720   19.1060 C   0  0  0  0  0  3  0  0  0  0  0  0
  -25.7410  -27.3220   19.0560 C   0  0  0  0  0  3  0  0  0  0  0  0
  -24.2880  -29.3230   19.7590 C   0  0  0  0  0  2  0  0  0  0  0  0
  -25.0700  -30.5480   21.8180 N   0  0  0  0  0  0  0  0  0  0  0  0
  -23.7000  -31.4350   23.4130 O   0  0  0  0  0  0  0  0  0  0  0  0
  -23.2640  -28.7640   22.0140 C   0  0  0  0  0  0  0  0  0  0  0  0
  -21.9550  -28.5040   21.8330 N   0  0  0  0  0  0  0  0  0  0  0  0
  -23.9550  -28.1300   22.8130 O   0  0  0  0  0  0  0  0  0  0  0  0
  -21.4400  -29.0850   21.1850 H   0  0  0  0  0  0  0  0  0  0  0  0
  -18.6610  -27.0220   22.1710 C   0  0  0  0  0  0  0  0  0  0  0  0
  -21.1920  -27.4420   22.5010 C   0  0  0  0  0  3  0  0  0  0  0  0
  -21.3980  -26.0770   21.8050 C   0  0  0  0  0  2  0  0  0  0  0  0
  -20.3320  -25.7710   20.7440 C   0  0  0  0  0  2  0  0  0  0  0  0
  -18.9380  -25.7580   21.3760 C   0  0  0  0  0  2  0  0  0  0  0  0
  -19.7160  -27.8190   22.6880 C   0  0  0  0  0  0  0  0  0  0  0  0
  -19.4000  -28.9970   23.3980 C   0  0  0  0  0  3  0  0  0  0  0  0
  -18.0600  -29.3830   23.5930 C   0  0  0  0  0  3  0  0  0  0  0  0
  -17.0180  -28.5860   23.0870 C   0  0  0  0  0  3  0  0  0  0  0  0
  -17.3200  -27.4070   22.3810 C   0  0  0  0  0  3  0  0  0  0  0  0
  -25.9990  -32.0190   23.6960 C   0  0  0  0  0  3  0  0  0  0  0  0
  -26.4820  -31.2450   24.9850 C   0  0  1  0  0  0  0  0  0  0  0  0
  -25.3410  -30.8760   25.9620 C   0  0  0  0  0  1  0  0  0  0  0  0
  -27.2100  -29.9340   24.6050 C   0  0  0  0  0  1  0  0  0  0  0  0
  -27.5070  -32.1050   25.7610 C   0  0  0  0  0  1  0  0  0  0  0  0
  -25.5290  -33.3660   24.0620 N   0  0  0  0  0  0  0  0  0  0  0  0
  -25.7880  -34.4830   23.3700 C   0  0  0  0  0  0  0  0  0  0  0  0
  -26.5170  -34.4950   22.3730 O   0  0  0  0  0  0  0  0  0  0  0  0
  -24.8820  -33.4220   24.8350 H   0  0  0  0  0  0  0  0  0  0  0  0
  -23.8960  -36.1110   23.0210 C   0  0  0  0  0  1  0  0  0  0  0  0
  -25.1440  -35.7970   23.8600 C   0  0  0  0  0  3  0  0  0  0  0  0
  -27.1450  -36.8720   24.7960 C   0  0  0  0  0  1  0  0  0  0  0  0
  -26.0620  -36.9570   23.8220 N   0  0  0  0  0  0  0  0  0  0  0  0
  -25.5530  -37.8210   23.9870 H   0  0  0  0  0  0  0  0  0  0  0  0
  3  2  1  0
  3  1  1  0
  4  3  1  0
  4  1  1  0
  5 45  1  0
  5  6  1  0
  5  2  1  0
  6 15  1  0
  6  4  1  0
  7 15  1  0
  8 13  1  0
  9 10  1  0
  9  8  1  0
 11 10  1  0
 11 20  1  0
 11 12  1  0
 13  7  1  0
 13 12  1  0
 14  7  2  0
 15 16  1  0
 17 18  2  0
 18 37  1  0
 19 18  1  0
 19 22  1  0
 20 21  1  0
 20 17  1  0
 21 19  2  0
 22 23  1  0
 23 24  2  0
 25 28  1  0
 25 24  1  0
 26 25  2  0
 27 26  1  0
 27 22  2  0
 28 29  1  0
 29 30  1  0
 30 31  2  0
 32 31  1  0
 32 36  1  0
 33 32  2  0
 34 29  2  0
 34 33  1  0
 35 34  1  0
 37 38  1  0
 38 41  1  0
 38 40  1  0
 39 37  2  0
 42 17  1  0
 42 43  1  0
 44 42  1  0
 46 45  1  0
 46 47  1  0
 48 50  1  0
 48 47  1  0
 49 60  2  0
 50 55  1  0
 51 59  1  0
 51 61  1  0
 52 58  1  0
 52 54  1  0
 53 59  1  0
 54 55  2  0
 54 53  1  0
 56 50  2  0
 57 56  1  0
 57 52  2  0
 58 51  1  0
 59 49  1  0
 61 63  2  0
 62 61  1  0
 64 62  1  0
 65 74  2  0
 65 70  1  0
 66 62  1  0
 66 70  1  0
 67 66  1  0
 68 69  1  0
 68 67  1  0
 69 65  1  0
 70 71  2  0
 71 72  1  0
 73 72  2  0
 74 73  1  0
 75 49  1  0
 75 80  1  0
 75 76  1  0
 76 79  1  1
 76 77  1  0
 78 76  1  0
 80 83  1  0
 81 85  1  0
 81 80  1  0
 82 81  2  0
 85 84  1  0
 87 85  1  0
 87 88  1  0
 87 86  1  0
M  ISO  4   7 100  15 100  47 101  48 101
M  END
>  <TORSDO>  (66) 
F 19

>  <SCORE>  (66) 
-11.348

>  <name>  (66) 
65

>  <ligand_id>  (66) 
65

>  <original_smiles>  (66) 
[H]c1c([H])c([H])c2c(c1[H])C([H])([H])C([H])([H])C([H])([H])C2([H])N([H])C(=O)C1([H])N(C(=O)C([H])(N([H])C(=O)C([H])(N([H])C([H])([H])[H])C([H])([H])[H])C(C([H])([H])[H])(C([H])([H])[H])C([H])([H])[H])C([H])([H])c2c([H])c(OC([H])([H])C([H])([H])C([H])([H])C3([H])C([H])([H])C4([H])C([H])([H])C4([H])C3([H])N([H])C(=O)N3C([H])([H])C([H])([H])C([H])([H])C([H])(n4nc(-c5c([H])c([H])c(Oc6c([H])c([H])c(F)c([H])c6F)c([H])c5[H])c(C(=O)N([H])[H])c4N([H])[H])C3([H])[H])c([H])c([H])c2C1([H])[H]

>  <smiles>  (66) 
[H]c1c([H])c([H])c2c(c1[H])C([H])([H])C([H])([H])C([H])([H])C2([H])N([H])C(=O)C1([H])N(C(=O)C([H])(N([H])C(=O)C([H])(N([H])C([H])([H])[H])C([H])([H])[H])C(C([H])([H])[H])(C([H])([H])[H])C([H])([H])[H])C([H])([H])c2c([H])c(OC([H])([H])C([H])([H])C([H])([H])C3([H])C([H])([H])C4([H])C([H])([H])C4([H])C3([H])N([H])C(=O)N3C([H])([H])C([H])([H])C([H])([H])C([H])(n4nc(-c5c([H])c([H])c(Oc6c([H])c([H])c(F)c([H])c6F)c([H])c5[H])c(C(=O)N([H])[H])c4N([H])[H])C3([H])[H])c([H])c([H])c2C1([H])[H]

$$$$
66:0:0
     RDKit          3D

 89 98  0  0  1  0  0  0  0  0999 V2000
  -29.1860  -22.7620   18.4720 C   0  0  0  0  0  0  0  0  0  0  0  0
  -30.1590  -21.7200   19.1020 C   0  0  0  0  0  2  0  0  0  0  0  0
  -28.8730  -18.4350   18.5180 C   0  0  0  0  0  2  0  0  0  0  0  0
  -28.2970  -19.9280   18.5390 C   0  0  0  0  0  2  0  0  0  0  0  0
  -29.2260  -19.5440   20.5870 C   0  0  0  0  0  2  0  0  0  0  0  0
  -28.2190  -22.6280   19.6740 C   0  0  0  0  0  3  0  0  0  0  0  0
  -29.6800  -18.0710   19.8000 C   0  0  0  0  0  3  0  0  0  0  0  0
  -28.9240  -20.9320   19.6140 C   0  0  1  0  0  0  0  0  0  0  0  0
  -29.0990  -23.2890   17.3550 O   0  0  0  0  0  0  0  0  0  0  0  0
  -30.3870  -15.2250   20.1580 C   0  0  0  0  0  0  0  0  0  0  0  0
  -30.3650  -12.7810   19.3140 C   0  0  0  0  0  2  0  0  0  0  0  0
  -29.4120  -12.5870   18.1050 C   0  0  0  0  0  2  0  0  0  0  0  0
  -27.9590  -12.3550   18.5600 C   0  0  0  0  0  2  0  0  0  0  0  0
  -27.5440  -13.3120   19.7080 C   0  0  0  0  0  3  0  0  0  0  0  0
  -28.6200  -13.4190   20.8080 C   0  0  0  0  0  2  0  0  0  0  0  0
  -29.8380  -13.9170   20.1510 N   0  0  0  0  0  0  0  0  0  0  0  0
  -31.6020  -15.2470   19.9090 O   0  0  0  0  0  0  0  0  0  0  0  0
  -29.5790  -16.4600   20.2260 N   0  0  0  0  0  0  0  0  0  0  0  0
  -28.6260  -16.2050   20.4510 H   0  0  0  0  0  0  0  0  0  0  0  0
  -25.1920  -13.8690   20.5100 C   0  0  0  0  0  0  0  0  0  0  0  0
  -24.1300  -13.0880   20.8840 C   0  0  0  0  0  0  0  0  0  0  0  0
  -24.5990  -11.7410   20.8430 C   0  0  0  0  0  0  0  0  0  0  0  0
  -26.2290  -12.9950   20.2420 N   0  0  0  0  0  0  0  0  0  0  0  0
  -25.8850  -11.7100   20.5200 N   0  0  0  0  0  0  0  0  0  0  0  0
  -23.8760  -10.4750   21.0370 C   0  0  0  0  0  0  0  0  0  0  0  0
  -24.3210   -9.5040   21.9620 C   0  0  0  0  0  3  0  0  0  0  0  0
  -23.5930   -8.3070   22.1460 C   0  0  0  0  0  3  0  0  0  0  0  0
  -22.4060   -8.0740   21.4100 C   0  0  0  0  0  0  0  0  0  0  0  0
  -21.9830   -9.0340   20.4740 C   0  0  0  0  0  3  0  0  0  0  0  0
  -22.7100  -10.2230   20.2870 C   0  0  0  0  0  3  0  0  0  0  0  0
  -21.6540   -6.9290   21.5030 O   0  0  0  0  0  0  0  0  0  0  0  0
  -21.6290   -6.1750   22.6510 C   0  0  0  0  0  0  0  0  0  0  0  0
  -21.2400   -6.7240   23.8910 C   0  0  0  0  0  3  0  0  0  0  0  0
  -21.1570   -5.8990   25.0300 C   0  0  0  0  0  3  0  0  0  0  0  0
  -21.4590   -4.5260   24.9300 C   0  0  0  0  0  0  0  0  0  0  0  0
  -21.8400   -3.9780   23.6920 C   0  0  0  0  0  3  0  0  0  0  0  0
  -21.9220   -4.8010   22.5560 C   0  0  0  0  0  0  0  0  0  0  0  0
  -22.2710   -4.2650   21.3620 F   0  0  0  0  0  0  0  0  0  0  0  0
  -21.3730   -3.7310   26.0210 F   0  0  0  0  0  0  0  0  0  0  0  0
  -22.7360  -13.5640   21.1600 C   0  0  0  0  0  0  0  0  0  0  0  0
  -22.0110  -12.8690   22.0320 N   0  0  0  0  0  0  0  0  0  0  0  0
  -22.3010  -14.5890   20.6450 O   0  0  0  0  0  0  0  0  0  0  0  0
  -22.3790  -12.0330   22.4670 H   0  0  0  0  0  0  0  0  0  0  0  0
  -21.0780  -13.1720   22.2680 H   0  0  0  0  0  0  0  0  0  0  0  0
  -25.3590  -15.2380   20.3410 N   0  0  0  0  0  0  0  0  0  0  0  0
  -24.6190  -15.9090   20.5120 H   0  0  0  0  0  0  0  0  0  0  0  0
  -26.1980  -15.6640   19.9770 H   0  0  0  0  0  0  0  0  0  0  0  0
  -28.2780  -24.2420   20.4880 C   0  0  0  0  0  2  0  0  0  0  0  0
  -28.2400  -25.8600   20.1060 O   0  0  0  0  0  0  0  0  0  0  0  0
  -24.6470  -31.8200   23.1810 C   0  0  0  0  0  0  0  0  0  0  0  0
  -27.1930  -26.9190   20.1660 C   0  0  0  0  0  0  0  0  0  0  0  0
  -23.4590  -30.4130   21.5500 C   0  0  0  0  0  3  0  0  0  0  0  0
  -24.9010  -28.8030   20.1360 C   0  0  0  0  0  0  0  0  0  0  0  0
  -26.0250  -30.6190   21.4040 C   0  0  0  0  0  2  0  0  0  0  0  0
  -26.0910  -29.2060   20.7580 C   0  0  0  0  0  0  0  0  0  0  0  0
  -27.2280  -28.2840   20.7410 C   0  0  0  0  0  3  0  0  0  0  0  0
  -25.9800  -26.6770   19.4890 C   0  0  0  0  0  3  0  0  0  0  0  0
  -24.8730  -27.5660   19.4730 C   0  0  0  0  0  3  0  0  0  0  0  0
  -23.6850  -29.7230   20.1800 C   0  0  0  0  0  2  0  0  0  0  0  0
  -24.7360  -30.9750   22.1030 N   0  0  0  0  0  0  0  0  0  0  0  0
  -23.5570  -32.1170   23.6960 O   0  0  0  0  0  0  0  0  0  0  0  0
  -22.7560  -29.4320   22.5240 C   0  0  0  0  0  0  0  0  0  0  0  0
  -21.4230  -29.2820   22.4040 N   0  0  0  0  0  0  0  0  0  0  0  0
  -23.4140  -28.8060   23.3630 O   0  0  0  0  0  0  0  0  0  0  0  0
  -20.9340  -29.8280   21.7050 H   0  0  0  0  0  0  0  0  0  0  0  0
  -18.0430  -28.0930   22.9210 C   0  0  0  0  0  0  0  0  0  0  0  0
  -20.6050  -28.3520   23.1840 C   0  0  0  0  0  3  0  0  0  0  0  0
  -20.7080  -26.9210   22.6070 C   0  0  0  0  0  2  0  0  0  0  0  0
  -19.5990  -26.6000   21.5990 C   0  0  0  0  0  2  0  0  0  0  0  0
  -18.2200  -26.7450   22.2450 C   0  0  0  0  0  2  0  0  0  0  0  0
  -19.1630  -28.8530   23.3500 C   0  0  0  0  0  0  0  0  0  0  0  0
  -18.9400  -30.1130   23.9450 C   0  0  0  0  0  3  0  0  0  0  0  0
  -17.6330  -30.6100   24.1180 C   0  0  0  0  0  3  0  0  0  0  0  0
  -16.5300  -29.8460   23.6970 C   0  0  0  0  0  3  0  0  0  0  0  0
  -16.7350  -28.5890   23.1030 C   0  0  0  0  0  3  0  0  0  0  0  0
  -25.9140  -32.4730   23.8060 C   0  0  0  0  0  3  0  0  0  0  0  0
  -25.5830  -33.8670   24.1410 N   0  0  0  0  0  0  0  0  0  0  0  0
  -25.9210  -34.9350   23.4080 C   0  0  0  0  0  0  0  0  0  0  0  0
  -26.5980  -34.8470   22.3770 O   0  0  0  0  0  0  0  0  0  0  0  0
  -24.9610  -33.9980   24.9280 H   0  0  0  0  0  0  0  0  0  0  0  0
  -24.1860  -36.7440   23.0810 C   0  0  0  0  0  1  0  0  0  0  0  0
  -25.4320  -36.3230   23.8810 C   0  0  0  0  0  3  0  0  0  0  0  0
  -27.5690  -37.2190   24.7070 C   0  0  0  0  0  1  0  0  0  0  0  0
  -26.4620  -37.3810   23.7680 N   0  0  0  0  0  0  0  0  0  0  0  0
  -26.0530  -38.2970   23.9130 H   0  0  0  0  0  0  0  0  0  0  0  0
  -26.4110  -31.7110   25.0930 C   0  0  1  0  0  0  0  0  0  0  0  0
  -25.3040  -31.4870   26.1520 C   0  0  0  0  0  1  0  0  0  0  0  0
  -26.9940  -30.3260   24.7220 C   0  0  0  0  0  1  0  0  0  0  0  0
  -27.5530  -32.5090   25.7670 C   0  0  0  0  0  1  0  0  0  0  0  0
  1  2  1  0
  1  6  1  0
  8  2  1  6
  3  4  1  0
  3  7  1  0
  6 48  1  0
  7 18  1  0
  7  5  1  0
  8  4  1  0
  8  6  1  0
  8  5  1  0
  9  1  2  0
 10 18  1  0
 11 16  1  0
 12 13  1  0
 12 11  1  0
 14 13  1  0
 14 23  1  0
 14 15  1  0
 16 10  1  0
 16 15  1  0
 17 10  2  0
 18 19  1  0
 20 21  2  0
 21 40  1  0
 22 21  1  0
 22 25  1  0
 23 20  1  0
 23 24  1  0
 24 22  2  0
 25 26  1  0
 26 27  2  0
 28 31  1  0
 28 27  1  0
 29 28  2  0
 30 29  1  0
 30 25  2  0
 31 32  1  0
 32 33  1  0
 33 34  2  0
 35 34  1  0
 35 39  1  0
 36 35  2  0
 37 32  2  0
 37 36  1  0
 38 37  1  0
 40 41  1  0
 41 44  1  0
 41 43  1  0
 42 40  2  0
 45 20  1  0
 45 46  1  0
 47 45  1  0
 49 51  1  0
 49 48  1  0
 50 61  2  0
 51 56  1  0
 52 60  1  0
 52 62  1  0
 53 59  1  0
 53 55  1  0
 54 60  1  0
 55 54  1  0
 56 55  2  0
 57 51  2  0
 58 57  1  0
 58 53  2  0
 59 52  1  0
 60 50  1  0
 62 64  2  0
 63 62  1  0
 65 63  1  0
 66 75  2  0
 66 71  1  0
 67 63  1  0
 67 71  1  0
 68 67  1  0
 69 70  1  0
 69 68  1  0
 70 66  1  0
 71 72  2  0
 72 73  1  0
 74 73  2  0
 75 74  1  0
 76 50  1  0
 76 77  1  0
 76 86  1  0
 77 80  1  0
 78 82  1  0
 78 77  1  0
 79 78  2  0
 82 81  1  0
 84 82  1  0
 84 85  1  0
 84 83  1  0
 86 89  1  1
 86 87  1  0
 88 86  1  0
M  ISO  4  10 100  18 100  48 101  49 101
M  END
>  <TORSDO>  (67) 
F 17

>  <SCORE>  (67) 
-16.172

>  <name>  (67) 
66

>  <ligand_id>  (67) 
66

>  <original_smiles>  (67) 
[H]c1c([H])c([H])c2c(c1[H])C([H])([H])C([H])([H])C([H])([H])C2([H])N([H])C(=O)C1([H])N(C(=O)C([H])(N([H])C(=O)C([H])(N([H])C([H])([H])[H])C([H])([H])[H])C(C([H])([H])[H])(C([H])([H])[H])C([H])([H])[H])C([H])([H])c2c([H])c(OC([H])([H])C3([H])C(=O)C([H])([H])C34C([H])([H])C([H])([H])C([H])(N([H])C(=O)N3C([H])([H])C([H])([H])C([H])([H])C([H])(n5nc(-c6c([H])c([H])c(Oc7c([H])c([H])c(F)c([H])c7F)c([H])c6[H])c(C(=O)N([H])[H])c5N([H])[H])C3([H])[H])C4([H])[H])c([H])c([H])c2C1([H])[H]

>  <smiles>  (67) 
[H]c1c([H])c([H])c2c(c1[H])C([H])([H])C([H])([H])C([H])([H])C2([H])N([H])C(=O)C1([H])N(C(=O)C([H])(N([H])C(=O)C([H])(N([H])C([H])([H])[H])C([H])([H])[H])C(C([H])([H])[H])(C([H])([H])[H])C([H])([H])[H])C([H])([H])c2c([H])c(OC([H])([H])C3([H])C(=O)C([H])([H])C34C([H])([H])C([H])([H])C([H])(N([H])C(=O)N3C([H])([H])C([H])([H])C([H])([H])C([H])(n5nc(-c6c([H])c([H])c(Oc7c([H])c([H])c(F)c([H])c7F)c([H])c6[H])c(C(=O)N([H])[H])c5N([H])[H])C3([H])[H])C4([H])[H])c([H])c([H])c2C1([H])[H]

$$$$
67:0:0
     RDKit          3D

 89 99  0  0  1  0  0  0  0  0999 V2000
  -30.6390  -20.3430   20.4260 C   0  0  0  0  0  1  0  0  0  0  0  0
  -29.1680  -20.2630   20.5010 N   0  0  2  0  0  4  0  0  0  0  0  0
  -28.9660  -20.2610   21.4900 H   0  0  0  0  0  0  0  0  0  0  0  0
  -30.5470  -15.0410   20.2780 C   0  0  0  0  0  0  0  0  0  0  0  0
  -30.3450  -12.6870   19.3560 C   0  0  0  0  0  2  0  0  0  0  0  0
  -29.4130  -12.5810   18.1300 C   0  0  0  0  0  2  0  0  0  0  0  0
  -27.9660  -12.3530   18.5920 C   0  0  0  0  0  2  0  0  0  0  0  0
  -27.5480  -13.3060   19.7390 C   0  0  0  0  0  3  0  0  0  0  0  0
  -28.6140  -13.4220   20.8500 C   0  0  0  0  0  2  0  0  0  0  0  0
  -29.8610  -13.8290   20.1940 N   0  0  0  0  0  0  0  0  0  0  0  0
  -31.7650  -14.9610   20.0760 O   0  0  0  0  0  0  0  0  0  0  0  0
  -28.0050  -17.1130   19.1210 C   0  0  0  0  0  2  0  0  0  0  0  0
  -30.4330  -17.2430   19.0040 C   0  0  0  0  0  2  0  0  0  0  0  0
  -29.1570  -18.0950   18.7740 C   0  0  1  0  0  0  0  0  0  0  0  0
  -28.7520  -17.2270   20.4840 C   0  0  1  0  0  0  0  0  0  0  0  0
  -28.5940  -18.8550   20.0050 C   0  0  0  0  0  3  0  0  0  0  0  0
  -29.9590  -16.3480   20.0710 N   0  0  0  0  0  0  0  0  0  0  0  0
  -25.1840  -13.8820   20.5150 C   0  0  0  0  0  0  0  0  0  0  0  0
  -24.1250  -13.1030   20.8870 C   0  0  0  0  0  0  0  0  0  0  0  0
  -24.5940  -11.7530   20.8520 C   0  0  0  0  0  0  0  0  0  0  0  0
  -26.2250  -13.0060   20.2620 N   0  0  0  0  0  0  0  0  0  0  0  0
  -25.8830  -11.7220   20.5360 N   0  0  0  0  0  0  0  0  0  0  0  0
  -23.8770  -10.4880   21.0420 C   0  0  0  0  0  0  0  0  0  0  0  0
  -24.3230   -9.5160   21.9670 C   0  0  0  0  0  3  0  0  0  0  0  0
  -23.6000   -8.3180   22.1470 C   0  0  0  0  0  3  0  0  0  0  0  0
  -22.4210   -8.0780   21.4030 C   0  0  0  0  0  0  0  0  0  0  0  0
  -21.9950   -9.0390   20.4660 C   0  0  0  0  0  3  0  0  0  0  0  0
  -22.7180  -10.2290   20.2840 C   0  0  0  0  0  3  0  0  0  0  0  0
  -21.6720   -6.9300   21.4930 O   0  0  0  0  0  0  0  0  0  0  0  0
  -21.6430   -6.1780   22.6410 C   0  0  0  0  0  0  0  0  0  0  0  0
  -21.2270   -6.7210   23.8770 C   0  0  0  0  0  3  0  0  0  0  0  0
  -21.1410   -5.8970   25.0160 C   0  0  0  0  0  3  0  0  0  0  0  0
  -21.4630   -4.5290   24.9200 C   0  0  0  0  0  0  0  0  0  0  0  0
  -21.8720   -3.9850   23.6880 C   0  0  0  0  0  3  0  0  0  0  0  0
  -21.9570   -4.8080   22.5520 C   0  0  0  0  0  0  0  0  0  0  0  0
  -22.3330   -4.2750   21.3630 F   0  0  0  0  0  0  0  0  0  0  0  0
  -21.3760   -3.7320   26.0100 F   0  0  0  0  0  0  0  0  0  0  0  0
  -22.7270  -13.5770   21.1620 C   0  0  0  0  0  0  0  0  0  0  0  0
  -22.0010  -12.8780   22.0280 N   0  0  0  0  0  0  0  0  0  0  0  0
  -22.2860  -14.6010   20.6420 O   0  0  0  0  0  0  0  0  0  0  0  0
  -22.3720  -12.0530   22.4750 H   0  0  0  0  0  0  0  0  0  0  0  0
  -21.0630  -13.1780   22.2510 H   0  0  0  0  0  0  0  0  0  0  0  0
  -25.3450  -15.2530   20.3440 N   0  0  0  0  0  0  0  0  0  0  0  0
  -24.5830  -15.9110   20.4670 H   0  0  0  0  0  0  0  0  0  0  0  0
  -26.1980  -15.6860   20.0180 H   0  0  0  0  0  0  0  0  0  0  0  0
  -28.4650  -21.6190   19.9950 C   0  0  0  0  0  2  0  0  0  0  0  0
  -28.8010  -23.2180   20.5010 C   0  0  0  0  0  3  0  0  0  0  0  0
  -27.9490  -24.6230   20.0340 C   0  0  0  0  0  3  0  0  0  0  0  0
  -28.2100  -26.1420   20.3480 O   0  0  0  0  0  0  0  0  0  0  0  0
  -24.6380  -31.9200   23.2740 C   0  0  0  0  0  0  0  0  0  0  0  0
  -27.1770  -27.1580   20.2570 C   0  0  0  0  0  0  0  0  0  0  0  0
  -23.4310  -30.5260   21.6380 C   0  0  0  0  0  3  0  0  0  0  0  0
  -24.8680  -28.9380   20.2180 C   0  0  0  0  0  0  0  0  0  0  0  0
  -25.9890  -30.7660   21.4790 C   0  0  0  0  0  2  0  0  0  0  0  0
  -26.0530  -29.3710   20.8280 C   0  0  0  0  0  0  0  0  0  0  0  0
  -27.2080  -28.4980   20.8300 C   0  0  0  0  0  3  0  0  0  0  0  0
  -25.9720  -26.8380   19.5960 C   0  0  0  0  0  3  0  0  0  0  0  0
  -24.8430  -27.6850   19.5860 C   0  0  0  0  0  3  0  0  0  0  0  0
  -23.6490  -29.8450   20.2620 C   0  0  0  0  0  2  0  0  0  0  0  0
  -24.7050  -31.0940   22.1840 N   0  0  0  0  0  0  0  0  0  0  0  0
  -23.5540  -32.2140   23.7980 O   0  0  0  0  0  0  0  0  0  0  0  0
  -22.7460  -29.5270   22.6040 C   0  0  0  0  0  0  0  0  0  0  0  0
  -21.4180  -29.3600   22.4750 N   0  0  0  0  0  0  0  0  0  0  0  0
  -23.4130  -28.9040   23.4350 O   0  0  0  0  0  0  0  0  0  0  0  0
  -20.9380  -29.9110   21.7770 H   0  0  0  0  0  0  0  0  0  0  0  0
  -18.0310  -28.1690   22.9730 C   0  0  0  0  0  0  0  0  0  0  0  0
  -20.5890  -28.4300   23.2500 C   0  0  0  0  0  3  0  0  0  0  0  0
  -20.6920  -26.9930   22.6870 C   0  0  0  0  0  2  0  0  0  0  0  0
  -19.5940  -26.6630   21.6710 C   0  0  0  0  0  2  0  0  0  0  0  0
  -18.2100  -26.8150   22.3080 C   0  0  0  0  0  2  0  0  0  0  0  0
  -19.1490  -28.9340   23.4010 C   0  0  0  0  0  0  0  0  0  0  0  0
  -18.9270  -30.2000   23.9860 C   0  0  0  0  0  3  0  0  0  0  0  0
  -17.6210  -30.6990   24.1460 C   0  0  0  0  0  3  0  0  0  0  0  0
  -16.5190  -29.9330   23.7310 C   0  0  0  0  0  3  0  0  0  0  0  0
  -16.7240  -28.6680   23.1500 C   0  0  0  0  0  3  0  0  0  0  0  0
  -25.9180  -32.5510   23.8990 C   0  0  0  0  0  3  0  0  0  0  0  0
  -26.4220  -31.7860   25.1860 C   0  0  1  0  0  0  0  0  0  0  0  0
  -25.3210  -31.5670   26.2490 C   0  0  0  0  0  1  0  0  0  0  0  0
  -26.9970  -30.4010   24.8140 C   0  0  0  0  0  1  0  0  0  0  0  0
  -27.5750  -32.5800   25.8460 C   0  0  0  0  0  1  0  0  0  0  0  0
  -25.6140  -33.9530   24.2260 N   0  0  0  0  0  0  0  0  0  0  0  0
  -25.9300  -35.0040   23.4590 C   0  0  0  0  0  0  0  0  0  0  0  0
  -26.5790  -34.8970   22.4140 O   0  0  0  0  0  0  0  0  0  0  0  0
  -25.0350  -34.1120   25.0380 H   0  0  0  0  0  0  0  0  0  0  0  0
  -24.1860  -36.7940   23.1510 C   0  0  0  0  0  1  0  0  0  0  0  0
  -25.4560  -36.3960   23.9220 C   0  0  0  0  0  3  0  0  0  0  0  0
  -27.6150  -37.2940   24.6760 C   0  0  0  0  0  1  0  0  0  0  0  0
  -26.4820  -37.4520   23.7680 N   0  0  0  0  0  0  0  0  0  0  0  0
  -26.0780  -38.3720   23.9210 H   0  0  0  0  0  0  0  0  0  0  0  0
  1  2  1  0
  2  3  1  1
  5 10  1  0
  6  7  1  0
  6  5  1  0
  8  7  1  0
  8 21  1  0
  8  9  1  0
 10  4  1  0
 10  9  1  0
 11  4  2  0
 13 17  1  0
 14 13  1  1
 14 12  1  0
 14 16  1  0
 14 15  1  0
 15 12  1  6
 16 15  1  0
 16  2  1  0
 17  4  1  0
 17 15  1  0
 18 19  2  0
 19 38  1  0
 20 19  1  0
 20 23  1  0
 21 18  1  0
 21 22  1  0
 22 20  2  0
 23 24  1  0
 24 25  2  0
 26 29  1  0
 26 25  1  0
 27 26  2  0
 28 27  1  0
 28 23  2  0
 29 30  1  0
 30 31  1  0
 31 32  2  0
 33 32  1  0
 33 37  1  0
 34 33  2  0
 35 30  2  0
 35 34  1  0
 36 35  1  0
 38 39  1  0
 39 42  1  0
 39 41  1  0
 40 38  2  0
 43 44  1  0
 43 18  1  0
 45 43  1  0
 46 47  1  0
 46  2  1  0
 48 49  1  0
 48 47  2  0
 50 61  2  0
 51 49  1  0
 51 56  1  0
 52 60  1  0
 52 62  1  0
 53 59  1  0
 53 55  1  0
 54 60  1  0
 55 56  2  0
 55 54  1  0
 57 51  2  0
 58 57  1  0
 58 53  2  0
 59 52  1  0
 60 50  1  0
 62 64  2  0
 63 62  1  0
 65 63  1  0
 66 75  2  0
 66 71  1  0
 67 63  1  0
 67 71  1  0
 68 67  1  0
 69 70  1  0
 69 68  1  0
 70 66  1  0
 71 72  2  0
 72 73  1  0
 74 73  2  0
 75 74  1  0
 76 50  1  0
 76 81  1  0
 76 77  1  0
 77 80  1  1
 77 78  1  0
 79 77  1  0
 81 84  1  0
 82 86  1  0
 82 81  1  0
 83 82  2  0
 86 85  1  0
 88 89  1  0
 88 86  1  0
 88 87  1  0
M  ISO  4   4 100  17 100  48 101  49 101
M  END
>  <TORSDO>  (68) 
F 19

>  <SCORE>  (68) 
-15.841

>  <name>  (68) 
67

>  <ligand_id>  (68) 
67

>  <original_smiles>  (68) 
[H]c1c([H])c([H])c2c(c1[H])C([H])([H])C([H])([H])C([H])([H])C2([H])N([H])C(=O)C1([H])N(C(=O)C([H])(N([H])C(=O)C([H])(N([H])C([H])([H])[H])C([H])([H])[H])C(C([H])([H])[H])(C([H])([H])[H])C([H])([H])[H])C([H])([H])c2c([H])c(OC([H])([H])C([H])([H])C([H])([H])[N+]([H])(C([H])([H])[H])C3([H])C4([H])N(C(=O)N5C([H])([H])C([H])([H])C([H])([H])C([H])(n6nc(-c7c([H])c([H])c(Oc8c([H])c([H])c(F)c([H])c8F)c([H])c7[H])c(C(=O)N([H])[H])c6N([H])[H])C5([H])[H])C([H])([H])C3([H])C4([H])[H])c([H])c([H])c2C1([H])[H]

>  <smiles>  (68) 
[H]c1c([H])c([H])c2c(c1[H])C([H])([H])C([H])([H])C([H])([H])C2([H])N([H])C(=O)C1([H])N(C(=O)C([H])(N([H])C(=O)C([H])(N([H])C([H])([H])[H])C([H])([H])[H])C(C([H])([H])[H])(C([H])([H])[H])C([H])([H])[H])C([H])([H])c2c([H])c(OC([H])([H])C([H])([H])C([H])([H])[N+]([H])(C([H])([H])[H])C3([H])C4([H])N(C(=O)N5C([H])([H])C([H])([H])C([H])([H])C([H])(n6nc(-c7c([H])c([H])c(Oc8c([H])c([H])c(F)c([H])c8F)c([H])c7[H])c(C(=O)N([H])[H])c6N([H])[H])C5([H])[H])C([H])([H])C3([H])C4([H])[H])c([H])c([H])c2C1([H])[H]

$$$$
68:0:0
     RDKit          3D

 88 98  0  0  1  0  0  0  0  0999 V2000
  -29.7040  -23.2470   21.3960 C   0  0  0  0  0  2  0  0  0  0  0  0
  -28.7770  -23.0840   20.4410 C   0  0  0  0  0  0  0  0  0  0  0  0
  -30.5150  -15.1700   20.2190 C   0  0  0  0  0  0  0  0  0  0  0  0
  -30.3840  -12.7770   19.3060 C   0  0  0  0  0  2  0  0  0  0  0  0
  -29.4500  -12.6390   18.0830 C   0  0  0  0  0  2  0  0  0  0  0  0
  -28.0020  -12.3940   18.5390 C   0  0  0  0  0  2  0  0  0  0  0  0
  -27.5820  -13.3380   19.6950 C   0  0  0  0  0  3  0  0  0  0  0  0
  -28.6480  -13.4460   20.8060 C   0  0  0  0  0  2  0  0  0  0  0  0
  -29.8800  -13.9110   20.1570 N   0  0  0  0  0  0  0  0  0  0  0  0
  -31.7170  -15.1320   19.9320 O   0  0  0  0  0  0  0  0  0  0  0  0
  -30.6750  -19.3710   20.1620 C   0  0  0  0  0  2  0  0  0  0  0  0
  -28.7070  -17.1110   20.9330 C   0  0  0  0  0  2  0  0  0  0  0  0
  -28.6180  -21.5300   19.8350 C   0  0  0  0  0  3  0  0  0  0  0  0
  -29.6860  -20.4380   19.5390 C   0  0  0  0  0  3  0  0  0  0  0  0
  -28.7710  -18.3570   19.9690 C   0  0  0  0  0  3  0  0  0  0  0  0
  -28.5010  -19.9510   20.3700 C   0  0  0  0  0  3  0  0  0  0  0  0
  -30.2450  -17.9070   19.6450 C   0  0  0  0  0  3  0  0  0  0  0  0
  -29.8550  -16.4830   20.2280 N   0  0  0  0  0  0  0  0  0  0  0  0
  -25.2110  -13.8780   20.4700 C   0  0  0  0  0  0  0  0  0  0  0  0
  -24.1620  -13.0910   20.8520 C   0  0  0  0  0  0  0  0  0  0  0  0
  -24.6410  -11.7450   20.8130 C   0  0  0  0  0  0  0  0  0  0  0  0
  -26.2610  -13.0140   20.2170 N   0  0  0  0  0  0  0  0  0  0  0  0
  -25.9300  -11.7250   20.4910 N   0  0  0  0  0  0  0  0  0  0  0  0
  -23.9260  -10.4760   21.0060 C   0  0  0  0  0  0  0  0  0  0  0  0
  -24.3680   -9.5140   21.9420 C   0  0  0  0  0  3  0  0  0  0  0  0
  -23.6500   -8.3120   22.1240 C   0  0  0  0  0  3  0  0  0  0  0  0
  -22.4790   -8.0630   21.3720 C   0  0  0  0  0  0  0  0  0  0  0  0
  -22.0570   -9.0140   20.4250 C   0  0  0  0  0  3  0  0  0  0  0  0
  -22.7740  -10.2070   20.2410 C   0  0  0  0  0  3  0  0  0  0  0  0
  -21.7320   -6.9130   21.4640 O   0  0  0  0  0  0  0  0  0  0  0  0
  -21.6830   -6.1780   22.6220 C   0  0  0  0  0  0  0  0  0  0  0  0
  -21.2450   -6.7370   23.8420 C   0  0  0  0  0  3  0  0  0  0  0  0
  -21.1430   -5.9280   24.9910 C   0  0  0  0  0  3  0  0  0  0  0  0
  -21.4690   -4.5600   24.9210 C   0  0  0  0  0  0  0  0  0  0  0  0
  -21.9010   -4.0000   23.7050 C   0  0  0  0  0  3  0  0  0  0  0  0
  -22.0030   -4.8070   22.5580 C   0  0  0  0  0  0  0  0  0  0  0  0
  -22.3990   -4.2570   21.3850 F   0  0  0  0  0  0  0  0  0  0  0  0
  -21.3640   -3.7810   26.0220 F   0  0  0  0  0  0  0  0  0  0  0  0
  -22.7630  -13.5560   21.1330 C   0  0  0  0  0  0  0  0  0  0  0  0
  -22.0520  -12.8580   22.0120 N   0  0  0  0  0  0  0  0  0  0  0  0
  -22.3110  -14.5730   20.6110 O   0  0  0  0  0  0  0  0  0  0  0  0
  -22.4320  -12.0360   22.4570 H   0  0  0  0  0  0  0  0  0  0  0  0
  -21.1130  -13.1500   22.2430 H   0  0  0  0  0  0  0  0  0  0  0  0
  -25.3540  -15.2490   20.2870 N   0  0  0  0  0  0  0  0  0  0  0  0
  -24.5740  -15.8900   20.3930 H   0  0  0  0  0  0  0  0  0  0  0  0
  -26.1790  -15.6910   19.9020 H   0  0  0  0  0  0  0  0  0  0  0  0
  -27.9070  -24.4660   19.9700 C   0  0  0  0  0  2  0  0  0  0  0  0
  -28.1840  -26.0110   20.3160 O   0  0  0  0  0  0  0  0  0  0  0  0
  -24.6600  -31.8940   23.2730 C   0  0  0  0  0  0  0  0  0  0  0  0
  -27.1760  -27.0780   20.2320 C   0  0  0  0  0  0  0  0  0  0  0  0
  -23.4470  -30.5070   21.6400 C   0  0  0  0  0  3  0  0  0  0  0  0
  -24.8770  -28.9130   20.2020 C   0  0  0  0  0  0  0  0  0  0  0  0
  -26.0070  -30.7270   21.4730 C   0  0  0  0  0  2  0  0  0  0  0  0
  -26.0670  -29.3270   20.8140 C   0  0  0  0  0  0  0  0  0  0  0  0
  -27.2130  -28.4270   20.8110 C   0  0  0  0  0  3  0  0  0  0  0  0
  -25.9620  -26.7990   19.5640 C   0  0  0  0  0  3  0  0  0  0  0  0
  -24.8450  -27.6660   19.5580 C   0  0  0  0  0  3  0  0  0  0  0  0
  -23.6600  -29.8280   20.2590 C   0  0  0  0  0  2  0  0  0  0  0  0
  -24.7250  -31.0680   22.1820 N   0  0  0  0  0  0  0  0  0  0  0  0
  -23.5760  -32.1860   23.8030 O   0  0  0  0  0  0  0  0  0  0  0  0
  -22.7600  -29.5070   22.6060 C   0  0  0  0  0  0  0  0  0  0  0  0
  -21.4320  -29.3370   22.4800 N   0  0  0  0  0  0  0  0  0  0  0  0
  -23.4280  -28.8870   23.4380 O   0  0  0  0  0  0  0  0  0  0  0  0
  -20.9480  -29.8880   21.7850 H   0  0  0  0  0  0  0  0  0  0  0  0
  -18.0560  -28.1060   22.9670 C   0  0  0  0  0  0  0  0  0  0  0  0
  -20.6100  -28.4000   23.2530 C   0  0  0  0  0  3  0  0  0  0  0  0
  -20.7320  -26.9620   22.6970 C   0  0  0  0  0  2  0  0  0  0  0  0
  -19.6440  -26.6150   21.6760 C   0  0  0  0  0  2  0  0  0  0  0  0
  -18.2550  -26.7510   22.3060 C   0  0  0  0  0  2  0  0  0  0  0  0
  -19.1630  -28.8860   23.3960 C   0  0  0  0  0  0  0  0  0  0  0  0
  -18.9220  -30.1500   23.9780 C   0  0  0  0  0  3  0  0  0  0  0  0
  -17.6100  -30.6360   24.1300 C   0  0  0  0  0  3  0  0  0  0  0  0
  -16.5180  -29.8540   23.7140 C   0  0  0  0  0  3  0  0  0  0  0  0
  -16.7420  -28.5910   23.1380 C   0  0  0  0  0  3  0  0  0  0  0  0
  -25.9410  -32.5260   23.8960 C   0  0  0  0  0  3  0  0  0  0  0  0
  -25.6360  -33.9280   24.2280 N   0  0  0  0  0  0  0  0  0  0  0  0
  -25.9500  -34.9820   23.4630 C   0  0  0  0  0  0  0  0  0  0  0  0
  -26.5920  -34.8770   22.4150 O   0  0  0  0  0  0  0  0  0  0  0  0
  -25.0610  -34.0840   25.0430 H   0  0  0  0  0  0  0  0  0  0  0  0
  -24.2030  -36.7740   23.1780 C   0  0  0  0  0  1  0  0  0  0  0  0
  -25.4800  -36.3730   23.9340 C   0  0  0  0  0  3  0  0  0  0  0  0
  -27.6460  -37.2730   24.6650 C   0  0  0  0  0  1  0  0  0  0  0  0
  -26.5040  -37.4290   23.7680 N   0  0  0  0  0  0  0  0  0  0  0  0
  -26.1020  -38.3490   23.9240 H   0  0  0  0  0  0  0  0  0  0  0  0
  -26.4480  -31.7600   25.1810 C   0  0  1  0  0  0  0  0  0  0  0  0
  -25.3510  -31.5410   26.2490 C   0  0  0  0  0  1  0  0  0  0  0  0
  -27.0200  -30.3740   24.8080 C   0  0  0  0  0  1  0  0  0  0  0  0
  -27.6040  -32.5500   25.8390 C   0  0  0  0  0  1  0  0  0  0  0  0
  2  1  2  0
  3 18  1  0
  4  9  1  0
  5  6  1  0
  5  4  1  0
  7  6  1  0
  7 22  1  0
  7  8  1  0
  9  3  1  0
  9  8  1  0
 10  3  2  0
 13 16  1  0
 13  2  1  0
 14 13  1  0
 14 11  1  0
 14 16  1  0
 15 16  1  0
 15 12  1  0
 17 15  1  0
 17 11  1  0
 17 18  1  0
 18 12  1  0
 19 20  2  0
 20 39  1  0
 21 20  1  0
 21 24  1  0
 22 19  1  0
 22 23  1  0
 23 21  2  0
 24 25  1  0
 25 26  2  0
 27 30  1  0
 27 26  1  0
 28 27  2  0
 29 28  1  0
 29 24  2  0
 30 31  1  0
 31 32  1  0
 32 33  2  0
 34 33  1  0
 34 38  1  0
 35 34  2  0
 36 31  2  0
 36 35  1  0
 37 36  1  0
 39 40  1  0
 40 43  1  0
 40 42  1  0
 41 39  2  0
 44 45  1  0
 44 19  1  0
 46 44  1  0
 47 48  1  0
 47  2  1  0
 49 60  2  0
 49 75  1  0
 50 48  1  0
 50 55  1  0
 51 59  1  0
 51 61  1  0
 52 58  1  0
 52 54  1  0
 53 59  1  0
 54 53  1  0
 55 54  2  0
 56 50  2  0
 57 56  1  0
 57 52  2  0
 58 51  1  0
 59 49  1  0
 61 63  2  0
 62 61  1  0
 62 66  1  0
 64 62  1  0
 65 74  2  0
 65 70  1  0
 66 70  1  0
 67 66  1  0
 68 69  1  0
 68 67  1  0
 69 65  1  0
 70 71  2  0
 71 72  1  0
 73 72  2  0
 74 73  1  0
 75 76  1  0
 75 85  1  0
 76 79  1  0
 77 81  1  0
 77 76  1  0
 78 77  2  0
 80 81  1  0
 83 84  1  0
 83 81  1  0
 83 82  1  0
 85 88  1  1
 85 86  1  0
 87 85  1  0
M  ISO  4   3 100  18 100  47 101  48 101
M  END
>  <TORSDO>  (69) 
F 17

>  <SCORE>  (69) 
-15.720

>  <name>  (69) 
68

>  <ligand_id>  (69) 
68

>  <original_smiles>  (69) 
[H]C([H])=C(C([H])([H])Oc1c([H])c([H])c2c(c1[H])C([H])([H])N(C(=O)C([H])(N([H])C(=O)C([H])(N([H])C([H])([H])[H])C([H])([H])[H])C(C([H])([H])[H])(C([H])([H])[H])C([H])([H])[H])C([H])(C(=O)N([H])C1([H])c3c([H])c([H])c([H])c([H])c3C([H])([H])C([H])([H])C1([H])[H])C2([H])[H])C1([H])C2([H])C([H])([H])C3([H])N(C(=O)N4C([H])([H])C([H])([H])C([H])([H])C([H])(n5nc(-c6c([H])c([H])c(Oc7c([H])c([H])c(F)c([H])c7F)c([H])c6[H])c(C(=O)N([H])[H])c5N([H])[H])C4([H])[H])C([H])([H])C3([H])C12[H]

>  <smiles>  (69) 
[H]C([H])=C(C([H])([H])Oc1c([H])c([H])c2c(c1[H])C([H])([H])N(C(=O)C([H])(N([H])C(=O)C([H])(N([H])C([H])([H])[H])C([H])([H])[H])C(C([H])([H])[H])(C([H])([H])[H])C([H])([H])[H])C([H])(C(=O)N([H])C1([H])c3c([H])c([H])c([H])c([H])c3C([H])([H])C([H])([H])C1([H])[H])C2([H])[H])C1([H])C2([H])C([H])([H])C3([H])N(C(=O)N4C([H])([H])C([H])([H])C([H])([H])C([H])(n5nc(-c6c([H])c([H])c(Oc7c([H])c([H])c(F)c([H])c7F)c([H])c6[H])c(C(=O)N([H])[H])c5N([H])[H])C4([H])[H])C([H])([H])C3([H])C12[H]

$$$$
69:0:0
     RDKit          3D

 90 98  0  0  1  0  0  0  0  0999 V2000
  -28.5000  -22.8260   19.6460 C   0  0  0  0  0  0  0  0  0  0  0  0
  -27.0970  -22.5610   19.1130 C   0  0  0  0  0  2  0  0  0  0  0  0
  -27.0380  -21.2860   18.2430 C   0  0  0  0  0  2  0  0  0  0  0  0
  -28.0520  -20.2020   18.6670 C   0  0  0  0  0  2  0  0  0  0  0  0
  -28.6820  -20.4890   20.0520 C   0  0  0  0  0  3  0  0  0  0  0  0
  -29.2380  -21.8610   20.0740 N   0  0  0  0  0  0  0  0  0  0  0  0
  -28.9530  -24.2980   19.5550 C   0  0  0  0  0  2  0  0  0  0  0  0
  -28.2410  -25.2700   20.5340 C   0  0  0  0  0  2  0  0  0  0  0  0
  -28.3750  -26.6660   20.1640 O   0  0  0  0  0  0  0  0  0  0  0  0
  -24.5770  -31.8770   23.2280 C   0  0  0  0  0  0  0  0  0  0  0  0
  -27.2160  -27.4180   20.1520 C   0  0  0  0  0  0  0  0  0  0  0  0
  -23.3700  -30.4720   21.5910 C   0  0  0  0  0  3  0  0  0  0  0  0
  -24.8220  -28.9360   20.1620 C   0  0  0  0  0  0  0  0  0  0  0  0
  -25.8960  -30.8300   21.3880 C   0  0  0  0  0  2  0  0  0  0  0  0
  -25.9820  -29.4570   20.7490 C   0  0  0  0  0  0  0  0  0  0  0  0
  -27.1820  -28.7070   20.7400 C   0  0  0  0  0  3  0  0  0  0  0  0
  -26.0410  -26.9250   19.5410 C   0  0  0  0  0  3  0  0  0  0  0  0
  -24.8470  -27.6700   19.5540 C   0  0  0  0  0  3  0  0  0  0  0  0
  -23.5770  -29.7930   20.2110 C   0  0  0  0  0  2  0  0  0  0  0  0
  -24.6330  -31.0740   22.1270 N   0  0  0  0  0  0  0  0  0  0  0  0
  -23.4950  -32.1480   23.7700 O   0  0  0  0  0  0  0  0  0  0  0  0
  -22.7220  -29.4510   22.5540 C   0  0  0  0  0  0  0  0  0  0  0  0
  -21.3960  -29.2710   22.4330 N   0  0  0  0  0  0  0  0  0  0  0  0
  -23.4080  -28.8250   23.3650 O   0  0  0  0  0  0  0  0  0  0  0  0
  -20.9040  -29.8270   21.7470 H   0  0  0  0  0  0  0  0  0  0  0  0
  -18.0220  -28.0860   22.9530 C   0  0  0  0  0  0  0  0  0  0  0  0
  -20.5820  -28.3340   23.2060 C   0  0  0  0  0  3  0  0  0  0  0  0
  -20.6770  -26.9050   22.6240 C   0  0  0  0  0  2  0  0  0  0  0  0
  -19.5660  -26.5890   21.6180 C   0  0  0  0  0  2  0  0  0  0  0  0
  -18.1900  -26.7380   22.2720 C   0  0  0  0  0  2  0  0  0  0  0  0
  -19.1460  -28.8420   23.3770 C   0  0  0  0  0  0  0  0  0  0  0  0
  -18.9370  -30.1040   23.9750 C   0  0  0  0  0  3  0  0  0  0  0  0
  -17.6360  -30.6110   24.1520 C   0  0  0  0  0  3  0  0  0  0  0  0
  -16.5250  -29.8520   23.7430 C   0  0  0  0  0  3  0  0  0  0  0  0
  -16.7190  -28.5910   23.1500 C   0  0  0  0  0  3  0  0  0  0  0  0
  -25.8620  -32.5120   23.8430 C   0  0  0  0  0  3  0  0  0  0  0  0
  -25.5520  -33.9110   24.1680 N   0  0  0  0  0  0  0  0  0  0  0  0
  -25.8860  -34.9600   23.4050 C   0  0  0  0  0  0  0  0  0  0  0  0
  -26.5580  -34.8530   22.3750 O   0  0  0  0  0  0  0  0  0  0  0  0
  -24.9560  -34.0680   24.9670 H   0  0  0  0  0  0  0  0  0  0  0  0
  -24.1620  -36.7550   23.0360 C   0  0  0  0  0  1  0  0  0  0  0  0
  -25.3970  -36.3500   23.8560 C   0  0  0  0  0  3  0  0  0  0  0  0
  -27.5260  -37.2330   24.7010 C   0  0  0  0  0  1  0  0  0  0  0  0
  -26.4310  -37.4020   23.7480 N   0  0  0  0  0  0  0  0  0  0  0  0
  -26.0260  -38.3230   23.8910 H   0  0  0  0  0  0  0  0  0  0  0  0
  -26.3840  -31.7450   25.1210 C   0  0  1  0  0  0  0  0  0  0  0  0
  -25.2940  -31.5090   26.1920 C   0  0  0  0  0  1  0  0  0  0  0  0
  -26.9690  -30.3680   24.7300 C   0  0  0  0  0  1  0  0  0  0  0  0
  -27.5350  -32.5430   25.7770 C   0  0  0  0  0  1  0  0  0  0  0  0
  -29.7710  -19.4370   20.4300 C   0  0  0  0  0  2  0  0  0  0  0  0
  -29.2920  -17.9550   20.5050 C   0  0  0  0  0  2  0  0  0  0  0  0
  -30.3780  -16.9550   20.9900 C   0  0  0  0  0  2  0  0  0  0  0  0
  -30.6580  -14.4980   20.4970 C   0  0  0  0  0  0  0  0  0  0  0  0
  -30.3670  -12.3310   19.3570 C   0  0  0  0  0  2  0  0  0  0  0  0
  -29.4350  -12.5400   18.1460 C   0  0  0  0  0  2  0  0  0  0  0  0
  -27.9580  -12.4040   18.5640 C   0  0  0  0  0  2  0  0  0  0  0  0
  -27.6130  -13.2370   19.8290 C   0  0  0  0  0  3  0  0  0  0  0  0
  -28.6620  -13.0190   20.9420 C   0  0  0  0  0  2  0  0  0  0  0  0
  -29.9870  -13.3210   20.3780 N   0  0  0  0  0  0  0  0  0  0  0  0
  -31.7980  -14.6610   20.0560 O   0  0  0  0  0  0  0  0  0  0  0  0
  -29.9420  -15.5420   20.9650 N   0  0  0  0  0  0  0  0  0  0  0  0
  -29.0100  -15.3370   21.2920 H   0  0  0  0  0  0  0  0  0  0  0  0
  -25.2090  -13.8430   20.5140 C   0  0  0  0  0  0  0  0  0  0  0  0
  -24.1380  -13.0710   20.8770 C   0  0  0  0  0  0  0  0  0  0  0  0
  -24.6000  -11.7200   20.8550 C   0  0  0  0  0  0  0  0  0  0  0  0
  -26.2560  -12.9620   20.2970 N   0  0  0  0  0  0  0  0  0  0  0  0
  -25.8920  -11.6800   20.5570 N   0  0  0  0  0  0  0  0  0  0  0  0
  -23.8730  -10.4580   21.0430 C   0  0  0  0  0  0  0  0  0  0  0  0
  -24.2980   -9.4930   21.9820 C   0  0  0  0  0  3  0  0  0  0  0  0
  -23.5710   -8.2950   22.1570 C   0  0  0  0  0  3  0  0  0  0  0  0
  -22.4060   -8.0540   21.3920 C   0  0  0  0  0  0  0  0  0  0  0  0
  -22.0000   -9.0070   20.4410 C   0  0  0  0  0  3  0  0  0  0  0  0
  -22.7270  -10.1970   20.2650 C   0  0  0  0  0  3  0  0  0  0  0  0
  -21.6520   -6.9090   21.4770 O   0  0  0  0  0  0  0  0  0  0  0  0
  -21.5950   -6.1670   22.6300 C   0  0  0  0  0  0  0  0  0  0  0  0
  -21.1500   -6.7200   23.8500 C   0  0  0  0  0  3  0  0  0  0  0  0
  -21.0420   -5.9050   24.9940 C   0  0  0  0  0  3  0  0  0  0  0  0
  -21.3690   -4.5370   24.9190 C   0  0  0  0  0  0  0  0  0  0  0  0
  -21.8060   -3.9840   23.7030 C   0  0  0  0  0  3  0  0  0  0  0  0
  -21.9160   -4.7970   22.5610 C   0  0  0  0  0  0  0  0  0  0  0  0
  -22.3190   -4.2540   21.3870 F   0  0  0  0  0  0  0  0  0  0  0  0
  -21.2570   -3.7520   26.0150 F   0  0  0  0  0  0  0  0  0  0  0  0
  -22.7390  -13.5490   21.1360 C   0  0  0  0  0  0  0  0  0  0  0  0
  -22.0030  -12.8530   21.9980 N   0  0  0  0  0  0  0  0  0  0  0  0
  -22.3050  -14.5730   20.6100 O   0  0  0  0  0  0  0  0  0  0  0  0
  -22.3670  -12.0240   22.4460 H   0  0  0  0  0  0  0  0  0  0  0  0
  -21.0640  -13.1540   22.2130 H   0  0  0  0  0  0  0  0  0  0  0  0
  -25.3750  -15.2120   20.3310 N   0  0  0  0  0  0  0  0  0  0  0  0
  -24.6080  -15.8690   20.4240 H   0  0  0  0  0  0  0  0  0  0  0  0
  -26.2280  -15.6450   19.9970 H   0  0  0  0  0  0  0  0  0  0  0  0
  1  6  2  0
  2  1  1  0
  3  4  1  0
  3  2  1  0
  4  5  1  0
  5  6  1  0
  5 50  1  0
  7  1  1  0
  7  8  1  0
  9  8  1  0
 10 21  2  0
 11  9  1  0
 11 16  1  0
 12 20  1  0
 12 22  1  0
 13 19  1  0
 13 15  1  0
 14 20  1  0
 15 14  1  0
 16 15  2  0
 17 18  1  0
 17 11  2  0
 18 13  2  0
 19 12  1  0
 20 10  1  0
 22 24  2  0
 23 22  1  0
 25 23  1  0
 26 35  2  0
 26 31  1  0
 27 23  1  0
 27 31  1  0
 28 27  1  0
 29 30  1  0
 29 28  1  0
 30 26  1  0
 31 32  2  0
 32 33  1  0
 34 33  2  0
 35 34  1  0
 36 10  1  0
 36 37  1  0
 36 46  1  0
 37 40  1  0
 38 42  1  0
 38 37  1  0
 39 38  2  0
 42 41  1  0
 44 42  1  0
 44 45  1  0
 44 43  1  0
 46 49  1  1
 46 47  1  0
 48 46  1  0
 50 51  1  0
 51 52  1  0
 53 61  1  0
 54 59  1  0
 55 56  1  0
 55 54  1  0
 57 56  1  0
 57 66  1  0
 57 58  1  0
 59 53  1  0
 59 58  1  0
 60 53  2  0
 61 52  1  0
 61 62  1  0
 63 64  2  0
 64 83  1  0
 65 64  1  0
 65 68  1  0
 66 63  1  0
 66 67  1  0
 67 65  2  0
 68 69  1  0
 69 70  2  0
 71 74  1  0
 71 70  1  0
 72 71  2  0
 73 72  1  0
 73 68  2  0
 74 75  1  0
 75 76  1  0
 76 77  2  0
 78 77  1  0
 78 82  1  0
 79 78  2  0
 80 75  2  0
 80 79  1  0
 81 80  1  0
 83 84  1  0
 84 87  1  0
 84 86  1  0
 85 83  2  0
 88 89  1  0
 88 63  1  0
 90 88  1  0
M  ISO  4   8 101   9 101  53 100  61 100
M  END
>  <TORSDO>  (70) 
F 21

>  <SCORE>  (70) 
-13.602

>  <name>  (70) 
69

>  <ligand_id>  (70) 
69

>  <original_smiles>  (70) 
[H]c1c([H])c([H])c2c(c1[H])C([H])([H])C([H])([H])C([H])([H])C2([H])N([H])C(=O)C1([H])N(C(=O)C([H])(N([H])C(=O)C([H])(N([H])C([H])([H])[H])C([H])([H])[H])C(C([H])([H])[H])(C([H])([H])[H])C([H])([H])[H])C([H])([H])c2c([H])c(OC([H])([H])C([H])([H])C3=NC([H])(C([H])([H])C([H])([H])C([H])([H])N([H])C(=O)N4C([H])([H])C([H])([H])C([H])([H])C([H])(n5nc(-c6c([H])c([H])c(Oc7c([H])c([H])c(F)c([H])c7F)c([H])c6[H])c(C(=O)N([H])[H])c5N([H])[H])C4([H])[H])C([H])([H])C([H])([H])C3([H])[H])c([H])c([H])c2C1([H])[H]

>  <smiles>  (70) 
[H]c1c([H])c([H])c2c(c1[H])C([H])([H])C([H])([H])C([H])([H])C2([H])N([H])C(=O)C1([H])N(C(=O)C([H])(N([H])C(=O)C([H])(N([H])C([H])([H])[H])C([H])([H])[H])C(C([H])([H])[H])(C([H])([H])[H])C([H])([H])[H])C([H])([H])c2c([H])c(OC([H])([H])C([H])([H])C3=NC([H])(C([H])([H])C([H])([H])C([H])([H])N([H])C(=O)N4C([H])([H])C([H])([H])C([H])([H])C([H])(n5nc(-c6c([H])c([H])c(Oc7c([H])c([H])c(F)c([H])c7F)c([H])c6[H])c(C(=O)N([H])[H])c5N([H])[H])C4([H])[H])C([H])([H])C([H])([H])C3([H])[H])c([H])c([H])c2C1([H])[H]

$$$$
70:0:0
     RDKit          3D

 89 98  0  0  1  0  0  0  0  0999 V2000
  -31.3480  -20.8270   21.6010 C   0  0  0  0  0  2  0  0  0  0  0  0
  -31.0820  -20.7740   20.1010 C   0  0  0  0  0  2  0  0  0  0  0  0
  -30.3020  -18.3700   21.8790 C   0  0  0  0  0  2  0  0  0  0  0  0
  -29.1850  -18.9230   19.8280 C   0  0  0  0  0  2  0  0  0  0  0  0
  -30.1240  -19.9300   21.7820 C   0  0  0  0  0  3  0  0  0  0  0  0
  -30.1060  -17.7220   20.4770 C   0  0  0  0  0  3  0  0  0  0  0  0
  -29.6100  -20.4000   20.3910 C   0  0  1  0  0  0  0  0  0  0  0  0
  -30.5450  -14.9950   20.3170 C   0  0  0  0  0  0  0  0  0  0  0  0
  -30.4200  -12.6520   19.3580 C   0  0  0  0  0  2  0  0  0  0  0  0
  -29.4760  -12.6080   18.1340 C   0  0  0  0  0  2  0  0  0  0  0  0
  -28.0190  -12.3860   18.5800 C   0  0  0  0  0  2  0  0  0  0  0  0
  -27.6160  -13.3090   19.7610 C   0  0  0  0  0  3  0  0  0  0  0  0
  -28.6800  -13.3260   20.8780 C   0  0  0  0  0  2  0  0  0  0  0  0
  -29.9440  -13.7390   20.2590 N   0  0  0  0  0  0  0  0  0  0  0  0
  -31.7470  -15.0620   20.0410 O   0  0  0  0  0  0  0  0  0  0  0  0
  -29.7670  -16.1740   20.4780 N   0  0  0  0  0  0  0  0  0  0  0  0
  -28.7890  -15.9760   20.6270 H   0  0  0  0  0  0  0  0  0  0  0  0
  -25.2380  -13.8710   20.5240 C   0  0  0  0  0  0  0  0  0  0  0  0
  -24.1820  -13.0880   20.8950 C   0  0  0  0  0  0  0  0  0  0  0  0
  -24.6530  -11.7390   20.8520 C   0  0  0  0  0  0  0  0  0  0  0  0
  -26.2840  -13.0000   20.2690 N   0  0  0  0  0  0  0  0  0  0  0  0
  -25.9430  -11.7120   20.5330 N   0  0  0  0  0  0  0  0  0  0  0  0
  -23.9340  -10.4730   21.0360 C   0  0  0  0  0  0  0  0  0  0  0  0
  -24.3670   -9.5070   21.9730 C   0  0  0  0  0  3  0  0  0  0  0  0
  -23.6460   -8.3050   22.1450 C   0  0  0  0  0  3  0  0  0  0  0  0
  -22.4800   -8.0600   21.3830 C   0  0  0  0  0  0  0  0  0  0  0  0
  -22.0680   -9.0130   20.4340 C   0  0  0  0  0  3  0  0  0  0  0  0
  -22.7890  -10.2060   20.2590 C   0  0  0  0  0  3  0  0  0  0  0  0
  -21.7320   -6.9110   21.4650 O   0  0  0  0  0  0  0  0  0  0  0  0
  -21.6610   -6.1790   22.6230 C   0  0  0  0  0  0  0  0  0  0  0  0
  -21.1920   -6.7390   23.8310 C   0  0  0  0  0  3  0  0  0  0  0  0
  -21.0720   -5.9340   24.9810 C   0  0  0  0  0  3  0  0  0  0  0  0
  -21.4090   -4.5680   24.9230 C   0  0  0  0  0  0  0  0  0  0  0  0
  -21.8710   -4.0070   23.7190 C   0  0  0  0  0  3  0  0  0  0  0  0
  -21.9940   -4.8110   22.5720 C   0  0  0  0  0  0  0  0  0  0  0  0
  -22.4190   -4.2610   21.4090 F   0  0  0  0  0  0  0  0  0  0  0  0
  -21.2860   -3.7910   26.0250 F   0  0  0  0  0  0  0  0  0  0  0  0
  -22.7830  -13.5550   21.1740 C   0  0  0  0  0  0  0  0  0  0  0  0
  -22.0650  -12.8510   22.0420 N   0  0  0  0  0  0  0  0  0  0  0  0
  -22.3370  -14.5800   20.6610 O   0  0  0  0  0  0  0  0  0  0  0  0
  -22.4400  -12.0210   22.4770 H   0  0  0  0  0  0  0  0  0  0  0  0
  -21.1270  -13.1450   22.2730 H   0  0  0  0  0  0  0  0  0  0  0  0
  -25.3910  -15.2440   20.3530 N   0  0  0  0  0  0  0  0  0  0  0  0
  -24.6140  -15.8850   20.4640 H   0  0  0  0  0  0  0  0  0  0  0  0
  -26.2200  -15.6910   19.9850 H   0  0  0  0  0  0  0  0  0  0  0  0
  -28.5820  -21.7380   20.2450 C   0  0  0  0  0  2  0  0  0  0  0  0
  -28.9960  -23.3700   20.4190 C   0  0  0  0  0  3  0  0  0  0  0  0
  -27.9670  -24.6830   20.1600 C   0  0  0  0  0  3  0  0  0  0  0  0
  -28.2510  -26.2060   20.3330 O   0  0  0  0  0  0  0  0  0  0  0  0
  -24.6340  -31.9100   23.2850 C   0  0  0  0  0  0  0  0  0  0  0  0
  -27.2000  -27.1920   20.2590 C   0  0  0  0  0  0  0  0  0  0  0  0
  -23.4350  -30.5260   21.6360 C   0  0  0  0  0  3  0  0  0  0  0  0
  -24.8800  -28.9480   20.2160 C   0  0  0  0  0  0  0  0  0  0  0  0
  -25.9900  -30.7790   21.4830 C   0  0  0  0  0  2  0  0  0  0  0  0
  -26.0600  -29.3880   20.8290 C   0  0  0  0  0  0  0  0  0  0  0  0
  -27.2210  -28.5270   20.8320 C   0  0  0  0  0  3  0  0  0  0  0  0
  -25.9930  -26.8520   19.6080 C   0  0  0  0  0  3  0  0  0  0  0  0
  -24.8600  -27.6930   19.5900 C   0  0  0  0  0  3  0  0  0  0  0  0
  -23.6580  -29.8510   20.2570 C   0  0  0  0  0  2  0  0  0  0  0  0
  -24.7070  -31.0930   22.1900 N   0  0  0  0  0  0  0  0  0  0  0  0
  -23.5470  -32.1990   23.8080 O   0  0  0  0  0  0  0  0  0  0  0  0
  -22.7450  -29.5200   22.5920 C   0  0  0  0  0  0  0  0  0  0  0  0
  -21.4180  -29.3520   22.4540 N   0  0  0  0  0  0  0  0  0  0  0  0
  -23.4090  -28.8940   23.4230 O   0  0  0  0  0  0  0  0  0  0  0  0
  -20.9390  -29.9110   21.7620 H   0  0  0  0  0  0  0  0  0  0  0  0
  -18.0280  -28.1650   22.9300 C   0  0  0  0  0  0  0  0  0  0  0  0
  -20.5860  -28.4180   23.2170 C   0  0  0  0  0  3  0  0  0  0  0  0
  -20.6860  -26.9850   22.6440 C   0  0  0  0  0  2  0  0  0  0  0  0
  -19.5920  -26.6650   21.6210 C   0  0  0  0  0  2  0  0  0  0  0  0
  -18.2060  -26.8160   22.2530 C   0  0  0  0  0  2  0  0  0  0  0  0
  -19.1460  -28.9240   23.3680 C   0  0  0  0  0  0  0  0  0  0  0  0
  -18.9250  -30.1870   23.9610 C   0  0  0  0  0  3  0  0  0  0  0  0
  -17.6210  -30.6900   24.1190 C   0  0  0  0  0  3  0  0  0  0  0  0
  -16.5180  -29.9280   23.6960 C   0  0  0  0  0  3  0  0  0  0  0  0
  -16.7220  -28.6680   23.1070 C   0  0  0  0  0  3  0  0  0  0  0  0
  -25.9120  -32.5380   23.9200 C   0  0  0  0  0  3  0  0  0  0  0  0
  -26.4080  -31.7670   25.2050 C   0  0  1  0  0  0  0  0  0  0  0  0
  -25.3010  -31.5390   26.2620 C   0  0  0  0  0  1  0  0  0  0  0  0
  -26.9870  -30.3840   24.8270 C   0  0  0  0  0  1  0  0  0  0  0  0
  -27.5570  -32.5550   25.8780 C   0  0  0  0  0  1  0  0  0  0  0  0
  -25.6070  -33.9380   24.2500 N   0  0  0  0  0  0  0  0  0  0  0  0
  -25.9210  -34.9910   23.4820 C   0  0  0  0  0  0  0  0  0  0  0  0
  -26.5670  -34.8840   22.4360 O   0  0  0  0  0  0  0  0  0  0  0  0
  -25.0340  -34.0960   25.0650 H   0  0  0  0  0  0  0  0  0  0  0  0
  -24.1710  -36.7760   23.1910 C   0  0  0  0  0  1  0  0  0  0  0  0
  -25.4480  -36.3830   23.9500 C   0  0  0  0  0  3  0  0  0  0  0  0
  -27.6100  -37.2890   24.6840 C   0  0  0  0  0  1  0  0  0  0  0  0
  -26.4700  -37.4400   23.7840 N   0  0  0  0  0  0  0  0  0  0  0  0
  -26.0630  -38.3590   23.9370 H   0  0  0  0  0  0  0  0  0  0  0  0
  2  7  1  0
  2  1  1  0
  4  7  1  0
  4  6  1  0
  5  1  1  0
  5  3  1  0
  6 16  1  0
  6  3  1  0
  7 46  1  1
  7  5  1  0
  8 16  1  0
  9 14  1  0
 10 11  1  0
 10  9  1  0
 12 11  1  0
 12 21  1  0
 12 13  1  0
 14  8  1  0
 14 13  1  0
 15  8  2  0
 16 17  1  0
 18 19  2  0
 19 38  1  0
 20 19  1  0
 20 23  1  0
 21 18  1  0
 21 22  1  0
 22 20  2  0
 23 24  1  0
 24 25  2  0
 26 29  1  0
 26 25  1  0
 27 26  2  0
 28 27  1  0
 28 23  2  0
 29 30  1  0
 30 31  1  0
 31 32  2  0
 33 32  1  0
 33 37  1  0
 34 33  2  0
 35 30  2  0
 35 34  1  0
 36 35  1  0
 38 39  1  0
 39 42  1  0
 39 41  1  0
 40 38  2  0
 43 44  1  0
 43 18  1  0
 45 43  1  0
 46 47  1  0
 48 49  1  0
 48 47  2  0
 50 61  2  0
 51 49  1  0
 51 56  1  0
 52 60  1  0
 52 62  1  0
 53 59  1  0
 53 55  1  0
 54 60  1  0
 55 56  2  0
 55 54  1  0
 57 51  2  0
 58 57  1  0
 58 53  2  0
 59 52  1  0
 60 50  1  0
 62 64  2  0
 63 62  1  0
 65 63  1  0
 66 75  2  0
 66 71  1  0
 67 63  1  0
 67 71  1  0
 68 67  1  0
 69 70  1  0
 69 68  1  0
 70 66  1  0
 71 72  2  0
 72 73  1  0
 74 73  2  0
 75 74  1  0
 76 50  1  0
 76 81  1  0
 76 77  1  0
 77 80  1  1
 77 78  1  0
 79 77  1  0
 81 84  1  0
 82 86  1  0
 82 81  1  0
 83 82  2  0
 86 85  1  0
 88 89  1  0
 88 86  1  0
 88 87  1  0
M  ISO  4   8 100  16 100  48 101  49 101
M  END
>  <TORSDO>  (71) 
F 19

>  <SCORE>  (71) 
-13.907

>  <name>  (71) 
70

>  <ligand_id>  (71) 
70

>  <original_smiles>  (71) 
[H]c1c([H])c([H])c2c(c1[H])C([H])([H])C([H])([H])C([H])([H])C2([H])N([H])C(=O)C1([H])N(C(=O)C([H])(N([H])C(=O)C([H])(N([H])C([H])([H])[H])C([H])([H])[H])C(C([H])([H])[H])(C([H])([H])[H])C([H])([H])[H])C([H])([H])c2c([H])c(OC([H])([H])C([H])([H])C([H])([H])C34C([H])([H])C([H])([H])C3([H])C([H])([H])C([H])(N([H])C(=O)N3C([H])([H])C([H])([H])C([H])([H])C([H])(n5nc(-c6c([H])c([H])c(Oc7c([H])c([H])c(F)c([H])c7F)c([H])c6[H])c(C(=O)N([H])[H])c5N([H])[H])C3([H])[H])C4([H])[H])c([H])c([H])c2C1([H])[H]

>  <smiles>  (71) 
[H]c1c([H])c([H])c2c(c1[H])C([H])([H])C([H])([H])C([H])([H])C2([H])N([H])C(=O)C1([H])N(C(=O)C([H])(N([H])C(=O)C([H])(N([H])C([H])([H])[H])C([H])([H])[H])C(C([H])([H])[H])(C([H])([H])[H])C([H])([H])[H])C([H])([H])c2c([H])c(OC([H])([H])C([H])([H])C([H])([H])C34C([H])([H])C([H])([H])C3([H])C([H])([H])C([H])(N([H])C(=O)N3C([H])([H])C([H])([H])C([H])([H])C([H])(n5nc(-c6c([H])c([H])c(Oc7c([H])c([H])c(F)c([H])c7F)c([H])c6[H])c(C(=O)N([H])[H])c5N([H])[H])C3([H])[H])C4([H])[H])c([H])c([H])c2C1([H])[H]

$$$$
71:0:0
     RDKit          3D

 93102  0  0  1  0  0  0  0  0999 V2000
  -30.1620  -19.7910   21.1060 C   0  0  0  0  0  2  0  0  0  0  0  0
  -29.2190  -19.6490   18.9130 C   0  0  0  0  0  2  0  0  0  0  0  0
  -30.2160  -21.2220   20.4780 C   0  0  0  0  0  3  0  0  0  0  0  0
  -29.5970  -21.1530   19.1270 C   0  0  0  0  0  3  0  0  0  0  0  0
  -29.0650  -22.2190   20.1390 C   0  0  0  0  0  3  0  0  0  0  0  0
  -29.2630  -18.8310   20.2590 C   0  0  2  0  0  0  0  0  0  0  0  0
  -27.9020  -18.9280   20.8300 N   0  0  0  0  0  4  0  0  0  0  0  0
  -27.6310  -19.8860   20.9500 H   0  0  0  0  0  0  0  0  0  0  0  0
  -27.8490  -18.4730   21.7240 H   0  0  0  0  0  0  0  0  0  0  0  0
  -27.2290  -18.4930   20.2210 H   0  0  0  0  0  0  0  0  0  0  0  0
  -29.3820  -23.8070   20.1430 C   0  0  0  0  0  3  0  0  0  0  0  0
  -28.2770  -24.9380   19.7870 C   0  0  0  0  0  3  0  0  0  0  0  0
  -28.5090  -26.4220   19.9970 O   0  0  0  0  0  0  0  0  0  0  0  0
  -24.5430  -31.6820   23.1080 C   0  0  0  0  0  0  0  0  0  0  0  0
  -27.3980  -27.3020   19.9430 C   0  0  0  0  0  0  0  0  0  0  0  0
  -23.4450  -30.3090   21.3800 C   0  0  0  0  0  3  0  0  0  0  0  0
  -24.9880  -28.8780   19.9310 C   0  0  0  0  0  0  0  0  0  0  0  0
  -25.9800  -30.7210   21.2830 C   0  0  0  0  0  2  0  0  0  0  0  0
  -26.1300  -29.3700   20.5790 C   0  0  0  0  0  0  0  0  0  0  0  0
  -27.3420  -28.6010   20.5650 C   0  0  0  0  0  3  0  0  0  0  0  0
  -26.2270  -26.8880   19.2640 C   0  0  0  0  0  3  0  0  0  0  0  0
  -25.0450  -27.6500   19.2620 C   0  0  0  0  0  3  0  0  0  0  0  0
  -23.7200  -29.7050   19.9820 C   0  0  0  0  0  2  0  0  0  0  0  0
  -24.6740  -30.9210   21.9820 N   0  0  0  0  0  0  0  0  0  0  0  0
  -23.4320  -31.8940   23.6200 O   0  0  0  0  0  0  0  0  0  0  0  0
  -22.7930  -29.2290   22.2790 C   0  0  0  0  0  0  0  0  0  0  0  0
  -21.4710  -29.0320   22.1310 N   0  0  0  0  0  0  0  0  0  0  0  0
  -23.4750  -28.5720   23.0700 O   0  0  0  0  0  0  0  0  0  0  0  0
  -20.9800  -29.6150   21.4680 H   0  0  0  0  0  0  0  0  0  0  0  0
  -18.1040  -27.7790   22.5890 C   0  0  0  0  0  0  0  0  0  0  0  0
  -20.6650  -28.0350   22.8400 C   0  0  0  0  0  3  0  0  0  0  0  0
  -20.7670  -26.6510   22.1590 C   0  0  0  0  0  2  0  0  0  0  0  0
  -19.6520  -26.3950   21.1410 C   0  0  0  0  0  2  0  0  0  0  0  0
  -18.2780  -26.4840   21.8110 C   0  0  0  0  0  2  0  0  0  0  0  0
  -19.2250  -28.5150   23.0580 C   0  0  0  0  0  0  0  0  0  0  0  0
  -19.0070  -29.7310   23.7440 C   0  0  0  0  0  3  0  0  0  0  0  0
  -17.7020  -30.2080   23.9630 C   0  0  0  0  0  3  0  0  0  0  0  0
  -16.5960  -29.4690   23.5070 C   0  0  0  0  0  3  0  0  0  0  0  0
  -16.7980  -28.2540   22.8270 C   0  0  0  0  0  3  0  0  0  0  0  0
  -25.7780  -32.3350   23.8000 C   0  0  0  0  0  3  0  0  0  0  0  0
  -25.4150  -33.7200   24.1340 N   0  0  0  0  0  0  0  0  0  0  0  0
  -25.7440  -34.7930   23.4030 C   0  0  0  0  0  0  0  0  0  0  0  0
  -26.4510  -34.7240   22.3930 O   0  0  0  0  0  0  0  0  0  0  0  0
  -24.7780  -33.8450   24.9080 H   0  0  0  0  0  0  0  0  0  0  0  0
  -23.9730  -36.5460   23.0260 C   0  0  0  0  0  1  0  0  0  0  0  0
  -25.2040  -36.1630   23.8640 C   0  0  0  0  0  3  0  0  0  0  0  0
  -27.2860  -37.1060   24.7660 C   0  0  0  0  0  1  0  0  0  0  0  0
  -26.2060  -37.2460   23.7900 N   0  0  0  0  0  0  0  0  0  0  0  0
  -25.7700  -38.1540   23.9240 H   0  0  0  0  0  0  0  0  0  0  0  0
  -26.2540  -31.5590   25.0890 C   0  0  1  0  0  0  0  0  0  0  0  0
  -25.1190  -31.2800   26.1030 C   0  0  0  0  0  1  0  0  0  0  0  0
  -26.8890  -30.2000   24.7140 C   0  0  0  0  0  1  0  0  0  0  0  0
  -27.3500  -32.3760   25.8160 C   0  0  0  0  0  1  0  0  0  0  0  0
  -29.6020  -17.2080   20.2640 C   0  0  0  0  0  2  0  0  0  0  0  0
  -30.8570  -16.4790   19.5770 C   0  0  0  0  0  3  0  0  0  0  0  0
  -31.4320  -14.9970   19.9460 C   0  0  0  0  0  0  0  0  0  0  0  0
  -31.1030  -12.6560   19.1690 C   0  0  0  0  0  2  0  0  0  0  0  0
  -30.1710  -12.6280   17.9350 C   0  0  0  0  0  2  0  0  0  0  0  0
  -28.6920  -12.5980   18.3630 C   0  0  0  0  0  2  0  0  0  0  0  0
  -28.3550  -13.5950   19.5040 C   0  0  0  0  0  3  0  0  0  0  0  0
  -29.4110  -13.5900   20.6240 C   0  0  0  0  0  2  0  0  0  0  0  0
  -30.7150  -13.8190   20.0010 N   0  0  0  0  0  0  0  0  0  0  0  0
  -32.6530  -14.8970   19.8180 O   0  0  0  0  0  0  0  0  0  0  0  0
  -26.0370  -14.3350   20.2980 C   0  0  0  0  0  0  0  0  0  0  0  0
  -24.9240  -13.6330   20.6700 C   0  0  0  0  0  0  0  0  0  0  0  0
  -25.2860  -12.2530   20.6070 C   0  0  0  0  0  0  0  0  0  0  0  0
  -27.0080  -13.3900   20.0240 N   0  0  0  0  0  0  0  0  0  0  0  0
  -26.5670  -12.1300   20.2800 N   0  0  0  0  0  0  0  0  0  0  0  0
  -24.4710  -11.0440   20.7800 C   0  0  0  0  0  0  0  0  0  0  0  0
  -24.8280  -10.0350   21.7030 C   0  0  0  0  0  3  0  0  0  0  0  0
  -24.0180   -8.8920   21.8660 C   0  0  0  0  0  3  0  0  0  0  0  0
  -22.8340   -8.7480   21.1050 C   0  0  0  0  0  0  0  0  0  0  0  0
  -22.4960   -9.7430   20.1710 C   0  0  0  0  0  3  0  0  0  0  0  0
  -23.3060  -10.8790   20.0050 C   0  0  0  0  0  3  0  0  0  0  0  0
  -22.0000   -7.6580   21.1750 O   0  0  0  0  0  0  0  0  0  0  0  0
  -21.8530   -6.9380   22.3340 C   0  0  0  0  0  0  0  0  0  0  0  0
  -21.4080   -7.5380   23.5320 C   0  0  0  0  0  3  0  0  0  0  0  0
  -21.2040   -6.7480   24.6810 C   0  0  0  0  0  3  0  0  0  0  0  0
  -21.4370   -5.3600   24.6330 C   0  0  0  0  0  0  0  0  0  0  0  0
  -21.8800   -4.7620   23.4390 C   0  0  0  0  0  3  0  0  0  0  0  0
  -22.0850   -5.5480   22.2930 C   0  0  0  0  0  0  0  0  0  0  0  0
  -22.4880   -4.9630   21.1390 F   0  0  0  0  0  0  0  0  0  0  0  0
  -21.2380   -4.5980   25.7340 F   0  0  0  0  0  0  0  0  0  0  0  0
  -23.5670  -14.2060   20.9660 C   0  0  0  0  0  0  0  0  0  0  0  0
  -22.8090  -13.5600   21.8440 N   0  0  0  0  0  0  0  0  0  0  0  0
  -23.1910  -15.2590   20.4520 O   0  0  0  0  0  0  0  0  0  0  0  0
  -23.1340  -12.7060   22.2730 H   0  0  0  0  0  0  0  0  0  0  0  0
  -21.8990  -13.9240   22.0900 H   0  0  0  0  0  0  0  0  0  0  0  0
  -26.2930  -15.6950   20.1360 N   0  0  0  0  0  0  0  0  0  0  0  0
  -25.5480  -16.3780   20.2170 H   0  0  0  0  0  0  0  0  0  0  0  0
  -27.1140  -16.0540   19.6670 H   0  0  0  0  0  0  0  0  0  0  0  0
  -32.0100  -17.6780   17.5850 C   0  0  0  0  0  1  0  0  0  0  0  0
  -30.8820  -16.7320   18.0450 C   0  0  0  0  0  2  0  0  0  0  0  0
  2  6  1  0
  3  1  1  0
  4  2  1  0
  4  5  1  0
  4  3  1  0
  5 11  1  0
  5  3  1  0
  6 54  1  6
  6  7  1  0
  6  1  1  0
  7  8  1  0
  7  9  1  0
 10  7  1  0
 12 13  1  0
 12 11  2  0
 14 25  2  0
 15 13  1  0
 15 20  1  0
 16 24  1  0
 16 26  1  0
 17 23  1  0
 17 19  1  0
 18 24  1  0
 19 18  1  0
 20 19  2  0
 21 15  2  0
 22 21  1  0
 22 17  2  0
 23 16  1  0
 24 14  1  0
 26 28  2  0
 27 26  1  0
 29 27  1  0
 30 39  2  0
 30 35  1  0
 31 27  1  0
 31 35  1  0
 32 31  1  0
 33 34  1  0
 33 32  1  0
 34 30  1  0
 35 36  2  0
 36 37  1  0
 38 37  2  0
 39 38  1  0
 40 14  1  0
 40 41  1  0
 40 50  1  0
 41 44  1  0
 42 46  1  0
 42 41  1  0
 43 42  2  0
 46 45  1  0
 48 46  1  0
 48 49  1  0
 48 47  1  0
 50 53  1  1
 50 51  1  0
 52 50  1  0
 55 93  1  0
 55 56  1  0
 55 54  1  0
 56 62  1  0
 57 62  1  0
 58 59  1  0
 58 57  1  0
 60 59  1  0
 60 67  1  0
 60 61  1  0
 62 61  1  0
 63 56  2  0
 64 65  2  0
 65 84  1  0
 66 65  1  0
 66 69  1  0
 67 68  1  0
 67 64  1  0
 68 66  2  0
 69 70  1  0
 70 71  2  0
 72 75  1  0
 72 71  1  0
 73 72  2  0
 74 73  1  0
 74 69  2  0
 75 76  1  0
 76 77  1  0
 77 78  2  0
 79 78  1  0
 79 83  1  0
 80 79  2  0
 81 76  2  0
 81 80  1  0
 82 81  1  0
 84 85  1  0
 85 88  1  0
 85 87  1  0
 86 84  2  0
 89 90  1  0
 89 64  1  0
 91 89  1  0
 92 93  1  0
M  ISO  4  12 101  13 101  55 100  56 100
M  END
>  <TORSDO>  (72) 
F 22

>  <SCORE>  (72) 
-12.365

>  <name>  (72) 
71

>  <ligand_id>  (72) 
71

>  <original_smiles>  (72) 
[H]c1c([H])c([H])c2c(c1[H])C([H])([H])C([H])([H])C([H])([H])C2([H])N([H])C(=O)C1([H])N(C(=O)C([H])(N([H])C(=O)C([H])(N([H])C([H])([H])[H])C([H])([H])[H])C(C([H])([H])[H])(C([H])([H])[H])C([H])([H])[H])C([H])([H])c2c([H])c(OC([H])([H])C([H])([H])C3([H])C4([H])C([H])([H])C(C([H])([H])C([H])(C(=O)N5C([H])([H])C([H])([H])C([H])([H])C([H])(n6nc(-c7c([H])c([H])c(Oc8c([H])c([H])c(F)c([H])c8F)c([H])c7[H])c(C(=O)N([H])[H])c6N([H])[H])C5([H])[H])C([H])([H])C([H])([H])[H])([N+]([H])([H])[H])C([H])([H])C34[H])c([H])c([H])c2C1([H])[H]

>  <smiles>  (72) 
[H]c1c([H])c([H])c2c(c1[H])C([H])([H])C([H])([H])C([H])([H])C2([H])N([H])C(=O)C1([H])N(C(=O)C([H])(N([H])C(=O)C([H])(N([H])C([H])([H])[H])C([H])([H])[H])C(C([H])([H])[H])(C([H])([H])[H])C([H])([H])[H])C([H])([H])c2c([H])c(OC([H])([H])C([H])([H])C3([H])C4([H])C([H])([H])C(C([H])([H])C([H])(C(=O)N5C([H])([H])C([H])([H])C([H])([H])C([H])(n6nc(-c7c([H])c([H])c(Oc8c([H])c([H])c(F)c([H])c8F)c([H])c7[H])c(C(=O)N([H])[H])c6N([H])[H])C5([H])[H])C([H])([H])C([H])([H])[H])([N+]([H])([H])[H])C([H])([H])C34[H])c([H])c([H])c2C1([H])[H]

$$$$
72:0:0
     RDKit          3D

 88 97  0  0  1  0  0  0  0  0999 V2000
  -31.2860  -19.1580   20.1440 C   0  0  0  0  0  2  0  0  0  0  0  0
  -30.6570  -20.4640   19.5840 C   0  0  0  0  0  3  0  0  0  0  0  0
  -29.4210  -19.6910   19.3250 C   0  0  0  0  0  3  0  0  0  0  0  0
  -29.3660  -21.2580   20.0180 C   0  0  0  0  0  3  0  0  0  0  0  0
  -30.0610  -18.2340   19.9250 C   0  0  2  0  0  0  0  0  0  0  0  0
  -27.9480  -17.1570   20.9460 C   0  0  0  0  0  1  0  0  0  0  0  0
  -30.0970  -17.1700   22.2790 C   0  0  0  0  0  1  0  0  0  0  0  0
  -29.2670  -17.9050   21.2130 C   0  0  0  0  0  3  0  0  0  0  0  0
  -30.2410  -16.7030   19.0550 C   0  0  0  0  0  2  0  0  0  0  0  0
  -31.0600  -15.1980   19.3140 C   0  0  0  0  0  0  0  0  0  0  0  0
  -30.8930  -12.7120   18.6730 C   0  0  0  0  0  2  0  0  0  0  0  0
  -29.8690  -12.5040   17.5280 C   0  0  0  0  0  2  0  0  0  0  0  0
  -28.4430  -12.3440   18.0900 C   0  0  0  0  0  2  0  0  0  0  0  0
  -28.1240  -13.4000   19.1750 C   0  0  0  0  0  3  0  0  0  0  0  0
  -29.2600  -13.5610   20.2050 C   0  0  0  0  0  2  0  0  0  0  0  0
  -30.4770  -13.9180   19.4640 N   0  0  0  0  0  0  0  0  0  0  0  0
  -32.2720  -15.1510   19.0650 O   0  0  0  0  0  0  0  0  0  0  0  0
  -25.8960  -14.1220   20.1910 C   0  0  0  0  0  0  0  0  0  0  0  0
  -24.8170  -13.4180   20.6490 C   0  0  0  0  0  0  0  0  0  0  0  0
  -25.1660  -12.0380   20.5330 C   0  0  0  0  0  0  0  0  0  0  0  0
  -26.8320  -13.1770   19.8130 N   0  0  0  0  0  0  0  0  0  0  0  0
  -26.4110  -11.9130   20.0870 N   0  0  0  0  0  0  0  0  0  0  0  0
  -24.3610  -10.8300   20.7630 C   0  0  0  0  0  0  0  0  0  0  0  0
  -24.7640   -9.8380   21.6840 C   0  0  0  0  0  3  0  0  0  0  0  0
  -23.9610   -8.6960   21.9030 C   0  0  0  0  0  3  0  0  0  0  0  0
  -22.7410   -8.5420   21.2020 C   0  0  0  0  0  0  0  0  0  0  0  0
  -22.3560   -9.5220   20.2700 C   0  0  0  0  0  3  0  0  0  0  0  0
  -23.1590  -10.6540   20.0500 C   0  0  0  0  0  3  0  0  0  0  0  0
  -21.9100   -7.4550   21.3310 O   0  0  0  0  0  0  0  0  0  0  0  0
  -21.7890   -6.7780   22.5180 C   0  0  0  0  0  0  0  0  0  0  0  0
  -21.3610   -7.4190   23.7010 C   0  0  0  0  0  3  0  0  0  0  0  0
  -21.1840   -6.6710   24.8820 C   0  0  0  0  0  3  0  0  0  0  0  0
  -21.4230   -5.2840   24.8810 C   0  0  0  0  0  0  0  0  0  0  0  0
  -21.8440   -4.6430   23.7020 C   0  0  0  0  0  3  0  0  0  0  0  0
  -22.0240   -5.3890   22.5230 C   0  0  0  0  0  0  0  0  0  0  0  0
  -22.4080   -4.7620   21.3850 F   0  0  0  0  0  0  0  0  0  0  0  0
  -21.2460   -4.5640   26.0130 F   0  0  0  0  0  0  0  0  0  0  0  0
  -23.4970  -13.9940   21.0730 C   0  0  0  0  0  0  0  0  0  0  0  0
  -22.8150  -13.3400   22.0050 N   0  0  0  0  0  0  0  0  0  0  0  0
  -23.0870  -15.0580   20.6100 O   0  0  0  0  0  0  0  0  0  0  0  0
  -23.1640  -12.4780   22.3990 H   0  0  0  0  0  0  0  0  0  0  0  0
  -21.9310  -13.7050   22.3310 H   0  0  0  0  0  0  0  0  0  0  0  0
  -26.1510  -15.4810   20.0370 N   0  0  0  0  0  0  0  0  0  0  0  0
  -25.4530  -16.1850   20.2550 H   0  0  0  0  0  0  0  0  0  0  0  0
  -26.9940  -15.8690   19.6380 H   0  0  0  0  0  0  0  0  0  0  0  0
  -29.2340  -22.9230   19.5010 C   0  0  0  0  0  2  0  0  0  0  0  0
  -28.3130  -24.3000   20.1080 C   0  0  0  0  0  2  0  0  0  0  0  0
  -28.4800  -25.9050   19.9700 O   0  0  0  0  0  0  0  0  0  0  0  0
  -24.6670  -31.5980   23.0360 C   0  0  0  0  0  0  0  0  0  0  0  0
  -27.4050  -26.9130   19.9710 C   0  0  0  0  0  0  0  0  0  0  0  0
  -23.5300  -30.1990   21.3570 C   0  0  0  0  0  3  0  0  0  0  0  0
  -25.0410  -28.6720   19.9270 C   0  0  0  0  0  0  0  0  0  0  0  0
  -26.0860  -30.5110   21.2360 C   0  0  0  0  0  2  0  0  0  0  0  0
  -26.2070  -29.1210   20.5600 C   0  0  0  0  0  0  0  0  0  0  0  0
  -27.3890  -28.2650   20.5530 C   0  0  0  0  0  3  0  0  0  0  0  0
  -26.2050  -26.5930   19.3020 C   0  0  0  0  0  3  0  0  0  0  0  0
  -25.0600  -27.4260   19.2790 C   0  0  0  0  0  3  0  0  0  0  0  0
  -23.7920  -29.5480   19.9720 C   0  0  0  0  0  2  0  0  0  0  0  0
  -24.7800  -30.7930   21.9310 N   0  0  0  0  0  0  0  0  0  0  0  0
  -23.5650  -31.8430   23.5510 O   0  0  0  0  0  0  0  0  0  0  0  0
  -22.8590  -29.1620   22.2940 C   0  0  0  0  0  0  0  0  0  0  0  0
  -21.5300  -28.9870   22.1720 N   0  0  0  0  0  0  0  0  0  0  0  0
  -23.5390  -28.5170   23.0960 O   0  0  0  0  0  0  0  0  0  0  0  0
  -21.0370  -29.5590   21.5020 H   0  0  0  0  0  0  0  0  0  0  0  0
  -18.1540  -27.7700   22.7070 C   0  0  0  0  0  0  0  0  0  0  0  0
  -20.7210  -28.0170   22.9190 C   0  0  0  0  0  3  0  0  0  0  0  0
  -20.8020  -26.6120   22.2780 C   0  0  0  0  0  2  0  0  0  0  0  0
  -19.6750  -26.3400   21.2770 C   0  0  0  0  0  2  0  0  0  0  0  0
  -18.3100  -26.4560   21.9620 C   0  0  0  0  0  2  0  0  0  0  0  0
  -19.2860  -28.5110   23.1420 C   0  0  0  0  0  0  0  0  0  0  0  0
  -19.0840  -29.7420   23.8030 C   0  0  0  0  0  3  0  0  0  0  0  0
  -17.7850  -30.2340   24.0310 C   0  0  0  0  0  3  0  0  0  0  0  0
  -16.6680  -29.4900   23.6100 C   0  0  0  0  0  3  0  0  0  0  0  0
  -16.8540  -28.2600   22.9540 C   0  0  0  0  0  3  0  0  0  0  0  0
  -25.9130  -32.2620   23.6940 C   0  0  0  0  0  3  0  0  0  0  0  0
  -26.4230  -31.4890   24.9750 C   0  0  1  0  0  0  0  0  0  0  0  0
  -25.3140  -31.2080   26.0170 C   0  0  0  0  0  1  0  0  0  0  0  0
  -27.0530  -30.1320   24.5850 C   0  0  0  0  0  1  0  0  0  0  0  0
  -27.5370  -32.3070   25.6700 C   0  0  0  0  0  1  0  0  0  0  0  0
  -25.5550  -33.6450   24.0470 N   0  0  0  0  0  0  0  0  0  0  0  0
  -25.8640  -34.7270   23.3180 C   0  0  0  0  0  0  0  0  0  0  0  0
  -26.5470  -34.6660   22.2920 O   0  0  0  0  0  0  0  0  0  0  0  0
  -24.9460  -33.7620   24.8430 H   0  0  0  0  0  0  0  0  0  0  0  0
  -24.0860  -36.4810   23.0010 C   0  0  0  0  0  1  0  0  0  0  0  0
  -25.3390  -36.0930   23.8050 C   0  0  0  0  0  3  0  0  0  0  0  0
  -27.4420  -37.0270   24.6630 C   0  0  0  0  0  1  0  0  0  0  0  0
  -26.3410  -37.1780   23.7140 N   0  0  0  0  0  0  0  0  0  0  0  0
  -25.9070  -38.0840   23.8760 H   0  0  0  0  0  0  0  0  0  0  0  0
  2  4  1  0
  2  1  1  0
  3  2  1  0
  3  5  1  0
  3  4  1  0
  5  1  1  0
  5  8  1  0
  6  8  1  0
  8  7  1  0
  9 10  1  0
  5  9  1  6
 10 16  1  0
 11 16  1  0
 12 13  1  0
 12 11  1  0
 13 14  1  0
 14 21  1  0
 14 15  1  0
 16 15  1  0
 17 10  2  0
 18 19  2  0
 19 38  1  0
 20 19  1  0
 20 23  1  0
 21 22  1  0
 21 18  1  0
 22 20  2  0
 23 24  1  0
 24 25  2  0
 26 29  1  0
 26 25  1  0
 27 26  2  0
 28 27  1  0
 28 23  2  0
 29 30  1  0
 30 35  2  0
 30 31  1  0
 31 32  2  0
 33 32  1  0
 33 37  1  0
 34 33  2  0
 35 34  1  0
 36 35  1  0
 38 39  1  0
 39 42  1  0
 39 41  1  0
 40 38  2  0
 43 18  1  0
 43 44  1  0
 45 43  1  0
 46  4  1  0
 46 47  1  0
 48 50  1  0
 48 47  1  0
 49 60  2  0
 49 75  1  0
 50 55  1  0
 51 59  1  0
 51 61  1  0
 52 58  1  0
 52 54  1  0
 53 59  1  0
 54 53  1  0
 55 54  2  0
 56 50  2  0
 57 56  1  0
 57 52  2  0
 58 51  1  0
 59 49  1  0
 61 63  2  0
 62 61  1  0
 62 66  1  0
 64 62  1  0
 65 74  2  0
 65 70  1  0
 66 70  1  0
 67 66  1  0
 68 69  1  0
 68 67  1  0
 69 65  1  0
 70 71  2  0
 71 72  1  0
 73 72  2  0
 74 73  1  0
 75 80  1  0
 75 76  1  0
 76 79  1  1
 76 77  1  0
 78 76  1  0
 80 83  1  0
 81 85  1  0
 81 80  1  0
 82 81  2  0
 84 85  1  0
 87 85  1  0
 87 88  1  0
 87 86  1  0
M  ISO  4   9 100  10 100  47 101  48 101
M  END
>  <TORSDO>  (73) 
F 20

>  <SCORE>  (73) 
-13.532

>  <name>  (73) 
72

>  <ligand_id>  (73) 
72

>  <original_smiles>  (73) 
[H]c1c([H])c([H])c2c(c1[H])C([H])([H])C([H])([H])C([H])([H])C2([H])N([H])C(=O)C1([H])N(C(=O)C([H])(N([H])C(=O)C([H])(N([H])C([H])([H])[H])C([H])([H])[H])C(C([H])([H])[H])(C([H])([H])[H])C([H])([H])[H])C([H])([H])c2c([H])c(OC([H])([H])C([H])([H])C3([H])C4([H])C([H])([H])C(C([H])([H])C(=O)N5C([H])([H])C([H])([H])C([H])([H])C([H])(n6nc(-c7c([H])c([H])c(Oc8c([H])c([H])c(F)c([H])c8F)c([H])c7[H])c(C(=O)N([H])[H])c6N([H])[H])C5([H])[H])(C([H])(C([H])([H])[H])C([H])([H])[H])C34[H])c([H])c([H])c2C1([H])[H]

>  <smiles>  (73) 
[H]c1c([H])c([H])c2c(c1[H])C([H])([H])C([H])([H])C([H])([H])C2([H])N([H])C(=O)C1([H])N(C(=O)C([H])(N([H])C(=O)C([H])(N([H])C([H])([H])[H])C([H])([H])[H])C(C([H])([H])[H])(C([H])([H])[H])C([H])([H])[H])C([H])([H])c2c([H])c(OC([H])([H])C([H])([H])C3([H])C4([H])C([H])([H])C(C([H])([H])C(=O)N5C([H])([H])C([H])([H])C([H])([H])C([H])(n6nc(-c7c([H])c([H])c(Oc8c([H])c([H])c(F)c([H])c8F)c([H])c7[H])c(C(=O)N([H])[H])c6N([H])[H])C5([H])[H])(C([H])(C([H])([H])[H])C([H])([H])[H])C34[H])c([H])c([H])c2C1([H])[H]

$$$$
73:0:0
     RDKit          3D

 87 95  0  0  1  0  0  0  0  0999 V2000
  -29.2150  -21.3140   20.6950 C   0  0  0  0  0  2  0  0  0  0  0  0
  -28.9440  -19.6240   20.3830 C   0  0  0  0  0  0  0  0  0  0  0  0
  -27.7550  -19.3600   20.1930 O   0  0  0  0  0  0  0  0  0  0  0  0
  -30.4650  -15.3230   20.4390 C   0  0  0  0  0  0  0  0  0  0  0  0
  -30.4580  -12.8860   19.5770 C   0  0  0  0  0  2  0  0  0  0  0  0
  -29.5730  -12.6570   18.3270 C   0  0  0  0  0  2  0  0  0  0  0  0
  -28.1060  -12.4110   18.7260 C   0  0  0  0  0  2  0  0  0  0  0  0
  -27.6230  -13.3800   19.8340 C   0  0  0  0  0  3  0  0  0  0  0  0
  -28.6410  -13.5410   20.9800 C   0  0  0  0  0  2  0  0  0  0  0  0
  -29.8810  -14.0320   20.3590 N   0  0  0  0  0  0  0  0  0  0  0  0
  -31.7040  -15.2970   20.4440 O   0  0  0  0  0  0  0  0  0  0  0  0
  -29.8700  -17.8420   17.9990 C   0  0  0  0  0  2  0  0  0  0  0  0
  -30.8300  -18.4820   18.9920 C   0  0  0  0  0  2  0  0  0  0  0  0
  -29.4940  -16.5090   18.6610 C   0  0  0  0  0  2  0  0  0  0  0  0
  -30.0680  -18.2260   20.2820 C   0  0  0  0  0  3  0  0  0  0  0  0
  -29.7540  -16.5930   20.1280 N   0  0  0  0  0  0  0  0  0  0  0  0
  -25.2250  -13.9330   20.5010 C   0  0  0  0  0  0  0  0  0  0  0  0
  -24.1560  -13.1510   20.8380 C   0  0  0  0  0  0  0  0  0  0  0  0
  -24.6340  -11.8050   20.8440 C   0  0  0  0  0  0  0  0  0  0  0  0
  -26.2820  -13.0620   20.3090 N   0  0  0  0  0  0  0  0  0  0  0  0
  -25.9380  -11.7780   20.5840 N   0  0  0  0  0  0  0  0  0  0  0  0
  -23.9130  -10.5390   21.0210 C   0  0  0  0  0  0  0  0  0  0  0  0
  -24.3170   -9.5840   21.9800 C   0  0  0  0  0  3  0  0  0  0  0  0
  -23.5920   -8.3840   22.1460 C   0  0  0  0  0  3  0  0  0  0  0  0
  -22.4480   -8.1310   21.3540 C   0  0  0  0  0  0  0  0  0  0  0  0
  -22.0630   -9.0730   20.3840 C   0  0  0  0  0  3  0  0  0  0  0  0
  -22.7880  -10.2640   20.2160 C   0  0  0  0  0  3  0  0  0  0  0  0
  -21.6970   -6.9820   21.4290 O   0  0  0  0  0  0  0  0  0  0  0  0
  -21.6140   -6.2500   22.5860 C   0  0  0  0  0  0  0  0  0  0  0  0
  -21.1280   -6.8090   23.7880 C   0  0  0  0  0  3  0  0  0  0  0  0
  -20.9940   -6.0020   24.9360 C   0  0  0  0  0  3  0  0  0  0  0  0
  -21.3350   -4.6380   24.8830 C   0  0  0  0  0  0  0  0  0  0  0  0
  -21.8140   -4.0780   23.6850 C   0  0  0  0  0  3  0  0  0  0  0  0
  -21.9500   -4.8820   22.5390 C   0  0  0  0  0  0  0  0  0  0  0  0
  -22.3920   -4.3330   21.3830 F   0  0  0  0  0  0  0  0  0  0  0  0
  -21.1990   -3.8610   25.9820 F   0  0  0  0  0  0  0  0  0  0  0  0
  -22.7450  -13.6190   21.0440 C   0  0  0  0  0  0  0  0  0  0  0  0
  -21.9910  -12.9310   21.8930 N   0  0  0  0  0  0  0  0  0  0  0  0
  -22.3200  -14.6300   20.4860 O   0  0  0  0  0  0  0  0  0  0  0  0
  -22.3470  -12.1120   22.3620 H   0  0  0  0  0  0  0  0  0  0  0  0
  -21.0420  -13.2260   22.0740 H   0  0  0  0  0  0  0  0  0  0  0  0
  -25.3850  -15.3030   20.3140 N   0  0  0  0  0  0  0  0  0  0  0  0
  -24.6150  -15.9570   20.4050 H   0  0  0  0  0  0  0  0  0  0  0  0
  -26.2530  -15.7510   20.0470 H   0  0  0  0  0  0  0  0  0  0  0  0
  -28.5980  -22.8470   20.0030 C   0  0  0  0  0  2  0  0  0  0  0  0
  -28.1280  -24.4330   20.6840 C   0  0  0  0  0  2  0  0  0  0  0  0
  -28.2340  -26.0070   20.2520 O   0  0  0  0  0  0  0  0  0  0  0  0
  -24.6190  -31.9200   23.2420 C   0  0  0  0  0  0  0  0  0  0  0  0
  -27.1850  -27.0540   20.2720 C   0  0  0  0  0  0  0  0  0  0  0  0
  -23.4220  -30.5050   21.6210 C   0  0  0  0  0  3  0  0  0  0  0  0
  -24.8710  -28.8920   20.2160 C   0  0  0  0  0  0  0  0  0  0  0  0
  -25.9850  -30.7370   21.4570 C   0  0  0  0  0  2  0  0  0  0  0  0
  -26.0600  -29.3210   20.8200 C   0  0  0  0  0  0  0  0  0  0  0  0
  -27.2160  -28.4250   20.8170 C   0  0  0  0  0  3  0  0  0  0  0  0
  -25.9640  -26.7590   19.6320 C   0  0  0  0  0  3  0  0  0  0  0  0
  -24.8440  -27.6290   19.6020 C   0  0  0  0  0  3  0  0  0  0  0  0
  -23.6480  -29.8060   20.2520 C   0  0  0  0  0  2  0  0  0  0  0  0
  -24.6970  -31.0810   22.1600 N   0  0  0  0  0  0  0  0  0  0  0  0
  -23.5310  -32.2090   23.7660 O   0  0  0  0  0  0  0  0  0  0  0  0
  -22.7390  -29.5140   22.5980 C   0  0  0  0  0  0  0  0  0  0  0  0
  -21.4110  -29.3350   22.4730 N   0  0  0  0  0  0  0  0  0  0  0  0
  -23.4090  -28.9050   23.4350 O   0  0  0  0  0  0  0  0  0  0  0  0
  -20.9220  -29.8760   21.7720 H   0  0  0  0  0  0  0  0  0  0  0  0
  -18.0410  -28.0950   22.9840 C   0  0  0  0  0  0  0  0  0  0  0  0
  -20.5960  -28.4000   23.2550 C   0  0  0  0  0  3  0  0  0  0  0  0
  -20.7190  -26.9600   22.7060 C   0  0  0  0  0  2  0  0  0  0  0  0
  -19.6260  -26.6050   21.6920 C   0  0  0  0  0  2  0  0  0  0  0  0
  -18.2390  -26.7390   22.3280 C   0  0  0  0  0  2  0  0  0  0  0  0
  -19.1470  -28.8810   23.4060 C   0  0  0  0  0  0  0  0  0  0  0  0
  -18.9050  -30.1460   23.9840 C   0  0  0  0  0  3  0  0  0  0  0  0
  -17.5920  -30.6280   24.1420 C   0  0  0  0  0  3  0  0  0  0  0  0
  -16.5010  -29.8400   23.7330 C   0  0  0  0  0  3  0  0  0  0  0  0
  -16.7260  -28.5760   23.1620 C   0  0  0  0  0  3  0  0  0  0  0  0
  -25.8910  -32.5730   23.8640 C   0  0  0  0  0  3  0  0  0  0  0  0
  -26.4020  -31.8240   25.1560 C   0  0  1  0  0  0  0  0  0  0  0  0
  -25.3040  -31.6020   26.2250 C   0  0  0  0  0  1  0  0  0  0  0  0
  -26.9900  -30.4400   24.7980 C   0  0  0  0  0  1  0  0  0  0  0  0
  -27.5480  -32.6300   25.8110 C   0  0  0  0  0  1  0  0  0  0  0  0
  -25.5690  -33.9740   24.1840 N   0  0  0  0  0  0  0  0  0  0  0  0
  -25.9070  -35.0300   23.4320 C   0  0  0  0  0  0  0  0  0  0  0  0
  -26.5850  -34.9270   22.4070 O   0  0  0  0  0  0  0  0  0  0  0  0
  -24.9660  -34.1270   24.9790 H   0  0  0  0  0  0  0  0  0  0  0  0
  -24.1920  -36.8370   23.0610 C   0  0  0  0  0  1  0  0  0  0  0  0
  -25.4180  -36.4200   23.8880 C   0  0  0  0  0  3  0  0  0  0  0  0
  -27.5400  -37.3000   24.7600 C   0  0  0  0  0  1  0  0  0  0  0  0
  -26.4570  -37.4710   23.7960 N   0  0  0  0  0  0  0  0  0  0  0  0
  -26.0510  -38.3930   23.9350 H   0  0  0  0  0  0  0  0  0  0  0  0
  2  1  1  0
  3  2  2  0
  4 11  2  0
  5 10  1  0
  6  7  1  0
  6  5  1  0
  8  7  1  0
  8 20  1  0
  8  9  1  0
 10  4  1  0
 10  9  1  0
 12 14  1  0
 12 13  1  0
 13 15  1  0
 14 16  1  0
 15  2  1  0
 16 15  1  0
 16  4  1  0
 17 18  2  0
 18 19  1  0
 18 37  1  0
 19 22  1  0
 20 17  1  0
 20 21  1  0
 21 19  2  0
 22 23  1  0
 23 24  2  0
 25 28  1  0
 25 24  1  0
 26 25  2  0
 27 26  1  0
 27 22  2  0
 28 29  1  0
 29 30  1  0
 30 31  2  0
 32 31  1  0
 32 36  1  0
 33 32  2  0
 34 29  2  0
 34 33  1  0
 35 34  1  0
 37 38  1  0
 38 41  1  0
 38 40  1  0
 39 37  2  0
 42 43  1  0
 42 17  1  0
 44 42  1  0
 45 46  1  0
 45  1  1  0
 47 49  1  0
 47 46  1  0
 48 59  2  0
 49 54  1  0
 50 58  1  0
 50 60  1  0
 51 57  1  0
 51 53  1  0
 52 58  1  0
 53 52  1  0
 54 53  2  0
 55 49  2  0
 56 55  1  0
 56 51  2  0
 57 50  1  0
 58 48  1  0
 60 62  2  0
 61 60  1  0
 63 61  1  0
 64 73  2  0
 64 69  1  0
 65 61  1  0
 65 69  1  0
 66 65  1  0
 67 68  1  0
 67 66  1  0
 68 64  1  0
 69 70  2  0
 70 71  1  0
 72 71  2  0
 73 72  1  0
 74 48  1  0
 74 79  1  0
 74 75  1  0
 75 78  1  1
 75 76  1  0
 77 75  1  0
 79 82  1  0
 80 84  1  0
 80 79  1  0
 81 80  2  0
 84 83  1  0
 86 84  1  0
 86 87  1  0
 86 85  1  0
M  ISO  4   4 100  16 100  46 101  47 101
M  END
>  <TORSDO>  (74) 
F 19

>  <SCORE>  (74) 
-15.716

>  <name>  (74) 
73

>  <ligand_id>  (74) 
73

>  <original_smiles>  (74) 
[H]c1c([H])c([H])c2c(c1[H])C([H])([H])C([H])([H])C([H])([H])C2([H])N([H])C(=O)C1([H])N(C(=O)C([H])(N([H])C(=O)C([H])(N([H])C([H])([H])[H])C([H])([H])[H])C(C([H])([H])[H])(C([H])([H])[H])C([H])([H])[H])C([H])([H])c2c([H])c(OC([H])([H])C([H])([H])C([H])([H])C(=O)C3([H])N(C(=O)N4C([H])([H])C([H])([H])C([H])([H])C([H])(n5nc(-c6c([H])c([H])c(Oc7c([H])c([H])c(F)c([H])c7F)c([H])c6[H])c(C(=O)N([H])[H])c5N([H])[H])C4([H])[H])C([H])([H])C([H])([H])C3([H])[H])c([H])c([H])c2C1([H])[H]

>  <smiles>  (74) 
[H]c1c([H])c([H])c2c(c1[H])C([H])([H])C([H])([H])C([H])([H])C2([H])N([H])C(=O)C1([H])N(C(=O)C([H])(N([H])C(=O)C([H])(N([H])C([H])([H])[H])C([H])([H])[H])C(C([H])([H])[H])(C([H])([H])[H])C([H])([H])[H])C([H])([H])c2c([H])c(OC([H])([H])C([H])([H])C([H])([H])C(=O)C3([H])N(C(=O)N4C([H])([H])C([H])([H])C([H])([H])C([H])(n5nc(-c6c([H])c([H])c(Oc7c([H])c([H])c(F)c([H])c7F)c([H])c6[H])c(C(=O)N([H])[H])c5N([H])[H])C4([H])[H])C([H])([H])C([H])([H])C3([H])[H])c([H])c([H])c2C1([H])[H]

$$$$
74:0:0
     RDKit          3D

100109  0  0  1  0  0  0  0  0999 V2000
  -30.7410  -21.6690   22.4730 C   0  0  0  0  0  3  0  0  0  0  0  0
  -30.5130  -23.9510   21.7000 C   0  0  0  0  0  3  0  0  0  0  0  0
  -30.9380  -22.6330   21.4620 C   0  0  0  0  0  0  0  0  0  0  0  0
  -30.1330  -22.0240   23.6960 C   0  0  0  0  0  0  0  0  0  0  0  0
  -29.9080  -24.3290   22.9140 C   0  0  0  0  0  0  0  0  0  0  0  0
  -29.7110  -23.3590   23.9310 C   0  0  0  0  0  0  0  0  0  0  0  0
  -29.9370  -20.9450   24.7490 C   0  0  0  0  0  1  0  0  0  0  0  0
  -29.0560  -23.7170   25.2620 C   0  0  0  0  0  1  0  0  0  0  0  0
  -31.5610  -22.3220   20.1030 C   0  0  0  0  0  2  0  0  0  0  0  0
  -31.1230  -21.0250   19.3910 C   0  0  0  0  0  2  0  0  0  0  0  0
  -28.9790  -19.8070   18.8440 C   0  0  0  0  0  3  0  0  0  0  0  0
  -29.2110  -22.1040   18.0630 C   0  0  0  0  0  3  0  0  0  0  0  0
  -27.7340  -19.7110   18.1950 C   0  0  0  0  0  3  0  0  0  0  0  0
  -27.9650  -22.0070   17.4110 C   0  0  0  0  0  3  0  0  0  0  0  0
  -29.7310  -20.9970   18.7740 C   0  0  0  0  0  0  0  0  0  0  0  0
  -27.2320  -20.8030   17.4580 C   0  0  0  0  0  0  0  0  0  0  0  0
  -25.9450  -20.6460   16.6700 C   0  0  0  0  0  2  0  0  0  0  0  0
  -23.4960  -20.0880   16.9850 C   0  0  0  0  0  1  0  0  0  0  0  0
  -24.6610  -20.9650   17.4810 C   0  0  0  0  0  3  0  0  0  0  0  0
  -23.9820  -23.2650   16.5450 C   0  0  0  0  0  0  0  0  0  0  0  0
  -22.0500  -24.4860   15.6260 C   0  0  0  0  0  2  0  0  0  0  0  0
  -22.1460  -26.0180   15.6280 C   0  0  0  0  0  2  0  0  0  0  0  0
  -21.6780  -26.5860   16.9780 C   0  0  0  0  0  2  0  0  0  0  0  0
  -22.3710  -25.8960   18.1810 C   0  0  0  0  0  3  0  0  0  0  0  0
  -22.2960  -24.3610   18.0610 C   0  0  0  0  0  2  0  0  0  0  0  0
  -22.8350  -23.9580   16.7500 N   0  0  0  0  0  0  0  0  0  0  0  0
  -24.6050  -23.2940   15.4820 O   0  0  0  0  0  0  0  0  0  0  0  0
  -24.1970  -22.3640   17.5180 N   0  0  0  0  0  0  0  0  0  0  0  0
  -23.6540  -22.5730   18.3410 H   0  0  0  0  0  0  0  0  0  0  0  0
  -22.4010  -27.1650   20.4190 C   0  0  0  0  0  0  0  0  0  0  0  0
  -21.4360  -27.3620   21.3710 C   0  0  0  0  0  0  0  0  0  0  0  0
  -20.2820  -26.6540   20.9160 C   0  0  0  0  0  0  0  0  0  0  0  0
  -21.8190  -26.3640   19.4500 N   0  0  0  0  0  0  0  0  0  0  0  0
  -20.5510  -26.0130   19.7860 N   0  0  0  0  0  0  0  0  0  0  0  0
  -18.9200  -26.5940   21.4620 C   0  0  0  0  0  0  0  0  0  0  0  0
  -18.2870  -25.3630   21.7400 C   0  0  0  0  0  3  0  0  0  0  0  0
  -16.9830  -25.3330   22.2800 C   0  0  0  0  0  3  0  0  0  0  0  0
  -16.3010  -26.5430   22.5530 C   0  0  0  0  0  0  0  0  0  0  0  0
  -16.9270  -27.7660   22.2540 C   0  0  0  0  0  3  0  0  0  0  0  0
  -18.2230  -27.7940   21.7120 C   0  0  0  0  0  3  0  0  0  0  0  0
  -15.0240  -26.6110   23.0550 O   0  0  0  0  0  0  0  0  0  0  0  0
  -14.5210  -25.6370   23.8780 C   0  0  0  0  0  0  0  0  0  0  0  0
  -15.1420  -25.3020   25.1010 C   0  0  0  0  0  3  0  0  0  0  0  0
  -14.5540  -24.3430   25.9500 C   0  0  0  0  0  3  0  0  0  0  0  0
  -13.3420  -23.7270   25.5850 C   0  0  0  0  0  0  0  0  0  0  0  0
  -12.7180  -24.0640   24.3700 C   0  0  0  0  0  3  0  0  0  0  0  0
  -13.3060  -25.0200   23.5210 C   0  0  0  0  0  0  0  0  0  0  0  0
  -12.6900  -25.3560   22.3630 F   0  0  0  0  0  0  0  0  0  0  0  0
  -12.7710  -22.8120   26.4030 F   0  0  0  0  0  0  0  0  0  0  0  0
  -21.5460  -28.2360   22.5870 C   0  0  0  0  0  0  0  0  0  0  0  0
  -20.8280  -27.8970   23.6530 N   0  0  0  0  0  0  0  0  0  0  0  0
  -22.3080  -29.2020   22.6150 O   0  0  0  0  0  0  0  0  0  0  0  0
  -20.2170  -27.0930   23.6340 H   0  0  0  0  0  0  0  0  0  0  0  0
  -20.8880  -28.4470   24.4970 H   0  0  0  0  0  0  0  0  0  0  0  0
  -23.7110  -27.6130   20.2860 N   0  0  0  0  0  0  0  0  0  0  0  0
  -24.1440  -28.2390   20.9560 H   0  0  0  0  0  0  0  0  0  0  0  0
  -24.3090  -27.4070   19.4950 H   0  0  0  0  0  0  0  0  0  0  0  0
  -29.4850  -25.7870   23.0440 C   0  0  0  0  0  2  0  0  0  0  0  0
  -27.9580  -25.9600   22.9580 C   0  0  0  0  0  2  0  0  0  0  0  0
  -27.6690  -27.3280   22.6930 O   0  0  0  0  0  0  0  0  0  0  0  0
  -28.2170  -33.1810   26.6400 C   0  0  0  0  0  0  0  0  0  0  0  0
  -27.1510  -28.0550   23.7320 C   0  0  0  0  0  0  0  0  0  0  0  0
  -26.5710  -31.5120   27.4290 C   0  0  0  0  0  3  0  0  0  0  0  0
  -26.0530  -29.6190   25.8050 C   0  0  0  0  0  0  0  0  0  0  0  0
  -27.1550  -31.6960   24.9470 C   0  0  0  0  0  2  0  0  0  0  0  0
  -26.8720  -30.2140   24.8360 C   0  0  0  0  0  0  0  0  0  0  0  0
  -27.4100  -29.4370   23.7890 C   0  0  0  0  0  3  0  0  0  0  0  0
  -26.3230  -27.4610   24.7100 C   0  0  0  0  0  3  0  0  0  0  0  0
  -25.7720  -28.2420   25.7450 C   0  0  0  0  0  3  0  0  0  0  0  0
  -25.5040  -30.5260   26.8820 C   0  0  0  0  0  2  0  0  0  0  0  0
  -27.3730  -32.1550   26.3380 N   0  0  0  0  0  0  0  0  0  0  0  0
  -28.3080  -33.6210   27.7940 O   0  0  0  0  0  0  0  0  0  0  0  0
  -27.4410  -30.7660   28.4670 C   0  0  0  0  0  0  0  0  0  0  0  0
  -26.9390  -30.6770   29.7100 N   0  0  0  0  0  0  0  0  0  0  0  0
  -28.5230  -30.2670   28.1480 O   0  0  0  0  0  0  0  0  0  0  0  0
  -26.0490  -31.1200   29.8890 H   0  0  0  0  0  0  0  0  0  0  0  0
  -26.5580  -29.9420   33.2260 C   0  0  0  0  0  0  0  0  0  0  0  0
  -27.5620  -29.9910   30.8430 C   0  0  0  0  0  3  0  0  0  0  0  0
  -27.2760  -28.4720   30.8010 C   0  0  0  0  0  2  0  0  0  0  0  0
  -26.0360  -28.0700   31.6060 C   0  0  0  0  0  2  0  0  0  0  0  0
  -26.1920  -28.4750   33.0750 C   0  0  0  0  0  2  0  0  0  0  0  0
  -27.1870  -30.6560   32.1720 C   0  0  0  0  0  0  0  0  0  0  0  0
  -27.4770  -32.0270   32.3510 C   0  0  0  0  0  3  0  0  0  0  0  0
  -27.1500  -32.6790   33.5550 C   0  0  0  0  0  3  0  0  0  0  0  0
  -26.5480  -31.9630   34.6020 C   0  0  0  0  0  3  0  0  0  0  0  0
  -26.2520  -30.5970   34.4370 C   0  0  0  0  0  3  0  0  0  0  0  0
  -29.0930  -33.8680   25.5450 C   0  0  0  0  0  3  0  0  0  0  0  0
  -28.7320  -35.2900   25.5130 N   0  0  0  0  0  0  0  0  0  0  0  0
  -27.9550  -35.8560   24.5770 C   0  0  0  0  0  0  0  0  0  0  0  0
  -27.5220  -35.2370   23.6020 O   0  0  0  0  0  0  0  0  0  0  0  0
  -29.0050  -35.8420   26.3100 H   0  0  0  0  0  0  0  0  0  0  0  0
  -26.1620  -37.4650   25.2990 C   0  0  0  0  0  1  0  0  0  0  0  0
  -27.5950  -37.3420   24.7590 C   0  0  0  0  0  3  0  0  0  0  0  0
  -29.1120  -38.2930   23.0790 C   0  0  0  0  0  1  0  0  0  0  0  0
  -27.7290  -38.1330   23.5170 N   0  0  0  0  0  0  0  0  0  0  0  0
  -27.3220  -39.0570   23.6290 H   0  0  0  0  0  0  0  0  0  0  0  0
  -30.6420  -33.6930   25.7920 C   0  0  1  0  0  0  0  0  0  0  0  0
  -31.0850  -34.0170   27.2370 C   0  0  0  0  0  1  0  0  0  0  0  0
  -31.0780  -32.2430   25.4780 C   0  0  0  0  0  1  0  0  0  0  0  0
  -31.4330  -34.6160   24.8370 C   0  0  0  0  0  1  0  0  0  0  0  0
  1  4  1  0
  2  5  2  0
  3  2  1  0
  3  1  2  0
  4  6  2  0
  4  7  1  0
  5 58  1  0
  5  6  1  0
  6  8  1  0
  9  3  1  0
 10  9  1  0
 12 15  2  0
 13 11  2  0
 14 16  2  0
 14 12  1  0
 15 11  1  0
 15 10  1  0
 16 13  1  0
 17 16  1  0
 17 19  1  0
 19 18  1  0
 19 28  1  0
 20 26  1  0
 20 28  1  0
 21 22  1  0
 21 26  1  0
 22 23  1  0
 24 23  1  0
 24 33  1  0
 25 24  1  0
 26 25  1  0
 27 20  2  0
 28 29  1  0
 30 31  2  0
 31 50  1  0
 32 31  1  0
 32 35  1  0
 33 34  1  0
 33 30  1  0
 34 32  2  0
 35 40  2  0
 35 36  1  0
 36 37  2  0
 37 38  1  0
 38 41  1  0
 39 38  2  0
 40 39  1  0
 41 42  1  0
 42 43  1  0
 43 44  2  0
 45 44  1  0
 45 49  1  0
 46 45  2  0
 47 42  2  0
 47 46  1  0
 48 47  1  0
 50 52  2  0
 50 51  1  0
 51 54  1  0
 53 51  1  0
 55 30  1  0
 55 56  1  0
 57 55  1  0
 59 58  1  0
 60 59  1  0
 60 62  1  0
 61 72  2  0
 62 67  2  0
 62 68  1  0
 63 73  1  0
 64 70  1  0
 65 71  1  0
 66 65  1  0
 66 64  2  0
 67 66  1  0
 68 69  2  0
 69 64  1  0
 70 63  1  0
 71 61  1  0
 71 63  1  0
 73 74  1  0
 74 76  1  0
 75 73  2  0
 77 86  1  0
 78 74  1  0
 78 82  1  0
 79 78  1  0
 79 80  1  0
 80 81  1  0
 81 77  1  0
 82 83  1  0
 82 77  2  0
 83 84  2  0
 84 85  1  0
 86 85  2  0
 87 97  1  0
 87 61  1  0
 88 87  1  0
 88 91  1  0
 89 93  1  0
 89 88  1  0
 90 89  2  0
 93 92  1  0
 94 95  1  0
 95 96  1  0
 95 93  1  0
 97 98  1  1
 99 97  1  0
100 97  1  0
M  ISO  4  20 100  28 100  59 101  60 101
M  END
>  <TORSDO>  (75) 
F 23

>  <SCORE>  (75) 
-2.807

>  <name>  (75) 
74

>  <ligand_id>  (75) 
74

>  <original_smiles>  (75) 
[H]c1c([H])c([H])c2c(c1[H])C([H])([H])C([H])([H])C([H])([H])C2([H])N([H])C(=O)C1([H])N(C(=O)C([H])(N([H])C(=O)C([H])(N([H])C([H])([H])[H])C([H])([H])[H])C(C([H])([H])[H])(C([H])([H])[H])C([H])([H])[H])C([H])([H])c2c([H])c(OC([H])([H])C([H])([H])c3c([H])c(C([H])([H])C([H])([H])c4c([H])c([H])c(C([H])([H])C([H])(N([H])C(=O)N5C([H])([H])C([H])([H])C([H])([H])C([H])(n6nc(-c7c([H])c([H])c(Oc8c([H])c([H])c(F)c([H])c8F)c([H])c7[H])c(C(=O)N([H])[H])c6N([H])[H])C5([H])[H])C([H])([H])[H])c([H])c4[H])c([H])c(C([H])([H])[H])c3C([H])([H])[H])c([H])c([H])c2C1([H])[H]

>  <smiles>  (75) 
[H]c1c([H])c([H])c2c(c1[H])C([H])([H])C([H])([H])C([H])([H])C2([H])N([H])C(=O)C1([H])N(C(=O)C([H])(N([H])C(=O)C([H])(N([H])C([H])([H])[H])C([H])([H])[H])C(C([H])([H])[H])(C([H])([H])[H])C([H])([H])[H])C([H])([H])c2c([H])c(OC([H])([H])C([H])([H])c3c([H])c(C([H])([H])C([H])([H])c4c([H])c([H])c(C([H])([H])C([H])(N([H])C(=O)N5C([H])([H])C([H])([H])C([H])([H])C([H])(n6nc(-c7c([H])c([H])c(Oc8c([H])c([H])c(F)c([H])c8F)c([H])c7[H])c(C(=O)N([H])[H])c6N([H])[H])C5([H])[H])C([H])([H])[H])c([H])c4[H])c([H])c(C([H])([H])[H])c3C([H])([H])[H])c([H])c([H])c2C1([H])[H]

$$$$
75:0:0
     RDKit          3D

 91100  0  0  1  0  0  0  0  0999 V2000
  -31.8970  -20.1630   19.8430 C   0  0  0  0  0  2  0  0  0  0  0  0
  -31.3860  -17.9820   21.2070 C   0  0  0  0  0  2  0  0  0  0  0  0
  -29.2300  -18.4770   20.2070 C   0  0  0  0  0  2  0  0  0  0  0  0
  -31.0910  -21.4590   19.6480 C   0  0  0  0  0  2  0  0  0  0  0  0
  -31.2360  -19.5240   21.0670 C   0  0  0  0  0  3  0  0  0  0  0  0
  -30.3390  -17.3320   20.2780 C   0  0  0  0  0  3  0  0  0  0  0  0
  -29.7540  -19.8480   20.8410 C   0  0  0  0  0  3  0  0  0  0  0  0
  -29.6890  -21.1620   20.0380 N   0  0  1  0  0  4  0  0  0  0  0  0
  -29.1910  -20.9550   19.1820 H   0  0  0  0  0  0  0  0  0  0  0  0
  -30.6380  -14.7270   20.3680 C   0  0  0  0  0  0  0  0  0  0  0  0
  -30.3680  -12.4660   19.3540 C   0  0  0  0  0  2  0  0  0  0  0  0
  -29.4370  -12.5710   18.1280 C   0  0  0  0  0  2  0  0  0  0  0  0
  -27.9670  -12.4040   18.5570 C   0  0  0  0  0  2  0  0  0  0  0  0
  -27.5990  -13.2840   19.7800 C   0  0  0  0  0  3  0  0  0  0  0  0
  -28.6620  -13.1980   20.8990 C   0  0  0  0  0  2  0  0  0  0  0  0
  -29.9680  -13.5270   20.3080 N   0  0  0  0  0  0  0  0  0  0  0  0
  -31.8110  -14.7950   19.9960 O   0  0  0  0  0  0  0  0  0  0  0  0
  -29.9340  -15.8920   20.6190 N   0  0  0  0  0  0  0  0  0  0  0  0
  -28.9800  -15.7600   20.9210 H   0  0  0  0  0  0  0  0  0  0  0  0
  -25.2050  -13.8710   20.5030 C   0  0  0  0  0  0  0  0  0  0  0  0
  -24.1390  -13.0970   20.8780 C   0  0  0  0  0  0  0  0  0  0  0  0
  -24.6060  -11.7470   20.8550 C   0  0  0  0  0  0  0  0  0  0  0  0
  -26.2530  -12.9940   20.2730 N   0  0  0  0  0  0  0  0  0  0  0  0
  -25.8970  -11.7110   20.5460 N   0  0  0  0  0  0  0  0  0  0  0  0
  -23.8800  -10.4830   21.0480 C   0  0  0  0  0  0  0  0  0  0  0  0
  -24.3230   -9.5110   21.9700 C   0  0  0  0  0  3  0  0  0  0  0  0
  -23.5970   -8.3130   22.1520 C   0  0  0  0  0  3  0  0  0  0  0  0
  -22.4150   -8.0800   21.4110 C   0  0  0  0  0  0  0  0  0  0  0  0
  -21.9910   -9.0400   20.4780 C   0  0  0  0  0  3  0  0  0  0  0  0
  -22.7170  -10.2300   20.2930 C   0  0  0  0  0  3  0  0  0  0  0  0
  -21.6570   -6.9350   21.5050 O   0  0  0  0  0  0  0  0  0  0  0  0
  -21.6360   -6.1800   22.6490 C   0  0  0  0  0  0  0  0  0  0  0  0
  -21.2560   -6.7220   23.8970 C   0  0  0  0  0  3  0  0  0  0  0  0
  -21.1790   -5.8930   25.0330 C   0  0  0  0  0  3  0  0  0  0  0  0
  -21.4720   -4.5200   24.9250 C   0  0  0  0  0  0  0  0  0  0  0  0
  -21.8460   -3.9760   23.6840 C   0  0  0  0  0  3  0  0  0  0  0  0
  -21.9250   -4.8020   22.5510 C   0  0  0  0  0  0  0  0  0  0  0  0
  -22.2640   -4.2670   21.3520 F   0  0  0  0  0  0  0  0  0  0  0  0
  -21.3930   -3.7230   26.0150 F   0  0  0  0  0  0  0  0  0  0  0  0
  -22.7400  -13.5720   21.1460 C   0  0  0  0  0  0  0  0  0  0  0  0
  -22.0090  -12.8850   22.0160 N   0  0  0  0  0  0  0  0  0  0  0  0
  -22.3030  -14.5940   20.6170 O   0  0  0  0  0  0  0  0  0  0  0  0
  -22.3710  -12.0620   22.4750 H   0  0  0  0  0  0  0  0  0  0  0  0
  -21.0700  -13.1890   22.2290 H   0  0  0  0  0  0  0  0  0  0  0  0
  -25.3660  -15.2400   20.3110 N   0  0  0  0  0  0  0  0  0  0  0  0
  -24.5920  -15.8920   20.3850 H   0  0  0  0  0  0  0  0  0  0  0  0
  -26.2050  -15.6640   19.9350 H   0  0  0  0  0  0  0  0  0  0  0  0
  -28.9710  -22.3670   20.6740 C   0  0  0  0  0  2  0  0  0  0  0  0
  -29.0830  -23.8430   20.0130 C   0  0  0  0  0  3  0  0  0  0  0  0
  -28.1880  -25.0340   20.6260 C   0  0  0  0  0  3  0  0  0  0  0  0
  -28.3590  -26.4590   20.2060 O   0  0  0  0  0  0  0  0  0  0  0  0
  -24.6100  -31.8820   23.2410 C   0  0  0  0  0  0  0  0  0  0  0  0
  -27.2350  -27.3080   20.2040 C   0  0  0  0  0  0  0  0  0  0  0  0
  -23.4090  -30.4780   21.6050 C   0  0  0  0  0  3  0  0  0  0  0  0
  -24.8640  -28.9200   20.1880 C   0  0  0  0  0  0  0  0  0  0  0  0
  -25.9490  -30.7970   21.4210 C   0  0  0  0  0  2  0  0  0  0  0  0
  -26.0320  -29.4140   20.7830 C   0  0  0  0  0  0  0  0  0  0  0  0
  -27.2220  -28.6210   20.7770 C   0  0  0  0  0  3  0  0  0  0  0  0
  -26.0430  -26.8720   19.5840 C   0  0  0  0  0  3  0  0  0  0  0  0
  -24.8720  -27.6550   19.5780 C   0  0  0  0  0  3  0  0  0  0  0  0
  -23.6260  -29.7950   20.2280 C   0  0  0  0  0  2  0  0  0  0  0  0
  -24.6760  -31.0710   22.1450 N   0  0  0  0  0  0  0  0  0  0  0  0
  -23.5260  -32.1610   23.7730 O   0  0  0  0  0  0  0  0  0  0  0  0
  -22.7460  -29.4650   22.5680 C   0  0  0  0  0  0  0  0  0  0  0  0
  -21.4200  -29.2880   22.4410 N   0  0  0  0  0  0  0  0  0  0  0  0
  -23.4240  -28.8400   23.3880 O   0  0  0  0  0  0  0  0  0  0  0  0
  -20.9330  -29.8430   21.7510 H   0  0  0  0  0  0  0  0  0  0  0  0
  -18.0440  -28.0890   22.9380 C   0  0  0  0  0  0  0  0  0  0  0  0
  -20.6010  -28.3550   23.2150 C   0  0  0  0  0  3  0  0  0  0  0  0
  -20.7080  -26.9210   22.6470 C   0  0  0  0  0  2  0  0  0  0  0  0
  -19.6100  -26.5900   21.6320 C   0  0  0  0  0  2  0  0  0  0  0  0
  -18.2250  -26.7370   22.2700 C   0  0  0  0  0  2  0  0  0  0  0  0
  -19.1600  -28.8550   23.3680 C   0  0  0  0  0  0  0  0  0  0  0  0
  -18.9380  -30.1210   23.9540 C   0  0  0  0  0  3  0  0  0  0  0  0
  -17.6320  -30.6200   24.1130 C   0  0  0  0  0  3  0  0  0  0  0  0
  -16.5300  -29.8530   23.6980 C   0  0  0  0  0  3  0  0  0  0  0  0
  -16.7370  -28.5880   23.1180 C   0  0  0  0  0  3  0  0  0  0  0  0
  -25.8910  -32.5190   23.8650 C   0  0  0  0  0  3  0  0  0  0  0  0
  -26.4070  -31.7510   25.1430 C   0  0  1  0  0  0  0  0  0  0  0  0
  -25.3130  -31.5180   26.2110 C   0  0  0  0  0  1  0  0  0  0  0  0
  -26.9880  -30.3700   24.7560 C   0  0  0  0  0  1  0  0  0  0  0  0
  -27.5560  -32.5470   25.8060 C   0  0  0  0  0  1  0  0  0  0  0  0
  -25.5780  -33.9170   24.1920 N   0  0  0  0  0  0  0  0  0  0  0  0
  -25.9120  -34.9700   23.4340 C   0  0  0  0  0  0  0  0  0  0  0  0
  -26.5830  -34.8670   22.4040 O   0  0  0  0  0  0  0  0  0  0  0  0
  -24.9770  -34.0710   24.9880 H   0  0  0  0  0  0  0  0  0  0  0  0
  -24.1790  -36.7620   23.0820 C   0  0  0  0  0  1  0  0  0  0  0  0
  -25.4230  -36.3590   23.8910 C   0  0  0  0  0  3  0  0  0  0  0  0
  -27.5580  -37.2460   24.7160 C   0  0  0  0  0  1  0  0  0  0  0  0
  -26.4530  -37.4120   23.7760 N   0  0  0  0  0  0  0  0  0  0  0  0
  -26.0450  -38.3320   23.9260 H   0  0  0  0  0  0  0  0  0  0  0  0
  3  6  1  0
  4  1  1  0
  4  8  1  0
  5  1  1  0
  5  2  1  0
  6 18  1  0
  6  2  1  0
  7  3  1  0
  7  5  1  0
  8 48  1  0
  8  7  1  0
  8  9  1  6
 10 18  1  0
 11 16  1  0
 12 13  1  0
 12 11  1  0
 14 13  1  0
 14 23  1  0
 14 15  1  0
 16 10  1  0
 16 15  1  0
 17 10  2  0
 18 19  1  0
 20 21  2  0
 21 40  1  0
 22 21  1  0
 22 25  1  0
 23 20  1  0
 23 24  1  0
 24 22  2  0
 25 26  1  0
 26 27  2  0
 28 31  1  0
 28 27  1  0
 29 28  2  0
 30 29  1  0
 30 25  2  0
 31 32  1  0
 32 33  1  0
 33 34  2  0
 35 34  1  0
 35 39  1  0
 36 35  2  0
 37 32  2  0
 37 36  1  0
 38 37  1  0
 40 41  1  0
 41 44  1  0
 41 43  1  0
 42 40  2  0
 45 46  1  0
 45 20  1  0
 47 45  1  0
 49 50  2  0
 49 48  1  0
 51 50  1  0
 52 63  2  0
 53 51  1  0
 53 58  1  0
 54 62  1  0
 54 64  1  0
 55 61  1  0
 55 57  1  0
 56 62  1  0
 57 56  1  0
 58 57  2  0
 59 53  2  0
 60 59  1  0
 60 55  2  0
 61 54  1  0
 62 52  1  0
 64 66  2  0
 65 64  1  0
 67 65  1  0
 68 77  2  0
 68 73  1  0
 69 65  1  0
 69 73  1  0
 70 69  1  0
 71 72  1  0
 71 70  1  0
 72 68  1  0
 73 74  2  0
 74 75  1  0
 76 75  2  0
 77 76  1  0
 78 52  1  0
 78 83  1  0
 78 79  1  0
 79 82  1  1
 79 80  1  0
 81 79  1  0
 83 86  1  0
 84 88  1  0
 84 83  1  0
 85 84  2  0
 88 87  1  0
 90 88  1  0
 90 91  1  0
 90 89  1  0
M  ISO  4  10 100  18 100  50 101  51 101
M  END
>  <TORSDO>  (76) 
F 19

>  <SCORE>  (76) 
-14.333

>  <name>  (76) 
75

>  <ligand_id>  (76) 
75

>  <original_smiles>  (76) 
[H]c1c([H])c([H])c2c(c1[H])C([H])([H])C([H])([H])C([H])([H])C2([H])N([H])C(=O)C1([H])N(C(=O)C([H])(N([H])C(=O)C([H])(N([H])C([H])([H])[H])C([H])([H])[H])C(C([H])([H])[H])(C([H])([H])[H])C([H])([H])[H])C([H])([H])c2c([H])c(OC([H])([H])C([H])([H])C([H])([H])[N+]3([H])C([H])([H])C([H])([H])C4([H])C([H])([H])C([H])(N([H])C(=O)N5C([H])([H])C([H])([H])C([H])([H])C([H])(n6nc(-c7c([H])c([H])c(Oc8c([H])c([H])c(F)c([H])c8F)c([H])c7[H])c(C(=O)N([H])[H])c6N([H])[H])C5([H])[H])C([H])([H])C43[H])c([H])c([H])c2C1([H])[H]

>  <smiles>  (76) 
[H]c1c([H])c([H])c2c(c1[H])C([H])([H])C([H])([H])C([H])([H])C2([H])N([H])C(=O)C1([H])N(C(=O)C([H])(N([H])C(=O)C([H])(N([H])C([H])([H])[H])C([H])([H])[H])C(C([H])([H])[H])(C([H])([H])[H])C([H])([H])[H])C([H])([H])c2c([H])c(OC([H])([H])C([H])([H])C([H])([H])[N+]3([H])C([H])([H])C([H])([H])C4([H])C([H])([H])C([H])(N([H])C(=O)N5C([H])([H])C([H])([H])C([H])([H])C([H])(n6nc(-c7c([H])c([H])c(Oc8c([H])c([H])c(F)c([H])c8F)c([H])c7[H])c(C(=O)N([H])[H])c6N([H])[H])C5([H])[H])C([H])([H])C43[H])c([H])c([H])c2C1([H])[H]

$$$$
76:0:0
     RDKit          3D

 90 99  0  0  1  0  0  0  0  0999 V2000
  -31.5520  -23.1760   19.2200 C   0  0  0  0  0  3  0  0  0  0  0  0
  -31.2060  -21.8120   19.3820 C   0  0  0  0  0  3  0  0  0  0  0  0
  -30.5940  -24.2030   19.4000 C   0  0  0  0  0  3  0  0  0  0  0  0
  -28.9440  -22.4920   19.9080 C   0  0  0  0  0  3  0  0  0  0  0  0
  -29.8960  -21.4320   19.7470 C   0  0  0  0  0  0  0  0  0  0  0  0
  -29.2640  -23.8820   19.7400 C   0  0  0  0  0  0  0  0  0  0  0  0
  -30.1320  -19.5440   21.3750 C   0  0  0  0  0  2  0  0  0  0  0  0
  -29.5330  -19.9560   20.0660 C   0  0  0  0  0  3  0  0  0  0  0  0
  -30.3930  -18.6270   20.1920 C   0  0  0  0  0  3  0  0  0  0  0  0
  -28.4960  -16.9630   20.8680 C   0  0  0  0  0  1  0  0  0  0  0  0
  -29.9850  -17.1140   20.4810 C   0  0  0  0  0  3  0  0  0  0  0  0
  -30.3490  -15.9850   19.4180 C   0  0  0  0  0  2  0  0  0  0  0  0
  -31.0190  -14.6030   19.8380 C   0  0  0  0  0  0  0  0  0  0  0  0
  -30.6760  -12.2950   19.0240 C   0  0  0  0  0  2  0  0  0  0  0  0
  -29.7220  -12.3600   17.8140 C   0  0  0  0  0  2  0  0  0  0  0  0
  -28.2530  -12.2710   18.2820 C   0  0  0  0  0  2  0  0  0  0  0  0
  -27.9300  -13.2320   19.4580 C   0  0  0  0  0  3  0  0  0  0  0  0
  -29.0210  -13.1960   20.5470 C   0  0  0  0  0  2  0  0  0  0  0  0
  -30.3230  -13.4230   19.9090 N   0  0  0  0  0  0  0  0  0  0  0  0
  -32.2410  -14.5780   19.6970 O   0  0  0  0  0  0  0  0  0  0  0  0
  -25.5890  -13.9310   20.2420 C   0  0  0  0  0  0  0  0  0  0  0  0
  -24.5000  -13.2100   20.6440 C   0  0  0  0  0  0  0  0  0  0  0  0
  -24.9070  -11.8390   20.6250 C   0  0  0  0  0  0  0  0  0  0  0  0
  -26.5910  -13.0050   19.9960 N   0  0  0  0  0  0  0  0  0  0  0  0
  -26.1890  -11.7430   20.2940 N   0  0  0  0  0  0  0  0  0  0  0  0
  -24.1330  -10.6110   20.8400 C   0  0  0  0  0  0  0  0  0  0  0  0
  -24.5250   -9.6530   21.7990 C   0  0  0  0  0  3  0  0  0  0  0  0
  -23.7540   -8.4890   22.0050 C   0  0  0  0  0  3  0  0  0  0  0  0
  -22.5770   -8.2740   21.2480 C   0  0  0  0  0  0  0  0  0  0  0  0
  -22.2020   -9.2190   20.2760 C   0  0  0  0  0  3  0  0  0  0  0  0
  -22.9740  -10.3750   20.0710 C   0  0  0  0  0  3  0  0  0  0  0  0
  -21.7820   -7.1570   21.3580 O   0  0  0  0  0  0  0  0  0  0  0  0
  -21.6720   -6.4660   22.5360 C   0  0  0  0  0  0  0  0  0  0  0  0
  -21.2260   -7.0870   23.7220 C   0  0  0  0  0  3  0  0  0  0  0  0
  -21.0600   -6.3250   24.8970 C   0  0  0  0  0  3  0  0  0  0  0  0
  -21.3290   -4.9430   24.8830 C   0  0  0  0  0  0  0  0  0  0  0  0
  -21.7750   -4.3230   23.7020 C   0  0  0  0  0  3  0  0  0  0  0  0
  -21.9420   -5.0830   22.5320 C   0  0  0  0  0  0  0  0  0  0  0  0
  -22.3490   -4.4770   21.3910 F   0  0  0  0  0  0  0  0  0  0  0  0
  -21.1620   -4.2090   26.0090 F   0  0  0  0  0  0  0  0  0  0  0  0
  -23.1300  -13.7470   20.9440 C   0  0  0  0  0  0  0  0  0  0  0  0
  -22.4010  -13.0920   21.8390 N   0  0  0  0  0  0  0  0  0  0  0  0
  -22.7190  -14.7830   20.4220 O   0  0  0  0  0  0  0  0  0  0  0  0
  -22.7560  -12.2560   22.2800 H   0  0  0  0  0  0  0  0  0  0  0  0
  -21.4840  -13.4350   22.0890 H   0  0  0  0  0  0  0  0  0  0  0  0
  -25.8180  -15.2890   20.0330 N   0  0  0  0  0  0  0  0  0  0  0  0
  -25.1050  -16.0050   20.1100 H   0  0  0  0  0  0  0  0  0  0  0  0
  -26.6870  -15.6350   19.6540 H   0  0  0  0  0  0  0  0  0  0  0  0
  -28.1360  -24.9600   19.7470 C   0  0  0  0  0  2  0  0  0  0  0  0
  -28.3780  -26.3810   20.0870 O   0  0  0  0  0  0  0  0  0  0  0  0
  -24.5950  -31.7650   23.1370 C   0  0  0  0  0  0  0  0  0  0  0  0
  -27.2480  -27.2230   20.0680 C   0  0  0  0  0  0  0  0  0  0  0  0
  -23.4080  -30.3640   21.4930 C   0  0  0  0  0  3  0  0  0  0  0  0
  -24.8670  -28.8240   20.0800 C   0  0  0  0  0  0  0  0  0  0  0  0
  -25.9480  -30.6940   21.3200 C   0  0  0  0  0  2  0  0  0  0  0  0
  -26.0390  -29.3170   20.6710 C   0  0  0  0  0  0  0  0  0  0  0  0
  -27.2320  -28.5310   20.6530 C   0  0  0  0  0  3  0  0  0  0  0  0
  -26.0350  -26.7840   19.4760 C   0  0  0  0  0  3  0  0  0  0  0  0
  -24.8660  -27.5600   19.4820 C   0  0  0  0  0  3  0  0  0  0  0  0
  -23.6300  -29.6950   20.1150 C   0  0  0  0  0  2  0  0  0  0  0  0
  -24.6700  -30.9560   22.0410 N   0  0  0  0  0  0  0  0  0  0  0  0
  -23.5080  -32.0380   23.6630 O   0  0  0  0  0  0  0  0  0  0  0  0
  -22.7440  -29.3400   22.4460 C   0  0  0  0  0  0  0  0  0  0  0  0
  -21.4210  -29.1550   22.3060 N   0  0  0  0  0  0  0  0  0  0  0  0
  -23.4180  -28.7180   23.2730 O   0  0  0  0  0  0  0  0  0  0  0  0
  -20.9400  -29.7080   21.6100 H   0  0  0  0  0  0  0  0  0  0  0  0
  -18.0430  -27.9420   22.7700 C   0  0  0  0  0  0  0  0  0  0  0  0
  -20.5970  -28.2170   23.0710 C   0  0  0  0  0  3  0  0  0  0  0  0
  -20.7140  -26.7850   22.5030 C   0  0  0  0  0  2  0  0  0  0  0  0
  -19.6240  -26.4490   21.4790 C   0  0  0  0  0  2  0  0  0  0  0  0
  -18.2340  -26.5910   22.1050 C   0  0  0  0  0  2  0  0  0  0  0  0
  -19.1520  -28.7140   23.2090 C   0  0  0  0  0  0  0  0  0  0  0  0
  -18.9190  -29.9790   23.7910 C   0  0  0  0  0  3  0  0  0  0  0  0
  -17.6080  -30.4720   23.9400 C   0  0  0  0  0  3  0  0  0  0  0  0
  -16.5130  -29.6990   23.5170 C   0  0  0  0  0  3  0  0  0  0  0  0
  -16.7320  -28.4370   22.9370 C   0  0  0  0  0  3  0  0  0  0  0  0
  -25.8710  -32.4020   23.7670 C   0  0  0  0  0  3  0  0  0  0  0  0
  -26.3950  -31.6190   25.0330 C   0  0  1  0  0  0  0  0  0  0  0  0
  -25.3040  -31.3560   26.0980 C   0  0  0  0  0  1  0  0  0  0  0  0
  -26.9910  -30.2520   24.6240 C   0  0  0  0  0  1  0  0  0  0  0  0
  -27.5350  -32.4180   25.7070 C   0  0  0  0  0  1  0  0  0  0  0  0
  -25.5470  -33.7920   24.1150 N   0  0  0  0  0  0  0  0  0  0  0  0
  -25.8720  -34.8590   23.3740 C   0  0  0  0  0  0  0  0  0  0  0  0
  -26.5500  -34.7780   22.3450 O   0  0  0  0  0  0  0  0  0  0  0  0
  -24.9470  -33.9290   24.9140 H   0  0  0  0  0  0  0  0  0  0  0  0
  -24.1350  -36.6440   23.0290 C   0  0  0  0  0  1  0  0  0  0  0  0
  -25.3690  -36.2350   23.8490 C   0  0  0  0  0  3  0  0  0  0  0  0
  -27.4880  -37.1210   24.7200 C   0  0  0  0  0  1  0  0  0  0  0  0
  -26.3940  -37.2990   23.7670 N   0  0  0  0  0  0  0  0  0  0  0  0
  -25.9800  -38.2130   23.9290 H   0  0  0  0  0  0  0  0  0  0  0  0
  1  2  2  0
  1  3  1  0
  2  5  1  0
  3  6  2  0
  5  4  2  0
  6 49  1  0
  6  4  1  0
  8  5  1  0
  8  9  1  0
  8  7  1  0
  9 11  1  0
  9  7  1  0
 11 10  1  0
 12 13  1  0
 12 11  1  0
 13 19  1  0
 14 19  1  0
 15 16  1  0
 15 14  1  0
 17 16  1  0
 17 24  1  0
 17 18  1  0
 19 18  1  0
 20 13  2  0
 21 22  2  0
 22 41  1  0
 23 22  1  0
 23 26  1  0
 24 21  1  0
 24 25  1  0
 25 23  2  0
 26 27  1  0
 27 28  2  0
 29 32  1  0
 29 28  1  0
 30 29  2  0
 31 30  1  0
 31 26  2  0
 32 33  1  0
 33 34  1  0
 34 35  2  0
 36 35  1  0
 36 40  1  0
 37 36  2  0
 38 33  2  0
 38 37  1  0
 39 38  1  0
 41 42  1  0
 42 45  1  0
 42 44  1  0
 43 41  2  0
 46 47  1  0
 46 21  1  0
 48 46  1  0
 49 50  1  0
 51 62  2  0
 52 50  1  0
 52 57  1  0
 53 61  1  0
 53 63  1  0
 54 60  1  0
 54 56  1  0
 55 61  1  0
 56 55  1  0
 57 56  2  0
 58 59  1  0
 58 52  2  0
 59 54  2  0
 60 53  1  0
 61 51  1  0
 63 65  2  0
 64 63  1  0
 66 64  1  0
 67 76  2  0
 67 72  1  0
 68 64  1  0
 68 72  1  0
 69 68  1  0
 70 71  1  0
 70 69  1  0
 71 67  1  0
 72 73  2  0
 73 74  1  0
 75 74  2  0
 76 75  1  0
 77 51  1  0
 77 82  1  0
 77 78  1  0
 78 81  1  1
 78 79  1  0
 80 78  1  0
 82 85  1  0
 83 87  1  0
 83 82  1  0
 84 83  2  0
 87 86  1  0
 89 87  1  0
 89 90  1  0
 89 88  1  0
M  ISO  4  12 100  13 100  49 101  50 101
M  END
>  <TORSDO>  (77) 
F 20

>  <SCORE>  (77) 
-13.372

>  <name>  (77) 
76

>  <ligand_id>  (77) 
76

>  <original_smiles>  (77) 
[H]c1c([H])c([H])c2c(c1[H])C([H])([H])C([H])([H])C([H])([H])C2([H])N([H])C(=O)C1([H])N(C(=O)C([H])(N([H])C(=O)C([H])(N([H])C([H])([H])[H])C([H])([H])[H])C(C([H])([H])[H])(C([H])([H])[H])C([H])([H])[H])C([H])([H])c2c([H])c(OC([H])([H])c3c([H])c([H])c([H])c(C4([H])C([H])([H])C4([H])C([H])(C([H])([H])[H])C([H])([H])C(=O)N4C([H])([H])C([H])([H])C([H])([H])C([H])(n5nc(-c6c([H])c([H])c(Oc7c([H])c([H])c(F)c([H])c7F)c([H])c6[H])c(C(=O)N([H])[H])c5N([H])[H])C4([H])[H])c3[H])c([H])c([H])c2C1([H])[H]

>  <smiles>  (77) 
[H]c1c([H])c([H])c2c(c1[H])C([H])([H])C([H])([H])C([H])([H])C2([H])N([H])C(=O)C1([H])N(C(=O)C([H])(N([H])C(=O)C([H])(N([H])C([H])([H])[H])C([H])([H])[H])C(C([H])([H])[H])(C([H])([H])[H])C([H])([H])[H])C([H])([H])c2c([H])c(OC([H])([H])c3c([H])c([H])c([H])c(C4([H])C([H])([H])C4([H])C([H])(C([H])([H])[H])C([H])([H])C(=O)N4C([H])([H])C([H])([H])C([H])([H])C([H])(n5nc(-c6c([H])c([H])c(Oc7c([H])c([H])c(F)c([H])c7F)c([H])c6[H])c(C(=O)N([H])[H])c5N([H])[H])C4([H])[H])c3[H])c([H])c([H])c2C1([H])[H]

$$$$
77:0:0
     RDKit          3D

 96105  0  0  1  0  0  0  0  0999 V2000
  -27.8410  -21.3900   20.4080 C   0  0  0  0  0  2  0  0  0  0  0  0
  -29.9810  -20.9600   19.5450 C   0  0  0  0  0  2  0  0  0  0  0  0
  -27.7170  -22.2890   18.2460 C   0  0  0  0  0  2  0  0  0  0  0  0
  -27.6610  -20.9060   18.9730 C   0  0  0  0  0  3  0  0  0  0  0  0
  -28.9740  -20.1230   18.7060 C   0  0  0  0  0  3  0  0  0  0  0  0
  -29.1310  -22.1400   20.1020 C   0  0  0  0  0  3  0  0  0  0  0  0
  -28.7760  -23.0470   18.9720 N   0  0  2  0  0  4  0  0  0  0  0  0
  -29.5890  -23.0110   18.3710 H   0  0  0  0  0  0  0  0  0  0  0  0
  -29.0080  -18.5340   18.7440 C   0  0  0  0  0  2  0  0  0  0  0  0
  -27.3410  -17.4740   20.3800 C   0  0  0  0  0  3  0  0  0  0  0  0
  -28.6190  -17.6880   19.9890 C   0  0  0  0  0  0  0  0  0  0  0  0
  -26.0550  -17.9560   19.7410 C   0  0  0  0  0  1  0  0  0  0  0  0
  -29.7480  -16.9720   20.7840 C   0  0  0  0  0  0  0  0  0  0  0  0
  -30.5900  -14.5290   20.1690 C   0  0  0  0  0  0  0  0  0  0  0  0
  -30.4260  -12.2290   19.2520 C   0  0  0  0  0  2  0  0  0  0  0  0
  -29.4490  -12.2700   18.0510 C   0  0  0  0  0  2  0  0  0  0  0  0
  -27.9760  -12.1490   18.5070 C   0  0  0  0  0  2  0  0  0  0  0  0
  -27.6350  -13.1090   19.6790 C   0  0  0  0  0  3  0  0  0  0  0  0
  -28.7080  -12.9650   20.7830 C   0  0  0  0  0  2  0  0  0  0  0  0
  -30.0140  -13.2890   20.1810 N   0  0  0  0  0  0  0  0  0  0  0  0
  -31.7160  -14.7340   19.7070 O   0  0  0  0  0  0  0  0  0  0  0  0
  -29.7490  -15.4960   20.6050 N   0  0  0  0  0  4  0  0  0  0  0  0
  -28.9190  -15.0750   20.9920 H   0  0  0  0  0  0  0  0  0  0  0  0
  -25.2640  -13.7630   20.4540 C   0  0  0  0  0  0  0  0  0  0  0  0
  -24.1880  -13.0220   20.8490 C   0  0  0  0  0  0  0  0  0  0  0  0
  -24.6150  -11.6570   20.8050 C   0  0  0  0  0  0  0  0  0  0  0  0
  -26.2850  -12.8640   20.1930 N   0  0  0  0  0  0  0  0  0  0  0  0
  -25.8960  -11.5910   20.4630 N   0  0  0  0  0  0  0  0  0  0  0  0
  -23.8600  -10.4130   21.0150 C   0  0  0  0  0  0  0  0  0  0  0  0
  -24.2880   -9.4260   21.9310 C   0  0  0  0  0  3  0  0  0  0  0  0
  -23.5300   -8.2520   22.1250 C   0  0  0  0  0  3  0  0  0  0  0  0
  -22.3260   -8.0550   21.4050 C   0  0  0  0  0  0  0  0  0  0  0  0
  -21.9210   -9.0280   20.4730 C   0  0  0  0  0  3  0  0  0  0  0  0
  -22.6830  -10.1920   20.2770 C   0  0  0  0  0  3  0  0  0  0  0  0
  -21.5430   -6.9330   21.5070 O   0  0  0  0  0  0  0  0  0  0  0  0
  -21.5090   -6.1870   22.6580 C   0  0  0  0  0  0  0  0  0  0  0  0
  -21.1270   -6.7490   23.8960 C   0  0  0  0  0  3  0  0  0  0  0  0
  -21.0340   -5.9330   25.0380 C   0  0  0  0  0  3  0  0  0  0  0  0
  -21.3090   -4.5560   24.9450 C   0  0  0  0  0  0  0  0  0  0  0  0
  -21.6870   -3.9950   23.7130 C   0  0  0  0  0  3  0  0  0  0  0  0
  -21.7760   -4.8070   22.5690 C   0  0  0  0  0  0  0  0  0  0  0  0
  -22.1190   -4.2610   21.3780 F   0  0  0  0  0  0  0  0  0  0  0  0
  -21.2120   -3.7650   26.0400 F   0  0  0  0  0  0  0  0  0  0  0  0
  -22.8080  -13.5320   21.1510 C   0  0  0  0  0  0  0  0  0  0  0  0
  -22.0940  -12.8700   22.0510 N   0  0  0  0  0  0  0  0  0  0  0  0
  -22.3800  -14.5650   20.6300 O   0  0  0  0  0  0  0  0  0  0  0  0
  -22.4550  -12.0330   22.4860 H   0  0  0  0  0  0  0  0  0  0  0  0
  -21.1770  -13.2070   22.3120 H   0  0  0  0  0  0  0  0  0  0  0  0
  -25.4550  -15.1290   20.2690 N   0  0  0  0  0  0  0  0  0  0  0  0
  -24.7080  -15.7980   20.4190 H   0  0  0  0  0  0  0  0  0  0  0  0
  -26.3020  -15.5590   19.9290 H   0  0  0  0  0  0  0  0  0  0  0  0
  -31.0660  -18.8060   21.9410 C   0  0  0  0  0  1  0  0  0  0  0  0
  -31.0900  -17.7410   20.8300 C   0  0  0  0  0  2  0  0  0  0  0  0
  -28.5780  -24.5410   19.1480 C   0  0  0  0  0  2  0  0  0  0  0  0
  -28.3080  -25.1460   20.5660 C   0  0  0  0  0  2  0  0  0  0  0  0
  -28.4250  -26.6020   20.6260 O   0  0  0  0  0  0  0  0  0  0  0  0
  -24.5710  -31.9600   23.4100 C   0  0  0  0  0  0  0  0  0  0  0  0
  -27.2730  -27.3730   20.5590 C   0  0  0  0  0  0  0  0  0  0  0  0
  -23.4190  -30.5270   21.7590 C   0  0  0  0  0  3  0  0  0  0  0  0
  -24.9090  -28.9360   20.4320 C   0  0  0  0  0  0  0  0  0  0  0  0
  -25.9590  -30.8520   21.6530 C   0  0  0  0  0  2  0  0  0  0  0  0
  -26.0550  -29.4620   21.0400 C   0  0  0  0  0  0  0  0  0  0  0  0
  -27.2460  -28.6940   21.0780 C   0  0  0  0  0  3  0  0  0  0  0  0
  -26.0950  -26.8670   19.9660 C   0  0  0  0  0  3  0  0  0  0  0  0
  -24.9220  -27.6410   19.8910 C   0  0  0  0  0  3  0  0  0  0  0  0
  -23.6810  -29.8130   20.4050 C   0  0  0  0  0  2  0  0  0  0  0  0
  -24.6650  -31.1330   22.3310 N   0  0  0  0  0  0  0  0  0  0  0  0
  -23.4710  -32.2480   23.9080 O   0  0  0  0  0  0  0  0  0  0  0  0
  -22.7240  -29.5330   22.7190 C   0  0  0  0  0  0  0  0  0  0  0  0
  -21.4110  -29.3500   22.5250 N   0  0  0  0  0  0  0  0  0  0  0  0
  -23.3670  -28.9300   23.5820 O   0  0  0  0  0  0  0  0  0  0  0  0
  -20.9760  -29.9130   21.8070 H   0  0  0  0  0  0  0  0  0  0  0  0
  -18.0120  -28.1310   22.8900 C   0  0  0  0  0  0  0  0  0  0  0  0
  -20.5540  -28.4250   23.2690 C   0  0  0  0  0  3  0  0  0  0  0  0
  -20.6980  -26.9840   22.7310 C   0  0  0  0  0  2  0  0  0  0  0  0
  -19.6320  -26.5710   21.7090 C   0  0  0  0  0  2  0  0  0  0  0  0
  -18.2160  -26.7590   22.2630 C   0  0  0  0  0  2  0  0  0  0  0  0
  -19.1030  -28.9140   23.3530 C   0  0  0  0  0  0  0  0  0  0  0  0
  -18.8450  -30.1840   23.9120 C   0  0  0  0  0  3  0  0  0  0  0  0
  -17.5340  -30.6760   24.0220 C   0  0  0  0  0  3  0  0  0  0  0  0
  -16.4580  -29.8970   23.5650 C   0  0  0  0  0  3  0  0  0  0  0  0
  -16.6960  -28.6330   23.0020 C   0  0  0  0  0  3  0  0  0  0  0  0
  -25.8330  -32.6040   24.0640 C   0  0  0  0  0  3  0  0  0  0  0  0
  -25.5220  -34.0160   24.3250 N   0  0  0  0  0  0  0  0  0  0  0  0
  -25.8890  -35.0320   23.5340 C   0  0  0  0  0  0  0  0  0  0  0  0
  -26.5950  -34.8790   22.5330 O   0  0  0  0  0  0  0  0  0  0  0  0
  -24.9070  -34.2090   25.1020 H   0  0  0  0  0  0  0  0  0  0  0  0
  -24.1820  -36.8200   23.0490 C   0  0  0  0  0  1  0  0  0  0  0  0
  -25.3940  -36.4440   23.9170 C   0  0  0  0  0  3  0  0  0  0  0  0
  -27.5120  -37.3480   24.7740 C   0  0  0  0  0  1  0  0  0  0  0  0
  -26.4390  -37.4870   23.7920 N   0  0  0  0  0  0  0  0  0  0  0  0
  -26.0360  -38.4150   23.8920 H   0  0  0  0  0  0  0  0  0  0  0  0
  -26.2810  -31.8790   25.3910 C   0  0  1  0  0  0  0  0  0  0  0  0
  -25.1320  -31.6780   26.4070 C   0  0  0  0  0  1  0  0  0  0  0  0
  -26.8870  -30.4910   25.0750 C   0  0  0  0  0  1  0  0  0  0  0  0
  -27.3940  -32.7010   26.0860 C   0  0  0  0  0  1  0  0  0  0  0  0
  3  7  1  0
  4  3  1  0
  4  1  1  0
  5  9  1  0
  5  4  1  0
  5  2  1  0
  6  2  1  0
  6  1  1  0
  7 54  1  0
  7  6  1  0
  7  8  1  6
  9 11  1  0
 11 10  2  0
 11 13  1  0
 12 10  1  0
 13 53  1  0
 14 20  1  0
 14 22  1  0
 15 20  1  0
 16 17  1  0
 16 15  1  0
 18 17  1  0
 18 27  1  0
 18 19  1  0
 20 19  1  0
 21 14  2  0
 22 13  2  0
 22 23  1  0
 24 25  2  0
 25 44  1  0
 26 25  1  0
 26 29  1  0
 27 24  1  0
 27 28  1  0
 28 26  2  0
 29 30  1  0
 30 31  2  0
 32 35  1  0
 32 31  1  0
 33 32  2  0
 34 33  1  0
 34 29  2  0
 35 36  1  0
 36 37  1  0
 37 38  2  0
 39 38  1  0
 39 43  1  0
 40 39  2  0
 41 36  2  0
 41 40  1  0
 42 41  1  0
 44 45  1  0
 45 48  1  0
 45 47  1  0
 46 44  2  0
 49 50  1  0
 49 24  1  0
 51 49  1  0
 53 52  1  0
 54 55  1  0
 55 56  1  0
 57 68  2  0
 58 56  1  0
 58 63  1  0
 59 67  1  0
 59 69  1  0
 60 62  1  0
 61 67  1  0
 62 63  2  0
 62 61  1  0
 64 58  2  0
 65 64  1  0
 65 60  2  0
 66 60  1  0
 66 59  1  0
 67 57  1  0
 69 71  2  0
 70 69  1  0
 72 70  1  0
 73 82  2  0
 73 78  1  0
 74 70  1  0
 74 78  1  0
 75 74  1  0
 76 77  1  0
 76 75  1  0
 77 73  1  0
 78 79  2  0
 79 80  1  0
 81 80  2  0
 82 81  1  0
 83 57  1  0
 83 84  1  0
 83 93  1  0
 84 87  1  0
 85 89  1  0
 85 84  1  0
 86 85  2  0
 89 88  1  0
 91 92  1  0
 91 89  1  0
 91 90  1  0
 93 96  1  1
 93 94  1  0
 95 93  1  0
M  ISO  4  14 100  22 100  55 101  56 101
M  END
>  <TORSDO>  (78) 
F 22

>  <SCORE>  (78) 
-13.123

>  <name>  (78) 
77

>  <ligand_id>  (78) 
77

>  <original_smiles>  (78) 
[H]C(=C(C([H])([H])C1([H])C([H])([H])C2([H])C([H])([H])C1([H])C([H])([H])[N+]2([H])C([H])([H])C([H])([H])Oc1c([H])c([H])c2c(c1[H])C([H])([H])N(C(=O)C([H])(N([H])C(=O)C([H])(N([H])C([H])([H])[H])C([H])([H])[H])C(C([H])([H])[H])(C([H])([H])[H])C([H])([H])[H])C([H])(C(=O)N([H])C1([H])c3c([H])c([H])c([H])c([H])c3C([H])([H])C([H])([H])C1([H])[H])C2([H])[H])C([H])(N([H])C(=O)N1C([H])([H])C([H])([H])C([H])([H])C([H])(n2nc(-c3c([H])c([H])c(Oc4c([H])c([H])c(F)c([H])c4F)c([H])c3[H])c(C(=O)N([H])[H])c2N([H])[H])C1([H])[H])C([H])([H])C([H])([H])[H])C([H])([H])[H]

>  <smiles>  (78) 
[H]C(=C(C([H])([H])C1([H])C([H])([H])C2([H])C([H])([H])C1([H])C([H])([H])[N+]2([H])C([H])([H])C([H])([H])Oc1c([H])c([H])c2c(c1[H])C([H])([H])N(C(=O)C([H])(N([H])C(=O)C([H])(N([H])C([H])([H])[H])C([H])([H])[H])C(C([H])([H])[H])(C([H])([H])[H])C([H])([H])[H])C([H])(C(=O)N([H])C1([H])c3c([H])c([H])c([H])c([H])c3C([H])([H])C([H])([H])C1([H])[H])C2([H])[H])C([H])(N([H])C(=O)N1C([H])([H])C([H])([H])C([H])([H])C([H])(n2nc(-c3c([H])c([H])c(Oc4c([H])c([H])c(F)c([H])c4F)c([H])c3[H])c(C(=O)N([H])[H])c2N([H])[H])C1([H])[H])C([H])([H])C([H])([H])[H])C([H])([H])[H]

$$$$
78:0:0
     RDKit          3D

 93101  0  0  1  0  0  0  0  0999 V2000
  -28.9740  -19.7280   19.1230 C   0  0  0  0  0  3  0  0  0  0  0  0
  -28.7060  -21.1520   19.1830 C   0  0  0  0  0  3  0  0  0  0  0  0
  -30.6780  -21.4500   20.4470 C   0  0  0  0  0  3  0  0  0  0  0  0
  -30.1150  -19.0820   19.7080 C   0  0  0  0  0  0  0  0  0  0  0  0
  -29.5660  -22.1010   19.8240 C   0  0  0  0  0  0  0  0  0  0  0  0
  -30.9510  -20.0280   20.3950 C   0  0  0  0  0  0  0  0  0  0  0  0
  -32.2280  -19.5480   21.0640 C   0  0  0  0  0  1  0  0  0  0  0  0
  -30.5330  -17.5800   19.4120 C   0  0  0  0  0  0  0  0  0  0  0  0
  -30.1860  -16.3110   19.9450 C   0  0  0  0  0  0  0  0  0  0  0  0
  -30.8590  -14.9590   19.5150 C   0  0  0  0  0  0  0  0  0  0  0  0
  -30.5520  -12.6470   18.5400 C   0  0  0  0  0  2  0  0  0  0  0  0
  -29.4710  -12.7000   17.4320 C   0  0  0  0  0  2  0  0  0  0  0  0
  -28.0510  -12.5350   18.0200 C   0  0  0  0  0  2  0  0  0  0  0  0
  -27.8370  -13.3640   19.3140 C   0  0  0  0  0  3  0  0  0  0  0  0
  -29.0390  -13.2280   20.2690 C   0  0  0  0  0  2  0  0  0  0  0  0
  -30.2290  -13.7040   19.5440 N   0  0  0  0  0  0  0  0  0  0  0  0
  -31.9980  -14.9430   19.0340 O   0  0  0  0  0  0  0  0  0  0  0  0
  -25.5920  -13.9280   20.4180 C   0  0  0  0  0  0  0  0  0  0  0  0
  -24.5710  -13.1470   20.8870 C   0  0  0  0  0  0  0  0  0  0  0  0
  -24.9870  -11.7960   20.6910 C   0  0  0  0  0  0  0  0  0  0  0  0
  -26.5700  -13.0520   19.9700 N   0  0  0  0  0  0  0  0  0  0  0  0
  -26.2200  -11.7570   20.1940 N   0  0  0  0  0  0  0  0  0  0  0  0
  -24.2500  -10.5390   20.8910 C   0  0  0  0  0  0  0  0  0  0  0  0
  -24.7030   -9.5480   21.7920 C   0  0  0  0  0  3  0  0  0  0  0  0
  -23.9660   -8.3580   21.9770 C   0  0  0  0  0  3  0  0  0  0  0  0
  -22.7610   -8.1510   21.2660 C   0  0  0  0  0  0  0  0  0  0  0  0
  -22.3260   -9.1270   20.3540 C   0  0  0  0  0  3  0  0  0  0  0  0
  -23.0640  -10.3080   20.1640 C   0  0  0  0  0  3  0  0  0  0  0  0
  -21.9910   -7.0170   21.3660 O   0  0  0  0  0  0  0  0  0  0  0  0
  -21.8690   -6.3300   22.5500 C   0  0  0  0  0  0  0  0  0  0  0  0
  -21.3430   -6.9380   23.7100 C   0  0  0  0  0  3  0  0  0  0  0  0
  -21.1690   -6.1790   24.8850 C   0  0  0  0  0  3  0  0  0  0  0  0
  -21.5110   -4.8140   24.8970 C   0  0  0  0  0  0  0  0  0  0  0  0
  -22.0290   -4.2050   23.7400 C   0  0  0  0  0  3  0  0  0  0  0  0
  -22.2060   -4.9630   22.5680 C   0  0  0  0  0  0  0  0  0  0  0  0
  -22.6860   -4.3660   21.4500 F   0  0  0  0  0  0  0  0  0  0  0  0
  -21.3360   -4.0830   26.0230 F   0  0  0  0  0  0  0  0  0  0  0  0
  -23.2420  -13.6320   21.3890 C   0  0  0  0  0  0  0  0  0  0  0  0
  -22.6350  -12.9120   22.3260 N   0  0  0  0  0  0  0  0  0  0  0  0
  -22.7550  -14.6880   20.9850 O   0  0  0  0  0  0  0  0  0  0  0  0
  -23.0490  -12.0620   22.6800 H   0  0  0  0  0  0  0  0  0  0  0  0
  -21.7460  -13.2160   22.6960 H   0  0  0  0  0  0  0  0  0  0  0  0
  -25.7520  -15.3060   20.3120 N   0  0  0  0  0  0  0  0  0  0  0  0
  -25.0040  -15.9390   20.5730 H   0  0  0  0  0  0  0  0  0  0  0  0
  -26.5310  -15.7740   19.8670 H   0  0  0  0  0  0  0  0  0  0  0  0
  -28.4780  -17.4920   21.6020 C   0  0  0  0  0  1  0  0  0  0  0  0
  -29.1410  -16.2150   21.0660 C   0  0  0  0  0  2  0  0  0  0  0  0
  -31.4370  -17.6330   18.4230 O   0  0  0  0  0  0  0  0  0  0  0  0
  -31.5490  -18.5500   18.2000 H   0  0  0  0  0  0  0  0  0  0  0  0
  -29.5160  -23.7250   19.6240 C   0  0  0  0  0  2  0  0  0  0  0  0
  -28.0960  -24.6940   21.5890 C   0  0  0  0  0  1  0  0  0  0  0  0
  -28.3630  -24.8110   20.0780 C   0  0  0  0  0  3  0  0  0  0  0  0
  -28.5420  -26.3140   19.8080 O   0  0  0  0  0  0  0  0  0  0  0  0
  -24.6680  -31.6700   22.9680 C   0  0  0  0  0  0  0  0  0  0  0  0
  -27.4280  -27.2100   19.7880 C   0  0  0  0  0  0  0  0  0  0  0  0
  -23.5220  -30.2760   21.2880 C   0  0  0  0  0  3  0  0  0  0  0  0
  -25.0270  -28.8200   19.8130 C   0  0  0  0  0  0  0  0  0  0  0  0
  -26.0590  -30.6640   21.1280 C   0  0  0  0  0  2  0  0  0  0  0  0
  -26.1860  -29.3060   20.4310 C   0  0  0  0  0  0  0  0  0  0  0  0
  -27.3910  -28.5190   20.4000 C   0  0  0  0  0  3  0  0  0  0  0  0
  -26.2440  -26.8150   19.1300 C   0  0  0  0  0  3  0  0  0  0  0  0
  -25.0650  -27.5900   19.1430 C   0  0  0  0  0  3  0  0  0  0  0  0
  -23.7630  -29.6580   19.8890 C   0  0  0  0  0  2  0  0  0  0  0  0
  -24.7670  -30.8910   21.8490 N   0  0  0  0  0  0  0  0  0  0  0  0
  -23.5740  -31.8920   23.5060 O   0  0  0  0  0  0  0  0  0  0  0  0
  -22.8900  -29.2080   22.2160 C   0  0  0  0  0  0  0  0  0  0  0  0
  -21.5640  -29.0130   22.1090 N   0  0  0  0  0  0  0  0  0  0  0  0
  -23.5950  -28.5580   22.9950 O   0  0  0  0  0  0  0  0  0  0  0  0
  -21.0520  -29.5920   21.4580 H   0  0  0  0  0  0  0  0  0  0  0  0
  -18.2100  -27.7670   22.6690 C   0  0  0  0  0  0  0  0  0  0  0  0
  -20.7760  -28.0270   22.8550 C   0  0  0  0  0  3  0  0  0  0  0  0
  -20.8610  -26.6330   22.1930 C   0  0  0  0  0  2  0  0  0  0  0  0
  -19.7220  -26.3630   21.2030 C   0  0  0  0  0  2  0  0  0  0  0  0
  -18.3660  -26.4620   21.9080 C   0  0  0  0  0  2  0  0  0  0  0  0
  -19.3410  -28.5110   23.1000 C   0  0  0  0  0  0  0  0  0  0  0  0
  -19.1390  -29.7320   23.7750 C   0  0  0  0  0  3  0  0  0  0  0  0
  -17.8390  -30.2130   24.0200 C   0  0  0  0  0  3  0  0  0  0  0  0
  -16.7230  -29.4660   23.6060 C   0  0  0  0  0  3  0  0  0  0  0  0
  -16.9100  -28.2450   22.9350 C   0  0  0  0  0  3  0  0  0  0  0  0
  -25.9220  -32.3330   23.6160 C   0  0  0  0  0  3  0  0  0  0  0  0
  -25.5410  -33.6900   24.0380 N   0  0  0  0  0  0  0  0  0  0  0  0
  -25.7850  -34.8040   23.3380 C   0  0  0  0  0  0  0  0  0  0  0  0
  -26.4220  -34.8020   22.2800 O   0  0  0  0  0  0  0  0  0  0  0  0
  -24.9650  -33.7610   24.8650 H   0  0  0  0  0  0  0  0  0  0  0  0
  -23.9390  -36.5040   23.1580 C   0  0  0  0  0  1  0  0  0  0  0  0
  -25.2360  -36.1320   23.8950 C   0  0  0  0  0  3  0  0  0  0  0  0
  -27.3430  -37.1030   24.7000 C   0  0  0  0  0  1  0  0  0  0  0  0
  -26.1980  -37.2520   23.8040 N   0  0  0  0  0  0  0  0  0  0  0  0
  -25.7430  -38.1370   24.0180 H   0  0  0  0  0  0  0  0  0  0  0  0
  -26.4960  -31.5170   24.8380 C   0  0  1  0  0  0  0  0  0  0  0  0
  -25.4320  -31.1530   25.9010 C   0  0  0  0  0  1  0  0  0  0  0  0
  -27.1470  -30.1980   24.3630 C   0  0  0  0  0  1  0  0  0  0  0  0
  -27.6110  -32.3320   25.5360 C   0  0  0  0  0  1  0  0  0  0  0  0
  1  2  2  0
  1  4  1  0
  2  5  1  0
  4  6  2  0
  5  3  2  0
  6  3  1  0
  6  7  1  0
  8  4  1  0
  8  9  2  0
  9 47  1  0
 10 16  1  0
 10  9  1  0
 11 16  1  0
 12 13  1  0
 12 11  1  0
 14 13  1  0
 14 21  1  0
 14 15  1  0
 16 15  1  0
 17 10  2  0
 18 19  2  0
 19 38  1  0
 20 19  1  0
 20 23  1  0
 21 22  1  0
 21 18  1  0
 22 20  2  0
 23 24  1  0
 24 25  2  0
 26 29  1  0
 26 25  1  0
 27 26  2  0
 28 27  1  0
 28 23  2  0
 29 30  1  0
 30 35  2  0
 30 31  1  0
 31 32  2  0
 32 33  1  0
 33 37  1  0
 34 33  2  0
 35 34  1  0
 36 35  1  0
 38 39  1  0
 39 41  1  0
 39 42  1  0
 40 38  2  0
 43 18  1  0
 43 44  1  0
 45 43  1  0
 47 46  1  0
 48  8  1  0
 49 48  1  0
 50  5  1  0
 50 52  1  0
 52 51  1  0
 53 52  1  0
 54 65  2  0
 55 53  1  0
 55 60  1  0
 56 64  1  0
 56 66  1  0
 57 63  1  0
 57 59  1  0
 58 64  1  0
 59 58  1  0
 60 59  2  0
 61 62  1  0
 61 55  2  0
 62 57  2  0
 63 56  1  0
 64 54  1  0
 66 68  2  0
 67 66  1  0
 69 67  1  0
 70 79  2  0
 70 75  1  0
 71 67  1  0
 71 75  1  0
 72 71  1  0
 73 74  1  0
 73 72  1  0
 74 70  1  0
 75 76  2  0
 76 77  1  0
 78 77  2  0
 79 78  1  0
 80 54  1  0
 80 81  1  0
 80 90  1  0
 81 84  1  0
 82 86  1  0
 82 81  1  0
 83 82  2  0
 86 85  1  0
 88 86  1  0
 88 89  1  0
 88 87  1  0
 90 93  1  1
 90 91  1  0
 92 90  1  0
M  ISO  4   9 100  10 100  52 101  53 101
M  END
>  <TORSDO>  (79) 
F 21

>  <SCORE>  (79) 
-11.213

>  <name>  (79) 
78

>  <ligand_id>  (79) 
78

>  <original_smiles>  (79) 
[H]OC(=C(C(=O)N1C([H])([H])C([H])([H])C([H])([H])C([H])(n2nc(-c3c([H])c([H])c(Oc4c([H])c([H])c(F)c([H])c4F)c([H])c3[H])c(C(=O)N([H])[H])c2N([H])[H])C1([H])[H])C([H])([H])C([H])([H])[H])c1c([H])c([H])c(C([H])([H])C([H])(Oc2c([H])c([H])c3c(c2[H])C([H])([H])N(C(=O)C([H])(N([H])C(=O)C([H])(N([H])C([H])([H])[H])C([H])([H])[H])C(C([H])([H])[H])(C([H])([H])[H])C([H])([H])[H])C([H])(C(=O)N([H])C2([H])c4c([H])c([H])c([H])c([H])c4C([H])([H])C([H])([H])C2([H])[H])C3([H])[H])C([H])([H])[H])c([H])c1C([H])([H])[H]

>  <smiles>  (79) 
[H]OC(=C(C(=O)N1C([H])([H])C([H])([H])C([H])([H])C([H])(n2nc(-c3c([H])c([H])c(Oc4c([H])c([H])c(F)c([H])c4F)c([H])c3[H])c(C(=O)N([H])[H])c2N([H])[H])C1([H])[H])C([H])([H])C([H])([H])[H])c1c([H])c([H])c(C([H])([H])C([H])(Oc2c([H])c([H])c3c(c2[H])C([H])([H])N(C(=O)C([H])(N([H])C(=O)C([H])(N([H])C([H])([H])[H])C([H])([H])[H])C(C([H])([H])[H])(C([H])([H])[H])C([H])([H])[H])C([H])(C(=O)N([H])C2([H])c4c([H])c([H])c([H])c([H])c4C([H])([H])C([H])([H])C2([H])[H])C3([H])[H])C([H])([H])[H])c([H])c1C([H])([H])[H]

$$$$
79:0:0
     RDKit          3D

 91 99  0  0  1  0  0  0  0  0999 V2000
  -30.3780  -21.5120   18.8360 C   0  0  0  0  0  3  0  0  0  0  0  0
  -30.6870  -20.1080   18.7210 C   0  0  0  0  0  3  0  0  0  0  0  0
  -28.7270  -20.9960   20.4470 C   0  0  0  0  0  3  0  0  0  0  0  0
  -29.4020  -22.0450   19.7300 C   0  0  0  0  0  0  0  0  0  0  0  0
  -30.0660  -19.0610   19.4780 C   0  0  0  0  0  0  0  0  0  0  0  0
  -29.0370  -19.5760   20.3360 C   0  0  0  0  0  0  0  0  0  0  0  0
  -28.2880  -18.6000   21.2240 C   0  0  0  0  0  1  0  0  0  0  0  0
  -29.3040  -23.6480   20.0650 C   0  0  0  0  0  2  0  0  0  0  0  0
  -26.8640  -24.1190   20.2070 C   0  0  0  0  0  1  0  0  0  0  0  0
  -28.1740  -24.5970   18.0290 C   0  0  0  0  0  1  0  0  0  0  0  0
  -28.1440  -24.7200   19.5720 C   0  0  2  0  0  0  0  0  0  0  0  0
  -28.2570  -26.2330   19.9410 O   0  0  0  0  0  0  0  0  0  0  0  0
  -24.5040  -31.6860   23.1350 C   0  0  0  0  0  0  0  0  0  0  0  0
  -27.1760  -27.1880   19.8890 C   0  0  0  0  0  0  0  0  0  0  0  0
  -23.3380  -30.3500   21.4280 C   0  0  0  0  0  3  0  0  0  0  0  0
  -24.8200  -28.8890   19.9340 C   0  0  0  0  0  0  0  0  0  0  0  0
  -25.8870  -30.6730   21.2910 C   0  0  0  0  0  2  0  0  0  0  0  0
  -25.9870  -29.3200   20.5730 C   0  0  0  0  0  0  0  0  0  0  0  0
  -27.1650  -28.4850   20.5400 C   0  0  0  0  0  3  0  0  0  0  0  0
  -25.9810  -26.8810   19.1990 C   0  0  0  0  0  3  0  0  0  0  0  0
  -24.8270  -27.6800   19.2340 C   0  0  0  0  0  3  0  0  0  0  0  0
  -23.5760  -29.7550   20.0180 C   0  0  0  0  0  2  0  0  0  0  0  0
  -24.5960  -30.9210   22.0070 N   0  0  0  0  0  0  0  0  0  0  0  0
  -23.4100  -31.9260   23.6670 O   0  0  0  0  0  0  0  0  0  0  0  0
  -22.6760  -29.2800   22.3340 C   0  0  0  0  0  0  0  0  0  0  0  0
  -21.3540  -29.0870   22.1870 N   0  0  0  0  0  0  0  0  0  0  0  0
  -23.3550  -28.6310   23.1330 O   0  0  0  0  0  0  0  0  0  0  0  0
  -20.8600  -29.6660   21.5230 H   0  0  0  0  0  0  0  0  0  0  0  0
  -17.9870  -27.8270   22.6360 C   0  0  0  0  0  0  0  0  0  0  0  0
  -20.5440  -28.1020   22.9100 C   0  0  0  0  0  3  0  0  0  0  0  0
  -20.6590  -26.7030   22.2610 C   0  0  0  0  0  2  0  0  0  0  0  0
  -19.5580  -26.4220   21.2340 C   0  0  0  0  0  2  0  0  0  0  0  0
  -18.1760  -26.5180   21.8880 C   0  0  0  0  0  2  0  0  0  0  0  0
  -19.0990  -28.5790   23.1010 C   0  0  0  0  0  0  0  0  0  0  0  0
  -18.8670  -29.8060   23.7620 C   0  0  0  0  0  3  0  0  0  0  0  0
  -17.5570  -30.2810   23.9590 C   0  0  0  0  0  3  0  0  0  0  0  0
  -16.4600  -29.5270   23.5060 C   0  0  0  0  0  3  0  0  0  0  0  0
  -16.6760  -28.3020   22.8500 C   0  0  0  0  0  3  0  0  0  0  0  0
  -25.7670  -32.3160   23.7970 C   0  0  0  0  0  3  0  0  0  0  0  0
  -26.2370  -31.5430   25.0910 C   0  0  1  0  0  0  0  0  0  0  0  0
  -25.1050  -31.2990   26.1170 C   0  0  0  0  0  1  0  0  0  0  0  0
  -26.8380  -30.1670   24.7190 C   0  0  0  0  0  1  0  0  0  0  0  0
  -27.3600  -32.3380   25.7970 C   0  0  0  0  0  1  0  0  0  0  0  0
  -25.4530  -33.7150   24.1220 N   0  0  0  0  0  0  0  0  0  0  0  0
  -25.7670  -34.7670   23.3550 C   0  0  0  0  0  0  0  0  0  0  0  0
  -26.4220  -34.6630   22.3130 O   0  0  0  0  0  0  0  0  0  0  0  0
  -24.8770  -33.8710   24.9360 H   0  0  0  0  0  0  0  0  0  0  0  0
  -24.0100  -36.5410   23.0360 C   0  0  0  0  0  1  0  0  0  0  0  0
  -25.2780  -36.1550   23.8150 C   0  0  0  0  0  3  0  0  0  0  0  0
  -27.4150  -37.0800   24.5890 C   0  0  0  0  0  1  0  0  0  0  0  0
  -26.2950  -37.2180   23.6640 N   0  0  0  0  0  0  0  0  0  0  0  0
  -25.8800  -38.1350   23.8020 H   0  0  0  0  0  0  0  0  0  0  0  0
  -30.7330  -17.5670   19.4870 C   0  0  0  0  0  2  0  0  0  0  0  0
  -30.8140  -14.9390   19.5530 C   0  0  0  0  0  0  0  0  0  0  0  0
  -30.5290  -12.5990   18.6780 C   0  0  0  0  0  2  0  0  0  0  0  0
  -29.4840  -12.5720   17.5420 C   0  0  0  0  0  2  0  0  0  0  0  0
  -28.0680  -12.3880   18.1180 C   0  0  0  0  0  2  0  0  0  0  0  0
  -27.7870  -13.3270   19.3220 C   0  0  0  0  0  3  0  0  0  0  0  0
  -28.9510  -13.3510   20.3340 C   0  0  0  0  0  2  0  0  0  0  0  0
  -30.1630  -13.7140   19.5910 N   0  0  0  0  0  0  0  0  0  0  0  0
  -31.9810  -14.9600   19.1560 O   0  0  0  0  0  0  0  0  0  0  0  0
  -30.1300  -16.1560   19.7300 N   0  0  0  0  0  0  0  0  0  0  0  0
  -29.1570  -16.1080   19.9890 H   0  0  0  0  0  0  0  0  0  0  0  0
  -25.5200  -13.9100   20.3620 C   0  0  0  0  0  0  0  0  0  0  0  0
  -24.4850  -13.1360   20.8090 C   0  0  0  0  0  0  0  0  0  0  0  0
  -24.9080  -11.7810   20.6530 C   0  0  0  0  0  0  0  0  0  0  0  0
  -26.5070  -13.0280   19.9570 N   0  0  0  0  0  0  0  0  0  0  0  0
  -26.1540  -11.7370   20.1950 N   0  0  0  0  0  0  0  0  0  0  0  0
  -24.1740  -10.5230   20.8540 C   0  0  0  0  0  0  0  0  0  0  0  0
  -24.5780   -9.5780   21.8230 C   0  0  0  0  0  3  0  0  0  0  0  0
  -23.8430   -8.3880   22.0130 C   0  0  0  0  0  3  0  0  0  0  0  0
  -22.6890   -8.1340   21.2340 C   0  0  0  0  0  0  0  0  0  0  0  0
  -22.3050   -9.0670   20.2540 C   0  0  0  0  0  3  0  0  0  0  0  0
  -23.0400  -10.2490   20.0630 C   0  0  0  0  0  3  0  0  0  0  0  0
  -21.9290   -6.9950   21.3310 O   0  0  0  0  0  0  0  0  0  0  0  0
  -21.6860   -6.3910   22.5400 C   0  0  0  0  0  0  0  0  0  0  0  0
  -21.0150   -7.0610   23.5850 C   0  0  0  0  0  3  0  0  0  0  0  0
  -20.7250   -6.3800   24.7850 C   0  0  0  0  0  3  0  0  0  0  0  0
  -21.0980   -5.0310   24.9380 C   0  0  0  0  0  0  0  0  0  0  0  0
  -21.7630   -4.3610   23.8960 C   0  0  0  0  0  3  0  0  0  0  0  0
  -22.0540   -5.0390   22.6990 C   0  0  0  0  0  0  0  0  0  0  0  0
  -22.6750   -4.3840   21.6910 F   0  0  0  0  0  0  0  0  0  0  0  0
  -20.8140   -4.3760   26.0870 F   0  0  0  0  0  0  0  0  0  0  0  0
  -23.1400  -13.6250   21.2630 C   0  0  0  0  0  0  0  0  0  0  0  0
  -22.5000  -12.8990   22.1730 N   0  0  0  0  0  0  0  0  0  0  0  0
  -22.6710  -14.6830   20.8460 O   0  0  0  0  0  0  0  0  0  0  0  0
  -22.8960  -12.0420   22.5290 H   0  0  0  0  0  0  0  0  0  0  0  0
  -21.6010  -13.2040   22.5180 H   0  0  0  0  0  0  0  0  0  0  0  0
  -25.6960  -15.2860   20.2420 N   0  0  0  0  0  0  0  0  0  0  0  0
  -24.9600  -15.9450   20.4700 H   0  0  0  0  0  0  0  0  0  0  0  0
  -26.5040  -15.7260   19.8190 H   0  0  0  0  0  0  0  0  0  0  0  0
  1  4  1  0
  2  1  2  0
  2  5  1  0
  4  8  1  0
  4  3  2  0
  5 53  1  0
  5  6  2  0
  6  3  1  0
  6  7  1  0
 11 10  1  6
 11 12  1  0
 11  8  1  0
 11  9  1  0
 13 24  2  0
 14 12  1  0
 14 19  1  0
 15 23  1  0
 15 25  1  0
 16 22  1  0
 16 18  1  0
 17 23  1  0
 18 17  1  0
 19 18  2  0
 20 21  1  0
 20 14  2  0
 21 16  2  0
 22 15  1  0
 23 13  1  0
 25 27  2  0
 26 25  1  0
 28 26  1  0
 29 38  2  0
 29 34  1  0
 30 26  1  0
 30 34  1  0
 31 30  1  0
 32 33  1  0
 32 31  1  0
 33 29  1  0
 34 35  2  0
 35 36  1  0
 37 36  2  0
 38 37  1  0
 39 13  1  0
 39 44  1  0
 39 40  1  0
 40 43  1  1
 40 41  1  0
 42 40  1  0
 44 47  1  0
 45 49  1  0
 45 44  1  0
 46 45  2  0
 49 48  1  0
 51 52  1  0
 51 49  1  0
 51 50  1  0
 53 62  1  0
 54 60  1  0
 54 62  1  0
 55 60  1  0
 56 57  1  0
 56 55  1  0
 58 57  1  0
 58 67  1  0
 58 59  1  0
 60 59  1  0
 61 54  2  0
 62 63  1  0
 64 65  2  0
 65 84  1  0
 66 65  1  0
 66 69  1  0
 67 68  1  0
 67 64  1  0
 68 66  2  0
 69 70  1  0
 70 71  2  0
 72 75  1  0
 72 71  1  0
 73 72  2  0
 74 73  1  0
 74 69  2  0
 75 76  1  0
 76 81  2  0
 76 77  1  0
 77 78  2  0
 78 79  1  0
 79 83  1  0
 80 79  2  0
 81 80  1  0
 82 81  1  0
 84 85  1  0
 85 88  1  0
 85 87  1  0
 86 84  2  0
 89 64  1  0
 89 90  1  0
 91 89  1  0
M  ISO  4  11 101  12 101  54 100  62 100
M  END
>  <TORSDO>  (80) 
F 19

>  <SCORE>  (80) 
-12.397

>  <name>  (80) 
79

>  <ligand_id>  (80) 
79

>  <original_smiles>  (80) 
[H]c1c([H])c([H])c2c(c1[H])C([H])([H])C([H])([H])C([H])([H])C2([H])N([H])C(=O)C1([H])N(C(=O)C([H])(N([H])C(=O)C([H])(N([H])C([H])([H])[H])C([H])([H])[H])C(C([H])([H])[H])(C([H])([H])[H])C([H])([H])[H])C([H])([H])c2c([H])c(OC(C([H])([H])[H])(C([H])([H])[H])C([H])([H])c3c([H])c([H])c(C([H])([H])N([H])C(=O)N4C([H])([H])C([H])([H])C([H])([H])C([H])(n5nc(-c6c([H])c([H])c(Oc7c([H])c([H])c(F)c([H])c7F)c([H])c6[H])c(C(=O)N([H])[H])c5N([H])[H])C4([H])[H])c(C([H])([H])[H])c3[H])c([H])c([H])c2C1([H])[H]

>  <smiles>  (80) 
[H]c1c([H])c([H])c2c(c1[H])C([H])([H])C([H])([H])C([H])([H])C2([H])N([H])C(=O)C1([H])N(C(=O)C([H])(N([H])C(=O)C([H])(N([H])C([H])([H])[H])C([H])([H])[H])C(C([H])([H])[H])(C([H])([H])[H])C([H])([H])[H])C([H])([H])c2c([H])c(OC(C([H])([H])[H])(C([H])([H])[H])C([H])([H])c3c([H])c([H])c(C([H])([H])N([H])C(=O)N4C([H])([H])C([H])([H])C([H])([H])C([H])(n5nc(-c6c([H])c([H])c(Oc7c([H])c([H])c(F)c([H])c7F)c([H])c6[H])c(C(=O)N([H])[H])c5N([H])[H])C4([H])[H])c(C([H])([H])[H])c3[H])c([H])c([H])c2C1([H])[H]

$$$$
80:0:0
     RDKit          3D

 93102  0  0  1  0  0  0  0  0999 V2000
  -32.3250  -19.1880   20.9670 C   0  0  0  0  0  2  0  0  0  0  0  0
  -30.3020  -20.6300   21.6730 C   0  0  0  0  0  2  0  0  0  0  0  0
  -31.1710  -20.0670   20.5460 C   0  0  0  0  0  3  0  0  0  0  0  0
  -29.9720  -19.2780   19.9530 C   0  0  0  0  0  3  0  0  0  0  0  0
  -32.0900  -17.8130   20.3500 C   0  0  0  0  0  3  0  0  0  0  0  0
  -30.5590  -17.6680   20.0530 C   0  0  0  0  0  3  0  0  0  0  0  0
  -29.1270  -20.5230   20.7240 C   0  0  0  0  0  3  0  0  0  0  0  0
  -30.6040  -14.9590   20.3220 C   0  0  0  0  0  0  0  0  0  0  0  0
  -30.3540  -12.6230   19.3940 C   0  0  0  0  0  2  0  0  0  0  0  0
  -29.4420  -12.6200   18.1480 C   0  0  0  0  0  2  0  0  0  0  0  0
  -27.9760  -12.4270   18.5740 C   0  0  0  0  0  2  0  0  0  0  0  0
  -27.5760  -13.3490   19.7580 C   0  0  0  0  0  3  0  0  0  0  0  0
  -28.6310  -13.3770   20.8860 C   0  0  0  0  0  2  0  0  0  0  0  0
  -29.9120  -13.7480   20.2720 N   0  0  0  0  0  0  0  0  0  0  0  0
  -31.8020  -14.8850   20.0500 O   0  0  0  0  0  0  0  0  0  0  0  0
  -29.9780  -16.2390   20.4400 N   0  0  0  0  0  0  0  0  0  0  0  0
  -28.9890  -16.2130   20.6430 H   0  0  0  0  0  0  0  0  0  0  0  0
  -25.1940  -13.9200   20.4900 C   0  0  0  0  0  0  0  0  0  0  0  0
  -24.1310  -13.1440   20.8620 C   0  0  0  0  0  0  0  0  0  0  0  0
  -24.6000  -11.7930   20.8390 C   0  0  0  0  0  0  0  0  0  0  0  0
  -26.2410  -13.0440   20.2590 N   0  0  0  0  0  0  0  0  0  0  0  0
  -25.8940  -11.7600   20.5380 N   0  0  0  0  0  0  0  0  0  0  0  0
  -23.8740  -10.5300   21.0330 C   0  0  0  0  0  0  0  0  0  0  0  0
  -24.3070   -9.5640   21.9660 C   0  0  0  0  0  3  0  0  0  0  0  0
  -23.5800   -8.3680   22.1490 C   0  0  0  0  0  3  0  0  0  0  0  0
  -22.4030   -8.1290   21.4000 C   0  0  0  0  0  0  0  0  0  0  0  0
  -21.9870   -9.0850   20.4550 C   0  0  0  0  0  3  0  0  0  0  0  0
  -22.7160  -10.2730   20.2710 C   0  0  0  0  0  3  0  0  0  0  0  0
  -21.6480   -6.9850   21.4930 O   0  0  0  0  0  0  0  0  0  0  0  0
  -21.6110   -6.2380   22.6430 C   0  0  0  0  0  0  0  0  0  0  0  0
  -21.2130   -6.7920   23.8800 C   0  0  0  0  0  3  0  0  0  0  0  0
  -21.1210   -5.9700   25.0210 C   0  0  0  0  0  3  0  0  0  0  0  0
  -21.4190   -4.5980   24.9280 C   0  0  0  0  0  0  0  0  0  0  0  0
  -21.8110   -4.0440   23.6950 C   0  0  0  0  0  3  0  0  0  0  0  0
  -21.9030   -4.8620   22.5560 C   0  0  0  0  0  0  0  0  0  0  0  0
  -22.2610   -4.3190   21.3660 F   0  0  0  0  0  0  0  0  0  0  0  0
  -21.3250   -3.8080   26.0220 F   0  0  0  0  0  0  0  0  0  0  0  0
  -22.7320  -13.6190   21.1200 C   0  0  0  0  0  0  0  0  0  0  0  0
  -22.0000  -12.9280   21.9860 N   0  0  0  0  0  0  0  0  0  0  0  0
  -22.2960  -14.6390   20.5880 O   0  0  0  0  0  0  0  0  0  0  0  0
  -22.3660  -12.1070   22.4450 H   0  0  0  0  0  0  0  0  0  0  0  0
  -21.0570  -13.2270   22.1950 H   0  0  0  0  0  0  0  0  0  0  0  0
  -25.3510  -15.2900   20.3050 N   0  0  0  0  0  0  0  0  0  0  0  0
  -24.5720  -15.9330   20.4020 H   0  0  0  0  0  0  0  0  0  0  0  0
  -26.1950  -15.7390   19.9700 H   0  0  0  0  0  0  0  0  0  0  0  0
  -28.8340  -21.9190   20.0040 N   0  0  0  0  0  4  0  0  0  0  0  0
  -27.9600  -21.7860   19.5180 H   0  0  0  0  0  0  0  0  0  0  0  0
  -29.5210  -22.0250   19.2760 H   0  0  0  0  0  0  0  0  0  0  0  0
  -28.7440  -23.3420   20.7070 C   0  0  0  0  0  3  0  0  0  0  0  0
  -28.1130  -24.6980   19.9330 C   0  0  0  0  0  3  0  0  0  0  0  0
  -28.2460  -26.2030   20.3330 O   0  0  0  0  0  0  0  0  0  0  0  0
  -24.6190  -31.8930   23.2430 C   0  0  0  0  0  0  0  0  0  0  0  0
  -27.1920  -27.1830   20.2140 C   0  0  0  0  0  0  0  0  0  0  0  0
  -23.4160  -30.4910   21.6100 C   0  0  0  0  0  3  0  0  0  0  0  0
  -24.8660  -28.9270   20.1740 C   0  0  0  0  0  0  0  0  0  0  0  0
  -25.9690  -30.7620   21.4440 C   0  0  0  0  0  2  0  0  0  0  0  0
  -26.0420  -29.3720   20.7910 C   0  0  0  0  0  0  0  0  0  0  0  0
  -27.2020  -28.5120   20.8010 C   0  0  0  0  0  3  0  0  0  0  0  0
  -26.0040  -26.8580   19.5240 C   0  0  0  0  0  3  0  0  0  0  0  0
  -24.8620  -27.6870   19.5230 C   0  0  0  0  0  3  0  0  0  0  0  0
  -23.6340  -29.8160   20.2300 C   0  0  0  0  0  2  0  0  0  0  0  0
  -24.6870  -31.0710   22.1530 N   0  0  0  0  0  0  0  0  0  0  0  0
  -23.5320  -32.1770   23.7740 O   0  0  0  0  0  0  0  0  0  0  0  0
  -22.7450  -29.4830   22.5750 C   0  0  0  0  0  0  0  0  0  0  0  0
  -21.4160  -29.3100   22.4520 N   0  0  0  0  0  0  0  0  0  0  0  0
  -23.4210  -28.8590   23.3960 O   0  0  0  0  0  0  0  0  0  0  0  0
  -20.9290  -29.8630   21.7590 H   0  0  0  0  0  0  0  0  0  0  0  0
  -18.0380  -28.1080   22.9570 C   0  0  0  0  0  0  0  0  0  0  0  0
  -20.5960  -28.3740   23.2270 C   0  0  0  0  0  3  0  0  0  0  0  0
  -20.7010  -26.9420   22.6560 C   0  0  0  0  0  2  0  0  0  0  0  0
  -19.6000  -26.6130   21.6450 C   0  0  0  0  0  2  0  0  0  0  0  0
  -18.2170  -26.7560   22.2860 C   0  0  0  0  0  2  0  0  0  0  0  0
  -19.1540  -28.8740   23.3840 C   0  0  0  0  0  0  0  0  0  0  0  0
  -18.9310  -30.1390   23.9730 C   0  0  0  0  0  3  0  0  0  0  0  0
  -17.6250  -30.6340   24.1400 C   0  0  0  0  0  3  0  0  0  0  0  0
  -16.5230  -29.8650   23.7290 C   0  0  0  0  0  3  0  0  0  0  0  0
  -16.7300  -28.6030   23.1430 C   0  0  0  0  0  3  0  0  0  0  0  0
  -25.8970  -32.5310   23.8660 C   0  0  0  0  0  3  0  0  0  0  0  0
  -26.4080  -31.7660   25.1490 C   0  0  1  0  0  0  0  0  0  0  0  0
  -25.3100  -31.5410   26.2160 C   0  0  0  0  0  1  0  0  0  0  0  0
  -26.9890  -30.3830   24.7740 C   0  0  0  0  0  1  0  0  0  0  0  0
  -27.5580  -32.5640   25.8070 C   0  0  0  0  0  1  0  0  0  0  0  0
  -25.5850  -33.9310   24.1930 N   0  0  0  0  0  0  0  0  0  0  0  0
  -25.9150  -34.9850   23.4340 C   0  0  0  0  0  0  0  0  0  0  0  0
  -26.5800  -34.8800   22.4000 O   0  0  0  0  0  0  0  0  0  0  0  0
  -24.9930  -34.0870   24.9940 H   0  0  0  0  0  0  0  0  0  0  0  0
  -24.1820  -36.7770   23.0970 C   0  0  0  0  0  1  0  0  0  0  0  0
  -25.4310  -36.3740   23.8950 C   0  0  0  0  0  3  0  0  0  0  0  0
  -27.5730  -37.2610   24.7020 C   0  0  0  0  0  1  0  0  0  0  0  0
  -26.4610  -37.4290   23.7700 N   0  0  0  0  0  0  0  0  0  0  0  0
  -26.0560  -38.3480   23.9220 H   0  0  0  0  0  0  0  0  0  0  0  0
  -32.8810  -18.6270   17.9680 C   0  0  0  0  0  1  0  0  0  0  0  0
  -33.0250  -17.6120   19.1190 C   0  0  0  0  0  2  0  0  0  0  0  0
  3  1  1  0
  3  2  1  0
  4  6  1  0
  4  3  1  0
  4  7  1  0
  5  1  1  0
  6  5  1  0
  6 16  1  0
  7  2  1  0
  8 16  1  0
  9 14  1  0
 10 11  1  0
 10  9  1  0
 11 12  1  0
 12 21  1  0
 12 13  1  0
 14  8  1  0
 14 13  1  0
 15  8  2  0
 16 17  1  0
 18 19  2  0
 19 38  1  0
 20 19  1  0
 20 23  1  0
 21 18  1  0
 21 22  1  0
 22 20  2  0
 23 24  1  0
 24 25  2  0
 26 29  1  0
 26 25  1  0
 27 26  2  0
 28 27  1  0
 28 23  2  0
 29 30  1  0
 30 31  1  0
 31 32  2  0
 33 32  1  0
 33 37  1  0
 34 33  2  0
 35 30  2  0
 35 34  1  0
 36 35  1  0
 38 39  1  0
 39 42  1  0
 39 41  1  0
 40 38  2  0
 43 44  1  0
 43 18  1  0
 45 43  1  0
 46 49  1  0
 46  7  1  0
 47 46  1  0
 48 46  1  0
 50 51  1  0
 50 49  2  0
 52 63  2  0
 52 78  1  0
 53 51  1  0
 53 58  1  0
 54 62  1  0
 54 64  1  0
 55 61  1  0
 55 57  1  0
 56 62  1  0
 57 58  2  0
 57 56  1  0
 59 53  2  0
 60 59  1  0
 60 55  2  0
 61 54  1  0
 62 52  1  0
 64 66  2  0
 65 64  1  0
 65 69  1  0
 67 65  1  0
 68 77  2  0
 68 73  1  0
 69 73  1  0
 70 69  1  0
 71 72  1  0
 71 70  1  0
 72 68  1  0
 73 74  2  0
 74 75  1  0
 76 75  2  0
 77 76  1  0
 78 83  1  0
 78 79  1  0
 79 82  1  1
 79 80  1  0
 81 79  1  0
 83 86  1  0
 84 88  1  0
 84 83  1  0
 85 84  2  0
 87 88  1  0
 90 88  1  0
 90 91  1  0
 90 89  1  0
 92 93  1  0
 93  5  1  0
M  ISO  4   8 100  16 100  50 101  51 101
M  END
>  <TORSDO>  (81) 
F 20

>  <SCORE>  (81) 
-14.024

>  <name>  (81) 
80

>  <ligand_id>  (81) 
80

>  <original_smiles>  (81) 
[H]c1c([H])c([H])c2c(c1[H])C([H])([H])C([H])([H])C([H])([H])C2([H])N([H])C(=O)C1([H])N(C(=O)C([H])(N([H])C(=O)C([H])(N([H])C([H])([H])[H])C([H])([H])[H])C(C([H])([H])[H])(C([H])([H])[H])C([H])([H])[H])C([H])([H])c2c([H])c(OC([H])([H])C([H])([H])[N+]([H])([H])C3([H])C([H])([H])C4([H])C([H])([H])C([H])(C([H])([H])C([H])([H])[H])C([H])(N([H])C(=O)N5C([H])([H])C([H])([H])C([H])([H])C([H])(n6nc(-c7c([H])c([H])c(Oc8c([H])c([H])c(F)c([H])c8F)c([H])c7[H])c(C(=O)N([H])[H])c6N([H])[H])C5([H])[H])C43[H])c([H])c([H])c2C1([H])[H]

>  <smiles>  (81) 
[H]c1c([H])c([H])c2c(c1[H])C([H])([H])C([H])([H])C([H])([H])C2([H])N([H])C(=O)C1([H])N(C(=O)C([H])(N([H])C(=O)C([H])(N([H])C([H])([H])[H])C([H])([H])[H])C(C([H])([H])[H])(C([H])([H])[H])C([H])([H])[H])C([H])([H])c2c([H])c(OC([H])([H])C([H])([H])[N+]([H])([H])C3([H])C([H])([H])C4([H])C([H])([H])C([H])(C([H])([H])C([H])([H])[H])C([H])(N([H])C(=O)N5C([H])([H])C([H])([H])C([H])([H])C([H])(n6nc(-c7c([H])c([H])c(Oc8c([H])c([H])c(F)c([H])c8F)c([H])c7[H])c(C(=O)N([H])[H])c6N([H])[H])C5([H])[H])C43[H])c([H])c([H])c2C1([H])[H]

$$$$
81:0:0
     RDKit          3D

 95104  0  0  1  0  0  0  0  0999 V2000
  -28.3490  -21.4170   18.7960 C   0  0  0  0  0  3  0  0  0  0  0  0
  -28.4070  -20.0010   18.9100 C   0  0  0  0  0  3  0  0  0  0  0  0
  -29.6320  -20.2260   20.9740 C   0  0  0  0  0  3  0  0  0  0  0  0
  -28.9090  -22.2540   19.7910 C   0  0  0  0  0  0  0  0  0  0  0  0
  -29.5780  -21.6310   20.8820 C   0  0  0  0  0  0  0  0  0  0  0  0
  -29.0350  -19.3830   20.0160 C   0  0  0  0  0  0  0  0  0  0  0  0
  -28.7520  -23.7830   19.7230 C   0  0  0  0  0  2  0  0  0  0  0  0
  -30.1740  -23.9570   21.7570 C   0  0  0  0  0  2  0  0  0  0  0  0
  -28.8670  -24.4400   21.1240 C   0  0  0  0  0  3  0  0  0  0  0  0
  -30.2160  -22.4420   22.0130 C   0  0  1  0  0  0  0  0  0  0  0  0
  -29.4630  -22.1260   23.3310 C   0  0  0  0  0  1  0  0  0  0  0  0
  -31.7030  -22.0650   22.1270 C   0  0  0  0  0  1  0  0  0  0  0  0
  -28.9450  -17.8680   20.2890 C   0  0  0  0  0  2  0  0  0  0  0  0
  -31.4310  -17.5520   21.0320 C   0  0  0  0  0  1  0  0  0  0  0  0
  -30.2500  -17.0040   20.1880 C   0  0  0  0  0  3  0  0  0  0  0  0
  -30.6510  -14.5010   20.0960 C   0  0  0  0  0  0  0  0  0  0  0  0
  -30.2710  -12.3220   19.0030 C   0  0  0  0  0  2  0  0  0  0  0  0
  -29.2860  -12.5710   17.8400 C   0  0  0  0  0  2  0  0  0  0  0  0
  -27.8420  -12.4020   18.3380 C   0  0  0  0  0  2  0  0  0  0  0  0
  -27.5640  -13.2420   19.6120 C   0  0  0  0  0  3  0  0  0  0  0  0
  -28.6660  -13.0530   20.6830 C   0  0  0  0  0  2  0  0  0  0  0  0
  -29.9700  -13.3240   20.0490 N   0  0  0  0  0  0  0  0  0  0  0  0
  -31.7720  -14.6370   19.5970 O   0  0  0  0  0  0  0  0  0  0  0  0
  -29.9620  -15.5800   20.5230 N   0  0  0  0  0  0  0  0  0  0  0  0
  -29.0860  -15.3930   20.9860 H   0  0  0  0  0  0  0  0  0  0  0  0
  -25.2050  -13.8540   20.4430 C   0  0  0  0  0  0  0  0  0  0  0  0
  -24.1450  -13.0750   20.8400 C   0  0  0  0  0  0  0  0  0  0  0  0
  -24.5970  -11.7200   20.7640 C   0  0  0  0  0  0  0  0  0  0  0  0
  -26.2320  -12.9680   20.1480 N   0  0  0  0  0  0  0  0  0  0  0  0
  -25.8720  -11.6810   20.4040 N   0  0  0  0  0  0  0  0  0  0  0  0
  -23.8740  -10.4550   20.9670 C   0  0  0  0  0  0  0  0  0  0  0  0
  -24.3220   -9.4940   21.9020 C   0  0  0  0  0  3  0  0  0  0  0  0
  -23.5960   -8.3010   22.1030 C   0  0  0  0  0  3  0  0  0  0  0  0
  -22.4150   -8.0550   21.3650 C   0  0  0  0  0  0  0  0  0  0  0  0
  -21.9840   -9.0050   20.4240 C   0  0  0  0  0  3  0  0  0  0  0  0
  -22.7070  -10.1910   20.2200 C   0  0  0  0  0  3  0  0  0  0  0  0
  -21.6660   -6.9070   21.4660 O   0  0  0  0  0  0  0  0  0  0  0  0
  -21.6140   -6.1850   22.6340 C   0  0  0  0  0  0  0  0  0  0  0  0
  -21.1500   -6.7520   23.8410 C   0  0  0  0  0  3  0  0  0  0  0  0
  -21.0390   -5.9560   25.0010 C   0  0  0  0  0  3  0  0  0  0  0  0
  -21.3950   -4.5930   24.9530 C   0  0  0  0  0  0  0  0  0  0  0  0
  -21.8590   -4.0260   23.7520 C   0  0  0  0  0  3  0  0  0  0  0  0
  -21.9640   -4.8210   22.5950 C   0  0  0  0  0  0  0  0  0  0  0  0
  -22.3870   -4.2650   21.4350 F   0  0  0  0  0  0  0  0  0  0  0  0
  -21.2950   -3.8240   26.0630 F   0  0  0  0  0  0  0  0  0  0  0  0
  -22.7610  -13.5490   21.1750 C   0  0  0  0  0  0  0  0  0  0  0  0
  -22.0650  -12.8370   22.0560 N   0  0  0  0  0  0  0  0  0  0  0  0
  -22.2930  -14.5740   20.6790 O   0  0  0  0  0  0  0  0  0  0  0  0
  -22.4390  -11.9800   22.4410 H   0  0  0  0  0  0  0  0  0  0  0  0
  -21.1390  -13.1350   22.3310 H   0  0  0  0  0  0  0  0  0  0  0  0
  -25.3920  -15.2320   20.3070 N   0  0  0  0  0  0  0  0  0  0  0  0
  -24.7380  -15.8840   20.7240 H   0  0  0  0  0  0  0  0  0  0  0  0
  -26.3210  -15.6320   20.2470 H   0  0  0  0  0  0  0  0  0  0  0  0
  -28.7880  -25.9900   21.2670 C   0  0  0  0  0  2  0  0  0  0  0  0
  -28.4850  -26.6890   20.0700 O   0  0  0  0  0  0  0  0  0  0  0  0
  -24.6150  -31.8470   23.1930 C   0  0  0  0  0  0  0  0  0  0  0  0
  -27.3400  -27.4410   20.1300 C   0  0  0  0  0  0  0  0  0  0  0  0
  -23.4520  -30.4450   21.5230 C   0  0  0  0  0  3  0  0  0  0  0  0
  -24.9390  -28.9170   20.1240 C   0  0  0  0  0  0  0  0  0  0  0  0
  -25.9790  -30.8170   21.3810 C   0  0  0  0  0  2  0  0  0  0  0  0
  -26.0830  -29.4460   20.7410 C   0  0  0  0  0  0  0  0  0  0  0  0
  -27.2890  -28.7080   20.7550 C   0  0  0  0  0  3  0  0  0  0  0  0
  -26.1870  -26.9270   19.5120 C   0  0  0  0  0  3  0  0  0  0  0  0
  -24.9830  -27.6500   19.5180 C   0  0  0  0  0  3  0  0  0  0  0  0
  -23.6930  -29.7730   20.1430 C   0  0  0  0  0  2  0  0  0  0  0  0
  -24.6970  -31.0520   22.0890 N   0  0  0  0  0  0  0  0  0  0  0  0
  -23.5240  -32.1080   23.7160 O   0  0  0  0  0  0  0  0  0  0  0  0
  -22.7920  -29.4140   22.4620 C   0  0  0  0  0  0  0  0  0  0  0  0
  -21.4610  -29.2670   22.3480 N   0  0  0  0  0  0  0  0  0  0  0  0
  -23.4720  -28.7510   23.2490 O   0  0  0  0  0  0  0  0  0  0  0  0
  -20.9700  -29.8450   21.6790 H   0  0  0  0  0  0  0  0  0  0  0  0
  -18.0640  -28.1500   22.8580 C   0  0  0  0  0  0  0  0  0  0  0  0
  -20.6310  -28.3240   23.1000 C   0  0  0  0  0  3  0  0  0  0  0  0
  -20.6780  -26.9120   22.4770 C   0  0  0  0  0  2  0  0  0  0  0  0
  -19.5600  -26.6670   21.4600 C   0  0  0  0  0  2  0  0  0  0  0  0
  -18.1900  -26.8250   22.1230 C   0  0  0  0  0  2  0  0  0  0  0  0
  -19.2150  -28.8640   23.2980 C   0  0  0  0  0  0  0  0  0  0  0  0
  -19.0470  -30.1090   23.9330 C   0  0  0  0  0  3  0  0  0  0  0  0
  -17.7620  -30.6470   24.1380 C   0  0  0  0  0  3  0  0  0  0  0  0
  -16.6280  -29.9270   23.7160 C   0  0  0  0  0  3  0  0  0  0  0  0
  -16.7770  -28.6820   23.0820 C   0  0  0  0  0  3  0  0  0  0  0  0
  -25.8850  -32.4820   23.8390 C   0  0  0  0  0  3  0  0  0  0  0  0
  -26.3950  -31.6940   25.1070 C   0  0  1  0  0  0  0  0  0  0  0  0
  -25.2910  -31.4300   26.1580 C   0  0  0  0  0  1  0  0  0  0  0  0
  -27.0020  -30.3280   24.7030 C   0  0  0  0  0  1  0  0  0  0  0  0
  -27.5270  -32.4940   25.8010 C   0  0  0  0  0  1  0  0  0  0  0  0
  -25.5590  -33.8680   24.1840 N   0  0  0  0  0  0  0  0  0  0  0  0
  -25.8650  -34.9330   23.4260 C   0  0  0  0  0  0  0  0  0  0  0  0
  -26.5250  -34.8500   22.3860 O   0  0  0  0  0  0  0  0  0  0  0  0
  -24.9730  -34.0040   24.9970 H   0  0  0  0  0  0  0  0  0  0  0  0
  -24.0920  -36.6910   23.1110 C   0  0  0  0  0  1  0  0  0  0  0  0
  -25.3550  -36.3070   23.8990 C   0  0  0  0  0  3  0  0  0  0  0  0
  -27.4780  -37.2410   24.7020 C   0  0  0  0  0  1  0  0  0  0  0  0
  -26.3630  -37.3820   23.7720 N   0  0  0  0  0  0  0  0  0  0  0  0
  -25.9370  -38.2920   23.9250 H   0  0  0  0  0  0  0  0  0  0  0  0
  1  2  2  0
  1  4  1  0
  2  6  1  0
  4  5  2  0
  5  3  1  0
  5 10  1  0
  6 13  1  0
  6  3  2  0
  7  4  1  0
  7  9  1  0
  8 10  1  0
  9 54  1  0
  9  8  1  0
 10 12  1  1
 10 11  1  0
 15 13  1  0
 15 24  1  0
 15 14  1  0
 16 24  1  0
 17 22  1  0
 18 19  1  0
 18 17  1  0
 20 19  1  0
 20 29  1  0
 20 21  1  0
 22 16  1  0
 22 21  1  0
 23 16  2  0
 24 25  1  0
 26 27  2  0
 27 46  1  0
 28 27  1  0
 28 31  1  0
 29 30  1  0
 29 26  1  0
 30 28  2  0
 31 32  1  0
 32 33  2  0
 34 37  1  0
 34 33  1  0
 35 34  2  0
 36 35  1  0
 36 31  2  0
 37 38  1  0
 38 39  1  0
 39 40  2  0
 41 40  1  0
 41 45  1  0
 42 41  2  0
 43 38  2  0
 43 42  1  0
 44 43  1  0
 46 47  1  0
 47 50  1  0
 47 49  1  0
 48 46  2  0
 51 26  1  0
 51 52  1  0
 53 51  1  0
 55 57  1  0
 55 54  1  0
 56 67  2  0
 57 62  1  0
 58 66  1  0
 58 68  1  0
 59 65  1  0
 59 61  1  0
 60 66  1  0
 61 62  2  0
 61 60  1  0
 63 64  1  0
 63 57  2  0
 64 59  2  0
 65 58  1  0
 66 56  1  0
 68 70  2  0
 69 68  1  0
 71 69  1  0
 72 81  2  0
 72 77  1  0
 73 69  1  0
 73 77  1  0
 74 73  1  0
 75 76  1  0
 75 74  1  0
 76 72  1  0
 77 78  2  0
 78 79  1  0
 80 79  2  0
 81 80  1  0
 82 56  1  0
 82 87  1  0
 82 83  1  0
 83 86  1  1
 83 84  1  0
 85 83  1  0
 87 90  1  0
 88 92  1  0
 88 87  1  0
 89 88  2  0
 92 91  1  0
 94 92  1  0
 94 95  1  0
 94 93  1  0
M  ISO  4  16 100  24 100  54 101  55 101
M  END
>  <TORSDO>  (82) 
F 19

>  <SCORE>  (82) 
-14.503

>  <name>  (82) 
81

>  <ligand_id>  (82) 
81

>  <original_smiles>  (82) 
[H]c1c([H])c([H])c2c(c1[H])C([H])([H])C([H])([H])C([H])([H])C2([H])N([H])C(=O)C1([H])N(C(=O)C([H])(N([H])C(=O)C([H])(N([H])C([H])([H])[H])C([H])([H])[H])C(C([H])([H])[H])(C([H])([H])[H])C([H])([H])[H])C([H])([H])c2c([H])c(OC([H])([H])C3([H])C([H])([H])c4c([H])c([H])c(C([H])([H])C([H])(N([H])C(=O)N5C([H])([H])C([H])([H])C([H])([H])C([H])(n6nc(-c7c([H])c([H])c(Oc8c([H])c([H])c(F)c([H])c8F)c([H])c7[H])c(C(=O)N([H])[H])c6N([H])[H])C5([H])[H])C([H])([H])[H])c([H])c4C(C([H])([H])[H])(C([H])([H])[H])C3([H])[H])c([H])c([H])c2C1([H])[H]

>  <smiles>  (82) 
[H]c1c([H])c([H])c2c(c1[H])C([H])([H])C([H])([H])C([H])([H])C2([H])N([H])C(=O)C1([H])N(C(=O)C([H])(N([H])C(=O)C([H])(N([H])C([H])([H])[H])C([H])([H])[H])C(C([H])([H])[H])(C([H])([H])[H])C([H])([H])[H])C([H])([H])c2c([H])c(OC([H])([H])C3([H])C([H])([H])c4c([H])c([H])c(C([H])([H])C([H])(N([H])C(=O)N5C([H])([H])C([H])([H])C([H])([H])C([H])(n6nc(-c7c([H])c([H])c(Oc8c([H])c([H])c(F)c([H])c8F)c([H])c7[H])c(C(=O)N([H])[H])c6N([H])[H])C5([H])[H])C([H])([H])[H])c([H])c4C(C([H])([H])[H])(C([H])([H])[H])C3([H])[H])c([H])c([H])c2C1([H])[H]

$$$$
82:0:0
     RDKit          3D

 87 96  0  0  1  0  0  0  0  0999 V2000
  -30.1530  -21.5500   22.1710 C   0  0  0  0  0  2  0  0  0  0  0  0
  -29.2200  -22.7810   22.0280 C   0  0  0  0  0  2  0  0  0  0  0  0
  -30.1440  -20.7680   20.8610 C   0  0  0  0  0  3  0  0  0  0  0  0
  -29.0540  -21.3080   19.9840 C   0  0  0  0  0  3  0  0  0  0  0  0
  -28.9840  -22.9670   20.5250 C   0  0  0  0  0  3  0  0  0  0  0  0
  -29.1930  -19.6330   20.5780 C   0  0  0  0  0  3  0  0  0  0  0  0
  -29.9830  -18.1220   20.1310 C   0  0  0  0  0  2  0  0  0  0  0  0
  -30.4320  -15.2580   20.2280 C   0  0  0  0  0  0  0  0  0  0  0  0
  -30.3530  -12.8500   19.3110 C   0  0  0  0  0  2  0  0  0  0  0  0
  -29.4010  -12.6870   18.1000 C   0  0  0  0  0  2  0  0  0  0  0  0
  -27.9630  -12.4220   18.5750 C   0  0  0  0  0  2  0  0  0  0  0  0
  -27.5450  -13.3770   19.7210 C   0  0  0  0  0  3  0  0  0  0  0  0
  -28.6170  -13.4850   20.8280 C   0  0  0  0  0  2  0  0  0  0  0  0
  -29.8480  -13.9700   20.1810 N   0  0  0  0  0  0  0  0  0  0  0  0
  -31.6350  -15.2710   19.9320 O   0  0  0  0  0  0  0  0  0  0  0  0
  -29.6880  -16.5160   20.3950 N   0  0  0  0  0  0  0  0  0  0  0  0
  -28.7250  -16.3390   20.6410 H   0  0  0  0  0  0  0  0  0  0  0  0
  -25.1820  -13.9310   20.5140 C   0  0  0  0  0  0  0  0  0  0  0  0
  -24.1300  -13.1460   20.8970 C   0  0  0  0  0  0  0  0  0  0  0  0
  -24.6000  -11.7980   20.8480 C   0  0  0  0  0  0  0  0  0  0  0  0
  -26.2240  -13.0600   20.2480 N   0  0  0  0  0  0  0  0  0  0  0  0
  -25.8870  -11.7720   20.5170 N   0  0  0  0  0  0  0  0  0  0  0  0
  -23.8810  -10.5310   21.0370 C   0  0  0  0  0  0  0  0  0  0  0  0
  -24.3240   -9.5590   21.9620 C   0  0  0  0  0  3  0  0  0  0  0  0
  -23.5980   -8.3610   22.1420 C   0  0  0  0  0  3  0  0  0  0  0  0
  -22.4180   -8.1260   21.3980 C   0  0  0  0  0  0  0  0  0  0  0  0
  -21.9950   -9.0860   20.4620 C   0  0  0  0  0  3  0  0  0  0  0  0
  -22.7200  -10.2760   20.2800 C   0  0  0  0  0  3  0  0  0  0  0  0
  -21.6650   -6.9800   21.4880 O   0  0  0  0  0  0  0  0  0  0  0  0
  -21.6210   -6.2370   22.6410 C   0  0  0  0  0  0  0  0  0  0  0  0
  -21.1860   -6.7870   23.8660 C   0  0  0  0  0  3  0  0  0  0  0  0
  -21.0890   -5.9710   25.0100 C   0  0  0  0  0  3  0  0  0  0  0  0
  -21.4200   -4.6050   24.9300 C   0  0  0  0  0  0  0  0  0  0  0  0
  -21.8510   -4.0530   23.7100 C   0  0  0  0  0  3  0  0  0  0  0  0
  -21.9490   -4.8680   22.5680 C   0  0  0  0  0  0  0  0  0  0  0  0
  -22.3420   -4.3270   21.3900 F   0  0  0  0  0  0  0  0  0  0  0  0
  -21.3230   -3.8180   26.0270 F   0  0  0  0  0  0  0  0  0  0  0  0
  -22.7340  -13.6170   21.1920 C   0  0  0  0  0  0  0  0  0  0  0  0
  -22.0220  -12.9130   22.0640 N   0  0  0  0  0  0  0  0  0  0  0  0
  -22.2870  -14.6440   20.6850 O   0  0  0  0  0  0  0  0  0  0  0  0
  -22.3970  -12.0820   22.4970 H   0  0  0  0  0  0  0  0  0  0  0  0
  -21.0880  -13.2140   22.3050 H   0  0  0  0  0  0  0  0  0  0  0  0
  -25.3340  -15.3040   20.3390 N   0  0  0  0  0  0  0  0  0  0  0  0
  -24.5660  -15.9520   20.4830 H   0  0  0  0  0  0  0  0  0  0  0  0
  -26.1550  -15.7490   19.9520 H   0  0  0  0  0  0  0  0  0  0  0  0
  -27.9820  -24.3840   20.1320 C   0  0  0  0  0  2  0  0  0  0  0  0
  -28.1980  -25.9850   20.3430 O   0  0  0  0  0  0  0  0  0  0  0  0
  -24.6260  -31.9050   23.2460 C   0  0  0  0  0  0  0  0  0  0  0  0
  -27.1740  -27.0490   20.2570 C   0  0  0  0  0  0  0  0  0  0  0  0
  -23.4270  -30.5050   21.6120 C   0  0  0  0  0  3  0  0  0  0  0  0
  -24.8710  -28.8970   20.1960 C   0  0  0  0  0  0  0  0  0  0  0  0
  -25.9880  -30.7250   21.4600 C   0  0  0  0  0  2  0  0  0  0  0  0
  -26.0570  -29.3160   20.8120 C   0  0  0  0  0  0  0  0  0  0  0  0
  -27.2040  -28.4100   20.8190 C   0  0  0  0  0  3  0  0  0  0  0  0
  -25.9600  -26.7680   19.5900 C   0  0  0  0  0  3  0  0  0  0  0  0
  -24.8450  -27.6430   19.5640 C   0  0  0  0  0  3  0  0  0  0  0  0
  -23.6520  -29.8150   20.2390 C   0  0  0  0  0  2  0  0  0  0  0  0
  -24.7020  -31.0700   22.1610 N   0  0  0  0  0  0  0  0  0  0  0  0
  -23.5380  -32.2000   23.7660 O   0  0  0  0  0  0  0  0  0  0  0  0
  -22.7320  -29.5160   22.5830 C   0  0  0  0  0  0  0  0  0  0  0  0
  -21.4020  -29.3540   22.4580 N   0  0  0  0  0  0  0  0  0  0  0  0
  -23.3970  -28.8930   23.4160 O   0  0  0  0  0  0  0  0  0  0  0  0
  -20.9220  -29.9070   21.7620 H   0  0  0  0  0  0  0  0  0  0  0  0
  -18.0160  -28.1600   22.9650 C   0  0  0  0  0  0  0  0  0  0  0  0
  -20.5750  -28.4230   23.2320 C   0  0  0  0  0  3  0  0  0  0  0  0
  -20.6770  -26.9880   22.6660 C   0  0  0  0  0  2  0  0  0  0  0  0
  -19.5770  -26.6600   21.6520 C   0  0  0  0  0  2  0  0  0  0  0  0
  -18.1940  -26.8080   22.2930 C   0  0  0  0  0  2  0  0  0  0  0  0
  -19.1350  -28.9250   23.3910 C   0  0  0  0  0  0  0  0  0  0  0  0
  -18.9150  -30.1880   23.9830 C   0  0  0  0  0  3  0  0  0  0  0  0
  -17.6080  -30.6870   24.1480 C   0  0  0  0  0  3  0  0  0  0  0  0
  -16.5050  -29.9200   23.7350 C   0  0  0  0  0  3  0  0  0  0  0  0
  -16.7090  -28.6580   23.1510 C   0  0  0  0  0  3  0  0  0  0  0  0
  -25.9020  -32.5440   23.8760 C   0  0  0  0  0  3  0  0  0  0  0  0
  -25.5900  -33.9460   24.2050 N   0  0  0  0  0  0  0  0  0  0  0  0
  -25.9100  -35.0020   23.4450 C   0  0  0  0  0  0  0  0  0  0  0  0
  -26.5610  -34.8980   22.4030 O   0  0  0  0  0  0  0  0  0  0  0  0
  -25.0060  -34.1000   25.0140 H   0  0  0  0  0  0  0  0  0  0  0  0
  -24.1670  -36.7950   23.1420 C   0  0  0  0  0  1  0  0  0  0  0  0
  -25.4340  -36.3920   23.9150 C   0  0  0  0  0  3  0  0  0  0  0  0
  -27.5880  -37.2910   24.6810 C   0  0  0  0  0  1  0  0  0  0  0  0
  -26.4600  -37.4490   23.7660 N   0  0  0  0  0  0  0  0  0  0  0  0
  -26.0540  -38.3690   23.9180 H   0  0  0  0  0  0  0  0  0  0  0  0
  -26.4030  -31.7820   25.1640 C   0  0  1  0  0  0  0  0  0  0  0  0
  -25.3020  -31.5600   26.2270 C   0  0  0  0  0  1  0  0  0  0  0  0
  -26.9820  -30.3970   24.7940 C   0  0  0  0  0  1  0  0  0  0  0  0
  -27.5540  -32.5760   25.8280 C   0  0  0  0  0  1  0  0  0  0  0  0
  2  1  1  0
  3  1  1  0
  4  5  1  0
  4  6  1  0
  4  3  1  0
  5  2  1  0
  6  3  1  0
  7 16  1  0
  7  6  1  0
  8 16  1  0
  9 14  1  0
 10 11  1  0
 10  9  1  0
 11 12  1  0
 12 21  1  0
 12 13  1  0
 14  8  1  0
 14 13  1  0
 15  8  2  0
 16 17  1  0
 18 19  2  0
 19 38  1  0
 20 19  1  0
 20 23  1  0
 21 18  1  0
 21 22  1  0
 22 20  2  0
 23 24  1  0
 24 25  2  0
 26 29  1  0
 26 25  1  0
 27 26  2  0
 28 27  1  0
 28 23  2  0
 29 30  1  0
 30 31  1  0
 31 32  2  0
 33 32  1  0
 33 37  1  0
 34 33  2  0
 35 30  2  0
 35 34  1  0
 36 35  1  0
 38 39  1  0
 39 42  1  0
 39 41  1  0
 40 38  2  0
 43 44  1  0
 43 18  1  0
 45 43  1  0
 46 47  1  0
 46  5  1  0
 48 59  2  0
 48 74  1  0
 49 47  1  0
 49 54  1  0
 50 58  1  0
 50 60  1  0
 51 57  1  0
 51 53  1  0
 52 58  1  0
 53 54  2  0
 53 52  1  0
 55 49  2  0
 56 55  1  0
 56 51  2  0
 57 50  1  0
 58 48  1  0
 60 62  2  0
 61 60  1  0
 61 65  1  0
 63 61  1  0
 64 73  2  0
 64 69  1  0
 65 69  1  0
 66 65  1  0
 67 68  1  0
 67 66  1  0
 68 64  1  0
 69 70  2  0
 70 71  1  0
 72 71  2  0
 73 72  1  0
 74 75  1  0
 74 84  1  0
 75 78  1  0
 76 80  1  0
 76 75  1  0
 77 76  2  0
 79 80  1  0
 82 80  1  0
 82 83  1  0
 82 81  1  0
 84 87  1  1
 84 85  1  0
 86 84  1  0
M  ISO  4   8 100  16 100  46 101  47 101
M  END
>  <TORSDO>  (83) 
F 18

>  <SCORE>  (83) 
-15.978

>  <name>  (83) 
82

>  <ligand_id>  (83) 
82

>  <original_smiles>  (83) 
[H]c1c([H])c([H])c2c(c1[H])C([H])([H])C([H])([H])C([H])([H])C2([H])N([H])C(=O)C1([H])N(C(=O)C([H])(N([H])C(=O)C([H])(N([H])C([H])([H])[H])C([H])([H])[H])C(C([H])([H])[H])(C([H])([H])[H])C([H])([H])[H])C([H])([H])c2c([H])c(OC([H])([H])C3([H])C([H])([H])C([H])([H])C4([H])C([H])(C([H])([H])N([H])C(=O)N5C([H])([H])C([H])([H])C([H])([H])C([H])(n6nc(-c7c([H])c([H])c(Oc8c([H])c([H])c(F)c([H])c8F)c([H])c7[H])c(C(=O)N([H])[H])c6N([H])[H])C5([H])[H])C34[H])c([H])c([H])c2C1([H])[H]

>  <smiles>  (83) 
[H]c1c([H])c([H])c2c(c1[H])C([H])([H])C([H])([H])C([H])([H])C2([H])N([H])C(=O)C1([H])N(C(=O)C([H])(N([H])C(=O)C([H])(N([H])C([H])([H])[H])C([H])([H])[H])C(C([H])([H])[H])(C([H])([H])[H])C([H])([H])[H])C([H])([H])c2c([H])c(OC([H])([H])C3([H])C([H])([H])C([H])([H])C4([H])C([H])(C([H])([H])N([H])C(=O)N5C([H])([H])C([H])([H])C([H])([H])C([H])(n6nc(-c7c([H])c([H])c(Oc8c([H])c([H])c(F)c([H])c8F)c([H])c7[H])c(C(=O)N([H])[H])c6N([H])[H])C5([H])[H])C34[H])c([H])c([H])c2C1([H])[H]

$$$$
83:0:0
     RDKit          3D

 90 99  0  0  1  0  0  0  0  0999 V2000
  -29.1580  -21.6700   21.0630 C   0  0  0  0  0  0  0  0  0  0  0  0
  -29.0460  -21.8720   22.2760 O   0  0  0  0  0  0  0  0  0  0  0  0
  -28.4820  -22.9570   20.1240 C   0  0  0  0  0  2  0  0  0  0  0  0
  -28.6840  -24.7210   19.8570 C   0  0  0  0  0  2  0  0  0  0  0  0
  -28.4310  -26.2190   20.4560 O   0  0  0  0  0  0  0  0  0  0  0  0
  -24.6370  -31.9640   23.3650 C   0  0  0  0  0  0  0  0  0  0  0  0
  -27.3810  -27.2500   20.2880 C   0  0  0  0  0  0  0  0  0  0  0  0
  -23.5060  -30.5730   21.6750 C   0  0  0  0  0  3  0  0  0  0  0  0
  -25.0200  -29.0340   20.2410 C   0  0  0  0  0  0  0  0  0  0  0  0
  -26.0640  -30.8570   21.5790 C   0  0  0  0  0  2  0  0  0  0  0  0
  -26.1790  -29.4660   20.8950 C   0  0  0  0  0  0  0  0  0  0  0  0
  -27.3470  -28.5900   20.9030 C   0  0  0  0  0  3  0  0  0  0  0  0
  -26.1980  -26.9580   19.5740 C   0  0  0  0  0  3  0  0  0  0  0  0
  -25.0510  -27.7990   19.5640 C   0  0  0  0  0  3  0  0  0  0  0  0
  -23.7760  -29.9200   20.2890 C   0  0  0  0  0  2  0  0  0  0  0  0
  -24.7550  -31.1580   22.2610 N   0  0  0  0  0  0  0  0  0  0  0  0
  -23.5340  -32.2200   23.8720 O   0  0  0  0  0  0  0  0  0  0  0  0
  -22.8180  -29.5440   22.6090 C   0  0  0  0  0  0  0  0  0  0  0  0
  -21.4960  -29.3540   22.4550 N   0  0  0  0  0  0  0  0  0  0  0  0
  -23.4820  -28.9200   23.4410 O   0  0  0  0  0  0  0  0  0  0  0  0
  -21.0150  -29.9120   21.7630 H   0  0  0  0  0  0  0  0  0  0  0  0
  -18.1240  -28.0760   22.8770 C   0  0  0  0  0  0  0  0  0  0  0  0
  -20.6750  -28.3850   23.1900 C   0  0  0  0  0  3  0  0  0  0  0  0
  -20.8140  -26.9680   22.5860 C   0  0  0  0  0  2  0  0  0  0  0  0
  -19.7360  -26.6470   21.5470 C   0  0  0  0  0  2  0  0  0  0  0  0
  -18.3400  -26.7480   22.1710 C   0  0  0  0  0  2  0  0  0  0  0  0
  -19.2210  -28.8520   23.3410 C   0  0  0  0  0  0  0  0  0  0  0  0
  -18.9650  -30.0920   23.9650 C   0  0  0  0  0  3  0  0  0  0  0  0
  -17.6470  -30.5590   24.1260 C   0  0  0  0  0  3  0  0  0  0  0  0
  -16.5660  -29.7810   23.6770 C   0  0  0  0  0  3  0  0  0  0  0  0
  -16.8060  -28.5410   23.0580 C   0  0  0  0  0  3  0  0  0  0  0  0
  -25.8830  -32.6200   24.0360 C   0  0  0  0  0  3  0  0  0  0  0  0
  -25.5350  -34.0090   24.3790 N   0  0  0  0  0  0  0  0  0  0  0  0
  -25.9010  -35.0890   23.6760 C   0  0  0  0  0  0  0  0  0  0  0  0
  -26.6310  -35.0210   22.6840 O   0  0  0  0  0  0  0  0  0  0  0  0
  -24.8880  -34.1340   25.1450 H   0  0  0  0  0  0  0  0  0  0  0  0
  -24.1810  -36.8870   23.2790 C   0  0  0  0  0  1  0  0  0  0  0  0
  -25.3770  -36.4630   24.1460 C   0  0  0  0  0  3  0  0  0  0  0  0
  -27.4540  -37.3400   25.1240 C   0  0  0  0  0  1  0  0  0  0  0  0
  -26.4070  -37.5270   24.1230 N   0  0  0  0  0  0  0  0  0  0  0  0
  -25.9840  -38.4400   24.2710 H   0  0  0  0  0  0  0  0  0  0  0  0
  -26.3700  -31.8480   25.3250 C   0  0  1  0  0  0  0  0  0  0  0  0
  -25.2480  -31.5870   26.3570 C   0  0  0  0  0  1  0  0  0  0  0  0
  -26.9870  -30.4820   24.9480 C   0  0  0  0  0  1  0  0  0  0  0  0
  -27.4880  -32.6560   26.0270 C   0  0  0  0  0  1  0  0  0  0  0  0
  -29.9630  -20.1640   20.7050 C   0  0  0  0  0  2  0  0  0  0  0  0
  -29.5130  -18.4310   20.6760 C   0  0  0  0  0  0  0  0  0  0  0  0
  -30.8270  -15.6540   21.0060 C   0  0  0  0  0  0  0  0  0  0  0  0
  -30.8300  -13.1680   20.2580 C   0  0  0  0  0  2  0  0  0  0  0  0
  -30.0690  -12.8310   18.9550 C   0  0  0  0  0  2  0  0  0  0  0  0
  -28.6020  -12.5020   19.2730 C   0  0  0  0  0  2  0  0  0  0  0  0
  -27.9940  -13.5340   20.2450 C   0  0  0  0  0  3  0  0  0  0  0  0
  -28.9050  -13.8920   21.4500 C   0  0  0  0  0  2  0  0  0  0  0  0
  -30.1880  -14.3780   20.9140 N   0  0  0  0  0  0  0  0  0  0  0  0
  -32.0560  -15.5360   20.9310 O   0  0  0  0  0  0  0  0  0  0  0  0
  -30.3130  -17.0420   21.2130 N   0  0  0  0  0  4  0  0  0  0  0  0
  -31.0990  -17.4340   21.7100 H   0  0  0  0  0  0  0  0  0  0  0  0
  -25.5680  -14.1190   20.7580 C   0  0  0  0  0  0  0  0  0  0  0  0
  -24.4730  -13.3460   21.0160 C   0  0  0  0  0  0  0  0  0  0  0  0
  -24.9450  -11.9980   21.0550 C   0  0  0  0  0  0  0  0  0  0  0  0
  -26.6290  -13.2370   20.6360 N   0  0  0  0  0  0  0  0  0  0  0  0
  -26.2610  -11.9590   20.8880 N   0  0  0  0  0  0  0  0  0  0  0  0
  -24.2110  -10.7370   21.1810 C   0  0  0  0  0  0  0  0  0  0  0  0
  -24.5600   -9.7780   22.1560 C   0  0  0  0  0  3  0  0  0  0  0  0
  -23.8240   -8.5800   22.2750 C   0  0  0  0  0  3  0  0  0  0  0  0
  -22.7290   -8.3340   21.4140 C   0  0  0  0  0  0  0  0  0  0  0  0
  -22.4020   -9.2820   20.4290 C   0  0  0  0  0  3  0  0  0  0  0  0
  -23.1380  -10.4720   20.3070 C   0  0  0  0  0  3  0  0  0  0  0  0
  -21.9720   -7.1870   21.4380 O   0  0  0  0  0  0  0  0  0  0  0  0
  -21.8200   -6.4520   22.5870 C   0  0  0  0  0  0  0  0  0  0  0  0
  -21.2640   -7.0100   23.7600 C   0  0  0  0  0  3  0  0  0  0  0  0
  -21.0600   -6.2020   24.8950 C   0  0  0  0  0  3  0  0  0  0  0  0
  -21.4000   -4.8360   24.8590 C   0  0  0  0  0  0  0  0  0  0  0  0
  -21.9490   -4.2780   23.6910 C   0  0  0  0  0  3  0  0  0  0  0  0
  -22.1550   -5.0850   22.5570 C   0  0  0  0  0  0  0  0  0  0  0  0
  -22.6630   -4.5380   21.4270 F   0  0  0  0  0  0  0  0  0  0  0  0
  -21.1970   -4.0560   25.9460 F   0  0  0  0  0  0  0  0  0  0  0  0
  -23.0530  -13.8230   21.1200 C   0  0  0  0  0  0  0  0  0  0  0  0
  -22.2430  -13.1450   21.9230 N   0  0  0  0  0  0  0  0  0  0  0  0
  -22.6720  -14.8300   20.5250 O   0  0  0  0  0  0  0  0  0  0  0  0
  -22.5690  -12.3290   22.4190 H   0  0  0  0  0  0  0  0  0  0  0  0
  -21.2840  -13.4420   22.0390 H   0  0  0  0  0  0  0  0  0  0  0  0
  -25.7440  -15.4860   20.5890 N   0  0  0  0  0  0  0  0  0  0  0  0
  -24.9660  -16.1360   20.6110 H   0  0  0  0  0  0  0  0  0  0  0  0
  -26.6310  -15.9280   20.3870 H   0  0  0  0  0  0  0  0  0  0  0  0
  -30.9130  -17.8630   17.5800 C   0  0  0  0  0  2  0  0  0  0  0  0
  -28.6350  -16.9730   18.6210 C   0  0  0  0  0  2  0  0  0  0  0  0
  -29.4900  -17.3790   17.4440 C   0  0  0  0  0  3  0  0  0  0  0  0
  -29.7790  -18.7000   18.1250 C   0  0  0  0  0  3  0  0  0  0  0  0
  -28.8820  -18.3000   19.2830 C   0  0  0  0  0  3  0  0  0  0  0  0
  1  2  2  0
  3  1  1  0
  4  3  1  0
  4  5  1  0
  6 17  2  0
  7  5  1  0
  7 12  1  0
  8 16  1  0
  8 18  1  0
  9 15  1  0
  9 11  1  0
 10 16  1  0
 11 12  2  0
 11 10  1  0
 13  7  2  0
 14 13  1  0
 14  9  2  0
 15  8  1  0
 16  6  1  0
 18 20  2  0
 19 18  1  0
 21 19  1  0
 22 31  2  0
 22 27  1  0
 23 19  1  0
 23 27  1  0
 24 23  1  0
 25 26  1  0
 25 24  1  0
 26 22  1  0
 27 28  2  0
 28 29  1  0
 30 29  2  0
 31 30  1  0
 32  6  1  0
 32 33  1  0
 32 42  1  0
 33 36  1  0
 34 38  1  0
 34 33  1  0
 35 34  2  0
 38 37  1  0
 40 38  1  0
 40 41  1  0
 40 39  1  0
 42 45  1  1
 42 43  1  0
 44 42  1  0
 46  1  1  0
 47 46  1  0
 47 56  2  0
 48 56  1  0
 49 54  1  0
 50 51  1  0
 50 49  1  0
 52 51  1  0
 52 61  1  0
 52 53  1  0
 54 48  1  0
 54 53  1  0
 55 48  2  0
 56 57  1  0
 58 59  2  0
 59 60  1  0
 59 78  1  0
 60 63  1  0
 61 58  1  0
 61 62  1  0
 62 60  2  0
 63 64  1  0
 64 65  2  0
 66 69  1  0
 66 65  1  0
 67 66  2  0
 68 67  1  0
 68 63  2  0
 69 70  1  0
 70 71  1  0
 71 72  2  0
 73 72  1  0
 73 77  1  0
 74 73  2  0
 75 70  2  0
 75 74  1  0
 76 75  1  0
 78 79  1  0
 79 82  1  0
 79 81  1  0
 80 78  2  0
 83 84  1  0
 83 58  1  0
 85 83  1  0
 87 90  1  0
 88 86  1  0
 88 89  1  0
 88 87  1  0
 89 86  1  0
 89 90  1  0
 90 47  1  0
M  ISO  4   4 101   5 101  48 100  56 100
M  END
>  <TORSDO>  (84) 
F 21

>  <SCORE>  (84) 
-14.689

>  <name>  (84) 
83

>  <ligand_id>  (84) 
83

>  <original_smiles>  (84) 
[H]c1c([H])c([H])c2c(c1[H])C([H])([H])C([H])([H])C([H])([H])C2([H])N([H])C(=O)C1([H])N(C(=O)C([H])(N([H])C(=O)C([H])(N([H])C([H])([H])[H])C([H])([H])[H])C(C([H])([H])[H])(C([H])([H])[H])C([H])([H])[H])C([H])([H])c2c([H])c(OC([H])([H])C([H])([H])C(=O)C([H])([H])C([H])(N([H])C(=O)N3C([H])([H])C([H])([H])C([H])([H])C([H])(n4nc(-c5c([H])c([H])c(Oc6c([H])c([H])c(F)c([H])c6F)c([H])c5[H])c(C(=O)N([H])[H])c4N([H])[H])C3([H])[H])C3([H])C([H])([H])C4([H])C([H])([H])C43[H])c([H])c([H])c2C1([H])[H]

>  <smiles>  (84) 
[H]c1c([H])c([H])c2c(c1[H])C([H])([H])C([H])([H])C([H])([H])C2([H])N([H])C(=O)C1([H])N(C(=O)C([H])(N([H])C(=O)C([H])(N([H])C([H])([H])[H])C([H])([H])[H])C(C([H])([H])[H])(C([H])([H])[H])C([H])([H])[H])C([H])([H])c2c([H])c(OC([H])([H])C([H])([H])C(=O)C([H])([H])C([H])(N([H])C(=O)N3C([H])([H])C([H])([H])C([H])([H])C([H])(n4nc(-c5c([H])c([H])c(Oc6c([H])c([H])c(F)c([H])c6F)c([H])c5[H])c(C(=O)N([H])[H])c4N([H])[H])C3([H])[H])C3([H])C([H])([H])C4([H])C([H])([H])C43[H])c([H])c([H])c2C1([H])[H]

$$$$
84:0:0
     RDKit          3D

 91 99  0  0  1  0  0  0  0  0999 V2000
  -28.3880  -22.5540   20.4170 C   0  0  0  0  0  0  0  0  0  0  0  0
  -30.5520  -23.7050   19.6590 C   0  0  0  0  0  2  0  0  0  0  0  0
  -31.3010  -22.4090   20.1050 C   0  0  0  0  0  2  0  0  0  0  0  0
  -29.1750  -23.9370   20.3710 C   0  0  0  0  0  3  0  0  0  0  0  0
  -30.4490  -21.0960   19.9200 C   0  0  0  0  0  3  0  0  0  0  0  0
  -29.0170  -21.3720   20.1720 N   0  0  0  0  0  0  0  0  0  0  0  0
  -27.1820  -22.5060   20.7000 O   0  0  0  0  0  0  0  0  0  0  0  0
  -28.4050  -20.5630   20.1430 H   0  0  0  0  0  0  0  0  0  0  0  0
  -28.3290  -25.1530   19.7440 C   0  0  0  0  0  2  0  0  0  0  0  0
  -28.4080  -26.5560   20.2120 O   0  0  0  0  0  0  0  0  0  0  0  0
  -24.5940  -31.8990   23.2520 C   0  0  0  0  0  0  0  0  0  0  0  0
  -27.2550  -27.3680   20.1690 C   0  0  0  0  0  0  0  0  0  0  0  0
  -23.4020  -30.4930   21.6070 C   0  0  0  0  0  3  0  0  0  0  0  0
  -24.8630  -28.9500   20.1880 C   0  0  0  0  0  0  0  0  0  0  0  0
  -25.9380  -30.8110   21.4450 C   0  0  0  0  0  2  0  0  0  0  0  0
  -26.0240  -29.4360   20.7980 C   0  0  0  0  0  0  0  0  0  0  0  0
  -27.2150  -28.6470   20.8010 C   0  0  0  0  0  3  0  0  0  0  0  0
  -26.0620  -26.9480   19.5200 C   0  0  0  0  0  3  0  0  0  0  0  0
  -24.8790  -27.7020   19.5550 C   0  0  0  0  0  3  0  0  0  0  0  0
  -23.6250  -29.8150   20.2290 C   0  0  0  0  0  2  0  0  0  0  0  0
  -24.6640  -31.0860   22.1610 N   0  0  0  0  0  0  0  0  0  0  0  0
  -23.5090  -32.1770   23.7840 O   0  0  0  0  0  0  0  0  0  0  0  0
  -22.7350  -29.4770   22.5660 C   0  0  0  0  0  0  0  0  0  0  0  0
  -21.4070  -29.3150   22.4410 N   0  0  0  0  0  0  0  0  0  0  0  0
  -23.4090  -28.8480   23.3850 O   0  0  0  0  0  0  0  0  0  0  0  0
  -20.9220  -29.8820   21.7600 H   0  0  0  0  0  0  0  0  0  0  0  0
  -18.0240  -28.1370   22.9350 C   0  0  0  0  0  0  0  0  0  0  0  0
  -20.5830  -28.3780   23.2060 C   0  0  0  0  0  3  0  0  0  0  0  0
  -20.6730  -26.9460   22.6260 C   0  0  0  0  0  2  0  0  0  0  0  0
  -19.5680  -26.6360   21.6130 C   0  0  0  0  0  2  0  0  0  0  0  0
  -18.1900  -26.7900   22.2560 C   0  0  0  0  0  2  0  0  0  0  0  0
  -19.1480  -28.8920   23.3650 C   0  0  0  0  0  0  0  0  0  0  0  0
  -18.9380  -30.1610   23.9510 C   0  0  0  0  0  3  0  0  0  0  0  0
  -17.6360  -30.6680   24.1280 C   0  0  0  0  0  3  0  0  0  0  0  0
  -16.5260  -29.9120   23.7150 C   0  0  0  0  0  3  0  0  0  0  0  0
  -16.7210  -28.6520   23.1210 C   0  0  0  0  0  3  0  0  0  0  0  0
  -25.8760  -32.5310   23.8750 C   0  0  0  0  0  3  0  0  0  0  0  0
  -26.3910  -31.7660   25.1570 C   0  0  1  0  0  0  0  0  0  0  0  0
  -25.2930  -31.5370   26.2220 C   0  0  0  0  0  1  0  0  0  0  0  0
  -26.9750  -30.3850   24.7770 C   0  0  0  0  0  1  0  0  0  0  0  0
  -27.5360  -32.5680   25.8250 C   0  0  0  0  0  1  0  0  0  0  0  0
  -25.5760  -33.9290   24.1940 N   0  0  0  0  0  0  0  0  0  0  0  0
  -25.9140  -34.9800   23.4320 C   0  0  0  0  0  0  0  0  0  0  0  0
  -26.5910  -34.8750   22.4070 O   0  0  0  0  0  0  0  0  0  0  0  0
  -24.9770  -34.0860   24.9900 H   0  0  0  0  0  0  0  0  0  0  0  0
  -24.1920  -36.7820   23.0770 C   0  0  0  0  0  1  0  0  0  0  0  0
  -25.4300  -36.3700   23.8870 C   0  0  0  0  0  3  0  0  0  0  0  0
  -27.5640  -37.2510   24.7270 C   0  0  0  0  0  1  0  0  0  0  0  0
  -26.4630  -37.4210   23.7830 N   0  0  0  0  0  0  0  0  0  0  0  0
  -26.0570  -38.3380   23.9400 H   0  0  0  0  0  0  0  0  0  0  0  0
  -30.9600  -19.8010   20.7210 C   0  0  0  0  0  2  0  0  0  0  0  0
  -30.2000  -18.4210   20.4660 C   0  0  0  0  0  3  0  0  0  0  0  0
  -30.5950  -17.1410   21.3280 C   0  0  0  0  0  3  0  0  0  0  0  0
  -30.6970  -14.6880   20.4770 C   0  0  0  0  0  0  0  0  0  0  0  0
  -30.4080  -12.4950   19.3250 C   0  0  0  0  0  2  0  0  0  0  0  0
  -29.4520  -12.5980   18.1190 C   0  0  0  0  0  2  0  0  0  0  0  0
  -27.9890  -12.4200   18.5610 C   0  0  0  0  0  2  0  0  0  0  0  0
  -27.6310  -13.2940   19.7900 C   0  0  0  0  0  3  0  0  0  0  0  0
  -28.6950  -13.1680   20.9030 C   0  0  0  0  0  2  0  0  0  0  0  0
  -29.9990  -13.5150   20.3160 N   0  0  0  0  0  0  0  0  0  0  0  0
  -31.8660  -14.7820   20.1040 O   0  0  0  0  0  0  0  0  0  0  0  0
  -30.0290  -15.8010   20.9180 N   0  0  0  0  0  0  0  0  0  0  0  0
  -29.0380  -15.6830   21.0680 H   0  0  0  0  0  0  0  0  0  0  0  0
  -25.2290  -13.8730   20.4910 C   0  0  0  0  0  0  0  0  0  0  0  0
  -24.1640  -13.0840   20.8630 C   0  0  0  0  0  0  0  0  0  0  0  0
  -24.6420  -11.7410   20.8320 C   0  0  0  0  0  0  0  0  0  0  0  0
  -26.2800  -13.0000   20.2680 N   0  0  0  0  0  0  0  0  0  0  0  0
  -25.9360  -11.7120   20.5360 N   0  0  0  0  0  0  0  0  0  0  0  0
  -23.9250  -10.4680   21.0170 C   0  0  0  0  0  0  0  0  0  0  0  0
  -24.3630   -9.4930   21.9370 C   0  0  0  0  0  3  0  0  0  0  0  0
  -23.6410   -8.2900   22.1040 C   0  0  0  0  0  3  0  0  0  0  0  0
  -22.4640   -8.0590   21.3550 C   0  0  0  0  0  0  0  0  0  0  0  0
  -22.0510   -9.0200   20.4160 C   0  0  0  0  0  3  0  0  0  0  0  0
  -22.7720  -10.2130   20.2460 C   0  0  0  0  0  3  0  0  0  0  0  0
  -21.7130   -6.9120   21.4340 O   0  0  0  0  0  0  0  0  0  0  0  0
  -21.6750   -6.1550   22.5800 C   0  0  0  0  0  0  0  0  0  0  0  0
  -21.2560   -6.6960   23.8150 C   0  0  0  0  0  3  0  0  0  0  0  0
  -21.1690   -5.8660   24.9540 C   0  0  0  0  0  3  0  0  0  0  0  0
  -21.4870   -4.5010   24.8560 C   0  0  0  0  0  0  0  0  0  0  0  0
  -21.8950   -3.9590   23.6240 C   0  0  0  0  0  3  0  0  0  0  0  0
  -21.9880   -4.7830   22.4890 C   0  0  0  0  0  0  0  0  0  0  0  0
  -22.3640   -4.2520   21.3020 F   0  0  0  0  0  0  0  0  0  0  0  0
  -21.3930   -3.7030   25.9460 F   0  0  0  0  0  0  0  0  0  0  0  0
  -22.7650  -13.5510   21.1200 C   0  0  0  0  0  0  0  0  0  0  0  0
  -22.0370  -12.8460   21.9830 N   0  0  0  0  0  0  0  0  0  0  0  0
  -22.3230  -14.5750   20.6010 O   0  0  0  0  0  0  0  0  0  0  0  0
  -22.4050  -12.0110   22.4140 H   0  0  0  0  0  0  0  0  0  0  0  0
  -21.1050  -13.1450   22.2170 H   0  0  0  0  0  0  0  0  0  0  0  0
  -25.3800  -15.2410   20.3100 N   0  0  0  0  0  0  0  0  0  0  0  0
  -24.6090  -15.8930   20.4110 H   0  0  0  0  0  0  0  0  0  0  0  0
  -26.2230  -15.6790   19.9520 H   0  0  0  0  0  0  0  0  0  0  0  0
  1  7  2  0
  2  3  1  0
  2  4  1  0
  4  9  1  0
  4  1  1  0
  5  3  1  0
  5  6  1  0
  5 51  1  0
  6  1  1  0
  8  6  1  0
  9 10  1  0
 11 22  2  0
 12 10  1  0
 12 17  1  0
 13 21  1  0
 13 23  1  0
 14 20  1  0
 14 16  1  0
 15 21  1  0
 16 17  2  0
 16 15  1  0
 18 19  1  0
 18 12  2  0
 19 14  2  0
 20 13  1  0
 21 11  1  0
 23 25  2  0
 24 23  1  0
 26 24  1  0
 27 36  2  0
 27 32  1  0
 28 24  1  0
 28 32  1  0
 29 28  1  0
 30 31  1  0
 30 29  1  0
 31 27  1  0
 32 33  2  0
 33 34  1  0
 35 34  2  0
 36 35  1  0
 37 11  1  0
 37 42  1  0
 37 38  1  0
 38 41  1  1
 38 39  1  0
 40 38  1  0
 42 45  1  0
 43 47  1  0
 43 42  1  0
 44 43  2  0
 47 46  1  0
 49 47  1  0
 49 50  1  0
 49 48  1  0
 52 51  1  0
 52 53  2  0
 54 62  1  0
 55 60  1  0
 56 57  1  0
 56 55  1  0
 58 57  1  0
 58 67  1  0
 58 59  1  0
 60 54  1  0
 60 59  1  0
 61 54  2  0
 62 63  1  0
 62 53  1  0
 64 65  2  0
 65 84  1  0
 66 65  1  0
 66 69  1  0
 67 64  1  0
 67 68  1  0
 68 66  2  0
 69 70  1  0
 70 71  2  0
 72 75  1  0
 72 71  1  0
 73 72  2  0
 74 73  1  0
 74 69  2  0
 75 76  1  0
 76 77  1  0
 77 78  2  0
 79 78  1  0
 79 83  1  0
 80 79  2  0
 81 76  2  0
 81 80  1  0
 82 81  1  0
 84 85  1  0
 85 88  1  0
 85 87  1  0
 86 84  2  0
 89 90  1  0
 89 64  1  0
 91 89  1  0
M  ISO  4   9 101  10 101  54 100  62 100
M  END
>  <TORSDO>  (85) 
F 20

>  <SCORE>  (85) 
-13.881

>  <name>  (85) 
84

>  <ligand_id>  (85) 
84

>  <original_smiles>  (85) 
[H]c1c([H])c([H])c2c(c1[H])C([H])([H])C([H])([H])C([H])([H])C2([H])N([H])C(=O)C1([H])N(C(=O)C([H])(N([H])C(=O)C([H])(N([H])C([H])([H])[H])C([H])([H])[H])C(C([H])([H])[H])(C([H])([H])[H])C([H])([H])[H])C([H])([H])c2c([H])c(OC([H])([H])C3([H])C(=O)N([H])C([H])(C([H])([H])C([H])([H])C([H])([H])N([H])C(=O)N4C([H])([H])C([H])([H])C([H])([H])C([H])(n5nc(-c6c([H])c([H])c(Oc7c([H])c([H])c(F)c([H])c7F)c([H])c6[H])c(C(=O)N([H])[H])c5N([H])[H])C4([H])[H])C([H])([H])C3([H])[H])c([H])c([H])c2C1([H])[H]

>  <smiles>  (85) 
[H]c1c([H])c([H])c2c(c1[H])C([H])([H])C([H])([H])C([H])([H])C2([H])N([H])C(=O)C1([H])N(C(=O)C([H])(N([H])C(=O)C([H])(N([H])C([H])([H])[H])C([H])([H])[H])C(C([H])([H])[H])(C([H])([H])[H])C([H])([H])[H])C([H])([H])c2c([H])c(OC([H])([H])C3([H])C(=O)N([H])C([H])(C([H])([H])C([H])([H])C([H])([H])N([H])C(=O)N4C([H])([H])C([H])([H])C([H])([H])C([H])(n5nc(-c6c([H])c([H])c(Oc7c([H])c([H])c(F)c([H])c7F)c([H])c6[H])c(C(=O)N([H])[H])c5N([H])[H])C4([H])[H])C([H])([H])C3([H])[H])c([H])c([H])c2C1([H])[H]

$$$$
85:0:0
     RDKit          3D

 93102  0  0  1  0  0  0  0  0999 V2000
  -26.2350  -22.0950   20.8250 C   0  0  0  0  0  2  0  0  0  0  0  0
  -27.5030  -21.8650   21.1920 C   0  0  0  0  0  2  0  0  0  0  0  0
  -26.8970  -24.0290   19.5630 C   0  0  0  0  0  2  0  0  0  0  0  0
  -28.1990  -23.9200   19.8890 C   0  0  0  0  0  3  0  0  0  0  0  0
  -27.4740  -21.8860   18.8850 C   0  0  0  0  0  2  0  0  0  0  0  0
  -26.2670  -22.6610   19.4220 C   0  0  1  0  0  0  0  0  0  0  0  0
  -28.4340  -22.2480   20.0410 C   0  0  2  0  0  0  0  0  0  0  0  0
  -29.0500  -25.2450   20.1270 C   0  0  0  0  0  0  0  0  0  0  0  0
  -30.2210  -25.0690   20.4690 O   0  0  0  0  0  0  0  0  0  0  0  0
  -28.6510  -26.7670   19.8840 O   0  0  0  0  0  0  0  0  0  0  0  0
  -24.7510  -31.9840   23.3880 C   0  0  0  0  0  0  0  0  0  0  0  0
  -27.4900  -27.6210   19.9790 C   0  0  0  0  0  0  0  0  0  0  0  0
  -23.6050  -30.7120   21.6140 C   0  0  0  0  0  3  0  0  0  0  0  0
  -25.1080  -29.3020   20.0770 C   0  0  0  0  0  0  0  0  0  0  0  0
  -26.1500  -31.0490   21.5120 C   0  0  0  0  0  2  0  0  0  0  0  0
  -26.2630  -29.7160   20.7520 C   0  0  0  0  0  0  0  0  0  0  0  0
  -27.4420  -28.8820   20.7060 C   0  0  0  0  0  3  0  0  0  0  0  0
  -26.3420  -27.3720   19.2020 C   0  0  0  0  0  3  0  0  0  0  0  0
  -25.1580  -28.1380   19.2950 C   0  0  0  0  0  3  0  0  0  0  0  0
  -23.8580  -30.1600   20.1850 C   0  0  0  0  0  2  0  0  0  0  0  0
  -24.8550  -31.2690   22.2260 N   0  0  0  0  0  0  0  0  0  0  0  0
  -23.6530  -32.1850   23.9290 O   0  0  0  0  0  0  0  0  0  0  0  0
  -22.9470  -29.6060   22.4750 C   0  0  0  0  0  0  0  0  0  0  0  0
  -21.6240  -29.4180   22.3290 N   0  0  0  0  0  0  0  0  0  0  0  0
  -23.6320  -28.9170   23.2380 O   0  0  0  0  0  0  0  0  0  0  0  0
  -21.1210  -30.0190   21.6890 H   0  0  0  0  0  0  0  0  0  0  0  0
  -18.2770  -28.1070   22.7290 C   0  0  0  0  0  0  0  0  0  0  0  0
  -20.8290  -28.3920   23.0060 C   0  0  0  0  0  3  0  0  0  0  0  0
  -20.9450  -27.0300   22.2840 C   0  0  0  0  0  2  0  0  0  0  0  0
  -19.8540  -26.8260   21.2290 C   0  0  0  0  0  2  0  0  0  0  0  0
  -18.4800  -26.8460   21.9010 C   0  0  0  0  0  2  0  0  0  0  0  0
  -19.3820  -28.8470   23.2270 C   0  0  0  0  0  0  0  0  0  0  0  0
  -19.1420  -30.0410   23.9420 C   0  0  0  0  0  3  0  0  0  0  0  0
  -17.8300  -30.4930   24.1650 C   0  0  0  0  0  3  0  0  0  0  0  0
  -16.7370  -29.7440   23.6920 C   0  0  0  0  0  3  0  0  0  0  0  0
  -16.9620  -28.5540   22.9770 C   0  0  0  0  0  3  0  0  0  0  0  0
  -26.0030  -32.5940   24.0850 C   0  0  0  0  0  3  0  0  0  0  0  0
  -25.6910  -33.9930   24.4180 N   0  0  0  0  0  0  0  0  0  0  0  0
  -26.0310  -35.0530   23.6740 C   0  0  0  0  0  0  0  0  0  0  0  0
  -26.7040  -34.9560   22.6440 O   0  0  0  0  0  0  0  0  0  0  0  0
  -25.0880  -34.1390   25.2150 H   0  0  0  0  0  0  0  0  0  0  0  0
  -24.2820  -36.8400   23.3690 C   0  0  0  0  0  1  0  0  0  0  0  0
  -25.5480  -36.4400   24.1440 C   0  0  0  0  0  3  0  0  0  0  0  0
  -27.6920  -37.3550   24.9210 C   0  0  0  0  0  1  0  0  0  0  0  0
  -26.5700  -37.5010   23.9970 N   0  0  0  0  0  0  0  0  0  0  0  0
  -26.1580  -38.4190   24.1400 H   0  0  0  0  0  0  0  0  0  0  0  0
  -26.4400  -31.8060   25.3820 C   0  0  1  0  0  0  0  0  0  0  0  0
  -25.2870  -31.5630   26.3830 C   0  0  0  0  0  1  0  0  0  0  0  0
  -27.0410  -30.4310   25.0130 C   0  0  0  0  0  1  0  0  0  0  0  0
  -27.5480  -32.5910   26.1230 C   0  0  0  0  0  1  0  0  0  0  0  0
  -23.8270  -23.4350   19.0000 C   0  0  0  0  0  1  0  0  0  0  0  0
  -24.9910  -22.5330   18.5690 C   0  0  0  0  0  2  0  0  0  0  0  0
  -29.6970  -21.1330   19.9620 C   0  0  0  0  0  2  0  0  0  0  0  0
  -29.4260  -19.4530   20.0970 C   0  0  0  0  0  3  0  0  0  0  0  0
  -30.5470  -18.1920   20.1430 C   0  0  0  0  0  3  0  0  0  0  0  0
  -30.9650  -15.4760   20.1750 C   0  0  0  0  0  0  0  0  0  0  0  0
  -30.8770  -13.0810   19.3610 C   0  0  0  0  0  2  0  0  0  0  0  0
  -29.9650  -12.9670   18.1160 C   0  0  0  0  0  2  0  0  0  0  0  0
  -28.4990  -12.7630   18.5370 C   0  0  0  0  0  2  0  0  0  0  0  0
  -28.0640  -13.7520   19.6500 C   0  0  0  0  0  3  0  0  0  0  0  0
  -29.0940  -13.8260   20.7930 C   0  0  0  0  0  2  0  0  0  0  0  0
  -30.3760  -14.2160   20.1890 N   0  0  0  0  0  0  0  0  0  0  0  0
  -32.1650  -15.5410   19.8880 O   0  0  0  0  0  0  0  0  0  0  0  0
  -30.1850  -16.6570   20.2850 N   0  0  0  0  0  0  0  0  0  0  0  0
  -29.2170  -16.4730   20.4980 H   0  0  0  0  0  0  0  0  0  0  0  0
  -25.6990  -14.3590   20.4210 C   0  0  0  0  0  0  0  0  0  0  0  0
  -24.6210  -13.5960   20.7670 C   0  0  0  0  0  0  0  0  0  0  0  0
  -25.0540  -12.2380   20.6810 C   0  0  0  0  0  0  0  0  0  0  0  0
  -26.7200  -13.4690   20.1390 N   0  0  0  0  0  0  0  0  0  0  0  0
  -26.3410  -12.1830   20.3620 N   0  0  0  0  0  0  0  0  0  0  0  0
  -24.2990  -10.9850   20.8260 C   0  0  0  0  0  0  0  0  0  0  0  0
  -24.6870   -9.9930   21.7530 C   0  0  0  0  0  3  0  0  0  0  0  0
  -23.9340   -8.8070   21.8860 C   0  0  0  0  0  3  0  0  0  0  0  0
  -22.7800   -8.6060   21.0920 C   0  0  0  0  0  0  0  0  0  0  0  0
  -22.4110   -9.5870   20.1550 C   0  0  0  0  0  3  0  0  0  0  0  0
  -23.1650  -10.7660   20.0200 C   0  0  0  0  0  3  0  0  0  0  0  0
  -22.0010   -7.4750   21.1360 O   0  0  0  0  0  0  0  0  0  0  0  0
  -21.8370   -6.7570   22.2930 C   0  0  0  0  0  0  0  0  0  0  0  0
  -21.2880   -7.3380   23.4580 C   0  0  0  0  0  3  0  0  0  0  0  0
  -21.0730   -6.5480   24.6040 C   0  0  0  0  0  3  0  0  0  0  0  0
  -21.3940   -5.1760   24.5870 C   0  0  0  0  0  0  0  0  0  0  0  0
  -21.9370   -4.5960   23.4260 C   0  0  0  0  0  3  0  0  0  0  0  0
  -22.1540   -5.3840   22.2830 C   0  0  0  0  0  0  0  0  0  0  0  0
  -22.6550   -4.8140   21.1610 F   0  0  0  0  0  0  0  0  0  0  0  0
  -21.1800   -4.4150   25.6850 F   0  0  0  0  0  0  0  0  0  0  0  0
  -23.2360  -14.0920   21.0650 C   0  0  0  0  0  0  0  0  0  0  0  0
  -22.5040  -13.3900   21.9220 N   0  0  0  0  0  0  0  0  0  0  0  0
  -22.8150  -15.1420   20.5780 O   0  0  0  0  0  0  0  0  0  0  0  0
  -22.8590  -12.5430   22.3400 H   0  0  0  0  0  0  0  0  0  0  0  0
  -21.5720  -13.7010   22.1600 H   0  0  0  0  0  0  0  0  0  0  0  0
  -25.8930  -15.7330   20.2910 N   0  0  0  0  0  0  0  0  0  0  0  0
  -25.1360  -16.3970   20.4180 H   0  0  0  0  0  0  0  0  0  0  0  0
  -26.7350  -16.1580   19.9270 H   0  0  0  0  0  0  0  0  0  0  0  0
  1  2  1  0
  3  4  1  0
  4  7  1  0
  4  8  1  0
  5  6  1  0
  5  7  1  0
  6 52  1  6
  6  3  1  0
  6  1  1  0
  7 53  1  6
  7  2  1  0
  8  9  2  0
 10 12  1  0
 10  8  1  0
 11 22  2  0
 12 17  1  0
 13 21  1  0
 13 23  1  0
 14 20  1  0
 14 16  1  0
 15 21  1  0
 16 15  1  0
 17 16  2  0
 18 19  1  0
 18 12  2  0
 19 14  2  0
 20 13  1  0
 21 11  1  0
 23 25  2  0
 24 23  1  0
 26 24  1  0
 27 36  2  0
 27 32  1  0
 28 24  1  0
 28 32  1  0
 29 28  1  0
 30 31  1  0
 30 29  1  0
 31 27  1  0
 32 33  2  0
 33 34  1  0
 35 34  2  0
 36 35  1  0
 37 11  1  0
 37 38  1  0
 37 47  1  0
 38 41  1  0
 39 43  1  0
 39 38  1  0
 40 39  2  0
 43 42  1  0
 45 46  1  0
 45 43  1  0
 45 44  1  0
 47 50  1  1
 47 48  1  0
 49 47  1  0
 52 51  1  0
 53 54  1  0
 54 55  2  0
 55 64  1  0
 56 62  1  0
 56 64  1  0
 57 62  1  0
 58 59  1  0
 58 57  1  0
 60 59  1  0
 60 69  1  0
 60 61  1  0
 62 61  1  0
 63 56  2  0
 64 65  1  0
 66 67  2  0
 67 86  1  0
 68 67  1  0
 68 71  1  0
 69 70  1  0
 69 66  1  0
 70 68  2  0
 71 72  1  0
 72 73  2  0
 74 77  1  0
 74 73  1  0
 75 74  2  0
 76 75  1  0
 76 71  2  0
 77 78  1  0
 78 79  1  0
 79 80  2  0
 81 80  1  0
 81 85  1  0
 82 81  2  0
 83 78  2  0
 83 82  1  0
 84 83  1  0
 86 87  1  0
 87 90  1  0
 87 89  1  0
 88 86  2  0
 91 92  1  0
 91 66  1  0
 93 91  1  0
M  ISO  4   8 101  10 101  56 100  64 100
M  END
>  <TORSDO>  (86) 
F 21

>  <SCORE>  (86) 
-12.624

>  <name>  (86) 
85

>  <ligand_id>  (86) 
85

>  <original_smiles>  (86) 
[H]C1=C([H])C2(C([H])([H])C([H])([H])C([H])([H])N([H])C(=O)N3C([H])([H])C([H])([H])C([H])([H])C([H])(n4nc(-c5c([H])c([H])c(Oc6c([H])c([H])c(F)c([H])c6F)c([H])c5[H])c(C(=O)N([H])[H])c4N([H])[H])C3([H])[H])C(C(=O)Oc3c([H])c([H])c4c(c3[H])C([H])([H])N(C(=O)C([H])(N([H])C(=O)C([H])(N([H])C([H])([H])[H])C([H])([H])[H])C(C([H])([H])[H])(C([H])([H])[H])C([H])([H])[H])C([H])(C(=O)N([H])C3([H])c5c([H])c([H])c([H])c([H])c5C([H])([H])C([H])([H])C3([H])[H])C4([H])[H])=C([H])C1(C([H])([H])C([H])([H])[H])C2([H])[H]

>  <smiles>  (86) 
[H]C1=C([H])C2(C([H])([H])C([H])([H])C([H])([H])N([H])C(=O)N3C([H])([H])C([H])([H])C([H])([H])C([H])(n4nc(-c5c([H])c([H])c(Oc6c([H])c([H])c(F)c([H])c6F)c([H])c5[H])c(C(=O)N([H])[H])c4N([H])[H])C3([H])[H])C(C(=O)Oc3c([H])c([H])c4c(c3[H])C([H])([H])N(C(=O)C([H])(N([H])C(=O)C([H])(N([H])C([H])([H])[H])C([H])([H])[H])C(C([H])([H])[H])(C([H])([H])[H])C([H])([H])[H])C([H])(C(=O)N([H])C3([H])c5c([H])c([H])c([H])c([H])c5C([H])([H])C([H])([H])C3([H])[H])C4([H])[H])=C([H])C1(C([H])([H])C([H])([H])[H])C2([H])[H]

$$$$
86:0:0
     RDKit          3D

 90 98  0  0  1  0  0  0  0  0999 V2000
  -27.5860  -21.4880   20.2690 C   0  0  0  0  0  3  0  0  0  0  0  0
  -27.1560  -20.1500   20.1630 C   0  0  0  0  0  3  0  0  0  0  0  0
  -29.8530  -20.6350   20.2700 C   0  0  0  0  0  3  0  0  0  0  0  0
  -28.9490  -21.8250   20.3340 C   0  0  0  0  0  0  0  0  0  0  0  0
  -28.0390  -19.0430   20.1020 C   0  0  0  0  0  0  0  0  0  0  0  0
  -29.4500  -19.1980   20.1500 C   0  0  0  0  0  0  0  0  0  0  0  0
  -27.4090  -17.6810   19.9670 C   0  0  0  0  0  1  0  0  0  0  0  0
  -30.0020  -23.5880   21.8950 C   0  0  0  0  0  1  0  0  0  0  0  0
  -29.3200  -23.4320   20.5300 C   0  0  0  0  0  3  0  0  0  0  0  0
  -28.2240  -24.7190   20.3620 C   0  0  0  0  0  2  0  0  0  0  0  0
  -28.4850  -26.2580   20.5000 O   0  0  0  0  0  0  0  0  0  0  0  0
  -24.7620  -31.9410   23.4050 C   0  0  0  0  0  0  0  0  0  0  0  0
  -27.4260  -27.2410   20.4170 C   0  0  0  0  0  0  0  0  0  0  0  0
  -23.6150  -30.5720   21.7090 C   0  0  0  0  0  3  0  0  0  0  0  0
  -25.1050  -29.0030   20.3190 C   0  0  0  0  0  0  0  0  0  0  0  0
  -26.1760  -30.8210   21.6390 C   0  0  0  0  0  2  0  0  0  0  0  0
  -26.2650  -29.4360   20.9740 C   0  0  0  0  0  0  0  0  0  0  0  0
  -27.4270  -28.5730   21.0030 C   0  0  0  0  0  3  0  0  0  0  0  0
  -26.2390  -26.9130   19.7260 C   0  0  0  0  0  3  0  0  0  0  0  0
  -25.1070  -27.7560   19.6790 C   0  0  0  0  0  3  0  0  0  0  0  0
  -23.8850  -29.9120   20.3310 C   0  0  0  0  0  2  0  0  0  0  0  0
  -24.8690  -31.1330   22.3070 N   0  0  0  0  0  0  0  0  0  0  0  0
  -23.6610  -32.2260   23.8970 O   0  0  0  0  0  0  0  0  0  0  0  0
  -22.8950  -29.5580   22.6340 C   0  0  0  0  0  0  0  0  0  0  0  0
  -21.5690  -29.4000   22.4620 N   0  0  0  0  0  0  0  0  0  0  0  0
  -23.5330  -28.9140   23.4700 O   0  0  0  0  0  0  0  0  0  0  0  0
  -21.1110  -29.9640   21.7590 H   0  0  0  0  0  0  0  0  0  0  0  0
  -18.1540  -28.2740   22.8840 C   0  0  0  0  0  0  0  0  0  0  0  0
  -20.7150  -28.4590   23.1940 C   0  0  0  0  0  3  0  0  0  0  0  0
  -20.7880  -27.0430   22.5770 C   0  0  0  0  0  2  0  0  0  0  0  0
  -19.6920  -26.7750   21.5400 C   0  0  0  0  0  2  0  0  0  0  0  0
  -18.3020  -26.9470   22.1600 C   0  0  0  0  0  2  0  0  0  0  0  0
  -19.2870  -28.9910   23.3540 C   0  0  0  0  0  0  0  0  0  0  0  0
  -19.0910  -30.2350   23.9930 C   0  0  0  0  0  3  0  0  0  0  0  0
  -17.7980  -30.7640   24.1590 C   0  0  0  0  0  3  0  0  0  0  0  0
  -16.6810  -30.0450   23.7040 C   0  0  0  0  0  3  0  0  0  0  0  0
  -16.8600  -28.8000   23.0740 C   0  0  0  0  0  3  0  0  0  0  0  0
  -26.0210  -32.5630   24.0860 C   0  0  0  0  0  3  0  0  0  0  0  0
  -26.4460  -31.8100   25.4070 C   0  0  1  0  0  0  0  0  0  0  0  0
  -25.2860  -31.6080   26.4100 C   0  0  0  0  0  1  0  0  0  0  0  0
  -27.0310  -30.4160   25.0810 C   0  0  0  0  0  1  0  0  0  0  0  0
  -27.5670  -32.5990   26.1210 C   0  0  0  0  0  1  0  0  0  0  0  0
  -25.7220  -33.9740   24.3760 N   0  0  0  0  0  0  0  0  0  0  0  0
  -26.0830  -35.0070   23.6030 C   0  0  0  0  0  0  0  0  0  0  0  0
  -26.7670  -34.8690   22.5840 O   0  0  0  0  0  0  0  0  0  0  0  0
  -25.1160  -34.1550   25.1630 H   0  0  0  0  0  0  0  0  0  0  0  0
  -24.3800  -36.8150   23.1950 C   0  0  0  0  0  1  0  0  0  0  0  0
  -25.6130  -36.4130   24.0230 C   0  0  0  0  0  3  0  0  0  0  0  0
  -27.7470  -37.3020   24.8480 C   0  0  0  0  0  1  0  0  0  0  0  0
  -26.6590  -37.4510   23.8860 N   0  0  0  0  0  0  0  0  0  0  0  0
  -26.2630  -38.3800   23.9950 H   0  0  0  0  0  0  0  0  0  0  0  0
  -30.4600  -17.8660   20.0740 C   0  0  0  0  0  2  0  0  0  0  0  0
  -30.9000  -15.1300   20.0700 C   0  0  0  0  0  0  0  0  0  0  0  0
  -30.7930  -12.7530   19.1780 C   0  0  0  0  0  2  0  0  0  0  0  0
  -29.8240  -12.6620   17.9770 C   0  0  0  0  0  2  0  0  0  0  0  0
  -28.3840  -12.4180   18.4630 C   0  0  0  0  0  2  0  0  0  0  0  0
  -27.9890  -13.3520   19.6360 C   0  0  0  0  0  3  0  0  0  0  0  0
  -29.0800  -13.4250   20.7270 C   0  0  0  0  0  2  0  0  0  0  0  0
  -30.3190  -13.8570   20.0670 N   0  0  0  0  0  0  0  0  0  0  0  0
  -32.0810  -15.2020   19.7200 O   0  0  0  0  0  0  0  0  0  0  0  0
  -30.1290  -16.3170   20.2630 N   0  0  0  0  0  0  0  0  0  0  0  0
  -29.1820  -16.1350   20.5550 H   0  0  0  0  0  0  0  0  0  0  0  0
  -25.6310  -13.8700   20.4880 C   0  0  0  0  0  0  0  0  0  0  0  0
  -24.5960  -13.0800   20.8940 C   0  0  0  0  0  0  0  0  0  0  0  0
  -25.0700  -11.7370   20.7930 C   0  0  0  0  0  0  0  0  0  0  0  0
  -26.6760  -13.0180   20.1820 N   0  0  0  0  0  0  0  0  0  0  0  0
  -26.3480  -11.7230   20.4250 N   0  0  0  0  0  0  0  0  0  0  0  0
  -24.3570  -10.4670   20.9660 C   0  0  0  0  0  0  0  0  0  0  0  0
  -24.7380   -9.5340   21.9530 C   0  0  0  0  0  3  0  0  0  0  0  0
  -24.0200   -8.3290   22.1120 C   0  0  0  0  0  3  0  0  0  0  0  0
  -22.9080   -8.0510   21.2820 C   0  0  0  0  0  0  0  0  0  0  0  0
  -22.5490   -8.9740   20.2840 C   0  0  0  0  0  3  0  0  0  0  0  0
  -23.2680  -10.1690   20.1230 C   0  0  0  0  0  3  0  0  0  0  0  0
  -22.1660   -6.8970   21.3500 O   0  0  0  0  0  0  0  0  0  0  0  0
  -21.9170   -6.2720   22.5460 C   0  0  0  0  0  0  0  0  0  0  0  0
  -21.2350   -6.9220   23.5990 C   0  0  0  0  0  3  0  0  0  0  0  0
  -20.9390   -6.2200   24.7840 C   0  0  0  0  0  3  0  0  0  0  0  0
  -21.3140   -4.8700   24.9170 C   0  0  0  0  0  0  0  0  0  0  0  0
  -21.9880   -4.2200   23.8680 C   0  0  0  0  0  3  0  0  0  0  0  0
  -22.2870   -4.9190   22.6850 C   0  0  0  0  0  0  0  0  0  0  0  0
  -22.9170   -4.2820   21.6690 F   0  0  0  0  0  0  0  0  0  0  0  0
  -21.0220   -4.1920   26.0520 F   0  0  0  0  0  0  0  0  0  0  0  0
  -23.2100  -13.5420   21.2420 C   0  0  0  0  0  0  0  0  0  0  0  0
  -22.5290  -12.8220   22.1250 N   0  0  0  0  0  0  0  0  0  0  0  0
  -22.7440  -14.5780   20.7670 O   0  0  0  0  0  0  0  0  0  0  0  0
  -22.9190  -11.9830   22.5280 H   0  0  0  0  0  0  0  0  0  0  0  0
  -21.6030  -13.1140   22.4020 H   0  0  0  0  0  0  0  0  0  0  0  0
  -25.7490  -15.2390   20.3200 N   0  0  0  0  0  0  0  0  0  0  0  0
  -24.9440  -15.8470   20.4210 H   0  0  0  0  0  0  0  0  0  0  0  0
  -26.5200  -15.6780   19.8360 H   0  0  0  0  0  0  0  0  0  0  0  0
  1  4  1  0
  2  1  2  0
  3  4  2  0
  4  9  1  0
  5  6  2  0
  5  2  1  0
  6  3  1  0
  7  5  1  0
  9  8  1  0
 10 11  1  0
 10  9  1  0
 12 23  2  0
 13 11  1  0
 13 18  1  0
 14 22  1  0
 14 24  1  0
 15 21  1  0
 15 17  1  0
 16 22  1  0
 17 18  2  0
 17 16  1  0
 19 13  2  0
 20 19  1  0
 20 15  2  0
 21 14  1  0
 22 12  1  0
 24 26  2  0
 25 24  1  0
 27 25  1  0
 28 37  2  0
 28 33  1  0
 29 25  1  0
 29 33  1  0
 30 29  1  0
 31 32  1  0
 31 30  1  0
 32 28  1  0
 33 34  2  0
 34 35  1  0
 36 35  2  0
 37 36  1  0
 38 12  1  0
 38 43  1  0
 38 39  1  0
 39 42  1  1
 39 40  1  0
 41 39  1  0
 43 46  1  0
 44 48  1  0
 44 43  1  0
 45 44  2  0
 48 47  1  0
 50 51  1  0
 50 48  1  0
 50 49  1  0
 52  6  1  0
 52 61  1  0
 53 61  1  0
 54 59  1  0
 55 56  1  0
 55 54  1  0
 57 56  1  0
 57 66  1  0
 57 58  1  0
 59 53  1  0
 59 58  1  0
 60 53  2  0
 61 62  1  0
 63 64  2  0
 64 83  1  0
 65 64  1  0
 65 68  1  0
 66 67  1  0
 66 63  1  0
 67 65  2  0
 68 69  1  0
 69 70  2  0
 71 74  1  0
 71 70  1  0
 72 71  2  0
 73 72  1  0
 73 68  2  0
 74 75  1  0
 75 80  2  0
 75 76  1  0
 76 77  2  0
 77 78  1  0
 78 82  1  0
 79 78  2  0
 80 79  1  0
 81 80  1  0
 83 84  1  0
 84 87  1  0
 84 86  1  0
 85 83  2  0
 88 89  1  0
 88 63  1  0
 90 88  1  0
M  ISO  4  10 101  11 101  53 100  61 100
M  END
>  <TORSDO>  (87) 
F 19

>  <SCORE>  (87) 
-13.719

>  <name>  (87) 
86

>  <ligand_id>  (87) 
86

>  <original_smiles>  (87) 
[H]c1c([H])c([H])c2c(c1[H])C([H])([H])C([H])([H])C([H])([H])C2([H])N([H])C(=O)C1([H])N(C(=O)C([H])(N([H])C(=O)C([H])(N([H])C([H])([H])[H])C([H])([H])[H])C(C([H])([H])[H])(C([H])([H])[H])C([H])([H])[H])C([H])([H])c2c([H])c(OC([H])([H])C([H])(c3c([H])c([H])c(C([H])([H])[H])c(C([H])([H])N([H])C(=O)N4C([H])([H])C([H])([H])C([H])([H])C([H])(n5nc(-c6c([H])c([H])c(Oc7c([H])c([H])c(F)c([H])c7F)c([H])c6[H])c(C(=O)N([H])[H])c5N([H])[H])C4([H])[H])c3[H])C([H])([H])[H])c([H])c([H])c2C1([H])[H]

>  <smiles>  (87) 
[H]c1c([H])c([H])c2c(c1[H])C([H])([H])C([H])([H])C([H])([H])C2([H])N([H])C(=O)C1([H])N(C(=O)C([H])(N([H])C(=O)C([H])(N([H])C([H])([H])[H])C([H])([H])[H])C(C([H])([H])[H])(C([H])([H])[H])C([H])([H])[H])C([H])([H])c2c([H])c(OC([H])([H])C([H])(c3c([H])c([H])c(C([H])([H])[H])c(C([H])([H])N([H])C(=O)N4C([H])([H])C([H])([H])C([H])([H])C([H])(n5nc(-c6c([H])c([H])c(Oc7c([H])c([H])c(F)c([H])c7F)c([H])c6[H])c(C(=O)N([H])[H])c5N([H])[H])C4([H])[H])c3[H])C([H])([H])[H])c([H])c([H])c2C1([H])[H]

$$$$
87:0:0
     RDKit          3D

 92100  0  0  1  0  0  0  0  0999 V2000
  -27.1610  -20.7340   19.5000 C   0  0  0  0  0  3  0  0  0  0  0  0
  -29.5860  -21.3440   20.6970 C   0  0  0  0  0  3  0  0  0  0  0  0
  -27.4180  -22.0720   19.8580 C   0  0  0  0  0  0  0  0  0  0  0  0
  -28.0790  -19.6920   19.7270 C   0  0  0  0  0  0  0  0  0  0  0  0
  -28.6590  -22.4440   20.4430 C   0  0  0  0  0  0  0  0  0  0  0  0
  -29.3280  -19.9470   20.3510 C   0  0  0  0  0  0  0  0  0  0  0  0
  -26.2920  -23.0580   19.5910 C   0  0  0  0  0  1  0  0  0  0  0  0
  -28.2450  -18.0100   17.8360 C   0  0  0  0  0  1  0  0  0  0  0  0
  -27.6780  -18.3090   19.2300 C   0  0  0  0  0  2  0  0  0  0  0  0
  -30.3790  -18.7440   20.4600 C   0  0  0  0  0  2  0  0  0  0  0  0
  -30.1680  -17.4770   21.4380 C   0  0  0  0  0  2  0  0  0  0  0  0
  -30.8090  -14.9850   20.6460 C   0  0  0  0  0  0  0  0  0  0  0  0
  -30.6610  -12.7960   19.4380 C   0  0  0  0  0  2  0  0  0  0  0  0
  -29.7350  -12.9540   18.2090 C   0  0  0  0  0  2  0  0  0  0  0  0
  -28.2540  -12.7650   18.6000 C   0  0  0  0  0  2  0  0  0  0  0  0
  -27.8620  -13.5620   19.8730 C   0  0  0  0  0  3  0  0  0  0  0  0
  -28.8980  -13.3570   20.9980 C   0  0  0  0  0  2  0  0  0  0  0  0
  -30.2060  -13.7630   20.4600 N   0  0  0  0  0  0  0  0  0  0  0  0
  -32.0090  -15.1410   20.3980 O   0  0  0  0  0  0  0  0  0  0  0  0
  -29.9730  -16.0490   20.9290 N   0  0  0  0  0  0  0  0  0  0  0  0
  -29.0100  -15.7530   20.9640 H   0  0  0  0  0  0  0  0  0  0  0  0
  -25.4460  -14.1160   20.5380 C   0  0  0  0  0  0  0  0  0  0  0  0
  -24.3770  -13.3240   20.8580 C   0  0  0  0  0  0  0  0  0  0  0  0
  -24.8560  -11.9800   20.8120 C   0  0  0  0  0  0  0  0  0  0  0  0
  -26.5060  -13.2520   20.3150 N   0  0  0  0  0  0  0  0  0  0  0  0
  -26.1550  -11.9610   20.5420 N   0  0  0  0  0  0  0  0  0  0  0  0
  -24.1350  -10.7070   20.9490 C   0  0  0  0  0  0  0  0  0  0  0  0
  -24.5260   -9.7370   21.8990 C   0  0  0  0  0  3  0  0  0  0  0  0
  -23.8060   -8.5300   22.0250 C   0  0  0  0  0  3  0  0  0  0  0  0
  -22.6830   -8.2840   21.2000 C   0  0  0  0  0  0  0  0  0  0  0  0
  -22.3130   -9.2420   20.2400 C   0  0  0  0  0  3  0  0  0  0  0  0
  -23.0340  -10.4410   20.1120 C   0  0  0  0  0  3  0  0  0  0  0  0
  -21.9400   -7.1280   21.2340 O   0  0  0  0  0  0  0  0  0  0  0  0
  -21.7880   -6.4050   22.3900 C   0  0  0  0  0  0  0  0  0  0  0  0
  -21.1640   -6.9500   23.5340 C   0  0  0  0  0  3  0  0  0  0  0  0
  -20.9650   -6.1480   24.6770 C   0  0  0  0  0  3  0  0  0  0  0  0
  -21.3820   -4.8040   24.6750 C   0  0  0  0  0  0  0  0  0  0  0  0
  -21.9980   -4.2580   23.5350 C   0  0  0  0  0  3  0  0  0  0  0  0
  -22.1990   -5.0560   22.3950 C   0  0  0  0  0  0  0  0  0  0  0  0
  -22.7740   -4.5200   21.2920 F   0  0  0  0  0  0  0  0  0  0  0  0
  -21.1850   -4.0310   25.7690 F   0  0  0  0  0  0  0  0  0  0  0  0
  -22.9670  -13.7820   21.0910 C   0  0  0  0  0  0  0  0  0  0  0  0
  -22.2160  -13.0580   21.9140 N   0  0  0  0  0  0  0  0  0  0  0  0
  -22.5370  -14.8170   20.5830 O   0  0  0  0  0  0  0  0  0  0  0  0
  -22.5760  -12.2210   22.3480 H   0  0  0  0  0  0  0  0  0  0  0  0
  -21.2680  -13.3460   22.1130 H   0  0  0  0  0  0  0  0  0  0  0  0
  -25.5950  -15.4900   20.3940 N   0  0  0  0  0  0  0  0  0  0  0  0
  -24.8050  -16.1190   20.4780 H   0  0  0  0  0  0  0  0  0  0  0  0
  -26.4270  -15.9420   20.0440 H   0  0  0  0  0  0  0  0  0  0  0  0
  -28.8860  -23.9640   20.8980 C   0  0  0  0  0  3  0  0  0  0  0  0
  -28.7710  -25.2150   19.8710 C   0  0  0  0  0  3  0  0  0  0  0  0
  -28.6960  -26.6430   20.3510 O   0  0  0  0  0  0  0  0  0  0  0  0
  -24.7350  -31.9640   23.2910 C   0  0  0  0  0  0  0  0  0  0  0  0
  -27.5380  -27.4580   20.2620 C   0  0  0  0  0  0  0  0  0  0  0  0
  -23.6070  -30.5360   21.6270 C   0  0  0  0  0  3  0  0  0  0  0  0
  -25.1300  -29.0370   20.2190 C   0  0  0  0  0  0  0  0  0  0  0  0
  -26.1410  -30.9220   21.4930 C   0  0  0  0  0  2  0  0  0  0  0  0
  -26.2740  -29.5460   20.8410 C   0  0  0  0  0  0  0  0  0  0  0  0
  -27.4790  -28.7680   20.8520 C   0  0  0  0  0  3  0  0  0  0  0  0
  -26.3590  -27.0170   19.6150 C   0  0  0  0  0  3  0  0  0  0  0  0
  -25.1780  -27.7830   19.5950 C   0  0  0  0  0  3  0  0  0  0  0  0
  -23.8670  -29.8770   20.2500 C   0  0  0  0  0  2  0  0  0  0  0  0
  -24.8460  -31.1580   22.1950 N   0  0  0  0  0  0  0  0  0  0  0  0
  -23.6320  -32.2060   23.8030 O   0  0  0  0  0  0  0  0  0  0  0  0
  -22.9560  -29.4950   22.5700 C   0  0  0  0  0  0  0  0  0  0  0  0
  -21.6460  -29.2520   22.3880 N   0  0  0  0  0  0  0  0  0  0  0  0
  -23.6290  -28.9100   23.4210 O   0  0  0  0  0  0  0  0  0  0  0  0
  -21.1590  -29.7750   21.6730 H   0  0  0  0  0  0  0  0  0  0  0  0
  -18.3030  -27.9300   22.7980 C   0  0  0  0  0  0  0  0  0  0  0  0
  -20.8420  -28.2820   23.1330 C   0  0  0  0  0  3  0  0  0  0  0  0
  -21.0120  -26.8570   22.5560 C   0  0  0  0  0  2  0  0  0  0  0  0
  -19.9480  -26.4980   21.5130 C   0  0  0  0  0  2  0  0  0  0  0  0
  -18.5460  -26.5920   22.1210 C   0  0  0  0  0  2  0  0  0  0  0  0
  -19.3810  -28.7300   23.2600 C   0  0  0  0  0  0  0  0  0  0  0  0
  -19.1020  -29.9820   23.8500 C   0  0  0  0  0  3  0  0  0  0  0  0
  -17.7770  -30.4370   23.9810 C   0  0  0  0  0  3  0  0  0  0  0  0
  -16.7110  -29.6320   23.5390 C   0  0  0  0  0  3  0  0  0  0  0  0
  -16.9750  -28.3810   22.9530 C   0  0  0  0  0  3  0  0  0  0  0  0
  -25.9850  -32.6330   23.9420 C   0  0  0  0  0  3  0  0  0  0  0  0
  -25.6350  -34.0280   24.2380 N   0  0  0  0  0  0  0  0  0  0  0  0
  -25.9660  -35.0760   23.4720 C   0  0  0  0  0  0  0  0  0  0  0  0
  -26.6660  -34.9700   22.4610 O   0  0  0  0  0  0  0  0  0  0  0  0
  -25.0100  -34.1800   25.0160 H   0  0  0  0  0  0  0  0  0  0  0  0
  -24.2120  -36.8260   23.0450 C   0  0  0  0  0  1  0  0  0  0  0  0
  -25.4410  -36.4610   23.8930 C   0  0  0  0  0  3  0  0  0  0  0  0
  -27.5270  -37.4100   24.7750 C   0  0  0  0  0  1  0  0  0  0  0  0
  -26.4560  -37.5340   23.7890 N   0  0  0  0  0  0  0  0  0  0  0  0
  -26.0270  -38.4480   23.9020 H   0  0  0  0  0  0  0  0  0  0  0  0
  -26.4750  -31.8940   25.2470 C   0  0  1  0  0  0  0  0  0  0  0  0
  -25.3390  -31.5900   26.2530 C   0  0  0  0  0  1  0  0  0  0  0  0
  -27.1590  -30.5540   24.8900 C   0  0  0  0  0  1  0  0  0  0  0  0
  -27.5440  -32.7520   25.9660 C   0  0  0  0  0  1  0  0  0  0  0  0
  1  4  2  0
  1  3  1  0
  3  5  2  0
  4  6  1  0
  5  2  1  0
  5 50  1  0
  6 10  1  0
  6  2  2  0
  7  3  1  0
  8  9  1  0
  9  4  1  0
 10 11  1  0
 12 20  1  0
 13 18  1  0
 14 15  1  0
 14 13  1  0
 16 15  1  0
 16 25  1  0
 16 17  1  0
 18 12  1  0
 18 17  1  0
 19 12  2  0
 20 21  1  0
 20 11  1  0
 22 23  2  0
 23 42  1  0
 24 23  1  0
 24 27  1  0
 25 22  1  0
 25 26  1  0
 26 24  2  0
 27 28  1  0
 28 29  2  0
 30 33  1  0
 30 29  1  0
 31 30  2  0
 32 31  1  0
 32 27  2  0
 33 34  1  0
 34 39  2  0
 34 35  1  0
 35 36  2  0
 37 36  1  0
 37 41  1  0
 38 37  2  0
 39 38  1  0
 40 39  1  0
 42 43  1  0
 43 46  1  0
 43 45  1  0
 44 42  2  0
 47 48  1  0
 47 22  1  0
 49 47  1  0
 51 52  1  0
 51 50  2  0
 53 64  2  0
 54 52  1  0
 54 59  1  0
 55 63  1  0
 55 65  1  0
 56 62  1  0
 56 58  1  0
 57 63  1  0
 58 59  2  0
 58 57  1  0
 60 54  2  0
 61 60  1  0
 61 56  2  0
 62 55  1  0
 63 53  1  0
 65 67  2  0
 66 65  1  0
 68 66  1  0
 69 78  2  0
 69 74  1  0
 70 66  1  0
 70 74  1  0
 71 70  1  0
 72 73  1  0
 72 71  1  0
 73 69  1  0
 74 75  2  0
 75 76  1  0
 77 76  2  0
 78 77  1  0
 79 53  1  0
 79 80  1  0
 79 89  1  0
 80 83  1  0
 81 85  1  0
 81 80  1  0
 82 81  2  0
 85 84  1  0
 87 85  1  0
 87 88  1  0
 87 86  1  0
 89 92  1  1
 89 90  1  0
 91 89  1  0
M  ISO  4  12 100  20 100  51 101  52 101
M  END
>  <TORSDO>  (88) 
F 21

>  <SCORE>  (88) 
-13.401

>  <name>  (88) 
87

>  <ligand_id>  (88) 
87

>  <original_smiles>  (88) 
[H]c1c([H])c([H])c2c(c1[H])C([H])([H])C([H])([H])C([H])([H])C2([H])N([H])C(=O)C1([H])N(C(=O)C([H])(N([H])C(=O)C([H])(N([H])C([H])([H])[H])C([H])([H])[H])C(C([H])([H])[H])(C([H])([H])[H])C([H])([H])[H])C([H])([H])c2c([H])c(OC([H])([H])C([H])([H])c3c([H])c(C([H])([H])C([H])([H])N([H])C(=O)N4C([H])([H])C([H])([H])C([H])([H])C([H])(n5nc(-c6c([H])c([H])c(Oc7c([H])c([H])c(F)c([H])c7F)c([H])c6[H])c(C(=O)N([H])[H])c5N([H])[H])C4([H])[H])c(C([H])([H])C([H])([H])[H])c([H])c3C([H])([H])[H])c([H])c([H])c2C1([H])[H]

>  <smiles>  (88) 
[H]c1c([H])c([H])c2c(c1[H])C([H])([H])C([H])([H])C([H])([H])C2([H])N([H])C(=O)C1([H])N(C(=O)C([H])(N([H])C(=O)C([H])(N([H])C([H])([H])[H])C([H])([H])[H])C(C([H])([H])[H])(C([H])([H])[H])C([H])([H])[H])C([H])([H])c2c([H])c(OC([H])([H])C([H])([H])c3c([H])c(C([H])([H])C([H])([H])N([H])C(=O)N4C([H])([H])C([H])([H])C([H])([H])C([H])(n5nc(-c6c([H])c([H])c(Oc7c([H])c([H])c(F)c([H])c7F)c([H])c6[H])c(C(=O)N([H])[H])c5N([H])[H])C4([H])[H])c(C([H])([H])C([H])([H])[H])c([H])c3C([H])([H])[H])c([H])c([H])c2C1([H])[H]

$$$$
88:0:0
     RDKit          3D

 95102  0  0  1  0  0  0  0  0999 V2000
  -29.8930  -21.1880   20.5600 C   0  0  0  0  0  2  0  0  0  0  0  0
  -28.7770  -22.1330   20.7070 N   0  0  0  0  0  4  0  0  0  0  0  0
  -27.9740  -21.6210   21.0350 H   0  0  0  0  0  0  0  0  0  0  0  0
  -28.4930  -22.5130   19.8180 H   0  0  0  0  0  0  0  0  0  0  0  0
  -29.0560  -23.2010   21.6800 C   0  0  0  0  0  2  0  0  0  0  0  0
  -29.4280  -24.6060   21.1090 C   0  0  0  0  0  2  0  0  0  0  0  0
  -28.2420  -25.3960   20.4990 C   0  0  0  0  0  2  0  0  0  0  0  0
  -28.4550  -26.8230   20.4430 O   0  0  0  0  0  0  0  0  0  0  0  0
  -24.6170  -32.0090   23.4590 C   0  0  0  0  0  0  0  0  0  0  0  0
  -27.3030  -27.5900   20.3790 C   0  0  0  0  0  0  0  0  0  0  0  0
  -23.4380  -30.6330   21.7770 C   0  0  0  0  0  3  0  0  0  0  0  0
  -24.9140  -29.1150   20.3550 C   0  0  0  0  0  0  0  0  0  0  0  0
  -25.9690  -30.9880   21.6300 C   0  0  0  0  0  2  0  0  0  0  0  0
  -26.0640  -29.6260   20.9710 C   0  0  0  0  0  0  0  0  0  0  0  0
  -27.2630  -28.8730   20.9770 C   0  0  0  0  0  3  0  0  0  0  0  0
  -26.1350  -27.1070   19.7410 C   0  0  0  0  0  3  0  0  0  0  0  0
  -24.9460  -27.8560   19.7330 C   0  0  0  0  0  3  0  0  0  0  0  0
  -23.6710  -29.9740   20.3920 C   0  0  0  0  0  2  0  0  0  0  0  0
  -24.6930  -31.2230   22.3480 N   0  0  0  0  0  0  0  0  0  0  0  0
  -23.5260  -32.2760   23.9840 O   0  0  0  0  0  0  0  0  0  0  0  0
  -22.7670  -29.5990   22.7110 C   0  0  0  0  0  0  0  0  0  0  0  0
  -21.4570  -29.3790   22.5170 N   0  0  0  0  0  0  0  0  0  0  0  0
  -23.4260  -29.0000   23.5650 O   0  0  0  0  0  0  0  0  0  0  0  0
  -20.9890  -29.9190   21.8020 H   0  0  0  0  0  0  0  0  0  0  0  0
  -18.1020  -28.0710   22.8290 C   0  0  0  0  0  0  0  0  0  0  0  0
  -20.6270  -28.4250   23.2520 C   0  0  0  0  0  3  0  0  0  0  0  0
  -20.8150  -26.9890   22.7080 C   0  0  0  0  0  2  0  0  0  0  0  0
  -19.7890  -26.6130   21.6340 C   0  0  0  0  0  2  0  0  0  0  0  0
  -18.3660  -26.7180   22.1890 C   0  0  0  0  0  2  0  0  0  0  0  0
  -19.1650  -28.8790   23.3140 C   0  0  0  0  0  0  0  0  0  0  0  0
  -18.8670  -30.1420   23.8670 C   0  0  0  0  0  3  0  0  0  0  0  0
  -17.5400  -30.6000   23.9440 C   0  0  0  0  0  3  0  0  0  0  0  0
  -16.4890  -29.7910   23.4770 C   0  0  0  0  0  3  0  0  0  0  0  0
  -16.7710  -28.5280   22.9250 C   0  0  0  0  0  3  0  0  0  0  0  0
  -25.8930  -32.6290   24.1100 C   0  0  0  0  0  3  0  0  0  0  0  0
  -26.3660  -31.8600   25.4050 C   0  0  1  0  0  0  0  0  0  0  0  0
  -25.2360  -31.6180   26.4320 C   0  0  0  0  0  1  0  0  0  0  0  0
  -26.9680  -30.4850   25.0310 C   0  0  0  0  0  1  0  0  0  0  0  0
  -27.4870  -32.6600   26.1090 C   0  0  0  0  0  1  0  0  0  0  0  0
  -25.5930  -34.0330   24.4230 N   0  0  0  0  0  0  0  0  0  0  0  0
  -25.9500  -35.0750   23.6580 C   0  0  0  0  0  0  0  0  0  0  0  0
  -26.6390  -34.9540   22.6410 O   0  0  0  0  0  0  0  0  0  0  0  0
  -24.9910  -34.2020   25.2140 H   0  0  0  0  0  0  0  0  0  0  0  0
  -24.2420  -36.8770   23.2560 C   0  0  0  0  0  1  0  0  0  0  0  0
  -25.4670  -36.4720   24.0920 C   0  0  0  0  0  3  0  0  0  0  0  0
  -27.5920  -37.3510   24.9500 C   0  0  0  0  0  1  0  0  0  0  0  0
  -26.5100  -37.5150   23.9840 N   0  0  0  0  0  0  0  0  0  0  0  0
  -26.1090  -38.4410   24.1110 H   0  0  0  0  0  0  0  0  0  0  0  0
  -29.7150  -20.1620   19.3990 C   0  0  0  0  0  2  0  0  0  0  0  0
  -28.6040  -19.0830   19.5480 C   0  0  0  0  0  2  0  0  0  0  0  0
  -28.8170  -18.0330   20.6670 C   0  0  0  0  0  2  0  0  0  0  0  0
  -29.9750  -17.0180   20.4290 C   0  0  0  0  0  3  0  0  0  0  0  0
  -30.1520  -14.6340   19.7300 C   0  0  0  0  0  0  0  0  0  0  0  0
  -29.9580  -12.3520   18.8140 C   0  0  0  0  0  2  0  0  0  0  0  0
  -28.9090  -12.3420   17.6850 C   0  0  0  0  0  2  0  0  0  0  0  0
  -27.4980  -12.1100   18.2570 C   0  0  0  0  0  2  0  0  0  0  0  0
  -27.1780  -13.0390   19.4600 C   0  0  0  0  0  3  0  0  0  0  0  0
  -28.3360  -13.0440   20.4830 C   0  0  0  0  0  2  0  0  0  0  0  0
  -29.5720  -13.4030   19.7700 N   0  0  0  0  0  0  0  0  0  0  0  0
  -31.1920  -14.8590   19.1070 O   0  0  0  0  0  0  0  0  0  0  0  0
  -29.4740  -15.6360   20.3180 N   0  0  0  0  0  0  0  0  0  0  0  0
  -28.6310  -15.4000   20.8170 H   0  0  0  0  0  0  0  0  0  0  0  0
  -24.8450  -13.5040   20.4400 C   0  0  0  0  0  0  0  0  0  0  0  0
  -23.8680  -12.6710   20.9160 C   0  0  0  0  0  0  0  0  0  0  0  0
  -24.3960  -11.3460   20.8140 C   0  0  0  0  0  0  0  0  0  0  0  0
  -25.9040  -12.6840   20.0820 N   0  0  0  0  0  0  0  0  0  0  0  0
  -25.6440  -11.3810   20.3630 N   0  0  0  0  0  0  0  0  0  0  0  0
  -23.7640  -10.0450   21.0670 C   0  0  0  0  0  0  0  0  0  0  0  0
  -24.2820   -9.1470   22.0280 C   0  0  0  0  0  3  0  0  0  0  0  0
  -23.6460   -7.9100   22.2660 C   0  0  0  0  0  3  0  0  0  0  0  0
  -22.4800   -7.5600   21.5440 C   0  0  0  0  0  0  0  0  0  0  0  0
  -21.9830   -8.4470   20.5740 C   0  0  0  0  0  3  0  0  0  0  0  0
  -22.6200   -9.6760   20.3330 C   0  0  0  0  0  3  0  0  0  0  0  0
  -21.8110   -6.3690   21.6910 O   0  0  0  0  0  0  0  0  0  0  0  0
  -21.7730   -5.7070   22.8920 C   0  0  0  0  0  0  0  0  0  0  0  0
  -21.2380   -6.3030   24.0550 C   0  0  0  0  0  3  0  0  0  0  0  0
  -21.1550   -5.5620   25.2520 C   0  0  0  0  0  3  0  0  0  0  0  0
  -21.5980   -4.2270   25.2860 C   0  0  0  0  0  0  0  0  0  0  0  0
  -22.1260   -3.6300   24.1270 C   0  0  0  0  0  3  0  0  0  0  0  0
  -22.2110   -4.3670   22.9330 C   0  0  0  0  0  0  0  0  0  0  0  0
  -22.7010   -3.7810   21.8150 F   0  0  0  0  0  0  0  0  0  0  0  0
  -21.5110   -3.5130   26.4320 F   0  0  0  0  0  0  0  0  0  0  0  0
  -22.4870  -13.0680   21.3500 C   0  0  0  0  0  0  0  0  0  0  0  0
  -21.9030  -12.3290   22.2880 N   0  0  0  0  0  0  0  0  0  0  0  0
  -21.9360  -14.0680   20.8940 O   0  0  0  0  0  0  0  0  0  0  0  0
  -22.3640  -11.5210   22.6780 H   0  0  0  0  0  0  0  0  0  0  0  0
  -20.9820  -12.5770   22.6210 H   0  0  0  0  0  0  0  0  0  0  0  0
  -24.9150  -14.8820   20.2630 N   0  0  0  0  0  0  0  0  0  0  0  0
  -24.1290  -15.4930   20.4620 H   0  0  0  0  0  0  0  0  0  0  0  0
  -25.6980  -15.3690   19.8470 H   0  0  0  0  0  0  0  0  0  0  0  0
  -30.9420  -17.0990   21.6240 C   0  0  0  0  0  0  0  0  0  0  0  0
  -31.8600  -18.0540   21.6010 N   0  0  0  0  0  0  0  0  0  0  0  0
  -30.8530  -16.3200   22.5720 O   0  0  0  0  0  0  0  0  0  0  0  0
  -31.9230  -18.6840   20.8140 H   0  0  0  0  0  0  0  0  0  0  0  0
  -32.5090  -18.1610   22.3680 H   0  0  0  0  0  0  0  0  0  0  0  0
  1  2  1  0
  2  3  1  0
  2  5  1  0
  4  2  1  0
  6  5  1  0
  7  6  1  0
  8  7  1  0
  9 20  2  0
 10  8  1  0
 10 15  1  0
 11 19  1  0
 11 21  1  0
 12 18  1  0
 12 14  1  0
 13 19  1  0
 14 15  2  0
 14 13  1  0
 16 10  2  0
 17 16  1  0
 17 12  2  0
 18 11  1  0
 19  9  1  0
 21 23  2  0
 22 21  1  0
 24 22  1  0
 25 34  2  0
 25 30  1  0
 26 22  1  0
 26 30  1  0
 27 26  1  0
 28 29  1  0
 28 27  1  0
 29 25  1  0
 30 31  2  0
 31 32  1  0
 33 32  2  0
 34 33  1  0
 35  9  1  0
 35 40  1  0
 35 36  1  0
 36 39  1  1
 36 37  1  0
 38 36  1  0
 40 43  1  0
 41 45  1  0
 41 40  1  0
 42 41  2  0
 45 44  1  0
 47 45  1  0
 47 48  1  0
 47 46  1  0
 49 50  1  0
 49  1  1  0
 50 51  1  0
 52 51  1  0
 52 91  1  0
 53 59  1  0
 53 61  1  0
 54 59  1  0
 55 56  1  0
 55 54  1  0
 57 56  1  0
 57 66  1  0
 57 58  1  0
 59 58  1  0
 60 53  2  0
 61 52  1  0
 61 62  1  0
 63 64  2  0
 64 83  1  0
 65 64  1  0
 65 68  1  0
 66 67  1  0
 66 63  1  0
 67 65  2  0
 68 69  1  0
 69 70  2  0
 71 74  1  0
 71 70  1  0
 72 71  2  0
 73 72  1  0
 73 68  2  0
 74 75  1  0
 75 80  2  0
 75 76  1  0
 76 77  2  0
 77 78  1  0
 78 82  1  0
 79 78  2  0
 80 79  1  0
 81 80  1  0
 83 84  1  0
 84 87  1  0
 84 86  1  0
 85 83  2  0
 88 63  1  0
 88 89  1  0
 90 88  1  0
 91 93  2  0
 92 91  1  0
 92 95  1  0
 94 92  1  0
M  ISO  4   7 101   8 101  53 100  61 100
M  END
>  <TORSDO>  (89) 
F 25

>  <SCORE>  (89) 
-11.471

>  <name>  (89) 
88

>  <ligand_id>  (89) 
88

>  <original_smiles>  (89) 
[H]c1c([H])c([H])c2c(c1[H])C([H])([H])C([H])([H])C([H])([H])C2([H])N([H])C(=O)C1([H])N(C(=O)C([H])(N([H])C(=O)C([H])(N([H])C([H])([H])[H])C([H])([H])[H])C(C([H])([H])[H])(C([H])([H])[H])C([H])([H])[H])C([H])([H])c2c([H])c(OC([H])([H])C([H])([H])C([H])([H])[N+]([H])([H])C([H])([H])C([H])([H])C([H])([H])C([H])([H])C([H])(C(=O)N([H])[H])N([H])C(=O)N3C([H])([H])C([H])([H])C([H])([H])C([H])(n4nc(-c5c([H])c([H])c(Oc6c([H])c([H])c(F)c([H])c6F)c([H])c5[H])c(C(=O)N([H])[H])c4N([H])[H])C3([H])[H])c([H])c([H])c2C1([H])[H]

>  <smiles>  (89) 
[H]c1c([H])c([H])c2c(c1[H])C([H])([H])C([H])([H])C([H])([H])C2([H])N([H])C(=O)C1([H])N(C(=O)C([H])(N([H])C(=O)C([H])(N([H])C([H])([H])[H])C([H])([H])[H])C(C([H])([H])[H])(C([H])([H])[H])C([H])([H])[H])C([H])([H])c2c([H])c(OC([H])([H])C([H])([H])C([H])([H])[N+]([H])([H])C([H])([H])C([H])([H])C([H])([H])C([H])([H])C([H])(C(=O)N([H])[H])N([H])C(=O)N3C([H])([H])C([H])([H])C([H])([H])C([H])(n4nc(-c5c([H])c([H])c(Oc6c([H])c([H])c(F)c([H])c6F)c([H])c5[H])c(C(=O)N([H])[H])c4N([H])[H])C3([H])[H])c([H])c([H])c2C1([H])[H]

$$$$
89:0:0
     RDKit          3D

 91100  0  0  1  0  0  0  0  0999 V2000
  -30.9690  -19.8400   21.1480 C   0  0  0  0  0  2  0  0  0  0  0  0
  -30.5980  -22.3690   20.2260 C   0  0  0  0  0  2  0  0  0  0  0  0
  -30.7560  -20.8620   20.0160 C   0  0  0  0  0  3  0  0  0  0  0  0
  -29.2400  -20.6710   20.1190 C   0  0  0  0  0  3  0  0  0  0  0  0
  -29.6160  -19.1930   20.8070 C   0  0  0  0  0  3  0  0  0  0  0  0
  -29.1410  -22.2430   20.7280 C   0  0  1  0  0  0  0  0  0  0  0  0
  -29.5950  -23.4110   23.0200 C   0  0  0  0  0  1  0  0  0  0  0  0
  -28.9440  -22.2350   22.2690 C   0  0  0  0  0  2  0  0  0  0  0  0
  -29.7570  -17.7070   20.0780 C   0  0  0  0  0  2  0  0  0  0  0  0
  -29.8110  -16.2700   20.9080 C   0  0  0  0  0  2  0  0  0  0  0  0
  -30.5350  -14.9010   20.3680 C   0  0  0  0  0  0  0  0  0  0  0  0
  -30.3990  -12.5890   19.3590 C   0  0  0  0  0  2  0  0  0  0  0  0
  -29.4700  -12.6160   18.1220 C   0  0  0  0  0  2  0  0  0  0  0  0
  -27.9990  -12.4260   18.5380 C   0  0  0  0  0  2  0  0  0  0  0  0
  -27.6040  -13.3280   19.7390 C   0  0  0  0  0  3  0  0  0  0  0  0
  -28.6500  -13.2510   20.8710 C   0  0  0  0  0  2  0  0  0  0  0  0
  -29.9430  -13.6460   20.3010 N   0  0  0  0  0  0  0  0  0  0  0  0
  -31.6960  -14.9960   19.9540 O   0  0  0  0  0  0  0  0  0  0  0  0
  -25.2050  -13.9180   20.4270 C   0  0  0  0  0  0  0  0  0  0  0  0
  -24.1390  -13.1450   20.7970 C   0  0  0  0  0  0  0  0  0  0  0  0
  -24.6080  -11.7950   20.7930 C   0  0  0  0  0  0  0  0  0  0  0  0
  -26.2560  -13.0390   20.2160 N   0  0  0  0  0  0  0  0  0  0  0  0
  -25.9020  -11.7570   20.5000 N   0  0  0  0  0  0  0  0  0  0  0  0
  -23.8830  -10.5330   20.9950 C   0  0  0  0  0  0  0  0  0  0  0  0
  -24.3130   -9.5750   21.9380 C   0  0  0  0  0  3  0  0  0  0  0  0
  -23.5870   -8.3790   22.1260 C   0  0  0  0  0  3  0  0  0  0  0  0
  -22.4160   -8.1340   21.3710 C   0  0  0  0  0  0  0  0  0  0  0  0
  -22.0050   -9.0810   20.4170 C   0  0  0  0  0  3  0  0  0  0  0  0
  -22.7320  -10.2680   20.2260 C   0  0  0  0  0  3  0  0  0  0  0  0
  -21.6610   -6.9900   21.4690 O   0  0  0  0  0  0  0  0  0  0  0  0
  -21.6190   -6.2520   22.6250 C   0  0  0  0  0  0  0  0  0  0  0  0
  -21.2130   -6.8140   23.8550 C   0  0  0  0  0  3  0  0  0  0  0  0
  -21.1180   -6.0030   25.0030 C   0  0  0  0  0  3  0  0  0  0  0  0
  -21.4200   -4.6290   24.9220 C   0  0  0  0  0  0  0  0  0  0  0  0
  -21.8180   -4.0660   23.6970 C   0  0  0  0  0  3  0  0  0  0  0  0
  -21.9150   -4.8750   22.5520 C   0  0  0  0  0  0  0  0  0  0  0  0
  -22.2810   -4.3230   21.3690 F   0  0  0  0  0  0  0  0  0  0  0  0
  -21.3210   -3.8480   26.0230 F   0  0  0  0  0  0  0  0  0  0  0  0
  -22.7360  -13.6220   21.0440 C   0  0  0  0  0  0  0  0  0  0  0  0
  -21.9990  -12.9390   21.9110 N   0  0  0  0  0  0  0  0  0  0  0  0
  -22.3040  -14.6380   20.5020 O   0  0  0  0  0  0  0  0  0  0  0  0
  -22.3590  -12.1150   22.3700 H   0  0  0  0  0  0  0  0  0  0  0  0
  -21.0610  -13.2460   22.1210 H   0  0  0  0  0  0  0  0  0  0  0  0
  -25.3680  -15.2870   20.2300 N   0  0  0  0  0  0  0  0  0  0  0  0
  -24.5990  -15.9400   20.3310 H   0  0  0  0  0  0  0  0  0  0  0  0
  -26.2220  -15.7260   19.9120 H   0  0  0  0  0  0  0  0  0  0  0  0
  -28.1310  -23.5100   20.2450 C   0  0  0  0  0  3  0  0  0  0  0  0
  -25.6020  -23.2230   19.7600 C   0  0  0  0  0  1  0  0  0  0  0  0
  -27.0390  -23.0030   19.2640 C   0  0  0  0  0  2  0  0  0  0  0  0
  -28.6600  -25.0170   19.7680 C   0  0  0  0  0  2  0  0  0  0  0  0
  -28.4180  -26.4030   20.3600 O   0  0  0  0  0  0  0  0  0  0  0  0
  -24.6600  -31.9070   23.2410 C   0  0  0  0  0  0  0  0  0  0  0  0
  -27.3070  -27.2810   20.2080 C   0  0  0  0  0  0  0  0  0  0  0  0
  -23.4700  -30.4910   21.6050 C   0  0  0  0  0  3  0  0  0  0  0  0
  -24.9370  -28.9320   20.1750 C   0  0  0  0  0  0  0  0  0  0  0  0
  -26.0120  -30.8020   21.4340 C   0  0  0  0  0  2  0  0  0  0  0  0
  -26.1000  -29.4160   20.7840 C   0  0  0  0  0  0  0  0  0  0  0  0
  -27.2800  -28.5990   20.7930 C   0  0  0  0  0  3  0  0  0  0  0  0
  -26.1320  -26.8820   19.5390 C   0  0  0  0  0  3  0  0  0  0  0  0
  -24.9600  -27.6760   19.5390 C   0  0  0  0  0  3  0  0  0  0  0  0
  -23.6930  -29.8050   20.2280 C   0  0  0  0  0  2  0  0  0  0  0  0
  -24.7330  -31.0900   22.1500 N   0  0  0  0  0  0  0  0  0  0  0  0
  -23.5740  -32.1800   23.7740 O   0  0  0  0  0  0  0  0  0  0  0  0
  -22.8080  -29.4810   22.5740 C   0  0  0  0  0  0  0  0  0  0  0  0
  -21.4800  -29.3030   22.4520 N   0  0  0  0  0  0  0  0  0  0  0  0
  -23.4900  -28.8600   23.3940 O   0  0  0  0  0  0  0  0  0  0  0  0
  -20.9890  -29.8520   21.7590 H   0  0  0  0  0  0  0  0  0  0  0  0
  -18.1080  -28.0830   22.9580 C   0  0  0  0  0  0  0  0  0  0  0  0
  -20.6650  -28.3610   23.2240 C   0  0  0  0  0  3  0  0  0  0  0  0
  -20.7780  -26.9290   22.6530 C   0  0  0  0  0  2  0  0  0  0  0  0
  -19.6780  -26.5960   21.6390 C   0  0  0  0  0  2  0  0  0  0  0  0
  -18.2950  -26.7350   22.2830 C   0  0  0  0  0  2  0  0  0  0  0  0
  -19.2230  -28.8540   23.3850 C   0  0  0  0  0  0  0  0  0  0  0  0
  -18.9960  -30.1160   23.9770 C   0  0  0  0  0  3  0  0  0  0  0  0
  -17.6880  -30.6090   24.1410 C   0  0  0  0  0  3  0  0  0  0  0  0
  -16.5880  -29.8350   23.7310 C   0  0  0  0  0  3  0  0  0  0  0  0
  -16.7990  -28.5740   23.1460 C   0  0  0  0  0  3  0  0  0  0  0  0
  -25.9380  -32.5510   23.8640 C   0  0  0  0  0  3  0  0  0  0  0  0
  -25.6140  -33.9460   24.1950 N   0  0  0  0  0  0  0  0  0  0  0  0
  -25.9350  -35.0070   23.4390 C   0  0  0  0  0  0  0  0  0  0  0  0
  -26.5990  -34.9120   22.4040 O   0  0  0  0  0  0  0  0  0  0  0  0
  -25.0150  -34.0910   24.9950 H   0  0  0  0  0  0  0  0  0  0  0  0
  -24.1850  -36.7830   23.1120 C   0  0  0  0  0  1  0  0  0  0  0  0
  -25.4430  -36.3920   23.9040 C   0  0  0  0  0  3  0  0  0  0  0  0
  -27.5840  -37.2960   24.6980 C   0  0  0  0  0  1  0  0  0  0  0  0
  -26.4640  -37.4540   23.7730 N   0  0  0  0  0  0  0  0  0  0  0  0
  -26.0530  -38.3700   23.9250 H   0  0  0  0  0  0  0  0  0  0  0  0
  -26.4590  -31.7850   25.1420 C   0  0  1  0  0  0  0  0  0  0  0  0
  -25.3660  -31.5410   26.2090 C   0  0  0  0  0  1  0  0  0  0  0  0
  -27.0510  -30.4100   24.7550 C   0  0  0  0  0  1  0  0  0  0  0  0
  -27.6070  -32.5870   25.7970 C   0  0  0  0  0  1  0  0  0  0  0  0
  2  6  1  0
  3  4  1  0
  3  2  1  0
  3  1  1  0
  4  6  1  0
  4  5  1  0
  5  1  1  0
  6  8  1  1
  8  7  1  0
  9  5  1  0
  9 10  1  0
 11 10  1  0
 12 17  1  0
 13 14  1  0
 13 12  1  0
 14 15  1  0
 15 22  1  0
 15 16  1  0
 17 11  1  0
 17 16  1  0
 18 11  2  0
 19 20  2  0
 20 39  1  0
 21 20  1  0
 21 24  1  0
 22 19  1  0
 22 23  1  0
 23 21  2  0
 24 25  1  0
 25 26  2  0
 27 30  1  0
 27 26  1  0
 28 27  2  0
 29 28  1  0
 29 24  2  0
 30 31  1  0
 31 32  1  0
 32 33  2  0
 34 33  1  0
 34 38  1  0
 35 34  2  0
 36 31  2  0
 36 35  1  0
 37 36  1  0
 39 40  1  0
 40 43  1  0
 40 42  1  0
 41 39  2  0
 44 45  1  0
 44 19  1  0
 46 44  1  0
 47  6  1  0
 49 48  1  0
 49 47  1  0
 50 47  1  0
 50 51  1  0
 52 63  2  0
 52 78  1  0
 53 51  1  0
 53 58  1  0
 54 62  1  0
 54 64  1  0
 55 61  1  0
 55 57  1  0
 56 62  1  0
 57 58  2  0
 57 56  1  0
 59 53  2  0
 60 59  1  0
 60 55  2  0
 61 54  1  0
 62 52  1  0
 64 66  2  0
 65 64  1  0
 65 69  1  0
 67 65  1  0
 68 77  2  0
 68 73  1  0
 69 73  1  0
 70 69  1  0
 71 72  1  0
 71 70  1  0
 72 68  1  0
 73 74  2  0
 74 75  1  0
 76 75  2  0
 77 76  1  0
 78 79  1  0
 78 88  1  0
 79 82  1  0
 80 84  1  0
 80 79  1  0
 81 80  2  0
 83 84  1  0
 86 84  1  0
 86 87  1  0
 86 85  1  0
 88 91  1  1
 88 89  1  0
 90 88  1  0
M  ISO  4  10 100  11 100  50 101  51 101
M  END
>  <TORSDO>  (90) 
F 22

>  <SCORE>  (90) 
-13.279

>  <name>  (90) 
89

>  <ligand_id>  (90) 
89

>  <original_smiles>  (90) 
[H]c1c([H])c([H])c2c(c1[H])C([H])([H])C([H])([H])C([H])([H])C2([H])N([H])C(=O)C1([H])N(C(=O)C([H])(N([H])C(=O)C([H])(N([H])C([H])([H])[H])C([H])([H])[H])C(C([H])([H])[H])(C([H])([H])[H])C([H])([H])[H])C([H])([H])c2c([H])c(OC([H])([H])C([H])(C([H])([H])C([H])([H])[H])C3(C([H])([H])C([H])([H])[H])C([H])([H])C4([H])C([H])([H])C([H])(C([H])([H])C([H])([H])C(=O)N5C([H])([H])C([H])([H])C([H])([H])C([H])(n6nc(-c7c([H])c([H])c(Oc8c([H])c([H])c(F)c([H])c8F)c([H])c7[H])c(C(=O)N([H])[H])c6N([H])[H])C5([H])[H])C43[H])c([H])c([H])c2C1([H])[H]

>  <smiles>  (90) 
[H]c1c([H])c([H])c2c(c1[H])C([H])([H])C([H])([H])C([H])([H])C2([H])N([H])C(=O)C1([H])N(C(=O)C([H])(N([H])C(=O)C([H])(N([H])C([H])([H])[H])C([H])([H])[H])C(C([H])([H])[H])(C([H])([H])[H])C([H])([H])[H])C([H])([H])c2c([H])c(OC([H])([H])C([H])(C([H])([H])C([H])([H])[H])C3(C([H])([H])C([H])([H])[H])C([H])([H])C4([H])C([H])([H])C([H])(C([H])([H])C([H])([H])C(=O)N5C([H])([H])C([H])([H])C([H])([H])C([H])(n6nc(-c7c([H])c([H])c(Oc8c([H])c([H])c(F)c([H])c8F)c([H])c7[H])c(C(=O)N([H])[H])c6N([H])[H])C5([H])[H])C43[H])c([H])c([H])c2C1([H])[H]

$$$$
90:0:0
     RDKit          3D

 93102  0  0  1  0  0  0  0  0999 V2000
  -29.8440  -22.3420   22.1000 C   0  0  0  0  0  3  0  0  0  0  0  0
  -29.8840  -20.9340   21.9980 C   0  0  0  0  0  3  0  0  0  0  0  0
  -29.0200  -21.0750   19.7320 C   0  0  0  0  0  3  0  0  0  0  0  0
  -29.3630  -23.1350   21.0320 C   0  0  0  0  0  0  0  0  0  0  0  0
  -28.9740  -22.4900   19.8260 C   0  0  0  0  0  0  0  0  0  0  0  0
  -29.4560  -20.2840   20.8200 C   0  0  0  0  0  0  0  0  0  0  0  0
  -29.2750  -24.6270   21.1860 C   0  0  0  0  0  0  0  0  0  0  0  0
  -28.4780  -23.2990   18.6270 C   0  0  0  0  0  2  0  0  0  0  0  0
  -28.7690  -24.8130   18.7300 C   0  0  0  0  0  2  0  0  0  0  0  0
  -28.4240  -25.3580   20.1270 C   0  0  0  0  0  3  0  0  0  0  0  0
  -29.7970  -25.2520   22.1150 O   0  0  0  0  0  0  0  0  0  0  0  0
  -28.5570  -26.8000   20.2240 O   0  0  0  0  0  0  0  0  0  0  0  0
  -24.6880  -31.9640   23.2690 C   0  0  0  0  0  0  0  0  0  0  0  0
  -27.3850  -27.5350   20.1920 C   0  0  0  0  0  0  0  0  0  0  0  0
  -23.5020  -30.5450   21.6290 C   0  0  0  0  0  3  0  0  0  0  0  0
  -24.9740  -29.0300   20.2010 C   0  0  0  0  0  0  0  0  0  0  0  0
  -26.0260  -30.9330   21.4320 C   0  0  0  0  0  2  0  0  0  0  0  0
  -26.1280  -29.5630   20.7890 C   0  0  0  0  0  0  0  0  0  0  0  0
  -27.3370  -28.8250   20.7770 C   0  0  0  0  0  3  0  0  0  0  0  0
  -26.2070  -27.0300   19.5920 C   0  0  0  0  0  3  0  0  0  0  0  0
  -25.0100  -27.7640   19.5990 C   0  0  0  0  0  3  0  0  0  0  0  0
  -23.7190  -29.8720   20.2490 C   0  0  0  0  0  2  0  0  0  0  0  0
  -24.7570  -31.1620   22.1680 N   0  0  0  0  0  0  0  0  0  0  0  0
  -23.6030  -32.2220   23.8070 O   0  0  0  0  0  0  0  0  0  0  0  0
  -22.8660  -29.5130   22.5890 C   0  0  0  0  0  0  0  0  0  0  0  0
  -21.5450  -29.3070   22.4570 N   0  0  0  0  0  0  0  0  0  0  0  0
  -23.5580  -28.9030   23.4080 O   0  0  0  0  0  0  0  0  0  0  0  0
  -21.0470  -29.8530   21.7680 H   0  0  0  0  0  0  0  0  0  0  0  0
  -18.1880  -28.0680   22.9570 C   0  0  0  0  0  0  0  0  0  0  0  0
  -20.7420  -28.3560   23.2270 C   0  0  0  0  0  3  0  0  0  0  0  0
  -20.8620  -26.9280   22.6480 C   0  0  0  0  0  2  0  0  0  0  0  0
  -19.7620  -26.5930   21.6360 C   0  0  0  0  0  2  0  0  0  0  0  0
  -18.3800  -26.7210   22.2810 C   0  0  0  0  0  2  0  0  0  0  0  0
  -19.2970  -28.8430   23.3880 C   0  0  0  0  0  0  0  0  0  0  0  0
  -19.0640  -30.1030   23.9800 C   0  0  0  0  0  3  0  0  0  0  0  0
  -17.7530  -30.5890   24.1470 C   0  0  0  0  0  3  0  0  0  0  0  0
  -16.6580  -29.8100   23.7340 C   0  0  0  0  0  3  0  0  0  0  0  0
  -16.8760  -28.5520   23.1440 C   0  0  0  0  0  3  0  0  0  0  0  0
  -25.9650  -32.6130   23.8870 C   0  0  0  0  0  3  0  0  0  0  0  0
  -26.4840  -31.8620   25.1740 C   0  0  1  0  0  0  0  0  0  0  0  0
  -25.3860  -31.6170   26.2360 C   0  0  0  0  0  1  0  0  0  0  0  0
  -27.0920  -30.4920   24.7970 C   0  0  0  0  0  1  0  0  0  0  0  0
  -27.6170  -32.6810   25.8380 C   0  0  0  0  0  1  0  0  0  0  0  0
  -25.6430  -34.0120   24.1960 N   0  0  0  0  0  0  0  0  0  0  0  0
  -25.9800  -35.0580   23.4290 C   0  0  0  0  0  0  0  0  0  0  0  0
  -26.6650  -34.9470   22.4090 O   0  0  0  0  0  0  0  0  0  0  0  0
  -25.0380  -34.1750   24.9890 H   0  0  0  0  0  0  0  0  0  0  0  0
  -24.2590  -36.8420   23.0120 C   0  0  0  0  0  1  0  0  0  0  0  0
  -25.4760  -36.4470   23.8630 C   0  0  0  0  0  3  0  0  0  0  0  0
  -27.5770  -37.3470   24.7590 C   0  0  0  0  0  1  0  0  0  0  0  0
  -26.5090  -37.5020   23.7750 N   0  0  0  0  0  0  0  0  0  0  0  0
  -26.0950  -38.4210   23.8980 H   0  0  0  0  0  0  0  0  0  0  0  0
  -29.4190  -18.7490   20.7710 C   0  0  0  0  0  2  0  0  0  0  0  0
  -30.8070  -18.0720   20.6500 C   0  0  0  0  0  2  0  0  0  0  0  0
  -31.0290  -16.8140   21.5360 C   0  0  0  0  0  2  0  0  0  0  0  0
  -30.9950  -14.6020   20.3500 C   0  0  0  0  0  0  0  0  0  0  0  0
  -30.6630  -12.4450   19.1880 C   0  0  0  0  0  2  0  0  0  0  0  0
  -29.7090  -12.6240   17.9900 C   0  0  0  0  0  2  0  0  0  0  0  0
  -28.2400  -12.4960   18.4360 C   0  0  0  0  0  2  0  0  0  0  0  0
  -27.9160  -13.3580   19.6840 C   0  0  0  0  0  3  0  0  0  0  0  0
  -28.9770  -13.1470   20.7880 C   0  0  0  0  0  2  0  0  0  0  0  0
  -30.2970  -13.4420   20.2060 N   0  0  0  0  0  0  0  0  0  0  0  0
  -32.0900  -14.7930   19.8140 O   0  0  0  0  0  0  0  0  0  0  0  0
  -30.3960  -15.5680   21.0710 N   0  0  0  0  0  0  0  0  0  0  0  0
  -29.4830  -15.3480   21.4430 H   0  0  0  0  0  0  0  0  0  0  0  0
  -25.5340  -13.9920   20.4230 C   0  0  0  0  0  0  0  0  0  0  0  0
  -24.4590  -13.2320   20.7980 C   0  0  0  0  0  0  0  0  0  0  0  0
  -24.9010  -11.8740   20.7520 C   0  0  0  0  0  0  0  0  0  0  0  0
  -26.5640  -13.0990   20.1760 N   0  0  0  0  0  0  0  0  0  0  0  0
  -26.1880  -11.8190   20.4300 N   0  0  0  0  0  0  0  0  0  0  0  0
  -24.1600  -10.6200   20.9410 C   0  0  0  0  0  0  0  0  0  0  0  0
  -24.5570   -9.6660   21.9030 C   0  0  0  0  0  3  0  0  0  0  0  0
  -23.8180   -8.4760   22.0780 C   0  0  0  0  0  3  0  0  0  0  0  0
  -22.6680   -8.2330   21.2900 C   0  0  0  0  0  0  0  0  0  0  0  0
  -22.2910   -9.1760   20.3170 C   0  0  0  0  0  3  0  0  0  0  0  0
  -23.0300  -10.3570   20.1410 C   0  0  0  0  0  3  0  0  0  0  0  0
  -21.9040   -7.0940   21.3730 O   0  0  0  0  0  0  0  0  0  0  0  0
  -21.7720   -6.3990   22.5480 C   0  0  0  0  0  0  0  0  0  0  0  0
  -21.2150   -6.9890   23.7040 C   0  0  0  0  0  3  0  0  0  0  0  0
  -21.0350   -6.2170   24.8690 C   0  0  0  0  0  3  0  0  0  0  0  0
  -21.4010   -4.8580   24.8790 C   0  0  0  0  0  0  0  0  0  0  0  0
  -21.9500   -4.2680   23.7270 C   0  0  0  0  0  3  0  0  0  0  0  0
  -22.1320   -5.0360   22.5640 C   0  0  0  0  0  0  0  0  0  0  0  0
  -22.6420   -4.4570   21.4500 F   0  0  0  0  0  0  0  0  0  0  0  0
  -21.2200   -4.1150   25.9960 F   0  0  0  0  0  0  0  0  0  0  0  0
  -23.0710  -13.7260   21.0900 C   0  0  0  0  0  0  0  0  0  0  0  0
  -22.3440  -13.0300   21.9570 N   0  0  0  0  0  0  0  0  0  0  0  0
  -22.6430  -14.7620   20.5860 O   0  0  0  0  0  0  0  0  0  0  0  0
  -22.7050  -12.1900   22.3850 H   0  0  0  0  0  0  0  0  0  0  0  0
  -21.4130  -13.3420   22.1970 H   0  0  0  0  0  0  0  0  0  0  0  0
  -25.7170  -15.3620   20.2540 N   0  0  0  0  0  0  0  0  0  0  0  0
  -24.9620  -16.0290   20.3740 H   0  0  0  0  0  0  0  0  0  0  0  0
  -26.5750  -15.7880   19.9270 H   0  0  0  0  0  0  0  0  0  0  0  0
  2  1  1  0
  3  5  2  0
  3  6  1  0
  4  7  1  0
  4  1  2  0
  5  4  1  0
  6  2  2  0
  7 11  2  0
  8  9  1  0
  8  5  1  0
  9 10  1  0
 10 12  1  0
 10  7  1  0
 13 24  2  0
 14 12  1  0
 14 19  1  0
 15 23  1  0
 15 25  1  0
 16 22  1  0
 16 18  1  0
 17 23  1  0
 18 17  1  0
 19 18  2  0
 20 21  1  0
 20 14  2  0
 21 16  2  0
 22 15  1  0
 23 13  1  0
 25 27  2  0
 26 25  1  0
 28 26  1  0
 29 38  2  0
 29 34  1  0
 30 26  1  0
 30 34  1  0
 31 30  1  0
 32 33  1  0
 32 31  1  0
 33 29  1  0
 34 35  2  0
 35 36  1  0
 37 36  2  0
 38 37  1  0
 39 13  1  0
 39 44  1  0
 39 40  1  0
 40 43  1  1
 40 41  1  0
 42 40  1  0
 44 47  1  0
 45 49  1  0
 45 44  1  0
 46 45  2  0
 49 48  1  0
 51 49  1  0
 51 52  1  0
 51 50  1  0
 53  6  1  0
 54 53  1  0
 54 55  1  0
 56 64  1  0
 57 62  1  0
 58 59  1  0
 58 57  1  0
 60 59  1  0
 60 69  1  0
 60 61  1  0
 62 56  1  0
 62 61  1  0
 63 56  2  0
 64 65  1  0
 64 55  1  0
 66 67  2  0
 67 86  1  0
 68 67  1  0
 68 71  1  0
 69 66  1  0
 69 70  1  0
 70 68  2  0
 71 72  1  0
 72 73  2  0
 74 77  1  0
 74 73  1  0
 75 74  2  0
 76 75  1  0
 76 71  2  0
 77 78  1  0
 78 83  2  0
 78 79  1  0
 79 80  2  0
 80 81  1  0
 81 85  1  0
 82 81  2  0
 83 82  1  0
 84 83  1  0
 86 87  1  0
 87 90  1  0
 87 89  1  0
 88 86  2  0
 91 92  1  0
 91 66  1  0
 93 91  1  0
M  ISO  4  10 101  12 101  56 100  64 100
M  END
>  <TORSDO>  (91) 
F 19

>  <SCORE>  (91) 
-14.302

>  <name>  (91) 
90

>  <ligand_id>  (91) 
90

>  <original_smiles>  (91) 
[H]c1c([H])c([H])c2c(c1[H])C([H])([H])C([H])([H])C([H])([H])C2([H])N([H])C(=O)C1([H])N(C(=O)C([H])(N([H])C(=O)C([H])(N([H])C([H])([H])[H])C([H])([H])[H])C(C([H])([H])[H])(C([H])([H])[H])C([H])([H])[H])C([H])([H])c2c([H])c(OC3([H])C(=O)c4c([H])c([H])c(C([H])([H])C([H])([H])C([H])([H])N([H])C(=O)N5C([H])([H])C([H])([H])C([H])([H])C([H])(n6nc(-c7c([H])c([H])c(Oc8c([H])c([H])c(F)c([H])c8F)c([H])c7[H])c(C(=O)N([H])[H])c6N([H])[H])C5([H])[H])c([H])c4C([H])([H])C3([H])[H])c([H])c([H])c2C1([H])[H]

>  <smiles>  (91) 
[H]c1c([H])c([H])c2c(c1[H])C([H])([H])C([H])([H])C([H])([H])C2([H])N([H])C(=O)C1([H])N(C(=O)C([H])(N([H])C(=O)C([H])(N([H])C([H])([H])[H])C([H])([H])[H])C(C([H])([H])[H])(C([H])([H])[H])C([H])([H])[H])C([H])([H])c2c([H])c(OC3([H])C(=O)c4c([H])c([H])c(C([H])([H])C([H])([H])C([H])([H])N([H])C(=O)N5C([H])([H])C([H])([H])C([H])([H])C([H])(n6nc(-c7c([H])c([H])c(Oc8c([H])c([H])c(F)c([H])c8F)c([H])c7[H])c(C(=O)N([H])[H])c6N([H])[H])C5([H])[H])c([H])c4C([H])([H])C3([H])[H])c([H])c([H])c2C1([H])[H]

$$$$
91:0:0
     RDKit          3D

 90 99  0  0  1  0  0  0  0  0999 V2000
  -27.7650  -19.4300   20.3380 C   0  0  0  0  0  2  0  0  0  0  0  0
  -28.9030  -21.3080   21.8250 C   0  0  0  0  0  2  0  0  0  0  0  0
  -29.1010  -19.6550   19.6330 C   0  0  0  0  0  3  0  0  0  0  0  0
  -27.7510  -20.8120   20.9800 C   0  0  0  0  0  3  0  0  0  0  0  0
  -29.0270  -21.2730   20.3170 C   0  0  2  0  0  0  0  0  0  0  0  0
  -30.5330  -15.3540   19.8250 C   0  0  0  0  0  0  0  0  0  0  0  0
  -30.4330  -12.9200   18.9320 C   0  0  0  0  0  2  0  0  0  0  0  0
  -29.4210  -12.7060   17.7780 C   0  0  0  0  0  2  0  0  0  0  0  0
  -28.0070  -12.4420   18.3270 C   0  0  0  0  0  2  0  0  0  0  0  0
  -27.6390  -13.4080   19.4800 C   0  0  0  0  0  3  0  0  0  0  0  0
  -28.7700  -13.5570   20.5200 C   0  0  0  0  0  2  0  0  0  0  0  0
  -29.9440  -14.0600   19.7860 N   0  0  0  0  0  0  0  0  0  0  0  0
  -31.7550  -15.3520   19.5970 O   0  0  0  0  0  0  0  0  0  0  0  0
  -30.0470  -18.2260   19.9350 C   0  0  0  0  0  0  0  0  0  0  0  0
  -29.7230  -16.7720   19.8600 N   0  0  0  0  0  0  0  0  0  0  0  0
  -31.3140  -18.5550   20.2340 N   0  0  0  0  0  4  0  0  0  0  0  0
  -28.7240  -16.6950   19.8170 H   0  0  0  0  0  0  0  0  0  0  0  0
  -31.5810  -19.5270   20.2800 H   0  0  0  0  0  0  0  0  0  0  0  0
  -32.0310  -17.8620   20.3880 H   0  0  0  0  0  0  0  0  0  0  0  0
  -25.3470  -13.9720   20.4460 C   0  0  0  0  0  0  0  0  0  0  0  0
  -24.3080  -13.1950   20.8750 C   0  0  0  0  0  0  0  0  0  0  0  0
  -24.7520  -11.8420   20.7610 C   0  0  0  0  0  0  0  0  0  0  0  0
  -26.3530  -13.0930   20.0890 N   0  0  0  0  0  0  0  0  0  0  0  0
  -26.0140  -11.8040   20.3460 N   0  0  0  0  0  0  0  0  0  0  0  0
  -24.0250  -10.5820   20.9620 C   0  0  0  0  0  0  0  0  0  0  0  0
  -24.4840   -9.6000   21.8650 C   0  0  0  0  0  3  0  0  0  0  0  0
  -23.7530   -8.4070   22.0580 C   0  0  0  0  0  3  0  0  0  0  0  0
  -22.5490   -8.1900   21.3480 C   0  0  0  0  0  0  0  0  0  0  0  0
  -22.1080   -9.1620   20.4320 C   0  0  0  0  0  3  0  0  0  0  0  0
  -22.8390  -10.3450   20.2370 C   0  0  0  0  0  3  0  0  0  0  0  0
  -21.7870   -7.0510   21.4510 O   0  0  0  0  0  0  0  0  0  0  0  0
  -21.7400   -6.3200   22.6110 C   0  0  0  0  0  0  0  0  0  0  0  0
  -21.3060   -6.8850   23.8300 C   0  0  0  0  0  3  0  0  0  0  0  0
  -21.2060   -6.0790   24.9820 C   0  0  0  0  0  3  0  0  0  0  0  0
  -21.5310   -4.7120   24.9170 C   0  0  0  0  0  0  0  0  0  0  0  0
  -21.9580   -4.1470   23.7020 C   0  0  0  0  0  3  0  0  0  0  0  0
  -22.0600   -4.9490   22.5520 C   0  0  0  0  0  0  0  0  0  0  0  0
  -22.4510   -4.3950   21.3800 F   0  0  0  0  0  0  0  0  0  0  0  0
  -21.4280   -3.9360   26.0210 F   0  0  0  0  0  0  0  0  0  0  0  0
  -22.9430  -13.6790   21.2640 C   0  0  0  0  0  0  0  0  0  0  0  0
  -22.2730  -12.9670   22.1620 N   0  0  0  0  0  0  0  0  0  0  0  0
  -22.4820  -14.7260   20.8060 O   0  0  0  0  0  0  0  0  0  0  0  0
  -22.6600  -12.1200   22.5510 H   0  0  0  0  0  0  0  0  0  0  0  0
  -21.3590  -13.2730   22.4650 H   0  0  0  0  0  0  0  0  0  0  0  0
  -25.5090  -15.3470   20.2980 N   0  0  0  0  0  0  0  0  0  0  0  0
  -24.7410  -15.9870   20.4720 H   0  0  0  0  0  0  0  0  0  0  0  0
  -26.2730  -15.7780   19.7990 H   0  0  0  0  0  0  0  0  0  0  0  0
  -28.9980  -22.8820   19.5840 C   0  0  0  0  0  2  0  0  0  0  0  0
  -28.1280  -24.3860   20.0430 C   0  0  0  0  0  2  0  0  0  0  0  0
  -28.2980  -25.9950   19.7550 O   0  0  0  0  0  0  0  0  0  0  0  0
  -24.5860  -31.7480   22.9440 C   0  0  0  0  0  0  0  0  0  0  0  0
  -27.2460  -27.0430   19.7820 C   0  0  0  0  0  0  0  0  0  0  0  0
  -23.4210  -30.3820   21.2610 C   0  0  0  0  0  3  0  0  0  0  0  0
  -24.9030  -28.8550   19.7950 C   0  0  0  0  0  0  0  0  0  0  0  0
  -25.9820  -30.6580   21.1230 C   0  0  0  0  0  2  0  0  0  0  0  0
  -26.0830  -29.2730   20.4240 C   0  0  0  0  0  0  0  0  0  0  0  0
  -27.2510  -28.3910   20.3890 C   0  0  0  0  0  3  0  0  0  0  0  0
  -26.0310  -26.7680   19.1150 C   0  0  0  0  0  3  0  0  0  0  0  0
  -24.9000  -27.6230   19.1220 C   0  0  0  0  0  3  0  0  0  0  0  0
  -23.6660  -29.7470   19.8650 C   0  0  0  0  0  2  0  0  0  0  0  0
  -24.6840  -30.9540   21.8310 N   0  0  0  0  0  0  0  0  0  0  0  0
  -23.4920  -31.9990   23.4750 O   0  0  0  0  0  0  0  0  0  0  0  0
  -22.7480  -29.3410   22.1930 C   0  0  0  0  0  0  0  0  0  0  0  0
  -21.4150  -29.1830   22.0890 N   0  0  0  0  0  0  0  0  0  0  0  0
  -23.4310  -28.6760   22.9760 O   0  0  0  0  0  0  0  0  0  0  0  0
  -20.9180  -29.7720   21.4360 H   0  0  0  0  0  0  0  0  0  0  0  0
  -18.0350  -27.9980   22.6590 C   0  0  0  0  0  0  0  0  0  0  0  0
  -20.6070  -28.2100   22.8320 C   0  0  0  0  0  3  0  0  0  0  0  0
  -20.6610  -26.8170   22.1640 C   0  0  0  0  0  2  0  0  0  0  0  0
  -19.5140  -26.5750   21.1780 C   0  0  0  0  0  2  0  0  0  0  0  0
  -18.1620  -26.6950   21.8870 C   0  0  0  0  0  2  0  0  0  0  0  0
  -19.1820  -28.7170   23.0880 C   0  0  0  0  0  0  0  0  0  0  0  0
  -19.0050  -29.9380   23.7740 C   0  0  0  0  0  3  0  0  0  0  0  0
  -17.7150  -30.4400   24.0320 C   0  0  0  0  0  3  0  0  0  0  0  0
  -16.5840  -29.7180   23.6160 C   0  0  0  0  0  3  0  0  0  0  0  0
  -16.7450  -28.4980   22.9350 C   0  0  0  0  0  3  0  0  0  0  0  0
  -25.8450  -32.3940   23.6000 C   0  0  0  0  0  3  0  0  0  0  0  0
  -25.4910  -33.7660   24.0070 N   0  0  0  0  0  0  0  0  0  0  0  0
  -25.7860  -34.8720   23.3110 C   0  0  0  0  0  0  0  0  0  0  0  0
  -26.4490  -34.8480   22.2700 O   0  0  0  0  0  0  0  0  0  0  0  0
  -24.8990  -33.8560   24.8190 H   0  0  0  0  0  0  0  0  0  0  0  0
  -24.0030  -36.6370   23.0860 C   0  0  0  0  0  1  0  0  0  0  0  0
  -25.2680  -36.2200   23.8540 C   0  0  0  0  0  3  0  0  0  0  0  0
  -27.3860  -37.1250   24.7090 C   0  0  0  0  0  1  0  0  0  0  0  0
  -26.2680  -37.3090   23.7860 N   0  0  0  0  0  0  0  0  0  0  0  0
  -25.8370  -38.2070   23.9830 H   0  0  0  0  0  0  0  0  0  0  0  0
  -26.3810  -31.5830   24.8440 C   0  0  1  0  0  0  0  0  0  0  0  0
  -25.2960  -31.2770   25.9040 C   0  0  0  0  0  1  0  0  0  0  0  0
  -26.9940  -30.2340   24.4010 C   0  0  0  0  0  1  0  0  0  0  0  0
  -27.5170  -32.3730   25.5350 C   0  0  0  0  0  1  0  0  0  0  0  0
  3 14  1  0
  3  5  1  0
  3  1  1  0
  4  1  1  0
  4  2  1  0
  5 48  1  6
  5  4  1  0
  5  2  1  0
  6 15  1  0
  7 12  1  0
  8  9  1  0
  8  7  1  0
 10  9  1  0
 10 23  1  0
 10 11  1  0
 12  6  1  0
 12 11  1  0
 13  6  2  0
 14 16  2  0
 15 14  1  0
 16 18  1  0
 16 19  1  0
 17 15  1  0
 20 21  2  0
 21 40  1  0
 22 21  1  0
 22 25  1  0
 23 24  1  0
 23 20  1  0
 24 22  2  0
 25 26  1  0
 26 27  2  0
 28 31  1  0
 28 27  1  0
 29 28  2  0
 30 29  1  0
 30 25  2  0
 31 32  1  0
 32 33  1  0
 33 34  2  0
 35 34  1  0
 35 39  1  0
 36 35  2  0
 37 32  2  0
 37 36  1  0
 38 37  1  0
 40 41  1  0
 41 44  1  0
 41 43  1  0
 42 40  2  0
 45 20  1  0
 45 46  1  0
 47 45  1  0
 48 49  1  0
 50 52  1  0
 50 49  1  0
 51 62  2  0
 52 57  1  0
 53 61  1  0
 53 63  1  0
 54 60  1  0
 54 56  1  0
 55 61  1  0
 56 55  1  0
 57 56  2  0
 58 59  1  0
 58 52  2  0
 59 54  2  0
 60 53  1  0
 61 51  1  0
 63 65  2  0
 64 63  1  0
 66 64  1  0
 67 76  2  0
 67 72  1  0
 68 64  1  0
 68 72  1  0
 69 68  1  0
 70 71  1  0
 70 69  1  0
 71 67  1  0
 72 73  2  0
 73 74  1  0
 75 74  2  0
 76 75  1  0
 77 51  1  0
 77 78  1  0
 77 87  1  0
 78 81  1  0
 79 83  1  0
 79 78  1  0
 80 79  2  0
 83 82  1  0
 85 83  1  0
 85 86  1  0
 85 84  1  0
 87 90  1  1
 87 88  1  0
 89 87  1  0
M  ISO  4   6 100  15 100  49 101  50 101
M  END
>  <TORSDO>  (92) 
F 18

>  <SCORE>  (92) 
-15.107

>  <name>  (92) 
91

>  <ligand_id>  (92) 
91

>  <original_smiles>  (92) 
[H]c1c([H])c([H])c2c(c1[H])C([H])([H])C([H])([H])C([H])([H])C2([H])N([H])C(=O)C1([H])N(C(=O)C([H])(N([H])C(=O)C([H])(N([H])C([H])([H])[H])C([H])([H])[H])C(C([H])([H])[H])(C([H])([H])[H])C([H])([H])[H])C([H])([H])c2c([H])c(OC([H])([H])C([H])([H])C34C([H])([H])C3([H])C([H])([H])C4([H])C(N([H])C(=O)N3C([H])([H])C([H])([H])C([H])([H])C([H])(n4nc(-c5c([H])c([H])c(Oc6c([H])c([H])c(F)c([H])c6F)c([H])c5[H])c(C(=O)N([H])[H])c4N([H])[H])C3([H])[H])=[N+]([H])[H])c([H])c([H])c2C1([H])[H]

>  <smiles>  (92) 
[H]c1c([H])c([H])c2c(c1[H])C([H])([H])C([H])([H])C([H])([H])C2([H])N([H])C(=O)C1([H])N(C(=O)C([H])(N([H])C(=O)C([H])(N([H])C([H])([H])[H])C([H])([H])[H])C(C([H])([H])[H])(C([H])([H])[H])C([H])([H])[H])C([H])([H])c2c([H])c(OC([H])([H])C([H])([H])C34C([H])([H])C3([H])C([H])([H])C4([H])C(N([H])C(=O)N3C([H])([H])C([H])([H])C([H])([H])C([H])(n4nc(-c5c([H])c([H])c(Oc6c([H])c([H])c(F)c([H])c6F)c([H])c5[H])c(C(=O)N([H])[H])c4N([H])[H])C3([H])[H])=[N+]([H])[H])c([H])c([H])c2C1([H])[H]

$$$$
92:0:0
     RDKit          3D

 89 98  0  0  1  0  0  0  0  0999 V2000
  -29.6180  -20.6400   20.2620 C   0  0  0  0  0  3  0  0  0  0  0  0
  -29.5660  -19.0680   20.7720 C   0  0  0  0  0  0  0  0  0  0  0  0
  -28.8240  -18.8090   21.7250 O   0  0  0  0  0  0  0  0  0  0  0  0
  -30.7890  -15.1280   20.4220 C   0  0  0  0  0  0  0  0  0  0  0  0
  -30.6540  -12.7990   19.4920 C   0  0  0  0  0  2  0  0  0  0  0  0
  -29.7500  -12.7620   18.2390 C   0  0  0  0  0  2  0  0  0  0  0  0
  -28.2850  -12.5360   18.6440 C   0  0  0  0  0  2  0  0  0  0  0  0
  -27.8370  -13.4840   19.7850 C   0  0  0  0  0  3  0  0  0  0  0  0
  -28.8610  -13.5200   20.9400 C   0  0  0  0  0  2  0  0  0  0  0  0
  -30.1580  -13.8930   20.3590 N   0  0  0  0  0  0  0  0  0  0  0  0
  -32.0230  -15.1510   20.3860 O   0  0  0  0  0  0  0  0  0  0  0  0
  -30.4400  -17.8280   20.0860 C   0  0  0  0  0  3  0  0  0  0  0  0
  -30.1540  -17.8440   18.5920 C   0  0  0  0  0  3  0  0  0  0  0  0
  -28.8700  -17.3380   17.9780 C   0  0  0  0  0  3  0  0  0  0  0  0
  -29.8290  -16.3790   18.6440 C   0  0  0  0  0  3  0  0  0  0  0  0
  -27.4960  -17.6180   18.5450 C   0  0  0  0  0  1  0  0  0  0  0  0
  -30.0690  -16.2940   20.0670 N   0  0  0  0  0  0  0  0  0  0  0  0
  -25.4240  -14.0480   20.4360 C   0  0  0  0  0  0  0  0  0  0  0  0
  -24.3550  -13.2670   20.7740 C   0  0  0  0  0  0  0  0  0  0  0  0
  -24.8410  -11.9220   20.7940 C   0  0  0  0  0  0  0  0  0  0  0  0
  -26.4870  -13.1810   20.2500 N   0  0  0  0  0  0  0  0  0  0  0  0
  -26.1440  -11.9000   20.5400 N   0  0  0  0  0  0  0  0  0  0  0  0
  -24.1280  -10.6550   20.9800 C   0  0  0  0  0  0  0  0  0  0  0  0
  -24.5280   -9.7170   21.9580 C   0  0  0  0  0  3  0  0  0  0  0  0
  -23.8070   -8.5160   22.1330 C   0  0  0  0  0  3  0  0  0  0  0  0
  -22.6740   -8.2430   21.3290 C   0  0  0  0  0  0  0  0  0  0  0  0
  -22.2960   -9.1700   20.3400 C   0  0  0  0  0  3  0  0  0  0  0  0
  -23.0170  -10.3620   20.1640 C   0  0  0  0  0  3  0  0  0  0  0  0
  -21.9300   -7.0910   21.4080 O   0  0  0  0  0  0  0  0  0  0  0  0
  -21.8250   -6.3830   22.5780 C   0  0  0  0  0  0  0  0  0  0  0  0
  -21.2920   -6.9600   23.7530 C   0  0  0  0  0  3  0  0  0  0  0  0
  -21.1380   -6.1770   24.9150 C   0  0  0  0  0  3  0  0  0  0  0  0
  -21.5060   -4.8180   24.9020 C   0  0  0  0  0  0  0  0  0  0  0  0
  -22.0310   -4.2410   23.7330 C   0  0  0  0  0  3  0  0  0  0  0  0
  -22.1880   -5.0210   22.5740 C   0  0  0  0  0  0  0  0  0  0  0  0
  -22.6750   -4.4550   21.4440 F   0  0  0  0  0  0  0  0  0  0  0  0
  -21.3500   -4.0630   26.0150 F   0  0  0  0  0  0  0  0  0  0  0  0
  -22.9420  -13.7280   20.9730 C   0  0  0  0  0  0  0  0  0  0  0  0
  -22.1930  -13.0520   21.8370 N   0  0  0  0  0  0  0  0  0  0  0  0
  -22.5080  -14.7290   20.4000 O   0  0  0  0  0  0  0  0  0  0  0  0
  -22.5570  -12.2430   22.3170 H   0  0  0  0  0  0  0  0  0  0  0  0
  -21.2450  -13.3480   22.0230 H   0  0  0  0  0  0  0  0  0  0  0  0
  -25.5780  -15.4180   20.2420 N   0  0  0  0  0  0  0  0  0  0  0  0
  -24.8050  -16.0690   20.3310 H   0  0  0  0  0  0  0  0  0  0  0  0
  -26.4460  -15.8590   19.9720 H   0  0  0  0  0  0  0  0  0  0  0  0
  -28.7050  -22.0090   20.6310 C   0  0  0  0  0  3  0  0  0  0  0  0
  -29.0870  -23.6080   20.3060 C   0  0  0  0  0  3  0  0  0  0  0  0
  -28.0600  -24.8960   20.5940 C   0  0  0  0  0  3  0  0  0  0  0  0
  -28.3200  -26.4000   20.3360 O   0  0  0  0  0  0  0  0  0  0  0  0
  -24.5910  -31.9780   23.3150 C   0  0  0  0  0  0  0  0  0  0  0  0
  -27.2350  -27.3390   20.2920 C   0  0  0  0  0  0  0  0  0  0  0  0
  -23.4050  -30.5730   21.6720 C   0  0  0  0  0  3  0  0  0  0  0  0
  -24.8760  -29.0290   20.2440 C   0  0  0  0  0  0  0  0  0  0  0  0
  -25.9540  -30.8850   21.5020 C   0  0  0  0  0  2  0  0  0  0  0  0
  -26.0470  -29.4990   20.8520 C   0  0  0  0  0  0  0  0  0  0  0  0
  -27.2290  -28.6720   20.8580 C   0  0  0  0  0  3  0  0  0  0  0  0
  -26.0370  -26.9610   19.6430 C   0  0  0  0  0  3  0  0  0  0  0  0
  -24.8820  -27.7690   19.6260 C   0  0  0  0  0  3  0  0  0  0  0  0
  -23.6350  -29.9050   20.2910 C   0  0  0  0  0  2  0  0  0  0  0  0
  -24.6690  -31.1650   22.2180 N   0  0  0  0  0  0  0  0  0  0  0  0
  -23.5030  -32.2470   23.8460 O   0  0  0  0  0  0  0  0  0  0  0  0
  -22.7470  -29.5500   22.6290 C   0  0  0  0  0  0  0  0  0  0  0  0
  -21.4260  -29.3440   22.4890 N   0  0  0  0  0  0  0  0  0  0  0  0
  -23.4270  -28.9420   23.4610 O   0  0  0  0  0  0  0  0  0  0  0  0
  -20.9320  -29.8840   21.7920 H   0  0  0  0  0  0  0  0  0  0  0  0
  -18.0730  -28.0620   22.9620 C   0  0  0  0  0  0  0  0  0  0  0  0
  -20.6210  -28.3930   23.2610 C   0  0  0  0  0  3  0  0  0  0  0  0
  -20.7650  -26.9580   22.7020 C   0  0  0  0  0  2  0  0  0  0  0  0
  -19.6880  -26.5970   21.6760 C   0  0  0  0  0  2  0  0  0  0  0  0
  -18.2940  -26.7120   22.3000 C   0  0  0  0  0  2  0  0  0  0  0  0
  -19.1660  -28.8570   23.3980 C   0  0  0  0  0  0  0  0  0  0  0  0
  -18.9060  -30.1180   23.9780 C   0  0  0  0  0  3  0  0  0  0  0  0
  -17.5860  -30.5860   24.1230 C   0  0  0  0  0  3  0  0  0  0  0  0
  -16.5080  -29.7880   23.7010 C   0  0  0  0  0  3  0  0  0  0  0  0
  -16.7520  -28.5270   23.1280 C   0  0  0  0  0  3  0  0  0  0  0  0
  -25.8650  -32.6270   23.9380 C   0  0  0  0  0  3  0  0  0  0  0  0
  -26.3590  -31.8930   25.2450 C   0  0  1  0  0  0  0  0  0  0  0  0
  -25.2470  -31.6870   26.3000 C   0  0  0  0  0  1  0  0  0  0  0  0
  -26.9490  -30.5040   24.9090 C   0  0  0  0  0  1  0  0  0  0  0  0
  -27.4960  -32.7100   25.9050 C   0  0  0  0  0  1  0  0  0  0  0  0
  -25.5460  -34.0340   24.2250 N   0  0  0  0  0  0  0  0  0  0  0  0
  -25.8930  -35.0700   23.4500 C   0  0  0  0  0  0  0  0  0  0  0  0
  -26.5810  -34.9430   22.4340 O   0  0  0  0  0  0  0  0  0  0  0  0
  -24.9320  -34.2070   25.0080 H   0  0  0  0  0  0  0  0  0  0  0  0
  -24.1850  -36.8680   23.0190 C   0  0  0  0  0  1  0  0  0  0  0  0
  -25.4000  -36.4680   23.8700 C   0  0  0  0  0  3  0  0  0  0  0  0
  -27.5080  -37.3650   24.7530 C   0  0  0  0  0  1  0  0  0  0  0  0
  -26.4390  -37.5160   23.7700 N   0  0  0  0  0  0  0  0  0  0  0  0
  -26.0300  -38.4380   23.8850 H   0  0  0  0  0  0  0  0  0  0  0  0
  1 46  2  0
  1  2  1  0
  2  3  2  0
  5 10  1  0
  6  7  1  0
  6  5  1  0
  8  7  1  0
  8 21  1  0
  8  9  1  0
 10  4  1  0
 10  9  1  0
 11  4  2  0
 12  2  1  0
 13 15  1  0
 13 12  1  0
 14 16  1  0
 14 13  1  0
 14 15  1  0
 15 17  1  0
 17 12  1  0
 17  4  1  0
 18 19  2  0
 19 20  1  0
 19 38  1  0
 20 23  1  0
 21 18  1  0
 21 22  1  0
 22 20  2  0
 23 24  1  0
 24 25  2  0
 26 29  1  0
 26 25  1  0
 27 26  2  0
 28 27  1  0
 28 23  2  0
 29 30  1  0
 30 31  1  0
 31 32  2  0
 33 32  1  0
 33 37  1  0
 34 33  2  0
 35 30  2  0
 35 34  1  0
 36 35  1  0
 38 39  1  0
 39 42  1  0
 39 41  1  0
 40 38  2  0
 43 44  1  0
 43 18  1  0
 45 43  1  0
 47 48  2  0
 47 46  1  0
 49 48  1  0
 50 61  2  0
 50 76  1  0
 51 49  1  0
 51 56  1  0
 52 60  1  0
 52 62  1  0
 53 59  1  0
 53 55  1  0
 54 60  1  0
 55 56  2  0
 55 54  1  0
 57 51  2  0
 58 57  1  0
 58 53  2  0
 59 52  1  0
 60 50  1  0
 62 64  2  0
 63 62  1  0
 63 67  1  0
 65 63  1  0
 66 75  2  0
 66 71  1  0
 67 71  1  0
 68 67  1  0
 69 70  1  0
 69 68  1  0
 70 66  1  0
 71 72  2  0
 72 73  1  0
 74 73  2  0
 75 74  1  0
 76 81  1  0
 76 77  1  0
 77 80  1  1
 77 78  1  0
 79 77  1  0
 81 84  1  0
 82 86  1  0
 82 81  1  0
 83 82  2  0
 85 86  1  0
 88 86  1  0
 88 89  1  0
 88 87  1  0
M  ISO  4   4 100  17 100  48 101  49 101
M  END
>  <TORSDO>  (93) 
F 20

>  <SCORE>  (93) 
-12.202

>  <name>  (93) 
92

>  <ligand_id>  (93) 
92

>  <original_smiles>  (93) 
[H]c1c([H])c([H])c2c(c1[H])C([H])([H])C([H])([H])C([H])([H])C2([H])N([H])C(=O)C1([H])N(C(=O)C([H])(N([H])C(=O)C([H])(N([H])C([H])([H])[H])C([H])([H])[H])C(C([H])([H])[H])(C([H])([H])[H])C([H])([H])[H])C([H])([H])c2c([H])c(OC([H])([H])C([H])([H])C([H])([H])C([H])([H])C(=O)C3([H])N(C(=O)N4C([H])([H])C([H])([H])C([H])([H])C([H])(n5nc(-c6c([H])c([H])c(Oc7c([H])c([H])c(F)c([H])c7F)c([H])c6[H])c(C(=O)N([H])[H])c5N([H])[H])C4([H])[H])C4([H])C([H])(C([H])([H])[H])C34[H])c([H])c([H])c2C1([H])[H]

>  <smiles>  (93) 
[H]c1c([H])c([H])c2c(c1[H])C([H])([H])C([H])([H])C([H])([H])C2([H])N([H])C(=O)C1([H])N(C(=O)C([H])(N([H])C(=O)C([H])(N([H])C([H])([H])[H])C([H])([H])[H])C(C([H])([H])[H])(C([H])([H])[H])C([H])([H])[H])C([H])([H])c2c([H])c(OC([H])([H])C([H])([H])C([H])([H])C([H])([H])C(=O)C3([H])N(C(=O)N4C([H])([H])C([H])([H])C([H])([H])C([H])(n5nc(-c6c([H])c([H])c(Oc7c([H])c([H])c(F)c([H])c7F)c([H])c6[H])c(C(=O)N([H])[H])c5N([H])[H])C4([H])[H])C4([H])C([H])(C([H])([H])[H])C34[H])c([H])c([H])c2C1([H])[H]

$$$$
93:0:0
     RDKit          3D

 92102  0  0  1  0  0  0  0  0999 V2000
  -27.6880  -19.7870   20.2410 C   0  0  0  0  0  3  0  0  0  0  0  0
  -28.9090  -17.3230   21.3800 C   0  0  0  0  0  2  0  0  0  0  0  0
  -27.9740  -21.0970   20.1200 C   0  0  0  0  0  0  0  0  0  0  0  0
  -29.0350  -17.5730   20.0710 C   0  0  0  0  0  3  0  0  0  0  0  0
  -30.4150  -17.1820   21.5450 C   0  0  0  0  0  2  0  0  0  0  0  0
  -30.8920  -18.7470   19.3510 C   0  0  0  0  0  2  0  0  0  0  0  0
  -28.4790  -18.8420   19.3450 C   0  0  0  0  0  3  0  0  0  0  0  0
  -28.9840  -21.4140   19.0350 C   0  0  0  0  0  3  0  0  0  0  0  0
  -29.6330  -19.7660   18.8030 C   0  0  0  0  0  3  0  0  0  0  0  0
  -30.5230  -17.2140   19.9930 C   0  0  2  0  0  0  0  0  0  0  0  0
  -31.1970  -15.6300   19.6360 C   0  0  0  0  0  0  0  0  0  0  0  0
  -31.1480  -13.1250   18.9510 C   0  0  0  0  0  2  0  0  0  0  0  0
  -30.1840  -12.8430   17.7680 C   0  0  0  0  0  2  0  0  0  0  0  0
  -28.7550  -12.5970   18.2790 C   0  0  0  0  0  2  0  0  0  0  0  0
  -28.3370  -13.6470   19.3360 C   0  0  0  0  0  3  0  0  0  0  0  0
  -29.4210  -13.8660   20.4120 C   0  0  0  0  0  2  0  0  0  0  0  0
  -30.6430  -14.3210   19.7250 N   0  0  0  0  0  0  0  0  0  0  0  0
  -32.3680  -15.6010   19.2300 O   0  0  0  0  0  0  0  0  0  0  0  0
  -26.0360  -14.2750   20.2440 C   0  0  0  0  0  0  0  0  0  0  0  0
  -24.9660  -13.5280   20.6430 C   0  0  0  0  0  0  0  0  0  0  0  0
  -25.3710  -12.1630   20.5380 C   0  0  0  0  0  0  0  0  0  0  0  0
  -27.0270  -13.3690   19.9090 N   0  0  0  0  0  0  0  0  0  0  0  0
  -26.6410  -12.0890   20.1530 N   0  0  0  0  0  0  0  0  0  0  0  0
  -24.6030  -10.9270   20.7250 C   0  0  0  0  0  0  0  0  0  0  0  0
  -25.0000   -9.9410   21.6570 C   0  0  0  0  0  3  0  0  0  0  0  0
  -24.2300   -8.7720   21.8350 C   0  0  0  0  0  3  0  0  0  0  0  0
  -23.0480   -8.5790   21.0830 C   0  0  0  0  0  0  0  0  0  0  0  0
  -22.6680   -9.5490   20.1400 C   0  0  0  0  0  3  0  0  0  0  0  0
  -23.4380  -10.7110   19.9600 C   0  0  0  0  0  3  0  0  0  0  0  0
  -22.2500   -7.4630   21.1730 O   0  0  0  0  0  0  0  0  0  0  0  0
  -22.0860   -6.7870   22.3550 C   0  0  0  0  0  0  0  0  0  0  0  0
  -21.5590   -7.4140   23.5050 C   0  0  0  0  0  3  0  0  0  0  0  0
  -21.3400   -6.6650   24.6780 C   0  0  0  0  0  3  0  0  0  0  0  0
  -21.6370   -5.2900   24.7020 C   0  0  0  0  0  0  0  0  0  0  0  0
  -22.1590   -4.6620   23.5580 C   0  0  0  0  0  3  0  0  0  0  0  0
  -22.3790   -5.4080   22.3860 C   0  0  0  0  0  0  0  0  0  0  0  0
  -22.8580   -4.7930   21.2790 F   0  0  0  0  0  0  0  0  0  0  0  0
  -21.4230   -4.5680   25.8270 F   0  0  0  0  0  0  0  0  0  0  0  0
  -23.6080  -14.0510   21.0120 C   0  0  0  0  0  0  0  0  0  0  0  0
  -22.9200  -13.3710   21.9200 N   0  0  0  0  0  0  0  0  0  0  0  0
  -23.1730  -15.0970   20.5310 O   0  0  0  0  0  0  0  0  0  0  0  0
  -23.2900  -12.5240   22.3260 H   0  0  0  0  0  0  0  0  0  0  0  0
  -22.0070  -13.6940   22.2100 H   0  0  0  0  0  0  0  0  0  0  0  0
  -26.2390  -15.6460   20.1110 N   0  0  0  0  0  0  0  0  0  0  0  0
  -25.5110  -16.3150   20.3330 H   0  0  0  0  0  0  0  0  0  0  0  0
  -27.1130  -16.0790   19.8430 H   0  0  0  0  0  0  0  0  0  0  0  0
  -27.2460  -22.1420   20.8570 C   0  0  0  0  0  0  0  0  0  0  0  0
  -25.8870  -22.5700   20.3210 C   0  0  0  0  0  1  0  0  0  0  0  0
  -27.6960  -22.7020   21.8600 O   0  0  0  0  0  0  0  0  0  0  0  0
  -29.3230  -23.1350   18.7170 C   0  0  0  0  0  2  0  0  0  0  0  0
  -28.2640  -24.5690   18.7140 C   0  0  0  0  0  2  0  0  0  0  0  0
  -28.4790  -26.1670   18.9200 O   0  0  0  0  0  0  0  0  0  0  0  0
  -24.7890  -31.3510   22.9030 C   0  0  0  0  0  0  0  0  0  0  0  0
  -27.4150  -27.1850   19.0640 C   0  0  0  0  0  0  0  0  0  0  0  0
  -23.5870  -30.1950   21.0890 C   0  0  0  0  0  3  0  0  0  0  0  0
  -25.0430  -28.9100   19.3880 C   0  0  0  0  0  0  0  0  0  0  0  0
  -26.1360  -30.5460   20.9080 C   0  0  0  0  0  2  0  0  0  0  0  0
  -26.2330  -29.2720   20.0290 C   0  0  0  0  0  0  0  0  0  0  0  0
  -27.4170  -28.4370   19.8420 C   0  0  0  0  0  3  0  0  0  0  0  0
  -26.1870  -26.9630   18.4040 C   0  0  0  0  0  3  0  0  0  0  0  0
  -25.0400  -27.7800   18.5570 C   0  0  0  0  0  3  0  0  0  0  0  0
  -23.7960  -29.7580   19.6150 C   0  0  0  0  0  2  0  0  0  0  0  0
  -24.8590  -30.7170   21.6900 N   0  0  0  0  0  0  0  0  0  0  0  0
  -23.7100  -31.5080   23.4960 O   0  0  0  0  0  0  0  0  0  0  0  0
  -22.9580  -29.0270   21.8960 C   0  0  0  0  0  0  0  0  0  0  0  0
  -21.6310  -28.8360   21.7790 N   0  0  0  0  0  0  0  0  0  0  0  0
  -23.6690  -28.3020   22.5960 O   0  0  0  0  0  0  0  0  0  0  0  0
  -21.1120  -29.4660   21.1830 H   0  0  0  0  0  0  0  0  0  0  0  0
  -18.3150  -27.4240   22.1520 C   0  0  0  0  0  0  0  0  0  0  0  0
  -20.8640  -27.7620   22.4140 C   0  0  0  0  0  3  0  0  0  0  0  0
  -21.0150  -26.4410   21.6250 C   0  0  0  0  0  2  0  0  0  0  0  0
  -19.9040  -26.2220   20.5940 C   0  0  0  0  0  2  0  0  0  0  0  0
  -18.5360  -26.2000   21.2790 C   0  0  0  0  0  2  0  0  0  0  0  0
  -19.4080  -28.1640   22.6760 C   0  0  0  0  0  0  0  0  0  0  0  0
  -19.1450  -29.3030   23.4700 C   0  0  0  0  0  3  0  0  0  0  0  0
  -17.8220  -29.7040   23.7340 C   0  0  0  0  0  3  0  0  0  0  0  0
  -16.7450  -28.9660   23.2180 C   0  0  0  0  0  3  0  0  0  0  0  0
  -16.9910  -27.8260   22.4320 C   0  0  0  0  0  3  0  0  0  0  0  0
  -26.0610  -31.9260   23.5980 C   0  0  0  0  0  3  0  0  0  0  0  0
  -26.5540  -31.0450   24.8120 C   0  0  1  0  0  0  0  0  0  0  0  0
  -25.4490  -30.7430   25.8510 C   0  0  0  0  0  1  0  0  0  0  0  0
  -27.1190  -29.6930   24.3220 C   0  0  0  0  0  1  0  0  0  0  0  0
  -27.7120  -31.7640   25.5440 C   0  0  0  0  0  1  0  0  0  0  0  0
  -25.7470  -33.2900   24.0560 N   0  0  0  0  0  0  0  0  0  0  0  0
  -26.0940  -34.4130   23.4140 C   0  0  0  0  0  0  0  0  0  0  0  0
  -26.7740  -34.4100   22.3850 O   0  0  0  0  0  0  0  0  0  0  0  0
  -25.1430  -33.3670   24.8620 H   0  0  0  0  0  0  0  0  0  0  0  0
  -24.3810  -36.2510   23.2290 C   0  0  0  0  0  1  0  0  0  0  0  0
  -25.6120  -35.7550   24.0050 C   0  0  0  0  0  3  0  0  0  0  0  0
  -27.7360  -36.5490   24.9500 C   0  0  0  0  0  1  0  0  0  0  0  0
  -26.6510  -36.8080   24.0070 N   0  0  0  0  0  0  0  0  0  0  0  0
  -26.2460  -37.7130   24.2310 H   0  0  0  0  0  0  0  0  0  0  0  0
  2  5  1  0
  3  1  2  0
  3 47  1  0
  4  2  1  0
  6 10  1  0
  7  4  1  0
  7  1  1  0
  8 50  1  0
  8  3  1  0
  9  8  1  0
  9  7  1  0
  9  6  1  0
 10 11  1  6
 10  4  1  0
 10  5  1  0
 11 17  1  0
 12 17  1  0
 13 14  1  0
 13 12  1  0
 15 14  1  0
 15 22  1  0
 15 16  1  0
 17 16  1  0
 18 11  2  0
 19 20  2  0
 20 39  1  0
 21 20  1  0
 21 24  1  0
 22 23  1  0
 22 19  1  0
 23 21  2  0
 24 25  1  0
 25 26  2  0
 27 30  1  0
 27 26  1  0
 28 27  2  0
 29 28  1  0
 29 24  2  0
 30 31  1  0
 31 36  2  0
 31 32  1  0
 32 33  2  0
 33 34  1  0
 34 38  1  0
 35 34  2  0
 36 35  1  0
 37 36  1  0
 39 40  1  0
 40 43  1  0
 40 42  1  0
 41 39  2  0
 44 19  1  0
 44 45  1  0
 46 44  1  0
 47 49  2  0
 48 47  1  0
 51 50  1  0
 51 52  1  0
 52 54  1  0
 53 64  2  0
 54 59  1  0
 55 63  1  0
 55 65  1  0
 56 62  1  0
 56 58  1  0
 57 63  1  0
 58 57  1  0
 59 58  2  0
 60 61  1  0
 60 54  2  0
 61 56  2  0
 62 55  1  0
 63 53  1  0
 65 67  2  0
 66 65  1  0
 68 66  1  0
 69 78  2  0
 69 74  1  0
 70 66  1  0
 70 74  1  0
 71 70  1  0
 72 73  1  0
 72 71  1  0
 73 69  1  0
 74 75  2  0
 75 76  1  0
 77 76  2  0
 78 77  1  0
 79 53  1  0
 79 84  1  0
 79 80  1  0
 80 83  1  1
 80 81  1  0
 82 80  1  0
 84 87  1  0
 85 89  1  0
 85 84  1  0
 86 85  2  0
 89 88  1  0
 89 91  1  0
 91 92  1  0
 91 90  1  0
M  ISO  4  10 100  11 100  51 101  52 101
M  END
>  <TORSDO>  (94) 
F 19

>  <SCORE>  (94) 
-12.049

>  <name>  (94) 
93

>  <ligand_id>  (94) 
93

>  <original_smiles>  (94) 
[H]C1=C2C3([H])C([H])=C(C(=O)C([H])([H])[H])C([H])(C([H])([H])C([H])([H])Oc4c([H])c([H])c5c(c4[H])C([H])([H])N(C(=O)C([H])(N([H])C(=O)C([H])(N([H])C([H])([H])[H])C([H])([H])[H])C(C([H])([H])[H])(C([H])([H])[H])C([H])([H])[H])C([H])(C(=O)N([H])C4([H])c6c([H])c([H])c([H])c([H])c6C([H])([H])C([H])([H])C4([H])[H])C5([H])[H])C3([H])C([H])([H])C2(C(=O)N2C([H])([H])C([H])([H])C([H])([H])C([H])(n3nc(-c4c([H])c([H])c(Oc5c([H])c([H])c(F)c([H])c5F)c([H])c4[H])c(C(=O)N([H])[H])c3N([H])[H])C2([H])[H])C1([H])[H]

>  <smiles>  (94) 
[H]C1=C2C3([H])C([H])=C(C(=O)C([H])([H])[H])C([H])(C([H])([H])C([H])([H])Oc4c([H])c([H])c5c(c4[H])C([H])([H])N(C(=O)C([H])(N([H])C(=O)C([H])(N([H])C([H])([H])[H])C([H])([H])[H])C(C([H])([H])[H])(C([H])([H])[H])C([H])([H])[H])C([H])(C(=O)N([H])C4([H])c6c([H])c([H])c([H])c([H])c6C([H])([H])C([H])([H])C4([H])[H])C5([H])[H])C3([H])C([H])([H])C2(C(=O)N2C([H])([H])C([H])([H])C([H])([H])C([H])(n3nc(-c4c([H])c([H])c(Oc5c([H])c([H])c(F)c([H])c5F)c([H])c4[H])c(C(=O)N([H])[H])c3N([H])[H])C2([H])[H])C1([H])[H]

$$$$
94:0:0
     RDKit          3D

 87 96  0  0  1  0  0  0  0  0999 V2000
  -30.2860  -20.6420   19.6750 C   0  0  0  0  0  2  0  0  0  0  0  0
  -27.5850  -21.7610   20.1010 C   0  0  0  0  0  2  0  0  0  0  0  0
  -29.6030  -21.7890   20.5480 C   0  0  0  0  0  3  0  0  0  0  0  0
  -28.5410  -20.6740   20.7730 C   0  0  0  0  0  3  0  0  0  0  0  0
  -29.3460  -19.4110   20.0450 C   0  0  0  0  0  3  0  0  0  0  0  0
  -28.5800  -23.0020   20.0420 C   0  0  0  0  0  3  0  0  0  0  0  0
  -30.0440  -17.9250   20.6390 C   0  0  0  0  0  2  0  0  0  0  0  0
  -30.4430  -15.1320   20.2640 C   0  0  0  0  0  0  0  0  0  0  0  0
  -30.3380  -12.7550   19.3090 C   0  0  0  0  0  2  0  0  0  0  0  0
  -29.3910  -12.6520   18.0900 C   0  0  0  0  0  2  0  0  0  0  0  0
  -27.9380  -12.4170   18.5460 C   0  0  0  0  0  2  0  0  0  0  0  0
  -27.5320  -13.3490   19.7170 C   0  0  0  0  0  3  0  0  0  0  0  0
  -28.6010  -13.4070   20.8260 C   0  0  0  0  0  2  0  0  0  0  0  0
  -29.8430  -13.8630   20.1870 N   0  0  0  0  0  0  0  0  0  0  0  0
  -31.6600  -15.1530   20.0460 O   0  0  0  0  0  0  0  0  0  0  0  0
  -29.6840  -16.3650   20.3850 N   0  0  0  0  0  0  0  0  0  0  0  0
  -28.6920  -16.1840   20.4360 H   0  0  0  0  0  0  0  0  0  0  0  0
  -25.1640  -13.9160   20.4890 C   0  0  0  0  0  0  0  0  0  0  0  0
  -24.1060  -13.1390   20.8690 C   0  0  0  0  0  0  0  0  0  0  0  0
  -24.5730  -11.7900   20.8330 C   0  0  0  0  0  0  0  0  0  0  0  0
  -26.2060  -13.0410   20.2370 N   0  0  0  0  0  0  0  0  0  0  0  0
  -25.8620  -11.7560   20.5120 N   0  0  0  0  0  0  0  0  0  0  0  0
  -23.8490  -10.5260   21.0280 C   0  0  0  0  0  0  0  0  0  0  0  0
  -24.2880   -9.5580   21.9570 C   0  0  0  0  0  3  0  0  0  0  0  0
  -23.5620   -8.3610   22.1400 C   0  0  0  0  0  3  0  0  0  0  0  0
  -22.3820   -8.1250   21.3950 C   0  0  0  0  0  0  0  0  0  0  0  0
  -21.9620   -9.0830   20.4550 C   0  0  0  0  0  3  0  0  0  0  0  0
  -22.6880  -10.2710   20.2700 C   0  0  0  0  0  3  0  0  0  0  0  0
  -21.6260   -6.9810   21.4880 O   0  0  0  0  0  0  0  0  0  0  0  0
  -21.5890   -6.2360   22.6390 C   0  0  0  0  0  0  0  0  0  0  0  0
  -21.1720   -6.7860   23.8700 C   0  0  0  0  0  3  0  0  0  0  0  0
  -21.0830   -5.9660   25.0140 C   0  0  0  0  0  3  0  0  0  0  0  0
  -21.3980   -4.5980   24.9260 C   0  0  0  0  0  0  0  0  0  0  0  0
  -21.8090   -4.0470   23.6990 C   0  0  0  0  0  3  0  0  0  0  0  0
  -21.9000   -4.8620   22.5580 C   0  0  0  0  0  0  0  0  0  0  0  0
  -22.2750   -4.3220   21.3730 F   0  0  0  0  0  0  0  0  0  0  0  0
  -21.3050   -3.8080   26.0210 F   0  0  0  0  0  0  0  0  0  0  0  0
  -22.7110  -13.6160   21.1480 C   0  0  0  0  0  0  0  0  0  0  0  0
  -21.9870  -12.9180   22.0160 N   0  0  0  0  0  0  0  0  0  0  0  0
  -22.2710  -14.6420   20.6310 O   0  0  0  0  0  0  0  0  0  0  0  0
  -22.3570  -12.0880   22.4560 H   0  0  0  0  0  0  0  0  0  0  0  0
  -21.0500  -13.2180   22.2470 H   0  0  0  0  0  0  0  0  0  0  0  0
  -25.3210  -15.2880   20.3100 N   0  0  0  0  0  0  0  0  0  0  0  0
  -24.5490  -15.9360   20.4220 H   0  0  0  0  0  0  0  0  0  0  0  0
  -26.1520  -15.7280   19.9350 H   0  0  0  0  0  0  0  0  0  0  0  0
  -28.1100  -24.5530   20.6950 C   0  0  0  0  0  2  0  0  0  0  0  0
  -28.3240  -26.0860   20.2920 O   0  0  0  0  0  0  0  0  0  0  0  0
  -24.6540  -31.8930   23.2400 C   0  0  0  0  0  0  0  0  0  0  0  0
  -27.2720  -27.1030   20.2780 C   0  0  0  0  0  0  0  0  0  0  0  0
  -23.4770  -30.4800   21.6000 C   0  0  0  0  0  3  0  0  0  0  0  0
  -24.9460  -28.8890   20.2040 C   0  0  0  0  0  0  0  0  0  0  0  0
  -26.0370  -30.7370   21.4600 C   0  0  0  0  0  2  0  0  0  0  0  0
  -26.1230  -29.3320   20.8210 C   0  0  0  0  0  0  0  0  0  0  0  0
  -27.2880  -28.4600   20.8310 C   0  0  0  0  0  3  0  0  0  0  0  0
  -26.0660  -26.7780   19.6230 C   0  0  0  0  0  3  0  0  0  0  0  0
  -24.9350  -27.6270   19.5860 C   0  0  0  0  0  3  0  0  0  0  0  0
  -23.7180  -29.7900   20.2300 C   0  0  0  0  0  2  0  0  0  0  0  0
  -24.7430  -31.0610   22.1540 N   0  0  0  0  0  0  0  0  0  0  0  0
  -23.5610  -32.1760   23.7550 O   0  0  0  0  0  0  0  0  0  0  0  0
  -22.7900  -29.4800   22.5650 C   0  0  0  0  0  0  0  0  0  0  0  0
  -21.4650  -29.2950   22.4200 N   0  0  0  0  0  0  0  0  0  0  0  0
  -23.4530  -28.8720   23.4080 O   0  0  0  0  0  0  0  0  0  0  0  0
  -20.9840  -29.8360   21.7150 H   0  0  0  0  0  0  0  0  0  0  0  0
  -18.0940  -28.0400   22.8710 C   0  0  0  0  0  0  0  0  0  0  0  0
  -20.6420  -28.3560   23.1900 C   0  0  0  0  0  3  0  0  0  0  0  0
  -20.7820  -26.9170   22.6440 C   0  0  0  0  0  2  0  0  0  0  0  0
  -19.7100  -26.5550   21.6100 C   0  0  0  0  0  2  0  0  0  0  0  0
  -18.3110  -26.6840   22.2210 C   0  0  0  0  0  2  0  0  0  0  0  0
  -19.1880  -28.8320   23.3120 C   0  0  0  0  0  0  0  0  0  0  0  0
  -18.9300  -30.0980   23.8800 C   0  0  0  0  0  3  0  0  0  0  0  0
  -17.6120  -30.5740   24.0130 C   0  0  0  0  0  3  0  0  0  0  0  0
  -16.5320  -29.7810   23.5870 C   0  0  0  0  0  3  0  0  0  0  0  0
  -16.7750  -28.5160   23.0230 C   0  0  0  0  0  3  0  0  0  0  0  0
  -25.9210  -32.5430   23.8760 C   0  0  0  0  0  3  0  0  0  0  0  0
  -25.5950  -33.9420   24.1990 N   0  0  0  0  0  0  0  0  0  0  0  0
  -25.9200  -34.9980   23.4390 C   0  0  0  0  0  0  0  0  0  0  0  0
  -26.5880  -34.8970   22.4080 O   0  0  0  0  0  0  0  0  0  0  0  0
  -25.0010  -34.0930   25.0000 H   0  0  0  0  0  0  0  0  0  0  0  0
  -24.1740  -36.7800   23.0950 C   0  0  0  0  0  1  0  0  0  0  0  0
  -25.4260  -36.3860   23.8970 C   0  0  0  0  0  3  0  0  0  0  0  0
  -27.5590  -37.2950   24.7060 C   0  0  0  0  0  1  0  0  0  0  0  0
  -26.4490  -37.4470   23.7690 N   0  0  0  0  0  0  0  0  0  0  0  0
  -26.0360  -38.3650   23.9140 H   0  0  0  0  0  0  0  0  0  0  0  0
  -26.4210  -31.7870   25.1690 C   0  0  1  0  0  0  0  0  0  0  0  0
  -25.3140  -31.5580   26.2250 C   0  0  0  0  0  1  0  0  0  0  0  0
  -27.0130  -30.4060   24.8060 C   0  0  0  0  0  1  0  0  0  0  0  0
  -27.5600  -32.5910   25.8380 C   0  0  0  0  0  1  0  0  0  0  0  0
  1  5  1  0
  3  1  1  0
  3  4  1  0
  4  2  1  0
  5  7  1  0
  5  4  1  0
  6  2  1  0
  6  3  1  0
  6 46  1  0
  8 16  1  0
  9 14  1  0
 10 11  1  0
 10  9  1  0
 12 11  1  0
 12 21  1  0
 12 13  1  0
 14  8  1  0
 14 13  1  0
 15  8  2  0
 16 17  1  0
 16  7  1  0
 18 19  2  0
 19 38  1  0
 20 19  1  0
 20 23  1  0
 21 18  1  0
 21 22  1  0
 22 20  2  0
 23 24  1  0
 24 25  2  0
 26 29  1  0
 26 25  1  0
 27 26  2  0
 28 27  1  0
 28 23  2  0
 29 30  1  0
 30 31  1  0
 31 32  2  0
 33 32  1  0
 33 37  1  0
 34 33  2  0
 35 30  2  0
 35 34  1  0
 36 35  1  0
 38 39  1  0
 39 42  1  0
 39 41  1  0
 40 38  2  0
 43 44  1  0
 43 18  1  0
 45 43  1  0
 47 46  1  0
 48 59  2  0
 49 47  1  0
 49 54  1  0
 50 58  1  0
 50 60  1  0
 51 57  1  0
 51 53  1  0
 52 58  1  0
 53 54  2  0
 53 52  1  0
 55 49  2  0
 56 55  1  0
 56 51  2  0
 57 50  1  0
 58 48  1  0
 60 62  2  0
 61 60  1  0
 63 61  1  0
 64 73  2  0
 64 69  1  0
 65 61  1  0
 65 69  1  0
 66 65  1  0
 67 68  1  0
 67 66  1  0
 68 64  1  0
 69 70  2  0
 70 71  1  0
 72 71  2  0
 73 72  1  0
 74 48  1  0
 74 75  1  0
 74 84  1  0
 75 78  1  0
 76 80  1  0
 76 75  1  0
 77 76  2  0
 80 79  1  0
 82 80  1  0
 82 83  1  0
 82 81  1  0
 84 87  1  1
 84 85  1  0
 86 84  1  0
M  ISO  4   8 100  16 100  46 101  47 101
M  END
>  <TORSDO>  (95) 
F 18

>  <SCORE>  (95) 
-15.873

>  <name>  (95) 
94

>  <ligand_id>  (95) 
94

>  <original_smiles>  (95) 
[H]c1c([H])c([H])c2c(c1[H])C([H])([H])C([H])([H])C([H])([H])C2([H])N([H])C(=O)C1([H])N(C(=O)C([H])(N([H])C(=O)C([H])(N([H])C([H])([H])[H])C([H])([H])[H])C(C([H])([H])[H])(C([H])([H])[H])C([H])([H])[H])C([H])([H])c2c([H])c(OC([H])([H])C3([H])C([H])([H])C4([H])C([H])(C([H])([H])N([H])C(=O)N5C([H])([H])C([H])([H])C([H])([H])C([H])(n6nc(-c7c([H])c([H])c(Oc8c([H])c([H])c(F)c([H])c8F)c([H])c7[H])c(C(=O)N([H])[H])c6N([H])[H])C5([H])[H])C([H])([H])C34[H])c([H])c([H])c2C1([H])[H]

>  <smiles>  (95) 
[H]c1c([H])c([H])c2c(c1[H])C([H])([H])C([H])([H])C([H])([H])C2([H])N([H])C(=O)C1([H])N(C(=O)C([H])(N([H])C(=O)C([H])(N([H])C([H])([H])[H])C([H])([H])[H])C(C([H])([H])[H])(C([H])([H])[H])C([H])([H])[H])C([H])([H])c2c([H])c(OC([H])([H])C3([H])C([H])([H])C4([H])C([H])(C([H])([H])N([H])C(=O)N5C([H])([H])C([H])([H])C([H])([H])C([H])(n6nc(-c7c([H])c([H])c(Oc8c([H])c([H])c(F)c([H])c8F)c([H])c7[H])c(C(=O)N([H])[H])c6N([H])[H])C5([H])[H])C([H])([H])C34[H])c([H])c([H])c2C1([H])[H]

$$$$
95:0:0
     RDKit          3D

 87 96  0  0  1  0  0  0  0  0999 V2000
  -29.6880  -22.1310   21.3170 C   0  0  0  0  0  2  0  0  0  0  0  0
  -29.5600  -19.2380   21.5370 C   0  0  0  0  0  2  0  0  0  0  0  0
  -29.0980  -19.6250   19.2280 C   0  0  0  0  0  2  0  0  0  0  0  0
  -28.9360  -20.7380   21.3630 C   0  0  0  0  0  3  0  0  0  0  0  0
  -28.4800  -21.0360   19.9560 C   0  0  0  0  0  3  0  0  0  0  0  0
  -28.8800  -22.7460   20.1060 C   0  0  0  0  0  3  0  0  0  0  0  0
  -29.8010  -18.4090   20.1830 C   0  0  0  0  0  3  0  0  0  0  0  0
  -30.4180  -15.4650   19.9630 C   0  0  0  0  0  0  0  0  0  0  0  0
  -30.3880  -13.0290   19.0360 C   0  0  0  0  0  2  0  0  0  0  0  0
  -29.4020  -12.8150   17.8590 C   0  0  0  0  0  2  0  0  0  0  0  0
  -27.9860  -12.5090   18.3800 C   0  0  0  0  0  2  0  0  0  0  0  0
  -27.5840  -13.4460   19.5440 C   0  0  0  0  0  3  0  0  0  0  0  0
  -28.6930  -13.6000   20.6060 C   0  0  0  0  0  2  0  0  0  0  0  0
  -29.8690  -14.1480   19.9090 N   0  0  0  0  0  0  0  0  0  0  0  0
  -31.6270  -15.4810   19.6890 O   0  0  0  0  0  0  0  0  0  0  0  0
  -29.6340  -16.7260   20.1260 N   0  0  0  0  0  0  0  0  0  0  0  0
  -28.6660  -16.4750   20.2680 H   0  0  0  0  0  0  0  0  0  0  0  0
  -25.2610  -13.9550   20.4620 C   0  0  0  0  0  0  0  0  0  0  0  0
  -24.2300  -13.1550   20.8670 C   0  0  0  0  0  0  0  0  0  0  0  0
  -24.7050  -11.8110   20.7610 C   0  0  0  0  0  0  0  0  0  0  0  0
  -26.2940  -13.0980   20.1240 N   0  0  0  0  0  0  0  0  0  0  0  0
  -25.9760  -11.8010   20.3720 N   0  0  0  0  0  0  0  0  0  0  0  0
  -23.9990  -10.5370   20.9490 C   0  0  0  0  0  0  0  0  0  0  0  0
  -24.4410   -9.5760   21.8850 C   0  0  0  0  0  3  0  0  0  0  0  0
  -23.7310   -8.3690   22.0610 C   0  0  0  0  0  3  0  0  0  0  0  0
  -22.5650   -8.1130   21.3030 C   0  0  0  0  0  0  0  0  0  0  0  0
  -22.1420   -9.0630   20.3550 C   0  0  0  0  0  3  0  0  0  0  0  0
  -22.8530  -10.2610   20.1750 C   0  0  0  0  0  3  0  0  0  0  0  0
  -21.8260   -6.9580   21.3880 O   0  0  0  0  0  0  0  0  0  0  0  0
  -21.7130   -6.2620   22.5650 C   0  0  0  0  0  0  0  0  0  0  0  0
  -21.1660   -6.8480   23.7270 C   0  0  0  0  0  3  0  0  0  0  0  0
  -21.0040   -6.0760   24.8950 C   0  0  0  0  0  3  0  0  0  0  0  0
  -21.3780   -4.7190   24.9010 C   0  0  0  0  0  0  0  0  0  0  0  0
  -21.9180   -4.1330   23.7430 C   0  0  0  0  0  3  0  0  0  0  0  0
  -22.0810   -4.9020   22.5770 C   0  0  0  0  0  0  0  0  0  0  0  0
  -22.5820   -4.3260   21.4580 F   0  0  0  0  0  0  0  0  0  0  0  0
  -21.2160   -3.9750   26.0200 F   0  0  0  0  0  0  0  0  0  0  0  0
  -22.8480  -13.6100   21.2310 C   0  0  0  0  0  0  0  0  0  0  0  0
  -22.1760  -12.8820   22.1160 N   0  0  0  0  0  0  0  0  0  0  0  0
  -22.3740  -14.6480   20.7670 O   0  0  0  0  0  0  0  0  0  0  0  0
  -22.5740  -12.0440   22.5120 H   0  0  0  0  0  0  0  0  0  0  0  0
  -21.2510  -13.1690   22.4020 H   0  0  0  0  0  0  0  0  0  0  0  0
  -25.4000  -15.3320   20.3210 N   0  0  0  0  0  0  0  0  0  0  0  0
  -24.6300  -15.9690   20.4950 H   0  0  0  0  0  0  0  0  0  0  0  0
  -26.2050  -15.7910   19.9150 H   0  0  0  0  0  0  0  0  0  0  0  0
  -27.9200  -24.2980   20.2290 C   0  0  0  0  0  2  0  0  0  0  0  0
  -28.1920  -25.9410   20.2680 O   0  0  0  0  0  0  0  0  0  0  0  0
  -24.6580  -31.9490   23.2680 C   0  0  0  0  0  0  0  0  0  0  0  0
  -27.1850  -27.0530   20.2290 C   0  0  0  0  0  0  0  0  0  0  0  0
  -23.4550  -30.5640   21.6280 C   0  0  0  0  0  3  0  0  0  0  0  0
  -24.8940  -28.9570   20.1970 C   0  0  0  0  0  0  0  0  0  0  0  0
  -26.0240  -30.7610   21.4770 C   0  0  0  0  0  2  0  0  0  0  0  0
  -26.0870  -29.3500   20.8150 C   0  0  0  0  0  0  0  0  0  0  0  0
  -27.2270  -28.4220   20.8020 C   0  0  0  0  0  3  0  0  0  0  0  0
  -25.9590  -26.8170   19.5660 C   0  0  0  0  0  3  0  0  0  0  0  0
  -24.8560  -27.7110   19.5510 C   0  0  0  0  0  3  0  0  0  0  0  0
  -23.6800  -29.8850   20.2490 C   0  0  0  0  0  2  0  0  0  0  0  0
  -24.7350  -31.1180   22.1780 N   0  0  0  0  0  0  0  0  0  0  0  0
  -23.5710  -32.2410   23.7930 O   0  0  0  0  0  0  0  0  0  0  0  0
  -22.7590  -29.5680   22.5930 C   0  0  0  0  0  0  0  0  0  0  0  0
  -21.4290  -29.3970   22.4610 N   0  0  0  0  0  0  0  0  0  0  0  0
  -23.4210  -28.9480   23.4280 O   0  0  0  0  0  0  0  0  0  0  0  0
  -20.9480  -29.9480   21.7650 H   0  0  0  0  0  0  0  0  0  0  0  0
  -18.0490  -28.1710   22.9540 C   0  0  0  0  0  0  0  0  0  0  0  0
  -20.6070  -28.4580   23.2300 C   0  0  0  0  0  3  0  0  0  0  0  0
  -20.7210  -27.0240   22.6610 C   0  0  0  0  0  2  0  0  0  0  0  0
  -19.6260  -26.6910   21.6410 C   0  0  0  0  0  2  0  0  0  0  0  0
  -18.2410  -26.8240   22.2780 C   0  0  0  0  0  2  0  0  0  0  0  0
  -19.1610  -28.9440   23.3870 C   0  0  0  0  0  0  0  0  0  0  0  0
  -18.9260  -30.2030   23.9830 C   0  0  0  0  0  3  0  0  0  0  0  0
  -17.6150  -30.6890   24.1480 C   0  0  0  0  0  3  0  0  0  0  0  0
  -16.5200  -29.9130   23.7290 C   0  0  0  0  0  3  0  0  0  0  0  0
  -16.7380  -28.6570   23.1390 C   0  0  0  0  0  3  0  0  0  0  0  0
  -25.9320  -32.5870   23.9010 C   0  0  0  0  0  3  0  0  0  0  0  0
  -25.6200  -33.9860   24.2390 N   0  0  0  0  0  0  0  0  0  0  0  0
  -25.9190  -35.0460   23.4760 C   0  0  0  0  0  0  0  0  0  0  0  0
  -26.5490  -34.9480   22.4200 O   0  0  0  0  0  0  0  0  0  0  0  0
  -25.0540  -34.1350   25.0610 H   0  0  0  0  0  0  0  0  0  0  0  0
  -24.1550  -36.8270   23.2260 C   0  0  0  0  0  1  0  0  0  0  0  0
  -25.4490  -36.4350   23.9590 C   0  0  0  0  0  3  0  0  0  0  0  0
  -27.6170  -37.3550   24.6570 C   0  0  0  0  0  1  0  0  0  0  0  0
  -26.4610  -37.4980   23.7760 N   0  0  0  0  0  0  0  0  0  0  0  0
  -26.0530  -38.4160   23.9350 H   0  0  0  0  0  0  0  0  0  0  0  0
  -26.4340  -31.8190   25.1870 C   0  0  1  0  0  0  0  0  0  0  0  0
  -25.3310  -31.5890   26.2470 C   0  0  0  0  0  1  0  0  0  0  0  0
  -27.0170  -30.4360   24.8140 C   0  0  0  0  0  1  0  0  0  0  0  0
  -27.5820  -32.6130   25.8550 C   0  0  0  0  0  1  0  0  0  0  0  0
  3  7  1  0
  4  1  1  0
  4  2  1  0
  5  3  1  0
  5  6  1  0
  5  4  1  0
  6 46  1  0
  6  1  1  0
  7 16  1  0
  7  2  1  0
  8 16  1  0
  9 14  1  0
 10 11  1  0
 10  9  1  0
 12 11  1  0
 12 21  1  0
 12 13  1  0
 14  8  1  0
 14 13  1  0
 15  8  2  0
 16 17  1  0
 18 19  2  0
 19 38  1  0
 20 19  1  0
 20 23  1  0
 21 22  1  0
 21 18  1  0
 22 20  2  0
 23 24  1  0
 24 25  2  0
 26 29  1  0
 26 25  1  0
 27 26  2  0
 28 27  1  0
 28 23  2  0
 29 30  1  0
 30 35  2  0
 30 31  1  0
 31 32  2  0
 32 33  1  0
 33 37  1  0
 34 33  2  0
 35 34  1  0
 36 35  1  0
 38 39  1  0
 39 42  1  0
 39 41  1  0
 40 38  2  0
 43 18  1  0
 43 44  1  0
 45 43  1  0
 46 47  1  0
 48 59  2  0
 49 47  1  0
 49 54  1  0
 50 58  1  0
 50 60  1  0
 51 57  1  0
 51 53  1  0
 52 58  1  0
 53 52  1  0
 54 53  2  0
 55 49  2  0
 56 55  1  0
 56 51  2  0
 57 50  1  0
 58 48  1  0
 60 62  2  0
 61 60  1  0
 63 61  1  0
 64 73  2  0
 64 69  1  0
 65 61  1  0
 65 69  1  0
 66 65  1  0
 67 68  1  0
 67 66  1  0
 68 64  1  0
 69 70  2  0
 70 71  1  0
 72 71  2  0
 73 72  1  0
 74 48  1  0
 74 75  1  0
 74 84  1  0
 75 78  1  0
 76 80  1  0
 76 75  1  0
 77 76  2  0
 80 79  1  0
 82 83  1  0
 82 80  1  0
 82 81  1  0
 84 87  1  1
 84 85  1  0
 86 84  1  0
M  ISO  4   8 100  16 100  46 101  47 101
M  END
>  <TORSDO>  (96) 
F 17

>  <SCORE>  (96) 
-15.924

>  <name>  (96) 
95

>  <ligand_id>  (96) 
95

>  <original_smiles>  (96) 
[H]c1c([H])c([H])c2c(c1[H])C([H])([H])C([H])([H])C([H])([H])C2([H])N([H])C(=O)C1([H])N(C(=O)C([H])(N([H])C(=O)C([H])(N([H])C([H])([H])[H])C([H])([H])[H])C(C([H])([H])[H])(C([H])([H])[H])C([H])([H])[H])C([H])([H])c2c([H])c(OC([H])([H])C3([H])C([H])([H])C4([H])C([H])([H])C([H])(N([H])C(=O)N5C([H])([H])C([H])([H])C([H])([H])C([H])(n6nc(-c7c([H])c([H])c(Oc8c([H])c([H])c(F)c([H])c8F)c([H])c7[H])c(C(=O)N([H])[H])c6N([H])[H])C5([H])[H])C([H])([H])C34[H])c([H])c([H])c2C1([H])[H]

>  <smiles>  (96) 
[H]c1c([H])c([H])c2c(c1[H])C([H])([H])C([H])([H])C([H])([H])C2([H])N([H])C(=O)C1([H])N(C(=O)C([H])(N([H])C(=O)C([H])(N([H])C([H])([H])[H])C([H])([H])[H])C(C([H])([H])[H])(C([H])([H])[H])C([H])([H])[H])C([H])([H])c2c([H])c(OC([H])([H])C3([H])C([H])([H])C4([H])C([H])([H])C([H])(N([H])C(=O)N5C([H])([H])C([H])([H])C([H])([H])C([H])(n6nc(-c7c([H])c([H])c(Oc8c([H])c([H])c(F)c([H])c8F)c([H])c7[H])c(C(=O)N([H])[H])c6N([H])[H])C5([H])[H])C([H])([H])C34[H])c([H])c([H])c2C1([H])[H]

$$$$
96:0:0
     RDKit          3D

 90 98  0  0  1  0  0  0  0  0999 V2000
  -28.1590  -22.6220   21.2770 C   0  0  0  0  0  3  0  0  0  0  0  0
  -29.1740  -24.2190   19.2730 C   0  0  0  0  0  3  0  0  0  0  0  0
  -29.0410  -21.9320   20.3740 C   0  0  0  0  0  0  0  0  0  0  0  0
  -27.8280  -24.0390   21.2130 C   0  0  0  0  0  0  0  0  0  0  0  0
  -29.5100  -22.8110   19.3400 C   0  0  0  0  0  0  0  0  0  0  0  0
  -28.3570  -24.9260   20.2120 C   0  0  0  0  0  0  0  0  0  0  0  0
  -26.9240  -24.6100   22.2930 C   0  0  0  0  0  1  0  0  0  0  0  0
  -30.4790  -22.2780   18.2960 C   0  0  0  0  0  1  0  0  0  0  0  0
  -28.3090  -26.3830   20.2060 O   0  0  0  0  0  0  0  0  0  0  0  0
  -24.6130  -31.9240   23.2390 C   0  0  0  0  0  0  0  0  0  0  0  0
  -27.1840  -27.2560   20.2000 C   0  0  0  0  0  0  0  0  0  0  0  0
  -23.4010  -30.5230   21.6080 C   0  0  0  0  0  3  0  0  0  0  0  0
  -24.8400  -28.9440   20.1780 C   0  0  0  0  0  0  0  0  0  0  0  0
  -25.9450  -30.8050   21.4220 C   0  0  0  0  0  2  0  0  0  0  0  0
  -26.0160  -29.4130   20.7780 C   0  0  0  0  0  0  0  0  0  0  0  0
  -27.1860  -28.5810   20.7730 C   0  0  0  0  0  3  0  0  0  0  0  0
  -25.9860  -26.8610   19.5690 C   0  0  0  0  0  3  0  0  0  0  0  0
  -24.8330  -27.6790   19.5630 C   0  0  0  0  0  3  0  0  0  0  0  0
  -23.6100  -29.8380   20.2290 C   0  0  0  0  0  2  0  0  0  0  0  0
  -24.6730  -31.1060   22.1450 N   0  0  0  0  0  0  0  0  0  0  0  0
  -23.5320  -32.2080   23.7760 O   0  0  0  0  0  0  0  0  0  0  0  0
  -22.7320  -29.5180   22.5790 C   0  0  0  0  0  0  0  0  0  0  0  0
  -21.4040  -29.3460   22.4550 N   0  0  0  0  0  0  0  0  0  0  0  0
  -23.4070  -28.8950   23.4010 O   0  0  0  0  0  0  0  0  0  0  0  0
  -20.9160  -29.9060   21.7690 H   0  0  0  0  0  0  0  0  0  0  0  0
  -18.0270  -28.1420   22.9660 C   0  0  0  0  0  0  0  0  0  0  0  0
  -20.5850  -28.4090   23.2290 C   0  0  0  0  0  3  0  0  0  0  0  0
  -20.6880  -26.9740   22.6610 C   0  0  0  0  0  2  0  0  0  0  0  0
  -19.5870  -26.6470   21.6470 C   0  0  0  0  0  2  0  0  0  0  0  0
  -18.2050  -26.7910   22.2910 C   0  0  0  0  0  2  0  0  0  0  0  0
  -19.1450  -28.9080   23.3910 C   0  0  0  0  0  0  0  0  0  0  0  0
  -18.9240  -30.1700   23.9810 C   0  0  0  0  0  3  0  0  0  0  0  0
  -17.6190  -30.6700   24.1480 C   0  0  0  0  0  3  0  0  0  0  0  0
  -16.5160  -29.9000   23.7410 C   0  0  0  0  0  3  0  0  0  0  0  0
  -16.7200  -28.6380   23.1560 C   0  0  0  0  0  3  0  0  0  0  0  0
  -25.8950  -32.5580   23.8580 C   0  0  0  0  0  3  0  0  0  0  0  0
  -26.4060  -31.7920   25.1410 C   0  0  1  0  0  0  0  0  0  0  0  0
  -25.3080  -31.5650   26.2090 C   0  0  0  0  0  1  0  0  0  0  0  0
  -26.9830  -30.4100   24.7620 C   0  0  0  0  0  1  0  0  0  0  0  0
  -27.5610  -32.5860   25.7960 C   0  0  0  0  0  1  0  0  0  0  0  0
  -25.5920  -33.9600   24.1850 N   0  0  0  0  0  0  0  0  0  0  0  0
  -25.9190  -35.0090   23.4190 C   0  0  0  0  0  0  0  0  0  0  0  0
  -26.5750  -34.8990   22.3810 O   0  0  0  0  0  0  0  0  0  0  0  0
  -25.0050  -34.1170   24.9910 H   0  0  0  0  0  0  0  0  0  0  0  0
  -24.1870  -36.8080   23.0880 C   0  0  0  0  0  1  0  0  0  0  0  0
  -25.4430  -36.4030   23.8770 C   0  0  0  0  0  3  0  0  0  0  0  0
  -27.5930  -37.2910   24.6630 C   0  0  0  0  0  1  0  0  0  0  0  0
  -26.4750  -37.4530   23.7370 N   0  0  0  0  0  0  0  0  0  0  0  0
  -26.0740  -38.3760   23.8840 H   0  0  0  0  0  0  0  0  0  0  0  0
  -29.6920  -20.4570   20.6920 C   0  0  0  0  0  2  0  0  0  0  0  0
  -29.2250  -18.9250   20.2430 C   0  0  0  0  0  3  0  0  0  0  0  0
  -30.1740  -17.6060   20.6340 C   0  0  0  0  0  3  0  0  0  0  0  0
  -30.5450  -14.9340   20.3460 C   0  0  0  0  0  0  0  0  0  0  0  0
  -30.3980  -12.6060   19.3750 C   0  0  0  0  0  2  0  0  0  0  0  0
  -29.4650  -12.5970   18.1430 C   0  0  0  0  0  2  0  0  0  0  0  0
  -28.0020  -12.3950   18.5810 C   0  0  0  0  0  2  0  0  0  0  0  0
  -27.6010  -13.3180   19.7620 C   0  0  0  0  0  3  0  0  0  0  0  0
  -28.6550  -13.3030   20.8880 C   0  0  0  0  0  2  0  0  0  0  0  0
  -29.9340  -13.6900   20.2820 N   0  0  0  0  0  0  0  0  0  0  0  0
  -31.7500  -15.0050   20.0880 O   0  0  0  0  0  0  0  0  0  0  0  0
  -29.7690  -16.1010   20.5000 N   0  0  0  0  0  0  0  0  0  0  0  0
  -28.7830  -15.9180   20.6160 H   0  0  0  0  0  0  0  0  0  0  0  0
  -25.2160  -13.8970   20.4930 C   0  0  0  0  0  0  0  0  0  0  0  0
  -24.1540  -13.1200   20.8620 C   0  0  0  0  0  0  0  0  0  0  0  0
  -24.6220  -11.7710   20.8370 C   0  0  0  0  0  0  0  0  0  0  0  0
  -26.2620  -13.0210   20.2600 N   0  0  0  0  0  0  0  0  0  0  0  0
  -25.9140  -11.7370   20.5320 N   0  0  0  0  0  0  0  0  0  0  0  0
  -23.8990  -10.5060   21.0270 C   0  0  0  0  0  0  0  0  0  0  0  0
  -24.3310   -9.5420   21.9650 C   0  0  0  0  0  3  0  0  0  0  0  0
  -23.6090   -8.3430   22.1430 C   0  0  0  0  0  3  0  0  0  0  0  0
  -22.4390   -8.0990   21.3840 C   0  0  0  0  0  0  0  0  0  0  0  0
  -22.0270   -9.0510   20.4340 C   0  0  0  0  0  3  0  0  0  0  0  0
  -22.7510  -10.2420   20.2550 C   0  0  0  0  0  3  0  0  0  0  0  0
  -21.6870   -6.9530   21.4720 O   0  0  0  0  0  0  0  0  0  0  0  0
  -21.6330   -6.2150   22.6270 C   0  0  0  0  0  0  0  0  0  0  0  0
  -21.1880   -6.7710   23.8470 C   0  0  0  0  0  3  0  0  0  0  0  0
  -21.0840   -5.9590   24.9940 C   0  0  0  0  0  3  0  0  0  0  0  0
  -21.4120   -4.5910   24.9220 C   0  0  0  0  0  0  0  0  0  0  0  0
  -21.8490   -4.0350   23.7070 C   0  0  0  0  0  3  0  0  0  0  0  0
  -21.9570   -4.8450   22.5630 C   0  0  0  0  0  0  0  0  0  0  0  0
  -22.3590   -4.2990   21.3900 F   0  0  0  0  0  0  0  0  0  0  0  0
  -21.3030   -3.8090   26.0210 F   0  0  0  0  0  0  0  0  0  0  0  0
  -22.7530  -13.5910   21.1290 C   0  0  0  0  0  0  0  0  0  0  0  0
  -22.0260  -12.8950   21.9940 N   0  0  0  0  0  0  0  0  0  0  0  0
  -22.3140  -14.6130   20.6010 O   0  0  0  0  0  0  0  0  0  0  0  0
  -22.3950  -12.0680   22.4410 H   0  0  0  0  0  0  0  0  0  0  0  0
  -21.0860  -13.1900   22.2130 H   0  0  0  0  0  0  0  0  0  0  0  0
  -25.3730  -15.2680   20.3100 N   0  0  0  0  0  0  0  0  0  0  0  0
  -24.5930  -15.9120   20.3960 H   0  0  0  0  0  0  0  0  0  0  0  0
  -26.2080  -15.7080   19.9450 H   0  0  0  0  0  0  0  0  0  0  0  0
  2  5  2  0
  2  6  1  0
  3 50  1  0
  3  1  2  0
  4  1  1  0
  4  7  1  0
  5  3  1  0
  6  4  2  0
  8  5  1  0
  9  6  1  0
 10 21  2  0
 11  9  1  0
 11 16  1  0
 12 20  1  0
 12 22  1  0
 13 19  1  0
 13 15  1  0
 14 20  1  0
 15 14  1  0
 16 15  2  0
 17 11  2  0
 18 17  1  0
 18 13  2  0
 19 12  1  0
 20 10  1  0
 22 24  2  0
 23 22  1  0
 25 23  1  0
 26 35  2  0
 26 31  1  0
 27 23  1  0
 27 31  1  0
 28 27  1  0
 29 30  1  0
 29 28  1  0
 30 26  1  0
 31 32  2  0
 32 33  1  0
 34 33  2  0
 35 34  1  0
 36 10  1  0
 36 41  1  0
 36 37  1  0
 37 40  1  1
 37 38  1  0
 39 37  1  0
 41 44  1  0
 42 46  1  0
 42 41  1  0
 43 42  2  0
 46 45  1  0
 48 46  1  0
 48 49  1  0
 48 47  1  0
 51 52  2  0
 51 50  1  0
 53 61  1  0
 54 59  1  0
 55 56  1  0
 55 54  1  0
 57 56  1  0
 57 66  1  0
 57 58  1  0
 59 53  1  0
 59 58  1  0
 60 53  2  0
 61 62  1  0
 61 52  1  0
 63 64  2  0
 64 83  1  0
 65 64  1  0
 65 68  1  0
 66 63  1  0
 66 67  1  0
 67 65  2  0
 68 69  1  0
 69 70  2  0
 71 74  1  0
 71 70  1  0
 72 71  2  0
 73 72  1  0
 73 68  2  0
 74 75  1  0
 75 76  1  0
 76 77  2  0
 78 77  1  0
 78 82  1  0
 79 78  2  0
 80 75  2  0
 80 79  1  0
 81 80  1  0
 83 84  1  0
 84 87  1  0
 84 86  1  0
 85 83  2  0
 88 89  1  0
 88 63  1  0
 90 88  1  0
M  ISO  4   6 101   9 101  53 100  61 100
M  END
>  <TORSDO>  (97) 
F 19

>  <SCORE>  (97) 
-14.111

>  <name>  (97) 
96

>  <ligand_id>  (97) 
96

>  <original_smiles>  (97) 
[H]c1c([H])c([H])c2c(c1[H])C([H])([H])C([H])([H])C([H])([H])C2([H])N([H])C(=O)C1([H])N(C(=O)C([H])(N([H])C(=O)C([H])(N([H])C([H])([H])[H])C([H])([H])[H])C(C([H])([H])[H])(C([H])([H])[H])C([H])([H])[H])C([H])([H])c2c([H])c(Oc3c([H])c(C([H])([H])[H])c(C([H])([H])C([H])([H])C([H])([H])N([H])C(=O)N4C([H])([H])C([H])([H])C([H])([H])C([H])(n5nc(-c6c([H])c([H])c(Oc7c([H])c([H])c(F)c([H])c7F)c([H])c6[H])c(C(=O)N([H])[H])c5N([H])[H])C4([H])[H])c([H])c3C([H])([H])[H])c([H])c([H])c2C1([H])[H]

>  <smiles>  (97) 
[H]c1c([H])c([H])c2c(c1[H])C([H])([H])C([H])([H])C([H])([H])C2([H])N([H])C(=O)C1([H])N(C(=O)C([H])(N([H])C(=O)C([H])(N([H])C([H])([H])[H])C([H])([H])[H])C(C([H])([H])[H])(C([H])([H])[H])C([H])([H])[H])C([H])([H])c2c([H])c(Oc3c([H])c(C([H])([H])[H])c(C([H])([H])C([H])([H])C([H])([H])N([H])C(=O)N4C([H])([H])C([H])([H])C([H])([H])C([H])(n5nc(-c6c([H])c([H])c(Oc7c([H])c([H])c(F)c([H])c7F)c([H])c6[H])c(C(=O)N([H])[H])c5N([H])[H])C4([H])[H])c([H])c3C([H])([H])[H])c([H])c([H])c2C1([H])[H]

$$$$
