0:0:0
     RDKit          3D

 92100  0  0  1  0  0  0  0  0999 V2000
  -30.8990  -21.6640   20.3910 C   0  0  0  0  0  3  0  0  0  0  0  0
  -30.3860  -24.3580   19.9960 C   0  0  0  0  0  3  0  0  0  0  0  0
  -29.5230  -22.0330   20.3510 C   0  0  0  0  0  0  0  0  0  0  0  0
  -31.9740  -22.5550   20.2520 C   0  0  0  0  0  0  0  0  0  0  0  0
  -29.2390  -23.5350   20.1490 C   0  0  0  0  0  0  0  0  0  0  0  0
  -31.7140  -23.9130   20.0370 C   0  0  0  0  0  0  0  0  0  0  0  0
  -33.4000  -22.0320   20.3130 C   0  0  0  0  0  1  0  0  0  0  0  0
  -32.8460  -24.9080   19.8370 C   0  0  0  0  0  1  0  0  0  0  0  0
  -28.7070  -20.6370   20.4330 C   0  0  0  0  0  0  0  0  0  0  0  0
  -27.5070  -20.6520   20.1500 O   0  0  0  0  0  0  0  0  0  0  0  0
  -29.3120  -19.1400   20.9420 C   0  0  0  0  0  2  0  0  0  0  0  0
  -29.8770  -17.7890   20.0610 C   0  0  0  0  0  2  0  0  0  0  0  0
  -30.4370  -15.0510   20.1500 C   0  0  0  0  0  0  0  0  0  0  0  0
  -30.2700  -12.7290   19.1260 C   0  0  0  0  0  2  0  0  0  0  0  0
  -29.2840  -12.7440   17.9370 C   0  0  0  0  0  2  0  0  0  0  0  0
  -27.8370  -12.5300   18.4190 C   0  0  0  0  0  2  0  0  0  0  0  0
  -27.4970  -13.3870   19.6670 C   0  0  0  0  0  3  0  0  0  0  0  0
  -28.6050  -13.3430   20.7400 C   0  0  0  0  0  2  0  0  0  0  0  0
  -29.8440  -13.7880   20.0920 N   0  0  0  0  0  0  0  0  0  0  0  0
  -31.6160  -15.1260   19.7820 O   0  0  0  0  0  0  0  0  0  0  0  0
  -29.6730  -16.2370   20.4050 N   0  0  0  0  0  0  0  0  0  0  0  0
  -28.7350  -16.0100   20.7040 H   0  0  0  0  0  0  0  0  0  0  0  0
  -25.1470  -13.9280   20.5170 C   0  0  0  0  0  0  0  0  0  0  0  0
  -24.1080  -13.1370   20.9190 C   0  0  0  0  0  0  0  0  0  0  0  0
  -24.5820  -11.7910   20.8420 C   0  0  0  0  0  0  0  0  0  0  0  0
  -26.1860  -13.0630   20.2150 N   0  0  0  0  0  0  0  0  0  0  0  0
  -25.8590  -11.7720   20.4780 N   0  0  0  0  0  0  0  0  0  0  0  0
  -23.8730  -10.5190   21.0370 C   0  0  0  0  0  0  0  0  0  0  0  0
  -24.3410   -9.5430   21.9440 C   0  0  0  0  0  3  0  0  0  0  0  0
  -23.6280   -8.3380   22.1290 C   0  0  0  0  0  3  0  0  0  0  0  0
  -22.4330   -8.1020   21.4090 C   0  0  0  0  0  0  0  0  0  0  0  0
  -21.9850   -9.0680   20.4900 C   0  0  0  0  0  3  0  0  0  0  0  0
  -22.6990  -10.2630   20.3010 C   0  0  0  0  0  3  0  0  0  0  0  0
  -21.6890   -6.9500   21.5030 O   0  0  0  0  0  0  0  0  0  0  0  0
  -21.6730   -6.1960   22.6490 C   0  0  0  0  0  0  0  0  0  0  0  0
  -21.2290   -6.7220   23.8810 C   0  0  0  0  0  3  0  0  0  0  0  0
  -21.1640   -5.8930   25.0200 C   0  0  0  0  0  3  0  0  0  0  0  0
  -21.5310   -4.5370   24.9230 C   0  0  0  0  0  0  0  0  0  0  0  0
  -21.9700   -4.0100   23.6960 C   0  0  0  0  0  3  0  0  0  0  0  0
  -22.0370   -4.8370   22.5620 C   0  0  0  0  0  0  0  0  0  0  0  0
  -22.4370   -4.3180   21.3750 F   0  0  0  0  0  0  0  0  0  0  0  0
  -21.4640   -3.7360   26.0140 F   0  0  0  0  0  0  0  0  0  0  0  0
  -22.7190  -13.5990   21.2510 C   0  0  0  0  0  0  0  0  0  0  0  0
  -22.0350  -12.8910   22.1410 N   0  0  0  0  0  0  0  0  0  0  0  0
  -22.2510  -14.6230   20.7570 O   0  0  0  0  0  0  0  0  0  0  0  0
  -22.4280  -12.0640   22.5650 H   0  0  0  0  0  0  0  0  0  0  0  0
  -21.1040  -13.1840   22.4010 H   0  0  0  0  0  0  0  0  0  0  0  0
  -25.2930  -15.3040   20.3580 N   0  0  0  0  0  0  0  0  0  0  0  0
  -24.5260  -15.9470   20.5170 H   0  0  0  0  0  0  0  0  0  0  0  0
  -26.1040  -15.7590   19.9590 H   0  0  0  0  0  0  0  0  0  0  0  0
  -27.9300  -24.5450   20.0630 C   0  0  0  0  0  2  0  0  0  0  0  0
  -28.1060  -26.1200   20.0490 O   0  0  0  0  0  0  0  0  0  0  0  0
  -24.5610  -31.8320   23.1500 C   0  0  0  0  0  0  0  0  0  0  0  0
  -27.0390  -27.1000   20.0240 C   0  0  0  0  0  0  0  0  0  0  0  0
  -23.3160  -30.4520   21.5320 C   0  0  0  0  0  3  0  0  0  0  0  0
  -24.7210  -28.8720   20.0600 C   0  0  0  0  0  0  0  0  0  0  0  0
  -25.8670  -30.6960   21.3130 C   0  0  0  0  0  2  0  0  0  0  0  0
  -25.9160  -29.3070   20.6440 C   0  0  0  0  0  0  0  0  0  0  0  0
  -27.0750  -28.4370   20.6040 C   0  0  0  0  0  3  0  0  0  0  0  0
  -25.8130  -26.7680   19.4110 C   0  0  0  0  0  3  0  0  0  0  0  0
  -24.6820  -27.6180   19.4280 C   0  0  0  0  0  3  0  0  0  0  0  0
  -23.4990  -29.7750   20.1460 C   0  0  0  0  0  2  0  0  0  0  0  0
  -24.6030  -31.0160   22.0520 N   0  0  0  0  0  0  0  0  0  0  0  0
  -23.4890  -32.1240   23.7030 O   0  0  0  0  0  0  0  0  0  0  0  0
  -22.6540  -29.4450   22.5060 C   0  0  0  0  0  0  0  0  0  0  0  0
  -21.3330  -29.2390   22.3680 N   0  0  0  0  0  0  0  0  0  0  0  0
  -23.3320  -28.8540   23.3490 O   0  0  0  0  0  0  0  0  0  0  0  0
  -20.8410  -29.7680   21.6630 H   0  0  0  0  0  0  0  0  0  0  0  0
  -17.9940  -27.9020   22.8020 C   0  0  0  0  0  0  0  0  0  0  0  0
  -20.5270  -28.2950   23.1450 C   0  0  0  0  0  3  0  0  0  0  0  0
  -20.7140  -26.8490   22.6280 C   0  0  0  0  0  2  0  0  0  0  0  0
  -19.6660  -26.4390   21.5890 C   0  0  0  0  0  2  0  0  0  0  0  0
  -18.2560  -26.5410   22.1800 C   0  0  0  0  0  2  0  0  0  0  0  0
  -19.0600  -28.7330   23.2400 C   0  0  0  0  0  0  0  0  0  0  0  0
  -18.7620  -30.0020   23.7790 C   0  0  0  0  0  3  0  0  0  0  0  0
  -17.4290  -30.4420   23.8880 C   0  0  0  0  0  3  0  0  0  0  0  0
  -16.3770  -29.6100   23.4700 C   0  0  0  0  0  3  0  0  0  0  0  0
  -16.6600  -28.3420   22.9300 C   0  0  0  0  0  3  0  0  0  0  0  0
  -25.8580  -32.4570   23.7520 C   0  0  0  0  0  3  0  0  0  0  0  0
  -26.3950  -31.6770   25.0160 C   0  0  1  0  0  0  0  0  0  0  0  0
  -25.3200  -31.4400   26.1030 C   0  0  0  0  0  1  0  0  0  0  0  0
  -26.9620  -30.2950   24.6160 C   0  0  0  0  0  1  0  0  0  0  0  0
  -27.5620  -32.4610   25.6600 C   0  0  0  0  0  1  0  0  0  0  0  0
  -25.5620  -33.8570   24.1040 N   0  0  0  0  0  0  0  0  0  0  0  0
  -25.8990  -34.9200   23.3620 C   0  0  0  0  0  0  0  0  0  0  0  0
  -26.5580  -34.8260   22.3230 O   0  0  0  0  0  0  0  0  0  0  0  0
  -24.9730  -34.0030   24.9110 H   0  0  0  0  0  0  0  0  0  0  0  0
  -24.1930  -36.7470   23.0520 C   0  0  0  0  0  1  0  0  0  0  0  0
  -25.4320  -36.3080   23.8480 C   0  0  0  0  0  3  0  0  0  0  0  0
  -27.5750  -37.1590   24.6950 C   0  0  0  0  0  1  0  0  0  0  0  0
  -26.4790  -37.3490   23.7490 N   0  0  0  0  0  0  0  0  0  0  0  0
  -26.0830  -38.2730   23.9050 H   0  0  0  0  0  0  0  0  0  0  0  0
  2  6  2  0
  2  5  1  0
  3  1  1  0
  3  9  1  0
  4  7  1  0
  4  1  2  0
  5  3  2  0
  6  4  1  0
  8  6  1  0
  9 11  1  0
 10  9  2  0
 12 21  1  0
 12 11  1  0
 13 21  1  0
 14 19  1  0
 15 16  1  0
 15 14  1  0
 17 16  1  0
 17 26  1  0
 17 18  1  0
 19 13  1  0
 19 18  1  0
 20 13  2  0
 21 22  1  0
 23 24  2  0
 24 43  1  0
 25 24  1  0
 25 28  1  0
 26 27  1  0
 26 23  1  0
 27 25  2  0
 28 29  1  0
 29 30  2  0
 31 34  1  0
 31 30  1  0
 32 31  2  0
 33 32  1  0
 33 28  2  0
 34 35  1  0
 35 36  1  0
 36 37  2  0
 38 37  1  0
 38 42  1  0
 39 38  2  0
 40 35  2  0
 40 39  1  0
 41 40  1  0
 43 44  1  0
 44 47  1  0
 44 46  1  0
 45 43  2  0
 48 23  1  0
 48 49  1  0
 50 48  1  0
 51  5  1  0
 52 51  1  0
 53 64  2  0
 54 52  1  0
 54 59  1  0
 55 63  1  0
 55 65  1  0
 56 62  1  0
 56 58  1  0
 57 63  1  0
 58 57  1  0
 59 58  2  0
 60 61  1  0
 60 54  2  0
 61 56  2  0
 62 55  1  0
 63 53  1  0
 65 67  2  0
 66 65  1  0
 68 66  1  0
 69 78  2  0
 69 74  1  0
 70 66  1  0
 70 74  1  0
 71 70  1  0
 72 73  1  0
 72 71  1  0
 73 69  1  0
 74 75  2  0
 75 76  1  0
 77 76  2  0
 78 77  1  0
 79 53  1  0
 79 84  1  0
 79 80  1  0
 80 83  1  1
 80 81  1  0
 82 80  1  0
 84 87  1  0
 85 89  1  0
 85 84  1  0
 86 85  2  0
 89 88  1  0
 91 89  1  0
 91 92  1  0
 91 90  1  0
M  ISO  4  13 100  21 100  51 101  52 101
M  END
>  <TORSDO>  (1) 
F 20

>  <SCORE>  (1) 
-14.250

>  <name>  (1) 
0

>  <ligand_id>  (1) 
0

>  <original_smiles>  (1) 
[H]c1c([H])c([H])c2c(c1[H])C([H])([H])C([H])([H])C([H])([H])C2([H])N([H])C(=O)C1([H])N(C(=O)C([H])(N([H])C(=O)C([H])(N([H])C([H])([H])[H])C([H])([H])[H])C(C([H])([H])[H])(C([H])([H])[H])C([H])([H])[H])C([H])([H])c2c([H])c(OC([H])([H])c3c([H])c(C([H])([H])[H])c(C([H])([H])[H])c([H])c3C(=O)C([H])([H])C([H])([H])N([H])C(=O)N3C([H])([H])C([H])([H])C([H])([H])C([H])(n4nc(-c5c([H])c([H])c(Oc6c([H])c([H])c(F)c([H])c6F)c([H])c5[H])c(C(=O)N([H])[H])c4N([H])[H])C3([H])[H])c([H])c([H])c2C1([H])[H]

>  <smiles>  (1) 
[H]c1c([H])c([H])c2c(c1[H])C([H])([H])C([H])([H])C([H])([H])C2([H])N([H])C(=O)C1([H])N(C(=O)C([H])(N([H])C(=O)C([H])(N([H])C([H])([H])[H])C([H])([H])[H])C(C([H])([H])[H])(C([H])([H])[H])C([H])([H])[H])C([H])([H])c2c([H])c(OC([H])([H])c3c([H])c(C([H])([H])[H])c(C([H])([H])[H])c([H])c3C(=O)C([H])([H])C([H])([H])N([H])C(=O)N3C([H])([H])C([H])([H])C([H])([H])C([H])(n4nc(-c5c([H])c([H])c(Oc6c([H])c([H])c(F)c([H])c6F)c([H])c5[H])c(C(=O)N([H])[H])c4N([H])[H])C3([H])[H])c([H])c([H])c2C1([H])[H]

$$$$
1:0:0
     RDKit          3D

 90100  0  0  1  0  0  0  0  0999 V2000
  -30.6080  -14.9140   20.4300 C   0  0  0  0  0  0  0  0  0  0  0  0
  -30.3870  -12.5980   19.4660 C   0  0  0  0  0  2  0  0  0  0  0  0
  -29.4770  -12.5750   18.2210 C   0  0  0  0  0  2  0  0  0  0  0  0
  -28.0120  -12.3630   18.6390 C   0  0  0  0  0  2  0  0  0  0  0  0
  -27.5900  -13.3030   19.7970 C   0  0  0  0  0  3  0  0  0  0  0  0
  -28.6310  -13.3490   20.9390 C   0  0  0  0  0  2  0  0  0  0  0  0
  -29.9220  -13.7110   20.3420 N   0  0  0  0  0  0  0  0  0  0  0  0
  -31.8190  -14.8880   20.1800 O   0  0  0  0  0  0  0  0  0  0  0  0
  -28.4490  -18.3230   20.3490 C   0  0  0  0  0  2  0  0  0  0  0  0
  -30.8280  -18.6950   20.7210 C   0  0  0  0  0  2  0  0  0  0  0  0
  -29.8350  -23.0000   19.2130 C   0  0  0  0  0  2  0  0  0  0  0  0
  -29.6200  -20.2770   18.9940 C   0  0  0  0  0  2  0  0  0  0  0  0
  -29.1560  -20.7730   21.3000 C   0  0  0  0  0  2  0  0  0  0  0  0
  -28.9070  -16.8340   19.9300 C   0  0  0  0  0  2  0  0  0  0  0  0
  -30.7260  -17.2660   21.4340 C   0  0  0  0  0  2  0  0  0  0  0  0
  -28.9840  -21.7040   19.0890 C   0  0  0  0  0  3  0  0  0  0  0  0
  -28.4970  -21.9790   20.4900 C   0  0  0  0  0  3  0  0  0  0  0  0
  -28.9570  -23.5460   20.3690 C   0  0  0  0  0  3  0  0  0  0  0  0
  -29.5100  -19.5000   20.3640 C   0  0  1  0  0  0  0  0  0  0  0  0
  -29.9950  -16.1630   20.7190 N   0  0  0  0  0  0  0  0  0  0  0  0
  -25.2010  -13.8910   20.5020 C   0  0  0  0  0  0  0  0  0  0  0  0
  -24.1330  -13.1160   20.8610 C   0  0  0  0  0  0  0  0  0  0  0  0
  -24.6020  -11.7680   20.8500 C   0  0  0  0  0  0  0  0  0  0  0  0
  -26.2490  -13.0120   20.2850 N   0  0  0  0  0  0  0  0  0  0  0  0
  -25.8980  -11.7320   20.5630 N   0  0  0  0  0  0  0  0  0  0  0  0
  -23.8770  -10.5050   21.0360 C   0  0  0  0  0  0  0  0  0  0  0  0
  -24.2970   -9.5450   21.9830 C   0  0  0  0  0  3  0  0  0  0  0  0
  -23.5710   -8.3470   22.1580 C   0  0  0  0  0  3  0  0  0  0  0  0
  -22.4120   -8.1010   21.3830 C   0  0  0  0  0  0  0  0  0  0  0  0
  -22.0120   -9.0480   20.4260 C   0  0  0  0  0  3  0  0  0  0  0  0
  -22.7390  -10.2390   20.2500 C   0  0  0  0  0  3  0  0  0  0  0  0
  -21.6580   -6.9550   21.4670 O   0  0  0  0  0  0  0  0  0  0  0  0
  -21.5850   -6.2250   22.6260 C   0  0  0  0  0  0  0  0  0  0  0  0
  -21.1180   -6.7900   23.8330 C   0  0  0  0  0  3  0  0  0  0  0  0
  -20.9930   -5.9860   24.9840 C   0  0  0  0  0  3  0  0  0  0  0  0
  -21.3230   -4.6180   24.9280 C   0  0  0  0  0  0  0  0  0  0  0  0
  -21.7830   -4.0530   23.7250 C   0  0  0  0  0  3  0  0  0  0  0  0
  -21.9100   -4.8550   22.5770 C   0  0  0  0  0  0  0  0  0  0  0  0
  -22.3340   -4.3010   21.4150 F   0  0  0  0  0  0  0  0  0  0  0  0
  -21.1950   -3.8440   26.0300 F   0  0  0  0  0  0  0  0  0  0  0  0
  -22.7290  -13.5910   21.1010 C   0  0  0  0  0  0  0  0  0  0  0  0
  -21.9900  -12.9060   21.9650 N   0  0  0  0  0  0  0  0  0  0  0  0
  -22.2970  -14.6070   20.5570 O   0  0  0  0  0  0  0  0  0  0  0  0
  -22.3530  -12.0850   22.4270 H   0  0  0  0  0  0  0  0  0  0  0  0
  -21.0480  -13.2070   22.1680 H   0  0  0  0  0  0  0  0  0  0  0  0
  -25.3600  -15.2610   20.3180 N   0  0  0  0  0  0  0  0  0  0  0  0
  -24.5900  -15.9120   20.4240 H   0  0  0  0  0  0  0  0  0  0  0  0
  -26.2170  -15.7060   20.0170 H   0  0  0  0  0  0  0  0  0  0  0  0
  -27.9600  -24.8250   20.0790 C   0  0  0  0  0  2  0  0  0  0  0  0
  -28.2700  -26.3170   20.2390 O   0  0  0  0  0  0  0  0  0  0  0  0
  -24.6450  -31.9010   23.2950 C   0  0  0  0  0  0  0  0  0  0  0  0
  -27.2010  -27.2680   20.1900 C   0  0  0  0  0  0  0  0  0  0  0  0
  -23.4300  -30.5260   21.6470 C   0  0  0  0  0  3  0  0  0  0  0  0
  -24.8660  -28.9760   20.1960 C   0  0  0  0  0  0  0  0  0  0  0  0
  -25.9810  -30.8030   21.4680 C   0  0  0  0  0  2  0  0  0  0  0  0
  -26.0480  -29.4240   20.8000 C   0  0  0  0  0  0  0  0  0  0  0  0
  -27.2180  -28.5850   20.7830 C   0  0  0  0  0  3  0  0  0  0  0  0
  -25.9920  -26.9090   19.5500 C   0  0  0  0  0  3  0  0  0  0  0  0
  -24.8480  -27.7290   19.5590 C   0  0  0  0  0  3  0  0  0  0  0  0
  -23.6390  -29.8660   20.2600 C   0  0  0  0  0  2  0  0  0  0  0  0
  -24.7050  -31.0960   22.1910 N   0  0  0  0  0  0  0  0  0  0  0  0
  -23.5630  -32.1810   23.8320 O   0  0  0  0  0  0  0  0  0  0  0  0
  -22.7590  -29.5050   22.5990 C   0  0  0  0  0  0  0  0  0  0  0  0
  -21.4340  -29.3260   22.4650 N   0  0  0  0  0  0  0  0  0  0  0  0
  -23.4330  -28.8790   23.4210 O   0  0  0  0  0  0  0  0  0  0  0  0
  -20.9470  -29.8820   21.7760 H   0  0  0  0  0  0  0  0  0  0  0  0
  -18.0570  -28.1070   22.9420 C   0  0  0  0  0  0  0  0  0  0  0  0
  -20.6130  -28.3830   23.2290 C   0  0  0  0  0  3  0  0  0  0  0  0
  -20.7270  -26.9520   22.6520 C   0  0  0  0  0  2  0  0  0  0  0  0
  -19.6340  -26.6250   21.6300 C   0  0  0  0  0  2  0  0  0  0  0  0
  -18.2470  -26.7600   22.2650 C   0  0  0  0  0  2  0  0  0  0  0  0
  -19.1690  -28.8760   23.3810 C   0  0  0  0  0  0  0  0  0  0  0  0
  -18.9370  -30.1350   23.9750 C   0  0  0  0  0  3  0  0  0  0  0  0
  -17.6280  -30.6270   24.1350 C   0  0  0  0  0  3  0  0  0  0  0  0
  -16.5310  -29.8550   23.7120 C   0  0  0  0  0  3  0  0  0  0  0  0
  -16.7460  -28.5970   23.1220 C   0  0  0  0  0  3  0  0  0  0  0  0
  -25.9300  -32.5230   23.9200 C   0  0  0  0  0  3  0  0  0  0  0  0
  -25.6300  -33.9240   24.2510 N   0  0  0  0  0  0  0  0  0  0  0  0
  -25.9470  -34.9750   23.4820 C   0  0  0  0  0  0  0  0  0  0  0  0
  -26.5890  -34.8660   22.4340 O   0  0  0  0  0  0  0  0  0  0  0  0
  -25.0560  -34.0840   25.0660 H   0  0  0  0  0  0  0  0  0  0  0  0
  -24.2060  -36.7680   23.1800 C   0  0  0  0  0  1  0  0  0  0  0  0
  -25.4760  -36.3670   23.9480 C   0  0  0  0  0  3  0  0  0  0  0  0
  -27.6390  -37.2600   24.6960 C   0  0  0  0  0  1  0  0  0  0  0  0
  -26.5040  -37.4200   23.7900 N   0  0  0  0  0  0  0  0  0  0  0  0
  -26.1030  -38.3410   23.9440 H   0  0  0  0  0  0  0  0  0  0  0  0
  -26.4340  -31.7490   25.2010 C   0  0  1  0  0  0  0  0  0  0  0  0
  -25.3350  -31.5270   26.2650 C   0  0  0  0  0  1  0  0  0  0  0  0
  -27.0040  -30.3650   24.8170 C   0  0  0  0  0  1  0  0  0  0  0  0
  -27.5900  -32.5350   25.8640 C   0  0  0  0  0  1  0  0  0  0  0  0
  1 20  1  0
  2  7  1  0
  3  4  1  0
  3  2  1  0
  5  4  1  0
  5 24  1  0
  5  6  1  0
  7  1  1  0
  7  6  1  0
  8  1  2  0
 19  9  1  6
 10 15  1  0
 11 18  1  0
 14  9  1  0
 14 20  1  0
 16 12  1  0
 16 11  1  0
 16 17  1  0
 17 13  1  0
 18 49  1  0
 18 17  1  0
 19 12  1  0
 19 10  1  0
 19 13  1  0
 20 15  1  0
 21 22  2  0
 22 41  1  0
 23 22  1  0
 23 26  1  0
 24 21  1  0
 24 25  1  0
 25 23  2  0
 26 27  1  0
 27 28  2  0
 29 32  1  0
 29 28  1  0
 30 29  2  0
 31 30  1  0
 31 26  2  0
 32 33  1  0
 33 34  1  0
 34 35  2  0
 36 35  1  0
 36 40  1  0
 37 36  2  0
 38 33  2  0
 38 37  1  0
 39 38  1  0
 41 42  1  0
 42 45  1  0
 42 44  1  0
 43 41  2  0
 46 47  1  0
 46 21  1  0
 48 46  1  0
 49 50  1  0
 51 62  2  0
 52 50  1  0
 52 57  1  0
 53 61  1  0
 53 63  1  0
 54 60  1  0
 54 56  1  0
 55 61  1  0
 56 55  1  0
 57 56  2  0
 58 59  1  0
 58 52  2  0
 59 54  2  0
 60 53  1  0
 61 51  1  0
 63 65  2  0
 64 63  1  0
 66 64  1  0
 67 76  2  0
 67 72  1  0
 68 64  1  0
 68 72  1  0
 69 68  1  0
 70 71  1  0
 70 69  1  0
 71 67  1  0
 72 73  2  0
 73 74  1  0
 75 74  2  0
 76 75  1  0
 77 51  1  0
 77 78  1  0
 77 87  1  0
 78 81  1  0
 79 83  1  0
 79 78  1  0
 80 79  2  0
 83 82  1  0
 85 86  1  0
 85 83  1  0
 85 84  1  0
 87 90  1  1
 87 88  1  0
 89 87  1  0
M  ISO  4   1 100  20 100  49 101  50 101
M  END
>  <TORSDO>  (2) 
F 16

>  <SCORE>  (2) 
-15.746

>  <name>  (2) 
1

>  <ligand_id>  (2) 
1

>  <original_smiles>  (2) 
[H]c1c([H])c([H])c2c(c1[H])C([H])([H])C([H])([H])C([H])([H])C2([H])N([H])C(=O)C1([H])N(C(=O)C([H])(N([H])C(=O)C([H])(N([H])C([H])([H])[H])C([H])([H])[H])C(C([H])([H])[H])(C([H])([H])[H])C([H])([H])[H])C([H])([H])c2c([H])c(OC([H])([H])C3([H])C([H])([H])C4([H])C([H])([H])C5(C([H])([H])C([H])([H])N(C(=O)N6C([H])([H])C([H])([H])C([H])([H])C([H])(n7nc(-c8c([H])c([H])c(Oc9c([H])c([H])c(F)c([H])c9F)c([H])c8[H])c(C(=O)N([H])[H])c7N([H])[H])C6([H])[H])C([H])([H])C5([H])[H])C([H])([H])C34[H])c([H])c([H])c2C1([H])[H]

>  <smiles>  (2) 
[H]c1c([H])c([H])c2c(c1[H])C([H])([H])C([H])([H])C([H])([H])C2([H])N([H])C(=O)C1([H])N(C(=O)C([H])(N([H])C(=O)C([H])(N([H])C([H])([H])[H])C([H])([H])[H])C(C([H])([H])[H])(C([H])([H])[H])C([H])([H])[H])C([H])([H])c2c([H])c(OC([H])([H])C3([H])C([H])([H])C4([H])C([H])([H])C5(C([H])([H])C([H])([H])N(C(=O)N6C([H])([H])C([H])([H])C([H])([H])C([H])(n7nc(-c8c([H])c([H])c(Oc9c([H])c([H])c(F)c([H])c9F)c([H])c8[H])c(C(=O)N([H])[H])c7N([H])[H])C6([H])[H])C([H])([H])C5([H])[H])C([H])([H])C34[H])c([H])c([H])c2C1([H])[H]

$$$$
2:0:0
     RDKit          3D

 90 99  0  0  1  0  0  0  0  0999 V2000
  -31.0470  -19.6770   21.9250 C   0  0  0  0  0  2  0  0  0  0  0  0
  -29.8560  -20.5710   22.2860 C   0  0  0  0  0  2  0  0  0  0  0  0
  -28.3820  -19.0310   20.7010 C   0  0  0  0  0  2  0  0  0  0  0  0
  -30.3960  -19.3450   20.5840 C   0  0  0  0  0  3  0  0  0  0  0  0
  -29.2130  -20.3780   20.8980 C   0  0  2  0  0  0  0  0  0  0  0  0
  -29.5540  -17.9930   20.3290 C   0  0  2  0  0  0  0  0  0  0  0  0
  -29.5890  -17.5970   18.8340 C   0  0  0  0  0  2  0  0  0  0  0  0
  -28.3710  -16.8460   18.2780 C   0  0  0  0  0  3  0  0  0  0  0  0
  -27.3510  -16.6620   18.9460 O   0  0  0  0  0  0  0  0  0  0  0  0
  -29.6880  -16.5190   21.1830 C   0  0  0  0  0  2  0  0  0  0  0  0
  -30.5140  -15.1120   20.8120 C   0  0  0  0  0  0  0  0  0  0  0  0
  -30.5040  -12.7430   19.8820 C   0  0  0  0  0  2  0  0  0  0  0  0
  -29.6580  -12.7050   18.5870 C   0  0  0  0  0  2  0  0  0  0  0  0
  -28.1670  -12.4870   18.9080 C   0  0  0  0  0  2  0  0  0  0  0  0
  -27.6790  -13.3940   20.0680 C   0  0  0  0  0  3  0  0  0  0  0  0
  -28.6540  -13.3990   21.2620 C   0  0  0  0  0  2  0  0  0  0  0  0
  -29.9650  -13.8270   20.7550 N   0  0  0  0  0  0  0  0  0  0  0  0
  -31.7110  -15.2000   20.5120 O   0  0  0  0  0  0  0  0  0  0  0  0
  -25.2430  -13.9600   20.6130 C   0  0  0  0  0  0  0  0  0  0  0  0
  -24.1640  -13.1780   20.9240 C   0  0  0  0  0  0  0  0  0  0  0  0
  -24.6460  -11.8330   20.9570 C   0  0  0  0  0  0  0  0  0  0  0  0
  -26.3110  -13.0900   20.4690 N   0  0  0  0  0  0  0  0  0  0  0  0
  -25.9570  -11.8080   20.7410 N   0  0  0  0  0  0  0  0  0  0  0  0
  -23.9230  -10.5650   21.1230 C   0  0  0  0  0  0  0  0  0  0  0  0
  -24.3090   -9.6150   22.0930 C   0  0  0  0  0  3  0  0  0  0  0  0
  -23.5850   -8.4130   22.2470 C   0  0  0  0  0  3  0  0  0  0  0  0
  -22.4630   -8.1500   21.4260 C   0  0  0  0  0  0  0  0  0  0  0  0
  -22.0970   -9.0880   20.4440 C   0  0  0  0  0  3  0  0  0  0  0  0
  -22.8220  -10.2810   20.2900 C   0  0  0  0  0  3  0  0  0  0  0  0
  -21.7150   -6.9990   21.4860 O   0  0  0  0  0  0  0  0  0  0  0  0
  -21.6170   -6.2640   22.6390 C   0  0  0  0  0  0  0  0  0  0  0  0
  -21.1220   -6.8210   23.8390 C   0  0  0  0  0  3  0  0  0  0  0  0
  -20.9720   -6.0120   24.9830 C   0  0  0  0  0  3  0  0  0  0  0  0
  -21.3070   -4.6460   24.9280 C   0  0  0  0  0  0  0  0  0  0  0  0
  -21.7940   -4.0870   23.7330 C   0  0  0  0  0  3  0  0  0  0  0  0
  -21.9450   -4.8940   22.5910 C   0  0  0  0  0  0  0  0  0  0  0  0
  -22.3960   -4.3460   21.4370 F   0  0  0  0  0  0  0  0  0  0  0  0
  -21.1550   -3.8660   26.0230 F   0  0  0  0  0  0  0  0  0  0  0  0
  -22.7450  -13.6390   21.0810 C   0  0  0  0  0  0  0  0  0  0  0  0
  -21.9650  -12.9530   21.9080 N   0  0  0  0  0  0  0  0  0  0  0  0
  -22.3330  -14.6450   20.5060 O   0  0  0  0  0  0  0  0  0  0  0  0
  -22.3110  -12.1370   22.3940 H   0  0  0  0  0  0  0  0  0  0  0  0
  -21.0110  -13.2460   22.0580 H   0  0  0  0  0  0  0  0  0  0  0  0
  -25.4000  -15.3280   20.4110 N   0  0  0  0  0  0  0  0  0  0  0  0
  -24.6070  -15.9600   20.4130 H   0  0  0  0  0  0  0  0  0  0  0  0
  -26.2330  -15.7490   20.0080 H   0  0  0  0  0  0  0  0  0  0  0  0
  -28.7800  -21.8180   20.1110 C   0  0  0  0  0  2  0  0  0  0  0  0
  -28.8750  -23.4060   20.7010 C   0  0  0  0  0  3  0  0  0  0  0  0
  -28.0600  -24.7510   20.0680 C   0  0  0  0  0  3  0  0  0  0  0  0
  -28.2550  -26.2740   20.3690 O   0  0  0  0  0  0  0  0  0  0  0  0
  -24.5940  -31.9660   23.2870 C   0  0  0  0  0  0  0  0  0  0  0  0
  -27.1960  -27.2540   20.2670 C   0  0  0  0  0  0  0  0  0  0  0  0
  -23.4000  -30.5570   21.6550 C   0  0  0  0  0  3  0  0  0  0  0  0
  -24.8570  -28.9890   20.2300 C   0  0  0  0  0  0  0  0  0  0  0  0
  -25.9520  -30.8370   21.4850 C   0  0  0  0  0  2  0  0  0  0  0  0
  -26.0330  -29.4430   20.8380 C   0  0  0  0  0  0  0  0  0  0  0  0
  -27.2000  -28.5900   20.8430 C   0  0  0  0  0  3  0  0  0  0  0  0
  -25.9970  -26.9110   19.6030 C   0  0  0  0  0  3  0  0  0  0  0  0
  -24.8510  -27.7370   19.5970 C   0  0  0  0  0  3  0  0  0  0  0  0
  -23.6230  -29.8770   20.2780 C   0  0  0  0  0  2  0  0  0  0  0  0
  -24.6690  -31.1420   22.1970 N   0  0  0  0  0  0  0  0  0  0  0  0
  -23.5080  -32.2460   23.8160 O   0  0  0  0  0  0  0  0  0  0  0  0
  -22.7310  -29.5470   22.6230 C   0  0  0  0  0  0  0  0  0  0  0  0
  -21.4060  -29.3520   22.4850 N   0  0  0  0  0  0  0  0  0  0  0  0
  -23.4060  -28.9430   23.4600 O   0  0  0  0  0  0  0  0  0  0  0  0
  -20.9180  -29.8930   21.7860 H   0  0  0  0  0  0  0  0  0  0  0  0
  -18.0470  -28.0810   22.9590 C   0  0  0  0  0  0  0  0  0  0  0  0
  -20.5940  -28.4090   23.2600 C   0  0  0  0  0  3  0  0  0  0  0  0
  -20.7380  -26.9690   22.7140 C   0  0  0  0  0  2  0  0  0  0  0  0
  -19.6600  -26.6030   21.6890 C   0  0  0  0  0  2  0  0  0  0  0  0
  -18.2650  -26.7260   22.3080 C   0  0  0  0  0  2  0  0  0  0  0  0
  -19.1400  -28.8780   23.3920 C   0  0  0  0  0  0  0  0  0  0  0  0
  -18.8810  -30.1440   23.9600 C   0  0  0  0  0  3  0  0  0  0  0  0
  -17.5620  -30.6150   24.0980 C   0  0  0  0  0  3  0  0  0  0  0  0
  -16.4820  -29.8170   23.6810 C   0  0  0  0  0  3  0  0  0  0  0  0
  -16.7270  -28.5520   23.1170 C   0  0  0  0  0  3  0  0  0  0  0  0
  -25.8690  -32.6130   23.9090 C   0  0  0  0  0  3  0  0  0  0  0  0
  -25.5510  -34.0150   24.2260 N   0  0  0  0  0  0  0  0  0  0  0  0
  -25.8750  -35.0650   23.4600 C   0  0  0  0  0  0  0  0  0  0  0  0
  -26.5400  -34.9570   22.4260 O   0  0  0  0  0  0  0  0  0  0  0  0
  -24.9600  -34.1720   25.0290 H   0  0  0  0  0  0  0  0  0  0  0  0
  -24.1310  -36.8480   23.1120 C   0  0  0  0  0  1  0  0  0  0  0  0
  -25.3850  -36.4560   23.9110 C   0  0  0  0  0  3  0  0  0  0  0  0
  -27.5260  -37.3620   24.7070 C   0  0  0  0  0  1  0  0  0  0  0  0
  -26.4100  -37.5150   23.7760 N   0  0  0  0  0  0  0  0  0  0  0  0
  -25.9990  -38.4330   23.9230 H   0  0  0  0  0  0  0  0  0  0  0  0
  -26.3810  -31.8610   25.1980 C   0  0  1  0  0  0  0  0  0  0  0  0
  -25.2820  -31.6270   26.2610 C   0  0  0  0  0  1  0  0  0  0  0  0
  -26.9800  -30.4830   24.8310 C   0  0  0  0  0  1  0  0  0  0  0  0
  -27.5200  -32.6720   25.8600 C   0  0  0  0  0  1  0  0  0  0  0  0
  1  2  1  0
  3  5  1  0
  4  5  1  0
  4  1  1  0
  5 47  1  6
  5  2  1  0
  6  7  1  6
  6  4  1  0
  6  3  1  0
  6 10  1  0
  8  7  1  0
  8  9  2  0
 11 10  1  0
 12 17  1  0
 13 14  1  0
 13 12  1  0
 15 14  1  0
 15 22  1  0
 15 16  1  0
 17 11  1  0
 17 16  1  0
 18 11  2  0
 19 20  2  0
 20 21  1  0
 20 39  1  0
 21 24  1  0
 22 19  1  0
 22 23  1  0
 23 21  2  0
 24 25  1  0
 25 26  2  0
 27 30  1  0
 27 26  1  0
 28 27  2  0
 29 28  1  0
 29 24  2  0
 30 31  1  0
 31 32  1  0
 32 33  2  0
 34 33  1  0
 34 38  1  0
 35 34  2  0
 36 31  2  0
 36 35  1  0
 37 36  1  0
 39 40  1  0
 40 43  1  0
 40 42  1  0
 41 39  2  0
 44 45  1  0
 44 19  1  0
 46 44  1  0
 47 48  1  0
 49 50  1  0
 49 48  2  0
 51 62  2  0
 52 50  1  0
 52 57  1  0
 53 61  1  0
 53 63  1  0
 54 60  1  0
 54 56  1  0
 55 61  1  0
 56 57  2  0
 56 55  1  0
 58 52  2  0
 59 58  1  0
 59 54  2  0
 60 53  1  0
 61 51  1  0
 63 65  2  0
 64 63  1  0
 66 64  1  0
 67 76  2  0
 67 72  1  0
 68 64  1  0
 68 72  1  0
 69 68  1  0
 70 71  1  0
 70 69  1  0
 71 67  1  0
 72 73  2  0
 73 74  1  0
 75 74  2  0
 76 75  1  0
 77 51  1  0
 77 78  1  0
 77 87  1  0
 78 81  1  0
 79 83  1  0
 79 78  1  0
 80 79  2  0
 83 82  1  0
 85 83  1  0
 85 86  1  0
 85 84  1  0
 87 90  1  1
 87 88  1  0
 89 87  1  0
M  ISO  4  10 100  11 100  49 101  50 101
M  END
>  <TORSDO>  (3) 
F 22

>  <SCORE>  (3) 
-14.421

>  <name>  (3) 
2

>  <ligand_id>  (3) 
2

>  <original_smiles>  (3) 
[H]C(=O)C([H])([H])C1(C([H])([H])C(=O)N2C([H])([H])C([H])([H])C([H])([H])C([H])(n3nc(-c4c([H])c([H])c(Oc5c([H])c([H])c(F)c([H])c5F)c([H])c4[H])c(C(=O)N([H])[H])c3N([H])[H])C2([H])[H])C([H])([H])C2(C([H])([H])C([H])([H])C([H])([H])Oc3c([H])c([H])c4c(c3[H])C([H])([H])N(C(=O)C([H])(N([H])C(=O)C([H])(N([H])C([H])([H])[H])C([H])([H])[H])C(C([H])([H])[H])(C([H])([H])[H])C([H])([H])[H])C([H])(C(=O)N([H])C3([H])c5c([H])c([H])c([H])c([H])c5C([H])([H])C([H])([H])C3([H])[H])C4([H])[H])C([H])([H])C([H])([H])C12[H]

>  <smiles>  (3) 
[H]C(=O)C([H])([H])C1(C([H])([H])C(=O)N2C([H])([H])C([H])([H])C([H])([H])C([H])(n3nc(-c4c([H])c([H])c(Oc5c([H])c([H])c(F)c([H])c5F)c([H])c4[H])c(C(=O)N([H])[H])c3N([H])[H])C2([H])[H])C([H])([H])C2(C([H])([H])C([H])([H])C([H])([H])Oc3c([H])c([H])c4c(c3[H])C([H])([H])N(C(=O)C([H])(N([H])C(=O)C([H])(N([H])C([H])([H])[H])C([H])([H])[H])C(C([H])([H])[H])(C([H])([H])[H])C([H])([H])[H])C([H])(C(=O)N([H])C3([H])c5c([H])c([H])c([H])c([H])c5C([H])([H])C([H])([H])C3([H])[H])C4([H])[H])C([H])([H])C([H])([H])C12[H]

$$$$
3:0:0
     RDKit          3D

 92100  0  0  1  0  0  0  0  0999 V2000
  -29.7080  -21.5520   21.4500 C   0  0  0  0  0  2  0  0  0  0  0  0
  -30.6760  -20.4290   21.6260 N   0  0  0  0  0  4  0  0  0  0  0  0
  -31.4590  -20.6180   21.0210 H   0  0  0  0  0  0  0  0  0  0  0  0
  -31.0210  -20.4320   22.5730 H   0  0  0  0  0  0  0  0  0  0  0  0
  -30.1770  -19.0600   21.2980 C   0  0  0  0  0  2  0  0  0  0  0  0
  -31.3350  -18.0670   20.9650 C   0  0  0  0  0  2  0  0  0  0  0  0
  -30.7940  -14.6630   20.2530 C   0  0  0  0  0  0  0  0  0  0  0  0
  -30.3760  -12.4230   19.3220 C   0  0  0  0  0  2  0  0  0  0  0  0
  -29.4460  -12.5010   18.0960 C   0  0  0  0  0  2  0  0  0  0  0  0
  -27.9600  -12.4530   18.5210 C   0  0  0  0  0  2  0  0  0  0  0  0
  -27.6160  -13.3140   19.7650 C   0  0  0  0  0  3  0  0  0  0  0  0
  -28.7160  -13.2860   20.8560 C   0  0  0  0  0  2  0  0  0  0  0  0
  -30.0080  -13.5400   20.2000 N   0  0  0  0  0  0  0  0  0  0  0  0
  -32.0170  -14.5620   20.2790 O   0  0  0  0  0  0  0  0  0  0  0  0
  -29.4850  -17.2910   18.1480 C   0  0  0  0  0  3  0  0  0  0  0  0
  -30.6140  -17.8400   18.5570 C   0  0  0  0  0  3  0  0  0  0  0  0
  -29.1460  -16.1000   18.9920 C   0  0  0  0  0  2  0  0  0  0  0  0
  -31.1630  -17.1060   19.7500 C   0  0  0  0  0  3  0  0  0  0  0  0
  -30.2710  -15.9020   19.9360 N   0  0  0  0  0  0  0  0  0  0  0  0
  -25.2340  -13.9190   20.4800 C   0  0  0  0  0  0  0  0  0  0  0  0
  -24.1670  -13.1460   20.8390 C   0  0  0  0  0  0  0  0  0  0  0  0
  -24.6390  -11.7980   20.8350 C   0  0  0  0  0  0  0  0  0  0  0  0
  -26.2830  -13.0380   20.2750 N   0  0  0  0  0  0  0  0  0  0  0  0
  -25.9340  -11.7600   20.5540 N   0  0  0  0  0  0  0  0  0  0  0  0
  -23.9240  -10.5330   21.0250 C   0  0  0  0  0  0  0  0  0  0  0  0
  -24.3580   -9.5770   21.9680 C   0  0  0  0  0  3  0  0  0  0  0  0
  -23.6410   -8.3750   22.1430 C   0  0  0  0  0  3  0  0  0  0  0  0
  -22.4800   -8.1200   21.3760 C   0  0  0  0  0  0  0  0  0  0  0  0
  -22.0710   -9.0640   20.4180 C   0  0  0  0  0  3  0  0  0  0  0  0
  -22.7880  -10.2590   20.2410 C   0  0  0  0  0  3  0  0  0  0  0  0
  -21.7350   -6.9720   21.4630 O   0  0  0  0  0  0  0  0  0  0  0  0
  -21.6750   -6.2420   22.6220 C   0  0  0  0  0  0  0  0  0  0  0  0
  -21.2280   -6.8070   23.8370 C   0  0  0  0  0  3  0  0  0  0  0  0
  -21.1190   -6.0020   24.9880 C   0  0  0  0  0  3  0  0  0  0  0  0
  -21.4450   -4.6330   24.9260 C   0  0  0  0  0  0  0  0  0  0  0  0
  -21.8830   -4.0680   23.7150 C   0  0  0  0  0  3  0  0  0  0  0  0
  -21.9950   -4.8710   22.5670 C   0  0  0  0  0  0  0  0  0  0  0  0
  -22.3980   -4.3190   21.3960 F   0  0  0  0  0  0  0  0  0  0  0  0
  -21.3350   -3.8550   26.0290 F   0  0  0  0  0  0  0  0  0  0  0  0
  -22.7640  -13.6130   21.0900 C   0  0  0  0  0  0  0  0  0  0  0  0
  -22.0370  -12.9130   21.9540 N   0  0  0  0  0  0  0  0  0  0  0  0
  -22.3220  -14.6320   20.5580 O   0  0  0  0  0  0  0  0  0  0  0  0
  -22.4120  -12.0830   22.3900 H   0  0  0  0  0  0  0  0  0  0  0  0
  -21.1010  -13.2100   22.1930 H   0  0  0  0  0  0  0  0  0  0  0  0
  -25.3940  -15.2890   20.2820 N   0  0  0  0  0  0  0  0  0  0  0  0
  -24.6250  -15.9480   20.3360 H   0  0  0  0  0  0  0  0  0  0  0  0
  -26.2730  -15.7210   20.0260 H   0  0  0  0  0  0  0  0  0  0  0  0
  -30.3930  -22.9460   21.5170 C   0  0  0  0  0  2  0  0  0  0  0  0
  -29.4390  -24.1660   21.3950 C   0  0  0  0  0  2  0  0  0  0  0  0
  -30.1710  -25.5110   21.1430 C   0  0  0  0  0  2  0  0  0  0  0  0
  -29.2700  -26.7680   21.1620 C   0  0  0  0  0  2  0  0  0  0  0  0
  -28.3360  -26.6930   20.0980 O   0  0  0  0  0  0  0  0  0  0  0  0
  -24.5730  -31.9190   23.2610 C   0  0  0  0  0  0  0  0  0  0  0  0
  -27.2150  -27.4870   20.1730 C   0  0  0  0  0  0  0  0  0  0  0  0
  -23.3670  -30.5120   21.6280 C   0  0  0  0  0  3  0  0  0  0  0  0
  -24.8200  -28.9860   20.1920 C   0  0  0  0  0  0  0  0  0  0  0  0
  -25.8900  -30.8800   21.4210 C   0  0  0  0  0  2  0  0  0  0  0  0
  -25.9780  -29.5100   20.7810 C   0  0  0  0  0  0  0  0  0  0  0  0
  -27.1820  -28.7680   20.7770 C   0  0  0  0  0  3  0  0  0  0  0  0
  -26.0410  -26.9770   19.5790 C   0  0  0  0  0  3  0  0  0  0  0  0
  -24.8440  -27.7160   19.5940 C   0  0  0  0  0  3  0  0  0  0  0  0
  -23.5680  -29.8370   20.2460 C   0  0  0  0  0  2  0  0  0  0  0  0
  -24.6280  -31.1170   22.1630 N   0  0  0  0  0  0  0  0  0  0  0  0
  -23.4910  -32.1950   23.7990 O   0  0  0  0  0  0  0  0  0  0  0  0
  -22.7230  -29.4840   22.5900 C   0  0  0  0  0  0  0  0  0  0  0  0
  -21.3990  -29.2980   22.4620 N   0  0  0  0  0  0  0  0  0  0  0  0
  -23.4130  -28.8600   23.3980 O   0  0  0  0  0  0  0  0  0  0  0  0
  -20.9100  -29.8600   21.7830 H   0  0  0  0  0  0  0  0  0  0  0  0
  -18.0270  -28.1000   22.9570 C   0  0  0  0  0  0  0  0  0  0  0  0
  -20.5840  -28.3600   23.2310 C   0  0  0  0  0  3  0  0  0  0  0  0
  -20.6860  -26.9310   22.6530 C   0  0  0  0  0  2  0  0  0  0  0  0
  -19.5840  -26.6030   21.6380 C   0  0  0  0  0  2  0  0  0  0  0  0
  -18.2020  -26.7500   22.2820 C   0  0  0  0  0  2  0  0  0  0  0  0
  -19.1450  -28.8640   23.3870 C   0  0  0  0  0  0  0  0  0  0  0  0
  -18.9290  -30.1250   23.9770 C   0  0  0  0  0  3  0  0  0  0  0  0
  -17.6240  -30.6330   24.1370 C   0  0  0  0  0  3  0  0  0  0  0  0
  -16.5190  -29.8680   23.7230 C   0  0  0  0  0  3  0  0  0  0  0  0
  -16.7200  -28.6020   23.1420 C   0  0  0  0  0  3  0  0  0  0  0  0
  -25.8570  -32.5520   23.8780 C   0  0  0  0  0  3  0  0  0  0  0  0
  -26.3710  -31.7910   25.1610 C   0  0  1  0  0  0  0  0  0  0  0  0
  -25.2700  -31.5630   26.2250 C   0  0  0  0  0  1  0  0  0  0  0  0
  -26.9530  -30.4110   24.7770 C   0  0  0  0  0  1  0  0  0  0  0  0
  -27.5240  -32.5890   25.8160 C   0  0  0  0  0  1  0  0  0  0  0  0
  -25.5510  -33.9550   24.1930 N   0  0  0  0  0  0  0  0  0  0  0  0
  -25.9000  -34.9970   23.4270 C   0  0  0  0  0  0  0  0  0  0  0  0
  -26.5870  -34.8810   22.4090 O   0  0  0  0  0  0  0  0  0  0  0  0
  -24.9330  -34.1210   24.9730 H   0  0  0  0  0  0  0  0  0  0  0  0
  -24.1900  -36.7940   23.0240 C   0  0  0  0  0  1  0  0  0  0  0  0
  -25.4120  -36.3920   23.8630 C   0  0  0  0  0  3  0  0  0  0  0  0
  -27.5360  -37.2640   24.7320 C   0  0  0  0  0  1  0  0  0  0  0  0
  -26.4540  -37.4370   23.7630 N   0  0  0  0  0  0  0  0  0  0  0  0
  -26.0520  -38.3610   23.8970 H   0  0  0  0  0  0  0  0  0  0  0  0
  1 48  1  0
  1  2  1  0
  2  4  1  0
  3  2  1  0
  5  2  1  0
  6  5  1  0
  7 14  2  0
  8 13  1  0
  9 10  1  0
  9  8  1  0
 11 10  1  0
 11 23  1  0
 11 12  1  0
 13  7  1  0
 13 12  1  0
 15 16  2  0
 15 17  1  0
 16 18  1  0
 17 19  1  0
 18 19  1  0
 18  6  1  0
 19  7  1  0
 20 21  2  0
 21 40  1  0
 22 21  1  0
 22 25  1  0
 23 20  1  0
 23 24  1  0
 24 22  2  0
 25 26  1  0
 26 27  2  0
 28 31  1  0
 28 27  1  0
 29 28  2  0
 30 29  1  0
 30 25  2  0
 31 32  1  0
 32 33  1  0
 33 34  2  0
 35 34  1  0
 35 39  1  0
 36 35  2  0
 37 32  2  0
 37 36  1  0
 38 37  1  0
 40 41  1  0
 41 44  1  0
 41 43  1  0
 42 40  2  0
 45 46  1  0
 45 20  1  0
 47 45  1  0
 49 48  1  0
 50 51  1  0
 50 49  1  0
 52 54  1  0
 52 51  1  0
 53 64  2  0
 54 59  1  0
 55 63  1  0
 55 65  1  0
 56 62  1  0
 56 58  1  0
 57 63  1  0
 58 57  1  0
 59 58  2  0
 60 61  1  0
 60 54  2  0
 61 56  2  0
 62 55  1  0
 63 53  1  0
 65 67  2  0
 66 65  1  0
 68 66  1  0
 69 78  2  0
 69 74  1  0
 70 66  1  0
 70 74  1  0
 71 70  1  0
 72 73  1  0
 72 71  1  0
 73 69  1  0
 74 75  2  0
 75 76  1  0
 77 76  2  0
 78 77  1  0
 79 53  1  0
 79 84  1  0
 79 80  1  0
 80 83  1  1
 80 81  1  0
 82 80  1  0
 84 87  1  0
 85 89  1  0
 85 84  1  0
 86 85  2  0
 89 88  1  0
 91 89  1  0
 91 92  1  0
 91 90  1  0
M  ISO  4   7 100  19 100  51 101  52 101
M  END
>  <TORSDO>  (4) 
F 23

>  <SCORE>  (4) 
-12.566

>  <name>  (4) 
3

>  <ligand_id>  (4) 
3

>  <original_smiles>  (4) 
[H]C1=C([H])C([H])(C([H])([H])C([H])([H])[N+]([H])([H])C([H])([H])C([H])([H])C([H])([H])C([H])([H])C([H])([H])Oc2c([H])c([H])c3c(c2[H])C([H])([H])N(C(=O)C([H])(N([H])C(=O)C([H])(N([H])C([H])([H])[H])C([H])([H])[H])C(C([H])([H])[H])(C([H])([H])[H])C([H])([H])[H])C([H])(C(=O)N([H])C2([H])c4c([H])c([H])c([H])c([H])c4C([H])([H])C([H])([H])C2([H])[H])C3([H])[H])N(C(=O)N2C([H])([H])C([H])([H])C([H])([H])C([H])(n3nc(-c4c([H])c([H])c(Oc5c([H])c([H])c(F)c([H])c5F)c([H])c4[H])c(C(=O)N([H])[H])c3N([H])[H])C2([H])[H])C1([H])[H]

>  <smiles>  (4) 
[H]C1=C([H])C([H])(C([H])([H])C([H])([H])[N+]([H])([H])C([H])([H])C([H])([H])C([H])([H])C([H])([H])C([H])([H])Oc2c([H])c([H])c3c(c2[H])C([H])([H])N(C(=O)C([H])(N([H])C(=O)C([H])(N([H])C([H])([H])[H])C([H])([H])[H])C(C([H])([H])[H])(C([H])([H])[H])C([H])([H])[H])C([H])(C(=O)N([H])C2([H])c4c([H])c([H])c([H])c([H])c4C([H])([H])C([H])([H])C2([H])[H])C3([H])[H])N(C(=O)N2C([H])([H])C([H])([H])C([H])([H])C([H])(n3nc(-c4c([H])c([H])c(Oc5c([H])c([H])c(F)c([H])c5F)c([H])c4[H])c(C(=O)N([H])[H])c3N([H])[H])C2([H])[H])C1([H])[H]

$$$$
4:0:0
     RDKit          3D

 95103  0  0  1  0  0  0  0  0999 V2000
  -28.5920  -21.3920   20.2690 C   0  0  0  0  0  2  0  0  0  0  0  0
  -30.6660  -21.9730   19.0510 C   0  0  0  0  0  2  0  0  0  0  0  0
  -28.8900  -19.8470   19.9510 C   0  0  0  0  0  2  0  0  0  0  0  0
  -30.8890  -20.4350   18.7520 C   0  0  0  0  0  2  0  0  0  0  0  0
  -29.1950  -22.4570   19.2820 C   0  0  0  0  0  3  0  0  0  0  0  0
  -30.4100  -19.4000   19.8420 C   0  0  1  0  0  0  0  0  0  0  0  0
  -31.1490  -19.7060   21.1770 C   0  0  0  0  0  0  0  0  0  0  0  0
  -32.4700  -19.8360   21.1380 N   0  0  0  0  0  0  0  0  0  0  0  0
  -30.5500  -19.8310   22.2440 O   0  0  0  0  0  0  0  0  0  0  0  0
  -32.9580  -19.7580   20.2580 H   0  0  0  0  0  0  0  0  0  0  0  0
  -32.9920  -20.0350   21.9790 H   0  0  0  0  0  0  0  0  0  0  0  0
  -29.1450  -24.0430   19.6700 C   0  0  0  0  0  3  0  0  0  0  0  0
  -27.8950  -25.0280   19.4140 C   0  0  0  0  0  3  0  0  0  0  0  0
  -28.0450  -26.5020   19.6790 O   0  0  0  0  0  0  0  0  0  0  0  0
  -24.4770  -31.7730   23.1560 C   0  0  0  0  0  0  0  0  0  0  0  0
  -26.9170  -27.3570   19.7250 C   0  0  0  0  0  0  0  0  0  0  0  0
  -23.1770  -30.4320   21.5420 C   0  0  0  0  0  3  0  0  0  0  0  0
  -24.5420  -28.9630   19.9480 C   0  0  0  0  0  0  0  0  0  0  0  0
  -25.6980  -30.7810   21.2020 C   0  0  0  0  0  2  0  0  0  0  0  0
  -25.7470  -29.4310   20.4880 C   0  0  0  0  0  0  0  0  0  0  0  0
  -26.9330  -28.6410   20.3660 C   0  0  0  0  0  3  0  0  0  0  0  0
  -25.6850  -26.9540   19.1580 C   0  0  0  0  0  3  0  0  0  0  0  0
  -24.5150  -27.7320   19.2740 C   0  0  0  0  0  3  0  0  0  0  0  0
  -23.3030  -29.8200   20.1220 C   0  0  0  0  0  2  0  0  0  0  0  0
  -24.4730  -31.0120   22.0230 N   0  0  0  0  0  0  0  0  0  0  0  0
  -23.4290  -32.0140   23.7750 O   0  0  0  0  0  0  0  0  0  0  0  0
  -22.5910  -29.3670   22.5000 C   0  0  0  0  0  0  0  0  0  0  0  0
  -21.2800  -29.0970   22.3760 N   0  0  0  0  0  0  0  0  0  0  0  0
  -23.3150  -28.7870   23.3130 O   0  0  0  0  0  0  0  0  0  0  0  0
  -20.7510  -29.6210   21.6930 H   0  0  0  0  0  0  0  0  0  0  0  0
  -18.0280  -27.5640   22.7890 C   0  0  0  0  0  0  0  0  0  0  0  0
  -20.5330  -28.0990   23.1460 C   0  0  0  0  0  3  0  0  0  0  0  0
  -20.8060  -26.6720   22.6180 C   0  0  0  0  0  2  0  0  0  0  0  0
  -19.7840  -26.2080   21.5750 C   0  0  0  0  0  2  0  0  0  0  0  0
  -18.3700  -26.2240   22.1620 C   0  0  0  0  0  2  0  0  0  0  0  0
  -19.0420  -28.4510   23.2370 C   0  0  0  0  0  0  0  0  0  0  0  0
  -18.6700  -29.6990   23.7820 C   0  0  0  0  0  3  0  0  0  0  0  0
  -17.3130  -30.0650   23.8840 C   0  0  0  0  0  3  0  0  0  0  0  0
  -16.3120  -29.1760   23.4530 C   0  0  0  0  0  3  0  0  0  0  0  0
  -16.6700  -27.9280   22.9130 C   0  0  0  0  0  3  0  0  0  0  0  0
  -25.7920  -32.3950   23.7190 C   0  0  0  0  0  3  0  0  0  0  0  0
  -25.4990  -33.7850   24.0960 N   0  0  0  0  0  0  0  0  0  0  0  0
  -25.7720  -34.8540   23.3370 C   0  0  0  0  0  0  0  0  0  0  0  0
  -26.3660  -34.7750   22.2580 O   0  0  0  0  0  0  0  0  0  0  0  0
  -24.9580  -33.9190   24.9370 H   0  0  0  0  0  0  0  0  0  0  0  0
  -24.0050  -36.6390   23.1610 C   0  0  0  0  0  1  0  0  0  0  0  0
  -25.3140  -36.2320   23.8560 C   0  0  0  0  0  3  0  0  0  0  0  0
  -27.5050  -37.1260   24.5160 C   0  0  0  0  0  1  0  0  0  0  0  0
  -26.3260  -37.2960   23.6710 N   0  0  0  0  0  0  0  0  0  0  0  0
  -25.9260  -38.2100   23.8650 H   0  0  0  0  0  0  0  0  0  0  0  0
  -26.3790  -31.5990   24.9480 C   0  0  1  0  0  0  0  0  0  0  0  0
  -25.3460  -31.3380   26.0700 C   0  0  0  0  0  1  0  0  0  0  0  0
  -26.9420  -30.2290   24.5000 C   0  0  0  0  0  1  0  0  0  0  0  0
  -27.5650  -32.3820   25.5600 C   0  0  0  0  0  1  0  0  0  0  0  0
  -30.8070  -17.8480   19.3960 C   0  0  0  0  0  2  0  0  0  0  0  0
  -28.9110  -16.4860   18.5320 C   0  0  0  0  0  1  0  0  0  0  0  0
  -29.9730  -16.4660   19.6720 C   0  0  1  0  0  0  0  0  0  0  0  0
  -30.7950  -15.0390   19.5560 C   0  0  0  0  0  0  0  0  0  0  0  0
  -30.6120  -12.6800   18.7220 C   0  0  0  0  0  2  0  0  0  0  0  0
  -29.5630  -12.6320   17.5830 C   0  0  0  0  0  2  0  0  0  0  0  0
  -28.1320  -12.4610   18.1380 C   0  0  0  0  0  2  0  0  0  0  0  0
  -27.8410  -13.4040   19.3350 C   0  0  0  0  0  3  0  0  0  0  0  0
  -28.9990  -13.3590   20.3500 C   0  0  0  0  0  2  0  0  0  0  0  0
  -30.2250  -13.7740   19.6490 N   0  0  0  0  0  0  0  0  0  0  0  0
  -31.9620  -15.1030   19.1590 O   0  0  0  0  0  0  0  0  0  0  0  0
  -25.5710  -14.0600   20.3340 C   0  0  0  0  0  0  0  0  0  0  0  0
  -24.5140  -13.3110   20.7690 C   0  0  0  0  0  0  0  0  0  0  0  0
  -24.9100  -11.9470   20.6140 C   0  0  0  0  0  0  0  0  0  0  0  0
  -26.5440  -13.1510   19.9460 N   0  0  0  0  0  0  0  0  0  0  0  0
  -26.1590  -11.8720   20.1740 N   0  0  0  0  0  0  0  0  0  0  0  0
  -24.1510  -10.7080   20.8060 C   0  0  0  0  0  0  0  0  0  0  0  0
  -24.5840   -9.7120   21.7100 C   0  0  0  0  0  3  0  0  0  0  0  0
  -23.8270   -8.5340   21.8900 C   0  0  0  0  0  3  0  0  0  0  0  0
  -22.6250   -8.3450   21.1680 C   0  0  0  0  0  0  0  0  0  0  0  0
  -22.2120   -9.3290   20.2530 C   0  0  0  0  0  3  0  0  0  0  0  0
  -22.9680  -10.4980   20.0700 C   0  0  0  0  0  3  0  0  0  0  0  0
  -21.8400   -7.2210   21.2610 O   0  0  0  0  0  0  0  0  0  0  0  0
  -21.7210   -6.5220   22.4350 C   0  0  0  0  0  0  0  0  0  0  0  0
  -21.2700   -7.1330   23.6260 C   0  0  0  0  0  3  0  0  0  0  0  0
  -21.0930   -6.3610   24.7910 C   0  0  0  0  0  3  0  0  0  0  0  0
  -21.3600   -4.9780   24.7670 C   0  0  0  0  0  0  0  0  0  0  0  0
  -21.8040   -4.3680   23.5810 C   0  0  0  0  0  3  0  0  0  0  0  0
  -21.9810   -5.1360   22.4190 C   0  0  0  0  0  0  0  0  0  0  0  0
  -22.3880   -4.5390   21.2730 F   0  0  0  0  0  0  0  0  0  0  0  0
  -21.1840   -4.2350   25.8850 F   0  0  0  0  0  0  0  0  0  0  0  0
  -23.1750  -13.8270   21.2110 C   0  0  0  0  0  0  0  0  0  0  0  0
  -22.5190  -13.1210   22.1250 N   0  0  0  0  0  0  0  0  0  0  0  0
  -22.7240  -14.8880   20.7800 O   0  0  0  0  0  0  0  0  0  0  0  0
  -22.8980  -12.2620   22.4940 H   0  0  0  0  0  0  0  0  0  0  0  0
  -21.6240  -13.4470   22.4640 H   0  0  0  0  0  0  0  0  0  0  0  0
  -25.7730  -15.4320   20.2160 N   0  0  0  0  0  0  0  0  0  0  0  0
  -25.0520  -16.1050   20.4490 H   0  0  0  0  0  0  0  0  0  0  0  0
  -26.6040  -15.8590   19.8310 H   0  0  0  0  0  0  0  0  0  0  0  0
  -30.1680  -16.5130   22.2900 C   0  0  0  0  0  1  0  0  0  0  0  0
  -29.2610  -16.6040   21.0470 C   0  0  0  0  0  2  0  0  0  0  0  0
  2  5  1  0
  3  1  1  0
  4  2  1  0
  4  6  1  0
  5 12  1  0
  5  1  1  0
  6 55  1  6
  6  3  1  0
  6  7  1  0
  7  9  2  0
  8  7  1  0
  8 11  1  0
 10  8  1  0
 13 12  2  0
 13 14  1  0
 14 16  1  0
 15 26  2  0
 16 21  1  0
 17 25  1  0
 17 27  1  0
 18 24  1  0
 18 20  1  0
 19 25  1  0
 20 19  1  0
 21 20  2  0
 22 23  1  0
 22 16  2  0
 23 18  2  0
 24 17  1  0
 25 15  1  0
 27 29  2  0
 28 27  1  0
 30 28  1  0
 31 40  2  0
 31 36  1  0
 32 28  1  0
 32 36  1  0
 33 32  1  0
 34 35  1  0
 34 33  1  0
 35 31  1  0
 36 37  2  0
 37 38  1  0
 39 38  2  0
 40 39  1  0
 41 15  1  0
 41 42  1  0
 41 51  1  0
 42 45  1  0
 43 47  1  0
 43 42  1  0
 44 43  2  0
 47 46  1  0
 49 47  1  0
 49 50  1  0
 49 48  1  0
 51 54  1  1
 51 52  1  0
 53 51  1  0
 55 57  1  0
 57 56  1  6
 57 95  1  0
 58 64  1  0
 58 57  1  0
 59 64  1  0
 60 61  1  0
 60 59  1  0
 62 61  1  0
 62 69  1  0
 62 63  1  0
 64 63  1  0
 65 58  2  0
 66 67  2  0
 67 86  1  0
 68 67  1  0
 68 71  1  0
 69 70  1  0
 69 66  1  0
 70 68  2  0
 71 72  1  0
 72 73  2  0
 74 77  1  0
 74 73  1  0
 75 74  2  0
 76 75  1  0
 76 71  2  0
 77 78  1  0
 78 79  1  0
 79 80  2  0
 81 80  1  0
 81 85  1  0
 82 81  2  0
 83 78  2  0
 83 82  1  0
 84 83  1  0
 86 87  1  0
 87 90  1  0
 87 89  1  0
 88 86  2  0
 91 66  1  0
 91 92  1  0
 93 91  1  0
 95 94  1  0
M  ISO  4  13 101  14 101  57 100  58 100
M  END
>  <TORSDO>  (5) 
F 22

>  <SCORE>  (5) 
-12.184

>  <name>  (5) 
4

>  <ligand_id>  (5) 
4

>  <original_smiles>  (5) 
[H]c1c([H])c([H])c2c(c1[H])C([H])([H])C([H])([H])C([H])([H])C2([H])N([H])C(=O)C1([H])N(C(=O)C([H])(N([H])C(=O)C([H])(N([H])C([H])([H])[H])C([H])([H])[H])C(C([H])([H])[H])(C([H])([H])[H])C([H])([H])[H])C([H])([H])c2c([H])c(OC([H])([H])C([H])([H])C3([H])C([H])([H])C([H])([H])C(C(=O)N([H])[H])(C([H])([H])C(C(=O)N4C([H])([H])C([H])([H])C([H])([H])C([H])(n5nc(-c6c([H])c([H])c(Oc7c([H])c([H])c(F)c([H])c7F)c([H])c6[H])c(C(=O)N([H])[H])c5N([H])[H])C4([H])[H])(C([H])([H])[H])C([H])([H])C([H])([H])[H])C([H])([H])C3([H])[H])c([H])c([H])c2C1([H])[H]

>  <smiles>  (5) 
[H]c1c([H])c([H])c2c(c1[H])C([H])([H])C([H])([H])C([H])([H])C2([H])N([H])C(=O)C1([H])N(C(=O)C([H])(N([H])C(=O)C([H])(N([H])C([H])([H])[H])C([H])([H])[H])C(C([H])([H])[H])(C([H])([H])[H])C([H])([H])[H])C([H])([H])c2c([H])c(OC([H])([H])C([H])([H])C3([H])C([H])([H])C([H])([H])C(C(=O)N([H])[H])(C([H])([H])C(C(=O)N4C([H])([H])C([H])([H])C([H])([H])C([H])(n5nc(-c6c([H])c([H])c(Oc7c([H])c([H])c(F)c([H])c7F)c([H])c6[H])c(C(=O)N([H])[H])c5N([H])[H])C4([H])[H])(C([H])([H])[H])C([H])([H])C([H])([H])[H])C([H])([H])C3([H])[H])c([H])c([H])c2C1([H])[H]

$$$$
5:0:0
     RDKit          3D

 97106  0  0  1  0  0  0  0  0999 V2000
  -30.0950  -19.9810   22.6420 C   0  0  0  0  0  2  0  0  0  0  0  0
  -30.4520  -18.6350   22.0010 C   0  0  0  0  0  2  0  0  0  0  0  0
  -28.8950  -22.1210   21.6760 C   0  0  0  0  0  2  0  0  0  0  0  0
  -29.8560  -21.5510   19.5860 C   0  0  0  0  0  2  0  0  0  0  0  0
  -29.0880  -20.5720   21.6610 C   0  0  0  0  0  3  0  0  0  0  0  0
  -29.5760  -20.1190   20.2600 C   0  0  0  0  0  3  0  0  0  0  0  0
  -28.7360  -22.4880   20.1920 C   0  0  0  0  0  3  0  0  0  0  0  0
  -30.6140  -18.8690   20.4700 C   0  0  1  0  0  0  0  0  0  0  0  0
  -33.1950  -18.4470   20.6400 C   0  0  0  0  0  1  0  0  0  0  0  0
  -32.0640  -19.3520   20.1050 C   0  0  0  0  0  3  0  0  0  0  0  0
  -33.3390  -20.6310   18.2450 C   0  0  0  0  0  1  0  0  0  0  0  0
  -32.2740  -19.5790   18.5810 C   0  0  0  0  0  2  0  0  0  0  0  0
  -28.3960  -24.0210   18.1720 C   0  0  0  0  0  1  0  0  0  0  0  0
  -28.2120  -23.9720   19.7030 C   0  0  1  0  0  0  0  0  0  0  0  0
  -25.7070  -23.0840   19.3040 C   0  0  0  0  0  1  0  0  0  0  0  0
  -26.6880  -23.9860   20.0920 C   0  0  0  0  0  2  0  0  0  0  0  0
  -28.8190  -25.3560   20.3010 C   0  0  0  0  0  2  0  0  0  0  0  0
  -28.6460  -26.7370   19.7160 O   0  0  0  0  0  0  0  0  0  0  0  0
  -24.6020  -31.7480   23.1080 C   0  0  0  0  0  0  0  0  0  0  0  0
  -27.4750  -27.5180   19.8040 C   0  0  0  0  0  0  0  0  0  0  0  0
  -23.4920  -30.3960   21.3680 C   0  0  0  0  0  3  0  0  0  0  0  0
  -25.0370  -29.0320   19.8570 C   0  0  0  0  0  0  0  0  0  0  0  0
  -26.0140  -30.8610   21.2380 C   0  0  0  0  0  2  0  0  0  0  0  0
  -26.1740  -29.5270   20.5110 C   0  0  0  0  0  0  0  0  0  0  0  0
  -27.3950  -28.7800   20.4810 C   0  0  0  0  0  3  0  0  0  0  0  0
  -26.3320  -27.1240   19.0810 C   0  0  0  0  0  3  0  0  0  0  0  0
  -25.1210  -27.8380   19.1290 C   0  0  0  0  0  3  0  0  0  0  0  0
  -23.7520  -29.8290   19.9480 C   0  0  0  0  0  2  0  0  0  0  0  0
  -24.7190  -31.0190   21.9610 N   0  0  0  0  0  0  0  0  0  0  0  0
  -23.5000  -31.9290   23.6480 O   0  0  0  0  0  0  0  0  0  0  0  0
  -22.8820  -29.2830   22.2530 C   0  0  0  0  0  0  0  0  0  0  0  0
  -21.5630  -29.0590   22.1210 N   0  0  0  0  0  0  0  0  0  0  0  0
  -23.5930  -28.6260   23.0170 O   0  0  0  0  0  0  0  0  0  0  0  0
  -21.0450  -29.6440   21.4820 H   0  0  0  0  0  0  0  0  0  0  0  0
  -18.2330  -27.7210   22.6000 C   0  0  0  0  0  0  0  0  0  0  0  0
  -20.7910  -28.0320   22.8240 C   0  0  0  0  0  3  0  0  0  0  0  0
  -20.9150  -26.6620   22.1170 C   0  0  0  0  0  2  0  0  0  0  0  0
  -19.7940  -26.4010   21.1080 C   0  0  0  0  0  2  0  0  0  0  0  0
  -18.4270  -26.4440   21.7990 C   0  0  0  0  0  2  0  0  0  0  0  0
  -19.3430  -28.4740   23.0680 C   0  0  0  0  0  0  0  0  0  0  0  0
  -19.1070  -29.6700   23.7790 C   0  0  0  0  0  3  0  0  0  0  0  0
  -17.7930  -30.1150   24.0260 C   0  0  0  0  0  3  0  0  0  0  0  0
  -16.6990  -29.3580   23.5740 C   0  0  0  0  0  3  0  0  0  0  0  0
  -16.9210  -28.1620   22.8660 C   0  0  0  0  0  3  0  0  0  0  0  0
  -25.8420  -32.4120   23.7830 C   0  0  0  0  0  3  0  0  0  0  0  0
  -25.4740  -33.7910   24.1310 N   0  0  0  0  0  0  0  0  0  0  0  0
  -25.7800  -34.8690   23.3970 C   0  0  0  0  0  0  0  0  0  0  0  0
  -26.4730  -34.8100   22.3770 O   0  0  0  0  0  0  0  0  0  0  0  0
  -24.8600  -33.9100   24.9240 H   0  0  0  0  0  0  0  0  0  0  0  0
  -23.9900  -36.6020   23.0520 C   0  0  0  0  0  1  0  0  0  0  0  0
  -25.2360  -36.2300   23.8710 C   0  0  0  0  0  3  0  0  0  0  0  0
  -27.3180  -37.1880   24.7530 C   0  0  0  0  0  1  0  0  0  0  0  0
  -26.2290  -37.3230   23.7890 N   0  0  0  0  0  0  0  0  0  0  0  0
  -25.7850  -38.2250   23.9370 H   0  0  0  0  0  0  0  0  0  0  0  0
  -26.3440  -31.6310   25.0600 C   0  0  1  0  0  0  0  0  0  0  0  0
  -25.2230  -31.3070   26.0740 C   0  0  0  0  0  1  0  0  0  0  0  0
  -27.0140  -30.2970   24.6580 C   0  0  0  0  0  1  0  0  0  0  0  0
  -27.4270  -32.4640   25.7870 C   0  0  0  0  0  1  0  0  0  0  0  0
  -30.2770  -17.4710   19.6990 C   0  0  0  0  0  2  0  0  0  0  0  0
  -31.0710  -14.9860   19.9860 C   0  0  0  0  0  0  0  0  0  0  0  0
  -30.7960  -12.7120   19.0060 C   0  0  0  0  0  2  0  0  0  0  0  0
  -29.8130  -12.8130   17.8170 C   0  0  0  0  0  2  0  0  0  0  0  0
  -28.3570  -12.6720   18.2980 C   0  0  0  0  0  2  0  0  0  0  0  0
  -28.0480  -13.5540   19.5370 C   0  0  0  0  0  3  0  0  0  0  0  0
  -29.1490  -13.4390   20.6190 C   0  0  0  0  0  2  0  0  0  0  0  0
  -30.4370  -13.7640   19.9870 N   0  0  0  0  0  0  0  0  0  0  0  0
  -32.1880  -15.1050   19.4780 O   0  0  0  0  0  0  0  0  0  0  0  0
  -30.3380  -16.0940   20.3550 N   0  0  0  0  0  0  0  0  0  0  0  0
  -29.4960  -15.8570   20.8570 H   0  0  0  0  0  0  0  0  0  0  0  0
  -25.7070  -14.1730   20.3920 C   0  0  0  0  0  0  0  0  0  0  0  0
  -24.6420  -13.4100   20.7850 C   0  0  0  0  0  0  0  0  0  0  0  0
  -25.0690  -12.0510   20.6810 C   0  0  0  0  0  0  0  0  0  0  0  0
  -26.7190  -13.2810   20.0740 N   0  0  0  0  0  0  0  0  0  0  0  0
  -26.3420  -11.9960   20.3090 N   0  0  0  0  0  0  0  0  0  0  0  0
  -24.3210  -10.8000   20.8650 C   0  0  0  0  0  0  0  0  0  0  0  0
  -24.7120   -9.8380   21.8230 C   0  0  0  0  0  3  0  0  0  0  0  0
  -23.9670   -8.6510   21.9920 C   0  0  0  0  0  3  0  0  0  0  0  0
  -22.8150   -8.4180   21.2050 C   0  0  0  0  0  0  0  0  0  0  0  0
  -22.4440   -9.3660   20.2350 C   0  0  0  0  0  3  0  0  0  0  0  0
  -23.1890  -10.5450   20.0640 C   0  0  0  0  0  3  0  0  0  0  0  0
  -22.0440   -7.2830   21.2820 O   0  0  0  0  0  0  0  0  0  0  0  0
  -21.8650   -6.6120   22.4650 C   0  0  0  0  0  0  0  0  0  0  0  0
  -21.2860   -7.2320   23.5930 C   0  0  0  0  0  3  0  0  0  0  0  0
  -21.0580   -6.4870   24.7680 C   0  0  0  0  0  3  0  0  0  0  0  0
  -21.4010   -5.1220   24.8120 C   0  0  0  0  0  0  0  0  0  0  0  0
  -21.9750   -4.5010   23.6890 C   0  0  0  0  0  3  0  0  0  0  0  0
  -22.2030   -5.2450   22.5180 C   0  0  0  0  0  0  0  0  0  0  0  0
  -22.7360   -4.6380   21.4310 F   0  0  0  0  0  0  0  0  0  0  0  0
  -21.1760   -4.4030   25.9360 F   0  0  0  0  0  0  0  0  0  0  0  0
  -23.2730  -13.9070   21.1460 C   0  0  0  0  0  0  0  0  0  0  0  0
  -22.5770  -13.1970   22.0250 N   0  0  0  0  0  0  0  0  0  0  0  0
  -22.8330  -14.9580   20.6800 O   0  0  0  0  0  0  0  0  0  0  0  0
  -22.9530  -12.3480   22.4240 H   0  0  0  0  0  0  0  0  0  0  0  0
  -21.6560  -13.5030   22.3060 H   0  0  0  0  0  0  0  0  0  0  0  0
  -25.8950  -15.5450   20.2560 N   0  0  0  0  0  0  0  0  0  0  0  0
  -25.1440  -16.2030   20.4310 H   0  0  0  0  0  0  0  0  0  0  0  0
  -26.7320  -15.9840   19.8940 H   0  0  0  0  0  0  0  0  0  0  0  0
  2  1  1  0
  4  7  1  0
  5  3  1  0
  5  1  1  0
  6  4  1  0
  6  8  1  0
  6  5  1  0
  7 14  1  0
  7  3  1  0
  8 59  1  6
  8  2  1  0
 10  8  1  0
 10  9  1  0
 11 12  1  0
 12 10  1  0
 14 13  1  6
 14 16  1  0
 14 17  1  0
 15 16  1  0
 18 20  1  0
 18 17  1  0
 19 30  2  0
 20 25  1  0
 21 29  1  0
 21 31  1  0
 22 28  1  0
 22 24  1  0
 23 29  1  0
 24 23  1  0
 25 24  2  0
 26 27  1  0
 26 20  2  0
 27 22  2  0
 28 21  1  0
 29 19  1  0
 31 33  2  0
 32 31  1  0
 34 32  1  0
 35 44  2  0
 35 40  1  0
 36 32  1  0
 36 40  1  0
 37 36  1  0
 38 39  1  0
 38 37  1  0
 39 35  1  0
 40 41  2  0
 41 42  1  0
 43 42  2  0
 44 43  1  0
 45 19  1  0
 45 46  1  0
 45 55  1  0
 46 49  1  0
 47 51  1  0
 47 46  1  0
 48 47  2  0
 51 50  1  0
 53 51  1  0
 53 54  1  0
 53 52  1  0
 55 58  1  1
 55 56  1  0
 57 55  1  0
 59 68  1  0
 60 66  1  0
 60 68  1  0
 61 66  1  0
 62 63  1  0
 62 61  1  0
 64 63  1  0
 64 73  1  0
 64 65  1  0
 66 65  1  0
 67 60  2  0
 68 69  1  0
 70 71  2  0
 71 90  1  0
 72 71  1  0
 72 75  1  0
 73 74  1  0
 73 70  1  0
 74 72  2  0
 75 76  1  0
 76 77  2  0
 78 81  1  0
 78 77  1  0
 79 78  2  0
 80 79  1  0
 80 75  2  0
 81 82  1  0
 82 87  2  0
 82 83  1  0
 83 84  2  0
 84 85  1  0
 85 89  1  0
 86 85  2  0
 87 86  1  0
 88 87  1  0
 90 91  1  0
 91 94  1  0
 91 93  1  0
 92 90  2  0
 95 70  1  0
 95 96  1  0
 97 95  1  0
M  ISO  4  17 101  18 101  60 100  68 100
M  END
>  <TORSDO>  (6) 
F 22

>  <SCORE>  (6) 
-11.778

>  <name>  (6) 
5

>  <ligand_id>  (6) 
5

>  <original_smiles>  (6) 
[H]c1c([H])c([H])c2c(c1[H])C([H])([H])C([H])([H])C([H])([H])C2([H])N([H])C(=O)C1([H])N(C(=O)C([H])(N([H])C(=O)C([H])(N([H])C([H])([H])[H])C([H])([H])[H])C(C([H])([H])[H])(C([H])([H])[H])C([H])([H])[H])C([H])([H])c2c([H])c(OC([H])([H])C(C([H])([H])[H])(C([H])([H])C([H])([H])[H])C3([H])C([H])([H])C4([H])C([H])([H])C([H])([H])C(C([H])([H])N([H])C(=O)N5C([H])([H])C([H])([H])C([H])([H])C([H])(n6nc(-c7c([H])c([H])c(Oc8c([H])c([H])c(F)c([H])c8F)c([H])c7[H])c(C(=O)N([H])[H])c6N([H])[H])C5([H])[H])(C([H])(C([H])([H])[H])C([H])([H])C([H])([H])[H])C4([H])C3([H])[H])c([H])c([H])c2C1([H])[H]

>  <smiles>  (6) 
[H]c1c([H])c([H])c2c(c1[H])C([H])([H])C([H])([H])C([H])([H])C2([H])N([H])C(=O)C1([H])N(C(=O)C([H])(N([H])C(=O)C([H])(N([H])C([H])([H])[H])C([H])([H])[H])C(C([H])([H])[H])(C([H])([H])[H])C([H])([H])[H])C([H])([H])c2c([H])c(OC([H])([H])C(C([H])([H])[H])(C([H])([H])C([H])([H])[H])C3([H])C([H])([H])C4([H])C([H])([H])C([H])([H])C(C([H])([H])N([H])C(=O)N5C([H])([H])C([H])([H])C([H])([H])C([H])(n6nc(-c7c([H])c([H])c(Oc8c([H])c([H])c(F)c([H])c8F)c([H])c7[H])c(C(=O)N([H])[H])c6N([H])[H])C5([H])[H])(C([H])(C([H])([H])[H])C([H])([H])C([H])([H])[H])C4([H])C3([H])[H])c([H])c([H])c2C1([H])[H]

$$$$
6:0:0
     RDKit          3D

 95103  0  0  1  0  0  0  0  0999 V2000
  -28.9040  -18.8640   19.8150 C   0  0  0  0  0  3  0  0  0  0  0  0
  -30.3870  -19.3350   21.6430 C   0  0  0  0  0  3  0  0  0  0  0  0
  -29.9220  -18.4040   20.6840 C   0  0  0  0  0  0  0  0  0  0  0  0
  -28.3930  -20.1970   19.8840 C   0  0  0  0  0  0  0  0  0  0  0  0
  -29.8910  -20.6660   21.7320 C   0  0  0  0  0  0  0  0  0  0  0  0
  -28.8750  -21.1380   20.8490 C   0  0  0  0  0  0  0  0  0  0  0  0
  -29.8240  -21.3440   24.1800 C   0  0  0  0  0  1  0  0  0  0  0  0
  -30.4870  -21.5610   22.8130 C   0  0  0  0  0  2  0  0  0  0  0  0
  -25.9540  -19.9410   19.2610 C   0  0  0  0  0  1  0  0  0  0  0  0
  -27.3030  -20.5700   18.8910 C   0  0  0  0  0  2  0  0  0  0  0  0
  -28.2150  -22.5530   21.0450 C   0  0  0  0  0  2  0  0  0  0  0  0
  -28.6970  -23.8250   20.2320 C   0  0  0  0  0  2  0  0  0  0  0  0
  -28.0660  -25.1800   20.7540 C   0  0  0  0  0  2  0  0  0  0  0  0
  -28.2350  -26.4240   19.9890 O   0  0  0  0  0  0  0  0  0  0  0  0
  -24.5380  -31.7360   23.1190 C   0  0  0  0  0  0  0  0  0  0  0  0
  -27.1290  -27.2700   19.9750 C   0  0  0  0  0  0  0  0  0  0  0  0
  -23.3250  -30.3780   21.4480 C   0  0  0  0  0  3  0  0  0  0  0  0
  -24.7690  -28.8590   19.9860 C   0  0  0  0  0  0  0  0  0  0  0  0
  -25.8590  -30.7060   21.2650 C   0  0  0  0  0  2  0  0  0  0  0  0
  -25.9360  -29.3430   20.5910 C   0  0  0  0  0  0  0  0  0  0  0  0
  -27.1250  -28.5600   20.5750 C   0  0  0  0  0  3  0  0  0  0  0  0
  -25.9480  -26.8260   19.3460 C   0  0  0  0  0  3  0  0  0  0  0  0
  -24.7750  -27.6040   19.3520 C   0  0  0  0  0  3  0  0  0  0  0  0
  -23.5340  -29.7320   20.0530 C   0  0  0  0  0  2  0  0  0  0  0  0
  -24.5920  -30.9550   22.0010 N   0  0  0  0  0  0  0  0  0  0  0  0
  -23.4560  -32.0050   23.6620 O   0  0  0  0  0  0  0  0  0  0  0  0
  -22.6600  -29.3440   22.3860 C   0  0  0  0  0  0  0  0  0  0  0  0
  -21.3320  -29.1780   22.2560 N   0  0  0  0  0  0  0  0  0  0  0  0
  -23.3370  -28.6950   23.1880 O   0  0  0  0  0  0  0  0  0  0  0  0
  -20.8480  -29.7530   21.5820 H   0  0  0  0  0  0  0  0  0  0  0  0
  -17.9400  -28.0350   22.7700 C   0  0  0  0  0  0  0  0  0  0  0  0
  -20.5080  -28.2300   23.0060 C   0  0  0  0  0  3  0  0  0  0  0  0
  -20.5700  -26.8190   22.3770 C   0  0  0  0  0  2  0  0  0  0  0  0
  -19.4450  -26.5570   21.3710 C   0  0  0  0  0  2  0  0  0  0  0  0
  -18.0760  -26.7080   22.0420 C   0  0  0  0  0  2  0  0  0  0  0  0
  -19.0820  -28.7570   23.2090 C   0  0  0  0  0  0  0  0  0  0  0  0
  -18.9010  -30.0030   23.8480 C   0  0  0  0  0  3  0  0  0  0  0  0
  -17.6110  -30.5270   24.0530 C   0  0  0  0  0  3  0  0  0  0  0  0
  -16.4830  -29.8000   23.6320 C   0  0  0  0  0  3  0  0  0  0  0  0
  -16.6490  -28.5570   22.9960 C   0  0  0  0  0  3  0  0  0  0  0  0
  -25.8260  -32.3450   23.7530 C   0  0  0  0  0  3  0  0  0  0  0  0
  -25.5260  -33.7380   24.1120 N   0  0  0  0  0  0  0  0  0  0  0  0
  -25.8740  -34.8050   23.3810 C   0  0  0  0  0  0  0  0  0  0  0  0
  -26.5520  -34.7180   22.3530 O   0  0  0  0  0  0  0  0  0  0  0  0
  -24.9250  -33.8790   24.9100 H   0  0  0  0  0  0  0  0  0  0  0  0
  -24.1610  -36.6180   23.0560 C   0  0  0  0  0  1  0  0  0  0  0  0
  -25.3950  -36.1870   23.8650 C   0  0  0  0  0  3  0  0  0  0  0  0
  -27.5290  -37.0410   24.7280 C   0  0  0  0  0  1  0  0  0  0  0  0
  -26.4360  -37.2340   23.7790 N   0  0  0  0  0  0  0  0  0  0  0  0
  -26.0360  -38.1540   23.9400 H   0  0  0  0  0  0  0  0  0  0  0  0
  -26.3360  -31.5440   25.0130 C   0  0  1  0  0  0  0  0  0  0  0  0
  -25.2420  -31.2920   26.0750 C   0  0  0  0  0  1  0  0  0  0  0  0
  -26.9080  -30.1700   24.5920 C   0  0  0  0  0  1  0  0  0  0  0  0
  -27.4930  -32.3150   25.6900 C   0  0  0  0  0  1  0  0  0  0  0  0
  -30.6930  -17.0570   20.4630 C   0  0  0  0  0  3  0  0  0  0  0  0
  -30.8080  -14.5580   20.7760 C   0  0  0  0  0  0  0  0  0  0  0  0
  -30.5240  -12.3710   19.6690 C   0  0  0  0  0  2  0  0  0  0  0  0
  -29.6470  -12.5640   18.4160 C   0  0  0  0  0  2  0  0  0  0  0  0
  -28.1580  -12.4240   18.7830 C   0  0  0  0  0  2  0  0  0  0  0  0
  -27.7610  -13.2620   20.0290 C   0  0  0  0  0  3  0  0  0  0  0  0
  -28.7720  -13.0990   21.1840 C   0  0  0  0  0  2  0  0  0  0  0  0
  -30.1060  -13.3920   20.6500 N   0  0  0  0  0  0  0  0  0  0  0  0
  -32.0140  -14.5930   20.5290 O   0  0  0  0  0  0  0  0  0  0  0  0
  -30.1100  -15.7340   20.8780 N   0  0  0  0  0  0  0  0  0  0  0  0
  -29.1190  -15.6870   21.0530 H   0  0  0  0  0  0  0  0  0  0  0  0
  -25.3360  -13.8510   20.6310 C   0  0  0  0  0  0  0  0  0  0  0  0
  -24.2570  -13.0760   20.9570 C   0  0  0  0  0  0  0  0  0  0  0  0
  -24.7250  -11.7260   20.9600 C   0  0  0  0  0  0  0  0  0  0  0  0
  -26.3930  -12.9740   20.4550 N   0  0  0  0  0  0  0  0  0  0  0  0
  -26.0290  -11.6920   20.7150 N   0  0  0  0  0  0  0  0  0  0  0  0
  -23.9940  -10.4620   21.1250 C   0  0  0  0  0  0  0  0  0  0  0  0
  -24.3930   -9.4970   22.0770 C   0  0  0  0  0  3  0  0  0  0  0  0
  -23.6630   -8.2990   22.2310 C   0  0  0  0  0  3  0  0  0  0  0  0
  -22.5200   -8.0570   21.4320 C   0  0  0  0  0  0  0  0  0  0  0  0
  -22.1410   -9.0100   20.4710 C   0  0  0  0  0  3  0  0  0  0  0  0
  -22.8710  -10.2000   20.3160 C   0  0  0  0  0  3  0  0  0  0  0  0
  -21.7660   -6.9100   21.4940 O   0  0  0  0  0  0  0  0  0  0  0  0
  -21.6880   -6.1600   22.6390 C   0  0  0  0  0  0  0  0  0  0  0  0
  -21.2240   -6.7040   23.8560 C   0  0  0  0  0  3  0  0  0  0  0  0
  -21.0940   -5.8810   24.9930 C   0  0  0  0  0  3  0  0  0  0  0  0
  -21.4190   -4.5130   24.9130 C   0  0  0  0  0  0  0  0  0  0  0  0
  -21.8760   -3.9680   23.7000 C   0  0  0  0  0  3  0  0  0  0  0  0
  -22.0070   -4.7880   22.5660 C   0  0  0  0  0  0  0  0  0  0  0  0
  -22.4270   -4.2530   21.3950 F   0  0  0  0  0  0  0  0  0  0  0  0
  -21.2870   -3.7200   26.0010 F   0  0  0  0  0  0  0  0  0  0  0  0
  -22.8460  -13.5490   21.1550 C   0  0  0  0  0  0  0  0  0  0  0  0
  -22.0820  -12.8650   21.9990 N   0  0  0  0  0  0  0  0  0  0  0  0
  -22.4260  -14.5620   20.5960 O   0  0  0  0  0  0  0  0  0  0  0  0
  -22.4330  -12.0450   22.4730 H   0  0  0  0  0  0  0  0  0  0  0  0
  -21.1340  -13.1640   22.1760 H   0  0  0  0  0  0  0  0  0  0  0  0
  -25.5020  -15.2210   20.4480 N   0  0  0  0  0  0  0  0  0  0  0  0
  -24.7250  -15.8710   20.5110 H   0  0  0  0  0  0  0  0  0  0  0  0
  -26.3600  -15.6590   20.1400 H   0  0  0  0  0  0  0  0  0  0  0  0
  -32.0250  -18.1580   18.5220 C   0  0  0  0  0  1  0  0  0  0  0  0
  -31.1580  -16.9750   18.9820 C   0  0  0  0  0  2  0  0  0  0  0  0
  1  4  2  0
  1  3  1  0
  2  5  1  0
  3  2  2  0
  4  6  1  0
  5  8  1  0
  6 11  1  0
  6  5  2  0
  8  7  1  0
 10  9  1  0
 10  4  1  0
 12 13  1  0
 12 11  1  0
 14 13  1  0
 15 26  2  0
 16 14  1  0
 16 21  1  0
 17 25  1  0
 17 27  1  0
 18 24  1  0
 18 20  1  0
 19 25  1  0
 20 19  1  0
 21 20  2  0
 22 23  1  0
 22 16  2  0
 23 18  2  0
 24 17  1  0
 25 15  1  0
 27 29  2  0
 28 27  1  0
 30 28  1  0
 31 40  2  0
 31 36  1  0
 32 28  1  0
 32 36  1  0
 33 32  1  0
 34 35  1  0
 34 33  1  0
 35 31  1  0
 36 37  2  0
 37 38  1  0
 39 38  2  0
 40 39  1  0
 41 15  1  0
 41 42  1  0
 41 51  1  0
 42 45  1  0
 43 47  1  0
 43 42  1  0
 44 43  2  0
 47 46  1  0
 49 47  1  0
 49 50  1  0
 49 48  1  0
 51 54  1  1
 51 52  1  0
 53 51  1  0
 55 95  1  0
 55  3  1  0
 55 64  1  0
 56 64  1  0
 57 62  1  0
 58 59  1  0
 58 57  1  0
 60 59  1  0
 60 69  1  0
 60 61  1  0
 62 56  1  0
 62 61  1  0
 63 56  2  0
 64 65  1  0
 66 67  2  0
 67 68  1  0
 67 86  1  0
 68 71  1  0
 69 66  1  0
 69 70  1  0
 70 68  2  0
 71 72  1  0
 72 73  2  0
 74 77  1  0
 74 73  1  0
 75 74  2  0
 76 75  1  0
 76 71  2  0
 77 78  1  0
 78 79  1  0
 79 80  2  0
 81 80  1  0
 81 85  1  0
 82 81  2  0
 83 78  2  0
 83 82  1  0
 84 83  1  0
 86 87  1  0
 87 90  1  0
 87 89  1  0
 88 86  2  0
 91 92  1  0
 91 66  1  0
 93 91  1  0
 94 95  1  0
M  ISO  4  13 101  14 101  56 100  64 100
M  END
>  <TORSDO>  (7) 
F 23

>  <SCORE>  (7) 
-12.446

>  <name>  (7) 
6

>  <ligand_id>  (7) 
6

>  <original_smiles>  (7) 
[H]c1c([H])c([H])c2c(c1[H])C([H])([H])C([H])([H])C([H])([H])C2([H])N([H])C(=O)C1([H])N(C(=O)C([H])(N([H])C(=O)C([H])(N([H])C([H])([H])[H])C([H])([H])[H])C(C([H])([H])[H])(C([H])([H])[H])C([H])([H])[H])C([H])([H])c2c([H])c(OC([H])([H])C([H])([H])C([H])([H])c3c(C([H])([H])C([H])([H])[H])c([H])c(C([H])(N([H])C(=O)N4C([H])([H])C([H])([H])C([H])([H])C([H])(n5nc(-c6c([H])c([H])c(Oc7c([H])c([H])c(F)c([H])c7F)c([H])c6[H])c(C(=O)N([H])[H])c5N([H])[H])C4([H])[H])C([H])([H])C([H])([H])[H])c([H])c3C([H])([H])C([H])([H])[H])c([H])c([H])c2C1([H])[H]

>  <smiles>  (7) 
[H]c1c([H])c([H])c2c(c1[H])C([H])([H])C([H])([H])C([H])([H])C2([H])N([H])C(=O)C1([H])N(C(=O)C([H])(N([H])C(=O)C([H])(N([H])C([H])([H])[H])C([H])([H])[H])C(C([H])([H])[H])(C([H])([H])[H])C([H])([H])[H])C([H])([H])c2c([H])c(OC([H])([H])C([H])([H])C([H])([H])c3c(C([H])([H])C([H])([H])[H])c([H])c(C([H])(N([H])C(=O)N4C([H])([H])C([H])([H])C([H])([H])C([H])(n5nc(-c6c([H])c([H])c(Oc7c([H])c([H])c(F)c([H])c7F)c([H])c6[H])c(C(=O)N([H])[H])c5N([H])[H])C4([H])[H])C([H])([H])C([H])([H])[H])c([H])c3C([H])([H])C([H])([H])[H])c([H])c([H])c2C1([H])[H]

$$$$
7:0:0
     RDKit          3D

 91100  0  0  1  0  0  0  0  0999 V2000
  -27.5820  -19.9520   19.6050 C   0  0  0  0  0  3  0  0  0  0  0  0
  -28.2990  -18.7320   19.8130 C   0  0  0  0  0  3  0  0  0  0  0  0
  -30.1300  -20.0050   20.7770 C   0  0  0  0  0  3  0  0  0  0  0  0
  -28.1340  -21.1990   19.9980 C   0  0  0  0  0  0  0  0  0  0  0  0
  -29.4030  -21.2370   20.5700 C   0  0  0  0  0  0  0  0  0  0  0  0
  -29.5900  -18.7100   20.4090 C   0  0  0  0  0  0  0  0  0  0  0  0
  -27.5520  -22.5900   19.9220 C   0  0  0  0  0  0  0  0  0  0  0  0
  -29.7820  -22.7170   20.8970 C   0  0  0  0  0  2  0  0  0  0  0  0
  -28.4240  -23.5280   20.7920 C   0  0  0  0  0  3  0  0  0  0  0  0
  -26.5290  -22.9420   19.3310 O   0  0  0  0  0  0  0  0  0  0  0  0
  -30.4370  -17.3640   20.5950 C   0  0  0  0  0  2  0  0  0  0  0  0
  -30.5980  -14.7740   20.3370 C   0  0  0  0  0  0  0  0  0  0  0  0
  -30.3530  -12.5120   19.3050 C   0  0  0  0  0  2  0  0  0  0  0  0
  -29.3980  -12.5950   18.0950 C   0  0  0  0  0  2  0  0  0  0  0  0
  -27.9360  -12.4230   18.5470 C   0  0  0  0  0  2  0  0  0  0  0  0
  -27.5830  -13.3030   19.7760 C   0  0  0  0  0  3  0  0  0  0  0  0
  -28.6580  -13.2150   20.8790 C   0  0  0  0  0  2  0  0  0  0  0  0
  -29.9430  -13.5640   20.2630 N   0  0  0  0  0  0  0  0  0  0  0  0
  -31.7880  -14.8380   20.0180 O   0  0  0  0  0  0  0  0  0  0  0  0
  -29.8770  -15.9390   20.5630 N   0  0  0  0  0  0  0  0  0  0  0  0
  -28.8940  -15.8330   20.7570 H   0  0  0  0  0  0  0  0  0  0  0  0
  -25.2110  -13.8920   20.5490 C   0  0  0  0  0  0  0  0  0  0  0  0
  -24.1470  -13.1170   20.9230 C   0  0  0  0  0  0  0  0  0  0  0  0
  -24.6040  -11.7640   20.8650 C   0  0  0  0  0  0  0  0  0  0  0  0
  -26.2460  -13.0120   20.2850 N   0  0  0  0  0  0  0  0  0  0  0  0
  -25.8900  -11.7260   20.5390 N   0  0  0  0  0  0  0  0  0  0  0  0
  -23.8740  -10.5020   21.0450 C   0  0  0  0  0  0  0  0  0  0  0  0
  -24.3010   -9.5270   21.9740 C   0  0  0  0  0  3  0  0  0  0  0  0
  -23.5700   -8.3310   22.1410 C   0  0  0  0  0  3  0  0  0  0  0  0
  -22.4000   -8.1010   21.3810 C   0  0  0  0  0  0  0  0  0  0  0  0
  -21.9930   -9.0640   20.4420 C   0  0  0  0  0  3  0  0  0  0  0  0
  -22.7230  -10.2520   20.2720 C   0  0  0  0  0  3  0  0  0  0  0  0
  -21.6410   -6.9580   21.4590 O   0  0  0  0  0  0  0  0  0  0  0  0
  -21.5640   -6.2230   22.6140 C   0  0  0  0  0  0  0  0  0  0  0  0
  -21.0760   -6.7760   23.8190 C   0  0  0  0  0  3  0  0  0  0  0  0
  -20.9480   -5.9660   24.9650 C   0  0  0  0  0  3  0  0  0  0  0  0
  -21.2980   -4.6040   24.9080 C   0  0  0  0  0  0  0  0  0  0  0  0
  -21.7810   -4.0510   23.7090 C   0  0  0  0  0  3  0  0  0  0  0  0
  -21.9100   -4.8570   22.5650 C   0  0  0  0  0  0  0  0  0  0  0  0
  -22.3540   -4.3140   21.4070 F   0  0  0  0  0  0  0  0  0  0  0  0
  -21.1690   -3.8240   26.0070 F   0  0  0  0  0  0  0  0  0  0  0  0
  -22.7560  -13.5960   21.2190 C   0  0  0  0  0  0  0  0  0  0  0  0
  -22.0330  -12.8850   22.0770 N   0  0  0  0  0  0  0  0  0  0  0  0
  -22.3190  -14.6340   20.7250 O   0  0  0  0  0  0  0  0  0  0  0  0
  -22.4000  -12.0440   22.4970 H   0  0  0  0  0  0  0  0  0  0  0  0
  -21.1000  -13.1870   22.3200 H   0  0  0  0  0  0  0  0  0  0  0  0
  -25.3770  -15.2640   20.3880 N   0  0  0  0  0  0  0  0  0  0  0  0
  -24.6100  -15.9170   20.5100 H   0  0  0  0  0  0  0  0  0  0  0  0
  -26.2120  -15.7020   20.0220 H   0  0  0  0  0  0  0  0  0  0  0  0
  -28.1170  -25.1180   21.0700 C   0  0  0  0  0  2  0  0  0  0  0  0
  -28.3550  -26.3780   20.2860 O   0  0  0  0  0  0  0  0  0  0  0  0
  -24.6140  -31.8950   23.2230 C   0  0  0  0  0  0  0  0  0  0  0  0
  -27.2800  -27.2940   20.2410 C   0  0  0  0  0  0  0  0  0  0  0  0
  -23.4390  -30.4730   21.5830 C   0  0  0  0  0  3  0  0  0  0  0  0
  -24.9160  -28.9180   20.1830 C   0  0  0  0  0  0  0  0  0  0  0  0
  -25.9820  -30.8000   21.4260 C   0  0  0  0  0  2  0  0  0  0  0  0
  -26.0800  -29.4130   20.7900 C   0  0  0  0  0  0  0  0  0  0  0  0
  -27.2700  -28.6140   20.8070 C   0  0  0  0  0  3  0  0  0  0  0  0
  -26.0980  -26.8640   19.6040 C   0  0  0  0  0  3  0  0  0  0  0  0
  -24.9310  -27.6510   19.5780 C   0  0  0  0  0  3  0  0  0  0  0  0
  -23.6740  -29.7880   20.2110 C   0  0  0  0  0  2  0  0  0  0  0  0
  -24.6960  -31.0750   22.1340 N   0  0  0  0  0  0  0  0  0  0  0  0
  -23.5220  -32.1690   23.7440 O   0  0  0  0  0  0  0  0  0  0  0  0
  -22.7710  -29.4610   22.5460 C   0  0  0  0  0  0  0  0  0  0  0  0
  -21.4460  -29.2820   22.4150 N   0  0  0  0  0  0  0  0  0  0  0  0
  -23.4470  -28.8400   23.3700 O   0  0  0  0  0  0  0  0  0  0  0  0
  -20.9590  -29.8370   21.7240 H   0  0  0  0  0  0  0  0  0  0  0  0
  -18.0630  -28.1010   22.9290 C   0  0  0  0  0  0  0  0  0  0  0  0
  -20.6240  -28.3470   23.1860 C   0  0  0  0  0  3  0  0  0  0  0  0
  -20.7160  -26.9160   22.6070 C   0  0  0  0  0  2  0  0  0  0  0  0
  -19.6080  -26.6020   21.5970 C   0  0  0  0  0  2  0  0  0  0  0  0
  -18.2290  -26.7530   22.2470 C   0  0  0  0  0  2  0  0  0  0  0  0
  -19.1880  -28.8560   23.3550 C   0  0  0  0  0  0  0  0  0  0  0  0
  -18.9770  -30.1180   23.9530 C   0  0  0  0  0  3  0  0  0  0  0  0
  -17.6760  -30.6250   24.1260 C   0  0  0  0  0  3  0  0  0  0  0  0
  -16.5660  -29.8670   23.7160 C   0  0  0  0  0  3  0  0  0  0  0  0
  -16.7600  -28.6060   23.1220 C   0  0  0  0  0  3  0  0  0  0  0  0
  -25.8850  -32.5430   23.8540 C   0  0  0  0  0  3  0  0  0  0  0  0
  -25.5600  -33.9420   24.1680 N   0  0  0  0  0  0  0  0  0  0  0  0
  -25.8970  -34.9930   23.4070 C   0  0  0  0  0  0  0  0  0  0  0  0
  -26.5810  -34.8850   22.3860 O   0  0  0  0  0  0  0  0  0  0  0  0
  -24.9530  -34.0990   24.9590 H   0  0  0  0  0  0  0  0  0  0  0  0
  -24.1770  -36.7840   23.0010 C   0  0  0  0  0  1  0  0  0  0  0  0
  -25.3960  -36.3820   23.8480 C   0  0  0  0  0  3  0  0  0  0  0  0
  -27.5010  -37.2750   24.7400 C   0  0  0  0  0  1  0  0  0  0  0  0
  -26.4300  -37.4350   23.7600 N   0  0  0  0  0  0  0  0  0  0  0  0
  -26.0180  -38.3560   23.8890 H   0  0  0  0  0  0  0  0  0  0  0  0
  -26.3900  -31.7900   25.1450 C   0  0  1  0  0  0  0  0  0  0  0  0
  -25.2830  -31.5520   26.2000 C   0  0  0  0  0  1  0  0  0  0  0  0
  -26.9920  -30.4140   24.7750 C   0  0  0  0  0  1  0  0  0  0  0  0
  -27.5230  -32.6010   25.8150 C   0  0  0  0  0  1  0  0  0  0  0  0
  1  2  2  0
  1  4  1  0
  2  6  1  0
  4  5  2  0
  5  3  1  0
  5  8  1  0
  6 11  1  0
  6  3  2  0
  7  4  1  0
  7  9  1  0
  9  8  1  0
  9 50  1  0
 10  7  2  0
 12 20  1  0
 13 18  1  0
 14 15  1  0
 14 13  1  0
 16 15  1  0
 16 25  1  0
 16 17  1  0
 18 12  1  0
 18 17  1  0
 19 12  2  0
 20 11  1  0
 20 21  1  0
 22 23  2  0
 23 42  1  0
 24 23  1  0
 24 27  1  0
 25 26  1  0
 25 22  1  0
 26 24  2  0
 27 28  1  0
 28 29  2  0
 30 33  1  0
 30 29  1  0
 31 30  2  0
 32 31  1  0
 32 27  2  0
 33 34  1  0
 34 35  1  0
 35 36  2  0
 37 36  1  0
 37 41  1  0
 38 37  2  0
 39 34  2  0
 39 38  1  0
 40 39  1  0
 42 43  1  0
 43 46  1  0
 43 45  1  0
 44 42  2  0
 47 48  1  0
 47 22  1  0
 49 47  1  0
 51 50  1  0
 52 63  2  0
 53 51  1  0
 53 58  1  0
 54 62  1  0
 54 64  1  0
 55 61  1  0
 55 57  1  0
 56 62  1  0
 57 58  2  0
 57 56  1  0
 59 53  2  0
 60 59  1  0
 60 55  2  0
 61 54  1  0
 62 52  1  0
 64 66  2  0
 65 64  1  0
 67 65  1  0
 68 77  2  0
 68 73  1  0
 69 65  1  0
 69 73  1  0
 70 69  1  0
 71 72  1  0
 71 70  1  0
 72 68  1  0
 73 74  2  0
 74 75  1  0
 76 75  2  0
 77 76  1  0
 78 52  1  0
 78 79  1  0
 78 88  1  0
 79 82  1  0
 80 84  1  0
 80 79  1  0
 81 80  2  0
 84 83  1  0
 86 84  1  0
 86 87  1  0
 86 85  1  0
 88 91  1  1
 88 89  1  0
 90 88  1  0
M  ISO  4  12 100  20 100  50 101  51 101
M  END
>  <TORSDO>  (8) 
F 18

>  <SCORE>  (8) 
-14.781

>  <name>  (8) 
7

>  <ligand_id>  (8) 
7

>  <original_smiles>  (8) 
[H]c1c([H])c([H])c2c(c1[H])C([H])([H])C([H])([H])C([H])([H])C2([H])N([H])C(=O)C1([H])N(C(=O)C([H])(N([H])C(=O)C([H])(N([H])C([H])([H])[H])C([H])([H])[H])C(C([H])([H])[H])(C([H])([H])[H])C([H])([H])[H])C([H])([H])c2c([H])c(OC([H])([H])C3([H])C(=O)c4c([H])c([H])c(C([H])([H])N([H])C(=O)N5C([H])([H])C([H])([H])C([H])([H])C([H])(n6nc(-c7c([H])c([H])c(Oc8c([H])c([H])c(F)c([H])c8F)c([H])c7[H])c(C(=O)N([H])[H])c6N([H])[H])C5([H])[H])c([H])c4C3([H])[H])c([H])c([H])c2C1([H])[H]

>  <smiles>  (8) 
[H]c1c([H])c([H])c2c(c1[H])C([H])([H])C([H])([H])C([H])([H])C2([H])N([H])C(=O)C1([H])N(C(=O)C([H])(N([H])C(=O)C([H])(N([H])C([H])([H])[H])C([H])([H])[H])C(C([H])([H])[H])(C([H])([H])[H])C([H])([H])[H])C([H])([H])c2c([H])c(OC([H])([H])C3([H])C(=O)c4c([H])c([H])c(C([H])([H])N([H])C(=O)N5C([H])([H])C([H])([H])C([H])([H])C([H])(n6nc(-c7c([H])c([H])c(Oc8c([H])c([H])c(F)c([H])c8F)c([H])c7[H])c(C(=O)N([H])[H])c6N([H])[H])C5([H])[H])c([H])c4C3([H])[H])c([H])c([H])c2C1([H])[H]

$$$$
8:0:0
     RDKit          3D

 91 99  0  0  1  0  0  0  0  0999 V2000
  -28.3290  -19.9280   20.9570 C   0  0  0  0  0  3  0  0  0  0  0  0
  -28.4500  -18.5620   20.6230 C   0  0  0  0  0  3  0  0  0  0  0  0
  -30.6680  -20.2620   20.3930 C   0  0  0  0  0  3  0  0  0  0  0  0
  -29.4310  -20.8020   20.8100 C   0  0  0  0  0  0  0  0  0  0  0  0
  -29.6730  -18.0400   20.1420 C   0  0  0  0  0  0  0  0  0  0  0  0
  -30.7990  -18.8950   20.0650 C   0  0  0  0  0  0  0  0  0  0  0  0
  -32.1450  -18.3780   19.5870 C   0  0  0  0  0  1  0  0  0  0  0  0
  -29.3400  -22.3050   21.1000 C   0  0  0  0  0  2  0  0  0  0  0  0
  -27.9450  -22.9550   20.9160 C   0  0  0  0  0  2  0  0  0  0  0  0
  -27.9040  -24.4920   21.1330 C   0  0  0  0  0  2  0  0  0  0  0  0
  -28.4920  -25.3380   19.9760 C   0  0  0  0  0  2  0  0  0  0  0  0
  -28.4600  -26.7530   20.2280 O   0  0  0  0  0  0  0  0  0  0  0  0
  -24.5900  -31.8900   23.2400 C   0  0  0  0  0  0  0  0  0  0  0  0
  -27.2660  -27.4480   20.1860 C   0  0  0  0  0  0  0  0  0  0  0  0
  -23.4010  -30.4870   21.5860 C   0  0  0  0  0  3  0  0  0  0  0  0
  -24.8670  -28.9550   20.1720 C   0  0  0  0  0  0  0  0  0  0  0  0
  -25.9260  -30.8520   21.4090 C   0  0  0  0  0  2  0  0  0  0  0  0
  -26.0180  -29.4810   20.7700 C   0  0  0  0  0  0  0  0  0  0  0  0
  -27.2180  -28.7350   20.7710 C   0  0  0  0  0  3  0  0  0  0  0  0
  -26.0930  -26.9360   19.5820 C   0  0  0  0  0  3  0  0  0  0  0  0
  -24.9010  -27.6840   19.5730 C   0  0  0  0  0  3  0  0  0  0  0  0
  -23.6210  -29.8090   20.2080 C   0  0  0  0  0  2  0  0  0  0  0  0
  -24.6570  -31.0910   22.1370 N   0  0  0  0  0  0  0  0  0  0  0  0
  -23.5030  -32.1590   23.7710 O   0  0  0  0  0  0  0  0  0  0  0  0
  -22.7430  -29.4640   22.5400 C   0  0  0  0  0  0  0  0  0  0  0  0
  -21.4180  -29.2840   22.4040 N   0  0  0  0  0  0  0  0  0  0  0  0
  -23.4210  -28.8350   23.3580 O   0  0  0  0  0  0  0  0  0  0  0  0
  -20.9360  -29.8460   21.7170 H   0  0  0  0  0  0  0  0  0  0  0  0
  -18.0400  -28.0930   22.8710 C   0  0  0  0  0  0  0  0  0  0  0  0
  -20.5950  -28.3440   23.1630 C   0  0  0  0  0  3  0  0  0  0  0  0
  -20.7000  -26.9150   22.5790 C   0  0  0  0  0  2  0  0  0  0  0  0
  -19.6030  -26.5990   21.5580 C   0  0  0  0  0  2  0  0  0  0  0  0
  -18.2170  -26.7450   22.1930 C   0  0  0  0  0  2  0  0  0  0  0  0
  -19.1570  -28.8500   23.3130 C   0  0  0  0  0  0  0  0  0  0  0  0
  -18.9370  -30.1120   23.9070 C   0  0  0  0  0  3  0  0  0  0  0  0
  -17.6330  -30.6160   24.0650 C   0  0  0  0  0  3  0  0  0  0  0  0
  -16.5300  -29.8550   23.6410 C   0  0  0  0  0  3  0  0  0  0  0  0
  -16.7340  -28.5960   23.0510 C   0  0  0  0  0  3  0  0  0  0  0  0
  -25.8700  -32.5210   23.8740 C   0  0  0  0  0  3  0  0  0  0  0  0
  -25.5560  -33.9170   24.2050 N   0  0  0  0  0  0  0  0  0  0  0  0
  -25.8940  -34.9720   23.4520 C   0  0  0  0  0  0  0  0  0  0  0  0
  -26.5750  -34.8730   22.4260 O   0  0  0  0  0  0  0  0  0  0  0  0
  -24.9530  -34.0670   25.0010 H   0  0  0  0  0  0  0  0  0  0  0  0
  -24.1670  -36.7640   23.0830 C   0  0  0  0  0  1  0  0  0  0  0  0
  -25.3980  -36.3580   23.9070 C   0  0  0  0  0  3  0  0  0  0  0  0
  -27.5210  -37.2410   24.7680 C   0  0  0  0  0  1  0  0  0  0  0  0
  -26.4310  -37.4120   23.8120 N   0  0  0  0  0  0  0  0  0  0  0  0
  -26.0210  -38.3310   23.9590 H   0  0  0  0  0  0  0  0  0  0  0  0
  -26.3800  -31.7500   25.1530 C   0  0  1  0  0  0  0  0  0  0  0  0
  -25.2780  -31.5090   26.2140 C   0  0  0  0  0  1  0  0  0  0  0  0
  -26.9690  -30.3740   24.7610 C   0  0  0  0  0  1  0  0  0  0  0  0
  -27.5210  -32.5450   25.8270 C   0  0  0  0  0  1  0  0  0  0  0  0
  -29.7110  -16.6180   19.5820 C   0  0  0  0  0  2  0  0  0  0  0  0
  -30.6840  -14.4870   20.2690 C   0  0  0  0  0  0  0  0  0  0  0  0
  -30.3870  -12.3280   19.1480 C   0  0  0  0  0  2  0  0  0  0  0  0
  -29.4330  -12.5820   17.9590 C   0  0  0  0  0  2  0  0  0  0  0  0
  -27.9600  -12.4570   18.4000 C   0  0  0  0  0  2  0  0  0  0  0  0
  -27.6500  -13.2670   19.6880 C   0  0  0  0  0  3  0  0  0  0  0  0
  -28.7180  -13.0040   20.7770 C   0  0  0  0  0  2  0  0  0  0  0  0
  -30.0430  -13.2910   20.2030 N   0  0  0  0  0  0  0  0  0  0  0  0
  -31.8180  -14.6760   19.8210 O   0  0  0  0  0  0  0  0  0  0  0  0
  -29.8680  -15.5180   20.5420 N   0  0  0  0  0  0  0  0  0  0  0  0
  -29.0230  -15.2620   21.0290 H   0  0  0  0  0  0  0  0  0  0  0  0
  -25.2620  -13.8930   20.4150 C   0  0  0  0  0  0  0  0  0  0  0  0
  -24.1950  -13.1270   20.8030 C   0  0  0  0  0  0  0  0  0  0  0  0
  -24.6510  -11.7740   20.7730 C   0  0  0  0  0  0  0  0  0  0  0  0
  -26.3010  -13.0050   20.1810 N   0  0  0  0  0  0  0  0  0  0  0  0
  -25.9360  -11.7270   20.4510 N   0  0  0  0  0  0  0  0  0  0  0  0
  -23.9260  -10.5150   20.9780 C   0  0  0  0  0  0  0  0  0  0  0  0
  -24.3690   -9.5530   21.9120 C   0  0  0  0  0  3  0  0  0  0  0  0
  -23.6440   -8.3560   22.1030 C   0  0  0  0  0  3  0  0  0  0  0  0
  -22.4630   -8.1150   21.3610 C   0  0  0  0  0  0  0  0  0  0  0  0
  -22.0400   -9.0670   20.4170 C   0  0  0  0  0  3  0  0  0  0  0  0
  -22.7650  -10.2550   20.2230 C   0  0  0  0  0  3  0  0  0  0  0  0
  -21.7090   -6.9700   21.4620 O   0  0  0  0  0  0  0  0  0  0  0  0
  -21.6720   -6.2330   22.6180 C   0  0  0  0  0  0  0  0  0  0  0  0
  -21.2600   -6.7940   23.8470 C   0  0  0  0  0  3  0  0  0  0  0  0
  -21.1700   -5.9830   24.9960 C   0  0  0  0  0  3  0  0  0  0  0  0
  -21.4820   -4.6120   24.9180 C   0  0  0  0  0  0  0  0  0  0  0  0
  -21.8880   -4.0500   23.6940 C   0  0  0  0  0  3  0  0  0  0  0  0
  -21.9790   -4.8590   22.5470 C   0  0  0  0  0  0  0  0  0  0  0  0
  -22.3500   -4.3090   21.3660 F   0  0  0  0  0  0  0  0  0  0  0  0
  -21.3880   -3.8310   26.0180 F   0  0  0  0  0  0  0  0  0  0  0  0
  -22.8030  -13.6090   21.0870 C   0  0  0  0  0  0  0  0  0  0  0  0
  -22.0820  -12.9200   21.9660 N   0  0  0  0  0  0  0  0  0  0  0  0
  -22.3630  -14.6340   20.5680 O   0  0  0  0  0  0  0  0  0  0  0  0
  -22.4510  -12.0940   22.4110 H   0  0  0  0  0  0  0  0  0  0  0  0
  -21.1460  -13.2260   22.1940 H   0  0  0  0  0  0  0  0  0  0  0  0
  -25.4300  -15.2630   20.2260 N   0  0  0  0  0  0  0  0  0  0  0  0
  -24.6650  -15.9190   20.3300 H   0  0  0  0  0  0  0  0  0  0  0  0
  -26.2680  -15.6920   19.8590 H   0  0  0  0  0  0  0  0  0  0  0  0
  2  1  2  0
  3  4  2  0
  4  1  1  0
  4  8  1  0
  5  2  1  0
  6  5  2  0
  6  3  1  0
  7  6  1  0
  9  8  1  0
  9 10  1  0
 11 12  1  0
 11 10  1  0
 13 24  2  0
 14 12  1  0
 14 19  1  0
 15 23  1  0
 15 25  1  0
 16 22  1  0
 16 18  1  0
 17 23  1  0
 18 19  2  0
 18 17  1  0
 20 14  2  0
 21 20  1  0
 21 16  2  0
 22 15  1  0
 23 13  1  0
 25 27  2  0
 26 25  1  0
 28 26  1  0
 29 38  2  0
 29 34  1  0
 30 26  1  0
 30 34  1  0
 31 30  1  0
 32 33  1  0
 32 31  1  0
 33 29  1  0
 34 35  2  0
 35 36  1  0
 37 36  2  0
 38 37  1  0
 39 13  1  0
 39 40  1  0
 39 49  1  0
 40 43  1  0
 41 45  1  0
 41 40  1  0
 42 41  2  0
 45 44  1  0
 47 45  1  0
 47 48  1  0
 47 46  1  0
 49 52  1  1
 49 50  1  0
 51 49  1  0
 53  5  1  0
 53 62  1  0
 54 62  1  0
 55 60  1  0
 56 57  1  0
 56 55  1  0
 58 57  1  0
 58 67  1  0
 58 59  1  0
 60 54  1  0
 60 59  1  0
 61 54  2  0
 62 63  1  0
 64 65  2  0
 65 84  1  0
 66 65  1  0
 66 69  1  0
 67 64  1  0
 67 68  1  0
 68 66  2  0
 69 70  1  0
 70 71  2  0
 72 75  1  0
 72 71  1  0
 73 72  2  0
 74 73  1  0
 74 69  2  0
 75 76  1  0
 76 77  1  0
 77 78  2  0
 79 78  1  0
 79 83  1  0
 80 79  2  0
 81 76  2  0
 81 80  1  0
 82 81  1  0
 84 85  1  0
 85 88  1  0
 85 87  1  0
 86 84  2  0
 89 90  1  0
 89 64  1  0
 91 89  1  0
M  ISO  4  11 101  12 101  54 100  62 100
M  END
>  <TORSDO>  (9) 
F 21

>  <SCORE>  (9) 
-13.386

>  <name>  (9) 
8

>  <ligand_id>  (9) 
8

>  <original_smiles>  (9) 
[H]c1c([H])c([H])c2c(c1[H])C([H])([H])C([H])([H])C([H])([H])C2([H])N([H])C(=O)C1([H])N(C(=O)C([H])(N([H])C(=O)C([H])(N([H])C([H])([H])[H])C([H])([H])[H])C(C([H])([H])[H])(C([H])([H])[H])C([H])([H])[H])C([H])([H])c2c([H])c(OC([H])([H])C([H])([H])C([H])([H])C([H])([H])c3c([H])c([H])c(C([H])([H])N([H])C(=O)N4C([H])([H])C([H])([H])C([H])([H])C([H])(n5nc(-c6c([H])c([H])c(Oc7c([H])c([H])c(F)c([H])c7F)c([H])c6[H])c(C(=O)N([H])[H])c5N([H])[H])C4([H])[H])c(C([H])([H])[H])c3[H])c([H])c([H])c2C1([H])[H]

>  <smiles>  (9) 
[H]c1c([H])c([H])c2c(c1[H])C([H])([H])C([H])([H])C([H])([H])C2([H])N([H])C(=O)C1([H])N(C(=O)C([H])(N([H])C(=O)C([H])(N([H])C([H])([H])[H])C([H])([H])[H])C(C([H])([H])[H])(C([H])([H])[H])C([H])([H])[H])C([H])([H])c2c([H])c(OC([H])([H])C([H])([H])C([H])([H])C([H])([H])c3c([H])c([H])c(C([H])([H])N([H])C(=O)N4C([H])([H])C([H])([H])C([H])([H])C([H])(n5nc(-c6c([H])c([H])c(Oc7c([H])c([H])c(F)c([H])c7F)c([H])c6[H])c(C(=O)N([H])[H])c5N([H])[H])C4([H])[H])c(C([H])([H])[H])c3[H])c([H])c([H])c2C1([H])[H]

$$$$
9:0:0
     RDKit          3D

 93101  0  0  1  0  0  0  0  0999 V2000
  -29.5220  -21.7930   19.4760 C   0  0  0  0  0  3  0  0  0  0  0  0
  -30.0730  -20.2690   21.5260 C   0  0  0  0  0  3  0  0  0  0  0  0
  -30.4370  -19.0860   22.2030 C   0  0  0  0  0  3  0  0  0  0  0  0
  -30.1730  -18.9890   19.4670 C   0  0  0  0  0  3  0  0  0  0  0  0
  -29.9270  -20.3120   20.1300 C   0  0  0  0  0  0  0  0  0  0  0  0
  -30.6620  -17.8460   21.5520 C   0  0  0  0  0  0  0  0  0  0  0  0
  -30.5470  -17.7060   20.1400 C   0  0  0  0  0  0  0  0  0  0  0  0
  -30.9310  -16.6500   22.4510 C   0  0  0  0  0  1  0  0  0  0  0  0
  -31.2880  -15.0520   19.7220 C   0  0  0  0  0  0  0  0  0  0  0  0
  -31.0110  -12.6920   18.8010 C   0  0  0  0  0  2  0  0  0  0  0  0
  -30.0010  -12.6480   17.6310 C   0  0  0  0  0  2  0  0  0  0  0  0
  -28.5560  -12.5220   18.1540 C   0  0  0  0  0  2  0  0  0  0  0  0
  -28.2610  -13.4960   19.3240 C   0  0  0  0  0  3  0  0  0  0  0  0
  -29.3800  -13.4710   20.3840 C   0  0  0  0  0  2  0  0  0  0  0  0
  -30.6250  -13.8270   19.6850 N   0  0  0  0  0  0  0  0  0  0  0  0
  -32.5070  -15.0350   19.5140 O   0  0  0  0  0  0  0  0  0  0  0  0
  -30.5260  -16.2580   19.6040 N   0  0  0  0  0  0  0  0  0  0  0  0
  -29.5840  -15.9980   19.3510 H   0  0  0  0  0  0  0  0  0  0  0  0
  -25.9740  -14.2320   20.2080 C   0  0  0  0  0  0  0  0  0  0  0  0
  -24.8780  -13.5320   20.6190 C   0  0  0  0  0  0  0  0  0  0  0  0
  -25.2440  -12.1500   20.5550 C   0  0  0  0  0  0  0  0  0  0  0  0
  -26.9380  -13.2870   19.9000 N   0  0  0  0  0  0  0  0  0  0  0  0
  -26.5120  -12.0290   20.1820 N   0  0  0  0  0  0  0  0  0  0  0  0
  -24.4440  -10.9390   20.7720 C   0  0  0  0  0  0  0  0  0  0  0  0
  -24.8120   -9.9710   21.7330 C   0  0  0  0  0  3  0  0  0  0  0  0
  -24.0110   -8.8260   21.9370 C   0  0  0  0  0  3  0  0  0  0  0  0
  -22.8310   -8.6400   21.1800 C   0  0  0  0  0  0  0  0  0  0  0  0
  -22.4820   -9.5960   20.2080 C   0  0  0  0  0  3  0  0  0  0  0  0
  -23.2810  -10.7310   20.0030 C   0  0  0  0  0  3  0  0  0  0  0  0
  -22.0080   -7.5480   21.2910 O   0  0  0  0  0  0  0  0  0  0  0  0
  -21.8460   -6.8870   22.4810 C   0  0  0  0  0  0  0  0  0  0  0  0
  -21.3910   -7.5460   23.6440 C   0  0  0  0  0  3  0  0  0  0  0  0
  -21.1730   -6.8150   24.8290 C   0  0  0  0  0  3  0  0  0  0  0  0
  -21.3990   -5.4260   24.8520 C   0  0  0  0  0  0  0  0  0  0  0  0
  -21.8470   -4.7670   23.6940 C   0  0  0  0  0  3  0  0  0  0  0  0
  -22.0660   -5.4940   22.5120 C   0  0  0  0  0  0  0  0  0  0  0  0
  -22.4780   -4.8500   21.3920 F   0  0  0  0  0  0  0  0  0  0  0  0
  -21.1820   -4.7220   25.9870 F   0  0  0  0  0  0  0  0  0  0  0  0
  -23.5300  -14.0990   20.9620 C   0  0  0  0  0  0  0  0  0  0  0  0
  -22.8160  -13.4650   21.8850 N   0  0  0  0  0  0  0  0  0  0  0  0
  -23.1280  -15.1410   20.4470 O   0  0  0  0  0  0  0  0  0  0  0  0
  -23.1590  -12.6230   22.3220 H   0  0  0  0  0  0  0  0  0  0  0  0
  -21.9130  -13.8290   22.1580 H   0  0  0  0  0  0  0  0  0  0  0  0
  -26.2260  -15.5950   20.0430 N   0  0  0  0  0  0  0  0  0  0  0  0
  -25.5260  -16.3000   20.2430 H   0  0  0  0  0  0  0  0  0  0  0  0
  -27.1110  -15.9890   19.7550 H   0  0  0  0  0  0  0  0  0  0  0  0
  -28.7590  -21.5760   18.2390 N   0  0  0  0  0  4  0  0  0  0  0  0
  -27.8280  -21.2440   18.4220 H   0  0  0  0  0  0  0  0  0  0  0  0
  -29.2430  -20.9120   17.6650 H   0  0  0  0  0  0  0  0  0  0  0  0
  -28.7120  -22.4370   17.7270 H   0  0  0  0  0  0  0  0  0  0  0  0
  -28.8700  -23.1240   20.3350 C   0  0  0  0  0  2  0  0  0  0  0  0
  -28.3430  -24.6110   19.6820 C   0  0  0  0  0  2  0  0  0  0  0  0
  -28.2380  -26.0390   20.3210 O   0  0  0  0  0  0  0  0  0  0  0  0
  -24.6350  -31.7900   23.1770 C   0  0  0  0  0  0  0  0  0  0  0  0
  -27.1700  -27.0090   20.1920 C   0  0  0  0  0  0  0  0  0  0  0  0
  -23.4310  -30.4040   21.5390 C   0  0  0  0  0  3  0  0  0  0  0  0
  -24.8630  -28.8020   20.1270 C   0  0  0  0  0  0  0  0  0  0  0  0
  -25.9830  -30.6250   21.3870 C   0  0  0  0  0  2  0  0  0  0  0  0
  -26.0420  -29.2270   20.7480 C   0  0  0  0  0  0  0  0  0  0  0  0
  -27.1900  -28.3470   20.7680 C   0  0  0  0  0  3  0  0  0  0  0  0
  -25.9600  -26.6860   19.5370 C   0  0  0  0  0  3  0  0  0  0  0  0
  -24.8320  -27.5400   19.5140 C   0  0  0  0  0  3  0  0  0  0  0  0
  -23.6550  -29.7290   20.1600 C   0  0  0  0  0  2  0  0  0  0  0  0
  -24.7060  -30.9580   22.0910 N   0  0  0  0  0  0  0  0  0  0  0  0
  -23.5480  -32.0870   23.6930 O   0  0  0  0  0  0  0  0  0  0  0  0
  -22.7290  -29.4060   22.4930 C   0  0  0  0  0  0  0  0  0  0  0  0
  -21.4020  -29.2400   22.3460 N   0  0  0  0  0  0  0  0  0  0  0  0
  -23.3810  -28.7850   23.3380 O   0  0  0  0  0  0  0  0  0  0  0  0
  -20.9250  -29.8030   21.6540 H   0  0  0  0  0  0  0  0  0  0  0  0
  -18.0200  -28.0200   22.7750 C   0  0  0  0  0  0  0  0  0  0  0  0
  -20.5690  -28.3120   23.1120 C   0  0  0  0  0  3  0  0  0  0  0  0
  -20.6990  -26.8670   22.5760 C   0  0  0  0  0  2  0  0  0  0  0  0
  -19.6310  -26.5090   21.5390 C   0  0  0  0  0  2  0  0  0  0  0  0
  -18.2290  -26.6570   22.1380 C   0  0  0  0  0  2  0  0  0  0  0  0
  -19.1180  -28.8010   23.2220 C   0  0  0  0  0  0  0  0  0  0  0  0
  -18.8720  -30.0730   23.7820 C   0  0  0  0  0  3  0  0  0  0  0  0
  -17.5590  -30.5640   23.9020 C   0  0  0  0  0  3  0  0  0  0  0  0
  -16.4740  -29.7820   23.4700 C   0  0  0  0  0  3  0  0  0  0  0  0
  -16.7060  -28.5130   22.9120 C   0  0  0  0  0  3  0  0  0  0  0  0
  -25.9070  -32.4170   23.8160 C   0  0  0  0  0  3  0  0  0  0  0  0
  -26.4290  -31.6220   25.0750 C   0  0  1  0  0  0  0  0  0  0  0  0
  -25.3360  -31.3490   26.1360 C   0  0  0  0  0  1  0  0  0  0  0  0
  -27.0250  -30.2620   24.6450 C   0  0  0  0  0  1  0  0  0  0  0  0
  -27.5720  -32.4090   25.7580 C   0  0  0  0  0  1  0  0  0  0  0  0
  -25.5870  -33.8060   24.1880 N   0  0  0  0  0  0  0  0  0  0  0  0
  -25.8990  -34.8860   23.4560 C   0  0  0  0  0  0  0  0  0  0  0  0
  -26.5520  -34.8180   22.4120 O   0  0  0  0  0  0  0  0  0  0  0  0
  -25.0070  -33.9320   25.0040 H   0  0  0  0  0  0  0  0  0  0  0  0
  -24.1490  -36.6790   23.1950 C   0  0  0  0  0  1  0  0  0  0  0  0
  -25.4110  -36.2580   23.9670 C   0  0  0  0  0  3  0  0  0  0  0  0
  -27.5590  -37.1370   24.7700 C   0  0  0  0  0  1  0  0  0  0  0  0
  -26.4320  -37.3230   23.8600 N   0  0  0  0  0  0  0  0  0  0  0  0
  -26.0240  -38.2340   24.0460 H   0  0  0  0  0  0  0  0  0  0  0  0
  1  5  1  0
  1 51  1  0
  2  3  1  0
  4  5  1  0
  4  7  2  0
  5  2  2  0
  6  3  2  0
  6  8  1  0
  7  6  1  0
 10 15  1  0
 11 12  1  0
 11 10  1  0
 13 12  1  0
 13 22  1  0
 13 14  1  0
 15  9  1  0
 15 14  1  0
 16  9  2  0
 17  9  1  0
 17  7  1  0
 18 17  1  0
 19 20  2  0
 20 39  1  0
 21 20  1  0
 21 24  1  0
 22 23  1  0
 22 19  1  0
 23 21  2  0
 24 25  1  0
 25 26  2  0
 27 30  1  0
 27 26  1  0
 28 27  2  0
 29 28  1  0
 29 24  2  0
 30 31  1  0
 31 36  2  0
 31 32  1  0
 32 33  2  0
 33 34  1  0
 34 38  1  0
 35 34  2  0
 36 35  1  0
 37 36  1  0
 39 40  1  0
 40 43  1  0
 40 42  1  0
 41 39  2  0
 44 19  1  0
 44 45  1  0
 46 44  1  0
 47 48  1  0
 47  1  1  0
 49 47  1  0
 50 47  1  0
 52 53  1  0
 52 51  1  0
 54 65  2  0
 55 53  1  0
 55 60  1  0
 56 64  1  0
 56 66  1  0
 57 63  1  0
 57 59  1  0
 58 64  1  0
 59 60  2  0
 59 58  1  0
 61 55  2  0
 62 61  1  0
 62 57  2  0
 63 56  1  0
 64 54  1  0
 66 68  2  0
 67 66  1  0
 69 67  1  0
 70 79  2  0
 70 75  1  0
 71 67  1  0
 71 75  1  0
 72 71  1  0
 73 74  1  0
 73 72  1  0
 74 70  1  0
 75 76  2  0
 76 77  1  0
 78 77  2  0
 79 78  1  0
 80 54  1  0
 80 85  1  0
 80 81  1  0
 81 84  1  1
 81 82  1  0
 83 81  1  0
 85 88  1  0
 86 90  1  0
 86 85  1  0
 87 86  2  0
 90 89  1  0
 92 90  1  0
 92 93  1  0
 92 91  1  0
M  ISO  4   9 100  17 100  52 101  53 101
M  END
>  <TORSDO>  (10) 
F 20

>  <SCORE>  (10) 
-13.721

>  <name>  (10) 
9

>  <ligand_id>  (10) 
9

>  <original_smiles>  (10) 
[H]c1c([H])c([H])c2c(c1[H])C([H])([H])C([H])([H])C([H])([H])C2([H])N([H])C(=O)C1([H])N(C(=O)C([H])(N([H])C(=O)C([H])(N([H])C([H])([H])[H])C([H])([H])[H])C(C([H])([H])[H])(C([H])([H])[H])C([H])([H])[H])C([H])([H])c2c([H])c(OC([H])([H])C([H])([H])C([H])(c3c([H])c([H])c(C([H])([H])[H])c(N([H])C(=O)N4C([H])([H])C([H])([H])C([H])([H])C([H])(n5nc(-c6c([H])c([H])c(Oc7c([H])c([H])c(F)c([H])c7F)c([H])c6[H])c(C(=O)N([H])[H])c5N([H])[H])C4([H])[H])c3[H])[N+]([H])([H])[H])c([H])c([H])c2C1([H])[H]

>  <smiles>  (10) 
[H]c1c([H])c([H])c2c(c1[H])C([H])([H])C([H])([H])C([H])([H])C2([H])N([H])C(=O)C1([H])N(C(=O)C([H])(N([H])C(=O)C([H])(N([H])C([H])([H])[H])C([H])([H])[H])C(C([H])([H])[H])(C([H])([H])[H])C([H])([H])[H])C([H])([H])c2c([H])c(OC([H])([H])C([H])([H])C([H])(c3c([H])c([H])c(C([H])([H])[H])c(N([H])C(=O)N4C([H])([H])C([H])([H])C([H])([H])C([H])(n5nc(-c6c([H])c([H])c(Oc7c([H])c([H])c(F)c([H])c7F)c([H])c6[H])c(C(=O)N([H])[H])c5N([H])[H])C4([H])[H])c3[H])[N+]([H])([H])[H])c([H])c([H])c2C1([H])[H]

$$$$
10:0:0
     RDKit          3D

 96106  0  0  1  0  0  0  0  0999 V2000
  -28.9670  -19.5100   19.5640 C   0  0  0  0  0  3  0  0  0  0  0  0
  -30.4900  -19.1870   21.3860 C   0  0  0  0  0  3  0  0  0  0  0  0
  -29.5890  -21.4840   20.9390 C   0  0  0  0  0  0  0  0  0  0  0  0
  -28.8530  -20.9080   19.8670 C   0  0  0  0  0  0  0  0  0  0  0  0
  -29.8150  -18.6100   20.2850 C   0  0  0  0  0  0  0  0  0  0  0  0
  -30.3910  -20.5760   21.7120 C   0  0  0  0  0  0  0  0  0  0  0  0
  -29.5580  -23.0160   21.1570 C   0  0  0  0  0  0  0  0  0  0  0  0
  -27.9890  -21.8090   18.9680 C   0  0  0  0  0  2  0  0  0  0  0  0
  -26.2130  -23.1970   20.3230 C   0  0  0  0  0  2  0  0  0  0  0  0
  -27.0330  -23.0640   21.5970 C   0  0  0  0  0  2  0  0  0  0  0  0
  -27.5480  -23.1820   19.5660 C   0  0  0  0  0  3  0  0  0  0  0  0
  -28.2170  -23.7510   20.8560 C   0  0  2  0  0  0  0  0  0  0  0  0
  -31.1940  -21.0560   22.9120 C   0  0  0  0  0  1  0  0  0  0  0  0
  -30.5720  -23.6030   21.5490 O   0  0  0  0  0  0  0  0  0  0  0  0
  -29.8000  -16.9710   18.2800 C   0  0  0  0  0  1  0  0  0  0  0  0
  -30.2070  -17.1610   19.7560 C   0  0  0  0  0  3  0  0  0  0  0  0
  -30.6380  -14.7230   20.4240 C   0  0  0  0  0  0  0  0  0  0  0  0
  -30.3960  -12.4650   19.4290 C   0  0  0  0  0  2  0  0  0  0  0  0
  -29.4930  -12.5790   18.1830 C   0  0  0  0  0  2  0  0  0  0  0  0
  -28.0100  -12.4360   18.5770 C   0  0  0  0  0  2  0  0  0  0  0  0
  -27.6240  -13.3230   19.7910 C   0  0  0  0  0  3  0  0  0  0  0  0
  -28.6560  -13.2180   20.9370 C   0  0  0  0  0  2  0  0  0  0  0  0
  -29.9780  -13.5220   20.3750 N   0  0  0  0  0  0  0  0  0  0  0  0
  -31.8330  -14.7870   20.1220 O   0  0  0  0  0  0  0  0  0  0  0  0
  -29.8860  -15.8770   20.4990 N   0  0  0  0  0  0  0  0  0  0  0  0
  -28.9240  -15.7570   20.7730 H   0  0  0  0  0  0  0  0  0  0  0  0
  -25.2200  -13.9290   20.4500 C   0  0  0  0  0  0  0  0  0  0  0  0
  -24.1440  -13.1620   20.8060 C   0  0  0  0  0  0  0  0  0  0  0  0
  -24.6050  -11.8100   20.8080 C   0  0  0  0  0  0  0  0  0  0  0  0
  -26.2680  -13.0450   20.2530 N   0  0  0  0  0  0  0  0  0  0  0  0
  -25.9030  -11.7660   20.5340 N   0  0  0  0  0  0  0  0  0  0  0  0
  -23.8720  -10.5510   21.0000 C   0  0  0  0  0  0  0  0  0  0  0  0
  -24.2840   -9.5960   21.9560 C   0  0  0  0  0  3  0  0  0  0  0  0
  -23.5530   -8.4020   22.1350 C   0  0  0  0  0  3  0  0  0  0  0  0
  -22.3970   -8.1540   21.3590 C   0  0  0  0  0  0  0  0  0  0  0  0
  -22.0040   -9.0980   20.3930 C   0  0  0  0  0  3  0  0  0  0  0  0
  -22.7360  -10.2830   20.2120 C   0  0  0  0  0  3  0  0  0  0  0  0
  -21.6390   -7.0120   21.4470 O   0  0  0  0  0  0  0  0  0  0  0  0
  -21.5660   -6.2830   22.6070 C   0  0  0  0  0  0  0  0  0  0  0  0
  -21.1230   -6.8530   23.8200 C   0  0  0  0  0  3  0  0  0  0  0  0
  -21.0000   -6.0510   24.9720 C   0  0  0  0  0  3  0  0  0  0  0  0
  -21.3090   -4.6790   24.9110 C   0  0  0  0  0  0  0  0  0  0  0  0
  -21.7450   -4.1070   23.7020 C   0  0  0  0  0  3  0  0  0  0  0  0
  -21.8700   -4.9070   22.5530 C   0  0  0  0  0  0  0  0  0  0  0  0
  -22.2710   -4.3480   21.3850 F   0  0  0  0  0  0  0  0  0  0  0  0
  -21.1830   -3.9050   26.0140 F   0  0  0  0  0  0  0  0  0  0  0  0
  -22.7400  -13.6430   21.0340 C   0  0  0  0  0  0  0  0  0  0  0  0
  -21.9900  -12.9600   21.8920 N   0  0  0  0  0  0  0  0  0  0  0  0
  -22.3170  -14.6600   20.4860 O   0  0  0  0  0  0  0  0  0  0  0  0
  -22.3450  -12.1390   22.3570 H   0  0  0  0  0  0  0  0  0  0  0  0
  -21.0460  -13.2650   22.0860 H   0  0  0  0  0  0  0  0  0  0  0  0
  -25.3870  -15.2970   20.2510 N   0  0  0  0  0  0  0  0  0  0  0  0
  -24.6160  -15.9510   20.3290 H   0  0  0  0  0  0  0  0  0  0  0  0
  -26.2360  -15.7270   19.9090 H   0  0  0  0  0  0  0  0  0  0  0  0
  -28.2260  -25.3530   21.1610 C   0  0  0  0  0  2  0  0  0  0  0  0
  -28.3030  -26.4690   20.1860 O   0  0  0  0  0  0  0  0  0  0  0  0
  -24.6080  -31.9010   23.2290 C   0  0  0  0  0  0  0  0  0  0  0  0
  -27.2150  -27.3520   20.1670 C   0  0  0  0  0  0  0  0  0  0  0  0
  -23.4000  -30.4960   21.5970 C   0  0  0  0  0  3  0  0  0  0  0  0
  -24.8500  -28.9530   20.1610 C   0  0  0  0  0  0  0  0  0  0  0  0
  -25.9360  -30.8280   21.3960 C   0  0  0  0  0  2  0  0  0  0  0  0
  -26.0190  -29.4490   20.7520 C   0  0  0  0  0  0  0  0  0  0  0  0
  -27.2070  -28.6570   20.7520 C   0  0  0  0  0  3  0  0  0  0  0  0
  -26.0340  -26.9130   19.5410 C   0  0  0  0  0  3  0  0  0  0  0  0
  -24.8590  -27.6900   19.5440 C   0  0  0  0  0  3  0  0  0  0  0  0
  -23.6090  -29.8210   20.2150 C   0  0  0  0  0  2  0  0  0  0  0  0
  -24.6680  -31.0940   22.1300 N   0  0  0  0  0  0  0  0  0  0  0  0
  -23.5260  -32.1730   23.7720 O   0  0  0  0  0  0  0  0  0  0  0  0
  -22.7480  -29.4770   22.5620 C   0  0  0  0  0  0  0  0  0  0  0  0
  -21.4230  -29.2920   22.4410 N   0  0  0  0  0  0  0  0  0  0  0  0
  -23.4340  -28.8590   23.3800 O   0  0  0  0  0  0  0  0  0  0  0  0
  -20.9280  -29.8420   21.7550 H   0  0  0  0  0  0  0  0  0  0  0  0
  -18.0570  -28.0700   22.9500 C   0  0  0  0  0  0  0  0  0  0  0  0
  -20.6130  -28.3510   23.2170 C   0  0  0  0  0  3  0  0  0  0  0  0
  -20.7250  -26.9170   22.6470 C   0  0  0  0  0  2  0  0  0  0  0  0
  -19.6260  -26.5820   21.6360 C   0  0  0  0  0  2  0  0  0  0  0  0
  -18.2420  -26.7200   22.2810 C   0  0  0  0  0  2  0  0  0  0  0  0
  -19.1690  -28.8440   23.3750 C   0  0  0  0  0  0  0  0  0  0  0  0
  -18.9410  -30.1080   23.9600 C   0  0  0  0  0  3  0  0  0  0  0  0
  -17.6320  -30.5970   24.1280 C   0  0  0  0  0  3  0  0  0  0  0  0
  -16.5330  -29.8200   23.7210 C   0  0  0  0  0  3  0  0  0  0  0  0
  -16.7460  -28.5600   23.1360 C   0  0  0  0  0  3  0  0  0  0  0  0
  -25.8920  -32.5400   23.8420 C   0  0  0  0  0  3  0  0  0  0  0  0
  -25.5800  -33.9370   24.1730 N   0  0  0  0  0  0  0  0  0  0  0  0
  -25.9110  -34.9920   23.4150 C   0  0  0  0  0  0  0  0  0  0  0  0
  -26.5800  -34.8910   22.3830 O   0  0  0  0  0  0  0  0  0  0  0  0
  -24.9840  -34.0890   24.9730 H   0  0  0  0  0  0  0  0  0  0  0  0
  -24.1820  -36.7860   23.0600 C   0  0  0  0  0  1  0  0  0  0  0  0
  -25.4210  -36.3790   23.8750 C   0  0  0  0  0  3  0  0  0  0  0  0
  -27.5520  -37.2620   24.7120 C   0  0  0  0  0  1  0  0  0  0  0  0
  -26.4540  -37.4330   23.7660 N   0  0  0  0  0  0  0  0  0  0  0  0
  -26.0470  -38.3530   23.9150 H   0  0  0  0  0  0  0  0  0  0  0  0
  -26.4180  -31.7730   25.1180 C   0  0  1  0  0  0  0  0  0  0  0  0
  -25.3310  -31.5370   26.1930 C   0  0  0  0  0  1  0  0  0  0  0  0
  -27.0040  -30.3960   24.7290 C   0  0  0  0  0  1  0  0  0  0  0  0
  -27.5700  -32.5720   25.7720 C   0  0  0  0  0  1  0  0  0  0  0  0
  1  4  2  0
  1  5  1  0
  2  6  1  0
  3  7  1  0
  3  6  2  0
  4  3  1  0
  5  2  2  0
  6 13  1  0
  7 14  2  0
  8  4  1  0
  9 10  1  0
 11  8  1  0
 11  9  1  0
 11 12  1  0
 12  7  1  0
 12 55  1  6
 12 10  1  0
 16 15  1  0
 16  5  1  0
 16 25  1  0
 17 25  1  0
 18 23  1  0
 19 20  1  0
 19 18  1  0
 21 20  1  0
 21 30  1  0
 21 22  1  0
 23 17  1  0
 23 22  1  0
 24 17  2  0
 25 26  1  0
 27 28  2  0
 28 29  1  0
 28 47  1  0
 29 32  1  0
 30 27  1  0
 30 31  1  0
 31 29  2  0
 32 33  1  0
 33 34  2  0
 35 38  1  0
 35 34  1  0
 36 35  2  0
 37 36  1  0
 37 32  2  0
 38 39  1  0
 39 40  1  0
 40 41  2  0
 42 41  1  0
 42 46  1  0
 43 42  2  0
 44 39  2  0
 44 43  1  0
 45 44  1  0
 47 48  1  0
 48 51  1  0
 48 50  1  0
 49 47  2  0
 52 53  1  0
 52 27  1  0
 54 52  1  0
 56 55  1  0
 57 68  2  0
 58 56  1  0
 58 63  1  0
 59 67  1  0
 59 69  1  0
 60 66  1  0
 60 62  1  0
 61 67  1  0
 62 61  1  0
 63 62  2  0
 64 65  1  0
 64 58  2  0
 65 60  2  0
 66 59  1  0
 67 57  1  0
 69 71  2  0
 70 69  1  0
 72 70  1  0
 73 82  2  0
 73 78  1  0
 74 70  1  0
 74 78  1  0
 75 74  1  0
 76 77  1  0
 76 75  1  0
 77 73  1  0
 78 79  2  0
 79 80  1  0
 81 80  2  0
 82 81  1  0
 83 57  1  0
 83 84  1  0
 83 93  1  0
 84 87  1  0
 85 89  1  0
 85 84  1  0
 86 85  2  0
 89 88  1  0
 91 89  1  0
 91 92  1  0
 91 90  1  0
 93 96  1  1
 93 94  1  0
 95 93  1  0
M  ISO  4  17 100  25 100  55 101  56 101
M  END
>  <TORSDO>  (11) 
F 18

>  <SCORE>  (11) 
-14.910

>  <name>  (11) 
10

>  <ligand_id>  (11) 
10

>  <original_smiles>  (11) 
[H]c1c([H])c([H])c2c(c1[H])C([H])([H])C([H])([H])C([H])([H])C2([H])N([H])C(=O)C1([H])N(C(=O)C([H])(N([H])C(=O)C([H])(N([H])C([H])([H])[H])C([H])([H])[H])C(C([H])([H])[H])(C([H])([H])[H])C([H])([H])[H])C([H])([H])c2c([H])c(OC([H])([H])C34C(=O)c5c(C([H])([H])[H])c([H])c(C([H])(N([H])C(=O)N6C([H])([H])C([H])([H])C([H])([H])C([H])(n7nc(-c8c([H])c([H])c(Oc9c([H])c([H])c(F)c([H])c9F)c([H])c8[H])c(C(=O)N([H])[H])c7N([H])[H])C6([H])[H])C([H])([H])[H])c([H])c5C([H])([H])C3([H])C([H])([H])C4([H])[H])c([H])c([H])c2C1([H])[H]

>  <smiles>  (11) 
[H]c1c([H])c([H])c2c(c1[H])C([H])([H])C([H])([H])C([H])([H])C2([H])N([H])C(=O)C1([H])N(C(=O)C([H])(N([H])C(=O)C([H])(N([H])C([H])([H])[H])C([H])([H])[H])C(C([H])([H])[H])(C([H])([H])[H])C([H])([H])[H])C([H])([H])c2c([H])c(OC([H])([H])C34C(=O)c5c(C([H])([H])[H])c([H])c(C([H])(N([H])C(=O)N6C([H])([H])C([H])([H])C([H])([H])C([H])(n7nc(-c8c([H])c([H])c(Oc9c([H])c([H])c(F)c([H])c9F)c([H])c8[H])c(C(=O)N([H])[H])c7N([H])[H])C6([H])[H])C([H])([H])[H])c([H])c5C([H])([H])C3([H])C([H])([H])C4([H])[H])c([H])c([H])c2C1([H])[H]

$$$$
11:0:0
     RDKit          3D

 89 99  0  0  1  0  0  0  0  0999 V2000
  -29.1690  -20.2670   20.4620 N   0  0  0  0  0  4  0  0  0  0  0  0
  -30.1410  -20.3540   20.2180 H   0  0  0  0  0  0  0  0  0  0  0  0
  -29.1340  -20.2310   21.4670 H   0  0  0  0  0  0  0  0  0  0  0  0
  -30.5750  -15.0490   20.2940 C   0  0  0  0  0  0  0  0  0  0  0  0
  -30.3450  -12.7010   19.3640 C   0  0  0  0  0  2  0  0  0  0  0  0
  -29.4070  -12.6100   18.1420 C   0  0  0  0  0  2  0  0  0  0  0  0
  -27.9600  -12.3860   18.6070 C   0  0  0  0  0  2  0  0  0  0  0  0
  -27.5570  -13.3300   19.7720 C   0  0  0  0  0  3  0  0  0  0  0  0
  -28.6310  -13.4300   20.8750 C   0  0  0  0  0  2  0  0  0  0  0  0
  -29.8720  -13.8430   20.2080 N   0  0  0  0  0  0  0  0  0  0  0  0
  -31.7920  -14.9450   20.0960 O   0  0  0  0  0  0  0  0  0  0  0  0
  -28.2000  -17.1190   18.9500 C   0  0  0  0  0  2  0  0  0  0  0  0
  -30.6320  -17.3430   19.2040 C   0  0  0  0  0  2  0  0  0  0  0  0
  -29.3680  -18.1320   18.7840 C   0  0  1  0  0  0  0  0  0  0  0  0
  -28.7600  -17.2260   20.3960 C   0  0  1  0  0  0  0  0  0  0  0  0
  -28.6320  -18.8650   19.9300 C   0  0  0  0  0  3  0  0  0  0  0  0
  -30.0290  -16.3810   20.1410 N   0  0  0  0  0  0  0  0  0  0  0  0
  -25.1970  -13.8880   20.5660 C   0  0  0  0  0  0  0  0  0  0  0  0
  -24.1410  -13.1060   20.9400 C   0  0  0  0  0  0  0  0  0  0  0  0
  -24.6100  -11.7570   20.8890 C   0  0  0  0  0  0  0  0  0  0  0  0
  -26.2370  -13.0160   20.3000 N   0  0  0  0  0  0  0  0  0  0  0  0
  -25.8980  -11.7290   20.5640 N   0  0  0  0  0  0  0  0  0  0  0  0
  -23.8890  -10.4900   21.0740 C   0  0  0  0  0  0  0  0  0  0  0  0
  -24.3300   -9.5160   21.9950 C   0  0  0  0  0  3  0  0  0  0  0  0
  -23.6070   -8.3160   22.1690 C   0  0  0  0  0  3  0  0  0  0  0  0
  -22.4280   -8.0830   21.4220 C   0  0  0  0  0  0  0  0  0  0  0  0
  -22.0070   -9.0460   20.4890 C   0  0  0  0  0  3  0  0  0  0  0  0
  -22.7300  -10.2370   20.3120 C   0  0  0  0  0  3  0  0  0  0  0  0
  -21.6750   -6.9370   21.5070 O   0  0  0  0  0  0  0  0  0  0  0  0
  -21.6300   -6.1880   22.6560 C   0  0  0  0  0  0  0  0  0  0  0  0
  -21.1860   -6.7320   23.8820 C   0  0  0  0  0  3  0  0  0  0  0  0
  -21.0890   -5.9100   25.0220 C   0  0  0  0  0  3  0  0  0  0  0  0
  -21.4270   -4.5450   24.9380 C   0  0  0  0  0  0  0  0  0  0  0  0
  -21.8630   -4.0010   23.7170 C   0  0  0  0  0  3  0  0  0  0  0  0
  -21.9610   -4.8210   22.5790 C   0  0  0  0  0  0  0  0  0  0  0  0
  -22.3630   -4.2870   21.4000 F   0  0  0  0  0  0  0  0  0  0  0  0
  -21.3260   -3.7540   26.0310 F   0  0  0  0  0  0  0  0  0  0  0  0
  -22.7460  -13.5760   21.2290 C   0  0  0  0  0  0  0  0  0  0  0  0
  -22.0300  -12.8730   22.0980 N   0  0  0  0  0  0  0  0  0  0  0  0
  -22.3020  -14.6050   20.7210 O   0  0  0  0  0  0  0  0  0  0  0  0
  -22.4040  -12.0420   22.5310 H   0  0  0  0  0  0  0  0  0  0  0  0
  -21.0950  -13.1710   22.3350 H   0  0  0  0  0  0  0  0  0  0  0  0
  -25.3540  -15.2610   20.3990 N   0  0  0  0  0  0  0  0  0  0  0  0
  -24.5860  -15.9100   20.5210 H   0  0  0  0  0  0  0  0  0  0  0  0
  -26.1940  -15.6990   20.0430 H   0  0  0  0  0  0  0  0  0  0  0  0
  -28.4170  -21.6230   20.0410 C   0  0  0  0  0  2  0  0  0  0  0  0
  -28.8170  -23.2280   20.4730 C   0  0  0  0  0  3  0  0  0  0  0  0
  -27.9170  -24.6250   20.0770 C   0  0  0  0  0  3  0  0  0  0  0  0
  -28.2020  -26.1490   20.3500 O   0  0  0  0  0  0  0  0  0  0  0  0
  -24.6330  -31.9450   23.2470 C   0  0  0  0  0  0  0  0  0  0  0  0
  -27.1740  -27.1680   20.2580 C   0  0  0  0  0  0  0  0  0  0  0  0
  -23.4310  -30.5520   21.6100 C   0  0  0  0  0  3  0  0  0  0  0  0
  -24.8720  -28.9560   20.2000 C   0  0  0  0  0  0  0  0  0  0  0  0
  -25.9900  -30.7850   21.4620 C   0  0  0  0  0  2  0  0  0  0  0  0
  -26.0530  -29.3870   20.8160 C   0  0  0  0  0  0  0  0  0  0  0  0
  -27.2040  -28.5090   20.8280 C   0  0  0  0  0  3  0  0  0  0  0  0
  -25.9690  -26.8500   19.5920 C   0  0  0  0  0  3  0  0  0  0  0  0
  -24.8450  -27.7030   19.5700 C   0  0  0  0  0  3  0  0  0  0  0  0
  -23.6530  -29.8670   20.2350 C   0  0  0  0  0  2  0  0  0  0  0  0
  -24.7060  -31.1170   22.1610 N   0  0  0  0  0  0  0  0  0  0  0  0
  -23.5470  -32.2430   23.7660 O   0  0  0  0  0  0  0  0  0  0  0  0
  -22.7370  -29.5560   22.5740 C   0  0  0  0  0  0  0  0  0  0  0  0
  -21.4070  -29.4010   22.4440 N   0  0  0  0  0  0  0  0  0  0  0  0
  -23.3980  -28.9250   23.4020 O   0  0  0  0  0  0  0  0  0  0  0  0
  -20.9290  -29.9610   21.7510 H   0  0  0  0  0  0  0  0  0  0  0  0
  -18.0080  -28.2540   22.9550 C   0  0  0  0  0  0  0  0  0  0  0  0
  -20.5710  -28.4780   23.2170 C   0  0  0  0  0  3  0  0  0  0  0  0
  -20.6500  -27.0440   22.6440 C   0  0  0  0  0  2  0  0  0  0  0  0
  -19.5410  -26.7360   21.6320 C   0  0  0  0  0  2  0  0  0  0  0  0
  -18.1640  -26.9010   22.2780 C   0  0  0  0  0  2  0  0  0  0  0  0
  -19.1390  -29.0000   23.3820 C   0  0  0  0  0  0  0  0  0  0  0  0
  -18.9380  -30.2650   23.9770 C   0  0  0  0  0  3  0  0  0  0  0  0
  -17.6410  -30.7820   24.1480 C   0  0  0  0  0  3  0  0  0  0  0  0
  -16.5250  -30.0330   23.7360 C   0  0  0  0  0  3  0  0  0  0  0  0
  -16.7090  -28.7700   23.1450 C   0  0  0  0  0  3  0  0  0  0  0  0
  -25.9120  -32.5750   23.8780 C   0  0  0  0  0  3  0  0  0  0  0  0
  -26.4140  -31.8040   25.1620 C   0  0  1  0  0  0  0  0  0  0  0  0
  -25.3120  -31.5750   26.2220 C   0  0  0  0  0  1  0  0  0  0  0  0
  -26.9930  -30.4210   24.7830 C   0  0  0  0  0  1  0  0  0  0  0  0
  -27.5640  -32.5940   25.8310 C   0  0  0  0  0  1  0  0  0  0  0  0
  -25.6060  -33.9750   24.2110 N   0  0  0  0  0  0  0  0  0  0  0  0
  -25.9240  -35.0310   23.4490 C   0  0  0  0  0  0  0  0  0  0  0  0
  -26.5740  -34.9270   22.4060 O   0  0  0  0  0  0  0  0  0  0  0  0
  -25.0250  -34.1280   25.0230 H   0  0  0  0  0  0  0  0  0  0  0  0
  -24.1820  -36.8230   23.1470 C   0  0  0  0  0  1  0  0  0  0  0  0
  -25.4500  -36.4200   23.9190 C   0  0  0  0  0  3  0  0  0  0  0  0
  -27.6060  -37.3160   24.6830 C   0  0  0  0  0  1  0  0  0  0  0  0
  -26.4760  -37.4760   23.7710 N   0  0  0  0  0  0  0  0  0  0  0  0
  -26.0720  -38.3950   23.9240 H   0  0  0  0  0  0  0  0  0  0  0  0
  1  3  1  0
  2  1  1  0
  5 10  1  0
  6  7  1  0
  6  5  1  0
  8  7  1  0
  8 21  1  0
  8  9  1  0
 10  4  1  0
 10  9  1  0
 11  4  2  0
 13 17  1  0
 14 12  1  1
 14 13  1  0
 14 16  1  0
 14 15  1  0
 15 12  1  6
 16 15  1  0
 16  1  1  0
 17  4  1  0
 17 15  1  0
 18 19  2  0
 19 38  1  0
 20 19  1  0
 20 23  1  0
 21 22  1  0
 21 18  1  0
 22 20  2  0
 23 24  1  0
 24 25  2  0
 26 29  1  0
 26 25  1  0
 27 26  2  0
 28 27  1  0
 28 23  2  0
 29 30  1  0
 30 31  1  0
 31 32  2  0
 33 32  1  0
 33 37  1  0
 34 33  2  0
 35 30  2  0
 35 34  1  0
 36 35  1  0
 38 39  1  0
 39 42  1  0
 39 41  1  0
 40 38  2  0
 43 44  1  0
 43 18  1  0
 45 43  1  0
 46  1  1  0
 46 47  1  0
 48 49  1  0
 48 47  2  0
 50 61  2  0
 51 49  1  0
 51 56  1  0
 52 60  1  0
 52 62  1  0
 53 59  1  0
 53 55  1  0
 54 60  1  0
 55 56  2  0
 55 54  1  0
 57 51  2  0
 58 57  1  0
 58 53  2  0
 59 52  1  0
 60 50  1  0
 62 64  2  0
 63 62  1  0
 65 63  1  0
 66 75  2  0
 66 71  1  0
 67 63  1  0
 67 71  1  0
 68 67  1  0
 69 70  1  0
 69 68  1  0
 70 66  1  0
 71 72  2  0
 72 73  1  0
 74 73  2  0
 75 74  1  0
 76 50  1  0
 76 81  1  0
 76 77  1  0
 77 80  1  1
 77 78  1  0
 79 77  1  0
 81 84  1  0
 82 86  1  0
 82 81  1  0
 83 82  2  0
 86 85  1  0
 88 86  1  0
 88 89  1  0
 88 87  1  0
M  ISO  4   4 100  17 100  48 101  49 101
M  END
>  <TORSDO>  (12) 
F 19

>  <SCORE>  (12) 
-15.703

>  <name>  (12) 
11

>  <ligand_id>  (12) 
11

>  <original_smiles>  (12) 
[H]c1c([H])c([H])c2c(c1[H])C([H])([H])C([H])([H])C([H])([H])C2([H])N([H])C(=O)C1([H])N(C(=O)C([H])(N([H])C(=O)C([H])(N([H])C([H])([H])[H])C([H])([H])[H])C(C([H])([H])[H])(C([H])([H])[H])C([H])([H])[H])C([H])([H])c2c([H])c(OC([H])([H])C([H])([H])C([H])([H])[N+]([H])([H])C3([H])C4([H])N(C(=O)N5C([H])([H])C([H])([H])C([H])([H])C([H])(n6nc(-c7c([H])c([H])c(Oc8c([H])c([H])c(F)c([H])c8F)c([H])c7[H])c(C(=O)N([H])[H])c6N([H])[H])C5([H])[H])C([H])([H])C3([H])C4([H])[H])c([H])c([H])c2C1([H])[H]

>  <smiles>  (12) 
[H]c1c([H])c([H])c2c(c1[H])C([H])([H])C([H])([H])C([H])([H])C2([H])N([H])C(=O)C1([H])N(C(=O)C([H])(N([H])C(=O)C([H])(N([H])C([H])([H])[H])C([H])([H])[H])C(C([H])([H])[H])(C([H])([H])[H])C([H])([H])[H])C([H])([H])c2c([H])c(OC([H])([H])C([H])([H])C([H])([H])[N+]([H])([H])C3([H])C4([H])N(C(=O)N5C([H])([H])C([H])([H])C([H])([H])C([H])(n6nc(-c7c([H])c([H])c(Oc8c([H])c([H])c(F)c([H])c8F)c([H])c7[H])c(C(=O)N([H])[H])c6N([H])[H])C5([H])[H])C([H])([H])C3([H])C4([H])[H])c([H])c([H])c2C1([H])[H]

$$$$
12:0:0
     RDKit          3D

 94102  0  0  1  0  0  0  0  0999 V2000
  -30.0800  -24.0560   19.2630 C   0  0  0  0  0  2  0  0  0  0  0  0
  -30.4460  -22.8560   18.3710 C   0  0  0  0  0  2  0  0  0  0  0  0
  -28.7970  -22.4550   20.7340 C   0  0  0  0  0  2  0  0  0  0  0  0
  -28.7170  -23.8410   19.9320 C   0  0  0  0  0  3  0  0  0  0  0  0
  -30.6050  -21.5370   19.1680 C   0  0  0  0  0  3  0  0  0  0  0  0
  -29.3140  -21.1460   19.9590 C   0  0  0  0  0  3  0  0  0  0  0  0
  -29.5590  -19.8430   20.8770 C   0  0  0  0  0  2  0  0  0  0  0  0
  -29.3590  -18.3480   20.3220 C   0  0  0  0  0  3  0  0  0  0  0  0
  -30.2130  -17.1700   20.9870 C   0  0  0  0  0  3  0  0  0  0  0  0
  -30.5770  -14.6490   20.3950 C   0  0  0  0  0  0  0  0  0  0  0  0
  -30.3410  -12.4180   19.3130 C   0  0  0  0  0  2  0  0  0  0  0  0
  -29.3860  -12.5400   18.1050 C   0  0  0  0  0  2  0  0  0  0  0  0
  -27.9190  -12.3810   18.5500 C   0  0  0  0  0  2  0  0  0  0  0  0
  -27.5710  -13.2490   19.7890 C   0  0  0  0  0  3  0  0  0  0  0  0
  -28.6390  -13.1030   20.8960 C   0  0  0  0  0  2  0  0  0  0  0  0
  -29.9370  -13.4420   20.2980 N   0  0  0  0  0  0  0  0  0  0  0  0
  -31.7510  -14.7800   20.0360 O   0  0  0  0  0  0  0  0  0  0  0  0
  -29.8090  -15.7380   20.7280 N   0  0  0  0  0  0  0  0  0  0  0  0
  -28.8430  -15.5200   20.9270 H   0  0  0  0  0  0  0  0  0  0  0  0
  -25.1860  -13.8550   20.5250 C   0  0  0  0  0  0  0  0  0  0  0  0
  -24.1200  -13.0860   20.9060 C   0  0  0  0  0  0  0  0  0  0  0  0
  -24.5790  -11.7340   20.8770 C   0  0  0  0  0  0  0  0  0  0  0  0
  -26.2260  -12.9710   20.2860 N   0  0  0  0  0  0  0  0  0  0  0  0
  -25.8680  -11.6900   20.5580 N   0  0  0  0  0  0  0  0  0  0  0  0
  -23.8500  -10.4750   21.0770 C   0  0  0  0  0  0  0  0  0  0  0  0
  -24.2970   -9.5010   21.9960 C   0  0  0  0  0  3  0  0  0  0  0  0
  -23.5690   -8.3050   22.1820 C   0  0  0  0  0  3  0  0  0  0  0  0
  -22.3790   -8.0780   21.4500 C   0  0  0  0  0  0  0  0  0  0  0  0
  -21.9520   -9.0410   20.5180 C   0  0  0  0  0  3  0  0  0  0  0  0
  -22.6800  -10.2270   20.3300 C   0  0  0  0  0  3  0  0  0  0  0  0
  -21.6200   -6.9360   21.5470 O   0  0  0  0  0  0  0  0  0  0  0  0
  -21.6060   -6.1770   22.6900 C   0  0  0  0  0  0  0  0  0  0  0  0
  -21.2360   -6.7210   23.9400 C   0  0  0  0  0  3  0  0  0  0  0  0
  -21.1670   -5.8890   25.0760 C   0  0  0  0  0  3  0  0  0  0  0  0
  -21.4570   -4.5160   24.9630 C   0  0  0  0  0  0  0  0  0  0  0  0
  -21.8190   -3.9730   23.7170 C   0  0  0  0  0  3  0  0  0  0  0  0
  -21.8900   -4.8010   22.5830 C   0  0  0  0  0  0  0  0  0  0  0  0
  -22.2190   -4.2690   21.3820 F   0  0  0  0  0  0  0  0  0  0  0  0
  -21.3830   -3.7140   26.0510 F   0  0  0  0  0  0  0  0  0  0  0  0
  -22.7270  -13.5690   21.1850 C   0  0  0  0  0  0  0  0  0  0  0  0
  -22.0020  -12.8780   22.0580 N   0  0  0  0  0  0  0  0  0  0  0  0
  -22.2890  -14.5940   20.6640 O   0  0  0  0  0  0  0  0  0  0  0  0
  -22.3690  -12.0480   22.5000 H   0  0  0  0  0  0  0  0  0  0  0  0
  -21.0660  -13.1820   22.2860 H   0  0  0  0  0  0  0  0  0  0  0  0
  -25.3510  -15.2240   20.3400 N   0  0  0  0  0  0  0  0  0  0  0  0
  -24.5790  -15.8730   20.4480 H   0  0  0  0  0  0  0  0  0  0  0  0
  -26.1870  -15.6630   19.9780 H   0  0  0  0  0  0  0  0  0  0  0  0
  -31.2020  -20.4210   18.2710 C   0  0  0  0  0  2  0  0  0  0  0  0
  -30.3140  -20.0150   17.1640 N   0  0  0  0  0  4  0  0  0  0  0  0
  -29.4230  -19.7010   17.5020 H   0  0  0  0  0  0  0  0  0  0  0  0
  -30.7390  -19.2630   16.6500 H   0  0  0  0  0  0  0  0  0  0  0  0
  -30.1680  -20.7750   16.5250 H   0  0  0  0  0  0  0  0  0  0  0  0
  -28.2440  -25.1350   20.7480 C   0  0  0  0  0  2  0  0  0  0  0  0
  -28.3640  -26.4930   20.1620 O   0  0  0  0  0  0  0  0  0  0  0  0
  -24.6380  -31.8720   23.2300 C   0  0  0  0  0  0  0  0  0  0  0  0
  -27.2370  -27.3230   20.1700 C   0  0  0  0  0  0  0  0  0  0  0  0
  -23.4230  -30.4700   21.5990 C   0  0  0  0  0  3  0  0  0  0  0  0
  -24.8660  -28.9140   20.1730 C   0  0  0  0  0  0  0  0  0  0  0  0
  -25.9580  -30.7990   21.3930 C   0  0  0  0  0  2  0  0  0  0  0  0
  -26.0380  -29.4170   20.7530 C   0  0  0  0  0  0  0  0  0  0  0  0
  -27.2310  -28.6340   20.7360 C   0  0  0  0  0  3  0  0  0  0  0  0
  -26.0470  -26.8640   19.5730 C   0  0  0  0  0  3  0  0  0  0  0  0
  -24.8700  -27.6410   19.5760 C   0  0  0  0  0  3  0  0  0  0  0  0
  -23.6290  -29.7870   20.2210 C   0  0  0  0  0  2  0  0  0  0  0  0
  -24.6920  -31.0640   22.1320 N   0  0  0  0  0  0  0  0  0  0  0  0
  -23.5580  -32.1480   23.7730 O   0  0  0  0  0  0  0  0  0  0  0  0
  -22.7670  -29.4560   22.5660 C   0  0  0  0  0  0  0  0  0  0  0  0
  -21.4410  -29.2790   22.4480 N   0  0  0  0  0  0  0  0  0  0  0  0
  -23.4510  -28.8310   23.3800 O   0  0  0  0  0  0  0  0  0  0  0  0
  -20.9460  -29.8350   21.7630 H   0  0  0  0  0  0  0  0  0  0  0  0
  -18.0690  -28.0760   22.9610 C   0  0  0  0  0  0  0  0  0  0  0  0
  -20.6270  -28.3420   23.2240 C   0  0  0  0  0  3  0  0  0  0  0  0
  -20.7320  -26.9080   22.6550 C   0  0  0  0  0  2  0  0  0  0  0  0
  -19.6280  -26.5790   21.6440 C   0  0  0  0  0  2  0  0  0  0  0  0
  -18.2470  -26.7230   22.2900 C   0  0  0  0  0  2  0  0  0  0  0  0
  -19.1870  -28.8420   23.3850 C   0  0  0  0  0  0  0  0  0  0  0  0
  -18.9660  -30.1060   23.9720 C   0  0  0  0  0  3  0  0  0  0  0  0
  -17.6600  -30.6060   24.1390 C   0  0  0  0  0  3  0  0  0  0  0  0
  -16.5570  -29.8370   23.7300 C   0  0  0  0  0  3  0  0  0  0  0  0
  -16.7620  -28.5740   23.1470 C   0  0  0  0  0  3  0  0  0  0  0  0
  -25.9240  -32.5060   23.8440 C   0  0  0  0  0  3  0  0  0  0  0  0
  -25.6140  -33.9020   24.1830 N   0  0  0  0  0  0  0  0  0  0  0  0
  -25.9390  -34.9600   23.4270 C   0  0  0  0  0  0  0  0  0  0  0  0
  -26.6000  -34.8610   22.3890 O   0  0  0  0  0  0  0  0  0  0  0  0
  -25.0260  -34.0530   24.9890 H   0  0  0  0  0  0  0  0  0  0  0  0
  -24.2040  -36.7510   23.0980 C   0  0  0  0  0  1  0  0  0  0  0  0
  -25.4550  -36.3450   23.8950 C   0  0  0  0  0  3  0  0  0  0  0  0
  -27.5970  -37.2300   24.7050 C   0  0  0  0  0  1  0  0  0  0  0  0
  -26.4840  -37.4000   23.7750 N   0  0  0  0  0  0  0  0  0  0  0  0
  -26.0780  -38.3190   23.9320 H   0  0  0  0  0  0  0  0  0  0  0  0
  -26.4530  -31.7310   25.1120 C   0  0  1  0  0  0  0  0  0  0  0  0
  -25.3700  -31.4900   26.1900 C   0  0  0  0  0  1  0  0  0  0  0  0
  -27.0330  -30.3550   24.7100 C   0  0  0  0  0  1  0  0  0  0  0  0
  -27.6100  -32.5230   25.7670 C   0  0  0  0  0  1  0  0  0  0  0  0
  1  4  1  0
  2  5  1  0
  2  1  1  0
  4  3  1  0
  4 53  1  0
  5 48  1  0
  5  6  1  0
  6  3  1  0
  6  7  1  0
  8  7  1  0
  8  9  2  0
 10 18  1  0
 11 16  1  0
 12 13  1  0
 12 11  1  0
 14 13  1  0
 14 23  1  0
 14 15  1  0
 16 10  1  0
 16 15  1  0
 17 10  2  0
 18 19  1  0
 18  9  1  0
 20 21  2  0
 21 40  1  0
 22 21  1  0
 22 25  1  0
 23 20  1  0
 23 24  1  0
 24 22  2  0
 25 26  1  0
 26 27  2  0
 28 31  1  0
 28 27  1  0
 29 28  2  0
 30 29  1  0
 30 25  2  0
 31 32  1  0
 32 33  1  0
 33 34  2  0
 35 34  1  0
 35 39  1  0
 36 35  2  0
 37 32  2  0
 37 36  1  0
 38 37  1  0
 40 41  1  0
 41 44  1  0
 41 43  1  0
 42 40  2  0
 45 46  1  0
 45 20  1  0
 47 45  1  0
 49 50  1  0
 49 48  1  0
 51 49  1  0
 52 49  1  0
 54 56  1  0
 54 53  1  0
 55 66  2  0
 56 61  1  0
 57 65  1  0
 57 67  1  0
 58 64  1  0
 58 60  1  0
 59 65  1  0
 60 59  1  0
 61 60  2  0
 62 63  1  0
 62 56  2  0
 63 58  2  0
 64 57  1  0
 65 55  1  0
 67 69  2  0
 68 67  1  0
 70 68  1  0
 71 80  2  0
 71 76  1  0
 72 68  1  0
 72 76  1  0
 73 72  1  0
 74 75  1  0
 74 73  1  0
 75 71  1  0
 76 77  2  0
 77 78  1  0
 79 78  2  0
 80 79  1  0
 81 55  1  0
 81 82  1  0
 81 91  1  0
 82 85  1  0
 83 87  1  0
 83 82  1  0
 84 83  2  0
 87 86  1  0
 89 87  1  0
 89 90  1  0
 89 88  1  0
 91 94  1  1
 91 92  1  0
 93 91  1  0
M  ISO  4  10 100  18 100  53 101  54 101
M  END
>  <TORSDO>  (13) 
F 22

>  <SCORE>  (13) 
-13.233

>  <name>  (13) 
12

>  <ligand_id>  (13) 
12

>  <original_smiles>  (13) 
[H]c1c([H])c([H])c2c(c1[H])C([H])([H])C([H])([H])C([H])([H])C2([H])N([H])C(=O)C1([H])N(C(=O)C([H])(N([H])C(=O)C([H])(N([H])C([H])([H])[H])C([H])([H])[H])C(C([H])([H])[H])(C([H])([H])[H])C([H])([H])[H])C([H])([H])c2c([H])c(OC([H])([H])C3([H])C([H])([H])C([H])([H])C([H])(C([H])([H])[N+]([H])([H])[H])C([H])(C([H])([H])C([H])([H])C([H])([H])N([H])C(=O)N4C([H])([H])C([H])([H])C([H])([H])C([H])(n5nc(-c6c([H])c([H])c(Oc7c([H])c([H])c(F)c([H])c7F)c([H])c6[H])c(C(=O)N([H])[H])c5N([H])[H])C4([H])[H])C3([H])[H])c([H])c([H])c2C1([H])[H]

>  <smiles>  (13) 
[H]c1c([H])c([H])c2c(c1[H])C([H])([H])C([H])([H])C([H])([H])C2([H])N([H])C(=O)C1([H])N(C(=O)C([H])(N([H])C(=O)C([H])(N([H])C([H])([H])[H])C([H])([H])[H])C(C([H])([H])[H])(C([H])([H])[H])C([H])([H])[H])C([H])([H])c2c([H])c(OC([H])([H])C3([H])C([H])([H])C([H])([H])C([H])(C([H])([H])[N+]([H])([H])[H])C([H])(C([H])([H])C([H])([H])C([H])([H])N([H])C(=O)N4C([H])([H])C([H])([H])C([H])([H])C([H])(n5nc(-c6c([H])c([H])c(Oc7c([H])c([H])c(F)c([H])c7F)c([H])c6[H])c(C(=O)N([H])[H])c5N([H])[H])C4([H])[H])C3([H])[H])c([H])c([H])c2C1([H])[H]

$$$$
13:0:0
     RDKit          3D

 91100  0  0  1  0  0  0  0  0999 V2000
  -29.2030  -21.9040   20.1500 C   0  0  0  0  0  3  0  0  0  0  0  0
  -29.3690  -21.3200   21.3330 C   0  0  0  0  0  3  0  0  0  0  0  0
  -29.6290  -20.7460   19.2130 C   0  0  0  0  0  0  0  0  0  0  0  0
  -29.5190  -22.3030   22.4510 C   0  0  0  0  0  3  0  0  0  0  0  0
  -29.6770  -19.8000   21.4110 C   0  0  0  0  0  2  0  0  0  0  0  0
  -29.6220  -23.6930   21.7360 C   0  0  0  0  0  3  0  0  0  0  0  0
  -29.3130  -23.5450   20.2100 C   0  0  0  0  0  3  0  0  0  0  0  0
  -30.1410  -19.4030   19.9800 C   0  0  0  0  0  3  0  0  0  0  0  0
  -29.6130  -20.8110   17.9830 O   0  0  0  0  0  0  0  0  0  0  0  0
  -27.7520  -24.5110   18.3420 C   0  0  0  0  0  1  0  0  0  0  0  0
  -28.1590  -24.7190   19.8190 C   0  0  0  0  0  3  0  0  0  0  0  0
  -28.3180  -26.2610   20.0950 O   0  0  0  0  0  0  0  0  0  0  0  0
  -24.6300  -31.9140   23.1860 C   0  0  0  0  0  0  0  0  0  0  0  0
  -27.2290  -27.2200   20.0840 C   0  0  0  0  0  0  0  0  0  0  0  0
  -23.4270  -30.5090   21.5570 C   0  0  0  0  0  3  0  0  0  0  0  0
  -24.8690  -28.9390   20.1280 C   0  0  0  0  0  0  0  0  0  0  0  0
  -25.9800  -30.7960   21.3570 C   0  0  0  0  0  2  0  0  0  0  0  0
  -26.0590  -29.4020   20.7020 C   0  0  0  0  0  0  0  0  0  0  0  0
  -27.2420  -28.5640   20.6510 C   0  0  0  0  0  3  0  0  0  0  0  0
  -25.9880  -26.8470   19.5230 C   0  0  0  0  0  3  0  0  0  0  0  0
  -24.8430  -27.6690   19.5350 C   0  0  0  0  0  3  0  0  0  0  0  0
  -23.6410  -29.8320   20.1780 C   0  0  0  0  0  2  0  0  0  0  0  0
  -24.7000  -31.1030   22.0830 N   0  0  0  0  0  0  0  0  0  0  0  0
  -23.5460  -32.1760   23.7320 O   0  0  0  0  0  0  0  0  0  0  0  0
  -22.7710  -29.4960   22.5280 C   0  0  0  0  0  0  0  0  0  0  0  0
  -21.4420  -29.3100   22.4190 N   0  0  0  0  0  0  0  0  0  0  0  0
  -23.4600  -28.8820   23.3460 O   0  0  0  0  0  0  0  0  0  0  0  0
  -20.9390  -29.8570   21.7350 H   0  0  0  0  0  0  0  0  0  0  0  0
  -18.0830  -28.0570   22.9520 C   0  0  0  0  0  0  0  0  0  0  0  0
  -20.6420  -28.3590   23.1960 C   0  0  0  0  0  3  0  0  0  0  0  0
  -20.7580  -26.9280   22.6190 C   0  0  0  0  0  2  0  0  0  0  0  0
  -19.6500  -26.5880   21.6160 C   0  0  0  0  0  2  0  0  0  0  0  0
  -18.2720  -26.7130   22.2710 C   0  0  0  0  0  2  0  0  0  0  0  0
  -19.1940  -28.8370   23.3730 C   0  0  0  0  0  0  0  0  0  0  0  0
  -18.9570  -30.0930   23.9700 C   0  0  0  0  0  3  0  0  0  0  0  0
  -17.6450  -30.5710   24.1480 C   0  0  0  0  0  3  0  0  0  0  0  0
  -16.5500  -29.7890   23.7400 C   0  0  0  0  0  3  0  0  0  0  0  0
  -16.7710  -28.5340   23.1480 C   0  0  0  0  0  3  0  0  0  0  0  0
  -25.9060  -32.5580   23.8090 C   0  0  0  0  0  3  0  0  0  0  0  0
  -25.5860  -33.9560   24.1480 N   0  0  0  0  0  0  0  0  0  0  0  0
  -25.8910  -35.0160   23.3870 C   0  0  0  0  0  0  0  0  0  0  0  0
  -26.5350  -34.9190   22.3380 O   0  0  0  0  0  0  0  0  0  0  0  0
  -25.0230  -34.1060   24.9740 H   0  0  0  0  0  0  0  0  0  0  0  0
  -24.1480  -36.7960   23.0660 C   0  0  0  0  0  1  0  0  0  0  0  0
  -25.4050  -36.4010   23.8590 C   0  0  0  0  0  3  0  0  0  0  0  0
  -27.5370  -37.3100   24.6750 C   0  0  0  0  0  1  0  0  0  0  0  0
  -26.4310  -37.4600   23.7310 N   0  0  0  0  0  0  0  0  0  0  0  0
  -26.0180  -38.3810   23.8640 H   0  0  0  0  0  0  0  0  0  0  0  0
  -26.4340  -31.7950   25.0890 C   0  0  1  0  0  0  0  0  0  0  0  0
  -25.3510  -31.5390   26.1640 C   0  0  0  0  0  1  0  0  0  0  0  0
  -27.0300  -30.4260   24.6970 C   0  0  0  0  0  1  0  0  0  0  0  0
  -27.5810  -32.5990   25.7500 C   0  0  0  0  0  1  0  0  0  0  0  0
  -30.1160  -17.8200   19.3590 C   0  0  0  0  0  2  0  0  0  0  0  0
  -30.7660  -15.1820   19.8770 C   0  0  0  0  0  0  0  0  0  0  0  0
  -30.5860  -12.8020   19.0290 C   0  0  0  0  0  2  0  0  0  0  0  0
  -29.5870  -12.7100   17.8520 C   0  0  0  0  0  2  0  0  0  0  0  0
  -28.1560  -12.4880   18.3720 C   0  0  0  0  0  2  0  0  0  0  0  0
  -27.8030  -13.4430   19.5420 C   0  0  0  0  0  3  0  0  0  0  0  0
  -28.9210  -13.5170   20.6080 C   0  0  0  0  0  2  0  0  0  0  0  0
  -30.1550  -13.9230   19.9190 N   0  0  0  0  0  0  0  0  0  0  0  0
  -31.9240  -15.2170   19.4620 O   0  0  0  0  0  0  0  0  0  0  0  0
  -30.0320  -16.3970   20.0690 N   0  0  0  0  0  0  0  0  0  0  0  0
  -29.1390  -16.2420   20.5100 H   0  0  0  0  0  0  0  0  0  0  0  0
  -25.4780  -14.0120   20.4560 C   0  0  0  0  0  0  0  0  0  0  0  0
  -24.4310  -13.2350   20.8590 C   0  0  0  0  0  0  0  0  0  0  0  0
  -24.8750  -11.8790   20.7490 C   0  0  0  0  0  0  0  0  0  0  0  0
  -26.4970  -13.1360   20.1170 N   0  0  0  0  0  0  0  0  0  0  0  0
  -26.1480  -11.8440   20.3620 N   0  0  0  0  0  0  0  0  0  0  0  0
  -24.1460  -10.6160   20.9330 C   0  0  0  0  0  0  0  0  0  0  0  0
  -24.5710   -9.6440   21.8650 C   0  0  0  0  0  3  0  0  0  0  0  0
  -23.8390   -8.4500   22.0380 C   0  0  0  0  0  3  0  0  0  0  0  0
  -22.6630   -8.2210   21.2840 C   0  0  0  0  0  0  0  0  0  0  0  0
  -22.2580   -9.1810   20.3380 C   0  0  0  0  0  3  0  0  0  0  0  0
  -22.9930  -10.3650   20.1620 C   0  0  0  0  0  3  0  0  0  0  0  0
  -21.9070   -7.0780   21.3670 O   0  0  0  0  0  0  0  0  0  0  0  0
  -21.8000   -6.3690   22.5370 C   0  0  0  0  0  0  0  0  0  0  0  0
  -21.2320   -6.9330   23.7010 C   0  0  0  0  0  3  0  0  0  0  0  0
  -21.0760   -6.1480   24.8610 C   0  0  0  0  0  3  0  0  0  0  0  0
  -21.4790   -4.8000   24.8570 C   0  0  0  0  0  0  0  0  0  0  0  0
  -22.0360   -4.2330   23.6980 C   0  0  0  0  0  3  0  0  0  0  0  0
  -22.1930   -5.0150   22.5400 C   0  0  0  0  0  0  0  0  0  0  0  0
  -22.7120   -4.4620   21.4180 F   0  0  0  0  0  0  0  0  0  0  0  0
  -21.3220   -4.0390   25.9670 F   0  0  0  0  0  0  0  0  0  0  0  0
  -23.0550  -13.7140   21.2260 C   0  0  0  0  0  0  0  0  0  0  0  0
  -22.3710  -12.9960   22.1070 N   0  0  0  0  0  0  0  0  0  0  0  0
  -22.6020  -14.7630   20.7700 O   0  0  0  0  0  0  0  0  0  0  0  0
  -22.7500  -12.1460   22.4990 H   0  0  0  0  0  0  0  0  0  0  0  0
  -21.4510  -13.2990   22.3950 H   0  0  0  0  0  0  0  0  0  0  0  0
  -25.6460  -15.3880   20.3160 N   0  0  0  0  0  0  0  0  0  0  0  0
  -24.9000  -16.0400   20.5250 H   0  0  0  0  0  0  0  0  0  0  0  0
  -26.4660  -15.8330   19.9280 H   0  0  0  0  0  0  0  0  0  0  0  0
  1  3  1  0
  1  7  1  0
  1  2  1  0
  2  5  1  0
  2  4  1  0
  3  8  1  0
  6  4  2  0
  7 11  1  0
  7  6  1  0
  8 53  1  0
  8  5  1  0
  9  3  2  0
 11 10  1  0
 11 12  1  0
 13 24  2  0
 14 12  1  0
 14 19  1  0
 15 23  1  0
 15 25  1  0
 16 22  1  0
 16 18  1  0
 17 23  1  0
 18 17  1  0
 19 18  2  0
 20 21  1  0
 20 14  2  0
 21 16  2  0
 22 15  1  0
 23 13  1  0
 25 27  2  0
 26 25  1  0
 28 26  1  0
 29 38  2  0
 29 34  1  0
 30 26  1  0
 30 34  1  0
 31 30  1  0
 32 33  1  0
 32 31  1  0
 33 29  1  0
 34 35  2  0
 35 36  1  0
 37 36  2  0
 38 37  1  0
 39 13  1  0
 39 40  1  0
 39 49  1  0
 40 43  1  0
 41 45  1  0
 41 40  1  0
 42 41  2  0
 45 44  1  0
 47 45  1  0
 47 48  1  0
 47 46  1  0
 49 52  1  1
 49 50  1  0
 51 49  1  0
 53 62  1  0
 54 60  1  0
 54 62  1  0
 55 60  1  0
 56 57  1  0
 56 55  1  0
 58 57  1  0
 58 67  1  0
 58 59  1  0
 60 59  1  0
 61 54  2  0
 62 63  1  0
 64 65  2  0
 65 84  1  0
 66 65  1  0
 66 69  1  0
 67 68  1  0
 67 64  1  0
 68 66  2  0
 69 70  1  0
 70 71  2  0
 72 75  1  0
 72 71  1  0
 73 72  2  0
 74 73  1  0
 74 69  2  0
 75 76  1  0
 76 81  2  0
 76 77  1  0
 77 78  2  0
 79 78  1  0
 79 83  1  0
 80 79  2  0
 81 80  1  0
 82 81  1  0
 84 85  1  0
 85 88  1  0
 85 87  1  0
 86 84  2  0
 89 64  1  0
 89 90  1  0
 91 89  1  0
M  ISO  4  11 101  12 101  54 100  62 100
M  END
>  <TORSDO>  (14) 
F 18

>  <SCORE>  (14) 
-15.056

>  <name>  (14) 
13

>  <ligand_id>  (14) 
13

>  <original_smiles>  (14) 
[H]c1c([H])c([H])c2c(c1[H])C([H])([H])C([H])([H])C([H])([H])C2([H])N([H])C(=O)C1([H])N(C(=O)C([H])(N([H])C(=O)C([H])(N([H])C([H])([H])[H])C([H])([H])[H])C(C([H])([H])[H])(C([H])([H])[H])C([H])([H])[H])C([H])([H])c2c([H])c(OC([H])(C([H])([H])[H])C3([H])C4=C(C([H])([H])C3([H])[H])C([H])([H])C([H])(C([H])([H])N([H])C(=O)N3C([H])([H])C([H])([H])C([H])([H])C([H])(n5nc(-c6c([H])c([H])c(Oc7c([H])c([H])c(F)c([H])c7F)c([H])c6[H])c(C(=O)N([H])[H])c5N([H])[H])C3([H])[H])C4=O)c([H])c([H])c2C1([H])[H]

>  <smiles>  (14) 
[H]c1c([H])c([H])c2c(c1[H])C([H])([H])C([H])([H])C([H])([H])C2([H])N([H])C(=O)C1([H])N(C(=O)C([H])(N([H])C(=O)C([H])(N([H])C([H])([H])[H])C([H])([H])[H])C(C([H])([H])[H])(C([H])([H])[H])C([H])([H])[H])C([H])([H])c2c([H])c(OC([H])(C([H])([H])[H])C3([H])C4=C(C([H])([H])C3([H])[H])C([H])([H])C([H])(C([H])([H])N([H])C(=O)N3C([H])([H])C([H])([H])C([H])([H])C([H])(n5nc(-c6c([H])c([H])c(Oc7c([H])c([H])c(F)c([H])c7F)c([H])c6[H])c(C(=O)N([H])[H])c5N([H])[H])C3([H])[H])C4=O)c([H])c([H])c2C1([H])[H]

$$$$
14:0:0
     RDKit          3D

 90100  0  0  1  0  0  0  0  0999 V2000
  -28.3760  -21.1430   21.7560 C   0  0  0  0  0  1  0  0  0  0  0  0
  -29.3210  -21.1710   20.5400 C   0  0  0  0  0  3  0  0  0  0  0  0
  -29.2220  -19.7810   19.7560 C   0  0  0  0  0  0  0  0  0  0  0  0
  -28.5030  -19.7830   18.7530 O   0  0  0  0  0  0  0  0  0  0  0  0
  -30.8810  -14.7930   19.9920 C   0  0  0  0  0  0  0  0  0  0  0  0
  -30.5830  -12.5650   18.9070 C   0  0  0  0  0  2  0  0  0  0  0  0
  -29.5840  -12.6980   17.7370 C   0  0  0  0  0  2  0  0  0  0  0  0
  -28.1370  -12.5290   18.2410 C   0  0  0  0  0  2  0  0  0  0  0  0
  -27.8410  -13.3890   19.5000 C   0  0  0  0  0  3  0  0  0  0  0  0
  -28.9530  -13.2450   20.5610 C   0  0  0  0  0  2  0  0  0  0  0  0
  -30.2260  -13.5890   19.9140 N   0  0  0  0  0  0  0  0  0  0  0  0
  -32.0140  -14.9240   19.5150 O   0  0  0  0  0  0  0  0  0  0  0  0
  -28.4370  -17.3290   21.0640 C   0  0  0  0  0  2  0  0  0  0  0  0
  -30.6840  -16.5750   21.7460 C   0  0  0  0  0  2  0  0  0  0  0  0
  -29.9930  -18.4530   20.2260 C   0  0  0  0  0  3  0  0  0  0  0  0
  -29.7940  -17.8090   21.6170 C   0  0  2  0  0  0  0  0  0  0  0  0
  -29.4150  -16.9800   19.9210 C   0  0  2  0  0  0  0  0  0  0  0  0
  -30.2220  -15.8700   20.5520 N   0  0  0  0  0  0  0  0  0  0  0  0
  -25.4970  -13.9890   20.3530 C   0  0  0  0  0  0  0  0  0  0  0  0
  -24.4440  -13.2180   20.7630 C   0  0  0  0  0  0  0  0  0  0  0  0
  -24.8920  -11.8640   20.6840 C   0  0  0  0  0  0  0  0  0  0  0  0
  -26.5190  -13.1060   20.0500 N   0  0  0  0  0  0  0  0  0  0  0  0
  -26.1650  -11.8210   20.3100 N   0  0  0  0  0  0  0  0  0  0  0  0
  -24.1640  -10.6050   20.8890 C   0  0  0  0  0  0  0  0  0  0  0  0
  -24.5860   -9.6540   21.8450 C   0  0  0  0  0  3  0  0  0  0  0  0
  -23.8580   -8.4610   22.0380 C   0  0  0  0  0  3  0  0  0  0  0  0
  -22.6940   -8.2080   21.2730 C   0  0  0  0  0  0  0  0  0  0  0  0
  -22.2920   -9.1460   20.3080 C   0  0  0  0  0  3  0  0  0  0  0  0
  -23.0210  -10.3320   20.1130 C   0  0  0  0  0  3  0  0  0  0  0  0
  -21.9410   -7.0630   21.3730 O   0  0  0  0  0  0  0  0  0  0  0  0
  -21.8050   -6.3910   22.5620 C   0  0  0  0  0  0  0  0  0  0  0  0
  -21.2780   -7.0140   23.7140 C   0  0  0  0  0  3  0  0  0  0  0  0
  -21.0890   -6.2680   24.8940 C   0  0  0  0  0  3  0  0  0  0  0  0
  -21.4200   -4.9000   24.9240 C   0  0  0  0  0  0  0  0  0  0  0  0
  -21.9410   -4.2770   23.7760 C   0  0  0  0  0  3  0  0  0  0  0  0
  -22.1300   -5.0200   22.5980 C   0  0  0  0  0  0  0  0  0  0  0  0
  -22.6120   -4.4100   21.4890 F   0  0  0  0  0  0  0  0  0  0  0  0
  -21.2320   -4.1800   26.0550 F   0  0  0  0  0  0  0  0  0  0  0  0
  -23.0680  -13.7030   21.1150 C   0  0  0  0  0  0  0  0  0  0  0  0
  -22.3830  -13.0010   22.0110 N   0  0  0  0  0  0  0  0  0  0  0  0
  -22.6110  -14.7390   20.6330 O   0  0  0  0  0  0  0  0  0  0  0  0
  -22.7660  -12.1640   22.4240 H   0  0  0  0  0  0  0  0  0  0  0  0
  -21.4610  -13.3070   22.2890 H   0  0  0  0  0  0  0  0  0  0  0  0
  -25.6620  -15.3610   20.1920 N   0  0  0  0  0  0  0  0  0  0  0  0
  -24.9150  -16.0210   20.3760 H   0  0  0  0  0  0  0  0  0  0  0  0
  -26.5070  -15.8030   19.8540 H   0  0  0  0  0  0  0  0  0  0  0  0
  -29.0250  -22.5260   19.7060 C   0  0  0  0  0  2  0  0  0  0  0  0
  -28.9020  -23.9530   20.4440 C   0  0  0  0  0  3  0  0  0  0  0  0
  -28.7340  -25.2750   19.5560 C   0  0  0  0  0  3  0  0  0  0  0  0
  -28.5900  -26.6080   20.2050 O   0  0  0  0  0  0  0  0  0  0  0  0
  -24.7100  -31.8990   23.2250 C   0  0  0  0  0  0  0  0  0  0  0  0
  -27.4210  -27.3910   20.1530 C   0  0  0  0  0  0  0  0  0  0  0  0
  -23.5360  -30.4760   21.5870 C   0  0  0  0  0  3  0  0  0  0  0  0
  -25.0160  -28.9560   20.1600 C   0  0  0  0  0  0  0  0  0  0  0  0
  -26.0690  -30.8460   21.4010 C   0  0  0  0  0  2  0  0  0  0  0  0
  -26.1750  -29.4690   20.7520 C   0  0  0  0  0  0  0  0  0  0  0  0
  -27.3760  -28.6980   20.7390 C   0  0  0  0  0  3  0  0  0  0  0  0
  -26.2260  -26.9250   19.5570 C   0  0  0  0  0  3  0  0  0  0  0  0
  -25.0430  -27.6900   19.5580 C   0  0  0  0  0  3  0  0  0  0  0  0
  -23.7630  -29.8050   20.2070 C   0  0  0  0  0  2  0  0  0  0  0  0
  -24.7910  -31.0920   22.1280 N   0  0  0  0  0  0  0  0  0  0  0  0
  -23.6220  -32.1540   23.7610 O   0  0  0  0  0  0  0  0  0  0  0  0
  -22.8960  -29.4450   22.5460 C   0  0  0  0  0  0  0  0  0  0  0  0
  -21.5760  -29.2320   22.4120 N   0  0  0  0  0  0  0  0  0  0  0  0
  -23.5850  -28.8410   23.3710 O   0  0  0  0  0  0  0  0  0  0  0  0
  -21.0780  -29.7720   21.7180 H   0  0  0  0  0  0  0  0  0  0  0  0
  -18.2290  -27.9470   22.8890 C   0  0  0  0  0  0  0  0  0  0  0  0
  -20.7760  -28.2770   23.1810 C   0  0  0  0  0  3  0  0  0  0  0  0
  -20.9230  -26.8450   22.6140 C   0  0  0  0  0  2  0  0  0  0  0  0
  -19.8390  -26.4870   21.5920 C   0  0  0  0  0  2  0  0  0  0  0  0
  -18.4490  -26.5980   22.2230 C   0  0  0  0  0  2  0  0  0  0  0  0
  -19.3220  -28.7420   23.3240 C   0  0  0  0  0  0  0  0  0  0  0  0
  -19.0630  -30.0020   23.9060 C   0  0  0  0  0  3  0  0  0  0  0  0
  -17.7430  -30.4680   24.0580 C   0  0  0  0  0  3  0  0  0  0  0  0
  -16.6640  -29.6700   23.6400 C   0  0  0  0  0  3  0  0  0  0  0  0
  -16.9070  -28.4120   23.0610 C   0  0  0  0  0  3  0  0  0  0  0  0
  -25.9800  -32.5590   23.8480 C   0  0  0  0  0  3  0  0  0  0  0  0
  -26.5080  -31.8030   25.1290 C   0  0  1  0  0  0  0  0  0  0  0  0
  -25.4140  -31.5310   26.1880 C   0  0  0  0  0  1  0  0  0  0  0  0
  -27.1350  -30.4420   24.7400 C   0  0  0  0  0  1  0  0  0  0  0  0
  -27.6290  -32.6290   25.8010 C   0  0  0  0  0  1  0  0  0  0  0  0
  -25.6420  -33.9520   24.1750 N   0  0  0  0  0  0  0  0  0  0  0  0
  -25.9560  -35.0100   23.4160 C   0  0  0  0  0  0  0  0  0  0  0  0
  -26.6290  -34.9190   22.3870 O   0  0  0  0  0  0  0  0  0  0  0  0
  -25.0430  -34.0960   24.9760 H   0  0  0  0  0  0  0  0  0  0  0  0
  -24.1960  -36.7720   23.0550 C   0  0  0  0  0  1  0  0  0  0  0  0
  -25.4410  -36.3900   23.8720 C   0  0  0  0  0  3  0  0  0  0  0  0
  -27.5540  -37.3150   24.7140 C   0  0  0  0  0  1  0  0  0  0  0  0
  -26.4540  -37.4610   23.7630 N   0  0  0  0  0  0  0  0  0  0  0  0
  -26.0310  -38.3740   23.9070 H   0  0  0  0  0  0  0  0  0  0  0  0
  2  1  1  0
  3  2  1  0
  4  3  2  0
  5 18  1  0
  6 11  1  0
  7  8  1  0
  7  6  1  0
  9  8  1  0
  9 22  1  0
  9 10  1  0
 11  5  1  0
 11 10  1  0
 12  5  2  0
 15  3  1  0
 15 16  1  0
 16 13  1  6
 16 14  1  0
 17 15  1  0
 17 18  1  0
 17 13  1  6
 17 16  1  0
 18 14  1  0
 19 20  2  0
 20 39  1  0
 21 20  1  0
 21 24  1  0
 22 23  1  0
 22 19  1  0
 23 21  2  0
 24 25  1  0
 25 26  2  0
 27 30  1  0
 27 26  1  0
 28 27  2  0
 29 28  1  0
 29 24  2  0
 30 31  1  0
 31 36  2  0
 31 32  1  0
 32 33  2  0
 33 34  1  0
 34 38  1  0
 35 34  2  0
 36 35  1  0
 37 36  1  0
 39 40  1  0
 40 43  1  0
 40 42  1  0
 41 39  2  0
 44 19  1  0
 44 45  1  0
 46 44  1  0
 47 48  1  0
 47  2  1  0
 49 50  1  0
 49 48  2  0
 51 62  2  0
 52 50  1  0
 52 57  1  0
 53 61  1  0
 53 63  1  0
 54 60  1  0
 54 56  1  0
 55 61  1  0
 56 55  1  0
 57 56  2  0
 58 59  1  0
 58 52  2  0
 59 54  2  0
 60 53  1  0
 61 51  1  0
 63 65  2  0
 64 63  1  0
 66 64  1  0
 67 76  2  0
 67 72  1  0
 68 64  1  0
 68 72  1  0
 69 68  1  0
 70 71  1  0
 70 69  1  0
 71 67  1  0
 72 73  2  0
 73 74  1  0
 75 74  2  0
 76 75  1  0
 77 51  1  0
 77 82  1  0
 77 78  1  0
 78 81  1  1
 78 79  1  0
 80 78  1  0
 82 85  1  0
 83 87  1  0
 83 82  1  0
 84 83  2  0
 87 86  1  0
 89 87  1  0
 89 90  1  0
 89 88  1  0
M  ISO  4   5 100  18 100  49 101  50 101
M  END
>  <TORSDO>  (15) 
F 20

>  <SCORE>  (15) 
-12.874

>  <name>  (15) 
14

>  <ligand_id>  (15) 
14

>  <original_smiles>  (15) 
[H]c1c([H])c([H])c2c(c1[H])C([H])([H])C([H])([H])C([H])([H])C2([H])N([H])C(=O)C1([H])N(C(=O)C([H])(N([H])C(=O)C([H])(N([H])C([H])([H])[H])C([H])([H])[H])C(C([H])([H])[H])(C([H])([H])[H])C([H])([H])[H])C([H])([H])c2c([H])c(OC([H])([H])C([H])([H])C([H])([H])C([H])(C(=O)C3([H])C4([H])N(C(=O)N5C([H])([H])C([H])([H])C([H])([H])C([H])(n6nc(-c7c([H])c([H])c(Oc8c([H])c([H])c(F)c([H])c8F)c([H])c7[H])c(C(=O)N([H])[H])c6N([H])[H])C5([H])[H])C([H])([H])C3([H])C4([H])[H])C([H])([H])[H])c([H])c([H])c2C1([H])[H]

>  <smiles>  (15) 
[H]c1c([H])c([H])c2c(c1[H])C([H])([H])C([H])([H])C([H])([H])C2([H])N([H])C(=O)C1([H])N(C(=O)C([H])(N([H])C(=O)C([H])(N([H])C([H])([H])[H])C([H])([H])[H])C(C([H])([H])[H])(C([H])([H])[H])C([H])([H])[H])C([H])([H])c2c([H])c(OC([H])([H])C([H])([H])C([H])([H])C([H])(C(=O)C3([H])C4([H])N(C(=O)N5C([H])([H])C([H])([H])C([H])([H])C([H])(n6nc(-c7c([H])c([H])c(Oc8c([H])c([H])c(F)c([H])c8F)c([H])c7[H])c(C(=O)N([H])[H])c6N([H])[H])C5([H])[H])C([H])([H])C3([H])C4([H])[H])C([H])([H])[H])c([H])c([H])c2C1([H])[H]

$$$$
15:0:0
     RDKit          3D

 94103  0  0  1  0  0  0  0  0999 V2000
  -29.3200  -19.0080   19.0170 C   0  0  0  0  0  3  0  0  0  0  0  0
  -29.3980  -20.2880   18.4300 C   0  0  0  0  0  3  0  0  0  0  0  0
  -31.2870  -19.5280   20.3240 C   0  0  0  0  0  3  0  0  0  0  0  0
  -30.2500  -18.6230   20.0010 C   0  0  0  0  0  0  0  0  0  0  0  0
  -30.3770  -21.2430   18.8060 C   0  0  0  0  0  0  0  0  0  0  0  0
  -31.3630  -20.8270   19.7490 C   0  0  0  0  0  0  0  0  0  0  0  0
  -32.4880  -21.7320   20.2210 C   0  0  0  0  0  1  0  0  0  0  0  0
  -30.0020  -17.3830   20.8320 C   0  0  0  0  0  3  0  0  0  0  0  0
  -30.9380  -16.8680   21.8930 C   0  0  0  0  0  3  0  0  0  0  0  0
  -30.5880  -15.9810   20.6880 C   0  0  0  0  0  3  0  0  0  0  0  0
  -32.1880  -14.4920   19.2870 C   0  0  0  0  0  0  0  0  0  0  0  0
  -31.7320  -12.2240   18.3970 C   0  0  0  0  0  2  0  0  0  0  0  0
  -30.5550  -12.3040   17.4030 C   0  0  0  0  0  2  0  0  0  0  0  0
  -29.1980  -12.2260   18.1300 C   0  0  0  0  0  2  0  0  0  0  0  0
  -29.1320  -13.1680   19.3530 C   0  0  0  0  0  3  0  0  0  0  0  0
  -30.3820  -12.9590   20.2360 C   0  0  0  0  0  2  0  0  0  0  0  0
  -31.5350  -13.2950   19.3980 N   0  0  0  0  0  0  0  0  0  0  0  0
  -33.2140  -14.5810   18.6070 O   0  0  0  0  0  0  0  0  0  0  0  0
  -31.6330  -15.6560   19.7350 N   0  0  0  0  0  0  0  0  0  0  0  0
  -32.1440  -16.4660   19.4160 H   0  0  0  0  0  0  0  0  0  0  0  0
  -27.1450  -13.9350   20.7990 C   0  0  0  0  0  0  0  0  0  0  0  0
  -26.0510  -13.2610   21.2650 C   0  0  0  0  0  0  0  0  0  0  0  0
  -26.1890  -11.9140   20.8030 C   0  0  0  0  0  0  0  0  0  0  0  0
  -27.8940  -12.9990   20.0990 N   0  0  0  0  0  0  0  0  0  0  0  0
  -27.3330  -11.7650   20.1520 N   0  0  0  0  0  0  0  0  0  0  0  0
  -25.2730  -10.7720   20.8950 C   0  0  0  0  0  0  0  0  0  0  0  0
  -25.5510   -9.6660   21.7250 C   0  0  0  0  0  3  0  0  0  0  0  0
  -24.6450   -8.5860   21.8060 C   0  0  0  0  0  3  0  0  0  0  0  0
  -23.4460   -8.6100   21.0520 C   0  0  0  0  0  0  0  0  0  0  0  0
  -23.1850   -9.7070   20.2090 C   0  0  0  0  0  3  0  0  0  0  0  0
  -24.0910  -10.7750   20.1270 C   0  0  0  0  0  3  0  0  0  0  0  0
  -22.5160   -7.5980   21.0520 O   0  0  0  0  0  0  0  0  0  0  0  0
  -22.0980   -7.0070   22.2180 C   0  0  0  0  0  0  0  0  0  0  0  0
  -21.5430   -7.7580   23.2770 C   0  0  0  0  0  3  0  0  0  0  0  0
  -21.0580   -7.1030   24.4250 C   0  0  0  0  0  3  0  0  0  0  0  0
  -21.1230   -5.6980   24.5160 C   0  0  0  0  0  0  0  0  0  0  0  0
  -21.6720   -4.9490   23.4620 C   0  0  0  0  0  3  0  0  0  0  0  0
  -22.1570   -5.6020   22.3140 C   0  0  0  0  0  0  0  0  0  0  0  0
  -22.6650   -4.8750   21.2910 F   0  0  0  0  0  0  0  0  0  0  0  0
  -20.6510   -5.0680   25.6170 F   0  0  0  0  0  0  0  0  0  0  0  0
  -24.8880  -13.8470   22.0130 C   0  0  0  0  0  0  0  0  0  0  0  0
  -24.2830  -13.0730   22.9050 N   0  0  0  0  0  0  0  0  0  0  0  0
  -24.5420  -15.0170   21.8440 O   0  0  0  0  0  0  0  0  0  0  0  0
  -24.5710  -12.1170   23.0540 H   0  0  0  0  0  0  0  0  0  0  0  0
  -23.5170  -13.4430   23.4480 H   0  0  0  0  0  0  0  0  0  0  0  0
  -27.5520  -15.2650   20.8980 N   0  0  0  0  0  0  0  0  0  0  0  0
  -26.9590  -15.9620   21.3340 H   0  0  0  0  0  0  0  0  0  0  0  0
  -28.3540  -15.6670   20.4300 H   0  0  0  0  0  0  0  0  0  0  0  0
  -31.2880  -16.8770   24.4470 C   0  0  0  0  0  1  0  0  0  0  0  0
  -30.3260  -16.6600   23.2710 C   0  0  0  0  0  2  0  0  0  0  0  0
  -30.1740  -22.6480   18.1730 C   0  0  0  0  0  2  0  0  0  0  0  0
  -30.8460  -23.9880   18.6350 C   0  0  0  0  0  2  0  0  0  0  0  0
  -29.9170  -25.2040   18.3050 C   0  0  0  0  0  2  0  0  0  0  0  0
  -30.1930  -26.5020   18.9070 O   0  0  0  0  0  0  0  0  0  0  0  0
  -26.6020  -29.9040   24.0720 C   0  0  0  0  0  0  0  0  0  0  0  0
  -29.1140  -27.3330   19.2110 C   0  0  0  0  0  0  0  0  0  0  0  0
  -25.4110  -29.6070   21.9310 C   0  0  0  0  0  3  0  0  0  0  0  0
  -26.8480  -28.8950   19.9470 C   0  0  0  0  0  0  0  0  0  0  0  0
  -27.9680  -29.7890   21.9860 C   0  0  0  0  0  2  0  0  0  0  0  0
  -28.0020  -28.9230   20.7400 C   0  0  0  0  0  0  0  0  0  0  0  0
  -29.1370  -28.1540   20.3700 C   0  0  0  0  0  3  0  0  0  0  0  0
  -27.9500  -27.3840   18.4020 C   0  0  0  0  0  3  0  0  0  0  0  0
  -26.8300  -28.1440   18.7650 C   0  0  0  0  0  3  0  0  0  0  0  0
  -25.6550  -29.7030   20.4010 C   0  0  0  0  0  2  0  0  0  0  0  0
  -26.6760  -29.7520   22.7210 N   0  0  0  0  0  0  0  0  0  0  0  0
  -25.5090  -29.9630   24.6550 O   0  0  0  0  0  0  0  0  0  0  0  0
  -24.6430  -28.2960   22.2350 C   0  0  0  0  0  0  0  0  0  0  0  0
  -23.3340  -28.2820   21.9350 N   0  0  0  0  0  0  0  0  0  0  0  0
  -25.2270  -27.3150   22.7060 O   0  0  0  0  0  0  0  0  0  0  0  0
  -22.9310  -29.1250   21.5490 H   0  0  0  0  0  0  0  0  0  0  0  0
  -19.9140  -27.1970   21.4810 C   0  0  0  0  0  0  0  0  0  0  0  0
  -22.4230  -27.1500   22.1070 C   0  0  0  0  0  3  0  0  0  0  0  0
  -22.5840  -26.1310   20.9560 C   0  0  0  0  0  2  0  0  0  0  0  0
  -21.6090  -26.3690   19.7960 C   0  0  0  0  0  2  0  0  0  0  0  0
  -20.1610  -26.2920   20.2880 C   0  0  0  0  0  2  0  0  0  0  0  0
  -20.9780  -27.6130   22.3280 C   0  0  0  0  0  0  0  0  0  0  0  0
  -20.6950  -28.4840   23.4000 C   0  0  0  0  0  3  0  0  0  0  0  0
  -19.3800  -28.9410   23.6320 C   0  0  0  0  0  3  0  0  0  0  0  0
  -18.3330  -28.5120   22.8020 C   0  0  0  0  0  3  0  0  0  0  0  0
  -18.6000  -27.6350   21.7330 C   0  0  0  0  0  3  0  0  0  0  0  0
  -27.8860  -30.0370   24.9470 C   0  0  0  0  0  3  0  0  0  0  0  0
  -27.6160  -31.0450   25.9800 N   0  0  0  0  0  0  0  0  0  0  0  0
  -28.0660  -32.3060   25.9450 C   0  0  0  0  0  0  0  0  0  0  0  0
  -28.8250  -32.7190   25.0630 O   0  0  0  0  0  0  0  0  0  0  0  0
  -26.9630  -30.7860   26.7040 H   0  0  0  0  0  0  0  0  0  0  0  0
  -26.4780  -34.1590   26.5320 C   0  0  0  0  0  1  0  0  0  0  0  0
  -27.6030  -33.2580   27.0630 C   0  0  0  0  0  3  0  0  0  0  0  0
  -29.6740  -33.3220   28.3830 C   0  0  0  0  0  1  0  0  0  0  0  0
  -28.6950  -34.0900   27.6160 N   0  0  0  0  0  0  0  0  0  0  0  0
  -28.3260  -34.8230   28.2160 H   0  0  0  0  0  0  0  0  0  0  0  0
  -28.3310  -28.6730   25.6060 C   0  0  1  0  0  0  0  0  0  0  0  0
  -27.1910  -27.9510   26.3660 C   0  0  0  0  0  1  0  0  0  0  0  0
  -28.8700  -27.6990   24.5320 C   0  0  0  0  0  1  0  0  0  0  0  0
  -29.4960  -28.9260   26.5950 C   0  0  0  0  0  1  0  0  0  0  0  0
  1  4  1  0
  2  5  1  0
  2  1  2  0
  4  3  2  0
  5  6  2  0
  6  7  1  0
  6  3  1  0
  8  4  1  0
  8  9  1  0
  9 50  1  0
 10 19  1  0
 10  8  1  0
 10  9  1  0
 11 17  1  0
 11 19  1  0
 12 17  1  0
 13 14  1  0
 13 12  1  0
 15 14  1  0
 15 24  1  0
 15 16  1  0
 17 16  1  0
 18 11  2  0
 20 19  1  0
 21 46  1  0
 21 22  2  0
 22 41  1  0
 23 26  1  0
 23 22  1  0
 24 25  1  0
 24 21  1  0
 25 23  2  0
 26 27  1  0
 27 28  2  0
 29 28  1  0
 30 29  2  0
 31 30  1  0
 31 26  2  0
 32 29  1  0
 32 33  1  0
 33 38  2  0
 33 34  1  0
 34 35  2  0
 35 36  1  0
 36 40  1  0
 37 36  2  0
 38 37  1  0
 39 38  1  0
 41 42  1  0
 42 44  1  0
 42 45  1  0
 43 41  2  0
 46 47  1  0
 48 46  1  0
 50 49  1  0
 51 52  1  0
 51  5  1  0
 53 52  1  0
 53 54  1  0
 54 56  1  0
 55 66  2  0
 56 61  1  0
 57 67  1  0
 57 65  1  0
 58 64  1  0
 58 60  1  0
 59 65  1  0
 60 59  1  0
 61 60  2  0
 62 63  1  0
 62 56  2  0
 63 58  2  0
 64 57  1  0
 65 55  1  0
 67 69  2  0
 68 67  1  0
 70 68  1  0
 71 80  2  0
 71 76  1  0
 72 68  1  0
 72 76  1  0
 73 72  1  0
 74 75  1  0
 74 73  1  0
 75 71  1  0
 76 77  2  0
 77 78  1  0
 79 78  2  0
 80 79  1  0
 81 55  1  0
 81 91  1  0
 81 82  1  0
 82 85  1  0
 83 82  1  0
 83 87  1  0
 84 83  2  0
 87 86  1  0
 87 89  1  0
 89 90  1  0
 89 88  1  0
 91 92  1  1
 91 94  1  0
 93 91  1  0
M  ISO  4  11 100  19 100  53 101  54 101
M  END
>  <TORSDO>  (16) 
F 21

>  <SCORE>  (16) 
-2.074

>  <name>  (16) 
15

>  <ligand_id>  (16) 
15

>  <original_smiles>  (16) 
[H]c1c([H])c([H])c2c(c1[H])C([H])([H])C([H])([H])C([H])([H])C2([H])N([H])C(=O)C1([H])N(C(=O)C([H])(N([H])C(=O)C([H])(N([H])C([H])([H])[H])C([H])([H])[H])C(C([H])([H])[H])(C([H])([H])[H])C([H])([H])[H])C([H])([H])c2c([H])c(OC([H])([H])C([H])([H])C([H])([H])c3c([H])c([H])c(C4([H])C([H])(N([H])C(=O)N5C([H])([H])C([H])([H])C([H])([H])C([H])(n6nc(-c7c([H])c([H])c(Oc8c([H])c([H])c(F)c([H])c8F)c([H])c7[H])c(C(=O)N([H])[H])c6N([H])[H])C5([H])[H])C4([H])C([H])([H])C([H])([H])[H])c([H])c3C([H])([H])[H])c([H])c([H])c2C1([H])[H]

>  <smiles>  (16) 
[H]c1c([H])c([H])c2c(c1[H])C([H])([H])C([H])([H])C([H])([H])C2([H])N([H])C(=O)C1([H])N(C(=O)C([H])(N([H])C(=O)C([H])(N([H])C([H])([H])[H])C([H])([H])[H])C(C([H])([H])[H])(C([H])([H])[H])C([H])([H])[H])C([H])([H])c2c([H])c(OC([H])([H])C([H])([H])C([H])([H])c3c([H])c([H])c(C4([H])C([H])(N([H])C(=O)N5C([H])([H])C([H])([H])C([H])([H])C([H])(n6nc(-c7c([H])c([H])c(Oc8c([H])c([H])c(F)c([H])c8F)c([H])c7[H])c(C(=O)N([H])[H])c6N([H])[H])C5([H])[H])C4([H])C([H])([H])C([H])([H])[H])c([H])c3C([H])([H])[H])c([H])c([H])c2C1([H])[H]

$$$$
16:0:0
     RDKit          3D

 89 96  0  0  1  0  0  0  0  0999 V2000
  -29.0120  -22.4660   19.8200 C   0  0  0  0  0  3  0  0  0  0  0  0
  -31.3350  -22.6740   18.6590 C   0  0  0  0  0  1  0  0  0  0  0  0
  -29.8160  -22.4970   18.4960 C   0  0  0  0  0  2  0  0  0  0  0  0
  -29.0020  -23.9140   20.4760 C   0  0  0  0  0  0  0  0  0  0  0  0
  -29.7190  -24.1650   21.4500 O   0  0  0  0  0  0  0  0  0  0  0  0
  -28.0520  -25.0190   19.8690 C   0  0  0  0  0  2  0  0  0  0  0  0
  -28.2900  -26.4410   20.2270 O   0  0  0  0  0  0  0  0  0  0  0  0
  -24.6030  -31.8700   23.2340 C   0  0  0  0  0  0  0  0  0  0  0  0
  -27.1850  -27.3100   20.1560 C   0  0  0  0  0  0  0  0  0  0  0  0
  -23.3880  -30.4790   21.5960 C   0  0  0  0  0  3  0  0  0  0  0  0
  -24.8280  -28.9350   20.1570 C   0  0  0  0  0  0  0  0  0  0  0  0
  -25.9290  -30.7890   21.4070 C   0  0  0  0  0  2  0  0  0  0  0  0
  -26.0010  -29.4130   20.7550 C   0  0  0  0  0  0  0  0  0  0  0  0
  -27.1820  -28.6100   20.7500 C   0  0  0  0  0  3  0  0  0  0  0  0
  -25.9900  -26.8980   19.5160 C   0  0  0  0  0  3  0  0  0  0  0  0
  -24.8250  -27.6830   19.5300 C   0  0  0  0  0  3  0  0  0  0  0  0
  -23.5950  -29.8110   20.2130 C   0  0  0  0  0  2  0  0  0  0  0  0
  -24.6590  -31.0630   22.1350 N   0  0  0  0  0  0  0  0  0  0  0  0
  -23.5220  -32.1500   23.7730 O   0  0  0  0  0  0  0  0  0  0  0  0
  -22.7280  -29.4590   22.5550 C   0  0  0  0  0  0  0  0  0  0  0  0
  -21.4010  -29.2850   22.4310 N   0  0  0  0  0  0  0  0  0  0  0  0
  -23.4070  -28.8290   23.3690 O   0  0  0  0  0  0  0  0  0  0  0  0
  -20.9130  -29.8450   21.7450 H   0  0  0  0  0  0  0  0  0  0  0  0
  -18.0210  -28.1010   22.9380 C   0  0  0  0  0  0  0  0  0  0  0  0
  -20.5810  -28.3510   23.2030 C   0  0  0  0  0  3  0  0  0  0  0  0
  -20.6760  -26.9190   22.6270 C   0  0  0  0  0  2  0  0  0  0  0  0
  -19.5710  -26.6000   21.6150 C   0  0  0  0  0  2  0  0  0  0  0  0
  -18.1910  -26.7500   22.2620 C   0  0  0  0  0  2  0  0  0  0  0  0
  -19.1430  -28.8590   23.3650 C   0  0  0  0  0  0  0  0  0  0  0  0
  -18.9290  -30.1220   23.9570 C   0  0  0  0  0  3  0  0  0  0  0  0
  -17.6270  -30.6290   24.1260 C   0  0  0  0  0  3  0  0  0  0  0  0
  -16.5190  -29.8670   23.7140 C   0  0  0  0  0  3  0  0  0  0  0  0
  -16.7170  -28.6060   23.1260 C   0  0  0  0  0  3  0  0  0  0  0  0
  -25.8890  -32.4970   23.8520 C   0  0  0  0  0  3  0  0  0  0  0  0
  -25.5840  -33.8950   24.1870 N   0  0  0  0  0  0  0  0  0  0  0  0
  -25.9130  -34.9490   23.4280 C   0  0  0  0  0  0  0  0  0  0  0  0
  -26.5750  -34.8460   22.3910 O   0  0  0  0  0  0  0  0  0  0  0  0
  -24.9950  -34.0490   24.9920 H   0  0  0  0  0  0  0  0  0  0  0  0
  -24.1830  -36.7450   23.0930 C   0  0  0  0  0  1  0  0  0  0  0  0
  -25.4310  -36.3380   23.8920 C   0  0  0  0  0  3  0  0  0  0  0  0
  -27.5760  -37.2170   24.7000 C   0  0  0  0  0  1  0  0  0  0  0  0
  -26.4640  -37.3890   23.7700 N   0  0  0  0  0  0  0  0  0  0  0  0
  -26.0600  -38.3100   23.9250 H   0  0  0  0  0  0  0  0  0  0  0  0
  -26.4070  -31.7210   25.1250 C   0  0  1  0  0  0  0  0  0  0  0  0
  -25.3170  -31.4870   26.1960 C   0  0  0  0  0  1  0  0  0  0  0  0
  -26.9830  -30.3410   24.7300 C   0  0  0  0  0  1  0  0  0  0  0  0
  -27.5640  -32.5100   25.7840 C   0  0  0  0  0  1  0  0  0  0  0  0
  -29.4000  -21.1970   20.7240 C   0  0  0  0  0  3  0  0  0  0  0  0
  -29.5520  -19.7730   20.0080 C   0  0  0  0  0  3  0  0  0  0  0  0
  -29.6150  -18.4200   20.8540 C   0  0  0  0  0  3  0  0  0  0  0  0
  -30.1380  -17.1320   20.0750 C   0  0  0  0  0  3  0  0  0  0  0  0
  -30.6220  -14.6300   20.3600 C   0  0  0  0  0  0  0  0  0  0  0  0
  -30.3540  -12.3970   19.3160 C   0  0  0  0  0  2  0  0  0  0  0  0
  -29.4180  -12.5410   18.0970 C   0  0  0  0  0  2  0  0  0  0  0  0
  -27.9460  -12.3980   18.5260 C   0  0  0  0  0  2  0  0  0  0  0  0
  -27.5960  -13.2640   19.7650 C   0  0  0  0  0  3  0  0  0  0  0  0
  -28.6530  -13.1200   20.8830 C   0  0  0  0  0  2  0  0  0  0  0  0
  -29.9650  -13.4290   20.3010 N   0  0  0  0  0  0  0  0  0  0  0  0
  -31.7840  -14.7380   19.9610 O   0  0  0  0  0  0  0  0  0  0  0  0
  -29.8770  -15.7510   20.6260 N   0  0  0  0  0  0  0  0  0  0  0  0
  -28.9420  -15.5760   20.9660 H   0  0  0  0  0  0  0  0  0  0  0  0
  -25.2050  -13.8760   20.4800 C   0  0  0  0  0  0  0  0  0  0  0  0
  -24.1350  -13.1080   20.8540 C   0  0  0  0  0  0  0  0  0  0  0  0
  -24.5920  -11.7560   20.8330 C   0  0  0  0  0  0  0  0  0  0  0  0
  -26.2460  -12.9900   20.2520 N   0  0  0  0  0  0  0  0  0  0  0  0
  -25.8820  -11.7100   20.5250 N   0  0  0  0  0  0  0  0  0  0  0  0
  -23.8600  -10.4970   21.0320 C   0  0  0  0  0  0  0  0  0  0  0  0
  -24.2970   -9.5260   21.9590 C   0  0  0  0  0  3  0  0  0  0  0  0
  -23.5660   -8.3340   22.1470 C   0  0  0  0  0  3  0  0  0  0  0  0
  -22.3830   -8.1030   21.4050 C   0  0  0  0  0  0  0  0  0  0  0  0
  -21.9650   -9.0620   20.4660 C   0  0  0  0  0  3  0  0  0  0  0  0
  -22.6960  -10.2470   20.2770 C   0  0  0  0  0  3  0  0  0  0  0  0
  -21.6230   -6.9620   21.5010 O   0  0  0  0  0  0  0  0  0  0  0  0
  -21.5940   -6.2110   22.6480 C   0  0  0  0  0  0  0  0  0  0  0  0
  -21.2100   -6.7620   23.8900 C   0  0  0  0  0  3  0  0  0  0  0  0
  -21.1270   -5.9370   25.0300 C   0  0  0  0  0  3  0  0  0  0  0  0
  -21.4170   -4.5640   24.9290 C   0  0  0  0  0  0  0  0  0  0  0  0
  -21.7950   -4.0130   23.6920 C   0  0  0  0  0  3  0  0  0  0  0  0
  -21.8810   -4.8340   22.5550 C   0  0  0  0  0  0  0  0  0  0  0  0
  -22.2240   -4.2940   21.3600 F   0  0  0  0  0  0  0  0  0  0  0  0
  -21.3310   -3.7690   26.0220 F   0  0  0  0  0  0  0  0  0  0  0  0
  -22.7390  -13.5940   21.1200 C   0  0  0  0  0  0  0  0  0  0  0  0
  -22.0080  -12.9080   21.9920 N   0  0  0  0  0  0  0  0  0  0  0  0
  -22.3050  -14.6160   20.5910 O   0  0  0  0  0  0  0  0  0  0  0  0
  -22.3730  -12.0830   22.4450 H   0  0  0  0  0  0  0  0  0  0  0  0
  -21.0720  -13.2140   22.2110 H   0  0  0  0  0  0  0  0  0  0  0  0
  -25.3740  -15.2440   20.2910 N   0  0  0  0  0  0  0  0  0  0  0  0
  -24.6070  -15.9000   20.3930 H   0  0  0  0  0  0  0  0  0  0  0  0
  -26.2190  -15.6770   19.9400 H   0  0  0  0  0  0  0  0  0  0  0  0
  1  3  1  0
  1  4  1  0
  1 48  1  0
  3  2  1  0
  4  5  2  0
  6  7  1  0
  6  4  1  0
  8 19  2  0
  9  7  1  0
  9 14  1  0
 10 18  1  0
 10 20  1  0
 11 17  1  0
 11 13  1  0
 12 18  1  0
 13 12  1  0
 14 13  2  0
 15 16  1  0
 15  9  2  0
 16 11  2  0
 17 10  1  0
 18  8  1  0
 20 22  2  0
 21 20  1  0
 23 21  1  0
 24 33  2  0
 24 29  1  0
 25 21  1  0
 25 29  1  0
 26 25  1  0
 27 28  1  0
 27 26  1  0
 28 24  1  0
 29 30  2  0
 30 31  1  0
 32 31  2  0
 33 32  1  0
 34  8  1  0
 34 35  1  0
 34 44  1  0
 35 38  1  0
 36 40  1  0
 36 35  1  0
 37 36  2  0
 40 39  1  0
 42 40  1  0
 42 43  1  0
 42 41  1  0
 44 47  1  1
 44 45  1  0
 46 44  1  0
 49 48  2  0
 49 50  1  0
 51 60  1  0
 51 50  2  0
 52 60  1  0
 53 58  1  0
 54 55  1  0
 54 53  1  0
 56 55  1  0
 56 65  1  0
 56 57  1  0
 58 52  1  0
 58 57  1  0
 59 52  2  0
 60 61  1  0
 62 63  2  0
 63 82  1  0
 64 63  1  0
 64 67  1  0
 65 62  1  0
 65 66  1  0
 66 64  2  0
 67 68  1  0
 68 69  2  0
 70 73  1  0
 70 69  1  0
 71 70  2  0
 72 71  1  0
 72 67  2  0
 73 74  1  0
 74 75  1  0
 75 76  2  0
 77 76  1  0
 77 81  1  0
 78 77  2  0
 79 74  2  0
 79 78  1  0
 80 79  1  0
 82 83  1  0
 83 86  1  0
 83 85  1  0
 84 82  2  0
 87 88  1  0
 87 62  1  0
 89 87  1  0
M  ISO  4   6 101   7 101  52 100  60 100
M  END
>  <TORSDO>  (17) 
F 23

>  <SCORE>  (17) 
-12.595

>  <name>  (17) 
16

>  <ligand_id>  (17) 
16

>  <original_smiles>  (17) 
[H]c1c([H])c([H])c2c(c1[H])C([H])([H])C([H])([H])C([H])([H])C2([H])N([H])C(=O)C1([H])N(C(=O)C([H])(N([H])C(=O)C([H])(N([H])C([H])([H])[H])C([H])([H])[H])C(C([H])([H])[H])(C([H])([H])[H])C([H])([H])[H])C([H])([H])c2c([H])c(OC([H])([H])C(=O)C([H])(C([H])([H])C([H])([H])[H])C([H])([H])C([H])([H])C([H])([H])C([H])([H])N([H])C(=O)N3C([H])([H])C([H])([H])C([H])([H])C([H])(n4nc(-c5c([H])c([H])c(Oc6c([H])c([H])c(F)c([H])c6F)c([H])c5[H])c(C(=O)N([H])[H])c4N([H])[H])C3([H])[H])c([H])c([H])c2C1([H])[H]

>  <smiles>  (17) 
[H]c1c([H])c([H])c2c(c1[H])C([H])([H])C([H])([H])C([H])([H])C2([H])N([H])C(=O)C1([H])N(C(=O)C([H])(N([H])C(=O)C([H])(N([H])C([H])([H])[H])C([H])([H])[H])C(C([H])([H])[H])(C([H])([H])[H])C([H])([H])[H])C([H])([H])c2c([H])c(OC([H])([H])C(=O)C([H])(C([H])([H])C([H])([H])[H])C([H])([H])C([H])([H])C([H])([H])C([H])([H])N([H])C(=O)N3C([H])([H])C([H])([H])C([H])([H])C([H])(n4nc(-c5c([H])c([H])c(Oc6c([H])c([H])c(F)c([H])c6F)c([H])c5[H])c(C(=O)N([H])[H])c4N([H])[H])C3([H])[H])c([H])c([H])c2C1([H])[H]

$$$$
17:0:0
     RDKit          3D

 89 98  0  0  1  0  0  0  0  0999 V2000
  -27.3050  -21.0410   20.2050 C   0  0  0  0  0  2  0  0  0  0  0  0
  -27.2800  -18.8470   18.7300 C   0  0  0  0  0  2  0  0  0  0  0  0
  -28.7800  -21.3150   20.5520 C   0  0  0  0  0  3  0  0  0  0  0  0
  -27.3080  -20.3450   18.8600 C   0  0  0  0  0  3  0  0  0  0  0  0
  -28.6010  -19.5790   18.6840 C   0  0  0  0  0  3  0  0  0  0  0  0
  -29.4990  -19.8130   19.8890 C   0  0  0  0  0  3  0  0  0  0  0  0
  -29.0480  -23.0110   20.2130 C   0  0  0  0  0  0  0  0  0  0  0  0
  -30.1590  -23.2740   19.7430 O   0  0  0  0  0  0  0  0  0  0  0  0
  -27.9940  -24.3790   20.4500 C   0  0  0  0  0  2  0  0  0  0  0  0
  -28.3100  -25.9850   20.3710 O   0  0  0  0  0  0  0  0  0  0  0  0
  -24.6280  -31.9150   23.2470 C   0  0  0  0  0  0  0  0  0  0  0  0
  -27.2800  -27.0560   20.3190 C   0  0  0  0  0  0  0  0  0  0  0  0
  -23.4690  -30.4860   21.6120 C   0  0  0  0  0  3  0  0  0  0  0  0
  -24.9540  -28.8860   20.2300 C   0  0  0  0  0  0  0  0  0  0  0  0
  -26.0340  -30.7350   21.4890 C   0  0  0  0  0  2  0  0  0  0  0  0
  -26.1300  -29.3210   20.8530 C   0  0  0  0  0  0  0  0  0  0  0  0
  -27.2910  -28.4270   20.8700 C   0  0  0  0  0  3  0  0  0  0  0  0
  -26.0700  -26.7650   19.6510 C   0  0  0  0  0  3  0  0  0  0  0  0
  -24.9470  -27.6270   19.6090 C   0  0  0  0  0  3  0  0  0  0  0  0
  -23.7230  -29.7890   20.2480 C   0  0  0  0  0  2  0  0  0  0  0  0
  -24.7320  -31.0720   22.1700 N   0  0  0  0  0  0  0  0  0  0  0  0
  -23.5300  -32.1950   23.7540 O   0  0  0  0  0  0  0  0  0  0  0  0
  -22.7790  -29.4910   22.5820 C   0  0  0  0  0  0  0  0  0  0  0  0
  -21.4520  -29.3090   22.4440 N   0  0  0  0  0  0  0  0  0  0  0  0
  -23.4420  -28.8830   23.4250 O   0  0  0  0  0  0  0  0  0  0  0  0
  -20.9690  -29.8500   21.7400 H   0  0  0  0  0  0  0  0  0  0  0  0
  -18.0740  -28.0850   22.9490 C   0  0  0  0  0  0  0  0  0  0  0  0
  -20.6320  -28.3710   23.2170 C   0  0  0  0  0  3  0  0  0  0  0  0
  -20.7440  -26.9360   22.6500 C   0  0  0  0  0  2  0  0  0  0  0  0
  -19.6470  -26.6010   21.6360 C   0  0  0  0  0  2  0  0  0  0  0  0
  -18.2620  -26.7370   22.2760 C   0  0  0  0  0  2  0  0  0  0  0  0
  -19.1870  -28.8590   23.3770 C   0  0  0  0  0  0  0  0  0  0  0  0
  -18.9550  -30.1190   23.9700 C   0  0  0  0  0  3  0  0  0  0  0  0
  -17.6450  -30.6070   24.1380 C   0  0  0  0  0  3  0  0  0  0  0  0
  -16.5470  -29.8320   23.7230 C   0  0  0  0  0  3  0  0  0  0  0  0
  -16.7620  -28.5720   23.1350 C   0  0  0  0  0  3  0  0  0  0  0  0
  -25.8840  -32.5790   23.8860 C   0  0  0  0  0  3  0  0  0  0  0  0
  -26.3770  -31.8420   25.1940 C   0  0  1  0  0  0  0  0  0  0  0  0
  -25.2590  -31.6200   26.2390 C   0  0  0  0  0  1  0  0  0  0  0  0
  -26.9820  -30.4600   24.8560 C   0  0  0  0  0  1  0  0  0  0  0  0
  -27.5030  -32.6630   25.8660 C   0  0  0  0  0  1  0  0  0  0  0  0
  -25.5510  -33.9810   24.1900 N   0  0  0  0  0  0  0  0  0  0  0  0
  -25.8950  -35.0340   23.4350 C   0  0  0  0  0  0  0  0  0  0  0  0
  -26.5910  -34.9260   22.4230 O   0  0  0  0  0  0  0  0  0  0  0  0
  -24.9350  -34.1380   24.9750 H   0  0  0  0  0  0  0  0  0  0  0  0
  -24.1840  -36.8330   23.0120 C   0  0  0  0  0  1  0  0  0  0  0  0
  -25.3920  -36.4260   23.8710 C   0  0  0  0  0  3  0  0  0  0  0  0
  -27.4860  -37.3210   24.7930 C   0  0  0  0  0  1  0  0  0  0  0  0
  -26.4290  -37.4790   23.7980 N   0  0  0  0  0  0  0  0  0  0  0  0
  -26.0150  -38.4000   23.9160 H   0  0  0  0  0  0  0  0  0  0  0  0
  -29.9820  -18.2070   20.5520 C   0  0  0  0  0  2  0  0  0  0  0  0
  -30.6110  -15.3280   20.2230 C   0  0  0  0  0  0  0  0  0  0  0  0
  -30.5660  -12.9170   19.2900 C   0  0  0  0  0  2  0  0  0  0  0  0
  -29.6260  -12.7640   18.0690 C   0  0  0  0  0  2  0  0  0  0  0  0
  -28.1820  -12.4890   18.5280 C   0  0  0  0  0  2  0  0  0  0  0  0
  -27.7490  -13.4330   19.6780 C   0  0  0  0  0  3  0  0  0  0  0  0
  -28.8160  -13.5320   20.7890 C   0  0  0  0  0  2  0  0  0  0  0  0
  -30.0420  -14.0340   20.1470 N   0  0  0  0  0  0  0  0  0  0  0  0
  -31.8330  -15.3500   20.0260 O   0  0  0  0  0  0  0  0  0  0  0  0
  -29.8200  -16.5660   20.3220 N   0  0  0  0  0  0  0  0  0  0  0  0
  -28.8440  -16.3120   20.3500 H   0  0  0  0  0  0  0  0  0  0  0  0
  -25.3800  -13.9810   20.4530 C   0  0  0  0  0  0  0  0  0  0  0  0
  -24.3260  -13.1970   20.8310 C   0  0  0  0  0  0  0  0  0  0  0  0
  -24.8020  -11.8500   20.7970 C   0  0  0  0  0  0  0  0  0  0  0  0
  -26.4270  -13.1110   20.2000 N   0  0  0  0  0  0  0  0  0  0  0  0
  -26.0930  -11.8240   20.4760 N   0  0  0  0  0  0  0  0  0  0  0  0
  -24.0870  -10.5820   20.9890 C   0  0  0  0  0  0  0  0  0  0  0  0
  -24.5200   -9.6230   21.9320 C   0  0  0  0  0  3  0  0  0  0  0  0
  -23.8010   -8.4230   22.1140 C   0  0  0  0  0  3  0  0  0  0  0  0
  -22.6350   -8.1700   21.3520 C   0  0  0  0  0  0  0  0  0  0  0  0
  -22.2220   -9.1160   20.3980 C   0  0  0  0  0  3  0  0  0  0  0  0
  -22.9410  -10.3090   20.2140 C   0  0  0  0  0  3  0  0  0  0  0  0
  -21.8890   -7.0210   21.4430 O   0  0  0  0  0  0  0  0  0  0  0  0
  -21.8200   -6.2970   22.6050 C   0  0  0  0  0  0  0  0  0  0  0  0
  -21.3280   -6.8590   23.8040 C   0  0  0  0  0  3  0  0  0  0  0  0
  -21.2090   -6.0610   24.9590 C   0  0  0  0  0  3  0  0  0  0  0  0
  -21.5710   -4.7010   24.9160 C   0  0  0  0  0  0  0  0  0  0  0  0
  -22.0570   -4.1380   23.7230 C   0  0  0  0  0  3  0  0  0  0  0  0
  -22.1770   -4.9340   22.5700 C   0  0  0  0  0  0  0  0  0  0  0  0
  -22.6240   -4.3810   21.4170 F   0  0  0  0  0  0  0  0  0  0  0  0
  -21.4500   -3.9310   26.0230 F   0  0  0  0  0  0  0  0  0  0  0  0
  -22.9270  -13.6640   21.1040 C   0  0  0  0  0  0  0  0  0  0  0  0
  -22.2050  -12.9640   21.9710 N   0  0  0  0  0  0  0  0  0  0  0  0
  -22.4820  -14.6860   20.5830 O   0  0  0  0  0  0  0  0  0  0  0  0
  -22.5810  -12.1380   22.4160 H   0  0  0  0  0  0  0  0  0  0  0  0
  -21.2660  -13.2600   22.1980 H   0  0  0  0  0  0  0  0  0  0  0  0
  -25.5290  -15.3530   20.2720 N   0  0  0  0  0  0  0  0  0  0  0  0
  -24.7500  -15.9950   20.3730 H   0  0  0  0  0  0  0  0  0  0  0  0
  -26.3480  -15.7890   19.8710 H   0  0  0  0  0  0  0  0  0  0  0  0
  1  3  1  0
  3  7  1  0
  4  2  1  0
  4  1  1  0
  5  2  1  0
  5  4  1  0
  5  6  1  0
  6  3  1  0
  6 51  1  0
  7  9  1  0
  8  7  2  0
 10  9  1  0
 11 22  2  0
 12 10  1  0
 12 17  1  0
 13 21  1  0
 13 23  1  0
 14 20  1  0
 14 16  1  0
 15 21  1  0
 16 17  2  0
 16 15  1  0
 18 12  2  0
 19 18  1  0
 19 14  2  0
 20 13  1  0
 21 11  1  0
 23 25  2  0
 24 23  1  0
 26 24  1  0
 27 36  2  0
 27 32  1  0
 28 24  1  0
 28 32  1  0
 29 28  1  0
 30 31  1  0
 30 29  1  0
 31 27  1  0
 32 33  2  0
 33 34  1  0
 35 34  2  0
 36 35  1  0
 37 11  1  0
 37 42  1  0
 37 38  1  0
 38 41  1  1
 38 39  1  0
 40 38  1  0
 42 45  1  0
 43 47  1  0
 43 42  1  0
 44 43  2  0
 47 46  1  0
 49 47  1  0
 49 50  1  0
 49 48  1  0
 52 60  1  0
 53 58  1  0
 54 55  1  0
 54 53  1  0
 56 55  1  0
 56 65  1  0
 56 57  1  0
 58 52  1  0
 58 57  1  0
 59 52  2  0
 60 61  1  0
 60 51  1  0
 62 63  2  0
 63 82  1  0
 64 63  1  0
 64 67  1  0
 65 62  1  0
 65 66  1  0
 66 64  2  0
 67 68  1  0
 68 69  2  0
 70 73  1  0
 70 69  1  0
 71 70  2  0
 72 71  1  0
 72 67  2  0
 73 74  1  0
 74 75  1  0
 75 76  2  0
 77 76  1  0
 77 81  1  0
 78 77  2  0
 79 74  2  0
 79 78  1  0
 80 79  1  0
 82 83  1  0
 83 86  1  0
 83 85  1  0
 84 82  2  0
 87 88  1  0
 87 62  1  0
 89 87  1  0
M  ISO  4   9 101  10 101  52 100  60 100
M  END
>  <TORSDO>  (18) 
F 19

>  <SCORE>  (18) 
-15.563

>  <name>  (18) 
17

>  <ligand_id>  (18) 
17

>  <original_smiles>  (18) 
[H]c1c([H])c([H])c2c(c1[H])C([H])([H])C([H])([H])C([H])([H])C2([H])N([H])C(=O)C1([H])N(C(=O)C([H])(N([H])C(=O)C([H])(N([H])C([H])([H])[H])C([H])([H])[H])C(C([H])([H])[H])(C([H])([H])[H])C([H])([H])[H])C([H])([H])c2c([H])c(OC([H])([H])C(=O)C3([H])C([H])([H])C4([H])C([H])([H])C4([H])C3([H])C([H])([H])N([H])C(=O)N3C([H])([H])C([H])([H])C([H])([H])C([H])(n4nc(-c5c([H])c([H])c(Oc6c([H])c([H])c(F)c([H])c6F)c([H])c5[H])c(C(=O)N([H])[H])c4N([H])[H])C3([H])[H])c([H])c([H])c2C1([H])[H]

>  <smiles>  (18) 
[H]c1c([H])c([H])c2c(c1[H])C([H])([H])C([H])([H])C([H])([H])C2([H])N([H])C(=O)C1([H])N(C(=O)C([H])(N([H])C(=O)C([H])(N([H])C([H])([H])[H])C([H])([H])[H])C(C([H])([H])[H])(C([H])([H])[H])C([H])([H])[H])C([H])([H])c2c([H])c(OC([H])([H])C(=O)C3([H])C([H])([H])C4([H])C([H])([H])C4([H])C3([H])C([H])([H])N([H])C(=O)N3C([H])([H])C([H])([H])C([H])([H])C([H])(n4nc(-c5c([H])c([H])c(Oc6c([H])c([H])c(F)c([H])c6F)c([H])c5[H])c(C(=O)N([H])[H])c4N([H])[H])C3([H])[H])c([H])c([H])c2C1([H])[H]

$$$$
18:0:0
     RDKit          3D

 96106  0  0  1  0  0  0  0  0999 V2000
  -25.8150  -21.0210   18.0090 C   0  0  0  0  0  2  0  0  0  0  0  0
  -25.7030  -23.3690   19.4180 C   0  0  0  0  0  2  0  0  0  0  0  0
  -27.6150  -22.3450   20.5790 C   0  0  0  0  0  2  0  0  0  0  0  0
  -27.2630  -20.7770   18.4740 C   0  0  0  0  0  3  0  0  0  0  0  0
  -25.5570  -21.8540   19.2790 C   0  0  0  0  0  3  0  0  0  0  0  0
  -26.8210  -21.2600   19.8650 C   0  0  0  0  0  3  0  0  0  0  0  0
  -26.6760  -23.5540   20.6130 C   0  0  0  0  0  3  0  0  0  0  0  0
  -28.4020  -17.2330   17.4470 C   0  0  0  0  0  3  0  0  0  0  0  0
  -27.7720  -18.4940   17.3990 C   0  0  0  0  0  3  0  0  0  0  0  0
  -29.2020  -16.8830   18.5520 C   0  0  0  0  0  3  0  0  0  0  0  0
  -28.7940  -19.0710   19.5370 C   0  0  0  0  0  3  0  0  0  0  0  0
  -27.9620  -19.4190   18.4480 C   0  0  0  0  0  0  0  0  0  0  0  0
  -29.3910  -17.7950   19.6140 C   0  0  0  0  0  0  0  0  0  0  0  0
  -30.2080  -17.4140   20.8450 C   0  0  0  0  0  2  0  0  0  0  0  0
  -30.8100  -15.0170   21.2100 C   0  0  0  0  0  0  0  0  0  0  0  0
  -30.7320  -12.7970   20.1850 C   0  0  0  0  0  2  0  0  0  0  0  0
  -29.9350  -12.9180   18.8690 C   0  0  0  0  0  2  0  0  0  0  0  0
  -28.4180  -12.7880   19.1180 C   0  0  0  0  0  2  0  0  0  0  0  0
  -27.9070  -13.6550   20.3020 C   0  0  0  0  0  3  0  0  0  0  0  0
  -28.8300  -13.5040   21.5360 C   0  0  0  0  0  2  0  0  0  0  0  0
  -30.2060  -13.8060   21.1090 N   0  0  0  0  0  0  0  0  0  0  0  0
  -32.0070  -15.1990   20.9830 O   0  0  0  0  0  0  0  0  0  0  0  0
  -29.9500  -16.0430   21.2940 N   0  0  0  0  0  0  0  0  0  0  0  0
  -28.9810  -15.8010   21.4170 H   0  0  0  0  0  0  0  0  0  0  0  0
  -25.4350  -14.2200   20.7440 C   0  0  0  0  0  0  0  0  0  0  0  0
  -24.3510  -13.4300   20.9900 C   0  0  0  0  0  0  0  0  0  0  0  0
  -24.8340  -12.0830   20.9890 C   0  0  0  0  0  0  0  0  0  0  0  0
  -26.5140  -13.3580   20.6200 N   0  0  0  0  0  0  0  0  0  0  0  0
  -26.1480  -12.0680   20.8200 N   0  0  0  0  0  0  0  0  0  0  0  0
  -24.1190  -10.8040   21.0730 C   0  0  0  0  0  0  0  0  0  0  0  0
  -24.4840   -9.8140   22.0130 C   0  0  0  0  0  3  0  0  0  0  0  0
  -23.7690   -8.5990   22.0860 C   0  0  0  0  0  3  0  0  0  0  0  0
  -22.6760   -8.3670   21.2190 C   0  0  0  0  0  0  0  0  0  0  0  0
  -22.3330   -9.3450   20.2690 C   0  0  0  0  0  3  0  0  0  0  0  0
  -23.0450  -10.5530   20.1940 C   0  0  0  0  0  3  0  0  0  0  0  0
  -21.9330   -7.2110   21.2070 O   0  0  0  0  0  0  0  0  0  0  0  0
  -21.7890   -6.4340   22.3290 C   0  0  0  0  0  0  0  0  0  0  0  0
  -21.2350   -6.9440   23.5240 C   0  0  0  0  0  3  0  0  0  0  0  0
  -21.0420   -6.0940   24.6310 C   0  0  0  0  0  3  0  0  0  0  0  0
  -21.3890   -4.7310   24.5420 C   0  0  0  0  0  0  0  0  0  0  0  0
  -21.9300   -4.2200   23.3490 C   0  0  0  0  0  3  0  0  0  0  0  0
  -22.1270   -5.0680   22.2470 C   0  0  0  0  0  0  0  0  0  0  0  0
  -22.6330   -4.5650   21.0950 F   0  0  0  0  0  0  0  0  0  0  0  0
  -21.1980   -3.9120   25.6020 F   0  0  0  0  0  0  0  0  0  0  0  0
  -22.9200  -13.8750   21.1080 C   0  0  0  0  0  0  0  0  0  0  0  0
  -22.1170  -13.1670   21.8910 N   0  0  0  0  0  0  0  0  0  0  0  0
  -22.5170  -14.8840   20.5240 O   0  0  0  0  0  0  0  0  0  0  0  0
  -22.4480  -12.3380   22.3660 H   0  0  0  0  0  0  0  0  0  0  0  0
  -21.1480  -13.4350   21.9950 H   0  0  0  0  0  0  0  0  0  0  0  0
  -25.5880  -15.5970   20.5830 N   0  0  0  0  0  0  0  0  0  0  0  0
  -24.7590  -16.1750   20.4820 H   0  0  0  0  0  0  0  0  0  0  0  0
  -26.3970  -16.0330   20.1580 H   0  0  0  0  0  0  0  0  0  0  0  0
  -26.4080  -25.7870   21.7940 C   0  0  0  0  0  1  0  0  0  0  0  0
  -27.3400  -24.9470   20.8970 C   0  0  0  0  0  3  0  0  0  0  0  0
  -27.9930  -25.6980   19.6770 C   0  0  0  0  0  2  0  0  0  0  0  0
  -28.2030  -27.1360   19.7820 O   0  0  0  0  0  0  0  0  0  0  0  0
  -24.7460  -32.1130   23.5260 C   0  0  0  0  0  0  0  0  0  0  0  0
  -27.0960  -27.9660   19.8350 C   0  0  0  0  0  0  0  0  0  0  0  0
  -23.4180  -30.9010   21.8330 C   0  0  0  0  0  3  0  0  0  0  0  0
  -24.7550  -29.5170   20.1630 C   0  0  0  0  0  0  0  0  0  0  0  0
  -25.9330  -31.2520   21.5130 C   0  0  0  0  0  2  0  0  0  0  0  0
  -25.9610  -29.9610   20.7170 C   0  0  0  0  0  0  0  0  0  0  0  0
  -27.1420  -29.1990   20.5420 C   0  0  0  0  0  3  0  0  0  0  0  0
  -25.8700  -27.5730   19.2530 C   0  0  0  0  0  3  0  0  0  0  0  0
  -24.7060  -28.3270   19.4300 C   0  0  0  0  0  3  0  0  0  0  0  0
  -23.5340  -30.3780   20.3800 C   0  0  0  0  0  2  0  0  0  0  0  0
  -24.7210  -31.4290   22.3510 N   0  0  0  0  0  0  0  0  0  0  0  0
  -23.7060  -32.3330   24.1630 O   0  0  0  0  0  0  0  0  0  0  0  0
  -22.8120  -29.7860   22.7240 C   0  0  0  0  0  0  0  0  0  0  0  0
  -21.4900  -29.5570   22.6030 N   0  0  0  0  0  0  0  0  0  0  0  0
  -23.5240  -29.1330   23.4900 O   0  0  0  0  0  0  0  0  0  0  0  0
  -20.9630  -30.1570   21.9830 H   0  0  0  0  0  0  0  0  0  0  0  0
  -18.2250  -28.0280   22.8690 C   0  0  0  0  0  0  0  0  0  0  0  0
  -20.7250  -28.5230   23.3130 C   0  0  0  0  0  3  0  0  0  0  0  0
  -20.9830  -27.1170   22.7270 C   0  0  0  0  0  2  0  0  0  0  0  0
  -19.9970  -26.7380   21.6090 C   0  0  0  0  0  2  0  0  0  0  0  0
  -18.5630  -26.7240   22.1550 C   0  0  0  0  0  2  0  0  0  0  0  0
  -19.2370  -28.8770   23.3920 C   0  0  0  0  0  0  0  0  0  0  0  0
  -18.8630  -30.0870   24.0120 C   0  0  0  0  0  3  0  0  0  0  0  0
  -17.5120  -30.4680   24.1020 C   0  0  0  0  0  3  0  0  0  0  0  0
  -16.5120  -29.6220   23.5900 C   0  0  0  0  0  3  0  0  0  0  0  0
  -16.8670  -28.4000   22.9870 C   0  0  0  0  0  3  0  0  0  0  0  0
  -26.0820  -32.6730   24.1120 C   0  0  0  0  0  3  0  0  0  0  0  0
  -26.6450  -31.8080   25.3080 C   0  0  1  0  0  0  0  0  0  0  0  0
  -25.6000  -31.5260   26.4110 C   0  0  0  0  0  1  0  0  0  0  0  0
  -27.1830  -30.4500   24.8020 C   0  0  0  0  0  1  0  0  0  0  0  0
  -27.8400  -32.5410   25.9630 C   0  0  0  0  0  1  0  0  0  0  0  0
  -25.8310  -34.0520   24.5420 N   0  0  0  0  0  0  0  0  0  0  0  0
  -26.1570  -35.1410   23.8330 C   0  0  0  0  0  0  0  0  0  0  0  0
  -26.7650  -35.0860   22.7610 O   0  0  0  0  0  0  0  0  0  0  0  0
  -25.2920  -34.1710   25.3850 H   0  0  0  0  0  0  0  0  0  0  0  0
  -24.4590  -36.9880   23.6760 C   0  0  0  0  0  1  0  0  0  0  0  0
  -25.7300  -36.5060   24.3980 C   0  0  0  0  0  3  0  0  0  0  0  0
  -27.9260  -37.2900   25.1630 C   0  0  0  0  0  1  0  0  0  0  0  0
  -26.7810  -37.5410   24.2930 N   0  0  0  0  0  0  0  0  0  0  0  0
  -26.4060  -38.4570   24.5200 H   0  0  0  0  0  0  0  0  0  0  0  0
  1  4  1  0
  2  7  1  0
  3  7  1  0
  4 12  1  0
  4  6  1  0
  5  1  1  0
  5  2  1  0
  5  6  1  0
  6  3  1  0
  7 54  1  0
  8 10  1  0
  9  8  2  0
  9 12  1  0
 10 13  2  0
 11 13  1  0
 12 11  2  0
 13 14  1  0
 14 23  1  0
 15 23  1  0
 16 21  1  0
 17 18  1  0
 17 16  1  0
 19 18  1  0
 19 28  1  0
 19 20  1  0
 21 15  1  0
 21 20  1  0
 22 15  2  0
 23 24  1  0
 25 26  2  0
 26 45  1  0
 27 26  1  0
 27 30  1  0
 28 25  1  0
 28 29  1  0
 29 27  2  0
 30 31  1  0
 31 32  2  0
 33 32  1  0
 34 33  2  0
 35 34  1  0
 35 30  2  0
 36 33  1  0
 36 37  1  0
 37 38  1  0
 38 39  2  0
 40 39  1  0
 40 44  1  0
 41 40  2  0
 42 37  2  0
 42 41  1  0
 43 42  1  0
 45 46  1  0
 46 49  1  0
 46 48  1  0
 47 45  2  0
 50 25  1  0
 51 50  1  0
 52 50  1  0
 54 53  1  0
 55 56  1  0
 55 54  1  0
 56 58  1  0
 57 68  2  0
 58 63  1  0
 59 67  1  0
 59 69  1  0
 60 66  1  0
 60 62  1  0
 61 67  1  0
 62 61  1  0
 63 62  2  0
 64 65  1  0
 64 58  2  0
 65 60  2  0
 66 59  1  0
 67 57  1  0
 69 71  2  0
 70 69  1  0
 72 70  1  0
 73 82  2  0
 73 78  1  0
 74 70  1  0
 74 78  1  0
 75 74  1  0
 76 77  1  0
 76 75  1  0
 77 73  1  0
 78 79  2  0
 79 80  1  0
 81 80  2  0
 82 81  1  0
 83 57  1  0
 83 88  1  0
 83 84  1  0
 84 87  1  1
 84 85  1  0
 86 84  1  0
 88 91  1  0
 89 93  1  0
 89 88  1  0
 90 89  2  0
 93 92  1  0
 95 93  1  0
 95 96  1  0
 95 94  1  0
M  ISO  4  15 100  23 100  55 101  56 101
M  END
>  <TORSDO>  (19) 
F 20

>  <SCORE>  (19) 
-11.348

>  <name>  (19) 
18

>  <ligand_id>  (19) 
18

>  <original_smiles>  (19) 
[H]c1c([H])c([H])c2c(c1[H])C([H])([H])C([H])([H])C([H])([H])C2([H])N([H])C(=O)C1([H])N(C(=O)C([H])(N([H])C(=O)C([H])(N([H])C([H])([H])[H])C([H])([H])[H])C(C([H])([H])[H])(C([H])([H])[H])C([H])([H])[H])C([H])([H])c2c([H])c(OC([H])([H])C([H])(C([H])([H])[H])C3([H])C([H])([H])C4([H])C([H])([H])C([H])(c5c([H])c([H])c([H])c(C([H])([H])N([H])C(=O)N6C([H])([H])C([H])([H])C([H])([H])C([H])(n7nc(-c8c([H])c([H])c(Oc9c([H])c([H])c(F)c([H])c9F)c([H])c8[H])c(C(=O)N([H])[H])c7N([H])[H])C6([H])[H])c5[H])C4([H])C3([H])[H])c([H])c([H])c2C1([H])[H]

>  <smiles>  (19) 
[H]c1c([H])c([H])c2c(c1[H])C([H])([H])C([H])([H])C([H])([H])C2([H])N([H])C(=O)C1([H])N(C(=O)C([H])(N([H])C(=O)C([H])(N([H])C([H])([H])[H])C([H])([H])[H])C(C([H])([H])[H])(C([H])([H])[H])C([H])([H])[H])C([H])([H])c2c([H])c(OC([H])([H])C([H])(C([H])([H])[H])C3([H])C([H])([H])C4([H])C([H])([H])C([H])(c5c([H])c([H])c([H])c(C([H])([H])N([H])C(=O)N6C([H])([H])C([H])([H])C([H])([H])C([H])(n7nc(-c8c([H])c([H])c(Oc9c([H])c([H])c(F)c([H])c9F)c([H])c8[H])c(C(=O)N([H])[H])c7N([H])[H])C6([H])[H])c5[H])C4([H])C3([H])[H])c([H])c([H])c2C1([H])[H]

$$$$
19:0:0
     RDKit          3D

 94103  0  0  1  0  0  0  0  0999 V2000
  -30.3430  -20.0420   22.2850 C   0  0  0  0  0  3  0  0  0  0  0  0
  -30.1370  -22.8280   21.9740 C   0  0  0  0  0  3  0  0  0  0  0  0
  -30.8190  -20.9090   23.2730 C   0  0  0  0  0  0  0  0  0  0  0  0
  -30.7150  -22.2730   23.1230 C   0  0  0  0  0  0  0  0  0  0  0  0
  -29.7100  -20.5470   21.1180 C   0  0  0  0  0  0  0  0  0  0  0  0
  -29.5850  -21.9900   20.9620 C   0  0  0  0  0  0  0  0  0  0  0  0
  -31.4220  -20.5320   24.5990 C   0  0  0  0  0  2  0  0  0  0  0  0
  -31.2190  -23.0100   24.3350 C   0  0  0  0  0  3  0  0  0  0  0  0
  -31.5710  -21.8840   25.3370 C   0  0  0  0  0  3  0  0  0  0  0  0
  -29.0760  -19.5010   20.1590 C   0  0  0  0  0  2  0  0  0  0  0  0
  -29.8300  -18.1500   19.7890 C   0  0  0  0  0  2  0  0  0  0  0  0
  -30.0250  -17.0220   20.8650 C   0  0  0  0  0  2  0  0  0  0  0  0
  -30.5280  -14.6220   20.0530 C   0  0  0  0  0  0  0  0  0  0  0  0
  -30.2990  -12.3870   19.0010 C   0  0  0  0  0  2  0  0  0  0  0  0
  -29.2910  -12.5030   17.8350 C   0  0  0  0  0  2  0  0  0  0  0  0
  -27.8370  -12.3500   18.3330 C   0  0  0  0  0  2  0  0  0  0  0  0
  -27.5340  -13.2130   19.5870 C   0  0  0  0  0  3  0  0  0  0  0  0
  -28.6490  -13.0500   20.6420 C   0  0  0  0  0  2  0  0  0  0  0  0
  -29.9250  -13.4000   19.9980 N   0  0  0  0  0  0  0  0  0  0  0  0
  -31.6610  -14.8330   19.6090 O   0  0  0  0  0  0  0  0  0  0  0  0
  -29.7260  -15.6230   20.4830 N   0  0  0  0  0  0  0  0  0  0  0  0
  -28.7940  -15.3170   20.7170 H   0  0  0  0  0  0  0  0  0  0  0  0
  -25.1900  -13.8030   20.4660 C   0  0  0  0  0  0  0  0  0  0  0  0
  -24.1460  -13.0230   20.8820 C   0  0  0  0  0  0  0  0  0  0  0  0
  -24.6010  -11.6710   20.7850 C   0  0  0  0  0  0  0  0  0  0  0  0
  -26.2150  -12.9270   20.1440 N   0  0  0  0  0  0  0  0  0  0  0  0
  -25.8690  -11.6380   20.3930 N   0  0  0  0  0  0  0  0  0  0  0  0
  -23.8850  -10.4050   20.9830 C   0  0  0  0  0  0  0  0  0  0  0  0
  -24.3600   -9.4200   21.8780 C   0  0  0  0  0  3  0  0  0  0  0  0
  -23.6430   -8.2190   22.0650 C   0  0  0  0  0  3  0  0  0  0  0  0
  -22.4390   -7.9930   21.3570 C   0  0  0  0  0  0  0  0  0  0  0  0
  -21.9840   -8.9660   20.4490 C   0  0  0  0  0  3  0  0  0  0  0  0
  -22.7010  -10.1600   20.2600 C   0  0  0  0  0  3  0  0  0  0  0  0
  -21.6890   -6.8450   21.4550 O   0  0  0  0  0  0  0  0  0  0  0  0
  -21.6770   -6.0890   22.6000 C   0  0  0  0  0  0  0  0  0  0  0  0
  -21.2520   -6.6190   23.8380 C   0  0  0  0  0  3  0  0  0  0  0  0
  -21.1890   -5.7890   24.9760 C   0  0  0  0  0  3  0  0  0  0  0  0
  -21.5390   -4.4290   24.8760 C   0  0  0  0  0  0  0  0  0  0  0  0
  -21.9560   -3.8980   23.6420 C   0  0  0  0  0  3  0  0  0  0  0  0
  -22.0220   -4.7250   22.5080 C   0  0  0  0  0  0  0  0  0  0  0  0
  -22.4050   -4.2020   21.3170 F   0  0  0  0  0  0  0  0  0  0  0  0
  -21.4710   -3.6310   25.9660 F   0  0  0  0  0  0  0  0  0  0  0  0
  -22.7680  -13.4920   21.2520 C   0  0  0  0  0  0  0  0  0  0  0  0
  -22.0940  -12.7730   22.1410 N   0  0  0  0  0  0  0  0  0  0  0  0
  -22.2990  -14.5300   20.7860 O   0  0  0  0  0  0  0  0  0  0  0  0
  -22.4860  -11.9310   22.5390 H   0  0  0  0  0  0  0  0  0  0  0  0
  -21.1690  -13.0620   22.4260 H   0  0  0  0  0  0  0  0  0  0  0  0
  -25.3480  -15.1780   20.3130 N   0  0  0  0  0  0  0  0  0  0  0  0
  -24.5910  -15.8310   20.4770 H   0  0  0  0  0  0  0  0  0  0  0  0
  -26.1650  -15.6190   19.9080 H   0  0  0  0  0  0  0  0  0  0  0  0
  -28.8240  -22.6970   19.7980 C   0  0  0  0  0  3  0  0  0  0  0  0
  -28.8460  -24.2860   19.7870 C   0  0  0  0  0  3  0  0  0  0  0  0
  -27.8060  -25.0350   18.8940 C   0  0  0  0  0  2  0  0  0  0  0  0
  -27.9310  -26.4950   18.9190 O   0  0  0  0  0  0  0  0  0  0  0  0
  -24.5190  -31.4730   22.7770 C   0  0  0  0  0  0  0  0  0  0  0  0
  -26.7900  -27.2890   19.0390 C   0  0  0  0  0  0  0  0  0  0  0  0
  -23.1520  -30.2660   21.1110 C   0  0  0  0  0  3  0  0  0  0  0  0
  -24.4470  -28.8700   19.4060 C   0  0  0  0  0  0  0  0  0  0  0  0
  -25.6630  -30.6000   20.7350 C   0  0  0  0  0  2  0  0  0  0  0  0
  -25.6660  -29.2990   19.9450 C   0  0  0  0  0  0  0  0  0  0  0  0
  -26.8370  -28.5170   19.7580 C   0  0  0  0  0  3  0  0  0  0  0  0
  -25.5490  -26.9090   18.4750 C   0  0  0  0  0  3  0  0  0  0  0  0
  -24.3860  -27.6780   18.6680 C   0  0  0  0  0  3  0  0  0  0  0  0
  -23.2310  -29.7360   19.6520 C   0  0  0  0  0  2  0  0  0  0  0  0
  -24.4680  -30.7890   21.5970 N   0  0  0  0  0  0  0  0  0  0  0  0
  -23.4940  -31.7000   23.4330 O   0  0  0  0  0  0  0  0  0  0  0  0
  -22.5620  -29.1560   22.0130 C   0  0  0  0  0  0  0  0  0  0  0  0
  -21.2280  -29.0030   21.9890 N   0  0  0  0  0  0  0  0  0  0  0  0
  -23.3000  -28.4420   22.6960 O   0  0  0  0  0  0  0  0  0  0  0  0
  -20.6920  -29.6420   21.4190 H   0  0  0  0  0  0  0  0  0  0  0  0
  -17.8860  -27.7860   22.6540 C   0  0  0  0  0  0  0  0  0  0  0  0
  -20.4630  -27.9960   22.7280 C   0  0  0  0  0  3  0  0  0  0  0  0
  -20.4890  -26.6290   22.0040 C   0  0  0  0  0  2  0  0  0  0  0  0
  -19.3010  -26.4230   21.0610 C   0  0  0  0  0  2  0  0  0  0  0  0
  -17.9820  -26.5100   21.8350 C   0  0  0  0  0  2  0  0  0  0  0  0
  -19.0500  -28.4910   23.0600 C   0  0  0  0  0  0  0  0  0  0  0  0
  -18.9040  -29.6890   23.7920 C   0  0  0  0  0  3  0  0  0  0  0  0
  -17.6260  -30.1820   24.1200 C   0  0  0  0  0  3  0  0  0  0  0  0
  -16.4780  -29.4710   23.7280 C   0  0  0  0  0  3  0  0  0  0  0  0
  -16.6100  -28.2750   23.0020 C   0  0  0  0  0  3  0  0  0  0  0  0
  -25.8640  -32.0250   23.3430 C   0  0  0  0  0  3  0  0  0  0  0  0
  -25.5910  -33.3510   23.9160 N   0  0  0  0  0  0  0  0  0  0  0  0
  -25.9140  -34.5120   23.3310 C   0  0  0  0  0  0  0  0  0  0  0  0
  -26.5440  -34.5760   22.2720 O   0  0  0  0  0  0  0  0  0  0  0  0
  -25.0220  -33.3740   24.7500 H   0  0  0  0  0  0  0  0  0  0  0  0
  -24.2210  -36.3770   23.3320 C   0  0  0  0  0  1  0  0  0  0  0  0
  -25.4680  -35.8100   24.0310 C   0  0  0  0  0  3  0  0  0  0  0  0
  -27.6350  -36.5000   24.9580 C   0  0  0  0  0  1  0  0  0  0  0  0
  -26.5220  -36.8460   24.0810 N   0  0  0  0  0  0  0  0  0  0  0  0
  -26.1390  -37.7360   24.3900 H   0  0  0  0  0  0  0  0  0  0  0  0
  -26.5210  -31.0790   24.4230 C   0  0  1  0  0  0  0  0  0  0  0  0
  -25.5580  -30.6680   25.5620 C   0  0  0  0  0  1  0  0  0  0  0  0
  -27.0490  -29.7810   23.7660 C   0  0  0  0  0  1  0  0  0  0  0  0
  -27.7450  -31.7800   25.0580 C   0  0  0  0  0  1  0  0  0  0  0  0
  1  3  1  0
  2  4  1  0
  3  7  1  0
  4  3  2  0
  4  8  1  0
  5  1  2  0
  6  5  1  0
  6  2  2  0
  7  9  1  0
  8  9  2  0
 10  5  1  0
 11 10  1  0
 11 12  1  0
 13 21  1  0
 14 19  1  0
 15 16  1  0
 15 14  1  0
 17 16  1  0
 17 26  1  0
 17 18  1  0
 19 13  1  0
 19 18  1  0
 20 13  2  0
 21 22  1  0
 21 12  1  0
 23 24  2  0
 24 43  1  0
 25 24  1  0
 25 28  1  0
 26 27  1  0
 26 23  1  0
 27 25  2  0
 28 29  1  0
 29 30  2  0
 31 34  1  0
 31 30  1  0
 32 31  2  0
 33 32  1  0
 33 28  2  0
 34 35  1  0
 35 36  1  0
 36 37  2  0
 38 37  1  0
 38 42  1  0
 39 38  2  0
 40 35  2  0
 40 39  1  0
 41 40  1  0
 43 44  1  0
 44 47  1  0
 44 46  1  0
 45 43  2  0
 48 23  1  0
 48 49  1  0
 50 48  1  0
 51  6  1  0
 52 51  2  0
 53 54  1  0
 53 52  1  0
 54 56  1  0
 55 66  2  0
 56 61  1  0
 57 65  1  0
 57 67  1  0
 58 64  1  0
 58 60  1  0
 59 65  1  0
 60 59  1  0
 61 60  2  0
 62 63  1  0
 62 56  2  0
 63 58  2  0
 64 57  1  0
 65 55  1  0
 67 69  2  0
 68 67  1  0
 70 68  1  0
 71 80  2  0
 71 76  1  0
 72 68  1  0
 72 76  1  0
 73 72  1  0
 74 75  1  0
 74 73  1  0
 75 71  1  0
 76 77  2  0
 77 78  1  0
 79 78  2  0
 80 79  1  0
 81 55  1  0
 81 82  1  0
 81 91  1  0
 82 85  1  0
 83 82  1  0
 83 87  1  0
 84 83  2  0
 87 86  1  0
 87 89  1  0
 89 90  1  0
 89 88  1  0
 91 94  1  1
 91 92  1  0
 93 91  1  0
M  ISO  4  13 100  21 100  53 101  54 101
M  END
>  <TORSDO>  (20) 
F 22

>  <SCORE>  (20) 
-10.301

>  <name>  (20) 
19

>  <ligand_id>  (20) 
19

>  <original_smiles>  (20) 
[H]c1c([H])c([H])c2c(c1[H])C([H])([H])C([H])([H])C([H])([H])C2([H])N([H])C(=O)C1([H])N(C(=O)C([H])(N([H])C(=O)C([H])(N([H])C([H])([H])[H])C([H])([H])[H])C(C([H])([H])[H])(C([H])([H])[H])C([H])([H])[H])C([H])([H])c2c([H])c(OC([H])([H])C([H])([H])C([H])([H])c3c([H])c4c(c([H])c3C([H])([H])C([H])([H])C([H])([H])N([H])C(=O)N3C([H])([H])C([H])([H])C([H])([H])C([H])(n5nc(-c6c([H])c([H])c(Oc7c([H])c([H])c(F)c([H])c7F)c([H])c6[H])c(C(=O)N([H])[H])c5N([H])[H])C3([H])[H])C([H])([H])C([H])([H])C4([H])[H])c([H])c([H])c2C1([H])[H]

>  <smiles>  (20) 
[H]c1c([H])c([H])c2c(c1[H])C([H])([H])C([H])([H])C([H])([H])C2([H])N([H])C(=O)C1([H])N(C(=O)C([H])(N([H])C(=O)C([H])(N([H])C([H])([H])[H])C([H])([H])[H])C(C([H])([H])[H])(C([H])([H])[H])C([H])([H])[H])C([H])([H])c2c([H])c(OC([H])([H])C([H])([H])C([H])([H])c3c([H])c4c(c([H])c3C([H])([H])C([H])([H])C([H])([H])N([H])C(=O)N3C([H])([H])C([H])([H])C([H])([H])C([H])(n5nc(-c6c([H])c([H])c(Oc7c([H])c([H])c(F)c([H])c7F)c([H])c6[H])c(C(=O)N([H])[H])c5N([H])[H])C3([H])[H])C([H])([H])C([H])([H])C4([H])[H])c([H])c([H])c2C1([H])[H]

$$$$
20:0:0
     RDKit          3D

 87 96  0  0  1  0  0  0  0  0999 V2000
  -29.6940  -22.1380   21.3030 C   0  0  0  0  0  2  0  0  0  0  0  0
  -29.5690  -19.2450   21.5190 C   0  0  0  0  0  2  0  0  0  0  0  0
  -29.0990  -19.6360   19.2130 C   0  0  0  0  0  2  0  0  0  0  0  0
  -28.9430  -20.7450   21.3490 C   0  0  0  0  0  3  0  0  0  0  0  0
  -28.4820  -21.0460   19.9450 C   0  0  0  0  0  3  0  0  0  0  0  0
  -28.8820  -22.7550   20.0960 C   0  0  0  0  0  3  0  0  0  0  0  0
  -29.8050  -18.4190   20.1620 C   0  0  0  0  0  3  0  0  0  0  0  0
  -30.4230  -15.4750   19.9340 C   0  0  0  0  0  0  0  0  0  0  0  0
  -30.3880  -13.0410   19.0010 C   0  0  0  0  0  2  0  0  0  0  0  0
  -29.3960  -12.8290   17.8300 C   0  0  0  0  0  2  0  0  0  0  0  0
  -27.9830  -12.5210   18.3590 C   0  0  0  0  0  2  0  0  0  0  0  0
  -27.5880  -13.4560   19.5270 C   0  0  0  0  0  3  0  0  0  0  0  0
  -28.7030  -13.6080   20.5830 C   0  0  0  0  0  2  0  0  0  0  0  0
  -29.8750  -14.1580   19.8800 N   0  0  0  0  0  0  0  0  0  0  0  0
  -31.6300  -15.4930   19.6520 O   0  0  0  0  0  0  0  0  0  0  0  0
  -29.6390  -16.7350   20.1040 N   0  0  0  0  0  0  0  0  0  0  0  0
  -28.6720  -16.4840   20.2510 H   0  0  0  0  0  0  0  0  0  0  0  0
  -25.2720  -13.9610   20.4650 C   0  0  0  0  0  0  0  0  0  0  0  0
  -24.2430  -13.1600   20.8730 C   0  0  0  0  0  0  0  0  0  0  0  0
  -24.7160  -11.8170   20.7560 C   0  0  0  0  0  0  0  0  0  0  0  0
  -26.3010  -13.1050   20.1150 N   0  0  0  0  0  0  0  0  0  0  0  0
  -25.9850  -11.8070   20.3590 N   0  0  0  0  0  0  0  0  0  0  0  0
  -24.0110  -10.5420   20.9430 C   0  0  0  0  0  0  0  0  0  0  0  0
  -24.4530   -9.5800   21.8780 C   0  0  0  0  0  3  0  0  0  0  0  0
  -23.7440   -8.3720   22.0530 C   0  0  0  0  0  3  0  0  0  0  0  0
  -22.5770   -8.1170   21.2950 C   0  0  0  0  0  0  0  0  0  0  0  0
  -22.1530   -9.0680   20.3490 C   0  0  0  0  0  3  0  0  0  0  0  0
  -22.8640  -10.2670   20.1700 C   0  0  0  0  0  3  0  0  0  0  0  0
  -21.8390   -6.9610   21.3790 O   0  0  0  0  0  0  0  0  0  0  0  0
  -21.7200   -6.2680   22.5570 C   0  0  0  0  0  0  0  0  0  0  0  0
  -21.1620   -6.8540   23.7140 C   0  0  0  0  0  3  0  0  0  0  0  0
  -20.9950   -6.0840   24.8820 C   0  0  0  0  0  3  0  0  0  0  0  0
  -21.3760   -4.7300   24.8950 C   0  0  0  0  0  0  0  0  0  0  0  0
  -21.9280   -4.1430   23.7420 C   0  0  0  0  0  3  0  0  0  0  0  0
  -22.0960   -4.9100   22.5750 C   0  0  0  0  0  0  0  0  0  0  0  0
  -22.6080   -4.3340   21.4610 F   0  0  0  0  0  0  0  0  0  0  0  0
  -21.2090   -3.9870   26.0140 F   0  0  0  0  0  0  0  0  0  0  0  0
  -22.8640  -13.6140   21.2490 C   0  0  0  0  0  0  0  0  0  0  0  0
  -22.1980  -12.8820   22.1340 N   0  0  0  0  0  0  0  0  0  0  0  0
  -22.3870  -14.6550   20.7950 O   0  0  0  0  0  0  0  0  0  0  0  0
  -22.5970  -12.0410   22.5220 H   0  0  0  0  0  0  0  0  0  0  0  0
  -21.2740  -13.1670   22.4280 H   0  0  0  0  0  0  0  0  0  0  0  0
  -25.4100  -15.3390   20.3300 N   0  0  0  0  0  0  0  0  0  0  0  0
  -24.6420  -15.9750   20.5120 H   0  0  0  0  0  0  0  0  0  0  0  0
  -26.2130  -15.7990   19.9200 H   0  0  0  0  0  0  0  0  0  0  0  0
  -27.9220  -24.3060   20.2250 C   0  0  0  0  0  2  0  0  0  0  0  0
  -28.1930  -25.9490   20.2630 O   0  0  0  0  0  0  0  0  0  0  0  0
  -24.6530  -31.9520   23.2670 C   0  0  0  0  0  0  0  0  0  0  0  0
  -27.1850  -27.0610   20.2240 C   0  0  0  0  0  0  0  0  0  0  0  0
  -23.4520  -30.5680   21.6250 C   0  0  0  0  0  3  0  0  0  0  0  0
  -24.8930  -28.9630   20.1930 C   0  0  0  0  0  0  0  0  0  0  0  0
  -26.0200  -30.7670   21.4750 C   0  0  0  0  0  2  0  0  0  0  0  0
  -26.0850  -29.3570   20.8120 C   0  0  0  0  0  0  0  0  0  0  0  0
  -27.2250  -28.4290   20.7990 C   0  0  0  0  0  3  0  0  0  0  0  0
  -25.9600  -26.8250   19.5600 C   0  0  0  0  0  3  0  0  0  0  0  0
  -24.8560  -27.7180   19.5460 C   0  0  0  0  0  3  0  0  0  0  0  0
  -23.6780  -29.8900   20.2460 C   0  0  0  0  0  2  0  0  0  0  0  0
  -24.7310  -31.1230   22.1760 N   0  0  0  0  0  0  0  0  0  0  0  0
  -23.5660  -32.2420   23.7920 O   0  0  0  0  0  0  0  0  0  0  0  0
  -22.7560  -29.5700   22.5890 C   0  0  0  0  0  0  0  0  0  0  0  0
  -21.4270  -29.3960   22.4540 N   0  0  0  0  0  0  0  0  0  0  0  0
  -23.4180  -28.9530   23.4260 O   0  0  0  0  0  0  0  0  0  0  0  0
  -20.9460  -29.9450   21.7560 H   0  0  0  0  0  0  0  0  0  0  0  0
  -18.0490  -28.1630   22.9410 C   0  0  0  0  0  0  0  0  0  0  0  0
  -20.6050  -28.4540   23.2210 C   0  0  0  0  0  3  0  0  0  0  0  0
  -20.7230  -27.0210   22.6510 C   0  0  0  0  0  2  0  0  0  0  0  0
  -19.6310  -26.6860   21.6300 C   0  0  0  0  0  2  0  0  0  0  0  0
  -18.2450  -26.8160   22.2650 C   0  0  0  0  0  2  0  0  0  0  0  0
  -19.1580  -28.9380   23.3760 C   0  0  0  0  0  0  0  0  0  0  0  0
  -18.9200  -30.1960   23.9720 C   0  0  0  0  0  3  0  0  0  0  0  0
  -17.6070  -30.6790   24.1340 C   0  0  0  0  0  3  0  0  0  0  0  0
  -16.5140  -29.9010   23.7130 C   0  0  0  0  0  3  0  0  0  0  0  0
  -16.7370  -28.6450   23.1230 C   0  0  0  0  0  3  0  0  0  0  0  0
  -25.9260  -32.5900   23.9010 C   0  0  0  0  0  3  0  0  0  0  0  0
  -25.6150  -33.9910   24.2340 N   0  0  0  0  0  0  0  0  0  0  0  0
  -25.9170  -35.0480   23.4680 C   0  0  0  0  0  0  0  0  0  0  0  0
  -26.5480  -34.9460   22.4130 O   0  0  0  0  0  0  0  0  0  0  0  0
  -25.0490  -34.1430   25.0550 H   0  0  0  0  0  0  0  0  0  0  0  0
  -24.1550  -36.8310   23.2100 C   0  0  0  0  0  1  0  0  0  0  0  0
  -25.4480  -36.4390   23.9450 C   0  0  0  0  0  3  0  0  0  0  0  0
  -27.6140  -37.3590   24.6460 C   0  0  0  0  0  1  0  0  0  0  0  0
  -26.4620  -37.5000   23.7610 N   0  0  0  0  0  0  0  0  0  0  0  0
  -26.0540  -38.4190   23.9150 H   0  0  0  0  0  0  0  0  0  0  0  0
  -26.4240  -31.8250   25.1910 C   0  0  1  0  0  0  0  0  0  0  0  0
  -25.3180  -31.5990   26.2480 C   0  0  0  0  0  1  0  0  0  0  0  0
  -27.0090  -30.4420   24.8230 C   0  0  0  0  0  1  0  0  0  0  0  0
  -27.5700  -32.6210   25.8600 C   0  0  0  0  0  1  0  0  0  0  0  0
  3  7  1  0
  4  1  1  0
  4  2  1  0
  5  3  1  0
  5  6  1  0
  5  4  1  0
  6 46  1  0
  6  1  1  0
  7 16  1  0
  7  2  1  0
  8 16  1  0
  9 14  1  0
 10 11  1  0
 10  9  1  0
 12 11  1  0
 12 21  1  0
 12 13  1  0
 14  8  1  0
 14 13  1  0
 15  8  2  0
 16 17  1  0
 18 19  2  0
 19 38  1  0
 20 19  1  0
 20 23  1  0
 21 22  1  0
 21 18  1  0
 22 20  2  0
 23 24  1  0
 24 25  2  0
 26 29  1  0
 26 25  1  0
 27 26  2  0
 28 27  1  0
 28 23  2  0
 29 30  1  0
 30 35  2  0
 30 31  1  0
 31 32  2  0
 32 33  1  0
 33 37  1  0
 34 33  2  0
 35 34  1  0
 36 35  1  0
 38 39  1  0
 39 42  1  0
 39 41  1  0
 40 38  2  0
 43 18  1  0
 43 44  1  0
 45 43  1  0
 46 47  1  0
 48 59  2  0
 49 47  1  0
 49 54  1  0
 50 58  1  0
 50 60  1  0
 51 57  1  0
 51 53  1  0
 52 58  1  0
 53 52  1  0
 54 53  2  0
 55 49  2  0
 56 55  1  0
 56 51  2  0
 57 50  1  0
 58 48  1  0
 60 62  2  0
 61 60  1  0
 63 61  1  0
 64 73  2  0
 64 69  1  0
 65 61  1  0
 65 69  1  0
 66 65  1  0
 67 68  1  0
 67 66  1  0
 68 64  1  0
 69 70  2  0
 70 71  1  0
 72 71  2  0
 73 72  1  0
 74 48  1  0
 74 75  1  0
 74 84  1  0
 75 78  1  0
 76 80  1  0
 76 75  1  0
 77 76  2  0
 80 79  1  0
 82 83  1  0
 82 80  1  0
 82 81  1  0
 84 87  1  1
 84 85  1  0
 86 84  1  0
M  ISO  4   8 100  16 100  46 101  47 101
M  END
>  <TORSDO>  (21) 
F 17

>  <SCORE>  (21) 
-15.909

>  <name>  (21) 
20

>  <ligand_id>  (21) 
20

>  <original_smiles>  (21) 
[H]c1c([H])c([H])c2c(c1[H])C([H])([H])C([H])([H])C([H])([H])C2([H])N([H])C(=O)C1([H])N(C(=O)C([H])(N([H])C(=O)C([H])(N([H])C([H])([H])[H])C([H])([H])[H])C(C([H])([H])[H])(C([H])([H])[H])C([H])([H])[H])C([H])([H])c2c([H])c(OC([H])([H])C3([H])C([H])([H])C4([H])C([H])([H])C([H])(N([H])C(=O)N5C([H])([H])C([H])([H])C([H])([H])C([H])(n6nc(-c7c([H])c([H])c(Oc8c([H])c([H])c(F)c([H])c8F)c([H])c7[H])c(C(=O)N([H])[H])c6N([H])[H])C5([H])[H])C([H])([H])C34[H])c([H])c([H])c2C1([H])[H]

>  <smiles>  (21) 
[H]c1c([H])c([H])c2c(c1[H])C([H])([H])C([H])([H])C([H])([H])C2([H])N([H])C(=O)C1([H])N(C(=O)C([H])(N([H])C(=O)C([H])(N([H])C([H])([H])[H])C([H])([H])[H])C(C([H])([H])[H])(C([H])([H])[H])C([H])([H])[H])C([H])([H])c2c([H])c(OC([H])([H])C3([H])C([H])([H])C4([H])C([H])([H])C([H])(N([H])C(=O)N5C([H])([H])C([H])([H])C([H])([H])C([H])(n6nc(-c7c([H])c([H])c(Oc8c([H])c([H])c(F)c([H])c8F)c([H])c7[H])c(C(=O)N([H])[H])c6N([H])[H])C5([H])[H])C([H])([H])C34[H])c([H])c([H])c2C1([H])[H]

$$$$
21:0:0
     RDKit          3D

 91 99  0  0  1  0  0  0  0  0999 V2000
  -28.7980  -21.2960   20.0120 C   0  0  0  0  0  2  0  0  0  0  0  0
  -29.8970  -19.1600   18.8120 C   0  0  0  0  0  3  0  0  0  0  0  0
  -30.2510  -17.7700   18.8170 C   0  0  0  0  0  3  0  0  0  0  0  0
  -29.2500  -18.9970   21.1190 C   0  0  0  0  0  3  0  0  0  0  0  0
  -29.3660  -19.8160   19.9610 C   0  0  0  0  0  0  0  0  0  0  0  0
  -29.5770  -17.6040   21.1330 C   0  0  0  0  0  0  0  0  0  0  0  0
  -30.0700  -16.9500   19.9680 C   0  0  0  0  0  0  0  0  0  0  0  0
  -29.3410  -16.8020   22.4100 C   0  0  0  0  0  1  0  0  0  0  0  0
  -30.9410  -14.5290   19.3710 C   0  0  0  0  0  0  0  0  0  0  0  0
  -30.5960  -12.2760   18.3470 C   0  0  0  0  0  2  0  0  0  0  0  0
  -29.4280  -12.3610   17.3340 C   0  0  0  0  0  2  0  0  0  0  0  0
  -28.0600  -12.2250   18.0330 C   0  0  0  0  0  2  0  0  0  0  0  0
  -27.9430  -13.1030   19.3070 C   0  0  0  0  0  3  0  0  0  0  0  0
  -29.1850  -12.9230   20.2060 C   0  0  0  0  0  2  0  0  0  0  0  0
  -30.3710  -13.2810   19.4070 N   0  0  0  0  0  0  0  0  0  0  0  0
  -31.9710  -14.7490   18.7190 O   0  0  0  0  0  0  0  0  0  0  0  0
  -30.2260  -15.4920   20.0320 N   0  0  0  0  0  0  0  0  0  0  0  0
  -29.5260  -15.0550   20.6150 H   0  0  0  0  0  0  0  0  0  0  0  0
  -25.8840  -13.7330   20.7150 C   0  0  0  0  0  0  0  0  0  0  0  0
  -24.8190  -12.9970   21.1560 C   0  0  0  0  0  0  0  0  0  0  0  0
  -25.0540  -11.6580   20.7170 C   0  0  0  0  0  0  0  0  0  0  0  0
  -26.7040  -12.8440   20.0370 N   0  0  0  0  0  0  0  0  0  0  0  0
  -26.2240  -11.5750   20.0950 N   0  0  0  0  0  0  0  0  0  0  0  0
  -24.2110  -10.4610   20.8010 C   0  0  0  0  0  0  0  0  0  0  0  0
  -24.5880   -9.3390   21.5720 C   0  0  0  0  0  3  0  0  0  0  0  0
  -23.7520   -8.2050   21.6420 C   0  0  0  0  0  3  0  0  0  0  0  0
  -22.5210   -8.1870   20.9450 C   0  0  0  0  0  0  0  0  0  0  0  0
  -22.1660   -9.2920   20.1520 C   0  0  0  0  0  3  0  0  0  0  0  0
  -23.0020  -10.4190   20.0770 C   0  0  0  0  0  3  0  0  0  0  0  0
  -21.6560   -7.1210   20.9390 O   0  0  0  0  0  0  0  0  0  0  0  0
  -21.4730   -6.3330   22.0470 C   0  0  0  0  0  0  0  0  0  0  0  0
  -20.9980   -6.8640   23.2660 C   0  0  0  0  0  3  0  0  0  0  0  0
  -20.7560   -6.0060   24.3610 C   0  0  0  0  0  3  0  0  0  0  0  0
  -20.9850   -4.6210   24.2360 C   0  0  0  0  0  0  0  0  0  0  0  0
  -21.4460   -4.0930   23.0170 C   0  0  0  0  0  3  0  0  0  0  0  0
  -21.6880   -4.9450   21.9260 C   0  0  0  0  0  0  0  0  0  0  0  0
  -22.1160   -4.4280   20.7490 F   0  0  0  0  0  0  0  0  0  0  0  0
  -20.7460   -3.7940   25.2810 F   0  0  0  0  0  0  0  0  0  0  0  0
  -23.6030  -13.5160   21.8660 C   0  0  0  0  0  0  0  0  0  0  0  0
  -23.0240  -12.7240   22.7600 N   0  0  0  0  0  0  0  0  0  0  0  0
  -23.1840  -14.6560   21.6620 O   0  0  0  0  0  0  0  0  0  0  0  0
  -23.3740  -11.7950   22.9390 H   0  0  0  0  0  0  0  0  0  0  0  0
  -22.2170  -13.0530   23.2720 H   0  0  0  0  0  0  0  0  0  0  0  0
  -26.2190  -15.0810   20.8100 N   0  0  0  0  0  0  0  0  0  0  0  0
  -25.6160  -15.7540   21.2730 H   0  0  0  0  0  0  0  0  0  0  0  0
  -27.0430  -15.4990   20.4010 H   0  0  0  0  0  0  0  0  0  0  0  0
  -29.5310  -22.5310   19.3400 C   0  0  0  0  0  0  0  0  0  0  0  0
  -30.7200  -22.4330   19.0010 O   0  0  0  0  0  0  0  0  0  0  0  0
  -28.7760  -23.8900   19.0140 C   0  0  0  0  0  2  0  0  0  0  0  0
  -28.6710  -25.0310   20.1040 C   0  0  0  0  0  2  0  0  0  0  0  0
  -28.7180  -26.4400   19.6570 O   0  0  0  0  0  0  0  0  0  0  0  0
  -24.8390  -31.4870   23.0000 C   0  0  0  0  0  0  0  0  0  0  0  0
  -27.5520  -27.2040   19.6980 C   0  0  0  0  0  0  0  0  0  0  0  0
  -23.6530  -30.1460   21.2950 C   0  0  0  0  0  3  0  0  0  0  0  0
  -25.1290  -28.7090   19.7830 C   0  0  0  0  0  0  0  0  0  0  0  0
  -26.1710  -30.5650   21.0900 C   0  0  0  0  0  2  0  0  0  0  0  0
  -26.2870  -29.2190   20.3830 C   0  0  0  0  0  0  0  0  0  0  0  0
  -27.5010  -28.4850   20.3240 C   0  0  0  0  0  3  0  0  0  0  0  0
  -26.3720  -26.7210   19.0920 C   0  0  0  0  0  3  0  0  0  0  0  0
  -25.1720  -27.4650   19.1230 C   0  0  0  0  0  3  0  0  0  0  0  0
  -23.8700  -29.5430   19.8810 C   0  0  0  0  0  2  0  0  0  0  0  0
  -24.9080  -30.7470   21.8540 N   0  0  0  0  0  0  0  0  0  0  0  0
  -23.7540  -31.6980   23.5650 O   0  0  0  0  0  0  0  0  0  0  0  0
  -23.0340  -29.0630   22.2090 C   0  0  0  0  0  0  0  0  0  0  0  0
  -21.7120  -28.8510   22.0880 N   0  0  0  0  0  0  0  0  0  0  0  0
  -23.7380  -28.4170   22.9870 O   0  0  0  0  0  0  0  0  0  0  0  0
  -21.1950  -29.4210   21.4350 H   0  0  0  0  0  0  0  0  0  0  0  0
  -18.3730  -27.5630   22.5980 C   0  0  0  0  0  0  0  0  0  0  0  0
  -20.9330  -27.8520   22.8220 C   0  0  0  0  0  3  0  0  0  0  0  0
  -21.0460  -26.4630   22.1550 C   0  0  0  0  0  2  0  0  0  0  0  0
  -19.9270  -26.1840   21.1490 C   0  0  0  0  0  2  0  0  0  0  0  0
  -18.5560  -26.2630   21.8290 C   0  0  0  0  0  2  0  0  0  0  0  0
  -19.4890  -28.3150   23.0510 C   0  0  0  0  0  0  0  0  0  0  0  0
  -19.2630  -29.5350   23.7260 C   0  0  0  0  0  3  0  0  0  0  0  0
  -17.9550  -30.0030   23.9540 C   0  0  0  0  0  3  0  0  0  0  0  0
  -16.8530  -29.2480   23.5170 C   0  0  0  0  0  3  0  0  0  0  0  0
  -17.0640  -28.0290   22.8460 C   0  0  0  0  0  3  0  0  0  0  0  0
  -26.1110  -32.1180   23.6410 C   0  0  0  0  0  3  0  0  0  0  0  0
  -26.7090  -31.2580   24.8180 C   0  0  1  0  0  0  0  0  0  0  0  0
  -25.6660  -30.8610   25.8860 C   0  0  0  0  0  1  0  0  0  0  0  0
  -27.3520  -29.9610   24.2700 C   0  0  0  0  0  1  0  0  0  0  0  0
  -27.8360  -32.0460   25.5250 C   0  0  0  0  0  1  0  0  0  0  0  0
  -25.7550  -33.4620   24.1110 N   0  0  0  0  0  0  0  0  0  0  0  0
  -26.0200  -34.5960   23.4470 C   0  0  0  0  0  0  0  0  0  0  0  0
  -26.6560  -34.6220   22.3920 O   0  0  0  0  0  0  0  0  0  0  0  0
  -25.1960  -33.5120   24.9500 H   0  0  0  0  0  0  0  0  0  0  0  0
  -24.2260  -36.3490   23.2740 C   0  0  0  0  0  1  0  0  0  0  0  0
  -25.4790  -35.9090   24.0460 C   0  0  0  0  0  3  0  0  0  0  0  0
  -27.5740  -36.7840   24.9850 C   0  0  0  0  0  1  0  0  0  0  0  0
  -26.4720  -37.0030   24.0520 N   0  0  0  0  0  0  0  0  0  0  0  0
  -26.0310  -37.8890   24.2850 H   0  0  0  0  0  0  0  0  0  0  0  0
  2  3  2  0
  2  5  1  0
  3  7  1  0
  4  6  1  0
  5  1  1  0
  5  4  2  0
  6  8  1  0
  7 17  1  0
  7  6  2  0
  9 15  1  0
  9 17  1  0
 10 15  1  0
 11 12  1  0
 11 10  1  0
 13 12  1  0
 13 22  1  0
 13 14  1  0
 15 14  1  0
 16  9  2  0
 17 18  1  0
 19 44  1  0
 19 20  2  0
 20 39  1  0
 21 24  1  0
 21 20  1  0
 22 23  1  0
 22 19  1  0
 23 21  2  0
 24 25  1  0
 25 26  2  0
 27 26  1  0
 28 27  2  0
 29 28  1  0
 29 24  2  0
 30 27  1  0
 30 31  1  0
 31 32  1  0
 32 33  2  0
 34 33  1  0
 34 38  1  0
 35 34  2  0
 36 31  2  0
 36 35  1  0
 37 36  1  0
 39 40  1  0
 40 42  1  0
 40 43  1  0
 41 39  2  0
 44 45  1  0
 46 44  1  0
 47  1  1  0
 48 47  2  0
 49 47  1  0
 49 50  1  0
 51 53  1  0
 51 50  1  0
 52 63  2  0
 53 58  1  0
 54 62  1  0
 54 64  1  0
 55 61  1  0
 55 57  1  0
 56 62  1  0
 57 56  1  0
 58 57  2  0
 59 60  1  0
 59 53  2  0
 60 55  2  0
 61 54  1  0
 62 52  1  0
 64 66  2  0
 65 64  1  0
 67 65  1  0
 68 77  2  0
 68 73  1  0
 69 65  1  0
 69 73  1  0
 70 69  1  0
 71 72  1  0
 71 70  1  0
 72 68  1  0
 73 74  2  0
 74 75  1  0
 76 75  2  0
 77 76  1  0
 78 52  1  0
 78 83  1  0
 78 79  1  0
 79 82  1  1
 79 80  1  0
 81 79  1  0
 83 86  1  0
 84 88  1  0
 84 83  1  0
 85 84  2  0
 88 87  1  0
 88 90  1  0
 90 91  1  0
 90 89  1  0
M  ISO  4   9 100  17 100  50 101  51 101
M  END
>  <TORSDO>  (22) 
F 20

>  <SCORE>  (22) 
-8.443

>  <name>  (22) 
21

>  <ligand_id>  (22) 
21

>  <original_smiles>  (22) 
[H]c1c([H])c([H])c2c(c1[H])C([H])([H])C([H])([H])C([H])([H])C2([H])N([H])C(=O)C1([H])N(C(=O)C([H])(N([H])C(=O)C([H])(N([H])C([H])([H])[H])C([H])([H])[H])C(C([H])([H])[H])(C([H])([H])[H])C([H])([H])[H])C([H])([H])c2c([H])c(OC([H])([H])C([H])([H])C(=O)C([H])([H])c3c([H])c([H])c(N([H])C(=O)N4C([H])([H])C([H])([H])C([H])([H])C([H])(n5nc(-c6c([H])c([H])c(Oc7c([H])c([H])c(F)c([H])c7F)c([H])c6[H])c(C(=O)N([H])[H])c5N([H])[H])C4([H])[H])c(C([H])([H])[H])c3[H])c([H])c([H])c2C1([H])[H]

>  <smiles>  (22) 
[H]c1c([H])c([H])c2c(c1[H])C([H])([H])C([H])([H])C([H])([H])C2([H])N([H])C(=O)C1([H])N(C(=O)C([H])(N([H])C(=O)C([H])(N([H])C([H])([H])[H])C([H])([H])[H])C(C([H])([H])[H])(C([H])([H])[H])C([H])([H])[H])C([H])([H])c2c([H])c(OC([H])([H])C([H])([H])C(=O)C([H])([H])c3c([H])c([H])c(N([H])C(=O)N4C([H])([H])C([H])([H])C([H])([H])C([H])(n5nc(-c6c([H])c([H])c(Oc7c([H])c([H])c(F)c([H])c7F)c([H])c6[H])c(C(=O)N([H])[H])c5N([H])[H])C4([H])[H])c(C([H])([H])[H])c3[H])c([H])c([H])c2C1([H])[H]

$$$$
22:0:0
     RDKit          3D

 97105  0  0  1  0  0  0  0  0999 V2000
  -27.3350  -19.3810   20.2110 C   0  0  0  0  0  3  0  0  0  0  0  0
  -27.7320  -20.7230   20.3720 C   0  0  0  0  0  3  0  0  0  0  0  0
  -28.2770  -18.3340   20.1900 C   0  0  0  0  0  3  0  0  0  0  0  0
  -29.0900  -21.0730   20.5240 C   0  0  0  0  0  0  0  0  0  0  0  0
  -29.6590  -18.5820   20.3190 C   0  0  0  0  0  0  0  0  0  0  0  0
  -30.0530  -19.9810   20.4900 C   0  0  0  0  0  0  0  0  0  0  0  0
  -31.5240  -20.3510   20.6370 C   0  0  0  0  0  1  0  0  0  0  0  0
  -29.4210  -22.5910   20.8640 C   0  0  0  0  0  2  0  0  0  0  0  0
  -29.6160  -24.1180   18.7990 C   0  0  0  0  0  1  0  0  0  0  0  0
  -28.7920  -23.8430   20.0650 C   0  0  0  0  0  3  0  0  0  0  0  0
  -28.6020  -25.1970   20.9180 C   0  0  0  0  0  2  0  0  0  0  0  0
  -28.6580  -26.5620   20.3310 O   0  0  0  0  0  0  0  0  0  0  0  0
  -24.6510  -31.8280   23.2810 C   0  0  0  0  0  0  0  0  0  0  0  0
  -27.5090  -27.3610   20.3180 C   0  0  0  0  0  0  0  0  0  0  0  0
  -23.5540  -30.4090   21.5820 C   0  0  0  0  0  3  0  0  0  0  0  0
  -25.1050  -28.9000   20.2140 C   0  0  0  0  0  0  0  0  0  0  0  0
  -26.0880  -30.8000   21.5020 C   0  0  0  0  0  2  0  0  0  0  0  0
  -26.2340  -29.4250   20.8570 C   0  0  0  0  0  0  0  0  0  0  0  0
  -27.4430  -28.6690   20.8930 C   0  0  0  0  0  3  0  0  0  0  0  0
  -26.3580  -26.8790   19.6650 C   0  0  0  0  0  3  0  0  0  0  0  0
  -25.1680  -27.6340   19.6090 C   0  0  0  0  0  3  0  0  0  0  0  0
  -23.8440  -29.7440   20.2100 C   0  0  0  0  0  2  0  0  0  0  0  0
  -24.7800  -31.0300   22.1800 N   0  0  0  0  0  0  0  0  0  0  0  0
  -23.5390  -32.0720   23.7720 O   0  0  0  0  0  0  0  0  0  0  0  0
  -22.8790  -29.3710   22.5100 C   0  0  0  0  0  0  0  0  0  0  0  0
  -21.5570  -29.1860   22.3490 N   0  0  0  0  0  0  0  0  0  0  0  0
  -23.5440  -28.7350   23.3300 O   0  0  0  0  0  0  0  0  0  0  0  0
  -21.0800  -29.7530   21.6620 H   0  0  0  0  0  0  0  0  0  0  0  0
  -18.1690  -28.0050   22.7980 C   0  0  0  0  0  0  0  0  0  0  0  0
  -20.7290  -28.2280   23.0820 C   0  0  0  0  0  3  0  0  0  0  0  0
  -20.8180  -26.8180   22.4520 C   0  0  0  0  0  2  0  0  0  0  0  0
  -19.7150  -26.5460   21.4240 C   0  0  0  0  0  2  0  0  0  0  0  0
  -18.3330  -26.6800   22.0700 C   0  0  0  0  0  2  0  0  0  0  0  0
  -19.2940  -28.7380   23.2590 C   0  0  0  0  0  0  0  0  0  0  0  0
  -19.0860  -29.9790   23.8980 C   0  0  0  0  0  3  0  0  0  0  0  0
  -17.7860  -30.4850   24.0830 C   0  0  0  0  0  3  0  0  0  0  0  0
  -16.6750  -29.7480   23.6390 C   0  0  0  0  0  3  0  0  0  0  0  0
  -16.8680  -28.5100   23.0010 C   0  0  0  0  0  3  0  0  0  0  0  0
  -25.8890  -32.4890   23.9620 C   0  0  0  0  0  3  0  0  0  0  0  0
  -26.3320  -31.7580   25.2880 C   0  0  1  0  0  0  0  0  0  0  0  0
  -25.1770  -31.5360   26.2920 C   0  0  0  0  0  1  0  0  0  0  0  0
  -26.9530  -30.3780   24.9700 C   0  0  0  0  0  1  0  0  0  0  0  0
  -27.4310  -32.5830   26.0000 C   0  0  0  0  0  1  0  0  0  0  0  0
  -25.5500  -33.8930   24.2340 N   0  0  0  0  0  0  0  0  0  0  0  0
  -25.9060  -34.9280   23.4600 C   0  0  0  0  0  0  0  0  0  0  0  0
  -26.6240  -34.8010   22.4650 O   0  0  0  0  0  0  0  0  0  0  0  0
  -24.9180  -34.0650   25.0040 H   0  0  0  0  0  0  0  0  0  0  0  0
  -24.1890  -36.6980   22.9630 C   0  0  0  0  0  1  0  0  0  0  0  0
  -25.3840  -36.3240   23.8530 C   0  0  0  0  0  3  0  0  0  0  0  0
  -27.4500  -37.2590   24.7960 C   0  0  0  0  0  1  0  0  0  0  0  0
  -26.4150  -37.3820   23.7720 N   0  0  0  0  0  0  0  0  0  0  0  0
  -25.9930  -38.3020   23.8560 H   0  0  0  0  0  0  0  0  0  0  0  0
  -30.6550  -17.3560   20.0980 C   0  0  0  0  0  3  0  0  0  0  0  0
  -30.9670  -14.7730   20.4740 C   0  0  0  0  0  0  0  0  0  0  0  0
  -30.7380  -12.5190   19.4630 C   0  0  0  0  0  2  0  0  0  0  0  0
  -29.8310  -12.6270   18.2190 C   0  0  0  0  0  2  0  0  0  0  0  0
  -28.3470  -12.4860   18.6170 C   0  0  0  0  0  2  0  0  0  0  0  0
  -27.9620  -13.3690   19.8350 C   0  0  0  0  0  3  0  0  0  0  0  0
  -28.9980  -13.2600   20.9750 C   0  0  0  0  0  2  0  0  0  0  0  0
  -30.3100  -13.5730   20.4040 N   0  0  0  0  0  0  0  0  0  0  0  0
  -32.1820  -14.8310   20.2670 O   0  0  0  0  0  0  0  0  0  0  0  0
  -30.2120  -15.9330   20.4460 N   0  0  0  0  0  0  0  0  0  0  0  0
  -29.2250  -15.8030   20.5950 H   0  0  0  0  0  0  0  0  0  0  0  0
  -25.5680  -13.9860   20.5180 C   0  0  0  0  0  0  0  0  0  0  0  0
  -24.4880  -13.2240   20.8700 C   0  0  0  0  0  0  0  0  0  0  0  0
  -24.9390  -11.8680   20.8510 C   0  0  0  0  0  0  0  0  0  0  0  0
  -26.6070  -13.0950   20.3010 N   0  0  0  0  0  0  0  0  0  0  0  0
  -26.2340  -11.8160   20.5650 N   0  0  0  0  0  0  0  0  0  0  0  0
  -24.1960  -10.6140   21.0250 C   0  0  0  0  0  0  0  0  0  0  0  0
  -24.5710   -9.6610   21.9980 C   0  0  0  0  0  3  0  0  0  0  0  0
  -23.8270   -8.4720   22.1600 C   0  0  0  0  0  3  0  0  0  0  0  0
  -22.6950   -8.2270   21.3480 C   0  0  0  0  0  0  0  0  0  0  0  0
  -22.3380   -9.1680   20.3650 C   0  0  0  0  0  3  0  0  0  0  0  0
  -23.0830  -10.3480   20.2020 C   0  0  0  0  0  3  0  0  0  0  0  0
  -21.9300   -7.0880   21.4170 O   0  0  0  0  0  0  0  0  0  0  0  0
  -21.7780   -6.3920   22.5900 C   0  0  0  0  0  0  0  0  0  0  0  0
  -21.1810   -6.9720   23.7290 C   0  0  0  0  0  3  0  0  0  0  0  0
  -20.9810   -6.2000   24.8910 C   0  0  0  0  0  3  0  0  0  0  0  0
  -21.3710   -4.8470   24.9140 C   0  0  0  0  0  0  0  0  0  0  0  0
  -21.9630   -4.2660   23.7790 C   0  0  0  0  0  3  0  0  0  0  0  0
  -22.1630   -5.0360   22.6190 C   0  0  0  0  0  0  0  0  0  0  0  0
  -22.7140   -4.4660   21.5200 F   0  0  0  0  0  0  0  0  0  0  0  0
  -21.1740   -4.1030   26.0270 F   0  0  0  0  0  0  0  0  0  0  0  0
  -23.0900  -13.7160   21.1090 C   0  0  0  0  0  0  0  0  0  0  0  0
  -22.3390  -13.0380   21.9700 N   0  0  0  0  0  0  0  0  0  0  0  0
  -22.6710  -14.7390   20.5680 O   0  0  0  0  0  0  0  0  0  0  0  0
  -22.6870  -12.2110   22.4310 H   0  0  0  0  0  0  0  0  0  0  0  0
  -21.4000  -13.3530   22.1700 H   0  0  0  0  0  0  0  0  0  0  0  0
  -25.7460  -15.3530   20.3330 N   0  0  0  0  0  0  0  0  0  0  0  0
  -24.9700  -16.0020   20.4000 H   0  0  0  0  0  0  0  0  0  0  0  0
  -26.5640  -15.7630   19.9090 H   0  0  0  0  0  0  0  0  0  0  0  0
  -31.0800  -17.4840   18.5960 C   0  0  0  0  0  2  0  0  0  0  0  0
  -32.3580  -16.8010   18.0550 C   0  0  0  0  0  2  0  0  0  0  0  0
  -33.6050  -17.2760   18.6790 N   0  0  0  0  0  4  0  0  0  0  0  0
  -33.6710  -18.2780   18.6960 H   0  0  0  0  0  0  0  0  0  0  0  0
  -34.3970  -16.9130   18.1780 H   0  0  0  0  0  0  0  0  0  0  0  0
  -33.6440  -16.9020   19.6210 H   0  0  0  0  0  0  0  0  0  0  0  0
  1  2  1  0
  2  4  2  0
  3  1  2  0
  3  5  1  0
  4  8  1  0
  5  6  2  0
  6  4  1  0
  6  7  1  0
 10  9  1  0
 10  8  1  0
 10 11  1  0
 12 11  1  0
 13 24  2  0
 14 12  1  0
 14 19  1  0
 15 23  1  0
 15 25  1  0
 16 18  1  0
 17 23  1  0
 18 19  2  0
 18 17  1  0
 20 14  2  0
 21 20  1  0
 21 16  2  0
 22 16  1  0
 22 15  1  0
 23 13  1  0
 25 27  2  0
 26 25  1  0
 28 26  1  0
 29 38  2  0
 29 34  1  0
 30 26  1  0
 30 34  1  0
 31 30  1  0
 32 33  1  0
 32 31  1  0
 33 29  1  0
 34 35  2  0
 35 36  1  0
 37 36  2  0
 38 37  1  0
 39 13  1  0
 39 44  1  0
 39 40  1  0
 40 43  1  1
 40 41  1  0
 42 40  1  0
 44 47  1  0
 45 49  1  0
 45 44  1  0
 46 45  2  0
 49 48  1  0
 51 49  1  0
 51 52  1  0
 51 50  1  0
 53 92  1  0
 53  5  1  0
 53 62  1  0
 55 60  1  0
 56 57  1  0
 56 55  1  0
 58 57  1  0
 58 67  1  0
 58 59  1  0
 60 54  1  0
 60 59  1  0
 61 54  2  0
 62 54  1  0
 62 63  1  0
 64 65  2  0
 65 84  1  0
 66 65  1  0
 66 69  1  0
 67 64  1  0
 67 68  1  0
 68 66  2  0
 69 70  1  0
 70 71  2  0
 72 75  1  0
 72 71  1  0
 73 72  2  0
 74 73  1  0
 74 69  2  0
 75 76  1  0
 76 81  2  0
 76 77  1  0
 77 78  2  0
 78 79  1  0
 79 83  1  0
 80 79  2  0
 81 80  1  0
 82 81  1  0
 84 85  1  0
 85 88  1  0
 85 87  1  0
 86 84  2  0
 89 90  1  0
 89 64  1  0
 91 89  1  0
 93 92  1  0
 93 94  1  0
 94 95  1  0
 94 97  1  0
 96 94  1  0
M  ISO  4  11 101  12 101  54 100  62 100
M  END
>  <TORSDO>  (23) 
F 23

>  <SCORE>  (23) 
-12.705

>  <name>  (23) 
22

>  <ligand_id>  (23) 
22

>  <original_smiles>  (23) 
[H]c1c([H])c([H])c2c(c1[H])C([H])([H])C([H])([H])C([H])([H])C2([H])N([H])C(=O)C1([H])N(C(=O)C([H])(N([H])C(=O)C([H])(N([H])C([H])([H])[H])C([H])([H])[H])C(C([H])([H])[H])(C([H])([H])[H])C([H])([H])[H])C([H])([H])c2c([H])c(OC([H])([H])C([H])(C([H])([H])[H])C([H])([H])c3c([H])c([H])c([H])c(C([H])(N([H])C(=O)N4C([H])([H])C([H])([H])C([H])([H])C([H])(n5nc(-c6c([H])c([H])c(Oc7c([H])c([H])c(F)c([H])c7F)c([H])c6[H])c(C(=O)N([H])[H])c5N([H])[H])C4([H])[H])C([H])([H])C([H])([H])[N+]([H])([H])[H])c3C([H])([H])[H])c([H])c([H])c2C1([H])[H]

>  <smiles>  (23) 
[H]c1c([H])c([H])c2c(c1[H])C([H])([H])C([H])([H])C([H])([H])C2([H])N([H])C(=O)C1([H])N(C(=O)C([H])(N([H])C(=O)C([H])(N([H])C([H])([H])[H])C([H])([H])[H])C(C([H])([H])[H])(C([H])([H])[H])C([H])([H])[H])C([H])([H])c2c([H])c(OC([H])([H])C([H])(C([H])([H])[H])C([H])([H])c3c([H])c([H])c([H])c(C([H])(N([H])C(=O)N4C([H])([H])C([H])([H])C([H])([H])C([H])(n5nc(-c6c([H])c([H])c(Oc7c([H])c([H])c(F)c([H])c7F)c([H])c6[H])c(C(=O)N([H])[H])c5N([H])[H])C4([H])[H])C([H])([H])C([H])([H])[N+]([H])([H])[H])c3C([H])([H])[H])c([H])c([H])c2C1([H])[H]

$$$$
23:0:0
     RDKit          3D

 96104  0  0  1  0  0  0  0  0999 V2000
  -29.8300  -23.1320   19.0860 C   0  0  0  0  0  2  0  0  0  0  0  0
  -29.4020  -23.4460   21.5720 C   0  0  0  0  0  2  0  0  0  0  0  0
  -29.3580  -21.6430   19.2290 C   0  0  0  0  0  2  0  0  0  0  0  0
  -28.8910  -21.9680   21.5910 C   0  0  0  0  0  2  0  0  0  0  0  0
  -29.4100  -24.1580   20.1900 C   0  0  0  0  0  3  0  0  0  0  0  0
  -29.5990  -20.9560   20.6160 C   0  0  2  0  0  0  0  0  0  0  0  0
  -31.1010  -20.8140   20.9710 C   0  0  0  0  0  0  0  0  0  0  0  0
  -31.4100  -20.4910   22.2220 N   0  0  0  0  0  0  0  0  0  0  0  0
  -31.9900  -20.9830   20.1380 O   0  0  0  0  0  0  0  0  0  0  0  0
  -30.6800  -20.3570   22.9060 H   0  0  0  0  0  0  0  0  0  0  0  0
  -32.3730  -20.3920   22.5040 H   0  0  0  0  0  0  0  0  0  0  0  0
  -28.1790  -25.0940   19.8620 C   0  0  0  0  0  2  0  0  0  0  0  0
  -28.3260  -26.5240   20.1690 O   0  0  0  0  0  0  0  0  0  0  0  0
  -24.6030  -31.8640   23.2230 C   0  0  0  0  0  0  0  0  0  0  0  0
  -27.1870  -27.3360   20.1300 C   0  0  0  0  0  0  0  0  0  0  0  0
  -23.3810  -30.4720   21.5900 C   0  0  0  0  0  3  0  0  0  0  0  0
  -24.8160  -28.9260   20.1490 C   0  0  0  0  0  0  0  0  0  0  0  0
  -25.9160  -30.7950   21.3830 C   0  0  0  0  0  2  0  0  0  0  0  0
  -25.9890  -29.4200   20.7340 C   0  0  0  0  0  0  0  0  0  0  0  0
  -27.1750  -28.6360   20.7160 C   0  0  0  0  0  3  0  0  0  0  0  0
  -25.9880  -26.8870   19.5260 C   0  0  0  0  0  3  0  0  0  0  0  0
  -24.8160  -27.6640   19.5370 C   0  0  0  0  0  3  0  0  0  0  0  0
  -23.5800  -29.7990   20.2070 C   0  0  0  0  0  2  0  0  0  0  0  0
  -24.6520  -31.0600   22.1220 N   0  0  0  0  0  0  0  0  0  0  0  0
  -23.5250  -32.1430   23.7680 O   0  0  0  0  0  0  0  0  0  0  0  0
  -22.7260  -29.4530   22.5530 C   0  0  0  0  0  0  0  0  0  0  0  0
  -21.3990  -29.2790   22.4360 N   0  0  0  0  0  0  0  0  0  0  0  0
  -23.4100  -28.8220   23.3630 O   0  0  0  0  0  0  0  0  0  0  0  0
  -20.9070  -29.8410   21.7540 H   0  0  0  0  0  0  0  0  0  0  0  0
  -18.0210  -28.0980   22.9570 C   0  0  0  0  0  0  0  0  0  0  0  0
  -20.5820  -28.3440   23.2110 C   0  0  0  0  0  3  0  0  0  0  0  0
  -20.6740  -26.9130   22.6320 C   0  0  0  0  0  2  0  0  0  0  0  0
  -19.5640  -26.5970   21.6250 C   0  0  0  0  0  2  0  0  0  0  0  0
  -18.1870  -26.7490   22.2780 C   0  0  0  0  0  2  0  0  0  0  0  0
  -19.1460  -28.8550   23.3800 C   0  0  0  0  0  0  0  0  0  0  0  0
  -18.9370  -30.1180   23.9740 C   0  0  0  0  0  3  0  0  0  0  0  0
  -17.6360  -30.6240   24.1490 C   0  0  0  0  0  3  0  0  0  0  0  0
  -16.5250  -29.8650   23.7420 C   0  0  0  0  0  3  0  0  0  0  0  0
  -16.7190  -28.6030   23.1520 C   0  0  0  0  0  3  0  0  0  0  0  0
  -25.8920  -32.4910   23.8370 C   0  0  0  0  0  3  0  0  0  0  0  0
  -25.5900  -33.8890   24.1750 N   0  0  0  0  0  0  0  0  0  0  0  0
  -25.9130  -34.9430   23.4130 C   0  0  0  0  0  0  0  0  0  0  0  0
  -26.5700  -34.8410   22.3730 O   0  0  0  0  0  0  0  0  0  0  0  0
  -25.0070  -34.0420   24.9840 H   0  0  0  0  0  0  0  0  0  0  0  0
  -24.1810  -36.7370   23.0890 C   0  0  0  0  0  1  0  0  0  0  0  0
  -25.4340  -36.3320   23.8810 C   0  0  0  0  0  3  0  0  0  0  0  0
  -27.5830  -37.2130   24.6780 C   0  0  0  0  0  1  0  0  0  0  0  0
  -26.4670  -37.3840   23.7520 N   0  0  0  0  0  0  0  0  0  0  0  0
  -26.0630  -38.3050   23.9080 H   0  0  0  0  0  0  0  0  0  0  0  0
  -26.4190  -31.7130   25.1050 C   0  0  1  0  0  0  0  0  0  0  0  0
  -25.3350  -31.4750   26.1810 C   0  0  0  0  0  1  0  0  0  0  0  0
  -26.9950  -30.3350   24.7020 C   0  0  0  0  0  1  0  0  0  0  0  0
  -27.5790  -32.5020   25.7590 C   0  0  0  0  0  1  0  0  0  0  0  0
  -28.9040  -19.5200   20.7650 C   0  0  0  0  0  2  0  0  0  0  0  0
  -27.9850  -17.4510   19.6680 C   0  0  0  0  0  1  0  0  0  0  0  0
  -30.0930  -18.3360   18.7450 C   0  0  0  0  0  1  0  0  0  0  0  0
  -29.3190  -18.1300   20.0580 C   0  0  1  0  0  0  0  0  0  0  0  0
  -30.1440  -17.1080   20.9680 C   0  0  0  0  0  2  0  0  0  0  0  0
  -30.5960  -14.5950   20.4170 C   0  0  0  0  0  0  0  0  0  0  0  0
  -30.3590  -12.3770   19.3240 C   0  0  0  0  0  2  0  0  0  0  0  0
  -29.4140  -12.5140   18.1100 C   0  0  0  0  0  2  0  0  0  0  0  0
  -27.9400  -12.3630   18.5400 C   0  0  0  0  0  2  0  0  0  0  0  0
  -27.5860  -13.2250   19.7800 C   0  0  0  0  0  3  0  0  0  0  0  0
  -28.6440  -13.0580   20.8940 C   0  0  0  0  0  2  0  0  0  0  0  0
  -29.9560  -13.3890   20.3160 N   0  0  0  0  0  0  0  0  0  0  0  0
  -31.7530  -14.7530   20.0190 O   0  0  0  0  0  0  0  0  0  0  0  0
  -29.8280  -15.6460   20.8220 N   0  0  0  0  0  0  0  0  0  0  0  0
  -28.8900  -15.3910   21.0880 H   0  0  0  0  0  0  0  0  0  0  0  0
  -25.1890  -13.8360   20.4830 C   0  0  0  0  0  0  0  0  0  0  0  0
  -24.1200  -13.0680   20.8550 C   0  0  0  0  0  0  0  0  0  0  0  0
  -24.5810  -11.7170   20.8370 C   0  0  0  0  0  0  0  0  0  0  0  0
  -26.2350  -12.9530   20.2620 N   0  0  0  0  0  0  0  0  0  0  0  0
  -25.8710  -11.6730   20.5330 N   0  0  0  0  0  0  0  0  0  0  0  0
  -23.8500  -10.4580   21.0330 C   0  0  0  0  0  0  0  0  0  0  0  0
  -24.2860   -9.4900   21.9650 C   0  0  0  0  0  3  0  0  0  0  0  0
  -23.5560   -8.2950   22.1500 C   0  0  0  0  0  3  0  0  0  0  0  0
  -22.3780   -8.0610   21.4030 C   0  0  0  0  0  0  0  0  0  0  0  0
  -21.9620   -9.0170   20.4600 C   0  0  0  0  0  3  0  0  0  0  0  0
  -22.6920  -10.2030   20.2730 C   0  0  0  0  0  3  0  0  0  0  0  0
  -21.6200   -6.9190   21.4960 O   0  0  0  0  0  0  0  0  0  0  0  0
  -21.5870   -6.1700   22.6460 C   0  0  0  0  0  0  0  0  0  0  0  0
  -21.1870   -6.7210   23.8830 C   0  0  0  0  0  3  0  0  0  0  0  0
  -21.1020   -5.8980   25.0250 C   0  0  0  0  0  3  0  0  0  0  0  0
  -21.4050   -4.5270   24.9290 C   0  0  0  0  0  0  0  0  0  0  0  0
  -21.7960   -3.9760   23.6960 C   0  0  0  0  0  3  0  0  0  0  0  0
  -21.8830   -4.7950   22.5570 C   0  0  0  0  0  0  0  0  0  0  0  0
  -22.2420   -4.2560   21.3670 F   0  0  0  0  0  0  0  0  0  0  0  0
  -21.3160   -3.7340   26.0230 F   0  0  0  0  0  0  0  0  0  0  0  0
  -22.7220  -13.5510   21.1190 C   0  0  0  0  0  0  0  0  0  0  0  0
  -21.9900  -12.8640   21.9880 N   0  0  0  0  0  0  0  0  0  0  0  0
  -22.2880  -14.5730   20.5870 O   0  0  0  0  0  0  0  0  0  0  0  0
  -22.3550  -12.0390   22.4410 H   0  0  0  0  0  0  0  0  0  0  0  0
  -21.0510  -13.1680   22.2050 H   0  0  0  0  0  0  0  0  0  0  0  0
  -25.3500  -15.2040   20.2920 N   0  0  0  0  0  0  0  0  0  0  0  0
  -24.5760  -15.8520   20.3860 H   0  0  0  0  0  0  0  0  0  0  0  0
  -26.1870  -15.6400   19.9280 H   0  0  0  0  0  0  0  0  0  0  0  0
  1  3  1  0
  1  5  1  0
  2  4  1  0
  3  6  1  0
  5 12  1  0
  5  2  1  0
  6 54  1  6
  6  7  1  0
  6  4  1  0
  7  8  1  0
  8 11  1  0
  8 10  1  0
  9  7  2  0
 12 13  1  0
 14 25  2  0
 15 13  1  0
 15 20  1  0
 16 24  1  0
 16 26  1  0
 17 23  1  0
 17 19  1  0
 18 24  1  0
 19 18  1  0
 20 19  2  0
 21 22  1  0
 21 15  2  0
 22 17  2  0
 23 16  1  0
 24 14  1  0
 26 28  2  0
 27 26  1  0
 29 27  1  0
 30 39  2  0
 30 35  1  0
 31 27  1  0
 31 35  1  0
 32 31  1  0
 33 34  1  0
 33 32  1  0
 34 30  1  0
 35 36  2  0
 36 37  1  0
 38 37  2  0
 39 38  1  0
 40 14  1  0
 40 41  1  0
 40 50  1  0
 41 44  1  0
 42 46  1  0
 42 41  1  0
 43 42  2  0
 46 45  1  0
 48 46  1  0
 48 49  1  0
 48 47  1  0
 50 53  1  1
 50 51  1  0
 52 50  1  0
 57 55  1  6
 56 57  1  0
 57 54  1  0
 57 58  1  0
 59 67  1  0
 60 65  1  0
 61 62  1  0
 61 60  1  0
 63 62  1  0
 63 72  1  0
 63 64  1  0
 65 59  1  0
 65 64  1  0
 66 59  2  0
 67 58  1  0
 67 68  1  0
 69 70  2  0
 70 89  1  0
 71 70  1  0
 71 74  1  0
 72 69  1  0
 72 73  1  0
 73 71  2  0
 74 75  1  0
 75 76  2  0
 77 80  1  0
 77 76  1  0
 78 77  2  0
 79 78  1  0
 79 74  2  0
 80 81  1  0
 81 82  1  0
 82 83  2  0
 84 83  1  0
 84 88  1  0
 85 84  2  0
 86 81  2  0
 86 85  1  0
 87 86  1  0
 89 90  1  0
 90 93  1  0
 90 92  1  0
 91 89  2  0
 94 95  1  0
 94 69  1  0
 96 94  1  0
M  ISO  4  12 101  13 101  59 100  67 100
M  END
>  <TORSDO>  (24) 
F 21

>  <SCORE>  (24) 
-13.866

>  <name>  (24) 
23

>  <ligand_id>  (24) 
23

>  <original_smiles>  (24) 
[H]c1c([H])c([H])c2c(c1[H])C([H])([H])C([H])([H])C([H])([H])C2([H])N([H])C(=O)C1([H])N(C(=O)C([H])(N([H])C(=O)C([H])(N([H])C([H])([H])[H])C([H])([H])[H])C(C([H])([H])[H])(C([H])([H])[H])C([H])([H])[H])C([H])([H])c2c([H])c(OC([H])([H])C3([H])C([H])([H])C([H])([H])C(C(=O)N([H])[H])(C([H])([H])C(C([H])([H])[H])(C([H])([H])[H])C([H])([H])N([H])C(=O)N4C([H])([H])C([H])([H])C([H])([H])C([H])(n5nc(-c6c([H])c([H])c(Oc7c([H])c([H])c(F)c([H])c7F)c([H])c6[H])c(C(=O)N([H])[H])c5N([H])[H])C4([H])[H])C([H])([H])C3([H])[H])c([H])c([H])c2C1([H])[H]

>  <smiles>  (24) 
[H]c1c([H])c([H])c2c(c1[H])C([H])([H])C([H])([H])C([H])([H])C2([H])N([H])C(=O)C1([H])N(C(=O)C([H])(N([H])C(=O)C([H])(N([H])C([H])([H])[H])C([H])([H])[H])C(C([H])([H])[H])(C([H])([H])[H])C([H])([H])[H])C([H])([H])c2c([H])c(OC([H])([H])C3([H])C([H])([H])C([H])([H])C(C(=O)N([H])[H])(C([H])([H])C(C([H])([H])[H])(C([H])([H])[H])C([H])([H])N([H])C(=O)N4C([H])([H])C([H])([H])C([H])([H])C([H])(n5nc(-c6c([H])c([H])c(Oc7c([H])c([H])c(F)c([H])c7F)c([H])c6[H])c(C(=O)N([H])[H])c5N([H])[H])C4([H])[H])C([H])([H])C3([H])[H])c([H])c([H])c2C1([H])[H]

$$$$
24:0:0
     RDKit          3D

 90 98  0  0  1  0  0  0  0  0999 V2000
  -29.9250  -19.3210   22.0300 C   0  0  0  0  0  3  0  0  0  0  0  0
  -29.5900  -20.6680   21.7200 C   0  0  0  0  0  3  0  0  0  0  0  0
  -29.7630  -18.6970   19.7260 C   0  0  0  0  0  3  0  0  0  0  0  0
  -29.9520  -18.2730   21.0670 C   0  0  0  0  0  0  0  0  0  0  0  0
  -29.2600  -21.0700   20.4070 C   0  0  0  0  0  0  0  0  0  0  0  0
  -29.4150  -20.0580   19.4020 C   0  0  0  0  0  0  0  0  0  0  0  0
  -29.1380  -20.4010   17.9470 C   0  0  0  0  0  1  0  0  0  0  0  0
  -30.0680  -16.8600   21.6380 C   0  0  0  0  0  3  0  0  0  0  0  0
  -30.3140  -15.5270   21.3690 C   0  0  0  0  0  3  0  0  0  0  0  0
  -30.7670  -14.7230   20.2120 C   0  0  0  0  0  0  0  0  0  0  0  0
  -30.4570  -12.5850   18.9350 C   0  0  0  0  0  2  0  0  0  0  0  0
  -29.4420  -12.7660   17.7840 C   0  0  0  0  0  2  0  0  0  0  0  0
  -27.9960  -12.5760   18.2810 C   0  0  0  0  0  2  0  0  0  0  0  0
  -27.7160  -13.3750   19.5780 C   0  0  0  0  0  3  0  0  0  0  0  0
  -28.8230  -13.1340   20.6260 C   0  0  0  0  0  2  0  0  0  0  0  0
  -30.1120  -13.5260   20.0220 N   0  0  0  0  0  0  0  0  0  0  0  0
  -31.7640  -15.0070   19.5410 O   0  0  0  0  0  0  0  0  0  0  0  0
  -25.3500  -13.9600   20.3910 C   0  0  0  0  0  0  0  0  0  0  0  0
  -24.3030  -13.1780   20.7990 C   0  0  0  0  0  0  0  0  0  0  0  0
  -24.7720  -11.8290   20.7430 C   0  0  0  0  0  0  0  0  0  0  0  0
  -26.3880  -13.0860   20.1130 N   0  0  0  0  0  0  0  0  0  0  0  0
  -26.0480  -11.8000   20.3810 N   0  0  0  0  0  0  0  0  0  0  0  0
  -24.0620  -10.5610   20.9550 C   0  0  0  0  0  0  0  0  0  0  0  0
  -24.5150   -9.6090   21.8950 C   0  0  0  0  0  3  0  0  0  0  0  0
  -23.8040   -8.4050   22.0910 C   0  0  0  0  0  3  0  0  0  0  0  0
  -22.6260   -8.1470   21.3500 C   0  0  0  0  0  0  0  0  0  0  0  0
  -22.1930   -9.0880   20.3990 C   0  0  0  0  0  3  0  0  0  0  0  0
  -22.9050  -10.2840   20.2000 C   0  0  0  0  0  3  0  0  0  0  0  0
  -21.8830   -6.9950   21.4560 O   0  0  0  0  0  0  0  0  0  0  0  0
  -21.8200   -6.2880   22.6300 C   0  0  0  0  0  0  0  0  0  0  0  0
  -21.3590   -6.8710   23.8300 C   0  0  0  0  0  3  0  0  0  0  0  0
  -21.2430   -6.0870   24.9950 C   0  0  0  0  0  3  0  0  0  0  0  0
  -21.5820   -4.7210   24.9620 C   0  0  0  0  0  0  0  0  0  0  0  0
  -22.0380   -4.1370   23.7670 C   0  0  0  0  0  3  0  0  0  0  0  0
  -22.1540   -4.9180   22.6040 C   0  0  0  0  0  0  0  0  0  0  0  0
  -22.5720   -4.3460   21.4490 F   0  0  0  0  0  0  0  0  0  0  0  0
  -21.4650   -3.9650   26.0790 F   0  0  0  0  0  0  0  0  0  0  0  0
  -22.9160  -13.6460   21.1310 C   0  0  0  0  0  0  0  0  0  0  0  0
  -22.2290  -12.9420   22.0260 N   0  0  0  0  0  0  0  0  0  0  0  0
  -22.4470  -14.6670   20.6310 O   0  0  0  0  0  0  0  0  0  0  0  0
  -22.6210  -12.1150   22.4520 H   0  0  0  0  0  0  0  0  0  0  0  0
  -21.3000  -13.2380   22.2910 H   0  0  0  0  0  0  0  0  0  0  0  0
  -25.5030  -15.3310   20.2140 N   0  0  0  0  0  0  0  0  0  0  0  0
  -24.7460  -15.9920   20.3510 H   0  0  0  0  0  0  0  0  0  0  0  0
  -26.3580  -15.7720   19.8920 H   0  0  0  0  0  0  0  0  0  0  0  0
  -28.5070  -22.4440   20.1720 C   0  0  0  0  0  2  0  0  0  0  0  0
  -29.1700  -23.9020   20.2550 C   0  0  0  0  0  2  0  0  0  0  0  0
  -27.7830  -25.0950   22.0390 C   0  0  0  0  0  1  0  0  0  0  0  0
  -28.1270  -25.0930   20.5380 C   0  0  0  0  0  3  0  0  0  0  0  0
  -28.4010  -26.5220   20.1800 O   0  0  0  0  0  0  0  0  0  0  0  0
  -24.6760  -31.9280   23.2400 C   0  0  0  0  0  0  0  0  0  0  0  0
  -27.2930  -27.3970   20.1330 C   0  0  0  0  0  0  0  0  0  0  0  0
  -23.4650  -30.5200   21.6150 C   0  0  0  0  0  3  0  0  0  0  0  0
  -24.9140  -28.9940   20.1610 C   0  0  0  0  0  0  0  0  0  0  0  0
  -25.9980  -30.8650   21.3970 C   0  0  0  0  0  2  0  0  0  0  0  0
  -26.0860  -29.4880   20.7460 C   0  0  0  0  0  0  0  0  0  0  0  0
  -27.2800  -28.7010   20.7250 C   0  0  0  0  0  3  0  0  0  0  0  0
  -26.1020  -26.9760   19.5000 C   0  0  0  0  0  3  0  0  0  0  0  0
  -24.9240  -27.7440   19.5270 C   0  0  0  0  0  3  0  0  0  0  0  0
  -23.6660  -29.8520   20.2310 C   0  0  0  0  0  2  0  0  0  0  0  0
  -24.7320  -31.1200   22.1410 N   0  0  0  0  0  0  0  0  0  0  0  0
  -23.5980  -32.1930   23.7900 O   0  0  0  0  0  0  0  0  0  0  0  0
  -22.8270  -29.4920   22.5820 C   0  0  0  0  0  0  0  0  0  0  0  0
  -21.5040  -29.2870   22.4620 N   0  0  0  0  0  0  0  0  0  0  0  0
  -23.5220  -28.8820   23.4000 O   0  0  0  0  0  0  0  0  0  0  0  0
  -21.0010  -29.8320   21.7750 H   0  0  0  0  0  0  0  0  0  0  0  0
  -18.1540  -28.0200   22.9720 C   0  0  0  0  0  0  0  0  0  0  0  0
  -20.7050  -28.3370   23.2400 C   0  0  0  0  0  3  0  0  0  0  0  0
  -20.8390  -26.9030   22.6750 C   0  0  0  0  0  2  0  0  0  0  0  0
  -19.7450  -26.5480   21.6640 C   0  0  0  0  0  2  0  0  0  0  0  0
  -18.3610  -26.6690   22.3060 C   0  0  0  0  0  2  0  0  0  0  0  0
  -19.2560  -28.8090   23.3950 C   0  0  0  0  0  0  0  0  0  0  0  0
  -19.0090  -30.0730   23.9760 C   0  0  0  0  0  3  0  0  0  0  0  0
  -17.6940  -30.5470   24.1370 C   0  0  0  0  0  3  0  0  0  0  0  0
  -16.6070  -29.7530   23.7310 C   0  0  0  0  0  3  0  0  0  0  0  0
  -16.8370  -28.4910   23.1530 C   0  0  0  0  0  3  0  0  0  0  0  0
  -25.9610  -32.5740   23.8450 C   0  0  0  0  0  3  0  0  0  0  0  0
  -26.4940  -31.8120   25.1210 C   0  0  1  0  0  0  0  0  0  0  0  0
  -25.4120  -31.5710   26.1990 C   0  0  0  0  0  1  0  0  0  0  0  0
  -27.0850  -30.4380   24.7290 C   0  0  0  0  0  1  0  0  0  0  0  0
  -27.6440  -32.6190   25.7690 C   0  0  0  0  0  1  0  0  0  0  0  0
  -25.6430  -33.9720   24.1720 N   0  0  0  0  0  0  0  0  0  0  0  0
  -25.9630  -35.0230   23.4070 C   0  0  0  0  0  0  0  0  0  0  0  0
  -26.6250  -34.9210   22.3710 O   0  0  0  0  0  0  0  0  0  0  0  0
  -25.0560  -34.1260   24.9790 H   0  0  0  0  0  0  0  0  0  0  0  0
  -24.2240  -36.8060   23.0540 C   0  0  0  0  0  1  0  0  0  0  0  0
  -25.4690  -36.4090   23.8630 C   0  0  0  0  0  3  0  0  0  0  0  0
  -27.6010  -37.3080   24.6850 C   0  0  0  0  0  1  0  0  0  0  0  0
  -26.4950  -37.4680   23.7430 N   0  0  0  0  0  0  0  0  0  0  0  0
  -26.0860  -38.3870   23.8900 H   0  0  0  0  0  0  0  0  0  0  0  0
  2  1  1  0
  3  4  1  0
  4  8  1  0
  4  1  2  0
  5  2  2  0
  6  3  2  0
  6  5  1  0
  7  6  1  0
  9  8  2  0
 10  9  1  0
 11 16  1  0
 12 13  1  0
 12 11  1  0
 14 13  1  0
 14 21  1  0
 14 15  1  0
 16 10  1  0
 16 15  1  0
 17 10  2  0
 18 19  2  0
 19 38  1  0
 20 19  1  0
 20 23  1  0
 21 22  1  0
 21 18  1  0
 22 20  2  0
 23 24  1  0
 24 25  2  0
 26 29  1  0
 26 25  1  0
 27 26  2  0
 28 27  1  0
 28 23  2  0
 29 30  1  0
 30 31  1  0
 31 32  2  0
 33 32  1  0
 33 37  1  0
 34 33  2  0
 35 30  2  0
 35 34  1  0
 36 35  1  0
 38 39  1  0
 39 42  1  0
 39 41  1  0
 40 38  2  0
 43 44  1  0
 43 18  1  0
 45 43  1  0
 46 47  1  0
 46  5  1  0
 47 49  1  0
 49 48  1  0
 50 49  1  0
 51 62  2  0
 52 50  1  0
 52 57  1  0
 53 61  1  0
 53 63  1  0
 54 60  1  0
 54 56  1  0
 55 61  1  0
 56 55  1  0
 57 56  2  0
 58 59  1  0
 58 52  2  0
 59 54  2  0
 60 53  1  0
 61 51  1  0
 63 65  2  0
 64 63  1  0
 66 64  1  0
 67 76  2  0
 67 72  1  0
 68 64  1  0
 68 72  1  0
 69 68  1  0
 70 71  1  0
 70 69  1  0
 71 67  1  0
 72 73  2  0
 73 74  1  0
 75 74  2  0
 76 75  1  0
 77 51  1  0
 77 82  1  0
 77 78  1  0
 78 81  1  1
 78 79  1  0
 80 78  1  0
 82 85  1  0
 83 87  1  0
 83 82  1  0
 84 83  2  0
 87 86  1  0
 89 87  1  0
 89 90  1  0
 89 88  1  0
M  ISO  4   9 100  10 100  49 101  50 101
M  END
>  <TORSDO>  (25) 
F 20

>  <SCORE>  (25) 
-13.142

>  <name>  (25) 
24

>  <ligand_id>  (25) 
24

>  <original_smiles>  (25) 
[H]C(C(=O)N1C([H])([H])C([H])([H])C([H])([H])C([H])(n2nc(-c3c([H])c([H])c(Oc4c([H])c([H])c(F)c([H])c4F)c([H])c3[H])c(C(=O)N([H])[H])c2N([H])[H])C1([H])[H])=C([H])c1c([H])c([H])c(C([H])([H])C([H])([H])C([H])(Oc2c([H])c([H])c3c(c2[H])C([H])([H])N(C(=O)C([H])(N([H])C(=O)C([H])(N([H])C([H])([H])[H])C([H])([H])[H])C(C([H])([H])[H])(C([H])([H])[H])C([H])([H])[H])C([H])(C(=O)N([H])C2([H])c4c([H])c([H])c([H])c([H])c4C([H])([H])C([H])([H])C2([H])[H])C3([H])[H])C([H])([H])[H])c(C([H])([H])[H])c1[H]

>  <smiles>  (25) 
[H]C(C(=O)N1C([H])([H])C([H])([H])C([H])([H])C([H])(n2nc(-c3c([H])c([H])c(Oc4c([H])c([H])c(F)c([H])c4F)c([H])c3[H])c(C(=O)N([H])[H])c2N([H])[H])C1([H])[H])=C([H])c1c([H])c([H])c(C([H])([H])C([H])([H])C([H])(Oc2c([H])c([H])c3c(c2[H])C([H])([H])N(C(=O)C([H])(N([H])C(=O)C([H])(N([H])C([H])([H])[H])C([H])([H])[H])C(C([H])([H])[H])(C([H])([H])[H])C([H])([H])[H])C([H])(C(=O)N([H])C2([H])c4c([H])c([H])c([H])c([H])c4C([H])([H])C([H])([H])C2([H])[H])C3([H])[H])C([H])([H])[H])c(C([H])([H])[H])c1[H]

$$$$
25:0:0
     RDKit          3D

 92101  0  0  1  0  0  0  0  0999 V2000
  -29.6130  -18.9900   19.7560 C   0  0  0  0  0  0  0  0  0  0  0  0
  -29.4870  -20.3070   20.3020 N   0  0  0  0  0  0  0  0  0  0  0  0
  -29.2090  -18.7970   18.6100 O   0  0  0  0  0  0  0  0  0  0  0  0
  -29.8840  -20.3900   21.2280 H   0  0  0  0  0  0  0  0  0  0  0  0
  -29.3230  -17.6950   21.8740 C   0  0  0  0  0  2  0  0  0  0  0  0
  -31.6770  -16.9980   22.7100 C   0  0  0  0  0  2  0  0  0  0  0  0
  -30.5490  -17.9760   22.6920 C   0  0  0  0  0  3  0  0  0  0  0  0
  -30.1650  -17.6380   20.5670 C   0  0  2  0  0  0  0  0  0  0  0  0
  -31.4100  -17.8220   21.4530 C   0  0  2  0  0  0  0  0  0  0  0  0
  -32.4380  -18.8450   21.0050 C   0  0  0  0  0  1  0  0  0  0  0  0
  -30.8840  -14.9720   19.9060 C   0  0  0  0  0  0  0  0  0  0  0  0
  -30.6840  -12.6320   18.9100 C   0  0  0  0  0  2  0  0  0  0  0  0
  -29.6870  -12.5960   17.7260 C   0  0  0  0  0  2  0  0  0  0  0  0
  -28.2390  -12.4390   18.2300 C   0  0  0  0  0  2  0  0  0  0  0  0
  -27.9220  -13.3880   19.4170 C   0  0  0  0  0  3  0  0  0  0  0  0
  -29.0200  -13.3310   20.4960 C   0  0  0  0  0  2  0  0  0  0  0  0
  -30.2680  -13.7240   19.8320 N   0  0  0  0  0  0  0  0  0  0  0  0
  -32.0970  -15.0210   19.6620 O   0  0  0  0  0  0  0  0  0  0  0  0
  -30.0740  -16.1320   20.0590 N   0  0  0  0  0  0  0  0  0  0  0  0
  -29.1060  -15.8610   20.0010 H   0  0  0  0  0  0  0  0  0  0  0  0
  -25.6090  -14.0780   20.2620 C   0  0  0  0  0  0  0  0  0  0  0  0
  -24.5260  -13.3510   20.6740 C   0  0  0  0  0  0  0  0  0  0  0  0
  -24.9290  -11.9810   20.6310 C   0  0  0  0  0  0  0  0  0  0  0  0
  -26.5980  -13.1530   19.9770 N   0  0  0  0  0  0  0  0  0  0  0  0
  -26.2030  -11.8880   20.2660 N   0  0  0  0  0  0  0  0  0  0  0  0
  -24.1580  -10.7520   20.8530 C   0  0  0  0  0  0  0  0  0  0  0  0
  -24.5690   -9.7790   21.7900 C   0  0  0  0  0  3  0  0  0  0  0  0
  -23.7970   -8.6160   21.9960 C   0  0  0  0  0  3  0  0  0  0  0  0
  -22.6020   -8.4190   21.2650 C   0  0  0  0  0  0  0  0  0  0  0  0
  -22.2140   -9.3790   20.3150 C   0  0  0  0  0  3  0  0  0  0  0  0
  -22.9870  -10.5310   20.1050 C   0  0  0  0  0  3  0  0  0  0  0  0
  -21.8030   -7.3060   21.3860 O   0  0  0  0  0  0  0  0  0  0  0  0
  -21.7080   -6.6120   22.5640 C   0  0  0  0  0  0  0  0  0  0  0  0
  -21.2920   -7.2290   23.7630 C   0  0  0  0  0  3  0  0  0  0  0  0
  -21.1380   -6.4620   24.9350 C   0  0  0  0  0  3  0  0  0  0  0  0
  -21.3940   -5.0780   24.9100 C   0  0  0  0  0  0  0  0  0  0  0  0
  -21.8030   -4.4590   23.7160 C   0  0  0  0  0  3  0  0  0  0  0  0
  -21.9560   -5.2230   22.5440 C   0  0  0  0  0  0  0  0  0  0  0  0
  -22.3270   -4.6170   21.3930 F   0  0  0  0  0  0  0  0  0  0  0  0
  -21.2430   -4.3400   26.0340 F   0  0  0  0  0  0  0  0  0  0  0  0
  -23.1620  -13.8880   21.0020 C   0  0  0  0  0  0  0  0  0  0  0  0
  -22.4450  -13.2310   21.9050 N   0  0  0  0  0  0  0  0  0  0  0  0
  -22.7420  -14.9240   20.4850 O   0  0  0  0  0  0  0  0  0  0  0  0
  -22.7930  -12.3870   22.3380 H   0  0  0  0  0  0  0  0  0  0  0  0
  -21.5320  -13.5700   22.1710 H   0  0  0  0  0  0  0  0  0  0  0  0
  -25.8240  -15.4430   20.0800 N   0  0  0  0  0  0  0  0  0  0  0  0
  -25.0950  -16.1280   20.2490 H   0  0  0  0  0  0  0  0  0  0  0  0
  -26.6600  -15.8550   19.6920 H   0  0  0  0  0  0  0  0  0  0  0  0
  -28.7450  -21.6170   19.8010 C   0  0  0  0  0  2  0  0  0  0  0  0
  -28.8540  -23.1770   20.4690 C   0  0  0  0  0  3  0  0  0  0  0  0
  -27.9460  -24.5350   19.9990 C   0  0  0  0  0  3  0  0  0  0  0  0
  -28.1460  -26.0550   20.3370 O   0  0  0  0  0  0  0  0  0  0  0  0
  -24.6210  -31.8790   23.2120 C   0  0  0  0  0  0  0  0  0  0  0  0
  -27.1040  -27.0560   20.2430 C   0  0  0  0  0  0  0  0  0  0  0  0
  -23.3830  -30.4620   21.6180 C   0  0  0  0  0  3  0  0  0  0  0  0
  -24.7930  -28.8370   20.2070 C   0  0  0  0  0  0  0  0  0  0  0  0
  -25.9390  -30.6880   21.4180 C   0  0  0  0  0  2  0  0  0  0  0  0
  -25.9870  -29.2790   20.7940 C   0  0  0  0  0  0  0  0  0  0  0  0
  -27.1380  -28.4020   20.8020 C   0  0  0  0  0  3  0  0  0  0  0  0
  -25.8900  -26.7270   19.6030 C   0  0  0  0  0  3  0  0  0  0  0  0
  -24.7610  -27.5750   19.5960 C   0  0  0  0  0  3  0  0  0  0  0  0
  -23.5770  -29.7470   20.2540 C   0  0  0  0  0  2  0  0  0  0  0  0
  -24.6710  -31.0310   22.1380 N   0  0  0  0  0  0  0  0  0  0  0  0
  -23.5430  -32.1900   23.7440 O   0  0  0  0  0  0  0  0  0  0  0  0
  -22.7000  -29.4880   22.6110 C   0  0  0  0  0  0  0  0  0  0  0  0
  -21.3730  -29.3140   22.4830 N   0  0  0  0  0  0  0  0  0  0  0  0
  -23.3700  -28.8880   23.4560 O   0  0  0  0  0  0  0  0  0  0  0  0
  -20.8920  -29.8410   21.7670 H   0  0  0  0  0  0  0  0  0  0  0  0
  -17.9970  -28.1070   22.9900 C   0  0  0  0  0  0  0  0  0  0  0  0
  -20.5490  -28.4040   23.2830 C   0  0  0  0  0  3  0  0  0  0  0  0
  -20.6730  -26.9520   22.7690 C   0  0  0  0  0  2  0  0  0  0  0  0
  -19.5870  -26.5760   21.7550 C   0  0  0  0  0  2  0  0  0  0  0  0
  -18.1940  -26.7330   22.3720 C   0  0  0  0  0  2  0  0  0  0  0  0
  -19.1020  -28.8970   23.4030 C   0  0  0  0  0  0  0  0  0  0  0  0
  -18.8610  -30.1800   23.9430 C   0  0  0  0  0  3  0  0  0  0  0  0
  -17.5490  -30.6720   24.0750 C   0  0  0  0  0  3  0  0  0  0  0  0
  -16.4580  -29.8790   23.6770 C   0  0  0  0  0  3  0  0  0  0  0  0
  -16.6830  -28.5990   23.1410 C   0  0  0  0  0  3  0  0  0  0  0  0
  -25.9130  -32.5090   23.8110 C   0  0  0  0  0  3  0  0  0  0  0  0
  -26.4570  -31.7300   25.0720 C   0  0  1  0  0  0  0  0  0  0  0  0
  -25.3840  -31.4860   26.1590 C   0  0  0  0  0  1  0  0  0  0  0  0
  -27.0330  -30.3550   24.6600 C   0  0  0  0  0  1  0  0  0  0  0  0
  -27.6220  -32.5200   25.7130 C   0  0  0  0  0  1  0  0  0  0  0  0
  -25.6100  -33.9040   24.1640 N   0  0  0  0  0  0  0  0  0  0  0  0
  -25.9190  -34.9690   23.4100 C   0  0  0  0  0  0  0  0  0  0  0  0
  -26.5560  -34.8780   22.3570 O   0  0  0  0  0  0  0  0  0  0  0  0
  -25.0400  -34.0510   24.9840 H   0  0  0  0  0  0  0  0  0  0  0  0
  -24.1750  -36.7630   23.1470 C   0  0  0  0  0  1  0  0  0  0  0  0
  -25.4500  -36.3520   23.9020 C   0  0  0  0  0  3  0  0  0  0  0  0
  -27.6130  -37.2340   24.6590 C   0  0  0  0  0  1  0  0  0  0  0  0
  -26.4750  -37.4080   23.7600 N   0  0  0  0  0  0  0  0  0  0  0  0
  -26.0720  -38.3250   23.9340 H   0  0  0  0  0  0  0  0  0  0  0  0
  1  2  1  0
  2  4  1  0
  3  1  2  0
  7  5  1  0
  7  6  1  0
  8  1  1  0
  8  9  1  0
  8  5  1  0
  9 10  1  6
  9  7  1  0
  9  6  1  0
 11 19  1  0
 12 17  1  0
 13 14  1  0
 13 12  1  0
 15 14  1  0
 15 24  1  0
 15 16  1  0
 17 11  1  0
 17 16  1  0
 18 11  2  0
  8 19  1  6
 20 19  1  0
 21 22  2  0
 22 41  1  0
 23 22  1  0
 23 26  1  0
 24 21  1  0
 24 25  1  0
 25 23  2  0
 26 27  1  0
 27 28  2  0
 29 32  1  0
 29 28  1  0
 30 29  2  0
 31 30  1  0
 31 26  2  0
 32 33  1  0
 33 34  1  0
 34 35  2  0
 36 35  1  0
 36 40  1  0
 37 36  2  0
 38 33  2  0
 38 37  1  0
 39 38  1  0
 41 42  1  0
 42 45  1  0
 42 44  1  0
 43 41  2  0
 46 47  1  0
 46 21  1  0
 48 46  1  0
 49  2  1  0
 49 50  1  0
 51 52  1  0
 51 50  2  0
 53 64  2  0
 54 52  1  0
 54 59  1  0
 55 63  1  0
 55 65  1  0
 56 62  1  0
 56 58  1  0
 57 63  1  0
 58 59  2  0
 58 57  1  0
 60 54  2  0
 61 60  1  0
 61 56  2  0
 62 55  1  0
 63 53  1  0
 65 67  2  0
 66 65  1  0
 68 66  1  0
 69 78  2  0
 69 74  1  0
 70 66  1  0
 70 74  1  0
 71 70  1  0
 72 73  1  0
 72 71  1  0
 73 69  1  0
 74 75  2  0
 75 76  1  0
 77 76  2  0
 78 77  1  0
 79 53  1  0
 79 84  1  0
 79 80  1  0
 80 83  1  1
 80 81  1  0
 82 80  1  0
 84 87  1  0
 85 89  1  0
 85 84  1  0
 86 85  2  0
 89 88  1  0
 91 89  1  0
 91 92  1  0
 91 90  1  0
M  ISO  4  11 100  19 100  51 101  52 101
M  END
>  <TORSDO>  (26) 
F 20

>  <SCORE>  (26) 
-12.609

>  <name>  (26) 
25

>  <ligand_id>  (26) 
25

>  <original_smiles>  (26) 
[H]c1c([H])c([H])c2c(c1[H])C([H])([H])C([H])([H])C([H])([H])C2([H])N([H])C(=O)C1([H])N(C(=O)C([H])(N([H])C(=O)C([H])(N([H])C([H])([H])[H])C([H])([H])[H])C(C([H])([H])[H])(C([H])([H])[H])C([H])([H])[H])C([H])([H])c2c([H])c(OC([H])([H])C([H])([H])C([H])([H])N([H])C(=O)C3(N([H])C(=O)N4C([H])([H])C([H])([H])C([H])([H])C([H])(n5nc(-c6c([H])c([H])c(Oc7c([H])c([H])c(F)c([H])c7F)c([H])c6[H])c(C(=O)N([H])[H])c5N([H])[H])C4([H])[H])C([H])([H])C4([H])C([H])([H])C34C([H])([H])[H])c([H])c([H])c2C1([H])[H]

>  <smiles>  (26) 
[H]c1c([H])c([H])c2c(c1[H])C([H])([H])C([H])([H])C([H])([H])C2([H])N([H])C(=O)C1([H])N(C(=O)C([H])(N([H])C(=O)C([H])(N([H])C([H])([H])[H])C([H])([H])[H])C(C([H])([H])[H])(C([H])([H])[H])C([H])([H])[H])C([H])([H])c2c([H])c(OC([H])([H])C([H])([H])C([H])([H])N([H])C(=O)C3(N([H])C(=O)N4C([H])([H])C([H])([H])C([H])([H])C([H])(n5nc(-c6c([H])c([H])c(Oc7c([H])c([H])c(F)c([H])c7F)c([H])c6[H])c(C(=O)N([H])[H])c5N([H])[H])C4([H])[H])C([H])([H])C4([H])C([H])([H])C34C([H])([H])[H])c([H])c([H])c2C1([H])[H]

$$$$
26:0:0
     RDKit          3D

 96105  0  0  1  0  0  0  0  0999 V2000
  -27.0770  -19.4680   18.0720 C   0  0  0  0  0  2  0  0  0  0  0  0
  -27.9050  -18.3790   18.8310 C   0  0  0  0  0  2  0  0  0  0  0  0
  -29.8690  -20.0410   18.7080 C   0  0  0  0  0  1  0  0  0  0  0  0
  -29.3200  -18.7570   19.3850 C   0  0  0  0  0  3  0  0  0  0  0  0
  -30.8820  -15.3990   20.5900 C   0  0  0  0  0  0  0  0  0  0  0  0
  -30.7170  -13.0460   19.9100 C   0  0  0  0  0  2  0  0  0  0  0  0
  -29.9260  -12.9350   18.5980 C   0  0  0  0  0  2  0  0  0  0  0  0
  -28.4280  -12.7610   18.9060 C   0  0  0  0  0  2  0  0  0  0  0  0
  -27.8960  -13.7900   19.9410 C   0  0  0  0  0  3  0  0  0  0  0  0
  -28.8420  -13.9810   21.1480 C   0  0  0  0  0  2  0  0  0  0  0  0
  -30.1910  -14.2230   20.6250 N   0  0  0  0  0  0  0  0  0  0  0  0
  -32.0860  -15.3840   20.3430 O   0  0  0  0  0  0  0  0  0  0  0  0
  -31.8570  -18.0540   19.3830 C   0  0  0  0  0  2  0  0  0  0  0  0
  -32.3970  -18.4820   20.7690 C   0  0  0  0  0  2  0  0  0  0  0  0
  -30.7390  -19.9710   22.1970 C   0  0  0  0  0  2  0  0  0  0  0  0
  -31.6820  -19.2790   23.1380 C   0  0  0  0  0  2  0  0  0  0  0  0
  -30.3900  -17.3590   21.8730 C   0  0  0  0  0  2  0  0  0  0  0  0
  -30.3740  -17.5550   19.4430 C   0  0  0  0  0  3  0  0  0  0  0  0
  -31.3110  -18.6000   21.8380 C   0  0  2  0  0  0  0  0  0  0  0  0
  -30.2180  -16.6020   20.6080 N   0  0  0  0  0  0  0  0  0  0  0  0
  -25.4630  -14.3200   20.5640 C   0  0  0  0  0  0  0  0  0  0  0  0
  -24.3940  -13.5190   20.8580 C   0  0  0  0  0  0  0  0  0  0  0  0
  -24.8830  -12.1760   20.8180 C   0  0  0  0  0  0  0  0  0  0  0  0
  -26.5330  -13.4670   20.3590 N   0  0  0  0  0  0  0  0  0  0  0  0
  -26.1900  -12.1700   20.5810 N   0  0  0  0  0  0  0  0  0  0  0  0
  -24.1720  -10.8960   20.9370 C   0  0  0  0  0  0  0  0  0  0  0  0
  -24.5450   -9.9300   21.8970 C   0  0  0  0  0  3  0  0  0  0  0  0
  -23.8320   -8.7170   22.0090 C   0  0  0  0  0  3  0  0  0  0  0  0
  -22.7320   -8.4600   21.1580 C   0  0  0  0  0  0  0  0  0  0  0  0
  -22.3770   -9.4140   20.1870 C   0  0  0  0  0  3  0  0  0  0  0  0
  -23.0920  -10.6190   20.0750 C   0  0  0  0  0  3  0  0  0  0  0  0
  -21.9980   -7.2990   21.1740 O   0  0  0  0  0  0  0  0  0  0  0  0
  -21.8120   -6.5800   22.3270 C   0  0  0  0  0  0  0  0  0  0  0  0
  -21.1740   -7.1360   23.4580 C   0  0  0  0  0  3  0  0  0  0  0  0
  -20.9410   -6.3400   24.5990 C   0  0  0  0  0  3  0  0  0  0  0  0
  -21.3370   -4.9880   24.6070 C   0  0  0  0  0  0  0  0  0  0  0  0
  -21.9670   -4.4320   23.4790 C   0  0  0  0  0  3  0  0  0  0  0  0
  -22.2010   -5.2260   22.3430 C   0  0  0  0  0  0  0  0  0  0  0  0
  -22.7880   -4.6770   21.2520 F   0  0  0  0  0  0  0  0  0  0  0  0
  -21.1090   -4.2220   25.6990 F   0  0  0  0  0  0  0  0  0  0  0  0
  -22.9760  -13.9620   21.0700 C   0  0  0  0  0  0  0  0  0  0  0  0
  -22.2180  -13.2320   21.8790 N   0  0  0  0  0  0  0  0  0  0  0  0
  -22.5480  -14.9920   20.5530 O   0  0  0  0  0  0  0  0  0  0  0  0
  -22.5770  -12.3970   22.3190 H   0  0  0  0  0  0  0  0  0  0  0  0
  -21.2660  -13.5130   22.0670 H   0  0  0  0  0  0  0  0  0  0  0  0
  -25.6120  -15.6980   20.4280 N   0  0  0  0  0  0  0  0  0  0  0  0
  -24.8320  -16.3390   20.5290 H   0  0  0  0  0  0  0  0  0  0  0  0
  -26.4790  -16.1550   20.1790 H   0  0  0  0  0  0  0  0  0  0  0  0
  -26.6090  -20.7100   18.8850 C   0  0  0  0  0  2  0  0  0  0  0  0
  -27.1070  -22.0160   18.3520 N   0  0  0  0  0  4  0  0  0  0  0  0
  -26.6150  -22.2410   17.5000 H   0  0  0  0  0  0  0  0  0  0  0  0
  -28.0780  -21.9050   18.1180 H   0  0  0  0  0  0  0  0  0  0  0  0
  -27.0020  -23.1360   19.3220 C   0  0  0  0  0  2  0  0  0  0  0  0
  -27.5730  -24.4950   18.8300 C   0  0  0  0  0  2  0  0  0  0  0  0
  -27.7820  -25.4670   20.0240 C   0  0  0  0  0  2  0  0  0  0  0  0
  -27.9850  -26.8500   19.6930 O   0  0  0  0  0  0  0  0  0  0  0  0
  -24.5680  -31.9210   23.3690 C   0  0  0  0  0  0  0  0  0  0  0  0
  -26.8680  -27.6530   19.7890 C   0  0  0  0  0  0  0  0  0  0  0  0
  -23.3790  -30.4310   21.7980 C   0  0  0  0  0  3  0  0  0  0  0  0
  -24.5660  -29.2670   19.9770 C   0  0  0  0  0  0  0  0  0  0  0  0
  -25.7710  -31.0390   21.3330 C   0  0  0  0  0  2  0  0  0  0  0  0
  -25.7840  -29.7270   20.5230 C   0  0  0  0  0  0  0  0  0  0  0  0
  -26.9410  -28.9190   20.4180 C   0  0  0  0  0  3  0  0  0  0  0  0
  -25.6250  -27.2200   19.2730 C   0  0  0  0  0  3  0  0  0  0  0  0
  -24.4760  -28.0110   19.3640 C   0  0  0  0  0  3  0  0  0  0  0  0
  -23.3220  -30.0670   20.2940 C   0  0  0  0  0  2  0  0  0  0  0  0
  -24.5480  -31.2610   22.1790 N   0  0  0  0  0  0  0  0  0  0  0  0
  -23.5250  -32.1470   24.0020 O   0  0  0  0  0  0  0  0  0  0  0  0
  -22.5330  -29.5990   22.7850 C   0  0  0  0  0  0  0  0  0  0  0  0
  -21.2370  -29.4070   22.5240 N   0  0  0  0  0  0  0  0  0  0  0  0
  -23.0760  -29.0140   23.7370 O   0  0  0  0  0  0  0  0  0  0  0  0
  -20.8110  -29.8800   21.7390 H   0  0  0  0  0  0  0  0  0  0  0  0
  -17.9200  -28.0300   22.9240 C   0  0  0  0  0  0  0  0  0  0  0  0
  -20.4340  -28.4350   23.2650 C   0  0  0  0  0  3  0  0  0  0  0  0
  -20.6470  -27.0050   22.7160 C   0  0  0  0  0  2  0  0  0  0  0  0
  -19.6010  -26.6050   21.6740 C   0  0  0  0  0  2  0  0  0  0  0  0
  -18.1940  -26.6840   22.2740 C   0  0  0  0  0  2  0  0  0  0  0  0
  -18.9750  -28.8610   23.3740 C   0  0  0  0  0  0  0  0  0  0  0  0
  -18.6800  -30.1160   23.9480 C   0  0  0  0  0  3  0  0  0  0  0  0
  -17.3470  -30.5480   24.0730 C   0  0  0  0  0  3  0  0  0  0  0  0
  -16.3010  -29.7190   23.6360 C   0  0  0  0  0  3  0  0  0  0  0  0
  -16.5850  -28.4630   23.0690 C   0  0  0  0  0  3  0  0  0  0  0  0
  -25.9010  -32.4670   23.9670 C   0  0  0  0  0  3  0  0  0  0  0  0
  -26.3970  -31.6390   25.2140 C   0  0  1  0  0  0  0  0  0  0  0  0
  -25.3280  -31.4470   26.3180 C   0  0  0  0  0  1  0  0  0  0  0  0
  -26.8800  -30.2390   24.7740 C   0  0  0  0  0  1  0  0  0  0  0  0
  -27.6150  -32.3480   25.8510 C   0  0  0  0  0  1  0  0  0  0  0  0
  -25.6760  -33.8710   24.3250 N   0  0  0  0  0  0  0  0  0  0  0  0
  -26.0760  -34.9130   23.5840 C   0  0  0  0  0  0  0  0  0  0  0  0
  -26.7380  -34.7860   22.5490 O   0  0  0  0  0  0  0  0  0  0  0  0
  -25.0860  -34.0470   25.1280 H   0  0  0  0  0  0  0  0  0  0  0  0
  -24.4870  -36.8320   23.2510 C   0  0  0  0  0  1  0  0  0  0  0  0
  -25.6860  -36.3230   24.0680 C   0  0  0  0  0  3  0  0  0  0  0  0
  -27.8720  -37.0340   24.9370 C   0  0  0  0  0  1  0  0  0  0  0  0
  -26.7950  -37.3010   23.9850 N   0  0  0  0  0  0  0  0  0  0  0  0
  -26.4560  -38.2480   24.1390 H   0  0  0  0  0  0  0  0  0  0  0  0
  1  2  1  0
  1 49  1  0
  2  4  1  0
  4  3  1  0
  5 20  1  0
  5 11  1  0
  6 11  1  0
  7  8  1  0
  7  6  1  0
  9  8  1  0
  9 24  1  0
  9 10  1  0
 11 10  1  0
 12  5  2  0
 13 18  1  0
 13 14  1  0
 19 14  1  6
 15 16  1  0
 18  4  1  0
 18 20  1  0
 19 17  1  0
 19 15  1  0
 19 16  1  0
 20 17  1  0
 21 22  2  0
 22 41  1  0
 23 22  1  0
 23 26  1  0
 24 21  1  0
 24 25  1  0
 25 23  2  0
 26 27  1  0
 27 28  2  0
 29 32  1  0
 29 28  1  0
 30 29  2  0
 31 30  1  0
 31 26  2  0
 32 33  1  0
 33 38  2  0
 33 34  1  0
 34 35  2  0
 35 36  1  0
 36 40  1  0
 37 36  2  0
 38 37  1  0
 39 38  1  0
 41 42  1  0
 42 45  1  0
 42 44  1  0
 43 41  2  0
 46 47  1  0
 46 21  1  0
 48 46  1  0
 50 49  1  0
 50 53  1  0
 51 50  1  0
 52 50  1  0
 54 53  1  0
 54 55  1  0
 56 58  1  0
 56 55  1  0
 57 68  2  0
 58 63  1  0
 59 67  1  0
 59 69  1  0
 60 66  1  0
 60 62  1  0
 61 67  1  0
 62 61  1  0
 63 62  2  0
 64 65  1  0
 64 58  2  0
 65 60  2  0
 66 59  1  0
 67 57  1  0
 69 71  2  0
 70 69  1  0
 72 70  1  0
 73 82  2  0
 73 78  1  0
 74 70  1  0
 74 78  1  0
 75 74  1  0
 76 77  1  0
 76 75  1  0
 77 73  1  0
 78 79  2  0
 79 80  1  0
 81 80  2  0
 82 81  1  0
 83 57  1  0
 83 88  1  0
 83 84  1  0
 84 87  1  1
 84 85  1  0
 86 84  1  0
 88 91  1  0
 89 93  1  0
 89 88  1  0
 90 89  2  0
 93 92  1  0
 95 93  1  0
 95 96  1  0
 95 94  1  0
M  ISO  4   5 100  20 100  55 101  56 101
M  END
>  <TORSDO>  (27) 
F 23

>  <SCORE>  (27) 
-12.361

>  <name>  (27) 
26

>  <ligand_id>  (27) 
26

>  <original_smiles>  (27) 
[H]c1c([H])c([H])c2c(c1[H])C([H])([H])C([H])([H])C([H])([H])C2([H])N([H])C(=O)C1([H])N(C(=O)C([H])(N([H])C(=O)C([H])(N([H])C([H])([H])[H])C([H])([H])[H])C(C([H])([H])[H])(C([H])([H])[H])C([H])([H])[H])C([H])([H])c2c([H])c(OC([H])([H])C([H])([H])C([H])([H])[N+]([H])([H])C([H])([H])C([H])([H])C([H])([H])C([H])(C([H])([H])[H])C3([H])N(C(=O)N4C([H])([H])C([H])([H])C([H])([H])C([H])(n5nc(-c6c([H])c([H])c(Oc7c([H])c([H])c(F)c([H])c7F)c([H])c6[H])c(C(=O)N([H])[H])c5N([H])[H])C4([H])[H])C([H])([H])C4(C([H])([H])C3([H])[H])C([H])([H])C4([H])[H])c([H])c([H])c2C1([H])[H]

>  <smiles>  (27) 
[H]c1c([H])c([H])c2c(c1[H])C([H])([H])C([H])([H])C([H])([H])C2([H])N([H])C(=O)C1([H])N(C(=O)C([H])(N([H])C(=O)C([H])(N([H])C([H])([H])[H])C([H])([H])[H])C(C([H])([H])[H])(C([H])([H])[H])C([H])([H])[H])C([H])([H])c2c([H])c(OC([H])([H])C([H])([H])C([H])([H])[N+]([H])([H])C([H])([H])C([H])([H])C([H])([H])C([H])(C([H])([H])[H])C3([H])N(C(=O)N4C([H])([H])C([H])([H])C([H])([H])C([H])(n5nc(-c6c([H])c([H])c(Oc7c([H])c([H])c(F)c([H])c7F)c([H])c6[H])c(C(=O)N([H])[H])c5N([H])[H])C4([H])[H])C([H])([H])C4(C([H])([H])C3([H])[H])C([H])([H])C4([H])[H])c([H])c([H])c2C1([H])[H]

$$$$
27:0:0
     RDKit          3D

 90 98  0  0  1  0  0  0  0  0999 V2000
  -29.6490  -19.8510   20.7950 C   0  0  0  0  0  0  0  0  0  0  0  0
  -29.1860  -19.6190   18.4930 C   0  0  0  0  0  2  0  0  0  0  0  0
  -29.0950  -21.1140   18.8130 C   0  0  0  0  0  2  0  0  0  0  0  0
  -29.0500  -18.8010   19.7950 C   0  0  0  0  0  3  0  0  0  0  0  0
  -29.6920  -21.3270   20.2000 C   0  0  0  0  0  3  0  0  0  0  0  0
  -30.0720  -19.5490   21.9130 O   0  0  0  0  0  0  0  0  0  0  0  0
  -29.6650  -16.8430   18.1370 C   0  0  0  0  0  1  0  0  0  0  0  0
  -29.3550  -17.1930   19.6210 C   0  0  0  0  0  3  0  0  0  0  0  0
  -30.1610  -16.2520   20.6470 C   0  0  0  0  0  2  0  0  0  0  0  0
  -30.8220  -14.8890   20.1240 C   0  0  0  0  0  0  0  0  0  0  0  0
  -30.5450  -12.6750   19.0180 C   0  0  0  0  0  2  0  0  0  0  0  0
  -29.5650  -12.8030   17.8310 C   0  0  0  0  0  2  0  0  0  0  0  0
  -28.1100  -12.6420   18.3090 C   0  0  0  0  0  2  0  0  0  0  0  0
  -27.7840  -13.4860   19.5690 C   0  0  0  0  0  3  0  0  0  0  0  0
  -28.8830  -13.3340   20.6380 C   0  0  0  0  0  2  0  0  0  0  0  0
  -30.1710  -13.6850   20.0310 N   0  0  0  0  0  0  0  0  0  0  0  0
  -31.9720  -14.9830   19.6780 O   0  0  0  0  0  0  0  0  0  0  0  0
  -25.4210  -14.0350   20.4200 C   0  0  0  0  0  0  0  0  0  0  0  0
  -24.3770  -13.2430   20.8110 C   0  0  0  0  0  0  0  0  0  0  0  0
  -24.8490  -11.8950   20.7190 C   0  0  0  0  0  0  0  0  0  0  0  0
  -26.4600  -13.1740   20.1060 N   0  0  0  0  0  0  0  0  0  0  0  0
  -26.1230  -11.8800   20.3480 N   0  0  0  0  0  0  0  0  0  0  0  0
  -24.1470  -10.6200   20.9070 C   0  0  0  0  0  0  0  0  0  0  0  0
  -24.5800   -9.6660   21.8520 C   0  0  0  0  0  3  0  0  0  0  0  0
  -23.8780   -8.4540   22.0220 C   0  0  0  0  0  3  0  0  0  0  0  0
  -22.7250   -8.1860   21.2450 C   0  0  0  0  0  0  0  0  0  0  0  0
  -22.3130   -9.1300   20.2870 C   0  0  0  0  0  3  0  0  0  0  0  0
  -23.0160  -10.3320   20.1170 C   0  0  0  0  0  3  0  0  0  0  0  0
  -21.9880   -7.0310   21.3300 O   0  0  0  0  0  0  0  0  0  0  0  0
  -21.8780   -6.3290   22.5040 C   0  0  0  0  0  0  0  0  0  0  0  0
  -21.2660   -6.8830   23.6510 C   0  0  0  0  0  3  0  0  0  0  0  0
  -21.1170   -6.1030   24.8150 C   0  0  0  0  0  3  0  0  0  0  0  0
  -21.5640   -4.7690   24.8300 C   0  0  0  0  0  0  0  0  0  0  0  0
  -22.1680   -4.2150   23.6890 C   0  0  0  0  0  3  0  0  0  0  0  0
  -22.3250   -4.9940   22.5280 C   0  0  0  0  0  0  0  0  0  0  0  0
  -22.8920   -4.4490   21.4260 F   0  0  0  0  0  0  0  0  0  0  0  0
  -21.4080   -4.0160   25.9440 F   0  0  0  0  0  0  0  0  0  0  0  0
  -22.9860  -13.6950   21.1530 C   0  0  0  0  0  0  0  0  0  0  0  0
  -22.2960  -12.9680   22.0210 N   0  0  0  0  0  0  0  0  0  0  0  0
  -22.5220  -14.7320   20.6790 O   0  0  0  0  0  0  0  0  0  0  0  0
  -22.6800  -12.1300   22.4310 H   0  0  0  0  0  0  0  0  0  0  0  0
  -21.3660  -13.2590   22.2860 H   0  0  0  0  0  0  0  0  0  0  0  0
  -25.5750  -15.4140   20.2840 N   0  0  0  0  0  0  0  0  0  0  0  0
  -24.8260  -16.0720   20.4710 H   0  0  0  0  0  0  0  0  0  0  0  0
  -26.4030  -15.8600   19.9130 H   0  0  0  0  0  0  0  0  0  0  0  0
  -29.4790  -22.7460   22.3490 C   0  0  0  0  0  1  0  0  0  0  0  0
  -29.0310  -22.6250   20.8900 C   0  0  0  0  0  3  0  0  0  0  0  0
  -29.2460  -24.0490   20.1540 C   0  0  0  0  0  3  0  0  0  0  0  0
  -28.3740  -25.2990   20.6400 C   0  0  0  0  0  3  0  0  0  0  0  0
  -28.5490  -26.6560   20.0650 O   0  0  0  0  0  0  0  0  0  0  0  0
  -24.6550  -31.8270   23.2690 C   0  0  0  0  0  0  0  0  0  0  0  0
  -27.4110  -27.4770   20.0600 C   0  0  0  0  0  0  0  0  0  0  0  0
  -23.4890  -30.4380   21.5930 C   0  0  0  0  0  3  0  0  0  0  0  0
  -24.9870  -28.9890   20.1090 C   0  0  0  0  0  0  0  0  0  0  0  0
  -26.0100  -30.8620   21.3960 C   0  0  0  0  0  2  0  0  0  0  0  0
  -26.1400  -29.5070   20.7130 C   0  0  0  0  0  0  0  0  0  0  0  0
  -27.3570  -28.7630   20.6810 C   0  0  0  0  0  3  0  0  0  0  0  0
  -26.2420  -27.0190   19.4170 C   0  0  0  0  0  3  0  0  0  0  0  0
  -25.0390  -27.7510   19.4510 C   0  0  0  0  0  3  0  0  0  0  0  0
  -23.7160  -29.8100   20.1920 C   0  0  0  0  0  2  0  0  0  0  0  0
  -24.7360  -31.0580   22.1440 N   0  0  0  0  0  0  0  0  0  0  0  0
  -23.5670  -32.0440   23.8250 O   0  0  0  0  0  0  0  0  0  0  0  0
  -22.8760  -29.3650   22.5250 C   0  0  0  0  0  0  0  0  0  0  0  0
  -21.5740  -29.0810   22.3460 N   0  0  0  0  0  0  0  0  0  0  0  0
  -23.5700  -28.7930   23.3700 O   0  0  0  0  0  0  0  0  0  0  0  0
  -21.0670  -29.5960   21.6400 H   0  0  0  0  0  0  0  0  0  0  0  0
  -18.3070  -27.5610   22.6680 C   0  0  0  0  0  0  0  0  0  0  0  0
  -20.8070  -28.0760   23.0860 C   0  0  0  0  0  3  0  0  0  0  0  0
  -21.0810  -26.6510   22.5460 C   0  0  0  0  0  2  0  0  0  0  0  0
  -20.0810  -26.2100   21.4730 C   0  0  0  0  0  2  0  0  0  0  0  0
  -18.6540  -26.2260   22.0290 C   0  0  0  0  0  2  0  0  0  0  0  0
  -19.3160  -28.4350   23.1510 C   0  0  0  0  0  0  0  0  0  0  0  0
  -18.9380  -29.6780   23.7030 C   0  0  0  0  0  3  0  0  0  0  0  0
  -17.5820  -30.0490   23.7810 C   0  0  0  0  0  3  0  0  0  0  0  0
  -16.5860  -29.1730   23.3130 C   0  0  0  0  0  3  0  0  0  0  0  0
  -16.9500  -27.9310   22.7640 C   0  0  0  0  0  3  0  0  0  0  0  0
  -25.9180  -32.4890   23.8980 C   0  0  0  0  0  3  0  0  0  0  0  0
  -25.5910  -33.8950   24.1750 N   0  0  0  0  0  0  0  0  0  0  0  0
  -25.9440  -34.9270   23.3950 C   0  0  0  0  0  0  0  0  0  0  0  0
  -26.6480  -34.7940   22.3890 O   0  0  0  0  0  0  0  0  0  0  0  0
  -24.9670  -34.0690   24.9500 H   0  0  0  0  0  0  0  0  0  0  0  0
  -24.2420  -36.7160   22.9100 C   0  0  0  0  0  1  0  0  0  0  0  0
  -25.4380  -36.3270   23.7930 C   0  0  0  0  0  3  0  0  0  0  0  0
  -27.5150  -37.2440   24.7310 C   0  0  0  0  0  1  0  0  0  0  0  0
  -26.4780  -37.3750   23.7110 N   0  0  0  0  0  0  0  0  0  0  0  0
  -26.0650  -38.2980   23.7960 H   0  0  0  0  0  0  0  0  0  0  0  0
  -26.4090  -31.7660   25.2120 C   0  0  1  0  0  0  0  0  0  0  0  0
  -25.2910  -31.5470   26.2590 C   0  0  0  0  0  1  0  0  0  0  0  0
  -27.0160  -30.3820   24.8790 C   0  0  0  0  0  1  0  0  0  0  0  0
  -27.5320  -32.5950   25.8770 C   0  0  0  0  0  1  0  0  0  0  0  0
  1  6  2  0
  2  3  1  0
  2  4  1  0
  3  5  1  0
  4  8  1  0
  4  1  1  0
  5  1  1  0
  5 47  1  0
  8  7  1  0
  8  9  1  0
 10  9  1  0
 11 16  1  0
 12 13  1  0
 12 11  1  0
 14 13  1  0
 14 21  1  0
 14 15  1  0
 16 10  1  0
 16 15  1  0
 17 10  2  0
 18 19  2  0
 19 38  1  0
 20 19  1  0
 20 23  1  0
 21 22  1  0
 21 18  1  0
 22 20  2  0
 23 24  1  0
 24 25  2  0
 26 29  1  0
 26 25  1  0
 27 26  2  0
 28 27  1  0
 28 23  2  0
 29 30  1  0
 30 35  2  0
 30 31  1  0
 31 32  2  0
 32 33  1  0
 33 37  1  0
 34 33  2  0
 35 34  1  0
 36 35  1  0
 38 39  1  0
 39 42  1  0
 39 41  1  0
 40 38  2  0
 43 18  1  0
 43 44  1  0
 45 43  1  0
 47 46  1  0
 48 49  2  0
 48 47  1  0
 50 49  1  0
 51 62  2  0
 52 50  1  0
 52 57  1  0
 53 61  1  0
 53 63  1  0
 54 60  1  0
 54 56  1  0
 55 61  1  0
 56 55  1  0
 57 56  2  0
 58 59  1  0
 58 52  2  0
 59 54  2  0
 60 53  1  0
 61 51  1  0
 63 65  2  0
 64 63  1  0
 66 64  1  0
 67 76  2  0
 67 72  1  0
 68 64  1  0
 68 72  1  0
 69 68  1  0
 70 71  1  0
 70 69  1  0
 71 67  1  0
 72 73  2  0
 73 74  1  0
 75 74  2  0
 76 75  1  0
 77 51  1  0
 77 78  1  0
 77 87  1  0
 78 81  1  0
 79 83  1  0
 79 78  1  0
 80 79  2  0
 83 82  1  0
 85 83  1  0
 85 86  1  0
 85 84  1  0
 87 90  1  1
 87 88  1  0
 89 87  1  0
M  ISO  4   9 100  10 100  49 101  50 101
M  END
>  <TORSDO>  (28) 
F 21

>  <SCORE>  (28) 
-12.592

>  <name>  (28) 
27

>  <ligand_id>  (28) 
27

>  <original_smiles>  (28) 
[H]c1c([H])c([H])c2c(c1[H])C([H])([H])C([H])([H])C([H])([H])C2([H])N([H])C(=O)C1([H])N(C(=O)C([H])(N([H])C(=O)C([H])(N([H])C([H])([H])[H])C([H])([H])[H])C(C([H])([H])[H])(C([H])([H])[H])C([H])([H])[H])C([H])([H])c2c([H])c(OC([H])([H])C([H])([H])C([H])(C([H])([H])[H])C3([H])C(=O)C([H])(C([H])(C([H])([H])[H])C([H])([H])C(=O)N4C([H])([H])C([H])([H])C([H])([H])C([H])(n5nc(-c6c([H])c([H])c(Oc7c([H])c([H])c(F)c([H])c7F)c([H])c6[H])c(C(=O)N([H])[H])c5N([H])[H])C4([H])[H])C([H])([H])C3([H])[H])c([H])c([H])c2C1([H])[H]

>  <smiles>  (28) 
[H]c1c([H])c([H])c2c(c1[H])C([H])([H])C([H])([H])C([H])([H])C2([H])N([H])C(=O)C1([H])N(C(=O)C([H])(N([H])C(=O)C([H])(N([H])C([H])([H])[H])C([H])([H])[H])C(C([H])([H])[H])(C([H])([H])[H])C([H])([H])[H])C([H])([H])c2c([H])c(OC([H])([H])C([H])([H])C([H])(C([H])([H])[H])C3([H])C(=O)C([H])(C([H])(C([H])([H])[H])C([H])([H])C(=O)N4C([H])([H])C([H])([H])C([H])([H])C([H])(n5nc(-c6c([H])c([H])c(Oc7c([H])c([H])c(F)c([H])c7F)c([H])c6[H])c(C(=O)N([H])[H])c5N([H])[H])C4([H])[H])C([H])([H])C3([H])[H])c([H])c([H])c2C1([H])[H]

$$$$
28:0:0
     RDKit          3D

 92101  0  0  1  0  0  0  0  0999 V2000
  -29.0000  -18.2470   18.6560 C   0  0  0  0  0  0  0  0  0  0  0  0
  -27.5680  -18.7600   20.6210 C   0  0  0  0  0  2  0  0  0  0  0  0
  -28.8140  -18.5820   21.5400 C   0  0  0  0  0  2  0  0  0  0  0  0
  -30.1780  -17.7820   19.5460 C   0  0  0  0  0  3  0  0  0  0  0  0
  -28.1790  -19.4060   19.3530 C   0  0  0  0  0  3  0  0  0  0  0  0
  -29.9490  -19.0490   20.5970 C   0  0  0  0  0  3  0  0  0  0  0  0
  -29.1750  -20.2730   20.0120 N   0  0  1  0  0  4  0  0  0  0  0  0
  -28.7160  -17.7330   17.5690 O   0  0  0  0  0  0  0  0  0  0  0  0
  -28.6850  -20.5730   20.8390 H   0  0  0  0  0  0  0  0  0  0  0  0
  -30.8100  -15.0400   19.6520 C   0  0  0  0  0  0  0  0  0  0  0  0
  -30.6020  -12.6680   18.7540 C   0  0  0  0  0  2  0  0  0  0  0  0
  -29.5760  -12.6240   17.5950 C   0  0  0  0  0  2  0  0  0  0  0  0
  -28.1490  -12.4300   18.1390 C   0  0  0  0  0  2  0  0  0  0  0  0
  -27.8490  -13.3590   19.3440 C   0  0  0  0  0  3  0  0  0  0  0  0
  -28.9890  -13.3670   20.3860 C   0  0  0  0  0  2  0  0  0  0  0  0
  -30.2130  -13.7730   19.6820 N   0  0  0  0  0  0  0  0  0  0  0  0
  -31.9560  -15.0960   19.1940 O   0  0  0  0  0  0  0  0  0  0  0  0
  -30.0830  -16.2300   19.9680 N   0  0  0  0  0  0  0  0  0  0  0  0
  -29.1930  -16.0060   20.3870 H   0  0  0  0  0  0  0  0  0  0  0  0
  -25.5560  -13.9660   20.3020 C   0  0  0  0  0  0  0  0  0  0  0  0
  -24.5110  -13.2070   20.7480 C   0  0  0  0  0  0  0  0  0  0  0  0
  -24.9340  -11.8470   20.6380 C   0  0  0  0  0  0  0  0  0  0  0  0
  -26.5510  -13.0720   19.9480 N   0  0  0  0  0  0  0  0  0  0  0  0
  -26.1920  -11.7890   20.2130 N   0  0  0  0  0  0  0  0  0  0  0  0
  -24.1920  -10.5980   20.8560 C   0  0  0  0  0  0  0  0  0  0  0  0
  -24.6330   -9.6280   21.7830 C   0  0  0  0  0  3  0  0  0  0  0  0
  -23.8900   -8.4460   21.9900 C   0  0  0  0  0  3  0  0  0  0  0  0
  -22.6920   -8.2260   21.2690 C   0  0  0  0  0  0  0  0  0  0  0  0
  -22.2700   -9.1830   20.3300 C   0  0  0  0  0  3  0  0  0  0  0  0
  -23.0140  -10.3570   20.1220 C   0  0  0  0  0  3  0  0  0  0  0  0
  -21.9190   -7.0960   21.3850 O   0  0  0  0  0  0  0  0  0  0  0  0
  -21.8230   -6.4080   22.5690 C   0  0  0  0  0  0  0  0  0  0  0  0
  -21.3280   -7.0130   23.7440 C   0  0  0  0  0  3  0  0  0  0  0  0
  -21.1810   -6.2510   24.9200 C   0  0  0  0  0  3  0  0  0  0  0  0
  -21.5190   -4.8850   24.9210 C   0  0  0  0  0  0  0  0  0  0  0  0
  -22.0060   -4.2780   23.7500 C   0  0  0  0  0  3  0  0  0  0  0  0
  -22.1550   -5.0380   22.5770 C   0  0  0  0  0  0  0  0  0  0  0  0
  -22.6050   -4.4430   21.4450 F   0  0  0  0  0  0  0  0  0  0  0  0
  -21.3710   -4.1500   26.0480 F   0  0  0  0  0  0  0  0  0  0  0  0
  -23.1550  -13.7120   21.1500 C   0  0  0  0  0  0  0  0  0  0  0  0
  -22.4880  -13.0140   22.0620 N   0  0  0  0  0  0  0  0  0  0  0  0
  -22.7020  -14.7590   20.6910 O   0  0  0  0  0  0  0  0  0  0  0  0
  -22.8700  -12.1670   22.4540 H   0  0  0  0  0  0  0  0  0  0  0  0
  -21.5810  -13.3340   22.3740 H   0  0  0  0  0  0  0  0  0  0  0  0
  -25.7350  -15.3360   20.1390 N   0  0  0  0  0  0  0  0  0  0  0  0
  -24.9670  -15.9810   20.2870 H   0  0  0  0  0  0  0  0  0  0  0  0
  -26.4930  -15.7340   19.6030 H   0  0  0  0  0  0  0  0  0  0  0  0
  -29.5690  -21.7270   19.4600 C   0  0  0  0  0  2  0  0  0  0  0  0
  -29.7270  -23.5050   21.3850 C   0  0  0  0  0  1  0  0  0  0  0  0
  -28.9580  -23.2110   20.0910 C   0  0  0  0  0  3  0  0  0  0  0  0
  -28.7940  -24.7070   19.2640 C   0  0  0  0  0  2  0  0  0  0  0  0
  -28.6550  -26.1880   19.7930 O   0  0  0  0  0  0  0  0  0  0  0  0
  -24.7100  -31.5700   22.9460 C   0  0  0  0  0  0  0  0  0  0  0  0
  -27.5360  -27.1090   19.7130 C   0  0  0  0  0  0  0  0  0  0  0  0
  -23.5870  -30.1920   21.2370 C   0  0  0  0  0  3  0  0  0  0  0  0
  -25.1180  -28.7520   19.7440 C   0  0  0  0  0  0  0  0  0  0  0  0
  -26.1250  -30.5850   21.0990 C   0  0  0  0  0  2  0  0  0  0  0  0
  -26.2700  -29.2260   20.3830 C   0  0  0  0  0  0  0  0  0  0  0  0
  -27.4730  -28.4200   20.3510 C   0  0  0  0  0  3  0  0  0  0  0  0
  -26.3510  -26.7430   19.0380 C   0  0  0  0  0  3  0  0  0  0  0  0
  -25.1730  -27.5290   19.0570 C   0  0  0  0  0  3  0  0  0  0  0  0
  -23.8460  -29.5860   19.8300 C   0  0  0  0  0  2  0  0  0  0  0  0
  -24.8260  -30.8040   21.8170 N   0  0  0  0  0  0  0  0  0  0  0  0
  -23.6090  -31.7760   23.4790 O   0  0  0  0  0  0  0  0  0  0  0  0
  -22.9540  -29.1130   22.1520 C   0  0  0  0  0  0  0  0  0  0  0  0
  -21.6310  -28.9050   22.0330 N   0  0  0  0  0  0  0  0  0  0  0  0
  -23.6580  -28.4650   22.9310 O   0  0  0  0  0  0  0  0  0  0  0  0
  -21.1170  -29.4820   21.3810 H   0  0  0  0  0  0  0  0  0  0  0  0
  -18.2950  -27.5840   22.5360 C   0  0  0  0  0  0  0  0  0  0  0  0
  -20.8520  -27.8990   22.7600 C   0  0  0  0  0  3  0  0  0  0  0  0
  -20.9760  -26.5100   22.0910 C   0  0  0  0  0  2  0  0  0  0  0  0
  -19.8570  -26.2240   21.0840 C   0  0  0  0  0  2  0  0  0  0  0  0
  -18.4890  -26.2880   21.7660 C   0  0  0  0  0  2  0  0  0  0  0  0
  -19.4040  -28.3480   22.9890 C   0  0  0  0  0  0  0  0  0  0  0  0
  -19.1650  -29.5610   23.6710 C   0  0  0  0  0  3  0  0  0  0  0  0
  -17.8520  -30.0100   23.9030 C   0  0  0  0  0  3  0  0  0  0  0  0
  -16.7580  -29.2450   23.4640 C   0  0  0  0  0  3  0  0  0  0  0  0
  -16.9810  -28.0330   22.7870 C   0  0  0  0  0  3  0  0  0  0  0  0
  -25.9510  -32.2400   23.6100 C   0  0  0  0  0  3  0  0  0  0  0  0
  -26.4900  -31.4440   24.8620 C   0  0  1  0  0  0  0  0  0  0  0  0
  -25.4000  -31.1270   25.9130 C   0  0  0  0  0  1  0  0  0  0  0  0
  -27.1300  -30.1060   24.4300 C   0  0  0  0  0  1  0  0  0  0  0  0
  -27.6040  -32.2600   25.5610 C   0  0  0  0  0  1  0  0  0  0  0  0
  -25.5690  -33.6070   23.9990 N   0  0  0  0  0  0  0  0  0  0  0  0
  -25.8630  -34.7130   23.3040 C   0  0  0  0  0  0  0  0  0  0  0  0
  -26.5510  -34.6940   22.2800 O   0  0  0  0  0  0  0  0  0  0  0  0
  -24.9540  -33.6930   24.7960 H   0  0  0  0  0  0  0  0  0  0  0  0
  -24.0610  -36.4490   23.0190 C   0  0  0  0  0  1  0  0  0  0  0  0
  -25.3100  -36.0550   23.8250 C   0  0  0  0  0  3  0  0  0  0  0  0
  -27.3860  -36.9980   24.7360 C   0  0  0  0  0  1  0  0  0  0  0  0
  -26.2950  -37.1570   23.7790 N   0  0  0  0  0  0  0  0  0  0  0  0
  -25.8460  -38.0520   23.9570 H   0  0  0  0  0  0  0  0  0  0  0  0
  1  5  1  0
  1  4  1  0
  2  3  1  0
  4 18  1  0
  4  6  1  0
  5  7  1  0
  5  2  1  0
  6  3  1  0
  7  6  1  0
  7  9  1  1
  8  1  2  0
 10 16  1  0
 10 18  1  0
 11 16  1  0
 12 13  1  0
 12 11  1  0
 14 13  1  0
 14 23  1  0
 14 15  1  0
 16 15  1  0
 17 10  2  0
 18 19  1  0
 20 21  2  0
 21 40  1  0
 22 21  1  0
 22 25  1  0
 23 24  1  0
 23 20  1  0
 24 22  2  0
 25 26  1  0
 26 27  2  0
 28 31  1  0
 28 27  1  0
 29 28  2  0
 30 29  1  0
 30 25  2  0
 31 32  1  0
 32 37  2  0
 32 33  1  0
 33 34  2  0
 34 35  1  0
 35 39  1  0
 36 35  2  0
 37 36  1  0
 38 37  1  0
 40 41  1  0
 41 44  1  0
 41 43  1  0
 42 40  2  0
 45 46  1  0
 45 20  1  0
 47 45  1  0
 48  7  1  0
 48 50  1  0
 50 49  1  0
 51 52  1  0
 51 50  1  0
 53 64  2  0
 54 52  1  0
 54 59  1  0
 55 63  1  0
 55 65  1  0
 56 62  1  0
 56 58  1  0
 57 63  1  0
 58 57  1  0
 59 58  2  0
 60 61  1  0
 60 54  2  0
 61 56  2  0
 62 55  1  0
 63 53  1  0
 65 67  2  0
 66 65  1  0
 68 66  1  0
 69 78  2  0
 69 74  1  0
 70 66  1  0
 70 74  1  0
 71 70  1  0
 72 73  1  0
 72 71  1  0
 73 69  1  0
 74 75  2  0
 75 76  1  0
 77 76  2  0
 78 77  1  0
 79 53  1  0
 79 84  1  0
 79 80  1  0
 80 83  1  1
 80 81  1  0
 82 80  1  0
 84 87  1  0
 85 89  1  0
 85 84  1  0
 86 85  2  0
 89 88  1  0
 91 89  1  0
 91 92  1  0
 91 90  1  0
M  ISO  4  10 100  18 100  51 101  52 101
M  END
>  <TORSDO>  (29) 
F 19

>  <SCORE>  (29) 
-12.782

>  <name>  (29) 
28

>  <ligand_id>  (29) 
28

>  <original_smiles>  (29) 
[H]c1c([H])c([H])c2c(c1[H])C([H])([H])C([H])([H])C([H])([H])C2([H])N([H])C(=O)C1([H])N(C(=O)C([H])(N([H])C(=O)C([H])(N([H])C([H])([H])[H])C([H])([H])[H])C(C([H])([H])[H])(C([H])([H])[H])C([H])([H])[H])C([H])([H])c2c([H])c(OC([H])([H])C([H])(C([H])([H])[H])C([H])([H])[N+]3([H])C4([H])C(=O)C([H])(N([H])C(=O)N5C([H])([H])C([H])([H])C([H])([H])C([H])(n6nc(-c7c([H])c([H])c(Oc8c([H])c([H])c(F)c([H])c8F)c([H])c7[H])c(C(=O)N([H])[H])c6N([H])[H])C5([H])[H])C3([H])C([H])([H])C4([H])[H])c([H])c([H])c2C1([H])[H]

>  <smiles>  (29) 
[H]c1c([H])c([H])c2c(c1[H])C([H])([H])C([H])([H])C([H])([H])C2([H])N([H])C(=O)C1([H])N(C(=O)C([H])(N([H])C(=O)C([H])(N([H])C([H])([H])[H])C([H])([H])[H])C(C([H])([H])[H])(C([H])([H])[H])C([H])([H])[H])C([H])([H])c2c([H])c(OC([H])([H])C([H])(C([H])([H])[H])C([H])([H])[N+]3([H])C4([H])C(=O)C([H])(N([H])C(=O)N5C([H])([H])C([H])([H])C([H])([H])C([H])(n6nc(-c7c([H])c([H])c(Oc8c([H])c([H])c(F)c([H])c8F)c([H])c7[H])c(C(=O)N([H])[H])c6N([H])[H])C5([H])[H])C3([H])C([H])([H])C4([H])[H])c([H])c([H])c2C1([H])[H]

$$$$
29:0:0
     RDKit          3D

 95104  0  0  1  0  0  0  0  0999 V2000
  -30.0180  -21.9310   22.6030 C   0  0  0  0  0  3  0  0  0  0  0  0
  -29.5700  -21.0320   21.7000 C   0  0  0  0  0  0  0  0  0  0  0  0
  -29.4620  -23.3370   22.7640 C   0  0  0  0  0  2  0  0  0  0  0  0
  -28.3610  -21.3480   20.8220 C   0  0  0  0  0  2  0  0  0  0  0  0
  -27.6370  -22.6490   21.1980 C   0  0  0  0  0  2  0  0  0  0  0  0
  -28.6440  -23.7600   21.5310 C   0  0  0  0  0  3  0  0  0  0  0  0
  -30.8400  -19.0810   22.6720 C   0  0  0  0  0  3  0  0  0  0  0  0
  -30.3200  -19.1360   20.2890 C   0  0  0  0  0  3  0  0  0  0  0  0
  -31.5240  -17.8610   22.4940 C   0  0  0  0  0  3  0  0  0  0  0  0
  -31.0160  -17.9300   20.1100 C   0  0  0  0  0  3  0  0  0  0  0  0
  -30.2350  -19.7230   21.5690 C   0  0  0  0  0  0  0  0  0  0  0  0
  -31.6200  -17.2890   21.2080 C   0  0  0  0  0  0  0  0  0  0  0  0
  -32.4140  -16.0150   20.9960 C   0  0  0  0  0  2  0  0  0  0  0  0
  -31.7350  -14.7400   21.5340 C   0  0  0  0  0  2  0  0  0  0  0  0
  -30.2570  -14.1120   19.6070 C   0  0  0  0  0  0  0  0  0  0  0  0
  -29.6320  -12.1270   18.3070 C   0  0  0  0  0  2  0  0  0  0  0  0
  -28.4870  -12.3160   17.3060 C   0  0  0  0  0  2  0  0  0  0  0  0
  -27.1380  -12.0720   18.0000 C   0  0  0  0  0  2  0  0  0  0  0  0
  -26.9870  -12.9080   19.2960 C   0  0  0  0  0  3  0  0  0  0  0  0
  -28.2230  -12.7670   20.2110 C   0  0  0  0  0  2  0  0  0  0  0  0
  -29.4380  -13.0540   19.4260 N   0  0  0  0  0  0  0  0  0  0  0  0
  -30.9710  -14.5860   18.7190 O   0  0  0  0  0  0  0  0  0  0  0  0
  -30.4670  -14.3560   20.9050 N   0  0  0  0  0  0  0  0  0  0  0  0
  -29.8200  -13.8800   21.5170 H   0  0  0  0  0  0  0  0  0  0  0  0
  -24.7640  -13.3990   20.4980 C   0  0  0  0  0  0  0  0  0  0  0  0
  -23.7960  -12.5740   21.0080 C   0  0  0  0  0  0  0  0  0  0  0  0
  -24.2590  -11.2410   20.7860 C   0  0  0  0  0  0  0  0  0  0  0  0
  -25.7540  -12.5650   20.0040 N   0  0  0  0  0  0  0  0  0  0  0  0
  -25.4640  -11.2570   20.2310 N   0  0  0  0  0  0  0  0  0  0  0  0
  -23.5980   -9.9490   21.0160 C   0  0  0  0  0  0  0  0  0  0  0  0
  -24.1460   -8.9840   21.8880 C   0  0  0  0  0  3  0  0  0  0  0  0
  -23.4830   -7.7580   22.1070 C   0  0  0  0  0  3  0  0  0  0  0  0
  -22.2570   -7.4870   21.4540 C   0  0  0  0  0  0  0  0  0  0  0  0
  -21.7260   -8.4420   20.5710 C   0  0  0  0  0  3  0  0  0  0  0  0
  -22.3900   -9.6600   20.3490 C   0  0  0  0  0  3  0  0  0  0  0  0
  -21.5550   -6.3140   21.5860 O   0  0  0  0  0  0  0  0  0  0  0  0
  -21.5870   -5.5830   22.7470 C   0  0  0  0  0  0  0  0  0  0  0  0
  -21.1680   -6.1260   23.9810 C   0  0  0  0  0  3  0  0  0  0  0  0
  -21.1520   -5.3180   25.1360 C   0  0  0  0  0  3  0  0  0  0  0  0
  -21.5430   -3.9690   25.0570 C   0  0  0  0  0  0  0  0  0  0  0  0
  -21.9540   -3.4240   23.8290 C   0  0  0  0  0  3  0  0  0  0  0  0
  -21.9720   -4.2280   22.6760 C   0  0  0  0  0  0  0  0  0  0  0  0
  -22.3500   -3.6930   21.4900 F   0  0  0  0  0  0  0  0  0  0  0  0
  -21.5190   -3.1900   26.1650 F   0  0  0  0  0  0  0  0  0  0  0  0
  -22.4740  -12.9950   21.5790 C   0  0  0  0  0  0  0  0  0  0  0  0
  -21.9460  -12.2300   22.5290 N   0  0  0  0  0  0  0  0  0  0  0  0
  -21.9220  -14.0330   21.2190 O   0  0  0  0  0  0  0  0  0  0  0  0
  -22.4080  -11.3880   22.8400 H   0  0  0  0  0  0  0  0  0  0  0  0
  -21.0660  -12.4900   22.9540 H   0  0  0  0  0  0  0  0  0  0  0  0
  -24.8720  -14.7820   20.3950 N   0  0  0  0  0  0  0  0  0  0  0  0
  -24.1290  -15.4060   20.6880 H   0  0  0  0  0  0  0  0  0  0  0  0
  -25.6430  -15.2650   19.9500 H   0  0  0  0  0  0  0  0  0  0  0  0
  -27.9660  -25.1300   21.6980 C   0  0  0  0  0  2  0  0  0  0  0  0
  -28.9030  -26.3390   21.4640 C   0  0  0  0  0  2  0  0  0  0  0  0
  -28.5560  -27.0340   20.2730 O   0  0  0  0  0  0  0  0  0  0  0  0
  -24.5570  -32.0590   23.3670 C   0  0  0  0  0  0  0  0  0  0  0  0
  -27.3690  -27.7170   20.3230 C   0  0  0  0  0  0  0  0  0  0  0  0
  -23.4110  -30.6180   21.7140 C   0  0  0  0  0  3  0  0  0  0  0  0
  -24.9250  -29.1170   20.3140 C   0  0  0  0  0  0  0  0  0  0  0  0
  -25.9210  -31.0560   21.5430 C   0  0  0  0  0  2  0  0  0  0  0  0
  -26.0550  -29.6830   20.9210 C   0  0  0  0  0  0  0  0  0  0  0  0
  -27.2800  -28.9840   20.9360 C   0  0  0  0  0  3  0  0  0  0  0  0
  -26.2340  -27.1650   19.6970 C   0  0  0  0  0  3  0  0  0  0  0  0
  -25.0060  -27.8520   19.7050 C   0  0  0  0  0  3  0  0  0  0  0  0
  -23.6550  -29.9360   20.3420 C   0  0  0  0  0  2  0  0  0  0  0  0
  -24.6470  -31.2620   22.2660 N   0  0  0  0  0  0  0  0  0  0  0  0
  -23.4630  -32.2990   23.8960 O   0  0  0  0  0  0  0  0  0  0  0  0
  -22.7810  -29.5810   22.6710 C   0  0  0  0  0  0  0  0  0  0  0  0
  -21.4780  -29.3150   22.4840 N   0  0  0  0  0  0  0  0  0  0  0  0
  -23.4620  -29.0150   23.5290 O   0  0  0  0  0  0  0  0  0  0  0  0
  -20.9930  -29.8260   21.7600 H   0  0  0  0  0  0  0  0  0  0  0  0
  -18.1790  -27.8690   22.7780 C   0  0  0  0  0  0  0  0  0  0  0  0
  -20.6770  -28.3490   23.2350 C   0  0  0  0  0  3  0  0  0  0  0  0
  -20.9400  -26.9070   22.7420 C   0  0  0  0  0  2  0  0  0  0  0  0
  -19.9520  -26.4480   21.6630 C   0  0  0  0  0  2  0  0  0  0  0  0
  -18.5150  -26.5080   22.1910 C   0  0  0  0  0  2  0  0  0  0  0  0
  -19.1950  -28.7380   23.2540 C   0  0  0  0  0  0  0  0  0  0  0  0
  -18.8340  -30.0070   23.7560 C   0  0  0  0  0  3  0  0  0  0  0  0
  -17.4840  -30.4060   23.7960 C   0  0  0  0  0  3  0  0  0  0  0  0
  -16.4800  -29.5340   23.3420 C   0  0  0  0  0  3  0  0  0  0  0  0
  -16.8270  -28.2690   22.8370 C   0  0  0  0  0  3  0  0  0  0  0  0
  -25.8200  -32.7230   24.0000 C   0  0  0  0  0  3  0  0  0  0  0  0
  -25.4850  -34.1250   24.2820 N   0  0  0  0  0  0  0  0  0  0  0  0
  -25.8250  -35.1580   23.4970 C   0  0  0  0  0  0  0  0  0  0  0  0
  -26.5220  -35.0330   22.4880 O   0  0  0  0  0  0  0  0  0  0  0  0
  -24.8670  -34.2940   25.0630 H   0  0  0  0  0  0  0  0  0  0  0  0
  -24.0890  -36.9170   23.0280 C   0  0  0  0  0  1  0  0  0  0  0  0
  -25.3050  -36.5530   23.8940 C   0  0  0  0  0  3  0  0  0  0  0  0
  -27.4080  -37.4780   24.7590 C   0  0  0  0  0  1  0  0  0  0  0  0
  -26.3300  -37.6150   23.7830 N   0  0  0  0  0  0  0  0  0  0  0  0
  -25.9120  -38.5350   23.8950 H   0  0  0  0  0  0  0  0  0  0  0  0
  -26.3160  -31.9930   25.3090 C   0  0  1  0  0  0  0  0  0  0  0  0
  -25.1890  -31.7030   26.3280 C   0  0  0  0  0  1  0  0  0  0  0  0
  -26.9890  -30.6450   24.9580 C   0  0  0  0  0  1  0  0  0  0  0  0
  -27.3940  -32.8500   26.0120 C   0  0  0  0  0  1  0  0  0  0  0  0
  1  3  1  0
  2  1  2  0
  4  5  1  0
  4  2  1  0
  5  6  1  0
  6 53  1  0
  6  3  1  0
  8 11  1  0
  9  7  1  0
 10  8  2  0
 10 12  1  0
 11  2  1  0
 11  7  2  0
 12  9  2  0
 13 12  1  0
 13 14  1  0
 15 23  1  0
 16 21  1  0
 17 18  1  0
 17 16  1  0
 19 18  1  0
 19 28  1  0
 19 20  1  0
 21 15  1  0
 21 20  1  0
 22 15  2  0
 23 24  1  0
 23 14  1  0
 25 26  2  0
 26 45  1  0
 27 26  1  0
 27 30  1  0
 28 29  1  0
 28 25  1  0
 29 27  2  0
 30 31  1  0
 31 32  2  0
 33 36  1  0
 33 32  1  0
 34 33  2  0
 35 34  1  0
 35 30  2  0
 36 37  1  0
 37 38  1  0
 38 39  2  0
 40 39  1  0
 40 44  1  0
 41 40  2  0
 42 37  2  0
 42 41  1  0
 43 42  1  0
 45 46  1  0
 46 48  1  0
 46 49  1  0
 47 45  2  0
 50 25  1  0
 50 51  1  0
 52 50  1  0
 54 53  1  0
 55 57  1  0
 55 54  1  0
 56 67  2  0
 57 62  1  0
 58 66  1  0
 58 68  1  0
 59 65  1  0
 59 61  1  0
 60 66  1  0
 61 62  2  0
 61 60  1  0
 63 64  1  0
 63 57  2  0
 64 59  2  0
 65 58  1  0
 66 56  1  0
 68 70  2  0
 69 68  1  0
 71 69  1  0
 72 81  2  0
 72 77  1  0
 73 69  1  0
 73 77  1  0
 74 73  1  0
 75 76  1  0
 75 74  1  0
 76 72  1  0
 77 78  2  0
 78 79  1  0
 80 79  2  0
 81 80  1  0
 82 56  1  0
 82 83  1  0
 82 92  1  0
 83 86  1  0
 84 88  1  0
 84 83  1  0
 85 84  2  0
 88 87  1  0
 90 88  1  0
 90 91  1  0
 90 89  1  0
 92 95  1  1
 92 93  1  0
 94 92  1  0
M  ISO  4  15 100  23 100  54 101  55 101
M  END
>  <TORSDO>  (30) 
F 21

>  <SCORE>  (30) 
-10.512

>  <name>  (30) 
29

>  <ligand_id>  (30) 
29

>  <original_smiles>  (30) 
[H]C1=C(c2c([H])c([H])c(C([H])([H])C([H])([H])N([H])C(=O)N3C([H])([H])C([H])([H])C([H])([H])C([H])(n4nc(-c5c([H])c([H])c(Oc6c([H])c([H])c(F)c([H])c6F)c([H])c5[H])c(C(=O)N([H])[H])c4N([H])[H])C3([H])[H])c([H])c2[H])C([H])([H])C([H])([H])C([H])(C([H])([H])C([H])([H])Oc2c([H])c([H])c3c(c2[H])C([H])([H])N(C(=O)C([H])(N([H])C(=O)C([H])(N([H])C([H])([H])[H])C([H])([H])[H])C(C([H])([H])[H])(C([H])([H])[H])C([H])([H])[H])C([H])(C(=O)N([H])C2([H])c4c([H])c([H])c([H])c([H])c4C([H])([H])C([H])([H])C2([H])[H])C3([H])[H])C1([H])[H]

>  <smiles>  (30) 
[H]C1=C(c2c([H])c([H])c(C([H])([H])C([H])([H])N([H])C(=O)N3C([H])([H])C([H])([H])C([H])([H])C([H])(n4nc(-c5c([H])c([H])c(Oc6c([H])c([H])c(F)c([H])c6F)c([H])c5[H])c(C(=O)N([H])[H])c4N([H])[H])C3([H])[H])c([H])c2[H])C([H])([H])C([H])([H])C([H])(C([H])([H])C([H])([H])Oc2c([H])c([H])c3c(c2[H])C([H])([H])N(C(=O)C([H])(N([H])C(=O)C([H])(N([H])C([H])([H])[H])C([H])([H])[H])C(C([H])([H])[H])(C([H])([H])[H])C([H])([H])[H])C([H])(C(=O)N([H])C2([H])c4c([H])c([H])c([H])c([H])c4C([H])([H])C([H])([H])C2([H])[H])C3([H])[H])C1([H])[H]

$$$$
30:0:0
     RDKit          3D

 93102  0  0  1  0  0  0  0  0999 V2000
  -28.4950  -19.4630   20.4760 C   0  0  0  0  0  3  0  0  0  0  0  0
  -28.9440  -18.1510   20.7660 C   0  0  0  0  0  3  0  0  0  0  0  0
  -31.1400  -19.0390   21.2860 C   0  0  0  0  0  3  0  0  0  0  0  0
  -29.3590  -20.5810   20.5950 C   0  0  0  0  0  0  0  0  0  0  0  0
  -30.7040  -20.3450   20.9800 C   0  0  0  0  0  0  0  0  0  0  0  0
  -30.2730  -17.9300   21.1940 C   0  0  0  0  0  0  0  0  0  0  0  0
  -28.8600  -21.9760   20.3160 C   0  0  0  0  0  0  0  0  0  0  0  0
  -31.7060  -21.4840   21.0820 C   0  0  0  0  0  2  0  0  0  0  0  0
  -31.2800  -22.7100   20.2660 C   0  0  0  0  0  2  0  0  0  0  0  0
  -29.8380  -23.1460   20.6000 C   0  0  0  0  0  3  0  0  0  0  0  0
  -27.7200  -22.2150   19.9040 O   0  0  0  0  0  0  0  0  0  0  0  0
  -30.8050  -16.5620   21.6350 C   0  0  0  0  0  2  0  0  0  0  0  0
  -30.7060  -14.4590   20.2880 C   0  0  0  0  0  0  0  0  0  0  0  0
  -30.3250  -12.3650   19.0330 C   0  0  0  0  0  2  0  0  0  0  0  0
  -29.3380  -12.6200   17.8780 C   0  0  0  0  0  2  0  0  0  0  0  0
  -27.8810  -12.4830   18.3620 C   0  0  0  0  0  2  0  0  0  0  0  0
  -27.6050  -13.2730   19.6700 C   0  0  0  0  0  3  0  0  0  0  0  0
  -28.7000  -12.9900   20.7220 C   0  0  0  0  0  2  0  0  0  0  0  0
  -30.0030  -13.3100   20.1140 N   0  0  0  0  0  0  0  0  0  0  0  0
  -31.7730  -14.6840   19.7110 O   0  0  0  0  0  0  0  0  0  0  0  0
  -30.1430  -15.3650   21.1070 N   0  0  0  0  0  0  0  0  0  0  0  0
  -29.2530  -15.1170   21.5110 H   0  0  0  0  0  0  0  0  0  0  0  0
  -25.2370  -13.8710   20.4810 C   0  0  0  0  0  0  0  0  0  0  0  0
  -24.1840  -13.0940   20.8820 C   0  0  0  0  0  0  0  0  0  0  0  0
  -24.6410  -11.7420   20.8100 C   0  0  0  0  0  0  0  0  0  0  0  0
  -26.2700  -12.9930   20.1950 N   0  0  0  0  0  0  0  0  0  0  0  0
  -25.9170  -11.7070   20.4490 N   0  0  0  0  0  0  0  0  0  0  0  0
  -23.9210  -10.4790   21.0080 C   0  0  0  0  0  0  0  0  0  0  0  0
  -24.3740   -9.5050   21.9240 C   0  0  0  0  0  3  0  0  0  0  0  0
  -23.6550   -8.3050   22.1080 C   0  0  0  0  0  3  0  0  0  0  0  0
  -22.4660   -8.0710   21.3770 C   0  0  0  0  0  0  0  0  0  0  0  0
  -22.0320   -9.0330   20.4490 C   0  0  0  0  0  3  0  0  0  0  0  0
  -22.7520  -10.2240   20.2620 C   0  0  0  0  0  3  0  0  0  0  0  0
  -21.7150   -6.9240   21.4730 O   0  0  0  0  0  0  0  0  0  0  0  0
  -21.6800   -6.1810   22.6260 C   0  0  0  0  0  0  0  0  0  0  0  0
  -21.2450   -6.7290   23.8520 C   0  0  0  0  0  3  0  0  0  0  0  0
  -21.1570   -5.9110   24.9970 C   0  0  0  0  0  3  0  0  0  0  0  0
  -21.4940   -4.5460   24.9170 C   0  0  0  0  0  0  0  0  0  0  0  0
  -21.9230   -3.9990   23.6950 C   0  0  0  0  0  3  0  0  0  0  0  0
  -22.0120   -4.8140   22.5530 C   0  0  0  0  0  0  0  0  0  0  0  0
  -22.4050   -4.2750   21.3730 F   0  0  0  0  0  0  0  0  0  0  0  0
  -21.4030   -3.7590   26.0130 F   0  0  0  0  0  0  0  0  0  0  0  0
  -22.7990  -13.5680   21.2190 C   0  0  0  0  0  0  0  0  0  0  0  0
  -22.1030  -12.8550   22.0960 N   0  0  0  0  0  0  0  0  0  0  0  0
  -22.3450  -14.6070   20.7390 O   0  0  0  0  0  0  0  0  0  0  0  0
  -22.4840  -12.0160   22.5070 H   0  0  0  0  0  0  0  0  0  0  0  0
  -21.1730  -13.1520   22.3610 H   0  0  0  0  0  0  0  0  0  0  0  0
  -25.3960  -15.2440   20.3180 N   0  0  0  0  0  0  0  0  0  0  0  0
  -24.6310  -15.8950   20.4570 H   0  0  0  0  0  0  0  0  0  0  0  0
  -26.2200  -15.6810   19.9220 H   0  0  0  0  0  0  0  0  0  0  0  0
  -29.4890  -24.5040   19.9170 C   0  0  0  0  0  2  0  0  0  0  0  0
  -28.4140  -25.3560   20.6320 C   0  0  0  0  0  2  0  0  0  0  0  0
  -28.4870  -26.7330   20.2100 O   0  0  0  0  0  0  0  0  0  0  0  0
  -24.6050  -31.8970   23.2500 C   0  0  0  0  0  0  0  0  0  0  0  0
  -27.3100  -27.4530   20.2190 C   0  0  0  0  0  0  0  0  0  0  0  0
  -23.4270  -30.4840   21.5970 C   0  0  0  0  0  3  0  0  0  0  0  0
  -24.9060  -28.9500   20.1960 C   0  0  0  0  0  0  0  0  0  0  0  0
  -25.9540  -30.8540   21.4310 C   0  0  0  0  0  2  0  0  0  0  0  0
  -26.0550  -29.4810   20.7960 C   0  0  0  0  0  0  0  0  0  0  0  0
  -27.2610  -28.7410   20.8020 C   0  0  0  0  0  3  0  0  0  0  0  0
  -26.1450  -26.9410   19.6060 C   0  0  0  0  0  3  0  0  0  0  0  0
  -24.9460  -27.6790   19.5990 C   0  0  0  0  0  3  0  0  0  0  0  0
  -23.6560  -29.8010   20.2230 C   0  0  0  0  0  2  0  0  0  0  0  0
  -24.6790  -31.0940   22.1510 N   0  0  0  0  0  0  0  0  0  0  0  0
  -23.5150  -32.1650   23.7760 O   0  0  0  0  0  0  0  0  0  0  0  0
  -22.7730  -29.4610   22.5530 C   0  0  0  0  0  0  0  0  0  0  0  0
  -21.4500  -29.2730   22.4110 N   0  0  0  0  0  0  0  0  0  0  0  0
  -23.4510  -28.8390   23.3730 O   0  0  0  0  0  0  0  0  0  0  0  0
  -20.9640  -29.8230   21.7170 H   0  0  0  0  0  0  0  0  0  0  0  0
  -18.0740  -28.0880   22.9010 C   0  0  0  0  0  0  0  0  0  0  0  0
  -20.6320  -28.3340   23.1760 C   0  0  0  0  0  3  0  0  0  0  0  0
  -20.7280  -26.9060   22.5900 C   0  0  0  0  0  2  0  0  0  0  0  0
  -19.6260  -26.5980   21.5710 C   0  0  0  0  0  2  0  0  0  0  0  0
  -18.2450  -26.7440   22.2140 C   0  0  0  0  0  2  0  0  0  0  0  0
  -19.1940  -28.8420   23.3380 C   0  0  0  0  0  0  0  0  0  0  0  0
  -18.9800  -30.1010   23.9380 C   0  0  0  0  0  3  0  0  0  0  0  0
  -17.6780  -30.6070   24.1060 C   0  0  0  0  0  3  0  0  0  0  0  0
  -16.5700  -29.8510   23.6840 C   0  0  0  0  0  3  0  0  0  0  0  0
  -16.7690  -28.5920   23.0870 C   0  0  0  0  0  3  0  0  0  0  0  0
  -25.8800  -32.5370   23.8820 C   0  0  0  0  0  3  0  0  0  0  0  0
  -26.3820  -31.7780   25.1720 C   0  0  1  0  0  0  0  0  0  0  0  0
  -25.2750  -31.5450   26.2250 C   0  0  0  0  0  1  0  0  0  0  0  0
  -26.9730  -30.3980   24.8010 C   0  0  0  0  0  1  0  0  0  0  0  0
  -27.5190  -32.5820   25.8450 C   0  0  0  0  0  1  0  0  0  0  0  0
  -25.5620  -33.9370   24.1920 N   0  0  0  0  0  0  0  0  0  0  0  0
  -25.9060  -34.9830   23.4290 C   0  0  0  0  0  0  0  0  0  0  0  0
  -26.5950  -34.8700   22.4110 O   0  0  0  0  0  0  0  0  0  0  0  0
  -24.9540  -34.0960   24.9820 H   0  0  0  0  0  0  0  0  0  0  0  0
  -24.1880  -36.7730   23.0140 C   0  0  0  0  0  1  0  0  0  0  0  0
  -25.4060  -36.3730   23.8630 C   0  0  0  0  0  3  0  0  0  0  0  0
  -27.5150  -37.2680   24.7480 C   0  0  0  0  0  1  0  0  0  0  0  0
  -26.4410  -37.4260   23.7720 N   0  0  0  0  0  0  0  0  0  0  0  0
  -26.0300  -38.3480   23.8990 H   0  0  0  0  0  0  0  0  0  0  0  0
  1  4  2  0
  1  2  1  0
  2  6  2  0
  4  5  1  0
  5  8  1  0
  5  3  2  0
  6  3  1  0
  6 12  1  0
  7  4  1  0
  7 10  1  0
  9 10  1  0
  9  8  1  0
 10 51  1  0
 11  7  2  0
 13 21  1  0
 14 19  1  0
 15 16  1  0
 15 14  1  0
 17 16  1  0
 17 26  1  0
 17 18  1  0
 19 13  1  0
 19 18  1  0
 20 13  2  0
 21 22  1  0
 21 12  1  0
 23 24  2  0
 24 43  1  0
 25 24  1  0
 25 28  1  0
 26 27  1  0
 26 23  1  0
 27 25  2  0
 28 29  1  0
 29 30  2  0
 31 34  1  0
 31 30  1  0
 32 31  2  0
 33 32  1  0
 33 28  2  0
 34 35  1  0
 35 36  1  0
 36 37  2  0
 38 37  1  0
 38 42  1  0
 39 38  2  0
 40 35  2  0
 40 39  1  0
 41 40  1  0
 43 44  1  0
 44 47  1  0
 44 46  1  0
 45 43  2  0
 48 49  1  0
 48 23  1  0
 50 48  1  0
 51 52  1  0
 53 55  1  0
 53 52  1  0
 54 65  2  0
 55 60  1  0
 56 64  1  0
 56 66  1  0
 57 63  1  0
 57 59  1  0
 58 64  1  0
 59 60  2  0
 59 58  1  0
 61 55  2  0
 62 61  1  0
 62 57  2  0
 63 56  1  0
 64 54  1  0
 66 68  2  0
 67 66  1  0
 69 67  1  0
 70 79  2  0
 70 75  1  0
 71 67  1  0
 71 75  1  0
 72 71  1  0
 73 74  1  0
 73 72  1  0
 74 70  1  0
 75 76  2  0
 76 77  1  0
 78 77  2  0
 79 78  1  0
 80 54  1  0
 80 85  1  0
 80 81  1  0
 81 84  1  1
 81 82  1  0
 83 81  1  0
 85 88  1  0
 86 90  1  0
 86 85  1  0
 87 86  2  0
 90 89  1  0
 92 90  1  0
 92 93  1  0
 92 91  1  0
M  ISO  4  13 100  21 100  52 101  53 101
M  END
>  <TORSDO>  (31) 
F 19

>  <SCORE>  (31) 
-14.668

>  <name>  (31) 
30

>  <ligand_id>  (31) 
30

>  <original_smiles>  (31) 
[H]c1c([H])c([H])c2c(c1[H])C([H])([H])C([H])([H])C([H])([H])C2([H])N([H])C(=O)C1([H])N(C(=O)C([H])(N([H])C(=O)C([H])(N([H])C([H])([H])[H])C([H])([H])[H])C(C([H])([H])[H])(C([H])([H])[H])C([H])([H])[H])C([H])([H])c2c([H])c(OC([H])([H])C([H])([H])C3([H])C(=O)c4c([H])c([H])c(C([H])([H])N([H])C(=O)N5C([H])([H])C([H])([H])C([H])([H])C([H])(n6nc(-c7c([H])c([H])c(Oc8c([H])c([H])c(F)c([H])c8F)c([H])c7[H])c(C(=O)N([H])[H])c6N([H])[H])C5([H])[H])c([H])c4C([H])([H])C3([H])[H])c([H])c([H])c2C1([H])[H]

>  <smiles>  (31) 
[H]c1c([H])c([H])c2c(c1[H])C([H])([H])C([H])([H])C([H])([H])C2([H])N([H])C(=O)C1([H])N(C(=O)C([H])(N([H])C(=O)C([H])(N([H])C([H])([H])[H])C([H])([H])[H])C(C([H])([H])[H])(C([H])([H])[H])C([H])([H])[H])C([H])([H])c2c([H])c(OC([H])([H])C([H])([H])C3([H])C(=O)c4c([H])c([H])c(C([H])([H])N([H])C(=O)N5C([H])([H])C([H])([H])C([H])([H])C([H])(n6nc(-c7c([H])c([H])c(Oc8c([H])c([H])c(F)c([H])c8F)c([H])c7[H])c(C(=O)N([H])[H])c6N([H])[H])C5([H])[H])c([H])c4C([H])([H])C3([H])[H])c([H])c([H])c2C1([H])[H]

$$$$
31:0:0
     RDKit          3D

 95104  0  0  1  0  0  0  0  0999 V2000
  -29.7290  -25.0660   16.4000 C   0  0  0  0  0  3  0  0  0  0  0  0
  -31.4150  -23.3260   17.7560 C   0  0  0  0  0  3  0  0  0  0  0  0
  -29.3270  -24.5450   17.6420 C   0  0  0  0  0  0  0  0  0  0  0  0
  -30.1620  -23.6310   18.3060 C   0  0  0  0  0  0  0  0  0  0  0  0
  -30.9600  -24.7470   15.7620 C   0  0  0  0  0  0  0  0  0  0  0  0
  -31.8790  -23.8680   16.5320 C   0  0  0  0  0  0  0  0  0  0  0  0
  -27.5610  -24.2380   19.4930 C   0  0  0  0  0  0  0  0  0  0  0  0
  -27.9820  -24.9850   18.2230 C   0  0  0  0  0  2  0  0  0  0  0  0
  -29.7230  -22.9860   19.6150 C   0  0  0  0  0  2  0  0  0  0  0  0
  -28.1960  -22.8730   19.7200 C   0  0  0  0  0  2  0  0  0  0  0  0
  -26.7360  -24.7080   20.2820 O   0  0  0  0  0  0  0  0  0  0  0  0
  -31.0990  -25.4030   14.3030 C   0  0  0  0  0  2  0  0  0  0  0  0
  -31.7110  -26.9290   14.1520 C   0  0  0  0  0  2  0  0  0  0  0  0
  -30.8710  -28.2910   14.4140 C   0  0  0  0  0  2  0  0  0  0  0  0
  -29.8070  -28.7950   13.4720 O   0  0  0  0  0  0  0  0  0  0  0  0
  -26.2650  -28.5450    7.1610 C   0  0  0  0  0  0  0  0  0  0  0  0
  -29.0640  -28.0120   12.5590 C   0  0  0  0  0  0  0  0  0  0  0  0
  -25.7970  -26.7220    8.7620 C   0  0  0  0  0  3  0  0  0  0  0  0
  -27.4200  -26.5150   10.7360 C   0  0  0  0  0  0  0  0  0  0  0  0
  -28.0840  -27.8840    8.7570 C   0  0  0  0  0  2  0  0  0  0  0  0
  -28.1980  -27.5720   10.2500 C   0  0  0  0  0  0  0  0  0  0  0  0
  -29.0270  -28.3090   11.1530 C   0  0  0  0  0  3  0  0  0  0  0  0
  -28.2890  -26.9140   12.9890 C   0  0  0  0  0  3  0  0  0  0  0  0
  -27.4760  -26.1800   12.0990 C   0  0  0  0  0  3  0  0  0  0  0  0
  -26.5360  -25.7770    9.7480 C   0  0  0  0  0  2  0  0  0  0  0  0
  -26.7070  -27.7720    8.1970 N   0  0  0  0  0  0  0  0  0  0  0  0
  -25.1420  -28.3760    6.6630 O   0  0  0  0  0  0  0  0  0  0  0  0
  -24.5490  -27.3080    9.4640 C   0  0  0  0  0  0  0  0  0  0  0  0
  -23.4410  -26.5470    9.4660 N   0  0  0  0  0  0  0  0  0  0  0  0
  -24.5970  -28.4130   10.0110 O   0  0  0  0  0  0  0  0  0  0  0  0
  -23.4770  -25.6600    8.9850 H   0  0  0  0  0  0  0  0  0  0  0  0
  -19.8890  -25.8550    9.4530 C   0  0  0  0  0  0  0  0  0  0  0  0
  -22.1700  -26.8830   10.1100 C   0  0  0  0  0  3  0  0  0  0  0  0
  -22.0060  -26.1290   11.4500 C   0  0  0  0  0  2  0  0  0  0  0  0
  -21.2520  -24.8030   11.3070 C   0  0  0  0  0  2  0  0  0  0  0  0
  -19.8500  -25.0410   10.7360 C   0  0  0  0  0  2  0  0  0  0  0  0
  -20.9850  -26.7070    9.1520 C   0  0  0  0  0  0  0  0  0  0  0  0
  -20.9850  -27.4160    7.9310 C   0  0  0  0  0  3  0  0  0  0  0  0
  -19.9180  -27.2870    7.0220 C   0  0  0  0  0  3  0  0  0  0  0  0
  -18.8280  -26.4540    7.3330 C   0  0  0  0  0  3  0  0  0  0  0  0
  -18.8140  -25.7440    8.5470 C   0  0  0  0  0  3  0  0  0  0  0  0
  -27.1570  -29.6620    6.5380 C   0  0  0  0  0  3  0  0  0  0  0  0
  -28.3880  -29.0270    6.0470 N   0  0  0  0  0  0  0  0  0  0  0  0
  -29.5440  -28.9810    6.7220 C   0  0  0  0  0  0  0  0  0  0  0  0
  -29.7040  -29.5360    7.8120 O   0  0  0  0  0  0  0  0  0  0  0  0
  -28.3140  -28.5040    5.1860 H   0  0  0  0  0  0  0  0  0  0  0  0
  -30.8000  -26.7990    6.7270 C   0  0  0  0  0  1  0  0  0  0  0  0
  -30.7090  -28.1940    6.0890 C   0  0  0  0  0  3  0  0  0  0  0  0
  -32.1410  -30.0410    5.3330 C   0  0  0  0  0  1  0  0  0  0  0  0
  -32.0150  -28.8790    6.2070 N   0  0  0  0  0  0  0  0  0  0  0  0
  -32.7750  -28.2390    5.9940 H   0  0  0  0  0  0  0  0  0  0  0  0
  -26.4400  -30.4540    5.3740 C   0  0  1  0  0  0  0  0  0  0  0  0
  -25.8550  -29.5420    4.2700 C   0  0  0  0  0  1  0  0  0  0  0  0
  -25.2850  -31.3190    5.9280 C   0  0  0  0  0  1  0  0  0  0  0  0
  -27.4420  -31.4250    4.7070 C   0  0  0  0  0  1  0  0  0  0  0  0
  -33.3420  -23.3570   16.2220 C   0  0  0  0  0  2  0  0  0  0  0  0
  -34.4400  -23.1830   17.4280 C   0  0  0  0  0  2  0  0  0  0  0  0
  -33.3860  -22.0450   19.5600 C   0  0  0  0  0  0  0  0  0  0  0  0
  -33.1280  -21.2490   21.9180 C   0  0  0  0  0  2  0  0  0  0  0  0
  -34.4340  -21.5080   22.7000 C   0  0  0  0  0  2  0  0  0  0  0  0
  -35.4130  -20.3320   22.5190 C   0  0  0  0  0  2  0  0  0  0  0  0
  -35.5640  -19.9030   21.0350 C   0  0  0  0  0  3  0  0  0  0  0  0
  -34.1950  -19.7640   20.3360 C   0  0  0  0  0  2  0  0  0  0  0  0
  -33.4960  -21.0430   20.4980 N   0  0  0  0  0  0  0  0  0  0  0  0
  -32.5450  -22.9340   19.7160 O   0  0  0  0  0  0  0  0  0  0  0  0
  -34.3520  -22.1540   18.5650 N   0  0  0  0  0  0  0  0  0  0  0  0
  -35.0530  -21.4280   18.5610 H   0  0  0  0  0  0  0  0  0  0  0  0
  -37.7170  -18.5880   20.5780 C   0  0  0  0  0  0  0  0  0  0  0  0
  -38.0150  -17.2570   20.6590 C   0  0  0  0  0  0  0  0  0  0  0  0
  -36.8010  -16.6020   21.0340 C   0  0  0  0  0  0  0  0  0  0  0  0
  -36.3750  -18.6980   20.8980 N   0  0  0  0  0  0  0  0  0  0  0  0
  -35.8090  -17.4820   21.1110 N   0  0  0  0  0  0  0  0  0  0  0  0
  -36.5400  -15.2000   21.3800 C   0  0  0  0  0  0  0  0  0  0  0  0
  -36.8670  -14.1470   20.4960 C   0  0  0  0  0  3  0  0  0  0  0  0
  -36.6240  -12.8050   20.8610 C   0  0  0  0  0  3  0  0  0  0  0  0
  -36.0550  -12.5030   22.1200 C   0  0  0  0  0  0  0  0  0  0  0  0
  -35.7100  -13.5550   22.9870 C   0  0  0  0  0  3  0  0  0  0  0  0
  -35.9470  -14.8910   22.6200 C   0  0  0  0  0  3  0  0  0  0  0  0
  -35.7620  -11.2310   22.5490 O   0  0  0  0  0  0  0  0  0  0  0  0
  -36.6250  -10.5230   23.3470 C   0  0  0  0  0  0  0  0  0  0  0  0
  -36.6770  -10.7190   24.7450 C   0  0  0  0  0  3  0  0  0  0  0  0
  -37.5290   -9.9220   25.5350 C   0  0  0  0  0  3  0  0  0  0  0  0
  -38.3210   -8.9250   24.9350 C   0  0  0  0  0  0  0  0  0  0  0  0
  -38.2660   -8.7250   23.5440 C   0  0  0  0  0  3  0  0  0  0  0  0
  -37.4180   -9.5210   22.7530 C   0  0  0  0  0  0  0  0  0  0  0  0
  -37.3530   -9.3100   21.4160 F   0  0  0  0  0  0  0  0  0  0  0  0
  -39.1330   -8.1540   25.6950 F   0  0  0  0  0  0  0  0  0  0  0  0
  -39.3720  -16.6350   20.5000 C   0  0  0  0  0  0  0  0  0  0  0  0
  -39.4250  -15.3990   20.0170 N   0  0  0  0  0  0  0  0  0  0  0  0
  -40.3970  -17.2630   20.7580 O   0  0  0  0  0  0  0  0  0  0  0  0
  -38.5830  -14.8910   19.7860 H   0  0  0  0  0  0  0  0  0  0  0  0
  -40.3190  -14.9520   19.8740 H   0  0  0  0  0  0  0  0  0  0  0  0
  -38.4770  -19.7180   20.2860 N   0  0  0  0  0  0  0  0  0  0  0  0
  -39.4770  -19.6630   20.1230 H   0  0  0  0  0  0  0  0  0  0  0  0
  -38.1410  -20.6690   20.3530 H   0  0  0  0  0  0  0  0  0  0  0  0
  1  3  1  0
  2  4  1  0
  3  8  1  0
  3  4  2  0
  4  9  1  0
  5  1  2  0
  5  6  1  0
  6  2  2  0
  7 10  1  0
  7 11  2  0
  8  7  1  0
  9 10  1  0
 12  5  1  0
 13 12  1  0
 13 14  1  0
 15 14  1  0
 16 26  1  0
 17 23  1  0
 17 15  1  0
 18 28  1  0
 18 25  1  0
 19 24  1  0
 20 21  1  0
 21 19  2  0
 21 22  1  0
 22 17  2  0
 24 23  2  0
 25 19  1  0
 26 20  1  0
 26 18  1  0
 27 16  2  0
 28 29  1  0
 28 30  2  0
 31 29  1  0
 32 36  1  0
 33 29  1  0
 33 34  1  0
 35 34  1  0
 36 35  1  0
 37 32  1  0
 37 33  1  0
 38 37  2  0
 39 40  2  0
 39 38  1  0
 40 41  1  0
 41 32  2  0
 42 16  1  0
 43 42  1  0
 43 44  1  0
 44 45  2  0
 46 43  1  0
 48 50  1  0
 48 44  1  0
 48 47  1  0
 49 50  1  0
 51 50  1  0
 52 54  1  1
 52 42  1  0
 53 52  1  0
 55 52  1  0
 56  6  1  0
 56 57  1  0
 57 66  1  0
 58 65  2  0
 58 64  1  0
 59 60  1  0
 61 60  1  0
 62 63  1  0
 62 61  1  0
 63 64  1  0
 64 59  1  0
 66 58  1  0
 67 66  1  0
 68 69  2  0
 68 71  1  0
 69 70  1  0
 70 72  2  0
 70 73  1  0
 71 62  1  0
 71 72  1  0
 73 78  1  0
 74 75  1  0
 74 73  2  0
 75 76  2  0
 76 79  1  0
 76 77  1  0
 78 77  2  0
 79 80  1  0
 80 81  1  0
 81 82  2  0
 83 82  1  0
 83 87  1  0
 84 83  2  0
 85 80  2  0
 85 84  1  0
 86 85  1  0
 88 69  1  0
 88 90  2  0
 89 88  1  0
 91 89  1  0
 92 89  1  0
 93 95  1  0
 93 68  1  0
 94 93  1  0
M  ISO  4  14 101  15 101  58 100  66 100
M  END
>  <TORSDO>  (32) 
F 21

>  <SCORE>  (32) 
5.152

>  <name>  (32) 
31

>  <ligand_id>  (32) 
31

>  <original_smiles>  (32) 
[H]c1c([H])c([H])c2c(c1[H])C([H])([H])C([H])([H])C([H])([H])C2([H])N([H])C(=O)C1([H])N(C(=O)C([H])(N([H])C(=O)C([H])(N([H])C([H])([H])[H])C([H])([H])[H])C(C([H])([H])[H])(C([H])([H])[H])C([H])([H])[H])C([H])([H])c2c([H])c(OC([H])([H])C([H])([H])C([H])([H])c3c([H])c4c(c([H])c3C([H])([H])C([H])([H])N([H])C(=O)N3C([H])([H])C([H])([H])C([H])([H])C([H])(n5nc(-c6c([H])c([H])c(Oc7c([H])c([H])c(F)c([H])c7F)c([H])c6[H])c(C(=O)N([H])[H])c5N([H])[H])C3([H])[H])C([H])([H])C([H])([H])C(=O)C4([H])[H])c([H])c([H])c2C1([H])[H]

>  <smiles>  (32) 
[H]c1c([H])c([H])c2c(c1[H])C([H])([H])C([H])([H])C([H])([H])C2([H])N([H])C(=O)C1([H])N(C(=O)C([H])(N([H])C(=O)C([H])(N([H])C([H])([H])[H])C([H])([H])[H])C(C([H])([H])[H])(C([H])([H])[H])C([H])([H])[H])C([H])([H])c2c([H])c(OC([H])([H])C([H])([H])C([H])([H])c3c([H])c4c(c([H])c3C([H])([H])C([H])([H])N([H])C(=O)N3C([H])([H])C([H])([H])C([H])([H])C([H])(n5nc(-c6c([H])c([H])c(Oc7c([H])c([H])c(F)c([H])c7F)c([H])c6[H])c(C(=O)N([H])[H])c5N([H])[H])C3([H])[H])C([H])([H])C([H])([H])C(=O)C4([H])[H])c([H])c([H])c2C1([H])[H]

$$$$
32:0:0
     RDKit          3D

 91 99  0  0  1  0  0  0  0  0999 V2000
  -30.5820  -15.3240   20.5380 C   0  0  0  0  0  0  0  0  0  0  0  0
  -30.3940  -13.0200   19.3810 C   0  0  0  0  0  2  0  0  0  0  0  0
  -29.4630  -12.9930   18.1460 C   0  0  0  0  0  2  0  0  0  0  0  0
  -28.0010  -12.7610   18.5660 C   0  0  0  0  0  2  0  0  0  0  0  0
  -27.6000  -13.6050   19.8020 C   0  0  0  0  0  3  0  0  0  0  0  0
  -28.6630  -13.5960   20.9190 C   0  0  0  0  0  2  0  0  0  0  0  0
  -29.9030  -14.1000   20.3060 N   0  0  0  0  0  0  0  0  0  0  0  0
  -31.8150  -15.2070   20.4690 O   0  0  0  0  0  0  0  0  0  0  0  0
  -30.3830  -18.4930   18.6390 C   0  0  0  0  0  2  0  0  0  0  0  0
  -29.6520  -19.6810   19.3170 C   0  0  0  0  0  2  0  0  0  0  0  0
  -29.8180  -18.0290   21.3130 C   0  0  0  0  0  2  0  0  0  0  0  0
  -29.8670  -17.0490   18.9520 C   0  0  0  0  0  3  0  0  0  0  0  0
  -29.9150  -19.7280   20.8230 C   0  0  0  0  0  3  0  0  0  0  0  0
  -29.9870  -16.6770   20.3890 N   0  0  0  0  0  0  0  0  0  0  0  0
  -25.2140  -14.2040   20.4720 C   0  0  0  0  0  0  0  0  0  0  0  0
  -24.1360  -13.4400   20.8180 C   0  0  0  0  0  0  0  0  0  0  0  0
  -24.5960  -12.0870   20.8270 C   0  0  0  0  0  0  0  0  0  0  0  0
  -26.2580  -13.3170   20.2800 N   0  0  0  0  0  0  0  0  0  0  0  0
  -25.8980  -12.0390   20.5630 N   0  0  0  0  0  0  0  0  0  0  0  0
  -23.8580  -10.8330   21.0120 C   0  0  0  0  0  0  0  0  0  0  0  0
  -24.2500   -9.8820   21.9810 C   0  0  0  0  0  3  0  0  0  0  0  0
  -23.5110   -8.6930   22.1560 C   0  0  0  0  0  3  0  0  0  0  0  0
  -22.3670   -8.4460   21.3610 C   0  0  0  0  0  0  0  0  0  0  0  0
  -21.9950   -9.3840   20.3820 C   0  0  0  0  0  3  0  0  0  0  0  0
  -22.7350  -10.5650   20.2050 C   0  0  0  0  0  3  0  0  0  0  0  0
  -21.6040   -7.3060   21.4420 O   0  0  0  0  0  0  0  0  0  0  0  0
  -21.5080   -6.5860   22.6060 C   0  0  0  0  0  0  0  0  0  0  0  0
  -21.0550   -7.1710   23.8080 C   0  0  0  0  0  3  0  0  0  0  0  0
  -20.9060   -6.3790   24.9630 C   0  0  0  0  0  3  0  0  0  0  0  0
  -21.2000   -5.0030   24.9180 C   0  0  0  0  0  0  0  0  0  0  0  0
  -21.6470   -4.4180   23.7200 C   0  0  0  0  0  3  0  0  0  0  0  0
  -21.7980   -5.2090   22.5670 C   0  0  0  0  0  0  0  0  0  0  0  0
  -22.2100   -4.6360   21.4100 F   0  0  0  0  0  0  0  0  0  0  0  0
  -21.0500   -4.2400   26.0260 F   0  0  0  0  0  0  0  0  0  0  0  0
  -22.7320  -13.9280   21.0210 C   0  0  0  0  0  0  0  0  0  0  0  0
  -21.9720  -13.2640   21.8830 N   0  0  0  0  0  0  0  0  0  0  0  0
  -22.3150  -14.9350   20.4480 O   0  0  0  0  0  0  0  0  0  0  0  0
  -22.3230  -12.4520   22.3710 H   0  0  0  0  0  0  0  0  0  0  0  0
  -21.0260  -13.5730   22.0610 H   0  0  0  0  0  0  0  0  0  0  0  0
  -25.3790  -15.5710   20.2740 N   0  0  0  0  0  0  0  0  0  0  0  0
  -24.5860  -16.2020   20.3120 H   0  0  0  0  0  0  0  0  0  0  0  0
  -26.1830  -15.9930   19.8070 H   0  0  0  0  0  0  0  0  0  0  0  0
  -28.4170  -16.9240   18.4630 C   0  0  0  0  0  0  0  0  0  0  0  0
  -28.2180  -16.6450   17.1810 N   0  0  0  0  0  0  0  0  0  0  0  0
  -27.4680  -17.0820   19.2290 O   0  0  0  0  0  0  0  0  0  0  0  0
  -28.9970  -16.5360   16.5480 H   0  0  0  0  0  0  0  0  0  0  0  0
  -27.2790  -16.5700   16.8190 H   0  0  0  0  0  0  0  0  0  0  0  0
  -29.2050  -21.2210   21.4950 C   0  0  0  0  0  2  0  0  0  0  0  0
  -29.4520  -22.9620   21.1810 C   0  0  0  0  0  3  0  0  0  0  0  0
  -28.4360  -24.4090   21.4270 C   0  0  0  0  0  3  0  0  0  0  0  0
  -28.6540  -26.0230   21.2800 O   0  0  0  0  0  0  0  0  0  0  0  0
  -24.6770  -32.0320   23.4850 C   0  0  0  0  0  0  0  0  0  0  0  0
  -27.6040  -27.0520   21.0850 C   0  0  0  0  0  0  0  0  0  0  0  0
  -23.6640  -30.4820   21.8630 C   0  0  0  0  0  3  0  0  0  0  0  0
  -25.2660  -28.8240   20.7010 C   0  0  0  0  0  0  0  0  0  0  0  0
  -26.2260  -30.7680   21.9170 C   0  0  0  0  0  2  0  0  0  0  0  0
  -26.3850  -29.3190   21.3820 C   0  0  0  0  0  0  0  0  0  0  0  0
  -27.5540  -28.4530   21.5440 C   0  0  0  0  0  3  0  0  0  0  0  0
  -26.4530  -26.6930   20.3460 C   0  0  0  0  0  3  0  0  0  0  0  0
  -25.3250  -27.5290   20.1630 C   0  0  0  0  0  3  0  0  0  0  0  0
  -24.0270  -29.7040   20.5690 C   0  0  0  0  0  2  0  0  0  0  0  0
  -24.8710  -31.1240   22.4740 N   0  0  0  0  0  0  0  0  0  0  0  0
  -23.5410  -32.3270   23.8870 O   0  0  0  0  0  0  0  0  0  0  0  0
  -22.9130  -29.5400   22.8400 C   0  0  0  0  0  0  0  0  0  0  0  0
  -21.6060  -29.3170   22.6080 N   0  0  0  0  0  0  0  0  0  0  0  0
  -23.5160  -29.0050   23.7740 O   0  0  0  0  0  0  0  0  0  0  0  0
  -21.1750  -29.7980   21.8300 H   0  0  0  0  0  0  0  0  0  0  0  0
  -18.2270  -28.0320   22.9000 C   0  0  0  0  0  0  0  0  0  0  0  0
  -20.7410  -28.4160   23.3760 C   0  0  0  0  0  3  0  0  0  0  0  0
  -20.9400  -26.9470   22.9370 C   0  0  0  0  0  2  0  0  0  0  0  0
  -19.9500  -26.5000   21.8560 C   0  0  0  0  0  2  0  0  0  0  0  0
  -18.5090  -26.6410   22.3550 C   0  0  0  0  0  2  0  0  0  0  0  0
  -19.2750  -28.8700   23.3640 C   0  0  0  0  0  0  0  0  0  0  0  0
  -18.9580  -30.1640   23.8320 C   0  0  0  0  0  3  0  0  0  0  0  0
  -17.6270  -30.6220   23.8400 C   0  0  0  0  0  3  0  0  0  0  0  0
  -16.5920  -29.7830   23.3910 C   0  0  0  0  0  3  0  0  0  0  0  0
  -16.8930  -28.4900   22.9270 C   0  0  0  0  0  3  0  0  0  0  0  0
  -25.8740  -32.7560   24.1720 C   0  0  0  0  0  3  0  0  0  0  0  0
  -26.2910  -32.0950   25.5440 C   0  0  1  0  0  0  0  0  0  0  0  0
  -25.1080  -31.8690   26.5140 C   0  0  0  0  0  1  0  0  0  0  0  0
  -26.9730  -30.7270   25.3150 C   0  0  0  0  0  1  0  0  0  0  0  0
  -27.3320  -32.9880   26.2600 C   0  0  0  0  0  1  0  0  0  0  0  0
  -25.4910  -34.1620   24.3840 N   0  0  0  0  0  0  0  0  0  0  0  0
  -25.8470  -35.1830   23.5930 C   0  0  0  0  0  0  0  0  0  0  0  0
  -26.5970  -35.0420   22.6220 O   0  0  0  0  0  0  0  0  0  0  0  0
  -24.8300  -34.3420   25.1260 H   0  0  0  0  0  0  0  0  0  0  0  0
  -24.0930  -36.8950   23.0140 C   0  0  0  0  0  1  0  0  0  0  0  0
  -25.2880  -36.5810   23.9280 C   0  0  0  0  0  3  0  0  0  0  0  0
  -27.3370  -37.5870   24.8340 C   0  0  0  0  0  1  0  0  0  0  0  0
  -26.2930  -37.6610   23.8160 N   0  0  0  0  0  0  0  0  0  0  0  0
  -25.8500  -38.5740   23.8810 H   0  0  0  0  0  0  0  0  0  0  0  0
  2  7  1  0
  3  4  1  0
  3  2  1  0
  5  4  1  0
  5 18  1  0
  5  6  1  0
  7  1  1  0
  7  6  1  0
  8  1  2  0
  9 12  1  0
  9 10  1  0
 10 13  1  0
 12 43  1  0
 12 14  1  0
 13 11  1  0
 13 48  1  0
 14  1  1  0
 14 11  1  0
 15 16  2  0
 16 17  1  0
 16 35  1  0
 17 20  1  0
 18 15  1  0
 18 19  1  0
 19 17  2  0
 20 21  1  0
 21 22  2  0
 23 26  1  0
 23 22  1  0
 24 23  2  0
 25 24  1  0
 25 20  2  0
 26 27  1  0
 27 28  1  0
 28 29  2  0
 30 29  1  0
 30 34  1  0
 31 30  2  0
 32 27  2  0
 32 31  1  0
 33 32  1  0
 35 36  1  0
 36 39  1  0
 36 38  1  0
 37 35  2  0
 40 41  1  0
 40 15  1  0
 42 40  1  0
 43 45  2  0
 44 43  1  0
 46 44  1  0
 47 44  1  0
 49 50  2  0
 49 48  1  0
 51 50  1  0
 52 63  2  0
 53 51  1  0
 53 58  1  0
 54 62  1  0
 54 64  1  0
 55 57  1  0
 56 62  1  0
 57 58  2  0
 57 56  1  0
 59 53  2  0
 60 59  1  0
 60 55  2  0
 61 55  1  0
 61 54  1  0
 62 52  1  0
 64 66  2  0
 65 64  1  0
 67 65  1  0
 68 77  2  0
 68 73  1  0
 69 65  1  0
 70 69  1  0
 71 72  1  0
 71 70  1  0
 72 68  1  0
 73 69  1  0
 73 74  2  0
 74 75  1  0
 76 75  2  0
 77 76  1  0
 78 52  1  0
 78 83  1  0
 78 79  1  0
 79 82  1  1
 79 80  1  0
 81 79  1  0
 83 86  1  0
 84 88  1  0
 84 83  1  0
 85 84  2  0
 88 87  1  0
 90 91  1  0
 90 88  1  0
 90 89  1  0
M  ISO  4   1 100  14 100  50 101  51 101
M  END
>  <TORSDO>  (33) 
F 19

>  <SCORE>  (33) 
-11.981

>  <name>  (33) 
32

>  <ligand_id>  (33) 
32

>  <original_smiles>  (33) 
[H]c1c([H])c([H])c2c(c1[H])C([H])([H])C([H])([H])C([H])([H])C2([H])N([H])C(=O)C1([H])N(C(=O)C([H])(N([H])C(=O)C([H])(N([H])C([H])([H])[H])C([H])([H])[H])C(C([H])([H])[H])(C([H])([H])[H])C([H])([H])[H])C([H])([H])c2c([H])c(OC([H])([H])C([H])([H])C([H])([H])C3([H])C([H])([H])N(C(=O)N4C([H])([H])C([H])([H])C([H])([H])C([H])(n5nc(-c6c([H])c([H])c(Oc7c([H])c([H])c(F)c([H])c7F)c([H])c6[H])c(C(=O)N([H])[H])c5N([H])[H])C4([H])[H])C([H])(C(=O)N([H])[H])C([H])([H])C3([H])[H])c([H])c([H])c2C1([H])[H]

>  <smiles>  (33) 
[H]c1c([H])c([H])c2c(c1[H])C([H])([H])C([H])([H])C([H])([H])C2([H])N([H])C(=O)C1([H])N(C(=O)C([H])(N([H])C(=O)C([H])(N([H])C([H])([H])[H])C([H])([H])[H])C(C([H])([H])[H])(C([H])([H])[H])C([H])([H])[H])C([H])([H])c2c([H])c(OC([H])([H])C([H])([H])C([H])([H])C3([H])C([H])([H])N(C(=O)N4C([H])([H])C([H])([H])C([H])([H])C([H])(n5nc(-c6c([H])c([H])c(Oc7c([H])c([H])c(F)c([H])c7F)c([H])c6[H])c(C(=O)N([H])[H])c5N([H])[H])C4([H])[H])C([H])(C(=O)N([H])[H])C([H])([H])C3([H])[H])c([H])c([H])c2C1([H])[H]

$$$$
33:0:0
     RDKit          3D

 93103  0  0  1  0  0  0  0  0999 V2000
  -30.2920  -19.0230   17.4780 C   0  0  0  0  0  2  0  0  0  0  0  0
  -31.5680  -19.0640   18.3490 C   0  0  0  0  0  2  0  0  0  0  0  0
  -30.2410  -23.1450   18.6740 C   0  0  0  0  0  2  0  0  0  0  0  0
  -30.8200  -21.7790   18.3580 C   0  0  0  0  0  2  0  0  0  0  0  0
  -28.8050  -18.6090   19.4270 C   0  0  0  0  0  2  0  0  0  0  0  0
  -29.3110  -21.6030   20.2730 C   0  0  0  0  0  2  0  0  0  0  0  0
  -29.2400  -19.6910   18.4040 C   0  0  0  0  0  3  0  0  0  0  0  0
  -30.9920  -19.5370   19.7150 C   0  0  0  0  0  3  0  0  0  0  0  0
  -29.9300  -23.0350   20.1550 C   0  0  0  0  0  3  0  0  0  0  0  0
  -30.0610  -18.3940   20.2940 C   0  0  0  0  0  3  0  0  0  0  0  0
  -30.0730  -20.7060   19.2240 C   0  0  1  0  0  0  0  0  0  0  0  0
  -29.2950  -24.3240   20.7910 C   0  0  0  0  0  2  0  0  0  0  0  0
  -28.2380  -25.1640   20.0060 C   0  0  0  0  0  2  0  0  0  0  0  0
  -28.3500  -26.5950   20.2560 O   0  0  0  0  0  0  0  0  0  0  0  0
  -24.5850  -31.8770   23.2360 C   0  0  0  0  0  0  0  0  0  0  0  0
  -27.2040  -27.3770   20.1780 C   0  0  0  0  0  0  0  0  0  0  0  0
  -23.3800  -30.4770   21.5940 C   0  0  0  0  0  3  0  0  0  0  0  0
  -24.8300  -28.9390   20.1660 C   0  0  0  0  0  0  0  0  0  0  0  0
  -25.9130  -30.8160   21.4060 C   0  0  0  0  0  2  0  0  0  0  0  0
  -25.9920  -29.4430   20.7620 C   0  0  0  0  0  0  0  0  0  0  0  0
  -27.1820  -28.6710   20.7640 C   0  0  0  0  0  3  0  0  0  0  0  0
  -26.0250  -26.9140   19.5460 C   0  0  0  0  0  3  0  0  0  0  0  0
  -24.8450  -27.6770   19.5510 C   0  0  0  0  0  3  0  0  0  0  0  0
  -23.5910  -29.8030   20.2130 C   0  0  0  0  0  2  0  0  0  0  0  0
  -24.6450  -31.0730   22.1360 N   0  0  0  0  0  0  0  0  0  0  0  0
  -23.5030  -32.1520   23.7720 O   0  0  0  0  0  0  0  0  0  0  0  0
  -22.7240  -29.4550   22.5530 C   0  0  0  0  0  0  0  0  0  0  0  0
  -21.3990  -29.2820   22.4280 N   0  0  0  0  0  0  0  0  0  0  0  0
  -23.4060  -28.8240   23.3650 O   0  0  0  0  0  0  0  0  0  0  0  0
  -20.9100  -29.8430   21.7440 H   0  0  0  0  0  0  0  0  0  0  0  0
  -18.0160  -28.1160   22.9410 C   0  0  0  0  0  0  0  0  0  0  0  0
  -20.5770  -28.3470   23.1980 C   0  0  0  0  0  3  0  0  0  0  0  0
  -20.6620  -26.9190   22.6120 C   0  0  0  0  0  2  0  0  0  0  0  0
  -19.5510  -26.6140   21.6030 C   0  0  0  0  0  2  0  0  0  0  0  0
  -18.1750  -26.7690   22.2570 C   0  0  0  0  0  2  0  0  0  0  0  0
  -19.1450  -28.8650   23.3690 C   0  0  0  0  0  0  0  0  0  0  0  0
  -18.9420  -30.1270   23.9680 C   0  0  0  0  0  3  0  0  0  0  0  0
  -17.6440  -30.6410   24.1440 C   0  0  0  0  0  3  0  0  0  0  0  0
  -16.5290  -29.8900   23.7320 C   0  0  0  0  0  3  0  0  0  0  0  0
  -16.7160  -28.6290   23.1370 C   0  0  0  0  0  3  0  0  0  0  0  0
  -25.8710  -32.5050   23.8570 C   0  0  0  0  0  3  0  0  0  0  0  0
  -26.3860  -31.7340   25.1340 C   0  0  1  0  0  0  0  0  0  0  0  0
  -25.2900  -31.5020   26.2010 C   0  0  0  0  0  1  0  0  0  0  0  0
  -26.9650  -30.3540   24.7450 C   0  0  0  0  0  1  0  0  0  0  0  0
  -27.5360  -32.5280   25.7950 C   0  0  0  0  0  1  0  0  0  0  0  0
  -25.5650  -33.9050   24.1820 N   0  0  0  0  0  0  0  0  0  0  0  0
  -25.8990  -34.9530   23.4180 C   0  0  0  0  0  0  0  0  0  0  0  0
  -26.5690  -34.8440   22.3870 O   0  0  0  0  0  0  0  0  0  0  0  0
  -24.9670  -34.0630   24.9800 H   0  0  0  0  0  0  0  0  0  0  0  0
  -24.1750  -36.7480   23.0550 C   0  0  0  0  0  1  0  0  0  0  0  0
  -25.4150  -36.3450   23.8690 C   0  0  0  0  0  3  0  0  0  0  0  0
  -27.5500  -37.2280   24.7000 C   0  0  0  0  0  1  0  0  0  0  0  0
  -26.4500  -37.3940   23.7530 N   0  0  0  0  0  0  0  0  0  0  0  0
  -26.0450  -38.3160   23.8950 H   0  0  0  0  0  0  0  0  0  0  0  0
  -30.7260  -16.9610   20.2250 C   0  0  0  0  0  2  0  0  0  0  0  0
  -30.7030  -14.5260   20.4430 C   0  0  0  0  0  0  0  0  0  0  0  0
  -30.3380  -12.3520   19.3520 C   0  0  0  0  0  2  0  0  0  0  0  0
  -29.4180  -12.5510   18.1320 C   0  0  0  0  0  2  0  0  0  0  0  0
  -27.9440  -12.4210   18.5570 C   0  0  0  0  0  2  0  0  0  0  0  0
  -27.6000  -13.2740   19.8090 C   0  0  0  0  0  3  0  0  0  0  0  0
  -28.6540  -13.1130   20.9280 C   0  0  0  0  0  2  0  0  0  0  0  0
  -29.9720  -13.3800   20.3440 N   0  0  0  0  0  0  0  0  0  0  0  0
  -31.8840  -14.5560   20.0930 O   0  0  0  0  0  0  0  0  0  0  0  0
  -30.0540  -15.7040   20.6580 N   0  0  0  0  0  0  0  0  0  0  0  0
  -29.0700  -15.7050   20.8840 H   0  0  0  0  0  0  0  0  0  0  0  0
  -25.2050  -13.8750   20.5150 C   0  0  0  0  0  0  0  0  0  0  0  0
  -24.1360  -13.1030   20.8800 C   0  0  0  0  0  0  0  0  0  0  0  0
  -24.5970  -11.7510   20.8540 C   0  0  0  0  0  0  0  0  0  0  0  0
  -26.2500  -12.9940   20.2890 N   0  0  0  0  0  0  0  0  0  0  0  0
  -25.8890  -11.7110   20.5540 N   0  0  0  0  0  0  0  0  0  0  0  0
  -23.8680  -10.4890   21.0410 C   0  0  0  0  0  0  0  0  0  0  0  0
  -24.2920   -9.5220   21.9800 C   0  0  0  0  0  3  0  0  0  0  0  0
  -23.5640   -8.3260   22.1540 C   0  0  0  0  0  3  0  0  0  0  0  0
  -22.3970   -8.0880   21.3910 C   0  0  0  0  0  0  0  0  0  0  0  0
  -21.9910   -9.0440   20.4430 C   0  0  0  0  0  3  0  0  0  0  0  0
  -22.7200  -10.2310   20.2660 C   0  0  0  0  0  3  0  0  0  0  0  0
  -21.6390   -6.9450   21.4760 O   0  0  0  0  0  0  0  0  0  0  0  0
  -21.5780   -6.2050   22.6300 C   0  0  0  0  0  0  0  0  0  0  0  0
  -21.1400   -6.7630   23.8510 C   0  0  0  0  0  3  0  0  0  0  0  0
  -21.0260   -5.9500   24.9960 C   0  0  0  0  0  3  0  0  0  0  0  0
  -21.3420   -4.5800   24.9220 C   0  0  0  0  0  0  0  0  0  0  0  0
  -21.7740   -4.0220   23.7060 C   0  0  0  0  0  3  0  0  0  0  0  0
  -21.8890   -4.8320   22.5620 C   0  0  0  0  0  0  0  0  0  0  0  0
  -22.2860   -4.2840   21.3880 F   0  0  0  0  0  0  0  0  0  0  0  0
  -21.2250   -3.7970   26.0190 F   0  0  0  0  0  0  0  0  0  0  0  0
  -22.7370  -13.5820   21.1430 C   0  0  0  0  0  0  0  0  0  0  0  0
  -22.0010  -12.8870   22.0010 N   0  0  0  0  0  0  0  0  0  0  0  0
  -22.3060  -14.6090   20.6210 O   0  0  0  0  0  0  0  0  0  0  0  0
  -22.3630  -12.0560   22.4480 H   0  0  0  0  0  0  0  0  0  0  0  0
  -21.0630  -13.1900   22.2180 H   0  0  0  0  0  0  0  0  0  0  0  0
  -25.3710  -15.2450   20.3360 N   0  0  0  0  0  0  0  0  0  0  0  0
  -24.6020  -15.8990   20.4410 H   0  0  0  0  0  0  0  0  0  0  0  0
  -26.2180  -15.6830   20.0000 H   0  0  0  0  0  0  0  0  0  0  0  0
  1  2  1  0
  3  9  1  0
  4  3  1  0
  5 10  1  0
  7  1  1  0
  7 11  1  0
  7  5  1  0
  8  2  1  0
  8 10  1  0
  9  6  1  0
  9 12  1  0
 10 55  1  0
 11  4  1  6
 11  8  1  0
 11  6  1  0
 13 14  1  0
 13 12  1  0
 15 26  2  0
 16 14  1  0
 16 21  1  0
 17 25  1  0
 17 27  1  0
 18 24  1  0
 18 20  1  0
 19 25  1  0
 20 21  2  0
 20 19  1  0
 22 23  1  0
 22 16  2  0
 23 18  2  0
 24 17  1  0
 25 15  1  0
 27 29  2  0
 28 27  1  0
 30 28  1  0
 31 40  2  0
 31 36  1  0
 32 28  1  0
 32 36  1  0
 33 32  1  0
 34 35  1  0
 34 33  1  0
 35 31  1  0
 36 37  2  0
 37 38  1  0
 39 38  2  0
 40 39  1  0
 41 15  1  0
 41 46  1  0
 41 42  1  0
 42 45  1  1
 42 43  1  0
 44 42  1  0
 46 49  1  0
 47 51  1  0
 47 46  1  0
 48 47  2  0
 51 50  1  0
 53 51  1  0
 53 54  1  0
 53 52  1  0
 55 64  1  0
 56 64  1  0
 57 62  1  0
 58 59  1  0
 58 57  1  0
 60 59  1  0
 60 69  1  0
 60 61  1  0
 62 56  1  0
 62 61  1  0
 63 56  2  0
 64 65  1  0
 66 67  2  0
 67 86  1  0
 68 67  1  0
 68 71  1  0
 69 66  1  0
 69 70  1  0
 70 68  2  0
 71 72  1  0
 72 73  2  0
 74 77  1  0
 74 73  1  0
 75 74  2  0
 76 75  1  0
 76 71  2  0
 77 78  1  0
 78 79  1  0
 79 80  2  0
 81 80  1  0
 81 85  1  0
 82 81  2  0
 83 78  2  0
 83 82  1  0
 84 83  1  0
 86 87  1  0
 87 90  1  0
 87 89  1  0
 88 86  2  0
 91 92  1  0
 91 66  1  0
 93 91  1  0
M  ISO  4  13 101  14 101  56 100  64 100
M  END
>  <TORSDO>  (34) 
F 19

>  <SCORE>  (34) 
-14.320

>  <name>  (34) 
33

>  <ligand_id>  (34) 
33

>  <original_smiles>  (34) 
[H]c1c([H])c([H])c2c(c1[H])C([H])([H])C([H])([H])C([H])([H])C2([H])N([H])C(=O)C1([H])N(C(=O)C([H])(N([H])C(=O)C([H])(N([H])C([H])([H])[H])C([H])([H])[H])C(C([H])([H])[H])(C([H])([H])[H])C([H])([H])[H])C([H])([H])c2c([H])c(OC([H])([H])C([H])([H])C3([H])C([H])([H])C([H])([H])C4(C3([H])[H])C3([H])C([H])([H])C([H])([H])C4([H])C([H])(C([H])([H])N([H])C(=O)N4C([H])([H])C([H])([H])C([H])([H])C([H])(n5nc(-c6c([H])c([H])c(Oc7c([H])c([H])c(F)c([H])c7F)c([H])c6[H])c(C(=O)N([H])[H])c5N([H])[H])C4([H])[H])C3([H])[H])c([H])c([H])c2C1([H])[H]

>  <smiles>  (34) 
[H]c1c([H])c([H])c2c(c1[H])C([H])([H])C([H])([H])C([H])([H])C2([H])N([H])C(=O)C1([H])N(C(=O)C([H])(N([H])C(=O)C([H])(N([H])C([H])([H])[H])C([H])([H])[H])C(C([H])([H])[H])(C([H])([H])[H])C([H])([H])[H])C([H])([H])c2c([H])c(OC([H])([H])C([H])([H])C3([H])C([H])([H])C([H])([H])C4(C3([H])[H])C3([H])C([H])([H])C([H])([H])C4([H])C([H])(C([H])([H])N([H])C(=O)N4C([H])([H])C([H])([H])C([H])([H])C([H])(n5nc(-c6c([H])c([H])c(Oc7c([H])c([H])c(F)c([H])c7F)c([H])c6[H])c(C(=O)N([H])[H])c5N([H])[H])C4([H])[H])C3([H])[H])c([H])c([H])c2C1([H])[H]

$$$$
34:0:0
     RDKit          3D

 94103  0  0  1  0  0  0  0  0999 V2000
  -28.4320  -21.4160   22.0410 C   0  0  0  0  0  2  0  0  0  0  0  0
  -29.8620  -20.9750   22.3730 C   0  0  0  0  0  2  0  0  0  0  0  0
  -31.4030  -20.8140   20.2430 C   0  0  0  0  0  2  0  0  0  0  0  0
  -32.0470  -19.4310   20.3160 C   0  0  0  0  0  2  0  0  0  0  0  0
  -29.6450  -19.2130   20.4800 C   0  0  0  0  0  2  0  0  0  0  0  0
  -28.9880  -21.8510   20.6750 C   0  0  0  0  0  3  0  0  0  0  0  0
  -30.0240  -20.6770   20.8720 C   0  0  1  0  0  0  0  0  0  0  0  0
  -30.9230  -18.3950   20.1030 C   0  0  1  0  0  0  0  0  0  0  0  0
  -30.8540  -17.9990   18.6140 C   0  0  0  0  0  1  0  0  0  0  0  0
  -29.4270  -23.3540   20.5780 C   0  0  0  0  0  2  0  0  0  0  0  0
  -28.4470  -24.2800   18.4610 C   0  0  0  0  0  1  0  0  0  0  0  0
  -26.9700  -24.0370   20.5070 C   0  0  0  0  0  1  0  0  0  0  0  0
  -28.3870  -24.3870   19.9980 C   0  0  1  0  0  0  0  0  0  0  0  0
  -28.7420  -25.8600   20.4410 C   0  0  0  0  0  2  0  0  0  0  0  0
  -28.4290  -26.9440   19.5320 O   0  0  0  0  0  0  0  0  0  0  0  0
  -24.6530  -31.7710   23.2550 C   0  0  0  0  0  0  0  0  0  0  0  0
  -27.2550  -27.6490   19.7110 C   0  0  0  0  0  0  0  0  0  0  0  0
  -23.4130  -30.5020   21.5320 C   0  0  0  0  0  3  0  0  0  0  0  0
  -24.8450  -29.1260   19.9250 C   0  0  0  0  0  0  0  0  0  0  0  0
  -25.9270  -30.9130   21.2920 C   0  0  0  0  0  2  0  0  0  0  0  0
  -26.0130  -29.6010   20.5370 C   0  0  0  0  0  0  0  0  0  0  0  0
  -27.2210  -28.8660   20.4380 C   0  0  0  0  0  3  0  0  0  0  0  0
  -26.0800  -27.2190   19.0630 C   0  0  0  0  0  3  0  0  0  0  0  0
  -24.8750  -27.9330   19.1850 C   0  0  0  0  0  3  0  0  0  0  0  0
  -23.5880  -29.9520   20.0900 C   0  0  0  0  0  2  0  0  0  0  0  0
  -24.6840  -31.0730   22.0840 N   0  0  0  0  0  0  0  0  0  0  0  0
  -23.5870  -31.9730   23.8520 O   0  0  0  0  0  0  0  0  0  0  0  0
  -22.8100  -29.3880   22.4150 C   0  0  0  0  0  0  0  0  0  0  0  0
  -21.4960  -29.1530   22.2690 N   0  0  0  0  0  0  0  0  0  0  0  0
  -23.5210  -28.7390   23.1860 O   0  0  0  0  0  0  0  0  0  0  0  0
  -20.9820  -29.7330   21.6210 H   0  0  0  0  0  0  0  0  0  0  0  0
  -18.1880  -27.7440   22.6330 C   0  0  0  0  0  0  0  0  0  0  0  0
  -20.7210  -28.1270   22.9690 C   0  0  0  0  0  3  0  0  0  0  0  0
  -20.9160  -26.7420   22.3090 C   0  0  0  0  0  2  0  0  0  0  0  0
  -19.8490  -26.4200   21.2570 C   0  0  0  0  0  2  0  0  0  0  0  0
  -18.4520  -26.4500   21.8820 C   0  0  0  0  0  2  0  0  0  0  0  0
  -19.2550  -28.5400   23.1290 C   0  0  0  0  0  0  0  0  0  0  0  0
  -18.9550  -29.7510   23.7900 C   0  0  0  0  0  3  0  0  0  0  0  0
  -17.6220  -30.1710   23.9570 C   0  0  0  0  0  3  0  0  0  0  0  0
  -16.5700  -29.3710   23.4800 C   0  0  0  0  0  3  0  0  0  0  0  0
  -16.8530  -28.1600   22.8230 C   0  0  0  0  0  3  0  0  0  0  0  0
  -25.9510  -32.3650   23.8860 C   0  0  0  0  0  3  0  0  0  0  0  0
  -26.4770  -31.5360   25.1220 C   0  0  1  0  0  0  0  0  0  0  0  0
  -25.3880  -31.2390   26.1790 C   0  0  0  0  0  1  0  0  0  0  0  0
  -27.0650  -30.1820   24.6590 C   0  0  0  0  0  1  0  0  0  0  0  0
  -27.6240  -32.3040   25.8170 C   0  0  0  0  0  1  0  0  0  0  0  0
  -25.6580  -33.7500   24.2740 N   0  0  0  0  0  0  0  0  0  0  0  0
  -26.0050  -34.8300   23.5610 C   0  0  0  0  0  0  0  0  0  0  0  0
  -26.6760  -34.7630   22.5280 O   0  0  0  0  0  0  0  0  0  0  0  0
  -25.0580  -33.8770   25.0770 H   0  0  0  0  0  0  0  0  0  0  0  0
  -24.3070  -36.6630   23.2740 C   0  0  0  0  0  1  0  0  0  0  0  0
  -25.5340  -36.2020   24.0760 C   0  0  0  0  0  3  0  0  0  0  0  0
  -27.6650  -37.0230   24.9770 C   0  0  0  0  0  1  0  0  0  0  0  0
  -26.5820  -37.2430   24.0220 N   0  0  0  0  0  0  0  0  0  0  0  0
  -26.1850  -38.1610   24.1990 H   0  0  0  0  0  0  0  0  0  0  0  0
  -31.2170  -17.1440   21.0130 C   0  0  0  0  0  2  0  0  0  0  0  0
  -31.2210  -14.8090   20.0580 C   0  0  0  0  0  0  0  0  0  0  0  0
  -30.8890  -12.5890   19.0160 C   0  0  0  0  0  2  0  0  0  0  0  0
  -29.9180  -12.7060   17.8250 C   0  0  0  0  0  2  0  0  0  0  0  0
  -28.4580  -12.5790   18.3020 C   0  0  0  0  0  2  0  0  0  0  0  0
  -28.1430  -13.4940   19.5150 C   0  0  0  0  0  3  0  0  0  0  0  0
  -29.2260  -13.3580   20.6080 C   0  0  0  0  0  2  0  0  0  0  0  0
  -30.5300  -13.6360   19.9880 N   0  0  0  0  0  0  0  0  0  0  0  0
  -32.3280  -14.9520   19.5340 O   0  0  0  0  0  0  0  0  0  0  0  0
  -30.5970  -15.8460   20.6600 N   0  0  0  0  0  0  0  0  0  0  0  0
  -29.6760  -15.6650   21.0270 H   0  0  0  0  0  0  0  0  0  0  0  0
  -25.7910  -14.1400   20.3280 C   0  0  0  0  0  0  0  0  0  0  0  0
  -24.7200  -13.3880   20.7240 C   0  0  0  0  0  0  0  0  0  0  0  0
  -25.1460  -12.0250   20.6520 C   0  0  0  0  0  0  0  0  0  0  0  0
  -26.8050  -13.2400   20.0410 N   0  0  0  0  0  0  0  0  0  0  0  0
  -26.4220  -11.9610   20.2930 N   0  0  0  0  0  0  0  0  0  0  0  0
  -24.3960  -10.7780   20.8470 C   0  0  0  0  0  0  0  0  0  0  0  0
  -24.7740   -9.8360   21.8310 C   0  0  0  0  0  3  0  0  0  0  0  0
  -24.0250   -8.6530   22.0130 C   0  0  0  0  0  3  0  0  0  0  0  0
  -22.8870   -8.4020   21.2120 C   0  0  0  0  0  0  0  0  0  0  0  0
  -22.5280   -9.3320   20.2200 C   0  0  0  0  0  3  0  0  0  0  0  0
  -23.2770  -10.5070   20.0360 C   0  0  0  0  0  3  0  0  0  0  0  0
  -22.1160   -7.2690   21.2990 O   0  0  0  0  0  0  0  0  0  0  0  0
  -21.9220   -6.6210   22.4920 C   0  0  0  0  0  0  0  0  0  0  0  0
  -21.3130   -7.2570   23.5960 C   0  0  0  0  0  3  0  0  0  0  0  0
  -21.0700   -6.5350   24.7800 C   0  0  0  0  0  3  0  0  0  0  0  0
  -21.4260   -5.1750   24.8620 C   0  0  0  0  0  0  0  0  0  0  0  0
  -22.0280   -4.5380   23.7630 C   0  0  0  0  0  3  0  0  0  0  0  0
  -22.2720   -5.2580   22.5800 C   0  0  0  0  0  0  0  0  0  0  0  0
  -22.8330   -4.6340   21.5170 F   0  0  0  0  0  0  0  0  0  0  0  0
  -21.1860   -4.4780   25.9970 F   0  0  0  0  0  0  0  0  0  0  0  0
  -23.3460  -13.8930   21.0610 C   0  0  0  0  0  0  0  0  0  0  0  0
  -22.6450  -13.2090   21.9570 N   0  0  0  0  0  0  0  0  0  0  0  0
  -22.9060  -14.9280   20.5620 O   0  0  0  0  0  0  0  0  0  0  0  0
  -23.0140  -12.3710   22.3800 H   0  0  0  0  0  0  0  0  0  0  0  0
  -21.7250  -13.5300   22.2270 H   0  0  0  0  0  0  0  0  0  0  0  0
  -25.9840  -15.5100   20.1690 N   0  0  0  0  0  0  0  0  0  0  0  0
  -25.2380  -16.1820   20.3170 H   0  0  0  0  0  0  0  0  0  0  0  0
  -26.8340  -15.9330   19.8160 H   0  0  0  0  0  0  0  0  0  0  0  0
  1  2  1  0
  3  4  1  0
  7  5  1  1
  6 10  1  0
  6  7  1  0
  6  1  1  0
  7  3  1  0
  7  2  1  0
  8  9  1  6
  8  4  1  0
  8  5  1  0
  8 56  1  0
 13 11  1  6
 13 14  1  0
 13 12  1  0
 13 10  1  0
 15 17  1  0
 15 14  1  0
 16 27  2  0
 17 22  1  0
 18 26  1  0
 18 28  1  0
 19 25  1  0
 19 21  1  0
 20 26  1  0
 21 20  1  0
 22 21  2  0
 23 24  1  0
 23 17  2  0
 24 19  2  0
 25 18  1  0
 26 16  1  0
 28 30  2  0
 29 28  1  0
 31 29  1  0
 32 41  2  0
 32 37  1  0
 33 29  1  0
 33 37  1  0
 34 33  1  0
 35 36  1  0
 35 34  1  0
 36 32  1  0
 37 38  2  0
 38 39  1  0
 40 39  2  0
 41 40  1  0
 42 16  1  0
 42 47  1  0
 42 43  1  0
 43 46  1  1
 43 44  1  0
 45 43  1  0
 47 50  1  0
 48 52  1  0
 48 47  1  0
 49 48  2  0
 52 51  1  0
 54 52  1  0
 54 55  1  0
 54 53  1  0
 57 65  1  0
 58 63  1  0
 59 60  1  0
 59 58  1  0
 61 60  1  0
 61 70  1  0
 61 62  1  0
 63 57  1  0
 63 62  1  0
 64 57  2  0
 65 56  1  0
 65 66  1  0
 67 68  2  0
 68 87  1  0
 69 68  1  0
 69 72  1  0
 70 71  1  0
 70 67  1  0
 71 69  2  0
 72 73  1  0
 73 74  2  0
 75 78  1  0
 75 74  1  0
 76 75  2  0
 77 76  1  0
 77 72  2  0
 78 79  1  0
 79 84  2  0
 79 80  1  0
 80 81  2  0
 81 82  1  0
 82 86  1  0
 83 82  2  0
 84 83  1  0
 85 84  1  0
 87 88  1  0
 88 91  1  0
 88 90  1  0
 89 87  2  0
 92 93  1  0
 92 67  1  0
 94 92  1  0
M  ISO  4  14 101  15 101  57 100  65 100
M  END
>  <TORSDO>  (35) 
F 20

>  <SCORE>  (35) 
-12.904

>  <name>  (35) 
34

>  <ligand_id>  (35) 
34

>  <original_smiles>  (35) 
[H]c1c([H])c([H])c2c(c1[H])C([H])([H])C([H])([H])C([H])([H])C2([H])N([H])C(=O)C1([H])N(C(=O)C([H])(N([H])C(=O)C([H])(N([H])C([H])([H])[H])C([H])([H])[H])C(C([H])([H])[H])(C([H])([H])[H])C([H])([H])[H])C([H])([H])c2c([H])c(OC([H])([H])C(C([H])([H])[H])(C([H])([H])[H])C([H])([H])C3([H])C([H])([H])C([H])([H])C34C([H])([H])C([H])([H])C(C([H])([H])[H])(C([H])([H])N([H])C(=O)N3C([H])([H])C([H])([H])C([H])([H])C([H])(n5nc(-c6c([H])c([H])c(Oc7c([H])c([H])c(F)c([H])c7F)c([H])c6[H])c(C(=O)N([H])[H])c5N([H])[H])C3([H])[H])C4([H])[H])c([H])c([H])c2C1([H])[H]

>  <smiles>  (35) 
[H]c1c([H])c([H])c2c(c1[H])C([H])([H])C([H])([H])C([H])([H])C2([H])N([H])C(=O)C1([H])N(C(=O)C([H])(N([H])C(=O)C([H])(N([H])C([H])([H])[H])C([H])([H])[H])C(C([H])([H])[H])(C([H])([H])[H])C([H])([H])[H])C([H])([H])c2c([H])c(OC([H])([H])C(C([H])([H])[H])(C([H])([H])[H])C([H])([H])C3([H])C([H])([H])C([H])([H])C34C([H])([H])C([H])([H])C(C([H])([H])[H])(C([H])([H])N([H])C(=O)N3C([H])([H])C([H])([H])C([H])([H])C([H])(n5nc(-c6c([H])c([H])c(Oc7c([H])c([H])c(F)c([H])c7F)c([H])c6[H])c(C(=O)N([H])[H])c5N([H])[H])C3([H])[H])C4([H])[H])c([H])c([H])c2C1([H])[H]

$$$$
35:0:0
     RDKit          3D

 92101  0  0  1  0  0  0  0  0999 V2000
  -29.3040  -21.6240   20.1540 C   0  0  0  0  0  0  0  0  0  0  0  0
  -28.7820  -21.4000   21.2480 O   0  0  0  0  0  0  0  0  0  0  0  0
  -30.9740  -19.5240   17.3090 C   0  0  0  0  0  2  0  0  0  0  0  0
  -29.8290  -20.2380   18.0420 C   0  0  0  0  0  2  0  0  0  0  0  0
  -31.3310  -18.1860   17.9680 C   0  0  0  0  0  2  0  0  0  0  0  0
  -30.2620  -20.6010   19.4810 C   0  0  0  0  0  3  0  0  0  0  0  0
  -31.4000  -18.2620   19.4850 C   0  0  0  0  0  3  0  0  0  0  0  0
  -30.6940  -19.3480   20.2910 C   0  0  0  0  0  3  0  0  0  0  0  0
  -30.1420  -17.9140   20.2470 C   0  0  0  0  0  3  0  0  0  0  0  0
  -30.2920  -16.8910   21.3840 C   0  0  0  0  0  2  0  0  0  0  0  0
  -30.6420  -14.5070   20.5370 C   0  0  0  0  0  0  0  0  0  0  0  0
  -30.3840  -12.3510   19.3520 C   0  0  0  0  0  2  0  0  0  0  0  0
  -29.4390  -12.5470   18.1490 C   0  0  0  0  0  2  0  0  0  0  0  0
  -27.9630  -12.4030   18.5730 C   0  0  0  0  0  2  0  0  0  0  0  0
  -27.6190  -13.2290   19.8410 C   0  0  0  0  0  3  0  0  0  0  0  0
  -28.6700  -12.9910   20.9470 C   0  0  0  0  0  2  0  0  0  0  0  0
  -29.9920  -13.3210   20.3860 N   0  0  0  0  0  0  0  0  0  0  0  0
  -31.7710  -14.7130   20.0840 O   0  0  0  0  0  0  0  0  0  0  0  0
  -29.9130  -15.4890   21.1080 N   0  0  0  0  0  0  0  0  0  0  0  0
  -28.9910  -15.2140   21.4110 H   0  0  0  0  0  0  0  0  0  0  0  0
  -25.2150  -13.8360   20.5280 C   0  0  0  0  0  0  0  0  0  0  0  0
  -24.1460  -13.0640   20.8940 C   0  0  0  0  0  0  0  0  0  0  0  0
  -24.6090  -11.7130   20.8740 C   0  0  0  0  0  0  0  0  0  0  0  0
  -26.2630  -12.9550   20.3100 N   0  0  0  0  0  0  0  0  0  0  0  0
  -25.9020  -11.6730   20.5750 N   0  0  0  0  0  0  0  0  0  0  0  0
  -23.8840  -10.4500   21.0690 C   0  0  0  0  0  0  0  0  0  0  0  0
  -24.3250   -9.4790   21.9930 C   0  0  0  0  0  3  0  0  0  0  0  0
  -23.6010   -8.2810   22.1730 C   0  0  0  0  0  3  0  0  0  0  0  0
  -22.4210   -8.0460   21.4290 C   0  0  0  0  0  0  0  0  0  0  0  0
  -21.9980   -9.0060   20.4920 C   0  0  0  0  0  3  0  0  0  0  0  0
  -22.7240  -10.1960   20.3110 C   0  0  0  0  0  3  0  0  0  0  0  0
  -21.6680   -6.9000   21.5180 O   0  0  0  0  0  0  0  0  0  0  0  0
  -21.6450   -6.1420   22.6620 C   0  0  0  0  0  0  0  0  0  0  0  0
  -21.2620   -6.6840   23.9080 C   0  0  0  0  0  3  0  0  0  0  0  0
  -21.1860   -5.8530   25.0430 C   0  0  0  0  0  3  0  0  0  0  0  0
  -21.4830   -4.4810   24.9340 C   0  0  0  0  0  0  0  0  0  0  0  0
  -21.8590   -3.9390   23.6920 C   0  0  0  0  0  3  0  0  0  0  0  0
  -21.9370   -4.7680   22.5590 C   0  0  0  0  0  0  0  0  0  0  0  0
  -22.2800   -4.2360   21.3600 F   0  0  0  0  0  0  0  0  0  0  0  0
  -21.4020   -3.6810   26.0220 F   0  0  0  0  0  0  0  0  0  0  0  0
  -22.7460  -13.5400   21.1560 C   0  0  0  0  0  0  0  0  0  0  0  0
  -22.0160  -12.8470   22.0220 N   0  0  0  0  0  0  0  0  0  0  0  0
  -22.3090  -14.5610   20.6290 O   0  0  0  0  0  0  0  0  0  0  0  0
  -22.3830  -12.0220   22.4730 H   0  0  0  0  0  0  0  0  0  0  0  0
  -21.0760  -13.1470   22.2410 H   0  0  0  0  0  0  0  0  0  0  0  0
  -25.3780  -15.2060   20.3440 N   0  0  0  0  0  0  0  0  0  0  0  0
  -24.6080  -15.8580   20.4440 H   0  0  0  0  0  0  0  0  0  0  0  0
  -26.2290  -15.6430   20.0100 H   0  0  0  0  0  0  0  0  0  0  0  0
  -29.0590  -22.9560   19.3990 C   0  0  0  0  0  2  0  0  0  0  0  0
  -28.5940  -24.1940   20.2280 C   0  0  0  0  0  2  0  0  0  0  0  0
  -28.6210  -25.5100   19.3960 C   0  0  0  0  0  2  0  0  0  0  0  0
  -28.4250  -26.7190   20.1580 O   0  0  0  0  0  0  0  0  0  0  0  0
  -24.5840  -31.8790   23.2270 C   0  0  0  0  0  0  0  0  0  0  0  0
  -27.2250  -27.4150   20.1370 C   0  0  0  0  0  0  0  0  0  0  0  0
  -23.3730  -30.4750   21.5910 C   0  0  0  0  0  3  0  0  0  0  0  0
  -24.8220  -28.9300   20.1640 C   0  0  0  0  0  0  0  0  0  0  0  0
  -25.9000  -30.8270   21.3860 C   0  0  0  0  0  2  0  0  0  0  0  0
  -25.9820  -29.4530   20.7450 C   0  0  0  0  0  0  0  0  0  0  0  0
  -27.1810  -28.7010   20.7310 C   0  0  0  0  0  3  0  0  0  0  0  0
  -26.0350  -26.9020   19.5680 C   0  0  0  0  0  3  0  0  0  0  0  0
  -24.8420  -27.6550   19.5770 C   0  0  0  0  0  3  0  0  0  0  0  0
  -23.5780  -29.7900   20.2130 C   0  0  0  0  0  2  0  0  0  0  0  0
  -24.6380  -31.0760   22.1260 N   0  0  0  0  0  0  0  0  0  0  0  0
  -23.5040  -32.1520   23.7690 O   0  0  0  0  0  0  0  0  0  0  0  0
  -22.7230  -29.4560   22.5550 C   0  0  0  0  0  0  0  0  0  0  0  0
  -21.3980  -29.2750   22.4330 N   0  0  0  0  0  0  0  0  0  0  0  0
  -23.4100  -28.8300   23.3670 O   0  0  0  0  0  0  0  0  0  0  0  0
  -20.9070  -29.8300   21.7460 H   0  0  0  0  0  0  0  0  0  0  0  0
  -18.0250  -28.0870   22.9420 C   0  0  0  0  0  0  0  0  0  0  0  0
  -20.5840  -28.3390   23.2060 C   0  0  0  0  0  3  0  0  0  0  0  0
  -20.6820  -26.9090   22.6280 C   0  0  0  0  0  2  0  0  0  0  0  0
  -19.5760  -26.5890   21.6180 C   0  0  0  0  0  2  0  0  0  0  0  0
  -18.1970  -26.7370   22.2650 C   0  0  0  0  0  2  0  0  0  0  0  0
  -19.1470  -28.8460   23.3690 C   0  0  0  0  0  0  0  0  0  0  0  0
  -18.9320  -30.1100   23.9600 C   0  0  0  0  0  3  0  0  0  0  0  0
  -17.6290  -30.6150   24.1280 C   0  0  0  0  0  3  0  0  0  0  0  0
  -16.5230  -29.8520   23.7200 C   0  0  0  0  0  3  0  0  0  0  0  0
  -16.7210  -28.5890   23.1310 C   0  0  0  0  0  3  0  0  0  0  0  0
  -25.8710  -32.5110   23.8420 C   0  0  0  0  0  3  0  0  0  0  0  0
  -25.5640  -33.9080   24.1760 N   0  0  0  0  0  0  0  0  0  0  0  0
  -25.8960  -34.9610   23.4180 C   0  0  0  0  0  0  0  0  0  0  0  0
  -26.5630  -34.8600   22.3860 O   0  0  0  0  0  0  0  0  0  0  0  0
  -24.9690  -34.0610   24.9770 H   0  0  0  0  0  0  0  0  0  0  0  0
  -24.1650  -36.7530   23.0690 C   0  0  0  0  0  1  0  0  0  0  0  0
  -25.4070  -36.3480   23.8800 C   0  0  0  0  0  3  0  0  0  0  0  0
  -27.5440  -37.2290   24.7090 C   0  0  0  0  0  1  0  0  0  0  0  0
  -26.4400  -37.4010   23.7690 N   0  0  0  0  0  0  0  0  0  0  0  0
  -26.0340  -38.3220   23.9190 H   0  0  0  0  0  0  0  0  0  0  0  0
  -26.3980  -31.7370   25.1130 C   0  0  1  0  0  0  0  0  0  0  0  0
  -25.3130  -31.4960   26.1880 C   0  0  0  0  0  1  0  0  0  0  0  0
  -26.9810  -30.3620   24.7140 C   0  0  0  0  0  1  0  0  0  0  0  0
  -27.5530  -32.5310   25.7680 C   0  0  0  0  0  1  0  0  0  0  0  0
  1  2  2  0
  3  5  1  0
  3  4  1  0
  4  6  1  0
  6  1  1  0
  6  8  1  0
  7  5  1  0
  7  9  1  0
  7  8  1  0
  9  8  1  0
  9 10  1  0
 11 19  1  0
 12 17  1  0
 13 14  1  0
 13 12  1  0
 14 15  1  0
 15 24  1  0
 15 16  1  0
 17 11  1  0
 17 16  1  0
 18 11  2  0
 19 10  1  0
 19 20  1  0
 21 22  2  0
 22 41  1  0
 23 22  1  0
 23 26  1  0
 24 21  1  0
 24 25  1  0
 25 23  2  0
 26 27  1  0
 27 28  2  0
 29 32  1  0
 29 28  1  0
 30 29  2  0
 31 30  1  0
 31 26  2  0
 32 33  1  0
 33 34  1  0
 34 35  2  0
 36 35  1  0
 36 40  1  0
 37 36  2  0
 38 33  2  0
 38 37  1  0
 39 38  1  0
 41 42  1  0
 42 45  1  0
 42 44  1  0
 43 41  2  0
 46 47  1  0
 46 21  1  0
 48 46  1  0
 49  1  1  0
 49 50  1  0
 51 52  1  0
 51 50  1  0
 53 64  2  0
 53 79  1  0
 54 52  1  0
 54 59  1  0
 55 63  1  0
 55 65  1  0
 56 62  1  0
 56 58  1  0
 57 63  1  0
 58 57  1  0
 59 58  2  0
 60 61  1  0
 60 54  2  0
 61 56  2  0
 62 55  1  0
 63 53  1  0
 65 67  2  0
 66 65  1  0
 66 70  1  0
 68 66  1  0
 69 78  2  0
 69 74  1  0
 70 74  1  0
 71 70  1  0
 72 73  1  0
 72 71  1  0
 73 69  1  0
 74 75  2  0
 75 76  1  0
 77 76  2  0
 78 77  1  0
 79 80  1  0
 79 89  1  0
 80 83  1  0
 81 85  1  0
 81 80  1  0
 82 81  2  0
 84 85  1  0
 87 85  1  0
 87 88  1  0
 87 86  1  0
 89 92  1  1
 89 90  1  0
 91 89  1  0
M  ISO  4  11 100  19 100  51 101  52 101
M  END
>  <TORSDO>  (36) 
F 21

>  <SCORE>  (36) 
-13.639

>  <name>  (36) 
35

>  <ligand_id>  (36) 
35

>  <original_smiles>  (36) 
[H]c1c([H])c([H])c2c(c1[H])C([H])([H])C([H])([H])C([H])([H])C2([H])N([H])C(=O)C1([H])N(C(=O)C([H])(N([H])C(=O)C([H])(N([H])C([H])([H])[H])C([H])([H])[H])C(C([H])([H])[H])(C([H])([H])[H])C([H])([H])[H])C([H])([H])c2c([H])c(OC([H])([H])C([H])([H])C([H])([H])C(=O)C3([H])C([H])([H])C([H])([H])C([H])([H])C4([H])C([H])(C([H])([H])N([H])C(=O)N5C([H])([H])C([H])([H])C([H])([H])C([H])(n6nc(-c7c([H])c([H])c(Oc8c([H])c([H])c(F)c([H])c8F)c([H])c7[H])c(C(=O)N([H])[H])c6N([H])[H])C5([H])[H])C34[H])c([H])c([H])c2C1([H])[H]

>  <smiles>  (36) 
[H]c1c([H])c([H])c2c(c1[H])C([H])([H])C([H])([H])C([H])([H])C2([H])N([H])C(=O)C1([H])N(C(=O)C([H])(N([H])C(=O)C([H])(N([H])C([H])([H])[H])C([H])([H])[H])C(C([H])([H])[H])(C([H])([H])[H])C([H])([H])[H])C([H])([H])c2c([H])c(OC([H])([H])C([H])([H])C([H])([H])C(=O)C3([H])C([H])([H])C([H])([H])C([H])([H])C4([H])C([H])(C([H])([H])N([H])C(=O)N5C([H])([H])C([H])([H])C([H])([H])C([H])(n6nc(-c7c([H])c([H])c(Oc8c([H])c([H])c(F)c([H])c8F)c([H])c7[H])c(C(=O)N([H])[H])c6N([H])[H])C5([H])[H])C34[H])c([H])c([H])c2C1([H])[H]

$$$$
36:0:0
     RDKit          3D

 90 99  0  0  1  0  0  0  0  0999 V2000
  -29.3910  -21.3370   19.2120 C   0  0  0  0  0  3  0  0  0  0  0  0
  -28.4750  -22.4980   21.4780 C   0  0  0  0  0  3  0  0  0  0  0  0
  -29.1020  -22.7560   19.2200 C   0  0  0  0  0  0  0  0  0  0  0  0
  -28.5690  -23.4080   20.3770 C   0  0  0  0  0  0  0  0  0  0  0  0
  -29.1760  -20.4830   20.3390 C   0  0  0  0  0  0  0  0  0  0  0  0
  -29.2660  -23.5390   17.9310 C   0  0  0  0  0  1  0  0  0  0  0  0
  -28.7620  -21.1380   21.4680 N   0  0  0  0  0  0  0  0  0  0  0  0
  -29.6510  -18.1620   19.0760 C   0  0  0  0  0  2  0  0  0  0  0  0
  -29.0960  -18.8530   20.2960 C   0  0  0  0  0  3  0  0  0  0  0  0
  -30.1150  -17.5600   20.3810 C   0  0  0  0  0  3  0  0  0  0  0  0
  -30.5530  -14.9220   20.3700 C   0  0  0  0  0  0  0  0  0  0  0  0
  -30.3830  -12.6190   19.3710 C   0  0  0  0  0  2  0  0  0  0  0  0
  -29.4400  -12.6560   18.1470 C   0  0  0  0  0  2  0  0  0  0  0  0
  -27.9740  -12.4630   18.5780 C   0  0  0  0  0  2  0  0  0  0  0  0
  -27.5910  -13.3490   19.7930 C   0  0  0  0  0  3  0  0  0  0  0  0
  -28.6550  -13.2960   20.9110 C   0  0  0  0  0  2  0  0  0  0  0  0
  -29.9370  -13.6810   20.3100 N   0  0  0  0  0  0  0  0  0  0  0  0
  -31.7450  -15.0090   20.0620 O   0  0  0  0  0  0  0  0  0  0  0  0
  -29.7700  -16.0750   20.5370 N   0  0  0  0  0  0  0  0  0  0  0  0
  -28.8040  -15.8840   20.7600 H   0  0  0  0  0  0  0  0  0  0  0  0
  -25.2060  -13.9170   20.5390 C   0  0  0  0  0  0  0  0  0  0  0  0
  -24.1450  -13.1360   20.9060 C   0  0  0  0  0  0  0  0  0  0  0  0
  -24.6130  -11.7870   20.8620 C   0  0  0  0  0  0  0  0  0  0  0  0
  -26.2520  -13.0450   20.2900 N   0  0  0  0  0  0  0  0  0  0  0  0
  -25.9030  -11.7580   20.5480 N   0  0  0  0  0  0  0  0  0  0  0  0
  -23.8910  -10.5210   21.0430 C   0  0  0  0  0  0  0  0  0  0  0  0
  -24.3130   -9.5590   21.9860 C   0  0  0  0  0  3  0  0  0  0  0  0
  -23.5910   -8.3570   22.1550 C   0  0  0  0  0  3  0  0  0  0  0  0
  -22.4310   -8.1110   21.3810 C   0  0  0  0  0  0  0  0  0  0  0  0
  -22.0290   -9.0630   20.4280 C   0  0  0  0  0  3  0  0  0  0  0  0
  -22.7510  -10.2550   20.2570 C   0  0  0  0  0  3  0  0  0  0  0  0
  -21.6810   -6.9620   21.4600 O   0  0  0  0  0  0  0  0  0  0  0  0
  -21.6010   -6.2320   22.6190 C   0  0  0  0  0  0  0  0  0  0  0  0
  -21.0820   -6.7810   23.8110 C   0  0  0  0  0  3  0  0  0  0  0  0
  -20.9540   -5.9750   24.9600 C   0  0  0  0  0  3  0  0  0  0  0  0
  -21.3340   -4.6210   24.9160 C   0  0  0  0  0  0  0  0  0  0  0  0
  -21.8450   -4.0700   23.7270 C   0  0  0  0  0  3  0  0  0  0  0  0
  -21.9750   -4.8740   22.5810 C   0  0  0  0  0  0  0  0  0  0  0  0
  -22.4480   -4.3330   21.4330 F   0  0  0  0  0  0  0  0  0  0  0  0
  -21.2050   -3.8430   26.0170 F   0  0  0  0  0  0  0  0  0  0  0  0
  -22.7470  -13.6070   21.1820 C   0  0  0  0  0  0  0  0  0  0  0  0
  -22.0230  -12.9040   22.0460 N   0  0  0  0  0  0  0  0  0  0  0  0
  -22.3040  -14.6340   20.6680 O   0  0  0  0  0  0  0  0  0  0  0  0
  -22.3920  -12.0730   22.4850 H   0  0  0  0  0  0  0  0  0  0  0  0
  -21.0840  -13.2020   22.2740 H   0  0  0  0  0  0  0  0  0  0  0  0
  -25.3630  -15.2900   20.3690 N   0  0  0  0  0  0  0  0  0  0  0  0
  -24.5880  -15.9360   20.4760 H   0  0  0  0  0  0  0  0  0  0  0  0
  -26.1930  -15.7320   19.9960 H   0  0  0  0  0  0  0  0  0  0  0  0
  -27.7350  -24.8100   20.3510 C   0  0  0  0  0  2  0  0  0  0  0  0
  -28.1980  -26.2740   20.2720 O   0  0  0  0  0  0  0  0  0  0  0  0
  -24.6180  -31.9410   23.2950 C   0  0  0  0  0  0  0  0  0  0  0  0
  -27.1610  -27.2700   20.2140 C   0  0  0  0  0  0  0  0  0  0  0  0
  -23.4050  -30.5630   21.6550 C   0  0  0  0  0  3  0  0  0  0  0  0
  -24.8390  -29.0070   20.2120 C   0  0  0  0  0  0  0  0  0  0  0  0
  -25.9590  -30.8250   21.4820 C   0  0  0  0  0  2  0  0  0  0  0  0
  -26.0230  -29.4420   20.8210 C   0  0  0  0  0  0  0  0  0  0  0  0
  -27.1860  -28.5880   20.8140 C   0  0  0  0  0  3  0  0  0  0  0  0
  -25.9550  -26.9500   19.5460 C   0  0  0  0  0  3  0  0  0  0  0  0
  -24.8160  -27.7710   19.5590 C   0  0  0  0  0  3  0  0  0  0  0  0
  -23.6150  -29.9020   20.2690 C   0  0  0  0  0  2  0  0  0  0  0  0
  -24.6800  -31.1300   22.1980 N   0  0  0  0  0  0  0  0  0  0  0  0
  -23.5360  -32.2270   23.8280 O   0  0  0  0  0  0  0  0  0  0  0  0
  -22.7290  -29.5460   22.6090 C   0  0  0  0  0  0  0  0  0  0  0  0
  -21.4030  -29.3680   22.4750 N   0  0  0  0  0  0  0  0  0  0  0  0
  -23.4000  -28.9230   23.4360 O   0  0  0  0  0  0  0  0  0  0  0  0
  -20.9190  -29.9220   21.7820 H   0  0  0  0  0  0  0  0  0  0  0  0
  -18.0220  -28.1620   22.9660 C   0  0  0  0  0  0  0  0  0  0  0  0
  -20.5800  -28.4300   23.2430 C   0  0  0  0  0  3  0  0  0  0  0  0
  -20.6870  -26.9970   22.6690 C   0  0  0  0  0  2  0  0  0  0  0  0
  -19.5900  -26.6710   21.6520 C   0  0  0  0  0  2  0  0  0  0  0  0
  -18.2050  -26.8130   22.2900 C   0  0  0  0  0  2  0  0  0  0  0  0
  -19.1380  -28.9280   23.3990 C   0  0  0  0  0  0  0  0  0  0  0  0
  -18.9120  -30.1890   23.9920 C   0  0  0  0  0  3  0  0  0  0  0  0
  -17.6060  -30.6870   24.1520 C   0  0  0  0  0  3  0  0  0  0  0  0
  -16.5050  -29.9190   23.7340 C   0  0  0  0  0  3  0  0  0  0  0  0
  -16.7150  -28.6570   23.1490 C   0  0  0  0  0  3  0  0  0  0  0  0
  -25.9040  -32.5660   23.9180 C   0  0  0  0  0  3  0  0  0  0  0  0
  -25.6040  -33.9680   24.2480 N   0  0  0  0  0  0  0  0  0  0  0  0
  -25.9060  -35.0170   23.4730 C   0  0  0  0  0  0  0  0  0  0  0  0
  -26.5390  -34.9070   22.4180 O   0  0  0  0  0  0  0  0  0  0  0  0
  -25.0440  -34.1270   25.0730 H   0  0  0  0  0  0  0  0  0  0  0  0
  -24.1570  -36.8020   23.1830 C   0  0  0  0  0  1  0  0  0  0  0  0
  -25.4370  -36.4090   23.9400 C   0  0  0  0  0  3  0  0  0  0  0  0
  -27.5990  -37.3160   24.6690 C   0  0  0  0  0  1  0  0  0  0  0  0
  -26.4590  -37.4630   23.7670 N   0  0  0  0  0  0  0  0  0  0  0  0
  -26.0550  -38.3840   23.9130 H   0  0  0  0  0  0  0  0  0  0  0  0
  -26.4110  -31.7930   25.1980 C   0  0  1  0  0  0  0  0  0  0  0  0
  -25.3120  -31.5620   26.2620 C   0  0  0  0  0  1  0  0  0  0  0  0
  -26.9890  -30.4120   24.8150 C   0  0  0  0  0  1  0  0  0  0  0  0
  -27.5640  -32.5830   25.8620 C   0  0  0  0  0  1  0  0  0  0  0  0
  1  3  2  0
  1  5  1  0
  3  4  1  0
  4  2  2  0
  5  7  2  0
  6  3  1  0
  7  2  1  0
  8  9  1  0
  8 10  1  0
  9  5  1  0
  9 10  1  0
 10 19  1  0
 11 19  1  0
 12 17  1  0
 13 14  1  0
 13 12  1  0
 15 14  1  0
 15 24  1  0
 15 16  1  0
 17 11  1  0
 17 16  1  0
 18 11  2  0
 19 20  1  0
 21 22  2  0
 22 41  1  0
 23 22  1  0
 23 26  1  0
 24 21  1  0
 24 25  1  0
 25 23  2  0
 26 27  1  0
 27 28  2  0
 29 32  1  0
 29 28  1  0
 30 29  2  0
 31 30  1  0
 31 26  2  0
 32 33  1  0
 33 34  1  0
 34 35  2  0
 36 35  1  0
 36 40  1  0
 37 36  2  0
 38 33  2  0
 38 37  1  0
 39 38  1  0
 41 42  1  0
 42 45  1  0
 42 44  1  0
 43 41  2  0
 46 47  1  0
 46 21  1  0
 48 46  1  0
 49  4  1  0
 50 49  1  0
 51 62  2  0
 52 50  1  0
 52 57  1  0
 53 61  1  0
 53 63  1  0
 54 60  1  0
 54 56  1  0
 55 61  1  0
 56 55  1  0
 57 56  2  0
 58 59  1  0
 58 52  2  0
 59 54  2  0
 60 53  1  0
 61 51  1  0
 63 65  2  0
 64 63  1  0
 66 64  1  0
 67 76  2  0
 67 72  1  0
 68 64  1  0
 68 72  1  0
 69 68  1  0
 70 71  1  0
 70 69  1  0
 71 67  1  0
 72 73  2  0
 73 74  1  0
 75 74  2  0
 76 75  1  0
 77 51  1  0
 77 78  1  0
 77 87  1  0
 78 81  1  0
 79 83  1  0
 79 78  1  0
 80 79  2  0
 83 82  1  0
 85 86  1  0
 85 83  1  0
 85 84  1  0
 87 90  1  1
 87 88  1  0
 89 87  1  0
M  ISO  4  11 100  19 100  49 101  50 101
M  END
>  <TORSDO>  (37) 
F 18

>  <SCORE>  (37) 
-14.754

>  <name>  (37) 
36

>  <ligand_id>  (37) 
36

>  <original_smiles>  (37) 
[H]c1nc(C2([H])C([H])([H])C2([H])N([H])C(=O)N2C([H])([H])C([H])([H])C([H])([H])C([H])(n3nc(-c4c([H])c([H])c(Oc5c([H])c([H])c(F)c([H])c5F)c([H])c4[H])c(C(=O)N([H])[H])c3N([H])[H])C2([H])[H])c([H])c(C([H])([H])[H])c1C([H])([H])Oc1c([H])c([H])c2c(c1[H])C([H])([H])N(C(=O)C([H])(N([H])C(=O)C([H])(N([H])C([H])([H])[H])C([H])([H])[H])C(C([H])([H])[H])(C([H])([H])[H])C([H])([H])[H])C([H])(C(=O)N([H])C1([H])c3c([H])c([H])c([H])c([H])c3C([H])([H])C([H])([H])C1([H])[H])C2([H])[H]

>  <smiles>  (37) 
[H]c1nc(C2([H])C([H])([H])C2([H])N([H])C(=O)N2C([H])([H])C([H])([H])C([H])([H])C([H])(n3nc(-c4c([H])c([H])c(Oc5c([H])c([H])c(F)c([H])c5F)c([H])c4[H])c(C(=O)N([H])[H])c3N([H])[H])C2([H])[H])c([H])c(C([H])([H])[H])c1C([H])([H])Oc1c([H])c([H])c2c(c1[H])C([H])([H])N(C(=O)C([H])(N([H])C(=O)C([H])(N([H])C([H])([H])[H])C([H])([H])[H])C(C([H])([H])[H])(C([H])([H])[H])C([H])([H])[H])C([H])(C(=O)N([H])C1([H])c3c([H])c([H])c([H])c([H])c3C([H])([H])C([H])([H])C1([H])[H])C2([H])[H]

$$$$
37:0:0
     RDKit          3D

 88 97  0  0  1  0  0  0  0  0999 V2000
  -30.5060  -21.0060   20.5920 C   0  0  0  0  0  2  0  0  0  0  0  0
  -28.4700  -18.8810   20.8620 C   0  0  0  0  0  2  0  0  0  0  0  0
  -30.1140  -19.6530   19.8630 C   0  0  0  0  0  3  0  0  0  0  0  0
  -28.6750  -20.2150   20.0220 C   0  0  0  0  0  3  0  0  0  0  0  0
  -29.0890  -21.7150   20.5760 C   0  0  0  0  0  3  0  0  0  0  0  0
  -29.8500  -18.1640   20.5340 C   0  0  0  0  0  3  0  0  0  0  0  0
  -28.9170  -23.2930   19.9060 C   0  0  0  0  0  2  0  0  0  0  0  0
  -28.1080  -24.6680   20.5350 C   0  0  0  0  0  2  0  0  0  0  0  0
  -28.3170  -26.2030   20.2190 O   0  0  0  0  0  0  0  0  0  0  0  0
  -24.6490  -31.8890   23.2700 C   0  0  0  0  0  0  0  0  0  0  0  0
  -27.2530  -27.1900   20.2160 C   0  0  0  0  0  0  0  0  0  0  0  0
  -23.4620  -30.5100   21.6080 C   0  0  0  0  0  3  0  0  0  0  0  0
  -24.9250  -28.9490   20.1780 C   0  0  0  0  0  0  0  0  0  0  0  0
  -26.0180  -30.7820   21.4580 C   0  0  0  0  0  2  0  0  0  0  0  0
  -26.1020  -29.3910   20.7960 C   0  0  0  0  0  0  0  0  0  0  0  0
  -27.2680  -28.5310   20.7900 C   0  0  0  0  0  3  0  0  0  0  0  0
  -26.0490  -26.8560   19.5620 C   0  0  0  0  0  3  0  0  0  0  0  0
  -24.9130  -27.6970   19.5440 C   0  0  0  0  0  3  0  0  0  0  0  0
  -23.6950  -29.8450   20.2240 C   0  0  0  0  0  2  0  0  0  0  0  0
  -24.7300  -31.0820   22.1680 N   0  0  0  0  0  0  0  0  0  0  0  0
  -23.5580  -32.1630   23.7960 O   0  0  0  0  0  0  0  0  0  0  0  0
  -22.7800  -29.4920   22.5560 C   0  0  0  0  0  0  0  0  0  0  0  0
  -21.4540  -29.3160   22.4180 N   0  0  0  0  0  0  0  0  0  0  0  0
  -23.4480  -28.8600   23.3790 O   0  0  0  0  0  0  0  0  0  0  0  0
  -20.9670  -29.8780   21.7310 H   0  0  0  0  0  0  0  0  0  0  0  0
  -18.0720  -28.1110   22.9010 C   0  0  0  0  0  0  0  0  0  0  0  0
  -20.6320  -28.3670   23.1730 C   0  0  0  0  0  3  0  0  0  0  0  0
  -20.7320  -26.9440   22.5750 C   0  0  0  0  0  2  0  0  0  0  0  0
  -19.6310  -26.6410   21.5550 C   0  0  0  0  0  2  0  0  0  0  0  0
  -18.2480  -26.7740   22.2020 C   0  0  0  0  0  2  0  0  0  0  0  0
  -19.1910  -28.8660   23.3450 C   0  0  0  0  0  0  0  0  0  0  0  0
  -18.9700  -30.1170   23.9610 C   0  0  0  0  0  3  0  0  0  0  0  0
  -17.6650  -30.6140   24.1370 C   0  0  0  0  0  3  0  0  0  0  0  0
  -16.5620  -29.8560   23.7100 C   0  0  0  0  0  3  0  0  0  0  0  0
  -16.7650  -28.6060   23.0980 C   0  0  0  0  0  3  0  0  0  0  0  0
  -25.9200  -32.5230   23.9130 C   0  0  0  0  0  3  0  0  0  0  0  0
  -26.3930  -31.7770   25.2210 C   0  0  1  0  0  0  0  0  0  0  0  0
  -25.2700  -31.5800   26.2650 C   0  0  0  0  0  1  0  0  0  0  0  0
  -26.9660  -30.3820   24.8790 C   0  0  0  0  0  1  0  0  0  0  0  0
  -27.5380  -32.5710   25.8940 C   0  0  0  0  0  1  0  0  0  0  0  0
  -25.6190  -33.9330   24.2090 N   0  0  0  0  0  0  0  0  0  0  0  0
  -25.9910  -34.9710   23.4490 C   0  0  0  0  0  0  0  0  0  0  0  0
  -26.6870  -34.8430   22.4390 O   0  0  0  0  0  0  0  0  0  0  0  0
  -25.0050  -34.1090   24.9900 H   0  0  0  0  0  0  0  0  0  0  0  0
  -24.3180  -36.8000   23.0110 C   0  0  0  0  0  1  0  0  0  0  0  0
  -25.5150  -36.3750   23.8750 C   0  0  0  0  0  3  0  0  0  0  0  0
  -27.6260  -37.2310   24.7940 C   0  0  0  0  0  1  0  0  0  0  0  0
  -26.5740  -37.4070   23.7960 N   0  0  0  0  0  0  0  0  0  0  0  0
  -26.1780  -38.3350   23.9130 H   0  0  0  0  0  0  0  0  0  0  0  0
  -29.8660  -16.5820   19.8470 C   0  0  0  0  0  3  0  0  0  0  0  0
  -30.7440  -15.1730   20.2030 C   0  0  0  0  0  0  0  0  0  0  0  0
  -30.7130  -12.7620   19.4050 C   0  0  0  0  0  2  0  0  0  0  0  0
  -29.7980  -12.6280   18.1620 C   0  0  0  0  0  2  0  0  0  0  0  0
  -28.3260  -12.4210   18.5700 C   0  0  0  0  0  2  0  0  0  0  0  0
  -27.8820  -13.3970   19.6890 C   0  0  0  0  0  3  0  0  0  0  0  0
  -28.9150  -13.4790   20.8290 C   0  0  0  0  0  2  0  0  0  0  0  0
  -30.1960  -13.8850   20.2420 N   0  0  0  0  0  0  0  0  0  0  0  0
  -31.9780  -15.2110   20.1130 O   0  0  0  0  0  0  0  0  0  0  0  0
  -25.4940  -13.9980   20.3830 C   0  0  0  0  0  0  0  0  0  0  0  0
  -24.4200  -13.2340   20.7520 C   0  0  0  0  0  0  0  0  0  0  0  0
  -24.8810  -11.8820   20.7600 C   0  0  0  0  0  0  0  0  0  0  0  0
  -26.5380  -13.1110   20.1790 N   0  0  0  0  0  0  0  0  0  0  0  0
  -26.1780  -11.8350   20.4750 N   0  0  0  0  0  0  0  0  0  0  0  0
  -24.1460  -10.6260   20.9660 C   0  0  0  0  0  0  0  0  0  0  0  0
  -24.5530   -9.6830   21.9360 C   0  0  0  0  0  3  0  0  0  0  0  0
  -23.8180   -8.4930   22.1290 C   0  0  0  0  0  3  0  0  0  0  0  0
  -22.6640   -8.2380   21.3520 C   0  0  0  0  0  0  0  0  0  0  0  0
  -22.2770   -9.1680   20.3730 C   0  0  0  0  0  3  0  0  0  0  0  0
  -23.0120  -10.3500   20.1780 C   0  0  0  0  0  3  0  0  0  0  0  0
  -21.9040   -7.0970   21.4530 O   0  0  0  0  0  0  0  0  0  0  0  0
  -21.8150   -6.3900   22.6250 C   0  0  0  0  0  0  0  0  0  0  0  0
  -21.3100   -6.9720   23.8090 C   0  0  0  0  0  3  0  0  0  0  0  0
  -21.1720   -6.1920   24.9740 C   0  0  0  0  0  3  0  0  0  0  0  0
  -21.5280   -4.8310   24.9560 C   0  0  0  0  0  0  0  0  0  0  0  0
  -22.0240   -4.2480   23.7770 C   0  0  0  0  0  3  0  0  0  0  0  0
  -22.1640   -5.0250   22.6150 C   0  0  0  0  0  0  0  0  0  0  0  0
  -22.6240   -4.4530   21.4760 F   0  0  0  0  0  0  0  0  0  0  0  0
  -21.3870   -4.0790   26.0720 F   0  0  0  0  0  0  0  0  0  0  0  0
  -23.0190  -13.7210   20.9810 C   0  0  0  0  0  0  0  0  0  0  0  0
  -22.2730  -13.0520   21.8540 N   0  0  0  0  0  0  0  0  0  0  0  0
  -22.5940  -14.7320   20.4230 O   0  0  0  0  0  0  0  0  0  0  0  0
  -22.6300  -12.2360   22.3290 H   0  0  0  0  0  0  0  0  0  0  0  0
  -21.3320  -13.3610   22.0500 H   0  0  0  0  0  0  0  0  0  0  0  0
  -25.6650  -15.3640   20.1760 N   0  0  0  0  0  0  0  0  0  0  0  0
  -24.9000  -16.0240   20.2610 H   0  0  0  0  0  0  0  0  0  0  0  0
  -26.5200  -15.7920   19.8470 H   0  0  0  0  0  0  0  0  0  0  0  0
  -31.3400  -17.0590   17.7350 C   0  0  0  0  0  1  0  0  0  0  0  0
  -29.9390  -16.7550   18.3080 C   0  0  0  0  0  2  0  0  0  0  0  0
  3  4  1  0
  3  6  1  0
  3  1  1  0
  4  5  1  0
  4  2  1  0
  5  7  1  0
  5  1  1  0
  6 50  1  0
  6  2  1  0
  7  8  1  0
  9  8  1  0
 10 21  2  0
 11  9  1  0
 11 16  1  0
 12 20  1  0
 12 22  1  0
 13 19  1  0
 13 15  1  0
 14 20  1  0
 15 14  1  0
 16 15  2  0
 17 11  2  0
 18 17  1  0
 18 13  2  0
 19 12  1  0
 20 10  1  0
 22 24  2  0
 23 22  1  0
 25 23  1  0
 26 35  2  0
 26 31  1  0
 27 23  1  0
 27 31  1  0
 28 27  1  0
 29 30  1  0
 29 28  1  0
 30 26  1  0
 31 32  2  0
 32 33  1  0
 34 33  2  0
 35 34  1  0
 36 10  1  0
 36 41  1  0
 36 37  1  0
 37 40  1  1
 37 38  1  0
 39 37  1  0
 41 44  1  0
 42 46  1  0
 42 41  1  0
 43 42  2  0
 46 45  1  0
 48 46  1  0
 48 49  1  0
 48 47  1  0
 50 88  1  0
 50 51  1  0
 51 57  1  0
 52 57  1  0
 53 54  1  0
 53 52  1  0
 55 54  1  0
 55 62  1  0
 55 56  1  0
 57 56  1  0
 58 51  2  0
 59 60  2  0
 60 61  1  0
 60 79  1  0
 61 64  1  0
 62 59  1  0
 62 63  1  0
 63 61  2  0
 64 65  1  0
 65 66  2  0
 67 70  1  0
 67 66  1  0
 68 67  2  0
 69 68  1  0
 69 64  2  0
 70 71  1  0
 71 72  1  0
 72 73  2  0
 74 73  1  0
 74 78  1  0
 75 74  2  0
 76 71  2  0
 76 75  1  0
 77 76  1  0
 79 80  1  0
 80 83  1  0
 80 82  1  0
 81 79  2  0
 84 85  1  0
 84 59  1  0
 86 84  1  0
 87 88  1  0
M  ISO  4   8 101   9 101  50 100  51 100
M  END
>  <TORSDO>  (38) 
F 20

>  <SCORE>  (38) 
-15.077

>  <name>  (38) 
37

>  <ligand_id>  (38) 
37

>  <original_smiles>  (38) 
[H]c1c([H])c([H])c2c(c1[H])C([H])([H])C([H])([H])C([H])([H])C2([H])N([H])C(=O)C1([H])N(C(=O)C([H])(N([H])C(=O)C([H])(N([H])C([H])([H])[H])C([H])([H])[H])C(C([H])([H])[H])(C([H])([H])[H])C([H])([H])[H])C([H])([H])c2c([H])c(OC([H])([H])C([H])([H])C3([H])C([H])([H])C4([H])C([H])(C([H])(C(=O)N5C([H])([H])C([H])([H])C([H])([H])C([H])(n6nc(-c7c([H])c([H])c(Oc8c([H])c([H])c(F)c([H])c8F)c([H])c7[H])c(C(=O)N([H])[H])c6N([H])[H])C5([H])[H])C([H])([H])C([H])([H])[H])C([H])([H])C34[H])c([H])c([H])c2C1([H])[H]

>  <smiles>  (38) 
[H]c1c([H])c([H])c2c(c1[H])C([H])([H])C([H])([H])C([H])([H])C2([H])N([H])C(=O)C1([H])N(C(=O)C([H])(N([H])C(=O)C([H])(N([H])C([H])([H])[H])C([H])([H])[H])C(C([H])([H])[H])(C([H])([H])[H])C([H])([H])[H])C([H])([H])c2c([H])c(OC([H])([H])C([H])([H])C3([H])C([H])([H])C4([H])C([H])(C([H])(C(=O)N5C([H])([H])C([H])([H])C([H])([H])C([H])(n6nc(-c7c([H])c([H])c(Oc8c([H])c([H])c(F)c([H])c8F)c([H])c7[H])c(C(=O)N([H])[H])c6N([H])[H])C5([H])[H])C([H])([H])C([H])([H])[H])C([H])([H])C34[H])c([H])c([H])c2C1([H])[H]

$$$$
38:0:0
     RDKit          3D

 90 99  0  0  1  0  0  0  0  0999 V2000
  -28.2140  -21.5990   21.6500 C   0  0  0  0  0  2  0  0  0  0  0  0
  -28.2480  -19.6030   20.1010 C   0  0  0  0  0  2  0  0  0  0  0  0
  -30.4110  -20.8010   20.7650 C   0  0  0  0  0  2  0  0  0  0  0  0
  -28.1000  -22.2680   19.3420 C   0  0  0  0  0  2  0  0  0  0  0  0
  -27.6920  -21.0860   20.3220 C   0  0  0  0  0  3  0  0  0  0  0  0
  -29.5280  -22.1640   21.1510 C   0  0  0  0  0  3  0  0  0  0  0  0
  -29.7990  -19.3800   20.1790 C   0  0  0  0  0  3  0  0  0  0  0  0
  -29.0320  -23.3110   20.0860 C   0  0  1  0  0  0  0  0  0  0  0  0
  -30.2140  -23.7530   19.2090 C   0  0  0  0  0  1  0  0  0  0  0  0
  -30.4510  -17.8840   20.7120 C   0  0  0  0  0  2  0  0  0  0  0  0
  -30.7740  -15.1600   20.2790 C   0  0  0  0  0  0  0  0  0  0  0  0
  -30.6370  -12.8170   19.2970 C   0  0  0  0  0  2  0  0  0  0  0  0
  -29.6910  -12.7660   18.0750 C   0  0  0  0  0  2  0  0  0  0  0  0
  -28.2350  -12.5410   18.5240 C   0  0  0  0  0  2  0  0  0  0  0  0
  -27.8350  -13.4580   19.7090 C   0  0  0  0  0  3  0  0  0  0  0  0
  -28.9020  -13.4790   20.8220 C   0  0  0  0  0  2  0  0  0  0  0  0
  -30.1580  -13.9090   20.1950 N   0  0  0  0  0  0  0  0  0  0  0  0
  -31.9860  -15.1960   20.0420 O   0  0  0  0  0  0  0  0  0  0  0  0
  -30.0260  -16.3730   20.4320 N   0  0  0  0  0  0  0  0  0  0  0  0
  -29.0330  -16.2120   20.5110 H   0  0  0  0  0  0  0  0  0  0  0  0
  -25.4590  -14.0220   20.4690 C   0  0  0  0  0  0  0  0  0  0  0  0
  -24.4010  -13.2410   20.8420 C   0  0  0  0  0  0  0  0  0  0  0  0
  -24.8710  -11.8920   20.8020 C   0  0  0  0  0  0  0  0  0  0  0  0
  -26.5050  -13.1490   20.2190 N   0  0  0  0  0  0  0  0  0  0  0  0
  -26.1610  -11.8630   20.4860 N   0  0  0  0  0  0  0  0  0  0  0  0
  -24.1490  -10.6270   20.9890 C   0  0  0  0  0  0  0  0  0  0  0  0
  -24.5680   -9.6700   21.9410 C   0  0  0  0  0  3  0  0  0  0  0  0
  -23.8450   -8.4700   22.1160 C   0  0  0  0  0  3  0  0  0  0  0  0
  -22.6890   -8.2180   21.3400 C   0  0  0  0  0  0  0  0  0  0  0  0
  -22.2900   -9.1630   20.3780 C   0  0  0  0  0  3  0  0  0  0  0  0
  -23.0130  -10.3540   20.2010 C   0  0  0  0  0  3  0  0  0  0  0  0
  -21.9380   -7.0700   21.4230 O   0  0  0  0  0  0  0  0  0  0  0  0
  -21.8450   -6.3550   22.5900 C   0  0  0  0  0  0  0  0  0  0  0  0
  -21.3300   -6.9250   23.7740 C   0  0  0  0  0  3  0  0  0  0  0  0
  -21.1870   -6.1340   24.9310 C   0  0  0  0  0  3  0  0  0  0  0  0
  -21.5490   -4.7740   24.9060 C   0  0  0  0  0  0  0  0  0  0  0  0
  -22.0570   -4.2040   23.7260 C   0  0  0  0  0  3  0  0  0  0  0  0
  -22.2020   -4.9920   22.5700 C   0  0  0  0  0  0  0  0  0  0  0  0
  -22.6720   -4.4310   21.4290 F   0  0  0  0  0  0  0  0  0  0  0  0
  -21.4050   -4.0120   26.0150 F   0  0  0  0  0  0  0  0  0  0  0  0
  -23.0040  -13.7110   21.1180 C   0  0  0  0  0  0  0  0  0  0  0  0
  -22.2810  -13.0110   21.9850 N   0  0  0  0  0  0  0  0  0  0  0  0
  -22.5610  -14.7370   20.6020 O   0  0  0  0  0  0  0  0  0  0  0  0
  -22.6530  -12.1820   22.4250 H   0  0  0  0  0  0  0  0  0  0  0  0
  -21.3440  -13.3090   22.2140 H   0  0  0  0  0  0  0  0  0  0  0  0
  -25.6150  -15.3940   20.2950 N   0  0  0  0  0  0  0  0  0  0  0  0
  -24.8400  -16.0400   20.4070 H   0  0  0  0  0  0  0  0  0  0  0  0
  -26.4480  -15.8380   19.9330 H   0  0  0  0  0  0  0  0  0  0  0  0
  -28.2310  -24.7480   20.5960 C   0  0  0  0  0  2  0  0  0  0  0  0
  -28.4510  -26.2710   20.2630 O   0  0  0  0  0  0  0  0  0  0  0  0
  -24.6730  -31.9380   23.2170 C   0  0  0  0  0  0  0  0  0  0  0  0
  -27.3740  -27.2410   20.2410 C   0  0  0  0  0  0  0  0  0  0  0  0
  -23.5200  -30.5180   21.5650 C   0  0  0  0  0  3  0  0  0  0  0  0
  -25.0140  -28.9570   20.1700 C   0  0  0  0  0  0  0  0  0  0  0  0
  -26.0740  -30.8210   21.4360 C   0  0  0  0  0  2  0  0  0  0  0  0
  -26.1810  -29.4250   20.7900 C   0  0  0  0  0  0  0  0  0  0  0  0
  -27.3630  -28.5850   20.8020 C   0  0  0  0  0  3  0  0  0  0  0  0
  -26.1790  -26.8790   19.5830 C   0  0  0  0  0  3  0  0  0  0  0  0
  -25.0270  -27.6970   19.5510 C   0  0  0  0  0  3  0  0  0  0  0  0
  -23.7730  -29.8380   20.1940 C   0  0  0  0  0  2  0  0  0  0  0  0
  -24.7740  -31.1160   22.1280 N   0  0  0  0  0  0  0  0  0  0  0  0
  -23.5740  -32.2050   23.7300 O   0  0  0  0  0  0  0  0  0  0  0  0
  -22.8440  -29.5040   22.5210 C   0  0  0  0  0  0  0  0  0  0  0  0
  -21.5190  -29.3170   22.3830 N   0  0  0  0  0  0  0  0  0  0  0  0
  -23.5150  -28.8850   23.3510 O   0  0  0  0  0  0  0  0  0  0  0  0
  -21.0330  -29.8690   21.6900 H   0  0  0  0  0  0  0  0  0  0  0  0
  -18.1400  -28.1150   22.8960 C   0  0  0  0  0  0  0  0  0  0  0  0
  -20.7010  -28.3700   23.1450 C   0  0  0  0  0  3  0  0  0  0  0  0
  -20.7960  -26.9470   22.5480 C   0  0  0  0  0  2  0  0  0  0  0  0
  -19.6860  -26.6410   21.5380 C   0  0  0  0  0  2  0  0  0  0  0  0
  -18.3090  -26.7780   22.1940 C   0  0  0  0  0  2  0  0  0  0  0  0
  -19.2630  -28.8700   23.3280 C   0  0  0  0  0  0  0  0  0  0  0  0
  -19.0500  -30.1220   23.9460 C   0  0  0  0  0  3  0  0  0  0  0  0
  -17.7470  -30.6200   24.1330 C   0  0  0  0  0  3  0  0  0  0  0  0
  -16.6390  -29.8620   23.7170 C   0  0  0  0  0  3  0  0  0  0  0  0
  -16.8360  -28.6120   23.1040 C   0  0  0  0  0  3  0  0  0  0  0  0
  -25.9300  -32.5980   23.8620 C   0  0  0  0  0  3  0  0  0  0  0  0
  -25.5920  -33.9940   24.1770 N   0  0  0  0  0  0  0  0  0  0  0  0
  -25.9230  -35.0510   23.4240 C   0  0  0  0  0  0  0  0  0  0  0  0
  -26.6120  -34.9530   22.4040 O   0  0  0  0  0  0  0  0  0  0  0  0
  -24.9830  -34.1430   24.9680 H   0  0  0  0  0  0  0  0  0  0  0  0
  -24.1830  -36.8280   23.0350 C   0  0  0  0  0  1  0  0  0  0  0  0
  -25.4140  -36.4360   23.8700 C   0  0  0  0  0  3  0  0  0  0  0  0
  -27.5160  -37.3530   24.7460 C   0  0  0  0  0  1  0  0  0  0  0  0
  -26.4370  -37.5000   23.7740 N   0  0  0  0  0  0  0  0  0  0  0  0
  -26.0160  -38.4170   23.9040 H   0  0  0  0  0  0  0  0  0  0  0  0
  -26.4260  -31.8470   25.1600 C   0  0  1  0  0  0  0  0  0  0  0  0
  -25.3110  -31.5970   26.2010 C   0  0  0  0  0  1  0  0  0  0  0  0
  -27.0480  -30.4780   24.8010 C   0  0  0  0  0  1  0  0  0  0  0  0
  -27.5420  -32.6720   25.8450 C   0  0  0  0  0  1  0  0  0  0  0  0
  2  7  1  0
  2  5  1  0
  4  8  1  0
  5  4  1  0
  5  1  1  0
  6  3  1  0
  6  1  1  0
  7 10  1  0
  7  3  1  0
  8  9  1  6
  8 49  1  0
  8  6  1  0
 11 19  1  0
 12 17  1  0
 13 14  1  0
 13 12  1  0
 15 14  1  0
 15 24  1  0
 15 16  1  0
 17 11  1  0
 17 16  1  0
 18 11  2  0
 19 20  1  0
 19 10  1  0
 21 22  2  0
 22 41  1  0
 23 22  1  0
 23 26  1  0
 24 21  1  0
 24 25  1  0
 25 23  2  0
 26 27  1  0
 27 28  2  0
 29 32  1  0
 29 28  1  0
 30 29  2  0
 31 30  1  0
 31 26  2  0
 32 33  1  0
 33 34  1  0
 34 35  2  0
 36 35  1  0
 36 40  1  0
 37 36  2  0
 38 33  2  0
 38 37  1  0
 39 38  1  0
 41 42  1  0
 42 45  1  0
 42 44  1  0
 43 41  2  0
 46 47  1  0
 46 21  1  0
 48 46  1  0
 50 49  1  0
 51 62  2  0
 52 50  1  0
 52 57  1  0
 53 61  1  0
 53 63  1  0
 54 60  1  0
 54 56  1  0
 55 61  1  0
 56 57  2  0
 56 55  1  0
 58 52  2  0
 59 58  1  0
 59 54  2  0
 60 53  1  0
 61 51  1  0
 63 65  2  0
 64 63  1  0
 66 64  1  0
 67 76  2  0
 67 72  1  0
 68 64  1  0
 68 72  1  0
 69 68  1  0
 70 71  1  0
 70 69  1  0
 71 67  1  0
 72 73  2  0
 73 74  1  0
 75 74  2  0
 76 75  1  0
 77 51  1  0
 77 78  1  0
 77 87  1  0
 78 81  1  0
 79 83  1  0
 79 78  1  0
 80 79  2  0
 83 82  1  0
 85 83  1  0
 85 86  1  0
 85 84  1  0
 87 90  1  1
 87 88  1  0
 89 87  1  0
M  ISO  4  11 100  19 100  49 101  50 101
M  END
>  <TORSDO>  (39) 
F 18

>  <SCORE>  (39) 
-15.812

>  <name>  (39) 
38

>  <ligand_id>  (39) 
38

>  <original_smiles>  (39) 
[H]c1c([H])c([H])c2c(c1[H])C([H])([H])C([H])([H])C([H])([H])C2([H])N([H])C(=O)C1([H])N(C(=O)C([H])(N([H])C(=O)C([H])(N([H])C([H])([H])[H])C([H])([H])[H])C(C([H])([H])[H])(C([H])([H])[H])C([H])([H])[H])C([H])([H])c2c([H])c(OC([H])([H])C3(C([H])([H])[H])C([H])([H])C4([H])C([H])([H])C([H])(C([H])([H])N([H])C(=O)N5C([H])([H])C([H])([H])C([H])([H])C([H])(n6nc(-c7c([H])c([H])c(Oc8c([H])c([H])c(F)c([H])c8F)c([H])c7[H])c(C(=O)N([H])[H])c6N([H])[H])C5([H])[H])C([H])([H])C3([H])C4([H])[H])c([H])c([H])c2C1([H])[H]

>  <smiles>  (39) 
[H]c1c([H])c([H])c2c(c1[H])C([H])([H])C([H])([H])C([H])([H])C2([H])N([H])C(=O)C1([H])N(C(=O)C([H])(N([H])C(=O)C([H])(N([H])C([H])([H])[H])C([H])([H])[H])C(C([H])([H])[H])(C([H])([H])[H])C([H])([H])[H])C([H])([H])c2c([H])c(OC([H])([H])C3(C([H])([H])[H])C([H])([H])C4([H])C([H])([H])C([H])(C([H])([H])N([H])C(=O)N5C([H])([H])C([H])([H])C([H])([H])C([H])(n6nc(-c7c([H])c([H])c(Oc8c([H])c([H])c(F)c([H])c8F)c([H])c7[H])c(C(=O)N([H])[H])c6N([H])[H])C5([H])[H])C([H])([H])C3([H])C4([H])[H])c([H])c([H])c2C1([H])[H]

$$$$
39:0:0
     RDKit          3D

 91101  0  0  1  0  0  0  0  0999 V2000
  -30.8310  -14.9600   20.1790 C   0  0  0  0  0  0  0  0  0  0  0  0
  -30.6290  -12.5250   19.5210 C   0  0  0  0  0  2  0  0  0  0  0  0
  -29.7490  -12.2870   18.2750 C   0  0  0  0  0  2  0  0  0  0  0  0
  -28.2840  -12.1000   18.6930 C   0  0  0  0  0  2  0  0  0  0  0  0
  -27.8210  -13.1970   19.6830 C   0  0  0  0  0  3  0  0  0  0  0  0
  -28.8320  -13.4490   20.8260 C   0  0  0  0  0  2  0  0  0  0  0  0
  -30.1300  -13.7530   20.2130 N   0  0  0  0  0  0  0  0  0  0  0  0
  -32.0430  -14.8670   19.9500 O   0  0  0  0  0  0  0  0  0  0  0  0
  -28.5370  -18.7460   21.5000 C   0  0  0  0  0  2  0  0  0  0  0  0
  -28.0500  -17.5600   20.6070 C   0  0  0  0  0  2  0  0  0  0  0  0
  -29.3990  -17.8520   18.4580 C   0  0  0  0  0  2  0  0  0  0  0  0
  -31.1240  -17.4690   20.7140 C   0  0  0  0  0  2  0  0  0  0  0  0
  -29.1700  -20.4380   19.4530 C   0  0  0  0  0  3  0  0  0  0  0  0
  -29.5150  -19.7440   20.8450 C   0  0  0  0  0  3  0  0  0  0  0  0
  -30.0340  -19.1970   18.9010 C   0  0  0  0  0  3  0  0  0  0  0  0
  -30.7270  -18.9750   20.2540 C   0  0  0  0  0  3  0  0  0  0  0  0
  -29.0600  -16.8560   19.6350 C   0  0  0  0  0  3  0  0  0  0  0  0
  -30.2670  -16.2700   20.3180 N   0  0  0  0  0  0  0  0  0  0  0  0
  -25.4580  -13.8750   20.3780 C   0  0  0  0  0  0  0  0  0  0  0  0
  -24.3630  -13.1460   20.7470 C   0  0  0  0  0  0  0  0  0  0  0  0
  -24.7840  -11.7800   20.7620 C   0  0  0  0  0  0  0  0  0  0  0  0
  -26.4730  -12.9560   20.1780 N   0  0  0  0  0  0  0  0  0  0  0  0
  -26.0780  -11.6930   20.4760 N   0  0  0  0  0  0  0  0  0  0  0  0
  -24.0140  -10.5490   20.9730 C   0  0  0  0  0  0  0  0  0  0  0  0
  -24.4270   -9.5730   21.9070 C   0  0  0  0  0  3  0  0  0  0  0  0
  -23.6590   -8.4040   22.1060 C   0  0  0  0  0  3  0  0  0  0  0  0
  -22.4650   -8.2060   21.3710 C   0  0  0  0  0  0  0  0  0  0  0  0
  -22.0740   -9.1690   20.4240 C   0  0  0  0  0  3  0  0  0  0  0  0
  -22.8410  -10.3290   20.2230 C   0  0  0  0  0  3  0  0  0  0  0  0
  -21.6710   -7.0920   21.4790 O   0  0  0  0  0  0  0  0  0  0  0  0
  -21.6410   -6.3380   22.6250 C   0  0  0  0  0  0  0  0  0  0  0  0
  -21.2930   -6.8960   23.8750 C   0  0  0  0  0  3  0  0  0  0  0  0
  -21.2070   -6.0710   25.0130 C   0  0  0  0  0  3  0  0  0  0  0  0
  -21.4580   -4.6910   24.9060 C   0  0  0  0  0  0  0  0  0  0  0  0
  -21.8000   -4.1320   23.6620 C   0  0  0  0  0  3  0  0  0  0  0  0
  -21.8870   -4.9530   22.5240 C   0  0  0  0  0  0  0  0  0  0  0  0
  -22.1980   -4.4060   21.3240 F   0  0  0  0  0  0  0  0  0  0  0  0
  -21.3660   -3.8970   25.9990 F   0  0  0  0  0  0  0  0  0  0  0  0
  -22.9770  -13.6750   20.9790 C   0  0  0  0  0  0  0  0  0  0  0  0
  -22.2170  -13.0300   21.8560 N   0  0  0  0  0  0  0  0  0  0  0  0
  -22.5790  -14.6930   20.4140 O   0  0  0  0  0  0  0  0  0  0  0  0
  -22.5530  -12.2040   22.3280 H   0  0  0  0  0  0  0  0  0  0  0  0
  -21.2860  -13.3640   22.0580 H   0  0  0  0  0  0  0  0  0  0  0  0
  -25.6660  -15.2350   20.1680 N   0  0  0  0  0  0  0  0  0  0  0  0
  -24.9240  -15.9160   20.2690 H   0  0  0  0  0  0  0  0  0  0  0  0
  -26.5440  -15.6410   19.8730 H   0  0  0  0  0  0  0  0  0  0  0  0
  -29.5560  -21.9940   19.0480 C   0  0  0  0  0  0  0  0  0  0  0  0
  -30.5020  -22.2070   18.2870 O   0  0  0  0  0  0  0  0  0  0  0  0
  -28.7790  -23.3640   19.5340 C   0  0  0  0  0  2  0  0  0  0  0  0
  -28.6230  -24.7500   18.5990 C   0  0  0  0  0  2  0  0  0  0  0  0
  -28.5390  -26.2390   19.0270 O   0  0  0  0  0  0  0  0  0  0  0  0
  -24.5950  -31.2170   22.6490 C   0  0  0  0  0  0  0  0  0  0  0  0
  -27.3850  -27.0970   19.0350 C   0  0  0  0  0  0  0  0  0  0  0  0
  -23.4360  -29.9450   20.8780 C   0  0  0  0  0  3  0  0  0  0  0  0
  -24.9390  -28.6540   19.2400 C   0  0  0  0  0  0  0  0  0  0  0  0
  -25.9560  -30.4100   20.6880 C   0  0  0  0  0  2  0  0  0  0  0  0
  -26.0990  -29.1130   19.8750 C   0  0  0  0  0  0  0  0  0  0  0  0
  -27.3160  -28.3520   19.7550 C   0  0  0  0  0  3  0  0  0  0  0  0
  -26.1920  -26.7280   18.3730 C   0  0  0  0  0  3  0  0  0  0  0  0
  -24.9980  -27.4780   18.4730 C   0  0  0  0  0  3  0  0  0  0  0  0
  -23.6550  -29.4480   19.4230 C   0  0  0  0  0  2  0  0  0  0  0  0
  -24.6810  -30.5400   21.4620 N   0  0  0  0  0  0  0  0  0  0  0  0
  -23.5120  -31.3620   23.2340 O   0  0  0  0  0  0  0  0  0  0  0  0
  -22.8550  -28.7880   21.7300 C   0  0  0  0  0  0  0  0  0  0  0  0
  -21.5310  -28.5660   21.6390 N   0  0  0  0  0  0  0  0  0  0  0  0
  -23.5950  -28.0990   22.4370 O   0  0  0  0  0  0  0  0  0  0  0  0
  -20.9890  -29.1780   21.0450 H   0  0  0  0  0  0  0  0  0  0  0  0
  -18.2370  -27.1450   22.1340 C   0  0  0  0  0  0  0  0  0  0  0  0
  -20.7940  -27.4970   22.3160 C   0  0  0  0  0  3  0  0  0  0  0  0
  -20.9260  -26.1580   21.5520 C   0  0  0  0  0  2  0  0  0  0  0  0
  -19.7870  -25.9180   20.5560 C   0  0  0  0  0  2  0  0  0  0  0  0
  -18.4370  -25.9070   21.2750 C   0  0  0  0  0  2  0  0  0  0  0  0
  -19.3440  -27.9000   22.6080 C   0  0  0  0  0  0  0  0  0  0  0  0
  -19.0980  -29.0610   23.3740 C   0  0  0  0  0  3  0  0  0  0  0  0
  -17.7830  -29.4670   23.6690 C   0  0  0  0  0  3  0  0  0  0  0  0
  -16.6930  -28.7080   23.2060 C   0  0  0  0  0  3  0  0  0  0  0  0
  -16.9220  -27.5490   22.4450 C   0  0  0  0  0  3  0  0  0  0  0  0
  -25.8490  -31.8570   23.3160 C   0  0  0  0  0  3  0  0  0  0  0  0
  -25.4430  -33.1570   23.8740 N   0  0  0  0  0  0  0  0  0  0  0  0
  -25.6660  -34.3410   23.2890 C   0  0  0  0  0  0  0  0  0  0  0  0
  -26.2990  -34.4600   22.2370 O   0  0  0  0  0  0  0  0  0  0  0  0
  -24.8690  -33.1350   24.7050 H   0  0  0  0  0  0  0  0  0  0  0  0
  -23.7910  -36.0240   23.2860 C   0  0  0  0  0  1  0  0  0  0  0  0
  -25.0960  -35.5980   23.9790 C   0  0  0  0  0  3  0  0  0  0  0  0
  -27.1890  -36.5170   24.8750 C   0  0  0  0  0  1  0  0  0  0  0  0
  -26.0400  -36.7370   24.0010 N   0  0  0  0  0  0  0  0  0  0  0  0
  -25.5720  -37.5880   24.3020 H   0  0  0  0  0  0  0  0  0  0  0  0
  -26.4850  -30.9510   24.4420 C   0  0  1  0  0  0  0  0  0  0  0  0
  -25.4660  -30.4760   25.5050 C   0  0  0  0  0  1  0  0  0  0  0  0
  -27.1450  -29.6920   23.8310 C   0  0  0  0  0  1  0  0  0  0  0  0
  -27.6070  -31.7300   25.1680 C   0  0  0  0  0  1  0  0  0  0  0  0
  1  7  1  0
  1 18  1  0
  2  7  1  0
  3  4  1  0
  3  2  1  0
  5  4  1  0
  5 22  1  0
  5  6  1  0
  7  6  1  0
  8  1  2  0
 10  9  1  0
 13 47  1  0
 13 14  1  0
 14  9  1  0
 15 11  1  0
 15 13  1  0
 15 16  1  0
 16 12  1  0
 16 14  1  0
 17 11  1  0
 17 18  1  0
 17 10  1  0
 18 12  1  0
 19 20  2  0
 20 21  1  0
 20 39  1  0
 21 24  1  0
 22 19  1  0
 22 23  1  0
 23 21  2  0
 24 25  1  0
 25 26  2  0
 27 30  1  0
 27 26  1  0
 28 27  2  0
 29 28  1  0
 29 24  2  0
 30 31  1  0
 31 32  1  0
 32 33  2  0
 34 33  1  0
 34 38  1  0
 35 34  2  0
 36 31  2  0
 36 35  1  0
 37 36  1  0
 39 40  1  0
 40 43  1  0
 40 42  1  0
 41 39  2  0
 44 45  1  0
 44 19  1  0
 46 44  1  0
 47 49  1  0
 48 47  2  0
 50 51  1  0
 50 49  1  0
 51 53  1  0
 52 63  2  0
 53 58  1  0
 54 62  1  0
 54 64  1  0
 55 61  1  0
 55 57  1  0
 56 62  1  0
 57 56  1  0
 58 57  2  0
 59 60  1  0
 59 53  2  0
 60 55  2  0
 61 54  1  0
 62 52  1  0
 64 66  2  0
 65 64  1  0
 67 65  1  0
 68 77  2  0
 68 73  1  0
 69 65  1  0
 69 73  1  0
 70 69  1  0
 71 72  1  0
 71 70  1  0
 72 68  1  0
 73 74  2  0
 74 75  1  0
 76 75  2  0
 77 76  1  0
 78 52  1  0
 78 79  1  0
 78 88  1  0
 79 82  1  0
 80 79  1  0
 80 84  1  0
 81 80  2  0
 84 83  1  0
 84 86  1  0
 86 87  1  0
 86 85  1  0
 88 91  1  1
 88 89  1  0
 90 88  1  0
M  ISO  4   1 100  18 100  50 101  51 101
M  END
>  <TORSDO>  (40) 
F 18

>  <SCORE>  (40) 
-11.149

>  <name>  (40) 
39

>  <ligand_id>  (40) 
39

>  <original_smiles>  (40) 
[H]c1c([H])c([H])c2c(c1[H])C([H])([H])C([H])([H])C([H])([H])C2([H])N([H])C(=O)C1([H])N(C(=O)C([H])(N([H])C(=O)C([H])(N([H])C([H])([H])[H])C([H])([H])[H])C(C([H])([H])[H])(C([H])([H])[H])C([H])([H])[H])C([H])([H])c2c([H])c(OC([H])([H])C([H])([H])C(=O)C3([H])C4([H])C([H])([H])C([H])([H])C5([H])N(C(=O)N6C([H])([H])C([H])([H])C([H])([H])C([H])(n7nc(-c8c([H])c([H])c(Oc9c([H])c([H])c(F)c([H])c9F)c([H])c8[H])c(C(=O)N([H])[H])c7N([H])[H])C6([H])[H])C([H])([H])C4([H])C3([H])C5([H])[H])c([H])c([H])c2C1([H])[H]

>  <smiles>  (40) 
[H]c1c([H])c([H])c2c(c1[H])C([H])([H])C([H])([H])C([H])([H])C2([H])N([H])C(=O)C1([H])N(C(=O)C([H])(N([H])C(=O)C([H])(N([H])C([H])([H])[H])C([H])([H])[H])C(C([H])([H])[H])(C([H])([H])[H])C([H])([H])[H])C([H])([H])c2c([H])c(OC([H])([H])C([H])([H])C(=O)C3([H])C4([H])C([H])([H])C([H])([H])C5([H])N(C(=O)N6C([H])([H])C([H])([H])C([H])([H])C([H])(n7nc(-c8c([H])c([H])c(Oc9c([H])c([H])c(F)c([H])c9F)c([H])c8[H])c(C(=O)N([H])[H])c7N([H])[H])C6([H])[H])C([H])([H])C4([H])C3([H])C5([H])[H])c([H])c([H])c2C1([H])[H]

$$$$
40:0:0
     RDKit          3D

 87 96  0  0  1  0  0  0  0  0999 V2000
  -27.5980  -20.9740   20.1280 C   0  0  0  0  0  2  0  0  0  0  0  0
  -28.3340  -19.6990   20.5960 C   0  0  0  0  0  3  0  0  0  0  0  0
  -29.6170  -20.5240   20.7600 C   0  0  0  0  0  3  0  0  0  0  0  0
  -28.6990  -21.8720   20.6800 C   0  0  0  0  0  3  0  0  0  0  0  0
  -29.5800  -19.0630   20.0120 C   0  0  0  0  0  3  0  0  0  0  0  0
  -29.0980  -23.4330   20.2290 C   0  0  0  0  0  3  0  0  0  0  0  0
  -28.0200  -24.7170   20.3200 C   0  0  0  0  0  3  0  0  0  0  0  0
  -28.3100  -26.2430   20.2490 O   0  0  0  0  0  0  0  0  0  0  0  0
  -24.6040  -31.8850   23.2170 C   0  0  0  0  0  0  0  0  0  0  0  0
  -27.2400  -27.2070   20.1970 C   0  0  0  0  0  0  0  0  0  0  0  0
  -23.4280  -30.4810   21.5680 C   0  0  0  0  0  3  0  0  0  0  0  0
  -24.8980  -28.9250   20.1540 C   0  0  0  0  0  0  0  0  0  0  0  0
  -25.9810  -30.7700   21.4220 C   0  0  0  0  0  2  0  0  0  0  0  0
  -26.0710  -29.3820   20.7700 C   0  0  0  0  0  0  0  0  0  0  0  0
  -27.2440  -28.5400   20.7720 C   0  0  0  0  0  3  0  0  0  0  0  0
  -26.0410  -26.8540   19.5380 C   0  0  0  0  0  3  0  0  0  0  0  0
  -24.8950  -27.6740   19.5230 C   0  0  0  0  0  3  0  0  0  0  0  0
  -23.6640  -29.8100   20.1910 C   0  0  0  0  0  2  0  0  0  0  0  0
  -24.6900  -31.0670   22.1250 N   0  0  0  0  0  0  0  0  0  0  0  0
  -23.5110  -32.1590   23.7370 O   0  0  0  0  0  0  0  0  0  0  0  0
  -22.7510  -29.4660   22.5230 C   0  0  0  0  0  0  0  0  0  0  0  0
  -21.4240  -29.2900   22.3920 N   0  0  0  0  0  0  0  0  0  0  0  0
  -23.4230  -28.8380   23.3460 O   0  0  0  0  0  0  0  0  0  0  0  0
  -20.9380  -29.8490   21.7050 H   0  0  0  0  0  0  0  0  0  0  0  0
  -18.0420  -28.0960   22.8990 C   0  0  0  0  0  0  0  0  0  0  0  0
  -20.6030  -28.3470   23.1570 C   0  0  0  0  0  3  0  0  0  0  0  0
  -20.6960  -26.9190   22.5680 C   0  0  0  0  0  2  0  0  0  0  0  0
  -19.5880  -26.6110   21.5560 C   0  0  0  0  0  2  0  0  0  0  0  0
  -18.2110  -26.7540   22.2070 C   0  0  0  0  0  2  0  0  0  0  0  0
  -19.1640  -28.8510   23.3300 C   0  0  0  0  0  0  0  0  0  0  0  0
  -18.9510  -30.1070   23.9390 C   0  0  0  0  0  3  0  0  0  0  0  0
  -17.6480  -30.6080   24.1190 C   0  0  0  0  0  3  0  0  0  0  0  0
  -16.5390  -29.8510   23.7010 C   0  0  0  0  0  3  0  0  0  0  0  0
  -16.7370  -28.5960   23.0980 C   0  0  0  0  0  3  0  0  0  0  0  0
  -25.8710  -32.5300   23.8540 C   0  0  0  0  0  3  0  0  0  0  0  0
  -26.3670  -31.7760   25.1490 C   0  0  1  0  0  0  0  0  0  0  0  0
  -25.2570  -31.5450   26.2010 C   0  0  0  0  0  1  0  0  0  0  0  0
  -26.9630  -30.3970   24.7880 C   0  0  0  0  0  1  0  0  0  0  0  0
  -27.5010  -32.5840   25.8230 C   0  0  0  0  0  1  0  0  0  0  0  0
  -25.5510  -33.9320   24.1680 N   0  0  0  0  0  0  0  0  0  0  0  0
  -25.8890  -34.9820   23.4070 C   0  0  0  0  0  0  0  0  0  0  0  0
  -26.5710  -34.8730   22.3840 O   0  0  0  0  0  0  0  0  0  0  0  0
  -24.9470  -34.0890   24.9600 H   0  0  0  0  0  0  0  0  0  0  0  0
  -24.1690  -36.7780   23.0190 C   0  0  0  0  0  1  0  0  0  0  0  0
  -25.3960  -36.3740   23.8520 C   0  0  0  0  0  3  0  0  0  0  0  0
  -27.5120  -37.2670   24.7180 C   0  0  0  0  0  1  0  0  0  0  0  0
  -26.4310  -37.4260   23.7500 N   0  0  0  0  0  0  0  0  0  0  0  0
  -26.0220  -38.3470   23.8790 H   0  0  0  0  0  0  0  0  0  0  0  0
  -30.2800  -17.6560   20.5530 C   0  0  0  0  0  2  0  0  0  0  0  0
  -30.6360  -14.9740   20.1360 C   0  0  0  0  0  0  0  0  0  0  0  0
  -30.4520  -12.6510   19.1540 C   0  0  0  0  0  2  0  0  0  0  0  0
  -29.4780  -12.6400   17.9540 C   0  0  0  0  0  2  0  0  0  0  0  0
  -28.0280  -12.4420   18.4310 C   0  0  0  0  0  2  0  0  0  0  0  0
  -27.6690  -13.3560   19.6330 C   0  0  0  0  0  3  0  0  0  0  0  0
  -28.7580  -13.3360   20.7240 C   0  0  0  0  0  2  0  0  0  0  0  0
  -30.0140  -13.7330   20.0760 N   0  0  0  0  0  0  0  0  0  0  0  0
  -31.8380  -15.0310   19.8640 O   0  0  0  0  0  0  0  0  0  0  0  0
  -29.8740  -16.1570   20.3020 N   0  0  0  0  0  0  0  0  0  0  0  0
  -28.8850  -15.9800   20.3900 H   0  0  0  0  0  0  0  0  0  0  0  0
  -25.3150  -13.9430   20.4540 C   0  0  0  0  0  0  0  0  0  0  0  0
  -24.2570  -13.1690   20.8430 C   0  0  0  0  0  0  0  0  0  0  0  0
  -24.7110  -11.8160   20.7750 C   0  0  0  0  0  0  0  0  0  0  0  0
  -26.3450  -13.0610   20.1690 N   0  0  0  0  0  0  0  0  0  0  0  0
  -25.9920  -11.7760   20.4290 N   0  0  0  0  0  0  0  0  0  0  0  0
  -23.9820  -10.5560   20.9650 C   0  0  0  0  0  0  0  0  0  0  0  0
  -24.4250   -9.5770   21.8820 C   0  0  0  0  0  3  0  0  0  0  0  0
  -23.6950   -8.3820   22.0620 C   0  0  0  0  0  3  0  0  0  0  0  0
  -22.5080   -8.1580   21.3240 C   0  0  0  0  0  0  0  0  0  0  0  0
  -22.0840   -9.1260   20.3950 C   0  0  0  0  0  3  0  0  0  0  0  0
  -22.8140  -10.3110   20.2140 C   0  0  0  0  0  3  0  0  0  0  0  0
  -21.7460   -7.0170   21.4120 O   0  0  0  0  0  0  0  0  0  0  0  0
  -21.6950   -6.2740   22.5640 C   0  0  0  0  0  0  0  0  0  0  0  0
  -21.2490   -6.8250   23.7870 C   0  0  0  0  0  3  0  0  0  0  0  0
  -21.1470   -6.0070   24.9300 C   0  0  0  0  0  3  0  0  0  0  0  0
  -21.4810   -4.6410   24.8520 C   0  0  0  0  0  0  0  0  0  0  0  0
  -21.9180   -4.0920   23.6350 C   0  0  0  0  0  3  0  0  0  0  0  0
  -22.0230   -4.9060   22.4940 C   0  0  0  0  0  0  0  0  0  0  0  0
  -22.4250   -4.3660   21.3180 F   0  0  0  0  0  0  0  0  0  0  0  0
  -21.3770   -3.8550   25.9490 F   0  0  0  0  0  0  0  0  0  0  0  0
  -22.8710  -13.6520   21.1600 C   0  0  0  0  0  0  0  0  0  0  0  0
  -22.1630  -12.9440   22.0330 N   0  0  0  0  0  0  0  0  0  0  0  0
  -22.4300  -14.6890   20.6710 O   0  0  0  0  0  0  0  0  0  0  0  0
  -22.5360  -12.1040   22.4490 H   0  0  0  0  0  0  0  0  0  0  0  0
  -21.2320  -13.2460   22.2880 H   0  0  0  0  0  0  0  0  0  0  0  0
  -25.4790  -15.3150   20.2910 N   0  0  0  0  0  0  0  0  0  0  0  0
  -24.7120  -15.9640   20.4370 H   0  0  0  0  0  0  0  0  0  0  0  0
  -26.3040  -15.7610   19.9110 H   0  0  0  0  0  0  0  0  0  0  0  0
  1  4  1  0
  2  1  1  0
  2  3  1  0
  4  3  1  0
  5 49  1  0
  5  2  1  0
  5  3  1  0
  6  7  2  0
  6  4  1  0
  8  7  1  0
  9 20  2  0
  9 35  1  0
 10  8  1  0
 10 15  1  0
 11 19  1  0
 11 21  1  0
 12 18  1  0
 12 14  1  0
 13 19  1  0
 14 15  2  0
 14 13  1  0
 16 10  2  0
 17 16  1  0
 17 12  2  0
 18 11  1  0
 19  9  1  0
 21 23  2  0
 22 21  1  0
 22 26  1  0
 24 22  1  0
 25 34  2  0
 25 30  1  0
 26 30  1  0
 27 26  1  0
 28 29  1  0
 28 27  1  0
 29 25  1  0
 30 31  2  0
 31 32  1  0
 33 32  2  0
 34 33  1  0
 35 40  1  0
 35 36  1  0
 36 39  1  1
 36 37  1  0
 38 36  1  0
 40 43  1  0
 41 45  1  0
 41 40  1  0
 42 41  2  0
 44 45  1  0
 47 45  1  0
 47 48  1  0
 47 46  1  0
 50 58  1  0
 51 56  1  0
 52 53  1  0
 52 51  1  0
 53 54  1  0
 54 63  1  0
 54 55  1  0
 56 50  1  0
 56 55  1  0
 57 50  2  0
 58 59  1  0
 58 49  1  0
 60 61  2  0
 61 80  1  0
 62 61  1  0
 62 65  1  0
 63 64  1  0
 63 60  1  0
 64 62  2  0
 65 66  1  0
 66 67  2  0
 68 71  1  0
 68 67  1  0
 69 68  2  0
 70 69  1  0
 70 65  2  0
 71 72  1  0
 72 73  1  0
 73 74  2  0
 75 74  1  0
 75 79  1  0
 76 75  2  0
 77 72  2  0
 77 76  1  0
 78 77  1  0
 80 81  1  0
 81 84  1  0
 81 83  1  0
 82 80  2  0
 85 86  1  0
 85 60  1  0
 87 85  1  0
M  ISO  4   7 101   8 101  50 100  58 100
M  END
>  <TORSDO>  (41) 
F 19

>  <SCORE>  (41) 
-13.923

>  <name>  (41) 
40

>  <ligand_id>  (41) 
40

>  <original_smiles>  (41) 
[H]c1c([H])c([H])c2c(c1[H])C([H])([H])C([H])([H])C([H])([H])C2([H])N([H])C(=O)C1([H])N(C(=O)C([H])(N([H])C(=O)C([H])(N([H])C([H])([H])[H])C([H])([H])[H])C(C([H])([H])[H])(C([H])([H])[H])C([H])([H])[H])C([H])([H])c2c([H])c(OC([H])([H])C([H])([H])C3([H])C([H])([H])C4([H])C([H])(C([H])([H])N([H])C(=O)N5C([H])([H])C([H])([H])C([H])([H])C([H])(n6nc(-c7c([H])c([H])c(Oc8c([H])c([H])c(F)c([H])c8F)c([H])c7[H])c(C(=O)N([H])[H])c6N([H])[H])C5([H])[H])C34[H])c([H])c([H])c2C1([H])[H]

>  <smiles>  (41) 
[H]c1c([H])c([H])c2c(c1[H])C([H])([H])C([H])([H])C([H])([H])C2([H])N([H])C(=O)C1([H])N(C(=O)C([H])(N([H])C(=O)C([H])(N([H])C([H])([H])[H])C([H])([H])[H])C(C([H])([H])[H])(C([H])([H])[H])C([H])([H])[H])C([H])([H])c2c([H])c(OC([H])([H])C([H])([H])C3([H])C([H])([H])C4([H])C([H])(C([H])([H])N([H])C(=O)N5C([H])([H])C([H])([H])C([H])([H])C([H])(n6nc(-c7c([H])c([H])c(Oc8c([H])c([H])c(F)c([H])c8F)c([H])c7[H])c(C(=O)N([H])[H])c6N([H])[H])C5([H])[H])C34[H])c([H])c([H])c2C1([H])[H]

$$$$
41:0:0
     RDKit          3D

 96105  0  0  1  0  0  0  0  0999 V2000
  -29.4580  -22.3290   17.8400 C   0  0  0  0  0  2  0  0  0  0  0  0
  -29.1030  -20.9180   18.3140 C   0  0  0  0  0  2  0  0  0  0  0  0
  -29.9680  -22.4100   21.5760 C   0  0  0  0  0  2  0  0  0  0  0  0
  -28.6670  -20.5030   20.8160 C   0  0  0  0  0  2  0  0  0  0  0  0
  -30.2410  -22.2020   20.0710 C   0  0  0  0  0  3  0  0  0  0  0  0
  -29.4960  -23.1740   19.1150 C   0  0  0  0  0  3  0  0  0  0  0  0
  -29.1870  -21.1840   22.0870 C   0  0  0  0  0  3  0  0  0  0  0  0
  -29.7280  -20.7710   19.7220 C   0  0  2  0  0  0  0  0  0  0  0  0
  -30.0160  -20.2780   22.9070 N   0  0  0  0  0  4  0  0  0  0  0  0
  -30.8440  -19.9870   22.4210 H   0  0  0  0  0  0  0  0  0  0  0  0
  -29.4880  -19.4600   23.1590 H   0  0  0  0  0  0  0  0  0  0  0  0
  -30.2920  -20.7310   23.7620 H   0  0  0  0  0  0  0  0  0  0  0  0
  -30.0670  -24.6100   18.8630 C   0  0  0  0  0  2  0  0  0  0  0  0
  -29.7340  -25.6830   19.9250 C   0  0  0  0  0  2  0  0  0  0  0  0
  -29.5580  -27.0140   19.3720 O   0  0  0  0  0  0  0  0  0  0  0  0
  -25.0280  -30.9120   23.2720 C   0  0  0  0  0  0  0  0  0  0  0  0
  -28.2870  -27.5500   19.4840 C   0  0  0  0  0  0  0  0  0  0  0  0
  -24.0240  -29.5570   21.4640 C   0  0  0  0  0  3  0  0  0  0  0  0
  -25.6600  -28.5660   19.7800 C   0  0  0  0  0  0  0  0  0  0  0  0
  -26.4220  -30.4280   21.2590 C   0  0  0  0  0  2  0  0  0  0  0  0
  -26.7330  -29.2110   20.4090 C   0  0  0  0  0  0  0  0  0  0  0  0
  -28.0490  -28.7110   20.2600 C   0  0  0  0  0  3  0  0  0  0  0  0
  -27.1950  -26.9400   18.8270 C   0  0  0  0  0  3  0  0  0  0  0  0
  -25.8870  -27.4310   18.9880 C   0  0  0  0  0  3  0  0  0  0  0  0
  -24.2810  -29.1480   19.9920 C   0  0  0  0  0  2  0  0  0  0  0  0
  -25.1770  -30.3080   22.0580 N   0  0  0  0  0  0  0  0  0  0  0  0
  -23.9470  -30.8850   23.8740 O   0  0  0  0  0  0  0  0  0  0  0  0
  -23.6310  -28.3000   22.2710 C   0  0  0  0  0  0  0  0  0  0  0  0
  -22.4120  -27.7870   22.0310 N   0  0  0  0  0  0  0  0  0  0  0  0
  -24.4220  -27.7920   23.0680 O   0  0  0  0  0  0  0  0  0  0  0  0
  -21.8240  -28.2590   21.3600 H   0  0  0  0  0  0  0  0  0  0  0  0
  -19.5550  -25.5740   22.0150 C   0  0  0  0  0  0  0  0  0  0  0  0
  -21.8500  -26.5830   22.6460 C   0  0  0  0  0  3  0  0  0  0  0  0
  -22.4660  -25.3040   22.0320 C   0  0  0  0  0  2  0  0  0  0  0  0
  -21.6500  -24.7420   20.8650 C   0  0  0  0  0  2  0  0  0  0  0  0
  -20.2280  -24.4030   21.3190 C   0  0  0  0  0  2  0  0  0  0  0  0
  -20.3170  -26.6050   22.6240 C   0  0  0  0  0  0  0  0  0  0  0  0
  -19.6420  -27.6890   23.2270 C   0  0  0  0  0  3  0  0  0  0  0  0
  -18.2360  -27.7480   23.2310 C   0  0  0  0  0  3  0  0  0  0  0  0
  -17.4860  -26.7150   22.6400 C   0  0  0  0  0  3  0  0  0  0  0  0
  -18.1450  -25.6300   22.0360 C   0  0  0  0  0  3  0  0  0  0  0  0
  -26.2000  -31.6890   23.9460 C   0  0  0  0  0  3  0  0  0  0  0  0
  -25.6820  -33.0000   24.3630 N   0  0  0  0  0  0  0  0  0  0  0  0
  -25.8760  -34.1420   23.6910 C   0  0  0  0  0  0  0  0  0  0  0  0
  -26.5780  -34.2120   22.6780 O   0  0  0  0  0  0  0  0  0  0  0  0
  -25.0490  -33.0080   25.1510 H   0  0  0  0  0  0  0  0  0  0  0  0
  -23.9220  -35.6960   23.3910 C   0  0  0  0  0  1  0  0  0  0  0  0
  -25.1790  -35.4080   24.2260 C   0  0  0  0  0  3  0  0  0  0  0  0
  -27.1310  -36.5200   25.2170 C   0  0  0  0  0  1  0  0  0  0  0  0
  -26.0530  -36.6010   24.2330 N   0  0  0  0  0  0  0  0  0  0  0  0
  -25.5140  -37.4430   24.4200 H   0  0  0  0  0  0  0  0  0  0  0  0
  -26.8260  -30.9210   25.1730 C   0  0  1  0  0  0  0  0  0  0  0  0
  -25.7820  -30.4620   26.2180 C   0  0  0  0  0  1  0  0  0  0  0  0
  -27.5990  -29.6690   24.6980 C   0  0  0  0  0  1  0  0  0  0  0  0
  -27.8500  -31.8290   25.8920 C   0  0  0  0  0  1  0  0  0  0  0  0
  -30.8840  -19.7160   19.7230 C   0  0  0  0  0  2  0  0  0  0  0  0
  -30.4780  -18.2170   19.8290 C   0  0  0  0  0  2  0  0  0  0  0  0
  -31.6930  -17.2520   19.9320 C   0  0  0  0  0  2  0  0  0  0  0  0
  -31.9670  -14.7500   19.8020 C   0  0  0  0  0  0  0  0  0  0  0  0
  -31.5720  -12.4510   19.0020 C   0  0  0  0  0  2  0  0  0  0  0  0
  -30.6090  -12.5310   17.7990 C   0  0  0  0  0  2  0  0  0  0  0  0
  -29.1410  -12.5030   18.2720 C   0  0  0  0  0  2  0  0  0  0  0  0
  -28.8650  -13.5320   19.4010 C   0  0  0  0  0  3  0  0  0  0  0  0
  -29.9390  -13.4290   20.5080 C   0  0  0  0  0  2  0  0  0  0  0  0
  -31.2610  -13.5900   19.8780 N   0  0  0  0  0  0  0  0  0  0  0  0
  -33.0900  -14.8190   19.2940 O   0  0  0  0  0  0  0  0  0  0  0  0
  -31.2900  -15.8550   20.1690 N   0  0  0  0  0  0  0  0  0  0  0  0
  -30.3840  -15.7070   20.5900 H   0  0  0  0  0  0  0  0  0  0  0  0
  -26.5790  -14.3750   20.2310 C   0  0  0  0  0  0  0  0  0  0  0  0
  -25.4550  -13.7070   20.6430 C   0  0  0  0  0  0  0  0  0  0  0  0
  -25.7740  -12.3180   20.5710 C   0  0  0  0  0  0  0  0  0  0  0  0
  -27.5150  -13.3940   19.9390 N   0  0  0  0  0  0  0  0  0  0  0  0
  -27.0360  -12.1520   20.2010 N   0  0  0  0  0  0  0  0  0  0  0  0
  -24.9310  -11.1300   20.7770 C   0  0  0  0  0  0  0  0  0  0  0  0
  -25.2600  -10.1520   21.7410 C   0  0  0  0  0  3  0  0  0  0  0  0
  -24.4260   -9.0300   21.9370 C   0  0  0  0  0  3  0  0  0  0  0  0
  -23.2460   -8.8820   21.1690 C   0  0  0  0  0  0  0  0  0  0  0  0
  -22.9370   -9.8460   20.1930 C   0  0  0  0  0  3  0  0  0  0  0  0
  -23.7710  -10.9600   19.9960 C   0  0  0  0  0  3  0  0  0  0  0  0
  -22.3900   -7.8120   21.2720 O   0  0  0  0  0  0  0  0  0  0  0  0
  -22.1160   -7.2210   22.4790 C   0  0  0  0  0  0  0  0  0  0  0  0
  -21.5510   -7.9450   23.5530 C   0  0  0  0  0  3  0  0  0  0  0  0
  -21.2270   -7.2840   24.7550 C   0  0  0  0  0  3  0  0  0  0  0  0
  -21.4490   -5.8990   24.8770 C   0  0  0  0  0  0  0  0  0  0  0  0
  -22.0050   -5.1770   23.8080 C   0  0  0  0  0  3  0  0  0  0  0  0
  -22.3340   -5.8350   22.6110 C   0  0  0  0  0  0  0  0  0  0  0  0
  -22.8510   -5.1300   21.5750 F   0  0  0  0  0  0  0  0  0  0  0  0
  -21.1270   -5.2610   26.0260 F   0  0  0  0  0  0  0  0  0  0  0  0
  -24.1280  -14.3190   20.9890 C   0  0  0  0  0  0  0  0  0  0  0  0
  -23.3870  -13.7000   21.9060 N   0  0  0  0  0  0  0  0  0  0  0  0
  -23.7560  -15.3740   20.4790 O   0  0  0  0  0  0  0  0  0  0  0  0
  -23.7000  -12.8430   22.3350 H   0  0  0  0  0  0  0  0  0  0  0  0
  -22.4960  -14.0910   22.1770 H   0  0  0  0  0  0  0  0  0  0  0  0
  -26.8780  -15.7240   20.0620 N   0  0  0  0  0  0  0  0  0  0  0  0
  -26.1790  -16.4520   20.1720 H   0  0  0  0  0  0  0  0  0  0  0  0
  -27.7530  -16.0740   19.6930 H   0  0  0  0  0  0  0  0  0  0  0  0
  1  2  1  0
  1  6  1  0
  2  8  1  0
  3  7  1  0
  4  7  1  0
  5  3  1  0
  6 13  1  0
  6  5  1  0
  7  9  1  0
  8 56  1  6
  8  5  1  0
  8  4  1  0
  9 11  1  0
  9 12  1  0
 10  9  1  0
 13 14  1  0
 15 17  1  0
 15 14  1  0
 16 27  2  0
 17 22  1  0
 18 26  1  0
 18 28  1  0
 19 25  1  0
 19 21  1  0
 20 26  1  0
 21 20  1  0
 22 21  2  0
 23 24  1  0
 23 17  2  0
 24 19  2  0
 25 18  1  0
 26 16  1  0
 28 30  2  0
 29 28  1  0
 31 29  1  0
 32 41  2  0
 32 37  1  0
 33 29  1  0
 34 33  1  0
 35 36  1  0
 35 34  1  0
 36 32  1  0
 37 33  1  0
 37 38  2  0
 38 39  1  0
 40 39  2  0
 41 40  1  0
 42 16  1  0
 42 43  1  0
 42 52  1  0
 43 46  1  0
 44 48  1  0
 44 43  1  0
 45 44  2  0
 48 47  1  0
 48 50  1  0
 50 51  1  0
 50 49  1  0
 52 55  1  1
 52 53  1  0
 54 52  1  0
 56 57  1  0
 57 58  1  0
 58 67  1  0
 59 65  1  0
 59 67  1  0
 60 65  1  0
 61 62  1  0
 61 60  1  0
 63 62  1  0
 63 72  1  0
 63 64  1  0
 65 64  1  0
 66 59  2  0
 67 68  1  0
 69 70  2  0
 70 89  1  0
 71 70  1  0
 71 74  1  0
 72 73  1  0
 72 69  1  0
 73 71  2  0
 74 75  1  0
 75 76  2  0
 77 80  1  0
 77 76  1  0
 78 77  2  0
 79 78  1  0
 79 74  2  0
 80 81  1  0
 81 86  2  0
 81 82  1  0
 82 83  2  0
 83 84  1  0
 84 88  1  0
 85 84  2  0
 86 85  1  0
 87 86  1  0
 89 90  1  0
 90 93  1  0
 90 92  1  0
 91 89  2  0
 94 95  1  0
 94 69  1  0
 96 94  1  0
M  ISO  4  14 101  15 101  59 100  67 100
M  END
>  <TORSDO>  (42) 
F 22

>  <SCORE>  (42) 
-8.886

>  <name>  (42) 
41

>  <ligand_id>  (42) 
41

>  <original_smiles>  (42) 
[H]c1c([H])c([H])c2c(c1[H])C([H])([H])C([H])([H])C([H])([H])C2([H])N([H])C(=O)C1([H])N(C(=O)C([H])(N([H])C(=O)C([H])(N([H])C([H])([H])[H])C([H])([H])[H])C(C([H])([H])[H])(C([H])([H])[H])C([H])([H])[H])C([H])([H])c2c([H])c(OC([H])([H])C([H])([H])C3([H])C([H])([H])C([H])([H])C4(C([H])([H])C([H])([H])C([H])([H])N([H])C(=O)N5C([H])([H])C([H])([H])C([H])([H])C([H])(n6nc(-c7c([H])c([H])c(Oc8c([H])c([H])c(F)c([H])c8F)c([H])c7[H])c(C(=O)N([H])[H])c6N([H])[H])C5([H])[H])C([H])([H])C([H])([N+]([H])([H])[H])C([H])([H])C34[H])c([H])c([H])c2C1([H])[H]

>  <smiles>  (42) 
[H]c1c([H])c([H])c2c(c1[H])C([H])([H])C([H])([H])C([H])([H])C2([H])N([H])C(=O)C1([H])N(C(=O)C([H])(N([H])C(=O)C([H])(N([H])C([H])([H])[H])C([H])([H])[H])C(C([H])([H])[H])(C([H])([H])[H])C([H])([H])[H])C([H])([H])c2c([H])c(OC([H])([H])C([H])([H])C3([H])C([H])([H])C([H])([H])C4(C([H])([H])C([H])([H])C([H])([H])N([H])C(=O)N5C([H])([H])C([H])([H])C([H])([H])C([H])(n6nc(-c7c([H])c([H])c(Oc8c([H])c([H])c(F)c([H])c8F)c([H])c7[H])c(C(=O)N([H])[H])c6N([H])[H])C5([H])[H])C([H])([H])C([H])([N+]([H])([H])[H])C([H])([H])C34[H])c([H])c([H])c2C1([H])[H]

$$$$
42:0:0
     RDKit          3D

 92100  0  0  1  0  0  0  0  0999 V2000
  -30.1130  -19.0720   20.9530 C   0  0  0  0  0  2  0  0  0  0  0  0
  -30.2030  -17.6850   20.2710 C   0  0  0  0  0  2  0  0  0  0  0  0
  -30.2280  -16.5630   21.3360 C   0  0  0  0  0  2  0  0  0  0  0  0
  -32.6530  -14.0840   22.2250 C   0  0  0  0  0  2  0  0  0  0  0  0
  -33.2380  -15.1510   21.3150 C   0  0  0  0  0  2  0  0  0  0  0  0
  -31.1590  -14.4140   22.2680 C   0  0  0  0  0  2  0  0  0  0  0  0
  -32.1730  -15.2920   20.2330 C   0  0  0  0  0  2  0  0  0  0  0  0
  -30.7960  -15.1650   20.9520 C   0  0  2  0  0  0  0  0  0  0  0  0
  -29.6260  -13.9790   18.9760 C   0  0  0  0  0  0  0  0  0  0  0  0
  -28.7950  -12.1520   17.5330 C   0  0  0  0  0  2  0  0  0  0  0  0
  -27.4960  -12.5070   16.7900 C   0  0  0  0  0  2  0  0  0  0  0  0
  -26.2700  -12.1970   17.6650 C   0  0  0  0  0  2  0  0  0  0  0  0
  -26.3930  -12.7980   19.0880 C   0  0  0  0  0  3  0  0  0  0  0  0
  -27.7600  -12.4500   19.7190 C   0  0  0  0  0  2  0  0  0  0  0  0
  -28.8310  -12.8900   18.8040 N   0  0  0  0  0  0  0  0  0  0  0  0
  -30.2550  -14.4990   18.0500 O   0  0  0  0  0  0  0  0  0  0  0  0
  -29.7890  -14.3360   20.2630 N   0  0  0  0  0  0  0  0  0  0  0  0
  -29.1860  -13.8180   20.8850 H   0  0  0  0  0  0  0  0  0  0  0  0
  -24.3270  -13.1460   20.5850 C   0  0  0  0  0  0  0  0  0  0  0  0
  -23.4750  -12.2610   21.1900 C   0  0  0  0  0  0  0  0  0  0  0  0
  -23.9650  -10.9580   20.8660 C   0  0  0  0  0  0  0  0  0  0  0  0
  -25.2820  -12.3750   19.9400 N   0  0  0  0  0  0  0  0  0  0  0  0
  -25.0830  -11.0500   20.1600 N   0  0  0  0  0  0  0  0  0  0  0  0
  -23.4010   -9.6300   21.1400 C   0  0  0  0  0  0  0  0  0  0  0  0
  -24.0360   -8.7260   22.0200 C   0  0  0  0  0  3  0  0  0  0  0  0
  -23.4650   -7.4610   22.2810 C   0  0  0  0  0  3  0  0  0  0  0  0
  -22.2480   -7.0900   21.6630 C   0  0  0  0  0  0  0  0  0  0  0  0
  -21.6320   -7.9850   20.7710 C   0  0  0  0  0  3  0  0  0  0  0  0
  -22.2040   -9.2410   20.5070 C   0  0  0  0  0  3  0  0  0  0  0  0
  -21.6350   -5.8740   21.8380 O   0  0  0  0  0  0  0  0  0  0  0  0
  -21.6520   -5.2240   23.0450 C   0  0  0  0  0  0  0  0  0  0  0  0
  -21.1210   -5.8120   24.2150 C   0  0  0  0  0  3  0  0  0  0  0  0
  -21.0970   -5.0820   25.4200 C   0  0  0  0  0  3  0  0  0  0  0  0
  -21.5940   -3.7650   25.4590 C   0  0  0  0  0  0  0  0  0  0  0  0
  -22.1180   -3.1770   24.2940 C   0  0  0  0  0  3  0  0  0  0  0  0
  -22.1450   -3.9040   23.0900 C   0  0  0  0  0  0  0  0  0  0  0  0
  -22.6320   -3.3260   21.9670 F   0  0  0  0  0  0  0  0  0  0  0  0
  -21.5630   -3.0620   26.6140 F   0  0  0  0  0  0  0  0  0  0  0  0
  -22.2220  -12.5970   21.9470 C   0  0  0  0  0  0  0  0  0  0  0  0
  -21.8890  -11.8100   22.9630 N   0  0  0  0  0  0  0  0  0  0  0  0
  -21.5550  -13.5940   21.6680 O   0  0  0  0  0  0  0  0  0  0  0  0
  -22.4460  -11.0030   23.2030 H   0  0  0  0  0  0  0  0  0  0  0  0
  -21.0650  -12.0170   23.5090 H   0  0  0  0  0  0  0  0  0  0  0  0
  -24.3610  -14.5360   20.5140 N   0  0  0  0  0  0  0  0  0  0  0  0
  -23.6490  -15.1230   20.9360 H   0  0  0  0  0  0  0  0  0  0  0  0
  -25.0520  -15.0630   19.9940 H   0  0  0  0  0  0  0  0  0  0  0  0
  -29.9360  -20.2830   20.0140 C   0  0  0  0  0  2  0  0  0  0  0  0
  -29.8010  -21.6090   20.8010 C   0  0  0  0  0  2  0  0  0  0  0  0
  -29.5070  -22.8400   19.9200 C   0  0  0  0  0  2  0  0  0  0  0  0
  -29.3700  -24.1670   20.7080 C   0  0  0  0  0  2  0  0  0  0  0  0
  -28.6080  -25.2410   19.9090 C   0  0  0  0  0  2  0  0  0  0  0  0
  -28.6140  -26.5280   20.5490 O   0  0  0  0  0  0  0  0  0  0  0  0
  -24.8470  -31.7640   23.5680 C   0  0  0  0  0  0  0  0  0  0  0  0
  -27.4530  -27.2800   20.4990 C   0  0  0  0  0  0  0  0  0  0  0  0
  -23.6390  -30.3900   21.9060 C   0  0  0  0  0  3  0  0  0  0  0  0
  -25.0840  -28.8390   20.4900 C   0  0  0  0  0  0  0  0  0  0  0  0
  -26.1750  -30.7020   21.7460 C   0  0  0  0  0  2  0  0  0  0  0  0
  -26.2440  -29.3320   21.0990 C   0  0  0  0  0  0  0  0  0  0  0  0
  -27.4280  -28.5590   21.1040 C   0  0  0  0  0  3  0  0  0  0  0  0
  -26.2720  -26.8160   19.8670 C   0  0  0  0  0  3  0  0  0  0  0  0
  -25.0930  -27.5790   19.8720 C   0  0  0  0  0  3  0  0  0  0  0  0
  -23.8540  -29.7170   20.5260 C   0  0  0  0  0  2  0  0  0  0  0  0
  -24.9040  -30.9660   22.4650 N   0  0  0  0  0  0  0  0  0  0  0  0
  -23.7630  -32.0550   24.0940 O   0  0  0  0  0  0  0  0  0  0  0  0
  -22.9590  -29.3740   22.8520 C   0  0  0  0  0  0  0  0  0  0  0  0
  -21.6700  -29.0920   22.6010 N   0  0  0  0  0  0  0  0  0  0  0  0
  -23.5910  -28.8400   23.7680 O   0  0  0  0  0  0  0  0  0  0  0  0
  -21.2200  -29.5770   21.8370 H   0  0  0  0  0  0  0  0  0  0  0  0
  -18.3510  -27.6800   22.8090 C   0  0  0  0  0  0  0  0  0  0  0  0
  -20.8390  -28.1410   23.3390 C   0  0  0  0  0  3  0  0  0  0  0  0
  -21.1020  -26.6930   22.8690 C   0  0  0  0  0  2  0  0  0  0  0  0
  -20.1450  -26.2330   21.7650 C   0  0  0  0  0  2  0  0  0  0  0  0
  -18.6930  -26.3110   22.2450 C   0  0  0  0  0  2  0  0  0  0  0  0
  -19.3600  -28.5450   23.3070 C   0  0  0  0  0  0  0  0  0  0  0  0
  -18.9920  -29.8210   23.7880 C   0  0  0  0  0  3  0  0  0  0  0  0
  -17.6460  -30.2340   23.7770 C   0  0  0  0  0  3  0  0  0  0  0  0
  -16.6500  -29.3680   23.2970 C   0  0  0  0  0  3  0  0  0  0  0  0
  -17.0020  -28.0930   22.8180 C   0  0  0  0  0  3  0  0  0  0  0  0
  -26.1350  -32.3710   24.2060 C   0  0  0  0  0  3  0  0  0  0  0  0
  -25.8590  -33.7830   24.5020 N   0  0  0  0  0  0  0  0  0  0  0  0
  -26.2030  -34.8070   23.7100 C   0  0  0  0  0  0  0  0  0  0  0  0
  -26.8580  -34.6620   22.6740 O   0  0  0  0  0  0  0  0  0  0  0  0
  -25.2760  -33.9710   25.3040 H   0  0  0  0  0  0  0  0  0  0  0  0
  -24.4920  -36.6120   23.3420 C   0  0  0  0  0  1  0  0  0  0  0  0
  -25.7480  -36.2160   24.1330 C   0  0  0  0  0  3  0  0  0  0  0  0
  -27.9180  -37.0920   24.8770 C   0  0  0  0  0  1  0  0  0  0  0  0
  -26.7920  -37.2490   23.9600 N   0  0  0  0  0  0  0  0  0  0  0  0
  -26.4040  -38.1790   24.0910 H   0  0  0  0  0  0  0  0  0  0  0  0
  -26.6030  -31.6100   25.5060 C   0  0  1  0  0  0  0  0  0  0  0  0
  -25.4590  -31.3290   26.5080 C   0  0  0  0  0  1  0  0  0  0  0  0
  -27.2530  -30.2550   25.1410 C   0  0  0  0  0  1  0  0  0  0  0  0
  -27.6870  -32.4370   26.2380 C   0  0  0  0  0  1  0  0  0  0  0  0
  2  1  1  0
  2  3  1  0
  4  6  1  0
  5  4  1  0
  7  8  1  0
  7  5  1  0
  8  3  1  1
  8  6  1  0
  9 17  1  0
 10 15  1  0
 11 10  1  0
 11 12  1  0
 13 12  1  0
 13 14  1  0
 13 22  1  0
 15  9  1  0
 15 14  1  0
 16  9  2  0
 17 18  1  0
 17  8  1  0
 19 20  2  0
 20 39  1  0
 21 24  1  0
 21 20  1  0
 22 23  1  0
 22 19  1  0
 23 21  2  0
 24 25  1  0
 25 26  2  0
 27 30  1  0
 27 26  1  0
 28 27  2  0
 29 28  1  0
 29 24  2  0
 30 31  1  0
 31 36  2  0
 31 32  1  0
 32 33  2  0
 33 34  1  0
 34 38  1  0
 35 34  2  0
 36 35  1  0
 37 36  1  0
 39 40  1  0
 40 42  1  0
 40 43  1  0
 41 39  2  0
 44 19  1  0
 44 45  1  0
 46 44  1  0
 47 48  1  0
 47  1  1  0
 49 50  1  0
 49 48  1  0
 51 52  1  0
 51 50  1  0
 53 64  2  0
 54 52  1  0
 54 59  1  0
 55 63  1  0
 55 65  1  0
 56 62  1  0
 56 58  1  0
 57 63  1  0
 58 59  2  0
 58 57  1  0
 60 61  1  0
 60 54  2  0
 61 56  2  0
 62 55  1  0
 63 53  1  0
 65 67  2  0
 66 65  1  0
 68 66  1  0
 69 78  2  0
 69 74  1  0
 70 66  1  0
 71 70  1  0
 72 73  1  0
 72 71  1  0
 73 69  1  0
 74 70  1  0
 74 75  2  0
 76 75  1  0
 77 76  2  0
 78 77  1  0
 79 53  1  0
 79 80  1  0
 79 89  1  0
 80 83  1  0
 81 85  1  0
 81 80  1  0
 82 81  2  0
 85 84  1  0
 87 88  1  0
 87 85  1  0
 87 86  1  0
 89 92  1  1
 89 90  1  0
 91 89  1  0
M  ISO  4   9 100  17 100  51 101  52 101
M  END
>  <TORSDO>  (43) 
F 24

>  <SCORE>  (43) 
-2.540

>  <name>  (43) 
42

>  <ligand_id>  (43) 
42

>  <original_smiles>  (43) 
[H]c1c([H])c([H])c2c(c1[H])C([H])([H])C([H])([H])C([H])([H])C2([H])N([H])C(=O)C1([H])N(C(=O)C([H])(N([H])C(=O)C([H])(N([H])C([H])([H])[H])C([H])([H])[H])C(C([H])([H])[H])(C([H])([H])[H])C([H])([H])[H])C([H])([H])c2c([H])c(OC([H])([H])C([H])([H])C([H])([H])C([H])([H])C([H])([H])C([H])([H])C([H])([H])C([H])([H])C3(N([H])C(=O)N4C([H])([H])C([H])([H])C([H])([H])C([H])(n5nc(-c6c([H])c([H])c(Oc7c([H])c([H])c(F)c([H])c7F)c([H])c6[H])c(C(=O)N([H])[H])c5N([H])[H])C4([H])[H])C([H])([H])C([H])([H])C([H])([H])C3([H])[H])c([H])c([H])c2C1([H])[H]

>  <smiles>  (43) 
[H]c1c([H])c([H])c2c(c1[H])C([H])([H])C([H])([H])C([H])([H])C2([H])N([H])C(=O)C1([H])N(C(=O)C([H])(N([H])C(=O)C([H])(N([H])C([H])([H])[H])C([H])([H])[H])C(C([H])([H])[H])(C([H])([H])[H])C([H])([H])[H])C([H])([H])c2c([H])c(OC([H])([H])C([H])([H])C([H])([H])C([H])([H])C([H])([H])C([H])([H])C([H])([H])C([H])([H])C3(N([H])C(=O)N4C([H])([H])C([H])([H])C([H])([H])C([H])(n5nc(-c6c([H])c([H])c(Oc7c([H])c([H])c(F)c([H])c7F)c([H])c6[H])c(C(=O)N([H])[H])c5N([H])[H])C4([H])[H])C([H])([H])C([H])([H])C([H])([H])C3([H])[H])c([H])c([H])c2C1([H])[H]

$$$$
43:0:0
     RDKit          3D

101110  0  0  1  0  0  0  0  0999 V2000
  -31.8090  -20.1760   18.2990 C   0  0  0  0  0  3  0  0  0  0  0  0
  -31.7310  -21.4870   18.0010 C   0  0  0  0  0  0  0  0  0  0  0  0
  -32.0320  -23.1120   21.4060 C   0  0  0  0  0  2  0  0  0  0  0  0
  -30.6240  -23.5440   20.9840 C   0  0  0  0  0  2  0  0  0  0  0  0
  -31.8330  -20.6640   20.7850 C   0  0  0  0  0  2  0  0  0  0  0  0
  -32.0220  -19.5920   19.6970 C   0  0  0  0  0  3  0  0  0  0  0  0
  -31.8430  -22.5670   19.0790 C   0  0  0  0  0  3  0  0  0  0  0  0
  -32.4250  -22.0340   20.3990 C   0  0  0  0  0  3  0  0  0  0  0  0
  -30.4960  -23.2020   19.4820 C   0  0  0  0  0  3  0  0  0  0  0  0
  -31.6620  -21.9500   16.5470 C   0  0  0  0  0  2  0  0  0  0  0  0
  -30.2810  -22.0090   16.0420 N   0  0  0  0  0  4  0  0  0  0  0  0
  -29.8460  -21.1050   16.0960 H   0  0  0  0  0  0  0  0  0  0  0  0
  -30.2930  -22.2910   15.0770 H   0  0  0  0  0  0  0  0  0  0  0  0
  -29.7320  -22.6680   16.5600 H   0  0  0  0  0  0  0  0  0  0  0  0
  -31.1600  -18.3390   20.0280 C   0  0  0  0  0  2  0  0  0  0  0  0
  -31.0260  -17.2600   18.9310 C   0  0  0  0  0  3  0  0  0  0  0  0
  -32.2660  -15.7980   17.1840 C   0  0  0  0  0  1  0  0  0  0  0  0
  -32.3870  -16.7620   18.3720 C   0  0  0  0  0  2  0  0  0  0  0  0
  -29.9860  -16.1580   19.3010 C   0  0  0  0  0  2  0  0  0  0  0  0
  -30.9580  -14.2280   20.4840 C   0  0  0  0  0  0  0  0  0  0  0  0
  -30.6430  -11.9970   19.5570 C   0  0  0  0  0  2  0  0  0  0  0  0
  -29.7640  -12.1590   18.3000 C   0  0  0  0  0  2  0  0  0  0  0  0
  -28.2710  -12.0850   18.6710 C   0  0  0  0  0  2  0  0  0  0  0  0
  -27.9020  -13.0150   19.8590 C   0  0  0  0  0  3  0  0  0  0  0  0
  -28.9080  -12.8650   21.0260 C   0  0  0  0  0  2  0  0  0  0  0  0
  -30.2660  -13.0630   20.4940 N   0  0  0  0  0  0  0  0  0  0  0  0
  -32.1460  -14.3010   20.1890 O   0  0  0  0  0  0  0  0  0  0  0  0
  -30.1810  -15.3160   20.4940 N   0  0  0  0  0  0  0  0  0  0  0  0
  -29.3190  -15.1550   20.9950 H   0  0  0  0  0  0  0  0  0  0  0  0
  -25.5090  -13.7240   20.4840 C   0  0  0  0  0  0  0  0  0  0  0  0
  -24.4050  -12.9980   20.8330 C   0  0  0  0  0  0  0  0  0  0  0  0
  -24.8160  -11.6310   20.8370 C   0  0  0  0  0  0  0  0  0  0  0  0
  -26.5280  -12.8020   20.2990 N   0  0  0  0  0  0  0  0  0  0  0  0
  -26.1120  -11.5390   20.5700 N   0  0  0  0  0  0  0  0  0  0  0  0
  -24.0400  -10.3980   21.0230 C   0  0  0  0  0  0  0  0  0  0  0  0
  -24.4180   -9.4300   21.9800 C   0  0  0  0  0  3  0  0  0  0  0  0
  -23.6500   -8.2590   22.1550 C   0  0  0  0  0  3  0  0  0  0  0  0
  -22.4910   -8.0470   21.3700 C   0  0  0  0  0  0  0  0  0  0  0  0
  -22.1350   -9.0010   20.4020 C   0  0  0  0  0  3  0  0  0  0  0  0
  -22.9030  -10.1640   20.2250 C   0  0  0  0  0  3  0  0  0  0  0  0
  -21.6990   -6.9280   21.4520 O   0  0  0  0  0  0  0  0  0  0  0  0
  -21.6000   -6.2010   22.6120 C   0  0  0  0  0  0  0  0  0  0  0  0
  -21.1530   -6.7790   23.8200 C   0  0  0  0  0  3  0  0  0  0  0  0
  -20.9990   -5.9770   24.9680 C   0  0  0  0  0  3  0  0  0  0  0  0
  -21.2830   -4.5990   24.9090 C   0  0  0  0  0  0  0  0  0  0  0  0
  -21.7220   -4.0220   23.7050 C   0  0  0  0  0  3  0  0  0  0  0  0
  -21.8770   -4.8200   22.5580 C   0  0  0  0  0  0  0  0  0  0  0  0
  -22.2800   -4.2540   21.3950 F   0  0  0  0  0  0  0  0  0  0  0  0
  -21.1280   -3.8270   26.0100 F   0  0  0  0  0  0  0  0  0  0  0  0
  -23.0180  -13.5260   21.0610 C   0  0  0  0  0  0  0  0  0  0  0  0
  -22.2460  -12.8660   21.9170 N   0  0  0  0  0  0  0  0  0  0  0  0
  -22.6280  -14.5560   20.5120 O   0  0  0  0  0  0  0  0  0  0  0  0
  -22.5760  -12.0270   22.3740 H   0  0  0  0  0  0  0  0  0  0  0  0
  -21.3130  -13.2000   22.1180 H   0  0  0  0  0  0  0  0  0  0  0  0
  -25.7320  -15.0870   20.2920 N   0  0  0  0  0  0  0  0  0  0  0  0
  -24.9870  -15.7700   20.3630 H   0  0  0  0  0  0  0  0  0  0  0  0
  -26.6120  -15.4870   19.9920 H   0  0  0  0  0  0  0  0  0  0  0  0
  -30.0780  -24.4180   18.6340 C   0  0  0  0  0  2  0  0  0  0  0  0
  -28.5510  -24.5240   18.4980 C   0  0  0  0  0  2  0  0  0  0  0  0
  -28.0730  -25.9610   18.2930 C   0  0  0  0  0  2  0  0  0  0  0  0
  -27.8390  -26.5400   19.5780 O   0  0  0  0  0  0  0  0  0  0  0  0
  -24.3880  -31.6740   23.0720 C   0  0  0  0  0  0  0  0  0  0  0  0
  -26.6760  -27.2540   19.7150 C   0  0  0  0  0  0  0  0  0  0  0  0
  -23.0420  -30.4010   21.4320 C   0  0  0  0  0  3  0  0  0  0  0  0
  -24.3510  -28.8380   19.9070 C   0  0  0  0  0  0  0  0  0  0  0  0
  -25.5710  -30.6360   21.1460 C   0  0  0  0  0  2  0  0  0  0  0  0
  -25.5550  -29.2860   20.4660 C   0  0  0  0  0  0  0  0  0  0  0  0
  -26.7170  -28.4930   20.3830 C   0  0  0  0  0  3  0  0  0  0  0  0
  -25.4470  -26.7910   19.1920 C   0  0  0  0  0  3  0  0  0  0  0  0
  -24.2870  -27.5830   19.2780 C   0  0  0  0  0  3  0  0  0  0  0  0
  -23.1600  -29.7600   20.0230 C   0  0  0  0  0  2  0  0  0  0  0  0
  -24.3550  -30.9140   21.9420 N   0  0  0  0  0  0  0  0  0  0  0  0
  -23.3450  -31.9860   23.6650 O   0  0  0  0  0  0  0  0  0  0  0  0
  -22.3740  -29.3820   22.3800 C   0  0  0  0  0  0  0  0  0  0  0  0
  -21.0370  -29.2830   22.3020 N   0  0  0  0  0  0  0  0  0  0  0  0
  -23.0510  -28.6860   23.1410 O   0  0  0  0  0  0  0  0  0  0  0  0
  -20.5530  -29.8990   21.6640 H   0  0  0  0  0  0  0  0  0  0  0  0
  -17.6220  -28.2670   22.8900 C   0  0  0  0  0  0  0  0  0  0  0  0
  -20.1970  -28.3670   23.0720 C   0  0  0  0  0  3  0  0  0  0  0  0
  -20.1940  -26.9540   22.4440 C   0  0  0  0  0  2  0  0  0  0  0  0
  -19.0390  -26.7310   21.4620 C   0  0  0  0  0  2  0  0  0  0  0  0
  -17.6920  -26.9350   22.1610 C   0  0  0  0  0  2  0  0  0  0  0  0
  -18.7990  -28.9470   23.3010 C   0  0  0  0  0  0  0  0  0  0  0  0
  -18.6780  -30.2000   23.9400 C   0  0  0  0  0  3  0  0  0  0  0  0
  -17.4120  -30.7720   24.1700 C   0  0  0  0  0  3  0  0  0  0  0  0
  -16.2500  -30.0880   23.7730 C   0  0  0  0  0  3  0  0  0  0  0  0
  -16.3560  -28.8370   23.1400 C   0  0  0  0  0  3  0  0  0  0  0  0
  -25.7320  -32.2090   23.6610 C   0  0  0  0  0  3  0  0  0  0  0  0
  -26.2600  -31.3560   24.8790 C   0  0  1  0  0  0  0  0  0  0  0  0
  -25.2000  -31.1270   25.9810 C   0  0  0  0  0  1  0  0  0  0  0  0
  -26.7550  -29.9720   24.4030 C   0  0  0  0  0  1  0  0  0  0  0  0
  -27.4770  -32.0620   25.5250 C   0  0  0  0  0  1  0  0  0  0  0  0
  -25.5150  -33.6060   24.0560 N   0  0  0  0  0  0  0  0  0  0  0  0
  -25.8970  -34.6690   23.3350 C   0  0  0  0  0  0  0  0  0  0  0  0
  -26.5430  -34.5700   22.2870 O   0  0  0  0  0  0  0  0  0  0  0  0
  -24.9410  -33.7620   24.8720 H   0  0  0  0  0  0  0  0  0  0  0  0
  -24.2910  -36.5840   23.0710 C   0  0  0  0  0  1  0  0  0  0  0  0
  -25.5010  -36.0610   23.8600 C   0  0  0  0  0  3  0  0  0  0  0  0
  -27.6860  -36.7630   24.7330 C   0  0  0  0  0  1  0  0  0  0  0  0
  -26.6010  -37.0480   23.7970 N   0  0  0  0  0  0  0  0  0  0  0  0
  -26.2550  -37.9840   23.9880 H   0  0  0  0  0  0  0  0  0  0  0  0
  1  6  1  0
  2  1  2  0
  4  3  1  0
  6 15  1  0
  6  5  1  0
  7  2  1  0
  7  9  1  0
  7  8  1  0
  8  5  1  0
  8  3  1  0
  9 58  1  0
  9  4  1  0
 10  2  1  0
 11 12  1  0
 11 10  1  0
 11 14  1  0
 13 11  1  0
 16 18  1  0
 16 19  1  0
 16 15  1  0
 17 18  1  0
 19 28  1  0
 20 28  1  0
 20 26  1  0
 21 26  1  0
 22 23  1  0
 22 21  1  0
 24 23  1  0
 24 33  1  0
 24 25  1  0
 26 25  1  0
 27 20  2  0
 28 29  1  0
 30 31  2  0
 31 32  1  0
 31 50  1  0
 32 35  1  0
 33 30  1  0
 33 34  1  0
 34 32  2  0
 35 36  1  0
 36 37  2  0
 38 41  1  0
 38 37  1  0
 39 38  2  0
 40 39  1  0
 40 35  2  0
 41 42  1  0
 42 43  1  0
 43 44  2  0
 45 44  1  0
 45 49  1  0
 46 45  2  0
 47 42  2  0
 47 46  1  0
 48 47  1  0
 50 51  1  0
 51 54  1  0
 51 53  1  0
 52 50  2  0
 55 56  1  0
 55 30  1  0
 57 55  1  0
 59 58  1  0
 60 59  1  0
 60 61  1  0
 61 63  1  0
 62 73  2  0
 63 68  1  0
 64 72  1  0
 64 74  1  0
 65 71  1  0
 65 67  1  0
 66 72  1  0
 67 66  1  0
 68 67  2  0
 69 70  1  0
 69 63  2  0
 70 65  2  0
 71 64  1  0
 72 62  1  0
 74 76  2  0
 75 74  1  0
 77 75  1  0
 78 87  2  0
 78 83  1  0
 79 75  1  0
 79 83  1  0
 80 79  1  0
 81 82  1  0
 81 80  1  0
 82 78  1  0
 83 84  2  0
 84 85  1  0
 86 85  2  0
 87 86  1  0
 88 62  1  0
 88 93  1  0
 88 89  1  0
 89 92  1  1
 89 90  1  0
 91 89  1  0
 93 96  1  0
 94 98  1  0
 94 93  1  0
 95 94  2  0
 98 97  1  0
100 98  1  0
100101  1  0
100 99  1  0
M  ISO  4  20 100  28 100  60 101  61 101
M  END
>  <TORSDO>  (44) 
F 25

>  <SCORE>  (44) 
-11.160

>  <name>  (44) 
43

>  <ligand_id>  (44) 
43

>  <original_smiles>  (44) 
[H]C1=C(C([H])([H])[N+]([H])([H])[H])C2([H])C([H])(C([H])([H])C([H])([H])C([H])([H])Oc3c([H])c([H])c4c(c3[H])C([H])([H])N(C(=O)C([H])(N([H])C(=O)C([H])(N([H])C([H])([H])[H])C([H])([H])[H])C(C([H])([H])[H])(C([H])([H])[H])C([H])([H])[H])C([H])(C(=O)N([H])C3([H])c5c([H])c([H])c([H])c([H])c5C([H])([H])C([H])([H])C3([H])[H])C4([H])[H])C([H])([H])C([H])([H])C2([H])C([H])([H])C1([H])C([H])([H])C([H])(C([H])([H])N([H])C(=O)N1C([H])([H])C([H])([H])C([H])([H])C([H])(n2nc(-c3c([H])c([H])c(Oc4c([H])c([H])c(F)c([H])c4F)c([H])c3[H])c(C(=O)N([H])[H])c2N([H])[H])C1([H])[H])C([H])([H])C([H])([H])[H]

>  <smiles>  (44) 
[H]C1=C(C([H])([H])[N+]([H])([H])[H])C2([H])C([H])(C([H])([H])C([H])([H])C([H])([H])Oc3c([H])c([H])c4c(c3[H])C([H])([H])N(C(=O)C([H])(N([H])C(=O)C([H])(N([H])C([H])([H])[H])C([H])([H])[H])C(C([H])([H])[H])(C([H])([H])[H])C([H])([H])[H])C([H])(C(=O)N([H])C3([H])c5c([H])c([H])c([H])c([H])c5C([H])([H])C([H])([H])C3([H])[H])C4([H])[H])C([H])([H])C([H])([H])C2([H])C([H])([H])C1([H])C([H])([H])C([H])(C([H])([H])N([H])C(=O)N1C([H])([H])C([H])([H])C([H])([H])C([H])(n2nc(-c3c([H])c([H])c(Oc4c([H])c([H])c(F)c([H])c4F)c([H])c3[H])c(C(=O)N([H])[H])c2N([H])[H])C1([H])[H])C([H])([H])C([H])([H])[H]

$$$$
44:0:0
     RDKit          3D

 99109  0  0  1  0  0  0  0  0999 V2000
  -27.1530  -22.1000   20.5450 C   0  0  0  0  0  2  0  0  0  0  0  0
  -29.4760  -22.5460   19.6080 C   0  0  0  0  0  2  0  0  0  0  0  0
  -27.9610  -21.3620   21.6280 C   0  0  0  0  0  2  0  0  0  0  0  0
  -29.5670  -21.0000   19.7400 C   0  0  0  0  0  2  0  0  0  0  0  0
  -28.0220  -23.0680   19.7130 C   0  0  0  0  0  3  0  0  0  0  0  0
  -29.0620  -20.5200   21.0670 N   0  0  2  0  0  4  0  0  0  0  0  0
  -29.8360  -20.7190   21.6860 H   0  0  0  0  0  0  0  0  0  0  0  0
  -27.9250  -24.5230   20.2290 C   0  0  0  0  0  2  0  0  0  0  0  0
  -28.4150  -25.5510   19.1910 C   0  0  0  0  0  2  0  0  0  0  0  0
  -28.3540  -26.9020   19.6450 O   0  0  0  0  0  0  0  0  0  0  0  0
  -24.5510  -31.7920   23.0820 C   0  0  0  0  0  0  0  0  0  0  0  0
  -27.1460  -27.5680   19.6800 C   0  0  0  0  0  0  0  0  0  0  0  0
  -23.3080  -30.4460   21.4280 C   0  0  0  0  0  3  0  0  0  0  0  0
  -24.7250  -29.0190   19.8690 C   0  0  0  0  0  0  0  0  0  0  0  0
  -25.8150  -30.8660   21.1480 C   0  0  0  0  0  2  0  0  0  0  0  0
  -25.8940  -29.5330   20.4380 C   0  0  0  0  0  0  0  0  0  0  0  0
  -27.1010  -28.8110   20.3520 C   0  0  0  0  0  3  0  0  0  0  0  0
  -25.9570  -27.0770   19.0880 C   0  0  0  0  0  3  0  0  0  0  0  0
  -24.7480  -27.7890   19.1920 C   0  0  0  0  0  3  0  0  0  0  0  0
  -23.4720  -29.8480   20.0090 C   0  0  0  0  0  2  0  0  0  0  0  0
  -24.5800  -31.0460   21.9450 N   0  0  0  0  0  0  0  0  0  0  0  0
  -23.4850  -32.0290   23.6700 O   0  0  0  0  0  0  0  0  0  0  0  0
  -22.7150  -29.3610   22.3590 C   0  0  0  0  0  0  0  0  0  0  0  0
  -21.3970  -29.1380   22.2440 N   0  0  0  0  0  0  0  0  0  0  0  0
  -23.4340  -28.7440   23.1480 O   0  0  0  0  0  0  0  0  0  0  0  0
  -20.8820  -29.6860   21.5720 H   0  0  0  0  0  0  0  0  0  0  0  0
  -18.0750  -27.7960   22.6920 C   0  0  0  0  0  0  0  0  0  0  0  0
  -20.6160  -28.1510   22.9870 C   0  0  0  0  0  3  0  0  0  0  0  0
  -20.7860  -26.7450   22.3720 C   0  0  0  0  0  2  0  0  0  0  0  0
  -19.7040  -26.3960   21.3490 C   0  0  0  0  0  2  0  0  0  0  0  0
  -18.3120  -26.4710   21.9860 C   0  0  0  0  0  2  0  0  0  0  0  0
  -19.1570  -28.5950   23.1460 C   0  0  0  0  0  0  0  0  0  0  0  0
  -18.8800  -29.8380   23.7570 C   0  0  0  0  0  3  0  0  0  0  0  0
  -17.5550  -30.2750   23.9330 C   0  0  0  0  0  3  0  0  0  0  0  0
  -16.4880  -29.4690   23.5070 C   0  0  0  0  0  3  0  0  0  0  0  0
  -16.7470  -28.2310   22.8890 C   0  0  0  0  0  3  0  0  0  0  0  0
  -25.8510  -32.4080   23.6930 C   0  0  0  0  0  3  0  0  0  0  0  0
  -25.5470  -33.7980   24.0740 N   0  0  0  0  0  0  0  0  0  0  0  0
  -25.8800  -34.8700   23.3450 C   0  0  0  0  0  0  0  0  0  0  0  0
  -26.5420  -34.7930   22.3060 O   0  0  0  0  0  0  0  0  0  0  0  0
  -24.9490  -33.9350   24.8780 H   0  0  0  0  0  0  0  0  0  0  0  0
  -24.1410  -36.6580   23.0630 C   0  0  0  0  0  1  0  0  0  0  0  0
  -25.3940  -36.2380   23.8470 C   0  0  0  0  0  3  0  0  0  0  0  0
  -27.5370  -37.0950   24.6870 C   0  0  0  0  0  1  0  0  0  0  0  0
  -26.4260  -37.2940   23.7580 N   0  0  0  0  0  0  0  0  0  0  0  0
  -26.0190  -38.2080   23.9360 H   0  0  0  0  0  0  0  0  0  0  0  0
  -26.4070  -31.5960   24.9260 C   0  0  1  0  0  0  0  0  0  0  0  0
  -25.3450  -31.3180   26.0170 C   0  0  0  0  0  1  0  0  0  0  0  0
  -26.9750  -30.2340   24.4640 C   0  0  0  0  0  1  0  0  0  0  0  0
  -27.5820  -32.3680   25.5720 C   0  0  0  0  0  1  0  0  0  0  0  0
  -28.8730  -19.0450   21.2890 C   0  0  0  0  0  2  0  0  0  0  0  0
  -28.8810  -16.4920   18.8330 C   0  0  0  0  0  2  0  0  0  0  0  0
  -28.1790  -17.8370   19.0510 C   0  0  0  0  0  3  0  0  0  0  0  0
  -29.2520  -18.0950   20.1350 C   0  0  0  0  0  3  0  0  0  0  0  0
  -29.2720  -16.5380   20.3450 C   0  0  0  0  0  3  0  0  0  0  0  0
  -31.1370  -14.7250   20.8740 C   0  0  0  0  0  0  0  0  0  0  0  0
  -30.8300  -12.5580   19.7740 C   0  0  0  0  0  2  0  0  0  0  0  0
  -29.9750  -12.7350   18.5070 C   0  0  0  0  0  2  0  0  0  0  0  0
  -28.4750  -12.6260   18.8430 C   0  0  0  0  0  2  0  0  0  0  0  0
  -28.0630  -13.4600   20.0840 C   0  0  0  0  0  3  0  0  0  0  0  0
  -29.0580  -13.3300   21.2590 C   0  0  0  0  0  2  0  0  0  0  0  0
  -30.3900  -13.6020   20.7080 N   0  0  0  0  0  0  0  0  0  0  0  0
  -32.3650  -14.6840   20.8820 O   0  0  0  0  0  0  0  0  0  0  0  0
  -30.5930  -15.9630   20.6950 N   0  0  0  0  0  0  0  0  0  0  0  0
  -31.3150  -16.6640   20.7570 H   0  0  0  0  0  0  0  0  0  0  0  0
  -25.6530  -14.1730   20.6090 C   0  0  0  0  0  0  0  0  0  0  0  0
  -24.5310  -13.4430   20.8650 C   0  0  0  0  0  0  0  0  0  0  0  0
  -24.9530  -12.0780   20.8740 C   0  0  0  0  0  0  0  0  0  0  0  0
  -26.6810  -13.2510   20.4700 N   0  0  0  0  0  0  0  0  0  0  0  0
  -26.2630  -11.9880   20.7030 N   0  0  0  0  0  0  0  0  0  0  0  0
  -24.1730  -10.8430   20.9850 C   0  0  0  0  0  0  0  0  0  0  0  0
  -24.5210   -9.8420   21.9160 C   0  0  0  0  0  3  0  0  0  0  0  0
  -23.7530   -8.6640   22.0140 C   0  0  0  0  0  3  0  0  0  0  0  0
  -22.6190   -8.4880   21.1870 C   0  0  0  0  0  0  0  0  0  0  0  0
  -22.2910   -9.4800   20.2480 C   0  0  0  0  0  3  0  0  0  0  0  0
  -23.0610  -10.6490   20.1460 C   0  0  0  0  0  3  0  0  0  0  0  0
  -21.8230   -7.3740   21.2020 O   0  0  0  0  0  0  0  0  0  0  0  0
  -21.6790   -6.6100   22.3310 C   0  0  0  0  0  0  0  0  0  0  0  0
  -21.1910   -7.1520   23.5400 C   0  0  0  0  0  3  0  0  0  0  0  0
  -20.9880   -6.3150   24.6540 C   0  0  0  0  0  3  0  0  0  0  0  0
  -21.2680   -4.9390   24.5610 C   0  0  0  0  0  0  0  0  0  0  0  0
  -21.7490   -4.3960   23.3540 C   0  0  0  0  0  3  0  0  0  0  0  0
  -21.9480   -5.2300   22.2410 C   0  0  0  0  0  0  0  0  0  0  0  0
  -22.3890   -4.7000   21.0760 F   0  0  0  0  0  0  0  0  0  0  0  0
  -21.0630   -4.1320   25.6280 F   0  0  0  0  0  0  0  0  0  0  0  0
  -23.1330  -13.9750   21.0020 C   0  0  0  0  0  0  0  0  0  0  0  0
  -22.3150  -13.3180   21.8150 N   0  0  0  0  0  0  0  0  0  0  0  0
  -22.7750  -15.0050   20.4300 O   0  0  0  0  0  0  0  0  0  0  0  0
  -22.6150  -12.4850   22.3000 H   0  0  0  0  0  0  0  0  0  0  0  0
  -21.3690  -13.6410   21.9510 H   0  0  0  0  0  0  0  0  0  0  0  0
  -25.8790  -15.5390   20.4560 N   0  0  0  0  0  0  0  0  0  0  0  0
  -25.1360  -16.2270   20.5070 H   0  0  0  0  0  0  0  0  0  0  0  0
  -26.7920  -15.9400   20.3240 H   0  0  0  0  0  0  0  0  0  0  0  0
  -26.9920  -20.5850   15.8780 C   0  0  0  0  0  3  0  0  0  0  0  0
  -26.4410  -20.6950   17.1670 C   0  0  0  0  0  3  0  0  0  0  0  0
  -27.9760  -19.6110   15.6130 C   0  0  0  0  0  3  0  0  0  0  0  0
  -26.8620  -19.8120   18.1790 C   0  0  0  0  0  3  0  0  0  0  0  0
  -28.3900  -18.7190   16.6270 C   0  0  0  0  0  3  0  0  0  0  0  0
  -27.8300  -18.8120   17.9230 C   0  0  0  0  0  0  0  0  0  0  0  0
  1  3  1  0
  2  5  1  0
  2  4  1  0
  4  6  1  0
  5  8  1  0
  5  1  1  0
  6 51  1  0
  6  3  1  0
  6  7  1  1
  9 10  1  0
  9  8  1  0
 10 12  1  0
 11 22  2  0
 12 17  1  0
 13 21  1  0
 13 23  1  0
 14 20  1  0
 14 16  1  0
 15 21  1  0
 16 15  1  0
 17 16  2  0
 18 19  1  0
 18 12  2  0
 19 14  2  0
 20 13  1  0
 21 11  1  0
 23 25  2  0
 24 23  1  0
 26 24  1  0
 27 36  2  0
 27 32  1  0
 28 24  1  0
 28 32  1  0
 29 28  1  0
 30 31  1  0
 30 29  1  0
 31 27  1  0
 32 33  2  0
 33 34  1  0
 35 34  2  0
 36 35  1  0
 37 11  1  0
 37 38  1  0
 37 47  1  0
 38 41  1  0
 39 43  1  0
 39 38  1  0
 40 39  2  0
 43 42  1  0
 45 43  1  0
 45 46  1  0
 45 44  1  0
 47 50  1  1
 47 48  1  0
 49 47  1  0
 52 53  1  0
 52 55  1  0
 53 99  1  0
 53 54  1  0
 54 55  1  0
 54 51  1  0
 55 64  1  0
 56 63  2  0
 57 62  1  0
 58 59  1  0
 58 57  1  0
 60 59  1  0
 60 69  1  0
 60 61  1  0
 62 56  1  0
 62 61  1  0
 64 65  1  0
 64 56  1  0
 66 67  2  0
 67 68  1  0
 67 86  1  0
 68 71  1  0
 69 66  1  0
 69 70  1  0
 70 68  2  0
 71 72  1  0
 72 73  2  0
 74 77  1  0
 74 73  1  0
 75 74  2  0
 76 75  1  0
 76 71  2  0
 77 78  1  0
 78 79  1  0
 79 80  2  0
 81 80  1  0
 81 85  1  0
 82 81  2  0
 83 78  2  0
 83 82  1  0
 84 83  1  0
 86 87  1  0
 87 90  1  0
 87 89  1  0
 88 86  2  0
 91 92  1  0
 91 66  1  0
 93 91  1  0
 94 95  1  0
 95 97  2  0
 96 94  2  0
 96 98  1  0
 98 99  2  0
 99 97  1  0
M  ISO  4   9 101  10 101  56 100  64 100
M  END
>  <TORSDO>  (45) 
F 21

>  <SCORE>  (45) 
-9.896

>  <name>  (45) 
44

>  <ligand_id>  (45) 
44

>  <original_smiles>  (45) 
[H]c1c([H])c([H])c(C2([H])C([H])([H])C([H])(N([H])C(=O)N3C([H])([H])C([H])([H])C([H])([H])C([H])(n4nc(-c5c([H])c([H])c(Oc6c([H])c([H])c(F)c([H])c6F)c([H])c5[H])c(C(=O)N([H])[H])c4N([H])[H])C3([H])[H])C2([H])C([H])([H])[N+]2([H])C([H])([H])C([H])([H])C([H])(C([H])([H])C([H])([H])Oc3c([H])c([H])c4c(c3[H])C([H])([H])N(C(=O)C([H])(N([H])C(=O)C([H])(N([H])C([H])([H])[H])C([H])([H])[H])C(C([H])([H])[H])(C([H])([H])[H])C([H])([H])[H])C([H])(C(=O)N([H])C3([H])c5c([H])c([H])c([H])c([H])c5C([H])([H])C([H])([H])C3([H])[H])C4([H])[H])C([H])([H])C2([H])[H])c([H])c1[H]

>  <smiles>  (45) 
[H]c1c([H])c([H])c(C2([H])C([H])([H])C([H])(N([H])C(=O)N3C([H])([H])C([H])([H])C([H])([H])C([H])(n4nc(-c5c([H])c([H])c(Oc6c([H])c([H])c(F)c([H])c6F)c([H])c5[H])c(C(=O)N([H])[H])c4N([H])[H])C3([H])[H])C2([H])C([H])([H])[N+]2([H])C([H])([H])C([H])([H])C([H])(C([H])([H])C([H])([H])Oc3c([H])c([H])c4c(c3[H])C([H])([H])N(C(=O)C([H])(N([H])C(=O)C([H])(N([H])C([H])([H])[H])C([H])([H])[H])C(C([H])([H])[H])(C([H])([H])[H])C([H])([H])[H])C([H])(C(=O)N([H])C3([H])c5c([H])c([H])c([H])c([H])c5C([H])([H])C([H])([H])C3([H])[H])C4([H])[H])C([H])([H])C2([H])[H])c([H])c1[H]

$$$$
45:0:0
     RDKit          3D

 94103  0  0  1  0  0  0  0  0999 V2000
  -31.0820  -19.7710   22.0660 C   0  0  0  0  0  2  0  0  0  0  0  0
  -29.7740  -18.9970   21.7890 C   0  0  0  0  0  2  0  0  0  0  0  0
  -31.6580  -20.5630   19.5250 C   0  0  0  0  0  2  0  0  0  0  0  0
  -31.2530  -20.7970   20.9640 C   0  0  0  0  0  3  0  0  0  0  0  0
  -29.6570  -18.9580   20.2480 C   0  0  2  0  0  0  0  0  0  0  0  0
  -30.2000  -20.5000   19.9190 C   0  0  2  0  0  0  0  0  0  0  0  0
  -28.2120  -18.8170   19.6920 C   0  0  0  0  0  0  0  0  0  0  0  0
  -27.1630  -19.0460   20.4780 N   0  0  0  0  0  0  0  0  0  0  0  0
  -28.0320  -18.5120   18.5140 O   0  0  0  0  0  0  0  0  0  0  0  0
  -27.2860  -19.3200   21.4460 H   0  0  0  0  0  0  0  0  0  0  0  0
  -26.2270  -19.0030   20.0940 H   0  0  0  0  0  0  0  0  0  0  0  0
  -30.5500  -17.5880   19.7950 C   0  0  0  0  0  2  0  0  0  0  0  0
  -31.0230  -14.9040   19.9750 C   0  0  0  0  0  0  0  0  0  0  0  0
  -30.7580  -12.5880   19.0020 C   0  0  0  0  0  2  0  0  0  0  0  0
  -29.7870  -12.6550   17.7980 C   0  0  0  0  0  2  0  0  0  0  0  0
  -28.3280  -12.5100   18.2760 C   0  0  0  0  0  2  0  0  0  0  0  0
  -28.0140  -13.4060   19.5060 C   0  0  0  0  0  3  0  0  0  0  0  0
  -29.1110  -13.3050   20.5900 C   0  0  0  0  0  2  0  0  0  0  0  0
  -30.3800  -13.6740   19.9510 N   0  0  0  0  0  0  0  0  0  0  0  0
  -32.1940  -14.9460   19.5770 O   0  0  0  0  0  0  0  0  0  0  0  0
  -30.2970  -16.0910   20.2310 N   0  0  0  0  0  0  0  0  0  0  0  0
  -29.3860  -15.9320   20.6310 H   0  0  0  0  0  0  0  0  0  0  0  0
  -25.6950  -14.0670   20.3600 C   0  0  0  0  0  0  0  0  0  0  0  0
  -24.6130  -13.3270   20.7500 C   0  0  0  0  0  0  0  0  0  0  0  0
  -25.0090  -11.9600   20.6500 C   0  0  0  0  0  0  0  0  0  0  0  0
  -26.6840  -13.1510   20.0460 N   0  0  0  0  0  0  0  0  0  0  0  0
  -26.2860  -11.8750   20.2850 N   0  0  0  0  0  0  0  0  0  0  0  0
  -24.2330  -10.7260   20.8260 C   0  0  0  0  0  0  0  0  0  0  0  0
  -24.6310   -9.7280   21.7460 C   0  0  0  0  0  3  0  0  0  0  0  0
  -23.8570   -8.5600   21.9140 C   0  0  0  0  0  3  0  0  0  0  0  0
  -22.6690   -8.3810   21.1660 C   0  0  0  0  0  0  0  0  0  0  0  0
  -22.2890   -9.3640   20.2340 C   0  0  0  0  0  3  0  0  0  0  0  0
  -23.0640  -10.5240   20.0630 C   0  0  0  0  0  3  0  0  0  0  0  0
  -21.8690   -7.2660   21.2430 O   0  0  0  0  0  0  0  0  0  0  0  0
  -21.7380   -6.5550   22.4100 C   0  0  0  0  0  0  0  0  0  0  0  0
  -21.2890   -7.1610   23.6050 C   0  0  0  0  0  3  0  0  0  0  0  0
  -21.1010   -6.3800   24.7640 C   0  0  0  0  0  3  0  0  0  0  0  0
  -21.3530   -4.9960   24.7260 C   0  0  0  0  0  0  0  0  0  0  0  0
  -21.7930   -4.3900   23.5380 C   0  0  0  0  0  3  0  0  0  0  0  0
  -21.9830   -5.1680   22.3830 C   0  0  0  0  0  0  0  0  0  0  0  0
  -22.3880   -4.5770   21.2330 F   0  0  0  0  0  0  0  0  0  0  0  0
  -21.1630   -4.2450   25.8340 F   0  0  0  0  0  0  0  0  0  0  0  0
  -23.2530  -13.8580   21.0970 C   0  0  0  0  0  0  0  0  0  0  0  0
  -22.5430  -13.1840   21.9930 N   0  0  0  0  0  0  0  0  0  0  0  0
  -22.8340  -14.9060   20.6090 O   0  0  0  0  0  0  0  0  0  0  0  0
  -22.8950  -12.3420   22.4190 H   0  0  0  0  0  0  0  0  0  0  0  0
  -21.6300  -13.5240   22.2570 H   0  0  0  0  0  0  0  0  0  0  0  0
  -25.9170  -15.4350   20.2250 N   0  0  0  0  0  0  0  0  0  0  0  0
  -25.1960  -16.1250   20.4130 H   0  0  0  0  0  0  0  0  0  0  0  0
  -26.7620  -15.8550   19.8580 H   0  0  0  0  0  0  0  0  0  0  0  0
  -29.2050  -21.8080   19.6350 C   0  0  0  0  0  2  0  0  0  0  0  0
  -29.5650  -23.4170   19.9520 C   0  0  0  0  0  3  0  0  0  0  0  0
  -28.4610  -24.6650   19.7630 C   0  0  0  0  0  3  0  0  0  0  0  0
  -28.6640  -26.1870   19.9750 O   0  0  0  0  0  0  0  0  0  0  0  0
  -24.7000  -31.5650   23.0580 C   0  0  0  0  0  0  0  0  0  0  0  0
  -27.5570  -27.1080   19.9200 C   0  0  0  0  0  0  0  0  0  0  0  0
  -23.6070  -30.2080   21.3120 C   0  0  0  0  0  3  0  0  0  0  0  0
  -25.1610  -28.7530   19.8750 C   0  0  0  0  0  0  0  0  0  0  0  0
  -26.1520  -30.5730   21.2530 C   0  0  0  0  0  2  0  0  0  0  0  0
  -26.2990  -29.2170   20.5460 C   0  0  0  0  0  0  0  0  0  0  0  0
  -27.4970  -28.4100   20.5530 C   0  0  0  0  0  3  0  0  0  0  0  0
  -26.3880  -26.7380   19.2190 C   0  0  0  0  0  3  0  0  0  0  0  0
  -25.2180  -27.5250   19.1970 C   0  0  0  0  0  3  0  0  0  0  0  0
  -23.8960  -29.5990   19.9140 C   0  0  0  0  0  2  0  0  0  0  0  0
  -24.8350  -30.8030   21.9290 N   0  0  0  0  0  0  0  0  0  0  0  0
  -23.5870  -31.7900   23.5600 O   0  0  0  0  0  0  0  0  0  0  0  0
  -22.9310  -29.1350   22.2030 C   0  0  0  0  0  0  0  0  0  0  0  0
  -21.6010  -28.9810   22.0790 N   0  0  0  0  0  0  0  0  0  0  0  0
  -23.6070  -28.4460   22.9700 O   0  0  0  0  0  0  0  0  0  0  0  0
  -21.1120  -29.5900   21.4370 H   0  0  0  0  0  0  0  0  0  0  0  0
  -18.2090  -27.8260   22.5930 C   0  0  0  0  0  0  0  0  0  0  0  0
  -20.7820  -27.9960   22.7880 C   0  0  0  0  0  3  0  0  0  0  0  0
  -20.8200  -26.6220   22.0800 C   0  0  0  0  0  2  0  0  0  0  0  0
  -19.6790  -26.4260   21.0790 C   0  0  0  0  0  2  0  0  0  0  0  0
  -18.3240  -26.5450   21.7820 C   0  0  0  0  0  2  0  0  0  0  0  0
  -19.3640  -28.5150   23.0510 C   0  0  0  0  0  0  0  0  0  0  0  0
  -19.1990  -29.7190   23.7710 C   0  0  0  0  0  3  0  0  0  0  0  0
  -17.9160  -30.2300   24.0370 C   0  0  0  0  0  3  0  0  0  0  0  0
  -16.7770  -29.5380   23.5910 C   0  0  0  0  0  3  0  0  0  0  0  0
  -16.9240  -28.3360   22.8740 C   0  0  0  0  0  3  0  0  0  0  0  0
  -25.9340  -32.2130   23.7560 C   0  0  0  0  0  3  0  0  0  0  0  0
  -25.5780  -33.6010   24.0960 N   0  0  0  0  0  0  0  0  0  0  0  0
  -25.9130  -34.6750   23.3680 C   0  0  0  0  0  0  0  0  0  0  0  0
  -26.6190  -34.6020   22.3590 O   0  0  0  0  0  0  0  0  0  0  0  0
  -24.9470  -33.7260   24.8730 H   0  0  0  0  0  0  0  0  0  0  0  0
  -24.1510  -36.4360   22.9970 C   0  0  0  0  0  1  0  0  0  0  0  0
  -25.3810  -36.0480   23.8320 C   0  0  0  0  0  3  0  0  0  0  0  0
  -27.4740  -36.9720   24.7240 C   0  0  0  0  0  1  0  0  0  0  0  0
  -26.3890  -37.1250   23.7580 N   0  0  0  0  0  0  0  0  0  0  0  0
  -25.9590  -38.0320   23.9090 H   0  0  0  0  0  0  0  0  0  0  0  0
  -26.3930  -31.4330   25.0510 C   0  0  1  0  0  0  0  0  0  0  0  0
  -25.2520  -31.1790   26.0650 C   0  0  0  0  0  1  0  0  0  0  0  0
  -27.0060  -30.0640   24.6810 C   0  0  0  0  0  1  0  0  0  0  0  0
  -27.5010  -32.2330   25.7750 C   0  0  0  0  0  1  0  0  0  0  0  0
  2  1  1  0
  3  6  1  0
  4  3  1  0
  4  1  1  0
  5 12  1  6
  5  2  1  0
  6 51  1  6
  6  5  1  0
  6  4  1  0
  7  5  1  0
  7  8  1  0
  8 10  1  0
  9  7  2  0
 11  8  1  0
 12 21  1  0
 13 21  1  0
 14 19  1  0
 15 16  1  0
 15 14  1  0
 17 16  1  0
 17 26  1  0
 17 18  1  0
 19 13  1  0
 19 18  1  0
 20 13  2  0
 21 22  1  0
 23 24  2  0
 24 43  1  0
 25 24  1  0
 25 28  1  0
 26 27  1  0
 26 23  1  0
 27 25  2  0
 28 29  1  0
 29 30  2  0
 31 34  1  0
 31 30  1  0
 32 31  2  0
 33 32  1  0
 33 28  2  0
 34 35  1  0
 35 36  1  0
 36 37  2  0
 38 37  1  0
 38 42  1  0
 39 38  2  0
 40 35  2  0
 40 39  1  0
 41 40  1  0
 43 44  1  0
 44 47  1  0
 44 46  1  0
 45 43  2  0
 48 23  1  0
 48 49  1  0
 50 48  1  0
 51 52  1  0
 53 52  2  0
 53 54  1  0
 55 66  2  0
 56 54  1  0
 56 61  1  0
 57 65  1  0
 57 67  1  0
 58 64  1  0
 58 60  1  0
 59 65  1  0
 60 61  2  0
 60 59  1  0
 62 56  2  0
 63 62  1  0
 63 58  2  0
 64 57  1  0
 65 55  1  0
 67 69  2  0
 68 67  1  0
 70 68  1  0
 71 80  2  0
 71 76  1  0
 72 68  1  0
 72 76  1  0
 73 72  1  0
 74 75  1  0
 74 73  1  0
 75 71  1  0
 76 77  2  0
 77 78  1  0
 79 78  2  0
 80 79  1  0
 81 55  1  0
 81 82  1  0
 81 91  1  0
 82 85  1  0
 83 87  1  0
 83 82  1  0
 84 83  2  0
 87 86  1  0
 89 87  1  0
 89 90  1  0
 89 88  1  0
 91 94  1  1
 91 92  1  0
 93 91  1  0
M  ISO  4  13 100  21 100  53 101  54 101
M  END
>  <TORSDO>  (46) 
F 21

>  <SCORE>  (46) 
-12.936

>  <name>  (46) 
45

>  <ligand_id>  (46) 
45

>  <original_smiles>  (46) 
[H]c1c([H])c([H])c2c(c1[H])C([H])([H])C([H])([H])C([H])([H])C2([H])N([H])C(=O)C1([H])N(C(=O)C([H])(N([H])C(=O)C([H])(N([H])C([H])([H])[H])C([H])([H])[H])C(C([H])([H])[H])(C([H])([H])[H])C([H])([H])[H])C([H])([H])c2c([H])c(OC([H])([H])C([H])([H])C([H])([H])C34C([H])([H])C3([H])C([H])([H])C([H])([H])C4(C(=O)N([H])[H])C([H])([H])N([H])C(=O)N3C([H])([H])C([H])([H])C([H])([H])C([H])(n4nc(-c5c([H])c([H])c(Oc6c([H])c([H])c(F)c([H])c6F)c([H])c5[H])c(C(=O)N([H])[H])c4N([H])[H])C3([H])[H])c([H])c([H])c2C1([H])[H]

>  <smiles>  (46) 
[H]c1c([H])c([H])c2c(c1[H])C([H])([H])C([H])([H])C([H])([H])C2([H])N([H])C(=O)C1([H])N(C(=O)C([H])(N([H])C(=O)C([H])(N([H])C([H])([H])[H])C([H])([H])[H])C(C([H])([H])[H])(C([H])([H])[H])C([H])([H])[H])C([H])([H])c2c([H])c(OC([H])([H])C([H])([H])C([H])([H])C34C([H])([H])C3([H])C([H])([H])C([H])([H])C4(C(=O)N([H])[H])C([H])([H])N([H])C(=O)N3C([H])([H])C([H])([H])C([H])([H])C([H])(n4nc(-c5c([H])c([H])c(Oc6c([H])c([H])c(F)c([H])c6F)c([H])c5[H])c(C(=O)N([H])[H])c4N([H])[H])C3([H])[H])c([H])c([H])c2C1([H])[H]

$$$$
46:0:0
     RDKit          3D

 87 94  0  0  1  0  0  0  0  0999 V2000
  -28.5420  -21.8470   20.1830 C   0  0  0  0  0  3  0  0  0  0  0  0
  -29.5490  -20.5390   20.4780 C   0  0  0  0  0  3  0  0  0  0  0  0
  -29.1330  -18.9450   20.3770 C   0  0  0  0  0  0  0  0  0  0  0  0
  -27.9410  -18.6950   20.1920 O   0  0  0  0  0  0  0  0  0  0  0  0
  -31.1390  -17.9190   21.7230 C   0  0  0  0  0  1  0  0  0  0  0  0
  -30.2100  -17.6690   20.5220 C   0  0  0  0  0  3  0  0  0  0  0  0
  -30.5060  -14.9710   20.3320 C   0  0  0  0  0  0  0  0  0  0  0  0
  -30.3420  -12.6500   19.3540 C   0  0  0  0  0  2  0  0  0  0  0  0
  -29.3950  -12.6460   18.1330 C   0  0  0  0  0  2  0  0  0  0  0  0
  -27.9350  -12.4380   18.5820 C   0  0  0  0  0  2  0  0  0  0  0  0
  -27.5470  -13.3440   19.7800 C   0  0  0  0  0  3  0  0  0  0  0  0
  -28.6160  -13.3290   20.8920 C   0  0  0  0  0  2  0  0  0  0  0  0
  -29.8850  -13.7290   20.2720 N   0  0  0  0  0  0  0  0  0  0  0  0
  -31.7000  -15.0260   20.0260 O   0  0  0  0  0  0  0  0  0  0  0  0
  -29.7680  -16.1590   20.5450 N   0  0  0  0  0  0  0  0  0  0  0  0
  -28.7810  -16.0240   20.7040 H   0  0  0  0  0  0  0  0  0  0  0  0
  -25.1710  -13.9090   20.5540 C   0  0  0  0  0  0  0  0  0  0  0  0
  -24.1130  -13.1240   20.9240 C   0  0  0  0  0  0  0  0  0  0  0  0
  -24.5810  -11.7760   20.8720 C   0  0  0  0  0  0  0  0  0  0  0  0
  -26.2150  -13.0370   20.2900 N   0  0  0  0  0  0  0  0  0  0  0  0
  -25.8690  -11.7480   20.5470 N   0  0  0  0  0  0  0  0  0  0  0  0
  -23.8600  -10.5090   21.0520 C   0  0  0  0  0  0  0  0  0  0  0  0
  -24.2880   -9.5400   21.9870 C   0  0  0  0  0  3  0  0  0  0  0  0
  -23.5640   -8.3400   22.1560 C   0  0  0  0  0  3  0  0  0  0  0  0
  -22.3980   -8.0990   21.3900 C   0  0  0  0  0  0  0  0  0  0  0  0
  -21.9910   -9.0560   20.4440 C   0  0  0  0  0  3  0  0  0  0  0  0
  -22.7150  -10.2480   20.2720 C   0  0  0  0  0  3  0  0  0  0  0  0
  -21.6490   -6.9500   21.4650 O   0  0  0  0  0  0  0  0  0  0  0  0
  -21.5730   -6.2170   22.6230 C   0  0  0  0  0  0  0  0  0  0  0  0
  -21.0620   -6.7660   23.8210 C   0  0  0  0  0  3  0  0  0  0  0  0
  -20.9350   -5.9560   24.9670 C   0  0  0  0  0  3  0  0  0  0  0  0
  -21.3100   -4.6010   24.9200 C   0  0  0  0  0  0  0  0  0  0  0  0
  -21.8160   -4.0520   23.7270 C   0  0  0  0  0  3  0  0  0  0  0  0
  -21.9430   -4.8580   22.5820 C   0  0  0  0  0  0  0  0  0  0  0  0
  -22.4100   -4.3190   21.4300 F   0  0  0  0  0  0  0  0  0  0  0  0
  -21.1820   -3.8210   26.0180 F   0  0  0  0  0  0  0  0  0  0  0  0
  -22.7170  -13.5940   21.2140 C   0  0  0  0  0  0  0  0  0  0  0  0
  -21.9970  -12.8870   22.0780 N   0  0  0  0  0  0  0  0  0  0  0  0
  -22.2730  -14.6240   20.7100 O   0  0  0  0  0  0  0  0  0  0  0  0
  -22.3670  -12.0570   22.5130 H   0  0  0  0  0  0  0  0  0  0  0  0
  -21.0620  -13.1890   22.3130 H   0  0  0  0  0  0  0  0  0  0  0  0
  -25.3280  -15.2830   20.3940 N   0  0  0  0  0  0  0  0  0  0  0  0
  -24.5570  -15.9300   20.5290 H   0  0  0  0  0  0  0  0  0  0  0  0
  -26.1620  -15.7370   20.0490 H   0  0  0  0  0  0  0  0  0  0  0  0
  -28.9240  -23.4600   20.4520 C   0  0  0  0  0  3  0  0  0  0  0  0
  -27.9370  -24.7580   20.0760 C   0  0  0  0  0  3  0  0  0  0  0  0
  -28.2220  -26.2640   20.2960 O   0  0  0  0  0  0  0  0  0  0  0  0
  -24.6190  -31.9450   23.2460 C   0  0  0  0  0  0  0  0  0  0  0  0
  -27.1690  -27.2400   20.2170 C   0  0  0  0  0  0  0  0  0  0  0  0
  -23.4080  -30.5530   21.6100 C   0  0  0  0  0  3  0  0  0  0  0  0
  -24.8480  -28.9780   20.1810 C   0  0  0  0  0  0  0  0  0  0  0  0
  -25.9600  -30.8150   21.4400 C   0  0  0  0  0  2  0  0  0  0  0  0
  -26.0270  -29.4250   20.7910 C   0  0  0  0  0  0  0  0  0  0  0  0
  -27.1880  -28.5690   20.7950 C   0  0  0  0  0  3  0  0  0  0  0  0
  -25.9680  -26.8940   19.5590 C   0  0  0  0  0  3  0  0  0  0  0  0
  -24.8300  -27.7280   19.5470 C   0  0  0  0  0  3  0  0  0  0  0  0
  -23.6220  -29.8770   20.2300 C   0  0  0  0  0  2  0  0  0  0  0  0
  -24.6820  -31.1260   22.1520 N   0  0  0  0  0  0  0  0  0  0  0  0
  -23.5360  -32.2340   23.7780 O   0  0  0  0  0  0  0  0  0  0  0  0
  -22.7320  -29.5470   22.5750 C   0  0  0  0  0  0  0  0  0  0  0  0
  -21.4040  -29.3740   22.4470 N   0  0  0  0  0  0  0  0  0  0  0  0
  -23.4030  -28.9250   23.4020 O   0  0  0  0  0  0  0  0  0  0  0  0
  -20.9210  -29.9290   21.7540 H   0  0  0  0  0  0  0  0  0  0  0  0
  -18.0210  -28.1890   22.9550 C   0  0  0  0  0  0  0  0  0  0  0  0
  -20.5810  -28.4420   23.2200 C   0  0  0  0  0  3  0  0  0  0  0  0
  -20.6760  -27.0090   22.6480 C   0  0  0  0  0  2  0  0  0  0  0  0
  -19.5700  -26.6880   21.6350 C   0  0  0  0  0  2  0  0  0  0  0  0
  -18.1910  -26.8390   22.2800 C   0  0  0  0  0  2  0  0  0  0  0  0
  -19.1420  -28.9490   23.3820 C   0  0  0  0  0  0  0  0  0  0  0  0
  -18.9280  -30.2120   23.9750 C   0  0  0  0  0  3  0  0  0  0  0  0
  -17.6240  -30.7160   24.1440 C   0  0  0  0  0  3  0  0  0  0  0  0
  -16.5170  -29.9530   23.7310 C   0  0  0  0  0  3  0  0  0  0  0  0
  -16.7160  -28.6920   23.1430 C   0  0  0  0  0  3  0  0  0  0  0  0
  -25.9030  -32.5730   23.8700 C   0  0  0  0  0  3  0  0  0  0  0  0
  -25.5970  -33.9720   24.2080 N   0  0  0  0  0  0  0  0  0  0  0  0
  -25.9040  -35.0270   23.4420 C   0  0  0  0  0  0  0  0  0  0  0  0
  -26.5430  -34.9260   22.3920 O   0  0  0  0  0  0  0  0  0  0  0  0
  -25.0260  -34.1230   25.0260 H   0  0  0  0  0  0  0  0  0  0  0  0
  -24.1560  -36.8160   23.1520 C   0  0  0  0  0  1  0  0  0  0  0  0
  -25.4280  -36.4150   23.9170 C   0  0  0  0  0  3  0  0  0  0  0  0
  -27.5820  -37.3180   24.6740 C   0  0  0  0  0  1  0  0  0  0  0  0
  -26.4510  -37.4720   23.7640 N   0  0  0  0  0  0  0  0  0  0  0  0
  -26.0440  -38.3920   23.9150 H   0  0  0  0  0  0  0  0  0  0  0  0
  -26.4170  -31.7980   25.1460 C   0  0  1  0  0  0  0  0  0  0  0  0
  -25.3230  -31.5600   26.2120 C   0  0  0  0  0  1  0  0  0  0  0  0
  -26.9990  -30.4190   24.7560 C   0  0  0  0  0  1  0  0  0  0  0  0
  -27.5670  -32.5900   25.8110 C   0  0  0  0  0  1  0  0  0  0  0  0
  1 45  1  0
  1  2  2  0
  3  2  1  0
  3  6  1  0
  4  3  2  0
  6 15  1  0
  6  5  1  0
  7 15  1  0
  8 13  1  0
  9 10  1  0
  9  8  1  0
 11 10  1  0
 11 20  1  0
 11 12  1  0
 13  7  1  0
 13 12  1  0
 14  7  2  0
 15 16  1  0
 17 18  2  0
 18 37  1  0
 19 18  1  0
 19 22  1  0
 20 21  1  0
 20 17  1  0
 21 19  2  0
 22 23  1  0
 23 24  2  0
 25 28  1  0
 25 24  1  0
 26 25  2  0
 27 26  1  0
 27 22  2  0
 28 29  1  0
 29 30  1  0
 30 31  2  0
 32 31  1  0
 32 36  1  0
 33 32  2  0
 34 29  2  0
 34 33  1  0
 35 34  1  0
 37 38  1  0
 38 41  1  0
 38 40  1  0
 39 37  2  0
 42 43  1  0
 42 17  1  0
 44 42  1  0
 46 47  1  0
 46 45  2  0
 48 59  2  0
 49 47  1  0
 49 54  1  0
 50 58  1  0
 50 60  1  0
 51 57  1  0
 51 53  1  0
 52 58  1  0
 53 54  2  0
 53 52  1  0
 55 49  2  0
 56 55  1  0
 56 51  2  0
 57 50  1  0
 58 48  1  0
 60 62  2  0
 61 60  1  0
 63 61  1  0
 64 73  2  0
 64 69  1  0
 65 61  1  0
 65 69  1  0
 66 65  1  0
 67 68  1  0
 67 66  1  0
 68 64  1  0
 69 70  2  0
 70 71  1  0
 72 71  2  0
 73 72  1  0
 74 48  1  0
 74 75  1  0
 74 84  1  0
 75 78  1  0
 76 80  1  0
 76 75  1  0
 77 76  2  0
 80 79  1  0
 82 83  1  0
 82 80  1  0
 82 81  1  0
 84 87  1  1
 84 85  1  0
 86 84  1  0
M  ISO  4   7 100  15 100  46 101  47 101
M  END
>  <TORSDO>  (47) 
F 21

>  <SCORE>  (47) 
-13.459

>  <name>  (47) 
46

>  <ligand_id>  (47) 
46

>  <original_smiles>  (47) 
[H]c1c([H])c([H])c2c(c1[H])C([H])([H])C([H])([H])C([H])([H])C2([H])N([H])C(=O)C1([H])N(C(=O)C([H])(N([H])C(=O)C([H])(N([H])C([H])([H])[H])C([H])([H])[H])C(C([H])([H])[H])(C([H])([H])[H])C([H])([H])[H])C([H])([H])c2c([H])c(OC([H])([H])C([H])([H])C([H])([H])C([H])([H])C(=O)C([H])(N([H])C(=O)N3C([H])([H])C([H])([H])C([H])([H])C([H])(n4nc(-c5c([H])c([H])c(Oc6c([H])c([H])c(F)c([H])c6F)c([H])c5[H])c(C(=O)N([H])[H])c4N([H])[H])C3([H])[H])C([H])([H])[H])c([H])c([H])c2C1([H])[H]

>  <smiles>  (47) 
[H]c1c([H])c([H])c2c(c1[H])C([H])([H])C([H])([H])C([H])([H])C2([H])N([H])C(=O)C1([H])N(C(=O)C([H])(N([H])C(=O)C([H])(N([H])C([H])([H])[H])C([H])([H])[H])C(C([H])([H])[H])(C([H])([H])[H])C([H])([H])[H])C([H])([H])c2c([H])c(OC([H])([H])C([H])([H])C([H])([H])C([H])([H])C(=O)C([H])(N([H])C(=O)N3C([H])([H])C([H])([H])C([H])([H])C([H])(n4nc(-c5c([H])c([H])c(Oc6c([H])c([H])c(F)c([H])c6F)c([H])c5[H])c(C(=O)N([H])[H])c4N([H])[H])C3([H])[H])C([H])([H])[H])c([H])c([H])c2C1([H])[H]

$$$$
47:0:0
     RDKit          3D

 90 99  0  0  1  0  0  0  0  0999 V2000
  -29.7200  -20.5100   19.5180 C   0  0  0  0  0  0  0  0  0  0  0  0
  -30.6080  -20.7690   18.7000 O   0  0  0  0  0  0  0  0  0  0  0  0
  -28.2490  -18.1680   21.6390 C   0  0  0  0  0  2  0  0  0  0  0  0
  -27.9490  -18.6090   20.2020 C   0  0  0  0  0  2  0  0  0  0  0  0
  -30.9250  -17.9100   21.2260 C   0  0  0  0  0  2  0  0  0  0  0  0
  -29.6620  -18.7470   21.5110 C   0  0  0  0  0  3  0  0  0  0  0  0
  -30.4710  -17.6240   19.7870 C   0  0  0  0  0  3  0  0  0  0  0  0
  -29.4350  -18.9460   20.0050 C   0  0  2  0  0  0  0  0  0  0  0  0
  -30.8020  -14.9180   19.5840 C   0  0  0  0  0  0  0  0  0  0  0  0
  -30.5160  -12.6010   18.6120 C   0  0  0  0  0  2  0  0  0  0  0  0
  -29.4590  -12.6350   17.4890 C   0  0  0  0  0  2  0  0  0  0  0  0
  -28.0510  -12.4240   18.0820 C   0  0  0  0  0  2  0  0  0  0  0  0
  -27.7910  -13.3020   19.3360 C   0  0  0  0  0  3  0  0  0  0  0  0
  -28.9720  -13.2930   20.3280 C   0  0  0  0  0  2  0  0  0  0  0  0
  -30.1710  -13.6780   19.5760 N   0  0  0  0  0  0  0  0  0  0  0  0
  -31.9820  -14.9670   19.2210 O   0  0  0  0  0  0  0  0  0  0  0  0
  -30.0520  -16.1030   19.7850 N   0  0  0  0  0  0  0  0  0  0  0  0
  -29.0880  -15.9380   20.0130 H   0  0  0  0  0  0  0  0  0  0  0  0
  -25.5500  -13.8710   20.4250 C   0  0  0  0  0  0  0  0  0  0  0  0
  -24.5220  -13.0900   20.8800 C   0  0  0  0  0  0  0  0  0  0  0  0
  -24.9430  -11.7390   20.6990 C   0  0  0  0  0  0  0  0  0  0  0  0
  -26.5240  -12.9900   19.9820 N   0  0  0  0  0  0  0  0  0  0  0  0
  -26.1780  -11.6990   20.2130 N   0  0  0  0  0  0  0  0  0  0  0  0
  -24.2160  -10.4760   20.8960 C   0  0  0  0  0  0  0  0  0  0  0  0
  -24.6630   -9.4900   21.8050 C   0  0  0  0  0  3  0  0  0  0  0  0
  -23.9330   -8.2930   21.9750 C   0  0  0  0  0  3  0  0  0  0  0  0
  -22.7370   -8.0860   21.2540 C   0  0  0  0  0  0  0  0  0  0  0  0
  -22.3070   -9.0610   20.3410 C   0  0  0  0  0  3  0  0  0  0  0  0
  -23.0380  -10.2420   20.1590 C   0  0  0  0  0  3  0  0  0  0  0  0
  -21.9720   -6.9480   21.3450 O   0  0  0  0  0  0  0  0  0  0  0  0
  -21.8620   -6.2440   22.5170 C   0  0  0  0  0  0  0  0  0  0  0  0
  -21.3570   -6.8340   23.6920 C   0  0  0  0  0  3  0  0  0  0  0  0
  -21.2050   -6.0580   24.8620 C   0  0  0  0  0  3  0  0  0  0  0  0
  -21.5440   -4.6930   24.8490 C   0  0  0  0  0  0  0  0  0  0  0  0
  -22.0390   -4.1020   23.6730 C   0  0  0  0  0  3  0  0  0  0  0  0
  -22.1960   -4.8750   22.5110 C   0  0  0  0  0  0  0  0  0  0  0  0
  -22.6550   -4.2940   21.3740 F   0  0  0  0  0  0  0  0  0  0  0  0
  -21.3990   -3.9470   25.9680 F   0  0  0  0  0  0  0  0  0  0  0  0
  -23.1840  -13.5710   21.3590 C   0  0  0  0  0  0  0  0  0  0  0  0
  -22.5570  -12.8290   22.2700 N   0  0  0  0  0  0  0  0  0  0  0  0
  -22.7020  -14.6330   20.9660 O   0  0  0  0  0  0  0  0  0  0  0  0
  -22.9610  -11.9640   22.5920 H   0  0  0  0  0  0  0  0  0  0  0  0
  -21.6650  -13.1310   22.6460 H   0  0  0  0  0  0  0  0  0  0  0  0
  -25.7260  -15.2480   20.3230 N   0  0  0  0  0  0  0  0  0  0  0  0
  -24.9830  -15.9020   20.5500 H   0  0  0  0  0  0  0  0  0  0  0  0
  -26.4990  -15.6830   19.8380 H   0  0  0  0  0  0  0  0  0  0  0  0
  -28.8900  -21.8270   20.0830 C   0  0  0  0  0  2  0  0  0  0  0  0
  -28.9860  -23.3980   19.4840 C   0  0  0  0  0  3  0  0  0  0  0  0
  -28.3730  -24.7570   20.2500 C   0  0  0  0  0  3  0  0  0  0  0  0
  -28.5730  -26.2330   19.8520 O   0  0  0  0  0  0  0  0  0  0  0  0
  -24.9060  -31.7470   23.0460 C   0  0  0  0  0  0  0  0  0  0  0  0
  -27.4930  -27.1750   19.8730 C   0  0  0  0  0  0  0  0  0  0  0  0
  -23.7010  -30.3880   21.3800 C   0  0  0  0  0  3  0  0  0  0  0  0
  -25.1490  -28.8730   19.8960 C   0  0  0  0  0  0  0  0  0  0  0  0
  -26.2480  -30.6940   21.1950 C   0  0  0  0  0  2  0  0  0  0  0  0
  -26.3270  -29.3250   20.5030 C   0  0  0  0  0  0  0  0  0  0  0  0
  -27.5030  -28.4950   20.4680 C   0  0  0  0  0  3  0  0  0  0  0  0
  -26.2880  -26.8100   19.2380 C   0  0  0  0  0  3  0  0  0  0  0  0
  -25.1400  -27.6310   19.2460 C   0  0  0  0  0  3  0  0  0  0  0  0
  -23.9110  -29.7530   19.9790 C   0  0  0  0  0  2  0  0  0  0  0  0
  -24.9730  -30.9610   21.9290 N   0  0  0  0  0  0  0  0  0  0  0  0
  -23.8250  -32.0030   23.5960 O   0  0  0  0  0  0  0  0  0  0  0  0
  -23.0470  -29.3420   22.3170 C   0  0  0  0  0  0  0  0  0  0  0  0
  -21.7160  -29.1800   22.2150 N   0  0  0  0  0  0  0  0  0  0  0  0
  -23.7360  -28.6840   23.0990 O   0  0  0  0  0  0  0  0  0  0  0  0
  -21.2150  -29.7620   21.5580 H   0  0  0  0  0  0  0  0  0  0  0  0
  -18.3380  -28.0160   22.7910 C   0  0  0  0  0  0  0  0  0  0  0  0
  -20.9090  -28.2190   22.9720 C   0  0  0  0  0  3  0  0  0  0  0  0
  -20.9610  -26.8160   22.3250 C   0  0  0  0  0  2  0  0  0  0  0  0
  -19.8170  -26.5630   21.3380 C   0  0  0  0  0  2  0  0  0  0  0  0
  -18.4650  -26.6990   22.0420 C   0  0  0  0  0  2  0  0  0  0  0  0
  -19.4860  -28.7380   23.2120 C   0  0  0  0  0  0  0  0  0  0  0  0
  -19.3110  -29.9720   23.8740 C   0  0  0  0  0  3  0  0  0  0  0  0
  -18.0240  -30.4840   24.1180 C   0  0  0  0  0  3  0  0  0  0  0  0
  -16.8900  -29.7580   23.7110 C   0  0  0  0  0  3  0  0  0  0  0  0
  -17.0480  -28.5270   23.0510 C   0  0  0  0  0  3  0  0  0  0  0  0
  -26.1870  -32.3730   23.6780 C   0  0  0  0  0  3  0  0  0  0  0  0
  -26.7390  -31.5550   24.9120 C   0  0  1  0  0  0  0  0  0  0  0  0
  -25.6670  -31.2480   25.9840 C   0  0  0  0  0  1  0  0  0  0  0  0
  -27.3430  -30.2070   24.4540 C   0  0  0  0  0  1  0  0  0  0  0  0
  -27.8800  -32.3430   25.5970 C   0  0  0  0  0  1  0  0  0  0  0  0
  -25.8560  -33.7480   24.0800 N   0  0  0  0  0  0  0  0  0  0  0  0
  -26.1530  -34.8440   23.3730 C   0  0  0  0  0  0  0  0  0  0  0  0
  -26.8010  -34.8070   22.3230 O   0  0  0  0  0  0  0  0  0  0  0  0
  -25.2740  -33.8480   24.8990 H   0  0  0  0  0  0  0  0  0  0  0  0
  -24.3820  -36.6200   23.1520 C   0  0  0  0  0  1  0  0  0  0  0  0
  -25.6480  -36.1960   23.9120 C   0  0  0  0  0  3  0  0  0  0  0  0
  -27.7760  -37.0900   24.7510 C   0  0  0  0  0  1  0  0  0  0  0  0
  -26.6550  -37.2750   23.8320 N   0  0  0  0  0  0  0  0  0  0  0  0
  -26.2340  -38.1780   24.0310 H   0  0  0  0  0  0  0  0  0  0  0  0
  1 47  1  0
  2  1  2  0
  4  3  1  0
  6  5  1  0
  6  3  1  0
  7 17  1  0
  7  8  1  0
  7  5  1  0
  8  1  1  6
  8  4  1  0
  8  6  1  0
  9 17  1  0
 10 15  1  0
 11 12  1  0
 11 10  1  0
 13 12  1  0
 13 22  1  0
 13 14  1  0
 15  9  1  0
 15 14  1  0
 16  9  2  0
 17 18  1  0
 19 20  2  0
 20 39  1  0
 21 20  1  0
 21 24  1  0
 22 23  1  0
 22 19  1  0
 23 21  2  0
 24 25  1  0
 25 26  2  0
 27 30  1  0
 27 26  1  0
 28 27  2  0
 29 28  1  0
 29 24  2  0
 30 31  1  0
 31 32  1  0
 32 33  2  0
 34 33  1  0
 34 38  1  0
 35 34  2  0
 36 31  2  0
 36 35  1  0
 37 36  1  0
 39 40  1  0
 40 42  1  0
 40 43  1  0
 41 39  2  0
 44 19  1  0
 44 45  1  0
 46 44  1  0
 48 47  1  0
 48 49  2  0
 50 52  1  0
 50 49  1  0
 51 62  2  0
 52 57  1  0
 53 61  1  0
 53 63  1  0
 54 60  1  0
 54 56  1  0
 55 61  1  0
 56 55  1  0
 57 56  2  0
 58 59  1  0
 58 52  2  0
 59 54  2  0
 60 53  1  0
 61 51  1  0
 63 65  2  0
 64 63  1  0
 66 64  1  0
 67 76  2  0
 67 72  1  0
 68 64  1  0
 68 72  1  0
 69 68  1  0
 70 71  1  0
 70 69  1  0
 71 67  1  0
 72 73  2  0
 73 74  1  0
 75 74  2  0
 76 75  1  0
 77 51  1  0
 77 82  1  0
 77 78  1  0
 78 81  1  1
 78 79  1  0
 80 78  1  0
 82 85  1  0
 83 87  1  0
 83 82  1  0
 84 83  2  0
 87 86  1  0
 89 87  1  0
 89 90  1  0
 89 88  1  0
M  ISO  4   9 100  17 100  49 101  50 101
M  END
>  <TORSDO>  (48) 
F 20

>  <SCORE>  (48) 
-10.390

>  <name>  (48) 
47

>  <ligand_id>  (48) 
47

>  <original_smiles>  (48) 
[H]c1c([H])c([H])c2c(c1[H])C([H])([H])C([H])([H])C([H])([H])C2([H])N([H])C(=O)C1([H])N(C(=O)C([H])(N([H])C(=O)C([H])(N([H])C([H])([H])[H])C([H])([H])[H])C(C([H])([H])[H])(C([H])([H])[H])C([H])([H])[H])C([H])([H])c2c([H])c(OC([H])([H])C([H])([H])C([H])([H])C(=O)C34C([H])([H])C([H])([H])C3([H])C([H])([H])C4([H])N([H])C(=O)N3C([H])([H])C([H])([H])C([H])([H])C([H])(n4nc(-c5c([H])c([H])c(Oc6c([H])c([H])c(F)c([H])c6F)c([H])c5[H])c(C(=O)N([H])[H])c4N([H])[H])C3([H])[H])c([H])c([H])c2C1([H])[H]

>  <smiles>  (48) 
[H]c1c([H])c([H])c2c(c1[H])C([H])([H])C([H])([H])C([H])([H])C2([H])N([H])C(=O)C1([H])N(C(=O)C([H])(N([H])C(=O)C([H])(N([H])C([H])([H])[H])C([H])([H])[H])C(C([H])([H])[H])(C([H])([H])[H])C([H])([H])[H])C([H])([H])c2c([H])c(OC([H])([H])C([H])([H])C([H])([H])C(=O)C34C([H])([H])C([H])([H])C3([H])C([H])([H])C4([H])N([H])C(=O)N3C([H])([H])C([H])([H])C([H])([H])C([H])(n4nc(-c5c([H])c([H])c(Oc6c([H])c([H])c(F)c([H])c6F)c([H])c5[H])c(C(=O)N([H])[H])c4N([H])[H])C3([H])[H])c([H])c([H])c2C1([H])[H]

$$$$
48:0:0
     RDKit          3D

 95104  0  0  1  0  0  0  0  0999 V2000
  -29.0060  -21.1740   21.4210 C   0  0  0  0  0  2  0  0  0  0  0  0
  -28.5280  -17.2580   18.8560 C   0  0  0  0  0  2  0  0  0  0  0  0
  -29.6430  -19.7010   21.2770 C   0  0  0  0  0  2  0  0  0  0  0  0
  -27.9910  -18.4060   19.7180 C   0  0  0  0  0  2  0  0  0  0  0  0
  -29.1750  -21.5400   19.0220 C   0  0  0  0  0  2  0  0  0  0  0  0
  -29.8600  -20.0990   18.8840 C   0  0  0  0  0  3  0  0  0  0  0  0
  -29.4760  -22.2440   20.3700 C   0  0  0  0  0  3  0  0  0  0  0  0
  -29.8780  -17.3490   19.5920 C   0  0  0  0  0  3  0  0  0  0  0  0
  -29.4160  -18.9370   19.9150 C   0  0  1  0  0  0  0  0  0  0  0  0
  -30.5910  -14.9050   20.2860 C   0  0  0  0  0  0  0  0  0  0  0  0
  -30.3920  -12.5790   19.3710 C   0  0  0  0  0  2  0  0  0  0  0  0
  -29.4550  -12.6090   18.1420 C   0  0  0  0  0  2  0  0  0  0  0  0
  -27.9900  -12.4120   18.5740 C   0  0  0  0  0  2  0  0  0  0  0  0
  -27.6070  -13.3050   19.7840 C   0  0  0  0  0  3  0  0  0  0  0  0
  -28.6810  -13.3090   20.9000 C   0  0  0  0  0  2  0  0  0  0  0  0
  -29.9670  -13.6660   20.2910 N   0  0  0  0  0  0  0  0  0  0  0  0
  -31.7540  -14.9710   19.8780 O   0  0  0  0  0  0  0  0  0  0  0  0
  -29.8590  -16.0840   20.4890 N   0  0  0  0  0  0  0  0  0  0  0  0
  -28.9910  -15.9450   20.9820 H   0  0  0  0  0  0  0  0  0  0  0  0
  -25.2280  -13.8900   20.5230 C   0  0  0  0  0  0  0  0  0  0  0  0
  -24.1600  -13.1120   20.8850 C   0  0  0  0  0  0  0  0  0  0  0  0
  -24.6220  -11.7620   20.8450 C   0  0  0  0  0  0  0  0  0  0  0  0
  -26.2690  -13.0080   20.2830 N   0  0  0  0  0  0  0  0  0  0  0  0
  -25.9120  -11.7230   20.5390 N   0  0  0  0  0  0  0  0  0  0  0  0
  -23.8930  -10.4980   21.0290 C   0  0  0  0  0  0  0  0  0  0  0  0
  -24.3140   -9.5330   21.9700 C   0  0  0  0  0  3  0  0  0  0  0  0
  -23.5880   -8.3350   22.1410 C   0  0  0  0  0  3  0  0  0  0  0  0
  -22.4250   -8.0940   21.3710 C   0  0  0  0  0  0  0  0  0  0  0  0
  -22.0230   -9.0480   20.4200 C   0  0  0  0  0  3  0  0  0  0  0  0
  -22.7490  -10.2380   20.2470 C   0  0  0  0  0  3  0  0  0  0  0  0
  -21.6720   -6.9480   21.4520 O   0  0  0  0  0  0  0  0  0  0  0  0
  -21.5870   -6.2230   22.6130 C   0  0  0  0  0  0  0  0  0  0  0  0
  -21.1040   -6.7890   23.8140 C   0  0  0  0  0  3  0  0  0  0  0  0
  -20.9710   -5.9870   24.9650 C   0  0  0  0  0  3  0  0  0  0  0  0
  -21.3120   -4.6220   24.9170 C   0  0  0  0  0  0  0  0  0  0  0  0
  -21.7900   -4.0570   23.7230 C   0  0  0  0  0  3  0  0  0  0  0  0
  -21.9250   -4.8560   22.5730 C   0  0  0  0  0  0  0  0  0  0  0  0
  -22.3670   -4.3020   21.4180 F   0  0  0  0  0  0  0  0  0  0  0  0
  -21.1770   -3.8500   26.0210 F   0  0  0  0  0  0  0  0  0  0  0  0
  -22.7650  -13.5880   21.1620 C   0  0  0  0  0  0  0  0  0  0  0  0
  -22.0350  -12.8870   22.0250 N   0  0  0  0  0  0  0  0  0  0  0  0
  -22.3280  -14.6170   20.6510 O   0  0  0  0  0  0  0  0  0  0  0  0
  -22.4030  -12.0580   22.4680 H   0  0  0  0  0  0  0  0  0  0  0  0
  -21.0980  -13.1890   22.2450 H   0  0  0  0  0  0  0  0  0  0  0  0
  -25.3980  -15.2590   20.3540 N   0  0  0  0  0  0  0  0  0  0  0  0
  -24.6360  -15.9240   20.4560 H   0  0  0  0  0  0  0  0  0  0  0  0
  -26.2680  -15.6930   20.0720 H   0  0  0  0  0  0  0  0  0  0  0  0
  -29.8460  -19.7200   17.3860 C   0  0  0  0  0  0  0  0  0  0  0  0
  -30.9740  -19.2580   16.8600 N   0  0  0  0  0  0  0  0  0  0  0  0
  -28.8410  -19.8780   16.6910 O   0  0  0  0  0  0  0  0  0  0  0  0
  -31.7700  -19.0830   17.4550 H   0  0  0  0  0  0  0  0  0  0  0  0
  -31.0610  -19.0970   15.8660 H   0  0  0  0  0  0  0  0  0  0  0  0
  -29.3010  -23.8820   20.5740 C   0  0  0  0  0  3  0  0  0  0  0  0
  -28.1240  -24.9020   20.0960 C   0  0  0  0  0  3  0  0  0  0  0  0
  -28.2970  -26.4040   20.2540 O   0  0  0  0  0  0  0  0  0  0  0  0
  -24.6200  -31.9250   23.2380 C   0  0  0  0  0  0  0  0  0  0  0  0
  -27.1900  -27.2950   20.1860 C   0  0  0  0  0  0  0  0  0  0  0  0
  -23.3990  -30.5330   21.6080 C   0  0  0  0  0  3  0  0  0  0  0  0
  -24.8330  -28.9630   20.1740 C   0  0  0  0  0  0  0  0  0  0  0  0
  -25.9410  -30.8280   21.4050 C   0  0  0  0  0  2  0  0  0  0  0  0
  -26.0150  -29.4420   20.7570 C   0  0  0  0  0  0  0  0  0  0  0  0
  -27.1930  -28.6250   20.7410 C   0  0  0  0  0  3  0  0  0  0  0  0
  -25.9810  -26.8840   19.5820 C   0  0  0  0  0  3  0  0  0  0  0  0
  -24.8230  -27.6920   19.5760 C   0  0  0  0  0  3  0  0  0  0  0  0
  -23.5990  -29.8480   20.2300 C   0  0  0  0  0  2  0  0  0  0  0  0
  -24.6730  -31.1120   22.1410 N   0  0  0  0  0  0  0  0  0  0  0  0
  -23.5420  -32.2090   23.7810 O   0  0  0  0  0  0  0  0  0  0  0  0
  -22.7340  -29.5260   22.5760 C   0  0  0  0  0  0  0  0  0  0  0  0
  -21.4090  -29.3460   22.4480 N   0  0  0  0  0  0  0  0  0  0  0  0
  -23.4130  -28.9060   23.3990 O   0  0  0  0  0  0  0  0  0  0  0  0
  -20.9200  -29.8930   21.7520 H   0  0  0  0  0  0  0  0  0  0  0  0
  -18.0330  -28.1540   22.9620 C   0  0  0  0  0  0  0  0  0  0  0  0
  -20.5900  -28.4130   23.2250 C   0  0  0  0  0  3  0  0  0  0  0  0
  -20.6910  -26.9800   22.6530 C   0  0  0  0  0  2  0  0  0  0  0  0
  -19.5870  -26.6540   21.6410 C   0  0  0  0  0  2  0  0  0  0  0  0
  -18.2070  -26.8030   22.2880 C   0  0  0  0  0  2  0  0  0  0  0  0
  -19.1520  -28.9170   23.3860 C   0  0  0  0  0  0  0  0  0  0  0  0
  -18.9370  -30.1810   23.9780 C   0  0  0  0  0  3  0  0  0  0  0  0
  -17.6340  -30.6840   24.1480 C   0  0  0  0  0  3  0  0  0  0  0  0
  -16.5280  -29.9180   23.7410 C   0  0  0  0  0  3  0  0  0  0  0  0
  -16.7270  -28.6560   23.1530 C   0  0  0  0  0  3  0  0  0  0  0  0
  -25.9090  -32.5550   23.8510 C   0  0  0  0  0  3  0  0  0  0  0  0
  -26.4300  -31.7820   25.1260 C   0  0  1  0  0  0  0  0  0  0  0  0
  -25.3400  -31.5450   26.1990 C   0  0  0  0  0  1  0  0  0  0  0  0
  -27.0090  -30.4040   24.7310 C   0  0  0  0  0  1  0  0  0  0  0  0
  -27.5840  -32.5740   25.7860 C   0  0  0  0  0  1  0  0  0  0  0  0
  -25.6030  -33.9520   24.1890 N   0  0  0  0  0  0  0  0  0  0  0  0
  -25.9210  -35.0090   23.4290 C   0  0  0  0  0  0  0  0  0  0  0  0
  -26.5740  -34.9110   22.3860 O   0  0  0  0  0  0  0  0  0  0  0  0
  -25.0170  -34.0980   24.9970 H   0  0  0  0  0  0  0  0  0  0  0  0
  -24.1820  -36.8020   23.1260 C   0  0  0  0  0  1  0  0  0  0  0  0
  -25.4430  -36.3950   23.9040 C   0  0  0  0  0  3  0  0  0  0  0  0
  -27.5920  -37.2860   24.6900 C   0  0  0  0  0  1  0  0  0  0  0  0
  -26.4700  -37.4510   23.7710 N   0  0  0  0  0  0  0  0  0  0  0  0
  -26.0640  -38.3690   23.9310 H   0  0  0  0  0  0  0  0  0  0  0  0
  2  8  1  0
  2  4  1  0
  3  1  1  0
  5  7  1  0
  6 48  1  0
  6  5  1  0
  6  9  1  0
  7 53  1  0
  7  1  1  0
  8  9  1  0
  8 18  1  0
  9  4  1  6
  9  3  1  0
 10 16  1  0
 10 18  1  0
 11 16  1  0
 12 13  1  0
 12 11  1  0
 14 13  1  0
 14 23  1  0
 14 15  1  0
 16 15  1  0
 17 10  2  0
 18 19  1  0
 20 21  2  0
 21 40  1  0
 22 21  1  0
 22 25  1  0
 23 20  1  0
 23 24  1  0
 24 22  2  0
 25 26  1  0
 26 27  2  0
 28 31  1  0
 28 27  1  0
 29 28  2  0
 30 29  1  0
 30 25  2  0
 31 32  1  0
 32 33  1  0
 33 34  2  0
 35 34  1  0
 35 39  1  0
 36 35  2  0
 37 32  2  0
 37 36  1  0
 38 37  1  0
 40 41  1  0
 41 44  1  0
 41 43  1  0
 42 40  2  0
 45 46  1  0
 45 20  1  0
 47 45  1  0
 49 48  1  0
 49 51  1  0
 50 48  2  0
 52 49  1  0
 54 55  1  0
 54 53  2  0
 56 67  2  0
 57 55  1  0
 57 62  1  0
 58 66  1  0
 58 68  1  0
 59 65  1  0
 59 61  1  0
 60 66  1  0
 61 60  1  0
 62 61  2  0
 63 57  2  0
 64 63  1  0
 64 59  2  0
 65 58  1  0
 66 56  1  0
 68 70  2  0
 69 68  1  0
 71 69  1  0
 72 81  2  0
 72 77  1  0
 73 69  1  0
 73 77  1  0
 74 73  1  0
 75 76  1  0
 75 74  1  0
 76 72  1  0
 77 78  2  0
 78 79  1  0
 80 79  2  0
 81 80  1  0
 82 56  1  0
 82 87  1  0
 82 83  1  0
 83 86  1  1
 83 84  1  0
 85 83  1  0
 87 90  1  0
 88 92  1  0
 88 87  1  0
 89 88  2  0
 92 91  1  0
 94 92  1  0
 94 95  1  0
 94 93  1  0
M  ISO  4  10 100  18 100  54 101  55 101
M  END
>  <TORSDO>  (49) 
F 19

>  <SCORE>  (49) 
-14.426

>  <name>  (49) 
48

>  <ligand_id>  (49) 
48

>  <original_smiles>  (49) 
[H]c1c([H])c([H])c2c(c1[H])C([H])([H])C([H])([H])C([H])([H])C2([H])N([H])C(=O)C1([H])N(C(=O)C([H])(N([H])C(=O)C([H])(N([H])C([H])([H])[H])C([H])([H])[H])C(C([H])([H])[H])(C([H])([H])[H])C([H])([H])[H])C([H])([H])c2c([H])c(OC([H])([H])C([H])([H])C3([H])C([H])([H])C([H])([H])C4(C([H])([H])C([H])([H])C4([H])N([H])C(=O)N4C([H])([H])C([H])([H])C([H])([H])C([H])(n5nc(-c6c([H])c([H])c(Oc7c([H])c([H])c(F)c([H])c7F)c([H])c6[H])c(C(=O)N([H])[H])c5N([H])[H])C4([H])[H])C([H])(C(=O)N([H])[H])C3([H])[H])c([H])c([H])c2C1([H])[H]

>  <smiles>  (49) 
[H]c1c([H])c([H])c2c(c1[H])C([H])([H])C([H])([H])C([H])([H])C2([H])N([H])C(=O)C1([H])N(C(=O)C([H])(N([H])C(=O)C([H])(N([H])C([H])([H])[H])C([H])([H])[H])C(C([H])([H])[H])(C([H])([H])[H])C([H])([H])[H])C([H])([H])c2c([H])c(OC([H])([H])C([H])([H])C3([H])C([H])([H])C([H])([H])C4(C([H])([H])C([H])([H])C4([H])N([H])C(=O)N4C([H])([H])C([H])([H])C([H])([H])C([H])(n5nc(-c6c([H])c([H])c(Oc7c([H])c([H])c(F)c([H])c7F)c([H])c6[H])c(C(=O)N([H])[H])c5N([H])[H])C4([H])[H])C([H])(C(=O)N([H])[H])C3([H])[H])c([H])c([H])c2C1([H])[H]

$$$$
49:0:0
     RDKit          3D

 94103  0  0  1  0  0  0  0  0999 V2000
  -29.4890  -20.4750   21.9140 C   0  0  0  0  0  2  0  0  0  0  0  0
  -29.8500  -18.9200   21.7640 C   0  0  0  0  0  2  0  0  0  0  0  0
  -27.9690  -20.3070   19.2270 C   0  0  0  0  0  2  0  0  0  0  0  0
  -29.5940  -21.3060   20.5890 C   0  0  0  0  0  3  0  0  0  0  0  0
  -29.4310  -19.9480   19.6420 C   0  0  0  0  0  3  0  0  0  0  0  0
  -28.4950  -22.6320   20.3130 C   0  0  0  0  0  3  0  0  0  0  0  0
  -30.0180  -18.4270   20.2900 C   0  0  0  0  0  3  0  0  0  0  0  0
  -27.7790  -21.9110   19.1170 C   0  0  0  0  0  3  0  0  0  0  0  0
  -30.4920  -15.4950   19.9140 C   0  0  0  0  0  0  0  0  0  0  0  0
  -30.4180  -13.0650   18.9700 C   0  0  0  0  0  2  0  0  0  0  0  0
  -29.4200  -12.8500   17.8040 C   0  0  0  0  0  2  0  0  0  0  0  0
  -28.0060  -12.5610   18.3400 C   0  0  0  0  0  2  0  0  0  0  0  0
  -27.6240  -13.5050   19.5060 C   0  0  0  0  0  3  0  0  0  0  0  0
  -28.7440  -13.6520   20.5560 C   0  0  0  0  0  2  0  0  0  0  0  0
  -29.9150  -14.1900   19.8430 N   0  0  0  0  0  0  0  0  0  0  0  0
  -31.7070  -15.4820   19.6690 O   0  0  0  0  0  0  0  0  0  0  0  0
  -29.7390  -16.7790   20.0590 N   0  0  0  0  0  0  0  0  0  0  0  0
  -28.7520  -16.5770   20.1140 H   0  0  0  0  0  0  0  0  0  0  0  0
  -25.3100  -14.0380   20.4320 C   0  0  0  0  0  0  0  0  0  0  0  0
  -24.2750  -13.2500   20.8480 C   0  0  0  0  0  0  0  0  0  0  0  0
  -24.7390  -11.9010   20.7520 C   0  0  0  0  0  0  0  0  0  0  0  0
  -26.3350  -13.1720   20.0980 N   0  0  0  0  0  0  0  0  0  0  0  0
  -26.0090  -11.8780   20.3570 N   0  0  0  0  0  0  0  0  0  0  0  0
  -24.0250  -10.6340   20.9520 C   0  0  0  0  0  0  0  0  0  0  0  0
  -24.4650   -9.6760   21.8920 C   0  0  0  0  0  3  0  0  0  0  0  0
  -23.7470   -8.4760   22.0820 C   0  0  0  0  0  3  0  0  0  0  0  0
  -22.5730   -8.2240   21.3320 C   0  0  0  0  0  0  0  0  0  0  0  0
  -22.1510   -9.1710   20.3820 C   0  0  0  0  0  3  0  0  0  0  0  0
  -22.8700  -10.3630   20.1900 C   0  0  0  0  0  3  0  0  0  0  0  0
  -21.8260   -7.0770   21.4310 O   0  0  0  0  0  0  0  0  0  0  0  0
  -21.7390   -6.3730   22.6070 C   0  0  0  0  0  0  0  0  0  0  0  0
  -21.2110   -6.9500   23.7820 C   0  0  0  0  0  3  0  0  0  0  0  0
  -21.0750   -6.1720   24.9490 C   0  0  0  0  0  3  0  0  0  0  0  0
  -21.4560   -4.8170   24.9400 C   0  0  0  0  0  0  0  0  0  0  0  0
  -21.9760   -4.2390   23.7690 C   0  0  0  0  0  3  0  0  0  0  0  0
  -22.1140   -5.0150   22.6040 C   0  0  0  0  0  0  0  0  0  0  0  0
  -22.5950   -4.4470   21.4720 F   0  0  0  0  0  0  0  0  0  0  0  0
  -21.3190   -4.0660   26.0580 F   0  0  0  0  0  0  0  0  0  0  0  0
  -22.8980  -13.7180   21.2150 C   0  0  0  0  0  0  0  0  0  0  0  0
  -22.2220  -12.9980   22.1020 N   0  0  0  0  0  0  0  0  0  0  0  0
  -22.4330  -14.7590   20.7500 O   0  0  0  0  0  0  0  0  0  0  0  0
  -22.6130  -12.1560   22.4970 H   0  0  0  0  0  0  0  0  0  0  0  0
  -21.3010  -13.2940   22.3920 H   0  0  0  0  0  0  0  0  0  0  0  0
  -25.4580  -15.4130   20.2810 N   0  0  0  0  0  0  0  0  0  0  0  0
  -24.6940  -16.0570   20.4540 H   0  0  0  0  0  0  0  0  0  0  0  0
  -26.2690  -15.8640   19.8780 H   0  0  0  0  0  0  0  0  0  0  0  0
  -25.5940  -22.3540   18.0010 C   0  0  0  0  0  0  0  0  0  0  0  0
  -26.3600  -22.2580   19.0930 N   0  0  0  0  0  0  0  0  0  0  0  0
  -26.0130  -22.1210   16.8660 O   0  0  0  0  0  0  0  0  0  0  0  0
  -25.9210  -22.4630   19.9800 H   0  0  0  0  0  0  0  0  0  0  0  0
  -23.1920  -22.3170   17.1110 C   0  0  0  0  0  1  0  0  0  0  0  0
  -24.1420  -22.7830   18.2250 C   0  0  0  0  0  2  0  0  0  0  0  0
  -28.2030  -24.3950   20.7750 C   0  0  0  0  0  2  0  0  0  0  0  0
  -28.3990  -25.9950   20.3860 O   0  0  0  0  0  0  0  0  0  0  0  0
  -24.6870  -31.9790   23.2690 C   0  0  0  0  0  0  0  0  0  0  0  0
  -27.3650  -27.0800   20.3740 C   0  0  0  0  0  0  0  0  0  0  0  0
  -23.5450  -30.5480   21.6220 C   0  0  0  0  0  3  0  0  0  0  0  0
  -25.0430  -28.9390   20.2570 C   0  0  0  0  0  0  0  0  0  0  0  0
  -26.1130  -30.7870   21.5270 C   0  0  0  0  0  2  0  0  0  0  0  0
  -26.2160  -29.3660   20.8930 C   0  0  0  0  0  0  0  0  0  0  0  0
  -27.3740  -28.4610   20.9200 C   0  0  0  0  0  3  0  0  0  0  0  0
  -26.1590  -26.8060   19.6930 C   0  0  0  0  0  3  0  0  0  0  0  0
  -25.0400  -27.6800   19.6360 C   0  0  0  0  0  3  0  0  0  0  0  0
  -23.8140  -29.8480   20.2610 C   0  0  0  0  0  2  0  0  0  0  0  0
  -24.8020  -31.1340   22.1930 N   0  0  0  0  0  0  0  0  0  0  0  0
  -23.5830  -32.2590   23.7640 O   0  0  0  0  0  0  0  0  0  0  0  0
  -22.8420  -29.5560   22.5860 C   0  0  0  0  0  0  0  0  0  0  0  0
  -21.5250  -29.3410   22.4080 N   0  0  0  0  0  0  0  0  0  0  0  0
  -23.4900  -28.9800   23.4630 O   0  0  0  0  0  0  0  0  0  0  0  0
  -21.0530  -29.8580   21.6800 H   0  0  0  0  0  0  0  0  0  0  0  0
  -18.1760  -27.9890   22.7770 C   0  0  0  0  0  0  0  0  0  0  0  0
  -20.7020  -28.3940   23.1700 C   0  0  0  0  0  3  0  0  0  0  0  0
  -20.9040  -26.9460   22.6630 C   0  0  0  0  0  2  0  0  0  0  0  0
  -19.8800  -26.5300   21.6040 C   0  0  0  0  0  2  0  0  0  0  0  0
  -18.4570  -26.6280   22.1630 C   0  0  0  0  0  2  0  0  0  0  0  0
  -19.2310  -28.8250   23.2340 C   0  0  0  0  0  0  0  0  0  0  0  0
  -18.9150  -30.0930   23.7680 C   0  0  0  0  0  3  0  0  0  0  0  0
  -17.5780  -30.5300   23.8460 C   0  0  0  0  0  3  0  0  0  0  0  0
  -16.5390  -29.6940   23.4030 C   0  0  0  0  0  3  0  0  0  0  0  0
  -16.8380  -28.4250   22.8740 C   0  0  0  0  0  3  0  0  0  0  0  0
  -25.9360  -32.6450   23.9210 C   0  0  0  0  0  3  0  0  0  0  0  0
  -26.4180  -31.9080   25.2310 C   0  0  1  0  0  0  0  0  0  0  0  0
  -25.2860  -31.6490   26.2540 C   0  0  0  0  0  1  0  0  0  0  0  0
  -27.0650  -30.5460   24.8930 C   0  0  0  0  0  1  0  0  0  0  0  0
  -27.5090  -32.7510   25.9340 C   0  0  0  0  0  1  0  0  0  0  0  0
  -25.5940  -34.0470   24.2280 N   0  0  0  0  0  0  0  0  0  0  0  0
  -25.9300  -35.1020   23.4740 C   0  0  0  0  0  0  0  0  0  0  0  0
  -26.6220  -34.9990   22.4570 O   0  0  0  0  0  0  0  0  0  0  0  0
  -24.9850  -34.2000   25.0180 H   0  0  0  0  0  0  0  0  0  0  0  0
  -24.1910  -36.8800   23.0790 C   0  0  0  0  0  1  0  0  0  0  0  0
  -25.4210  -36.4890   23.9150 C   0  0  0  0  0  3  0  0  0  0  0  0
  -27.5230  -37.4090   24.7900 C   0  0  0  0  0  1  0  0  0  0  0  0
  -26.4440  -37.5530   23.8160 N   0  0  0  0  0  0  0  0  0  0  0  0
  -26.0220  -38.4700   23.9430 H   0  0  0  0  0  0  0  0  0  0  0  0
  2  1  1  0
  4  1  1  0
  5  3  1  0
  5  7  1  0
  5  4  1  0
  6  4  1  0
  6 53  1  0
  7 17  1  0
  7  2  1  0
  8 48  1  0
  8  3  1  0
  8  6  1  0
  9 17  1  0
 10 15  1  0
 11 12  1  0
 11 10  1  0
 13 12  1  0
 13 22  1  0
 13 14  1  0
 15  9  1  0
 15 14  1  0
 16  9  2  0
 17 18  1  0
 19 20  2  0
 20 39  1  0
 21 20  1  0
 21 24  1  0
 22 23  1  0
 22 19  1  0
 23 21  2  0
 24 25  1  0
 25 26  2  0
 27 30  1  0
 27 26  1  0
 28 27  2  0
 29 28  1  0
 29 24  2  0
 30 31  1  0
 31 32  1  0
 32 33  2  0
 34 33  1  0
 34 38  1  0
 35 34  2  0
 36 31  2  0
 36 35  1  0
 37 36  1  0
 39 40  1  0
 40 43  1  0
 40 42  1  0
 41 39  2  0
 44 19  1  0
 44 45  1  0
 46 44  1  0
 47 52  1  0
 47 48  1  0
 48 50  1  0
 49 47  2  0
 51 52  1  0
 54 53  1  0
 55 66  2  0
 56 54  1  0
 56 61  1  0
 57 65  1  0
 57 67  1  0
 58 64  1  0
 58 60  1  0
 59 65  1  0
 60 61  2  0
 60 59  1  0
 62 56  2  0
 63 62  1  0
 63 58  2  0
 64 57  1  0
 65 55  1  0
 67 69  2  0
 68 67  1  0
 70 68  1  0
 71 80  2  0
 71 76  1  0
 72 68  1  0
 72 76  1  0
 73 72  1  0
 74 75  1  0
 74 73  1  0
 75 71  1  0
 76 77  2  0
 77 78  1  0
 79 78  2  0
 80 79  1  0
 81 55  1  0
 81 86  1  0
 81 82  1  0
 82 85  1  1
 82 83  1  0
 84 82  1  0
 86 89  1  0
 87 91  1  0
 87 86  1  0
 88 87  2  0
 91 90  1  0
 93 91  1  0
 93 94  1  0
 93 92  1  0
M  ISO  4   9 100  17 100  53 101  54 101
M  END
>  <TORSDO>  (50) 
F 19

>  <SCORE>  (50) 
-14.521

>  <name>  (50) 
49

>  <ligand_id>  (50) 
49

>  <original_smiles>  (50) 
[H]c1c([H])c([H])c2c(c1[H])C([H])([H])C([H])([H])C([H])([H])C2([H])N([H])C(=O)C1([H])N(C(=O)C([H])(N([H])C(=O)C([H])(N([H])C([H])([H])[H])C([H])([H])[H])C(C([H])([H])[H])(C([H])([H])[H])C([H])([H])[H])C([H])([H])c2c([H])c(OC([H])([H])C3([H])C([H])(N([H])C(=O)C([H])([H])C([H])([H])[H])C([H])([H])C4([H])C([H])(N([H])C(=O)N5C([H])([H])C([H])([H])C([H])([H])C([H])(n6nc(-c7c([H])c([H])c(Oc8c([H])c([H])c(F)c([H])c8F)c([H])c7[H])c(C(=O)N([H])[H])c6N([H])[H])C5([H])[H])C([H])([H])C([H])([H])C34[H])c([H])c([H])c2C1([H])[H]

>  <smiles>  (50) 
[H]c1c([H])c([H])c2c(c1[H])C([H])([H])C([H])([H])C([H])([H])C2([H])N([H])C(=O)C1([H])N(C(=O)C([H])(N([H])C(=O)C([H])(N([H])C([H])([H])[H])C([H])([H])[H])C(C([H])([H])[H])(C([H])([H])[H])C([H])([H])[H])C([H])([H])c2c([H])c(OC([H])([H])C3([H])C([H])(N([H])C(=O)C([H])([H])C([H])([H])[H])C([H])([H])C4([H])C([H])(N([H])C(=O)N5C([H])([H])C([H])([H])C([H])([H])C([H])(n6nc(-c7c([H])c([H])c(Oc8c([H])c([H])c(F)c([H])c8F)c([H])c7[H])c(C(=O)N([H])[H])c6N([H])[H])C5([H])[H])C([H])([H])C([H])([H])C34[H])c([H])c([H])c2C1([H])[H]

$$$$
50:0:0
     RDKit          3D

 92101  0  0  1  0  0  0  0  0999 V2000
  -28.1480  -17.9570   21.0910 C   0  0  0  0  0  2  0  0  0  0  0  0
  -27.7930  -17.1620   22.3510 C   0  0  0  0  0  2  0  0  0  0  0  0
  -28.6230  -18.9820   24.0790 C   0  0  0  0  0  2  0  0  0  0  0  0
  -28.9610  -18.9140   21.9730 C   0  0  0  0  0  3  0  0  0  0  0  0
  -28.2970  -19.9330   22.9200 C   0  0  0  0  0  3  0  0  0  0  0  0
  -28.9620  -17.8490   23.0890 C   0  0  2  0  0  0  0  0  0  0  0  0
  -28.7870  -21.3830   22.9700 C   0  0  0  0  0  2  0  0  0  0  0  0
  -28.3250  -22.2200   21.7640 C   0  0  0  0  0  2  0  0  0  0  0  0
  -28.7130  -23.5800   21.9410 O   0  0  0  0  0  0  0  0  0  0  0  0
  -28.2810  -24.4280   20.8800 C   0  0  0  0  0  2  0  0  0  0  0  0
  -28.6760  -25.8890   21.1740 C   0  0  0  0  0  2  0  0  0  0  0  0
  -28.4200  -26.7380   20.0530 O   0  0  0  0  0  0  0  0  0  0  0  0
  -24.6110  -31.8700   23.2100 C   0  0  0  0  0  0  0  0  0  0  0  0
  -27.2490  -27.4540   20.1110 C   0  0  0  0  0  0  0  0  0  0  0  0
  -23.4020  -30.4880   21.5460 C   0  0  0  0  0  3  0  0  0  0  0  0
  -24.8570  -28.9490   20.1220 C   0  0  0  0  0  0  0  0  0  0  0  0
  -25.9270  -30.8400   21.3650 C   0  0  0  0  0  2  0  0  0  0  0  0
  -26.0100  -29.4710   20.7220 C   0  0  0  0  0  0  0  0  0  0  0  0
  -27.2100  -28.7250   20.7210 C   0  0  0  0  0  3  0  0  0  0  0  0
  -26.0860  -26.9390   19.5050 C   0  0  0  0  0  3  0  0  0  0  0  0
  -24.8860  -27.6790   19.5170 C   0  0  0  0  0  3  0  0  0  0  0  0
  -23.6160  -29.8120   20.1630 C   0  0  0  0  0  2  0  0  0  0  0  0
  -24.6630  -31.0820   22.0990 N   0  0  0  0  0  0  0  0  0  0  0  0
  -23.5300  -32.1440   23.7500 O   0  0  0  0  0  0  0  0  0  0  0  0
  -22.7410  -29.4660   22.4980 C   0  0  0  0  0  0  0  0  0  0  0  0
  -21.4140  -29.3030   22.3720 N   0  0  0  0  0  0  0  0  0  0  0  0
  -23.4180  -28.8220   23.3030 O   0  0  0  0  0  0  0  0  0  0  0  0
  -20.9320  -29.8730   21.6910 H   0  0  0  0  0  0  0  0  0  0  0  0
  -18.0280  -28.1380   22.8470 C   0  0  0  0  0  0  0  0  0  0  0  0
  -20.5860  -28.3670   23.1310 C   0  0  0  0  0  3  0  0  0  0  0  0
  -20.6780  -26.9400   22.5410 C   0  0  0  0  0  2  0  0  0  0  0  0
  -19.5760  -26.6390   21.5200 C   0  0  0  0  0  2  0  0  0  0  0  0
  -18.1930  -26.7920   22.1600 C   0  0  0  0  0  2  0  0  0  0  0  0
  -19.1530  -28.8840   23.2880 C   0  0  0  0  0  0  0  0  0  0  0  0
  -18.9460  -30.1450   23.8900 C   0  0  0  0  0  3  0  0  0  0  0  0
  -17.6460  -30.6580   24.0550 C   0  0  0  0  0  3  0  0  0  0  0  0
  -16.5350  -29.9070   23.6310 C   0  0  0  0  0  3  0  0  0  0  0  0
  -16.7270  -28.6500   23.0320 C   0  0  0  0  0  3  0  0  0  0  0  0
  -25.9030  -32.4820   23.8410 C   0  0  0  0  0  3  0  0  0  0  0  0
  -25.5920  -33.8610   24.2360 N   0  0  0  0  0  0  0  0  0  0  0  0
  -25.9040  -34.9460   23.5150 C   0  0  0  0  0  0  0  0  0  0  0  0
  -26.5580  -34.8910   22.4690 O   0  0  0  0  0  0  0  0  0  0  0  0
  -25.0100  -33.9760   25.0520 H   0  0  0  0  0  0  0  0  0  0  0  0
  -24.1510  -36.7310   23.2640 C   0  0  0  0  0  1  0  0  0  0  0  0
  -25.4120  -36.3090   24.0340 C   0  0  0  0  0  3  0  0  0  0  0  0
  -27.5590  -37.1810   24.8470 C   0  0  0  0  0  1  0  0  0  0  0  0
  -26.4310  -37.3780   23.9400 N   0  0  0  0  0  0  0  0  0  0  0  0
  -26.0200  -38.2860   24.1400 H   0  0  0  0  0  0  0  0  0  0  0  0
  -26.4480  -31.6580   25.0710 C   0  0  1  0  0  0  0  0  0  0  0  0
  -25.3740  -31.3660   26.1460 C   0  0  0  0  0  1  0  0  0  0  0  0
  -27.0330  -30.3040   24.6060 C   0  0  0  0  0  1  0  0  0  0  0  0
  -27.6070  -32.4280   25.7450 C   0  0  0  0  0  1  0  0  0  0  0  0
  -30.2350  -17.0290   23.3910 C   0  0  0  0  0  2  0  0  0  0  0  0
  -30.9480  -16.3580   22.1920 C   0  0  0  0  0  2  0  0  0  0  0  0
  -30.7610  -14.3660   20.7200 C   0  0  0  0  0  0  0  0  0  0  0  0
  -30.4250  -12.3000   19.4050 C   0  0  0  0  0  2  0  0  0  0  0  0
  -29.4900  -12.5320   18.2030 C   0  0  0  0  0  2  0  0  0  0  0  0
  -28.0150  -12.3830   18.6170 C   0  0  0  0  0  2  0  0  0  0  0  0
  -27.6710  -13.2020   19.8890 C   0  0  0  0  0  3  0  0  0  0  0  0
  -28.7050  -12.9330   21.0040 C   0  0  0  0  0  2  0  0  0  0  0  0
  -30.0480  -13.2350   20.4770 N   0  0  0  0  0  0  0  0  0  0  0  0
  -31.7750  -14.6770   20.0850 O   0  0  0  0  0  0  0  0  0  0  0  0
  -30.3170  -15.1170   21.7390 N   0  0  0  0  0  0  0  0  0  0  0  0
  -29.4950  -14.7990   22.2290 H   0  0  0  0  0  0  0  0  0  0  0  0
  -25.2630  -13.8150   20.5670 C   0  0  0  0  0  0  0  0  0  0  0  0
  -24.1870  -13.0430   20.9160 C   0  0  0  0  0  0  0  0  0  0  0  0
  -24.6430  -11.6900   20.8750 C   0  0  0  0  0  0  0  0  0  0  0  0
  -26.3080  -12.9320   20.3420 N   0  0  0  0  0  0  0  0  0  0  0  0
  -25.9350  -11.6480   20.5790 N   0  0  0  0  0  0  0  0  0  0  0  0
  -23.9090  -10.4280   21.0430 C   0  0  0  0  0  0  0  0  0  0  0  0
  -24.3630   -9.4190   21.9210 C   0  0  0  0  0  3  0  0  0  0  0  0
  -23.6290   -8.2230   22.0770 C   0  0  0  0  0  3  0  0  0  0  0  0
  -22.4280   -8.0290   21.3550 C   0  0  0  0  0  0  0  0  0  0  0  0
  -21.9920   -9.0270   20.4660 C   0  0  0  0  0  3  0  0  0  0  0  0
  -22.7270  -10.2140   20.3070 C   0  0  0  0  0  3  0  0  0  0  0  0
  -21.6640   -6.8890   21.4240 O   0  0  0  0  0  0  0  0  0  0  0  0
  -21.6850   -6.0740   22.5270 C   0  0  0  0  0  0  0  0  0  0  0  0
  -21.4020   -6.5640   23.8200 C   0  0  0  0  0  3  0  0  0  0  0  0
  -21.3650   -5.6790   24.9170 C   0  0  0  0  0  3  0  0  0  0  0  0
  -21.6040   -4.3060   24.7220 C   0  0  0  0  0  0  0  0  0  0  0  0
  -21.8820   -3.8150   23.4340 C   0  0  0  0  0  3  0  0  0  0  0  0
  -21.9190   -4.6970   22.3400 C   0  0  0  0  0  0  0  0  0  0  0  0
  -22.1660   -4.2150   21.0970 F   0  0  0  0  0  0  0  0  0  0  0  0
  -21.5620   -3.4540   25.7730 F   0  0  0  0  0  0  0  0  0  0  0  0
  -22.7890  -13.5240   21.1820 C   0  0  0  0  0  0  0  0  0  0  0  0
  -22.0530  -12.8240   22.0380 N   0  0  0  0  0  0  0  0  0  0  0  0
  -22.3570  -14.5540   20.6660 O   0  0  0  0  0  0  0  0  0  0  0  0
  -22.4130  -11.9880   22.4740 H   0  0  0  0  0  0  0  0  0  0  0  0
  -21.1170  -13.1300   22.2610 H   0  0  0  0  0  0  0  0  0  0  0  0
  -25.4380  -15.1860   20.4080 N   0  0  0  0  0  0  0  0  0  0  0  0
  -24.6820  -15.8510   20.5360 H   0  0  0  0  0  0  0  0  0  0  0  0
  -26.3060  -15.6250   20.1310 H   0  0  0  0  0  0  0  0  0  0  0  0
  1  2  1  0
  2  6  1  0
  4  1  1  0
  4  5  1  0
  4  6  1  0
  5  7  1  0
  5  3  1  0
  6 53  1  1
  6  3  1  0
  8  9  1  0
  8  7  1  0
 10 11  1  0
 10  9  1  0
 12 14  1  0
 12 11  1  0
 13 24  2  0
 14 19  1  0
 15 23  1  0
 15 25  1  0
 16 22  1  0
 16 18  1  0
 17 23  1  0
 18 17  1  0
 19 18  2  0
 20 21  1  0
 20 14  2  0
 21 16  2  0
 22 15  1  0
 23 13  1  0
 25 27  2  0
 26 25  1  0
 28 26  1  0
 29 38  2  0
 29 34  1  0
 30 26  1  0
 30 34  1  0
 31 30  1  0
 32 33  1  0
 32 31  1  0
 33 29  1  0
 34 35  2  0
 35 36  1  0
 37 36  2  0
 38 37  1  0
 39 13  1  0
 39 40  1  0
 39 49  1  0
 40 43  1  0
 41 45  1  0
 41 40  1  0
 42 41  2  0
 45 44  1  0
 47 45  1  0
 47 48  1  0
 47 46  1  0
 49 52  1  1
 49 50  1  0
 51 49  1  0
 54 53  1  0
 55 63  1  0
 56 61  1  0
 57 58  1  0
 57 56  1  0
 59 58  1  0
 59 68  1  0
 59 60  1  0
 61 55  1  0
 61 60  1  0
 62 55  2  0
 63 54  1  0
 63 64  1  0
 65 66  2  0
 66 85  1  0
 67 66  1  0
 67 70  1  0
 68 65  1  0
 68 69  1  0
 69 67  2  0
 70 71  1  0
 71 72  2  0
 73 76  1  0
 73 72  1  0
 74 73  2  0
 75 74  1  0
 75 70  2  0
 76 77  1  0
 77 78  1  0
 78 79  2  0
 80 79  1  0
 80 84  1  0
 81 80  2  0
 82 77  2  0
 82 81  1  0
 83 82  1  0
 85 86  1  0
 86 89  1  0
 86 88  1  0
 87 85  2  0
 90 91  1  0
 90 65  1  0
 92 90  1  0
M  ISO  4  11 101  12 101  55 100  63 100
M  END
>  <TORSDO>  (51) 
F 23

>  <SCORE>  (51) 
10.839

>  <name>  (51) 
50

>  <ligand_id>  (51) 
50

>  <original_smiles>  (51) 
[H]c1c([H])c([H])c2c(c1[H])C([H])([H])C([H])([H])C([H])([H])C2([H])N([H])C(=O)C1([H])N(C(=O)C([H])(N([H])C(=O)C([H])(N([H])C([H])([H])[H])C([H])([H])[H])C(C([H])([H])[H])(C([H])([H])[H])C([H])([H])[H])C([H])([H])c2c([H])c(OC([H])([H])C([H])([H])OC([H])([H])C([H])([H])C3([H])C([H])([H])C4(C([H])([H])C([H])([H])N([H])C(=O)N5C([H])([H])C([H])([H])C([H])([H])C([H])(n6nc(-c7c([H])c([H])c(Oc8c([H])c([H])c(F)c([H])c8F)c([H])c7[H])c(C(=O)N([H])[H])c6N([H])[H])C5([H])[H])C([H])([H])C([H])([H])C34[H])c([H])c([H])c2C1([H])[H]

>  <smiles>  (51) 
[H]c1c([H])c([H])c2c(c1[H])C([H])([H])C([H])([H])C([H])([H])C2([H])N([H])C(=O)C1([H])N(C(=O)C([H])(N([H])C(=O)C([H])(N([H])C([H])([H])[H])C([H])([H])[H])C(C([H])([H])[H])(C([H])([H])[H])C([H])([H])[H])C([H])([H])c2c([H])c(OC([H])([H])C([H])([H])OC([H])([H])C([H])([H])C3([H])C([H])([H])C4(C([H])([H])C([H])([H])N([H])C(=O)N5C([H])([H])C([H])([H])C([H])([H])C([H])(n6nc(-c7c([H])c([H])c(Oc8c([H])c([H])c(F)c([H])c8F)c([H])c7[H])c(C(=O)N([H])[H])c6N([H])[H])C5([H])[H])C([H])([H])C([H])([H])C34[H])c([H])c([H])c2C1([H])[H]

$$$$
51:0:0
     RDKit          3D

 92101  0  0  1  0  0  0  0  0999 V2000
  -30.0860  -20.9660   18.9510 C   0  0  0  0  0  2  0  0  0  0  0  0
  -29.9990  -17.9760   21.4490 C   0  0  0  0  0  2  0  0  0  0  0  0
  -31.0760  -17.3300   19.2510 C   0  0  0  0  0  2  0  0  0  0  0  0
  -31.9600  -19.4750   20.5100 C   0  0  0  0  0  2  0  0  0  0  0  0
  -30.7650  -16.8470   20.6970 C   0  0  0  0  0  3  0  0  0  0  0  0
  -30.5070  -19.3770   20.9930 C   0  0  0  0  0  3  0  0  0  0  0  0
  -31.3730  -18.8380   19.2400 C   0  0  0  0  0  3  0  0  0  0  0  0
  -30.1490  -19.5980   19.5690 N   0  0  2  0  0  4  0  0  0  0  0  0
  -29.3110  -19.0960   19.3160 H   0  0  0  0  0  0  0  0  0  0  0  0
  -30.7530  -14.3920   20.3240 C   0  0  0  0  0  0  0  0  0  0  0  0
  -30.3250  -12.2580   19.1860 C   0  0  0  0  0  2  0  0  0  0  0  0
  -29.3810  -12.4990   17.9920 C   0  0  0  0  0  2  0  0  0  0  0  0
  -27.9130  -12.3910   18.4440 C   0  0  0  0  0  2  0  0  0  0  0  0
  -27.6100  -13.2320   19.7130 C   0  0  0  0  0  3  0  0  0  0  0  0
  -28.6820  -13.0220   20.8090 C   0  0  0  0  0  2  0  0  0  0  0  0
  -30.0020  -13.2660   20.2080 N   0  0  0  0  0  0  0  0  0  0  0  0
  -31.9010  -14.4650   19.8850 O   0  0  0  0  0  0  0  0  0  0  0  0
  -30.1350  -15.5090   20.7530 N   0  0  0  0  0  0  0  0  0  0  0  0
  -29.1810  -15.4290   21.0720 H   0  0  0  0  0  0  0  0  0  0  0  0
  -25.2300  -13.8600   20.4590 C   0  0  0  0  0  0  0  0  0  0  0  0
  -24.1610  -13.1000   20.8430 C   0  0  0  0  0  0  0  0  0  0  0  0
  -24.6070  -11.7430   20.8070 C   0  0  0  0  0  0  0  0  0  0  0  0
  -26.2640  -12.9710   20.2150 N   0  0  0  0  0  0  0  0  0  0  0  0
  -25.8920  -11.6910   20.4830 N   0  0  0  0  0  0  0  0  0  0  0  0
  -23.8700  -10.4870   21.0060 C   0  0  0  0  0  0  0  0  0  0  0  0
  -24.3020   -9.5170   21.9390 C   0  0  0  0  0  3  0  0  0  0  0  0
  -23.5660   -8.3280   22.1260 C   0  0  0  0  0  3  0  0  0  0  0  0
  -22.3850   -8.0990   21.3810 C   0  0  0  0  0  0  0  0  0  0  0  0
  -21.9720   -9.0570   20.4390 C   0  0  0  0  0  3  0  0  0  0  0  0
  -22.7080  -10.2380   20.2490 C   0  0  0  0  0  3  0  0  0  0  0  0
  -21.6200   -6.9620   21.4780 O   0  0  0  0  0  0  0  0  0  0  0  0
  -21.5740   -6.2220   22.6310 C   0  0  0  0  0  0  0  0  0  0  0  0
  -21.1550   -6.7800   23.8590 C   0  0  0  0  0  3  0  0  0  0  0  0
  -21.0550   -5.9670   25.0060 C   0  0  0  0  0  3  0  0  0  0  0  0
  -21.3660   -4.5950   24.9270 C   0  0  0  0  0  0  0  0  0  0  0  0
  -21.7800   -4.0370   23.7040 C   0  0  0  0  0  3  0  0  0  0  0  0
  -21.8790   -4.8470   22.5590 C   0  0  0  0  0  0  0  0  0  0  0  0
  -22.2570   -4.2990   21.3790 F   0  0  0  0  0  0  0  0  0  0  0  0
  -21.2630   -3.8110   26.0250 F   0  0  0  0  0  0  0  0  0  0  0  0
  -22.7720  -13.5900   21.1340 C   0  0  0  0  0  0  0  0  0  0  0  0
  -22.0470  -12.9010   22.0070 N   0  0  0  0  0  0  0  0  0  0  0  0
  -22.3370  -14.6210   20.6180 O   0  0  0  0  0  0  0  0  0  0  0  0
  -22.4140  -12.0660   22.4420 H   0  0  0  0  0  0  0  0  0  0  0  0
  -21.1160  -13.2110   22.2450 H   0  0  0  0  0  0  0  0  0  0  0  0
  -25.4080  -15.2300   20.2770 N   0  0  0  0  0  0  0  0  0  0  0  0
  -24.6500  -15.8930   20.3940 H   0  0  0  0  0  0  0  0  0  0  0  0
  -26.2580  -15.6570   19.9290 H   0  0  0  0  0  0  0  0  0  0  0  0
  -29.8310  -22.1920   19.8670 C   0  0  0  0  0  2  0  0  0  0  0  0
  -30.0480  -23.4930   19.0570 C   0  0  0  0  0  2  0  0  0  0  0  0
  -29.8450  -24.8230   19.8130 C   0  0  0  0  0  2  0  0  0  0  0  0
  -28.4290  -25.3940   19.6820 C   0  0  0  0  0  2  0  0  0  0  0  0
  -28.4150  -26.7240   20.1960 O   0  0  0  0  0  0  0  0  0  0  0  0
  -24.5760  -31.8710   23.2400 C   0  0  0  0  0  0  0  0  0  0  0  0
  -27.2220  -27.4160   20.1840 C   0  0  0  0  0  0  0  0  0  0  0  0
  -23.3710  -30.4670   21.6010 C   0  0  0  0  0  3  0  0  0  0  0  0
  -24.8250  -28.9180   20.1920 C   0  0  0  0  0  0  0  0  0  0  0  0
  -25.8980  -30.8170   21.4120 C   0  0  0  0  0  2  0  0  0  0  0  0
  -25.9820  -29.4430   20.7800 C   0  0  0  0  0  0  0  0  0  0  0  0
  -27.1810  -28.6980   20.7760 C   0  0  0  0  0  3  0  0  0  0  0  0
  -26.0380  -26.8970   19.6030 C   0  0  0  0  0  3  0  0  0  0  0  0
  -24.8460  -27.6430   19.6060 C   0  0  0  0  0  3  0  0  0  0  0  0
  -23.5810  -29.7760   20.2270 C   0  0  0  0  0  2  0  0  0  0  0  0
  -24.6320  -31.0670   22.1420 N   0  0  0  0  0  0  0  0  0  0  0  0
  -23.4940  -32.1470   23.7770 O   0  0  0  0  0  0  0  0  0  0  0  0
  -22.7150  -29.4500   22.5620 C   0  0  0  0  0  0  0  0  0  0  0  0
  -21.3890  -29.2730   22.4340 N   0  0  0  0  0  0  0  0  0  0  0  0
  -23.3950  -28.8220   23.3770 O   0  0  0  0  0  0  0  0  0  0  0  0
  -20.9000  -29.8350   21.7510 H   0  0  0  0  0  0  0  0  0  0  0  0
  -18.0040  -28.1210   22.9440 C   0  0  0  0  0  0  0  0  0  0  0  0
  -20.5650  -28.3440   23.2040 C   0  0  0  0  0  3  0  0  0  0  0  0
  -20.6450  -26.9120   22.6230 C   0  0  0  0  0  2  0  0  0  0  0  0
  -19.5330  -26.6090   21.6130 C   0  0  0  0  0  2  0  0  0  0  0  0
  -18.1570  -26.7710   22.2640 C   0  0  0  0  0  2  0  0  0  0  0  0
  -19.1340  -28.8670   23.3690 C   0  0  0  0  0  0  0  0  0  0  0  0
  -18.9350  -30.1340   23.9610 C   0  0  0  0  0  3  0  0  0  0  0  0
  -17.6380  -30.6530   24.1330 C   0  0  0  0  0  3  0  0  0  0  0  0
  -16.5220  -29.9020   23.7240 C   0  0  0  0  0  3  0  0  0  0  0  0
  -16.7060  -28.6390   23.1360 C   0  0  0  0  0  3  0  0  0  0  0  0
  -25.8620  -32.5020   23.8600 C   0  0  0  0  0  3  0  0  0  0  0  0
  -25.5550  -33.9020   24.1800 N   0  0  0  0  0  0  0  0  0  0  0  0
  -25.8930  -34.9500   23.4160 C   0  0  0  0  0  0  0  0  0  0  0  0
  -26.5660  -34.8390   22.3880 O   0  0  0  0  0  0  0  0  0  0  0  0
  -24.9580  -34.0620   24.9790 H   0  0  0  0  0  0  0  0  0  0  0  0
  -24.1740  -36.7470   23.0420 C   0  0  0  0  0  1  0  0  0  0  0  0
  -25.4070  -36.3420   23.8650 C   0  0  0  0  0  3  0  0  0  0  0  0
  -27.5370  -37.2200   24.7110 C   0  0  0  0  0  1  0  0  0  0  0  0
  -26.4430  -37.3900   23.7590 N   0  0  0  0  0  0  0  0  0  0  0  0
  -26.0390  -38.3120   23.9060 H   0  0  0  0  0  0  0  0  0  0  0  0
  -26.3780  -31.7340   25.1380 C   0  0  1  0  0  0  0  0  0  0  0  0
  -25.2850  -31.4940   26.2070 C   0  0  0  0  0  1  0  0  0  0  0  0
  -26.9650  -30.3570   24.7480 C   0  0  0  0  0  1  0  0  0  0  0  0
  -27.5260  -32.5320   25.8010 C   0  0  0  0  0  1  0  0  0  0  0  0
  1  8  1  0
  1 48  1  0
  3  5  1  0
  5 18  1  0
  5  2  1  0
  6  4  1  0
  6  2  1  0
  7  3  1  0
  7  8  1  0
  7  4  1  0
  8  6  1  0
  8  9  1  1
 10 18  1  0
 11 16  1  0
 12 13  1  0
 12 11  1  0
 14 13  1  0
 14 23  1  0
 14 15  1  0
 16 10  1  0
 16 15  1  0
 17 10  2  0
 18 19  1  0
 20 21  2  0
 21 40  1  0
 22 21  1  0
 22 25  1  0
 23 20  1  0
 23 24  1  0
 24 22  2  0
 25 26  1  0
 26 27  2  0
 28 31  1  0
 28 27  1  0
 29 28  2  0
 30 29  1  0
 30 25  2  0
 31 32  1  0
 32 33  1  0
 33 34  2  0
 35 34  1  0
 35 39  1  0
 36 35  2  0
 37 32  2  0
 37 36  1  0
 38 37  1  0
 40 41  1  0
 41 44  1  0
 41 43  1  0
 42 40  2  0
 45 46  1  0
 45 20  1  0
 47 45  1  0
 49 50  1  0
 49 48  1  0
 51 50  1  0
 51 52  1  0
 53 64  2  0
 54 52  1  0
 54 59  1  0
 55 63  1  0
 55 65  1  0
 56 62  1  0
 56 58  1  0
 57 63  1  0
 58 57  1  0
 59 58  2  0
 60 61  1  0
 60 54  2  0
 61 56  2  0
 62 55  1  0
 63 53  1  0
 65 67  2  0
 66 65  1  0
 68 66  1  0
 69 78  2  0
 69 74  1  0
 70 66  1  0
 70 74  1  0
 71 70  1  0
 72 73  1  0
 72 71  1  0
 73 69  1  0
 74 75  2  0
 75 76  1  0
 77 76  2  0
 78 77  1  0
 79 53  1  0
 79 80  1  0
 79 89  1  0
 80 83  1  0
 81 85  1  0
 81 80  1  0
 82 81  2  0
 85 84  1  0
 87 85  1  0
 87 88  1  0
 87 86  1  0
 89 92  1  1
 89 90  1  0
 91 89  1  0
M  ISO  4  10 100  18 100  51 101  52 101
M  END
>  <TORSDO>  (52) 
F 21

>  <SCORE>  (52) 
-13.376

>  <name>  (52) 
51

>  <ligand_id>  (52) 
51

>  <original_smiles>  (52) 
[H]c1c([H])c([H])c2c(c1[H])C([H])([H])C([H])([H])C([H])([H])C2([H])N([H])C(=O)C1([H])N(C(=O)C([H])(N([H])C(=O)C([H])(N([H])C([H])([H])[H])C([H])([H])[H])C(C([H])([H])[H])(C([H])([H])[H])C([H])([H])[H])C([H])([H])c2c([H])c(OC([H])([H])C([H])([H])C([H])([H])C([H])([H])C([H])([H])[N+]3([H])C4([H])C([H])([H])C([H])(N([H])C(=O)N5C([H])([H])C([H])([H])C([H])([H])C([H])(n6nc(-c7c([H])c([H])c(Oc8c([H])c([H])c(F)c([H])c8F)c([H])c7[H])c(C(=O)N([H])[H])c6N([H])[H])C5([H])[H])C([H])([H])C3([H])C4([H])[H])c([H])c([H])c2C1([H])[H]

>  <smiles>  (52) 
[H]c1c([H])c([H])c2c(c1[H])C([H])([H])C([H])([H])C([H])([H])C2([H])N([H])C(=O)C1([H])N(C(=O)C([H])(N([H])C(=O)C([H])(N([H])C([H])([H])[H])C([H])([H])[H])C(C([H])([H])[H])(C([H])([H])[H])C([H])([H])[H])C([H])([H])c2c([H])c(OC([H])([H])C([H])([H])C([H])([H])C([H])([H])C([H])([H])[N+]3([H])C4([H])C([H])([H])C([H])(N([H])C(=O)N5C([H])([H])C([H])([H])C([H])([H])C([H])(n6nc(-c7c([H])c([H])c(Oc8c([H])c([H])c(F)c([H])c8F)c([H])c7[H])c(C(=O)N([H])[H])c6N([H])[H])C5([H])[H])C([H])([H])C3([H])C4([H])[H])c([H])c([H])c2C1([H])[H]

$$$$
52:0:0
     RDKit          3D

 94103  0  0  1  0  0  0  0  0999 V2000
  -27.9250  -19.4690   20.7420 C   0  0  0  0  0  2  0  0  0  0  0  0
  -28.3800  -22.9040   17.5880 C   0  0  0  0  0  2  0  0  0  0  0  0
  -28.1970  -21.0280   20.6650 C   0  0  0  0  0  2  0  0  0  0  0  0
  -27.6280  -21.6800   18.1480 C   0  0  0  0  0  2  0  0  0  0  0  0
  -29.1210  -18.4510   20.9760 C   0  0  0  0  0  2  0  0  0  0  0  0
  -29.6780  -19.0810   18.6170 C   0  0  0  0  0  2  0  0  0  0  0  0
  -28.7580  -23.3110   19.0210 C   0  0  0  0  0  3  0  0  0  0  0  0
  -28.6490  -21.6040   19.2950 C   0  0  1  0  0  0  0  0  0  0  0  0
  -30.0430  -17.9590   19.7790 C   0  0  2  0  0  0  0  0  0  0  0  0
  -29.8190  -20.6360   18.8790 N   0  0  0  0  0  4  0  0  0  0  0  0
  -30.1750  -20.9990   18.0090 H   0  0  0  0  0  0  0  0  0  0  0  0
  -30.5720  -20.7570   19.5360 H   0  0  0  0  0  0  0  0  0  0  0  0
  -30.6610  -15.1890   19.3480 C   0  0  0  0  0  0  0  0  0  0  0  0
  -30.5180  -12.7770   18.5310 C   0  0  0  0  0  2  0  0  0  0  0  0
  -29.4540  -12.6160   17.4190 C   0  0  0  0  0  2  0  0  0  0  0  0
  -28.0580  -12.3860   18.0290 C   0  0  0  0  0  2  0  0  0  0  0  0
  -27.7520  -13.3690   19.1890 C   0  0  0  0  0  3  0  0  0  0  0  0
  -28.9260  -13.4840   20.1830 C   0  0  0  0  0  2  0  0  0  0  0  0
  -30.0980  -13.9100   19.4070 N   0  0  0  0  0  0  0  0  0  0  0  0
  -31.8300  -15.2510   18.9520 O   0  0  0  0  0  0  0  0  0  0  0  0
  -29.8660  -16.3670   19.5620 N   0  0  0  0  0  0  0  0  0  0  0  0
  -28.9100  -16.0930   19.7320 H   0  0  0  0  0  0  0  0  0  0  0  0
  -25.5140  -13.9470   20.2830 C   0  0  0  0  0  0  0  0  0  0  0  0
  -24.4890  -13.1720   20.7510 C   0  0  0  0  0  0  0  0  0  0  0  0
  -24.9090  -11.8170   20.5810 C   0  0  0  0  0  0  0  0  0  0  0  0
  -26.4900  -13.0650   19.8520 N   0  0  0  0  0  0  0  0  0  0  0  0
  -26.1450  -11.7740   20.0970 N   0  0  0  0  0  0  0  0  0  0  0  0
  -24.1800  -10.5590   20.7960 C   0  0  0  0  0  0  0  0  0  0  0  0
  -24.6140   -9.6050   21.7420 C   0  0  0  0  0  3  0  0  0  0  0  0
  -23.8830   -8.4140   21.9440 C   0  0  0  0  0  3  0  0  0  0  0  0
  -22.7030   -8.1700   21.2010 C   0  0  0  0  0  0  0  0  0  0  0  0
  -22.2890   -9.1130   20.2450 C   0  0  0  0  0  3  0  0  0  0  0  0
  -23.0200  -10.2950   20.0400 C   0  0  0  0  0  3  0  0  0  0  0  0
  -21.9430   -7.0300   21.3130 O   0  0  0  0  0  0  0  0  0  0  0  0
  -21.7890   -6.3830   22.5120 C   0  0  0  0  0  0  0  0  0  0  0  0
  -21.1830   -7.0080   23.6250 C   0  0  0  0  0  3  0  0  0  0  0  0
  -20.9820   -6.2830   24.8160 C   0  0  0  0  0  3  0  0  0  0  0  0
  -21.3760   -4.9340   24.8960 C   0  0  0  0  0  0  0  0  0  0  0  0
  -21.9750   -4.3090   23.7880 C   0  0  0  0  0  3  0  0  0  0  0  0
  -22.1770   -5.0310   22.5980 C   0  0  0  0  0  0  0  0  0  0  0  0
  -22.7350   -4.4170   21.5270 F   0  0  0  0  0  0  0  0  0  0  0  0
  -21.1760   -4.2350   26.0370 F   0  0  0  0  0  0  0  0  0  0  0  0
  -23.1550  -13.6600   21.2330 C   0  0  0  0  0  0  0  0  0  0  0  0
  -22.5300  -12.9300   22.1500 N   0  0  0  0  0  0  0  0  0  0  0  0
  -22.6810  -14.7220   20.8320 O   0  0  0  0  0  0  0  0  0  0  0  0
  -22.9290  -12.0690   22.4940 H   0  0  0  0  0  0  0  0  0  0  0  0
  -21.6390  -13.2360   22.5150 H   0  0  0  0  0  0  0  0  0  0  0  0
  -25.6870  -15.3230   20.1600 N   0  0  0  0  0  0  0  0  0  0  0  0
  -24.9500  -15.9750   20.4020 H   0  0  0  0  0  0  0  0  0  0  0  0
  -26.4680  -15.7660   19.6950 H   0  0  0  0  0  0  0  0  0  0  0  0
  -31.9930  -17.6200   21.5330 C   0  0  0  0  0  1  0  0  0  0  0  0
  -31.5330  -18.1940   20.1730 C   0  0  0  0  0  2  0  0  0  0  0  0
  -27.8520  -24.6580   19.5640 C   0  0  0  0  0  2  0  0  0  0  0  0
  -28.0750  -26.2050   19.3150 O   0  0  0  0  0  0  0  0  0  0  0  0
  -24.5720  -31.6460   22.9570 C   0  0  0  0  0  0  0  0  0  0  0  0
  -27.0170  -27.1960   19.4200 C   0  0  0  0  0  0  0  0  0  0  0  0
  -23.3050  -30.3930   21.2550 C   0  0  0  0  0  3  0  0  0  0  0  0
  -24.6930  -28.9510   19.6380 C   0  0  0  0  0  0  0  0  0  0  0  0
  -25.8520  -30.6750   21.0060 C   0  0  0  0  0  2  0  0  0  0  0  0
  -25.8990  -29.3420   20.2330 C   0  0  0  0  0  0  0  0  0  0  0  0
  -27.0610  -28.4850   20.1030 C   0  0  0  0  0  3  0  0  0  0  0  0
  -25.7830  -26.9240   18.7910 C   0  0  0  0  0  3  0  0  0  0  0  0
  -24.6490  -27.7590   18.9010 C   0  0  0  0  0  3  0  0  0  0  0  0
  -23.4690  -29.8390   19.8140 C   0  0  0  0  0  2  0  0  0  0  0  0
  -24.5990  -30.9230   21.7940 N   0  0  0  0  0  0  0  0  0  0  0  0
  -23.5080  -31.8770   23.5530 O   0  0  0  0  0  0  0  0  0  0  0  0
  -22.6690  -29.3030   22.1540 C   0  0  0  0  0  0  0  0  0  0  0  0
  -21.3340  -29.1470   22.0820 N   0  0  0  0  0  0  0  0  0  0  0  0
  -23.3770  -28.6020   22.8810 O   0  0  0  0  0  0  0  0  0  0  0  0
  -20.8170  -29.7660   21.4740 H   0  0  0  0  0  0  0  0  0  0  0  0
  -17.9750  -27.9130   22.6540 C   0  0  0  0  0  0  0  0  0  0  0  0
  -20.5470  -28.1440   22.8050 C   0  0  0  0  0  3  0  0  0  0  0  0
  -20.6070  -26.7710   22.0950 C   0  0  0  0  0  2  0  0  0  0  0  0
  -19.4490  -26.5480   21.1160 C   0  0  0  0  0  2  0  0  0  0  0  0
  -18.1060  -26.6340   21.8440 C   0  0  0  0  0  2  0  0  0  0  0  0
  -19.1210  -28.6300   23.0920 C   0  0  0  0  0  0  0  0  0  0  0  0
  -18.9410  -29.8290   23.8150 C   0  0  0  0  0  3  0  0  0  0  0  0
  -17.6500  -30.3120   24.1010 C   0  0  0  0  0  3  0  0  0  0  0  0
  -16.5210  -29.5920   23.6770 C   0  0  0  0  0  3  0  0  0  0  0  0
  -16.6840  -28.3930   22.9600 C   0  0  0  0  0  3  0  0  0  0  0  0
  -25.8730  -32.2330   23.5820 C   0  0  0  0  0  3  0  0  0  0  0  0
  -25.5790  -33.6050   24.0250 N   0  0  0  0  0  0  0  0  0  0  0  0
  -25.8850  -34.7130   23.3390 C   0  0  0  0  0  0  0  0  0  0  0  0
  -26.5100  -34.6880   22.2760 O   0  0  0  0  0  0  0  0  0  0  0  0
  -25.0190  -33.6990   24.8610 H   0  0  0  0  0  0  0  0  0  0  0  0
  -24.1480  -36.5310   23.2060 C   0  0  0  0  0  1  0  0  0  0  0  0
  -25.4250  -36.0650   23.9230 C   0  0  0  0  0  3  0  0  0  0  0  0
  -27.5920  -36.8970   24.7270 C   0  0  0  0  0  1  0  0  0  0  0  0
  -26.4550  -37.1240   23.8380 N   0  0  0  0  0  0  0  0  0  0  0  0
  -26.0560  -38.0330   24.0590 H   0  0  0  0  0  0  0  0  0  0  0  0
  -26.4240  -31.3740   24.7870 C   0  0  1  0  0  0  0  0  0  0  0  0
  -25.3640  -31.0690   25.8710 C   0  0  0  0  0  1  0  0  0  0  0  0
  -26.9870  -30.0230   24.2890 C   0  0  0  0  0  1  0  0  0  0  0  0
  -27.6000  -32.1160   25.4640 C   0  0  0  0  0  1  0  0  0  0  0  0
  1  5  1  0
  2  4  1  0
  2  7  1  0
  3  1  1  0
  6 10  1  0
  6  9  1  0
  7  8  1  0
  7 53  1  0
  8  4  1  6
  8  3  1  0
  9 52  1  1
  9  5  1  0
 10  8  1  0
 10 12  1  0
 11 10  1  0
 13 19  1  0
 13 21  1  0
 14 19  1  0
 15 16  1  0
 15 14  1  0
 17 16  1  0
 17 26  1  0
 17 18  1  0
 19 18  1  0
 20 13  2  0
 21 22  1  0
 21  9  1  0
 23 24  2  0
 24 43  1  0
 25 24  1  0
 25 28  1  0
 26 27  1  0
 26 23  1  0
 27 25  2  0
 28 29  1  0
 29 30  2  0
 31 34  1  0
 31 30  1  0
 32 31  2  0
 33 32  1  0
 33 28  2  0
 34 35  1  0
 35 40  2  0
 35 36  1  0
 36 37  2  0
 37 38  1  0
 38 42  1  0
 39 38  2  0
 40 39  1  0
 41 40  1  0
 43 44  1  0
 44 46  1  0
 44 47  1  0
 45 43  2  0
 48 23  1  0
 48 49  1  0
 50 48  1  0
 52 51  1  0
 54 56  1  0
 54 53  1  0
 55 66  2  0
 56 61  1  0
 57 65  1  0
 57 67  1  0
 58 64  1  0
 58 60  1  0
 59 65  1  0
 60 59  1  0
 61 60  2  0
 62 63  1  0
 62 56  2  0
 63 58  2  0
 64 57  1  0
 65 55  1  0
 67 69  2  0
 68 67  1  0
 70 68  1  0
 71 80  2  0
 71 76  1  0
 72 68  1  0
 72 76  1  0
 73 72  1  0
 74 75  1  0
 74 73  1  0
 75 71  1  0
 76 77  2  0
 77 78  1  0
 79 78  2  0
 80 79  1  0
 81 55  1  0
 81 82  1  0
 81 91  1  0
 82 85  1  0
 83 87  1  0
 83 82  1  0
 84 83  2  0
 87 86  1  0
 89 87  1  0
 89 90  1  0
 89 88  1  0
 91 94  1  1
 91 92  1  0
 93 91  1  0
M  ISO  4  13 100  21 100  53 101  54 101
M  END
>  <TORSDO>  (53) 
F 18

>  <SCORE>  (53) 
-13.065

>  <name>  (53) 
52

>  <ligand_id>  (53) 
52

>  <original_smiles>  (53) 
[H]c1c([H])c([H])c2c(c1[H])C([H])([H])C([H])([H])C([H])([H])C2([H])N([H])C(=O)C1([H])N(C(=O)C([H])(N([H])C(=O)C([H])(N([H])C([H])([H])[H])C([H])([H])[H])C(C([H])([H])[H])(C([H])([H])[H])C([H])([H])[H])C([H])([H])c2c([H])c(OC([H])([H])C3([H])C([H])([H])C([H])([H])C34C([H])([H])C([H])([H])C([H])([H])C(N([H])C(=O)N3C([H])([H])C([H])([H])C([H])([H])C([H])(n5nc(-c6c([H])c([H])c(Oc7c([H])c([H])c(F)c([H])c7F)c([H])c6[H])c(C(=O)N([H])[H])c5N([H])[H])C3([H])[H])(C([H])([H])C([H])([H])[H])C([H])([H])[N+]4([H])[H])c([H])c([H])c2C1([H])[H]

>  <smiles>  (53) 
[H]c1c([H])c([H])c2c(c1[H])C([H])([H])C([H])([H])C([H])([H])C2([H])N([H])C(=O)C1([H])N(C(=O)C([H])(N([H])C(=O)C([H])(N([H])C([H])([H])[H])C([H])([H])[H])C(C([H])([H])[H])(C([H])([H])[H])C([H])([H])[H])C([H])([H])c2c([H])c(OC([H])([H])C3([H])C([H])([H])C([H])([H])C34C([H])([H])C([H])([H])C([H])([H])C(N([H])C(=O)N3C([H])([H])C([H])([H])C([H])([H])C([H])(n5nc(-c6c([H])c([H])c(Oc7c([H])c([H])c(F)c([H])c7F)c([H])c6[H])c(C(=O)N([H])[H])c5N([H])[H])C3([H])[H])(C([H])([H])C([H])([H])[H])C([H])([H])[N+]4([H])[H])c([H])c([H])c2C1([H])[H]

$$$$
53:0:0
     RDKit          3D

 89 97  0  0  1  0  0  0  0  0999 V2000
  -30.0820  -21.8950   21.5340 C   0  0  0  0  0  3  0  0  0  0  0  0
  -30.6030  -19.4630   21.4510 C   0  0  0  0  0  3  0  0  0  0  0  0
  -28.8410  -20.4150   20.0800 C   0  0  0  0  0  3  0  0  0  0  0  0
  -30.8350  -20.7690   21.9540 C   0  0  0  0  0  0  0  0  0  0  0  0
  -29.0320  -21.8100   20.5950 C   0  0  0  0  0  0  0  0  0  0  0  0
  -29.6200  -19.1950   20.4800 C   0  0  0  0  0  0  0  0  0  0  0  0
  -31.9210  -20.9640   22.9930 C   0  0  0  0  0  1  0  0  0  0  0  0
  -28.0970  -23.1890   20.4340 C   0  0  0  0  0  2  0  0  0  0  0  0
  -28.4790  -24.7360   19.8240 C   0  0  0  0  0  2  0  0  0  0  0  0
  -28.2980  -26.2020   20.3650 O   0  0  0  0  0  0  0  0  0  0  0  0
  -24.6340  -31.8940   23.2350 C   0  0  0  0  0  0  0  0  0  0  0  0
  -27.2170  -27.1530   20.2250 C   0  0  0  0  0  0  0  0  0  0  0  0
  -23.4310  -30.4840   21.6060 C   0  0  0  0  0  3  0  0  0  0  0  0
  -24.8790  -28.8960   20.1810 C   0  0  0  0  0  0  0  0  0  0  0  0
  -25.9820  -30.7510   21.4320 C   0  0  0  0  0  2  0  0  0  0  0  0
  -26.0550  -29.3520   20.7880 C   0  0  0  0  0  0  0  0  0  0  0  0
  -27.2170  -28.4940   20.7950 C   0  0  0  0  0  3  0  0  0  0  0  0
  -26.0190  -26.7960   19.5740 C   0  0  0  0  0  3  0  0  0  0  0  0
  -24.8750  -27.6340   19.5580 C   0  0  0  0  0  3  0  0  0  0  0  0
  -23.6490  -29.7930   20.2310 C   0  0  0  0  0  2  0  0  0  0  0  0
  -24.7020  -31.0670   22.1460 N   0  0  0  0  0  0  0  0  0  0  0  0
  -23.5490  -32.1790   23.7660 O   0  0  0  0  0  0  0  0  0  0  0  0
  -22.7570  -29.4860   22.5810 C   0  0  0  0  0  0  0  0  0  0  0  0
  -21.4280  -29.3100   22.4580 N   0  0  0  0  0  0  0  0  0  0  0  0
  -23.4310  -28.8690   23.4080 O   0  0  0  0  0  0  0  0  0  0  0  0
  -20.9400  -29.8590   21.7640 H   0  0  0  0  0  0  0  0  0  0  0  0
  -18.0540  -28.0940   22.9690 C   0  0  0  0  0  0  0  0  0  0  0  0
  -20.6120  -28.3770   23.2370 C   0  0  0  0  0  3  0  0  0  0  0  0
  -20.7240  -26.9390   22.6780 C   0  0  0  0  0  2  0  0  0  0  0  0
  -19.6260  -26.5990   21.6640 C   0  0  0  0  0  2  0  0  0  0  0  0
  -18.2420  -26.7400   22.3040 C   0  0  0  0  0  2  0  0  0  0  0  0
  -19.1670  -28.8690   23.3920 C   0  0  0  0  0  0  0  0  0  0  0  0
  -18.9360  -30.1350   23.9740 C   0  0  0  0  0  3  0  0  0  0  0  0
  -17.6270  -30.6250   24.1360 C   0  0  0  0  0  3  0  0  0  0  0  0
  -16.5300  -29.8480   23.7270 C   0  0  0  0  0  3  0  0  0  0  0  0
  -16.7440  -28.5840   23.1500 C   0  0  0  0  0  3  0  0  0  0  0  0
  -25.9120  -32.5370   23.8560 C   0  0  0  0  0  3  0  0  0  0  0  0
  -26.4300  -31.7750   25.1380 C   0  0  1  0  0  0  0  0  0  0  0  0
  -25.3380  -31.5450   26.2090 C   0  0  0  0  0  1  0  0  0  0  0  0
  -27.0140  -30.3950   24.7600 C   0  0  0  0  0  1  0  0  0  0  0  0
  -27.5810  -32.5750   25.7940 C   0  0  0  0  0  1  0  0  0  0  0  0
  -25.5960  -33.9360   24.1870 N   0  0  0  0  0  0  0  0  0  0  0  0
  -25.9220  -34.9930   23.4320 C   0  0  0  0  0  0  0  0  0  0  0  0
  -26.5850  -34.8940   22.3960 O   0  0  0  0  0  0  0  0  0  0  0  0
  -25.0060  -34.0860   24.9920 H   0  0  0  0  0  0  0  0  0  0  0  0
  -24.1860  -36.7860   23.1020 C   0  0  0  0  0  1  0  0  0  0  0  0
  -25.4370  -36.3810   23.8980 C   0  0  0  0  0  3  0  0  0  0  0  0
  -27.5770  -37.2730   24.7080 C   0  0  0  0  0  1  0  0  0  0  0  0
  -26.4650  -37.4370   23.7750 N   0  0  0  0  0  0  0  0  0  0  0  0
  -26.0590  -38.3570   23.9280 H   0  0  0  0  0  0  0  0  0  0  0  0
  -29.6110  -17.6630   19.8250 C   0  0  0  0  0  2  0  0  0  0  0  0
  -30.4840  -15.0400   20.2460 C   0  0  0  0  0  0  0  0  0  0  0  0
  -30.3880  -12.6730   19.3240 C   0  0  0  0  0  2  0  0  0  0  0  0
  -29.4490  -12.6330   18.0940 C   0  0  0  0  0  2  0  0  0  0  0  0
  -27.9900  -12.4110   18.5300 C   0  0  0  0  0  2  0  0  0  0  0  0
  -27.5880  -13.3230   19.7190 C   0  0  0  0  0  3  0  0  0  0  0  0
  -28.6500  -13.3320   20.8430 C   0  0  0  0  0  2  0  0  0  0  0  0
  -29.9160  -13.7610   20.2370 N   0  0  0  0  0  0  0  0  0  0  0  0
  -31.6560  -15.1230   19.8600 O   0  0  0  0  0  0  0  0  0  0  0  0
  -29.6970  -16.2120   20.4880 N   0  0  0  0  0  0  0  0  0  0  0  0
  -28.8290  -15.9690   20.9400 H   0  0  0  0  0  0  0  0  0  0  0  0
  -25.2070  -13.8850   20.4640 C   0  0  0  0  0  0  0  0  0  0  0  0
  -24.1500  -13.1040   20.8420 C   0  0  0  0  0  0  0  0  0  0  0  0
  -24.6250  -11.7560   20.8140 C   0  0  0  0  0  0  0  0  0  0  0  0
  -26.2550  -13.0140   20.2220 N   0  0  0  0  0  0  0  0  0  0  0  0
  -25.9140  -11.7280   20.4980 N   0  0  0  0  0  0  0  0  0  0  0  0
  -23.9060  -10.4890   21.0110 C   0  0  0  0  0  0  0  0  0  0  0  0
  -24.3480   -9.5280   21.9460 C   0  0  0  0  0  3  0  0  0  0  0  0
  -23.6270   -8.3280   22.1320 C   0  0  0  0  0  3  0  0  0  0  0  0
  -22.4520   -8.0810   21.3840 C   0  0  0  0  0  0  0  0  0  0  0  0
  -22.0300   -9.0320   20.4380 C   0  0  0  0  0  3  0  0  0  0  0  0
  -22.7500  -10.2230   20.2490 C   0  0  0  0  0  3  0  0  0  0  0  0
  -21.7030   -6.9330   21.4790 O   0  0  0  0  0  0  0  0  0  0  0  0
  -21.6660   -6.1920   22.6330 C   0  0  0  0  0  0  0  0  0  0  0  0
  -21.2490   -6.7480   23.8620 C   0  0  0  0  0  3  0  0  0  0  0  0
  -21.1580   -5.9330   25.0080 C   0  0  0  0  0  3  0  0  0  0  0  0
  -21.4740   -4.5640   24.9260 C   0  0  0  0  0  0  0  0  0  0  0  0
  -21.8850   -4.0080   23.7020 C   0  0  0  0  0  3  0  0  0  0  0  0
  -21.9770   -4.8200   22.5580 C   0  0  0  0  0  0  0  0  0  0  0  0
  -22.3530   -4.2740   21.3770 F   0  0  0  0  0  0  0  0  0  0  0  0
  -21.3810   -3.7790   26.0260 F   0  0  0  0  0  0  0  0  0  0  0  0
  -22.7510  -13.5730   21.1160 C   0  0  0  0  0  0  0  0  0  0  0  0
  -22.0310  -12.8750   21.9870 N   0  0  0  0  0  0  0  0  0  0  0  0
  -22.3070  -14.5940   20.5930 O   0  0  0  0  0  0  0  0  0  0  0  0
  -22.4040  -12.0500   22.4300 H   0  0  0  0  0  0  0  0  0  0  0  0
  -21.0920  -13.1730   22.2130 H   0  0  0  0  0  0  0  0  0  0  0  0
  -25.3600  -15.2560   20.2800 N   0  0  0  0  0  0  0  0  0  0  0  0
  -24.5850  -15.9020   20.3890 H   0  0  0  0  0  0  0  0  0  0  0  0
  -26.1930  -15.6980   19.9150 H   0  0  0  0  0  0  0  0  0  0  0  0
  1  4  1  0
  2  4  2  0
  3  6  2  0
  3  5  1  0
  4  7  1  0
  5  1  2  0
  6  2  1  0
  8  5  1  0
  9 10  1  0
  9  8  1  0
 11 22  2  0
 12 10  1  0
 12 17  1  0
 13 21  1  0
 13 23  1  0
 14 20  1  0
 14 16  1  0
 15 21  1  0
 16 17  2  0
 16 15  1  0
 18 12  2  0
 19 18  1  0
 19 14  2  0
 20 13  1  0
 21 11  1  0
 23 25  2  0
 24 23  1  0
 26 24  1  0
 27 36  2  0
 27 32  1  0
 28 24  1  0
 28 32  1  0
 29 28  1  0
 30 31  1  0
 30 29  1  0
 31 27  1  0
 32 33  2  0
 33 34  1  0
 35 34  2  0
 36 35  1  0
 37 11  1  0
 37 42  1  0
 37 38  1  0
 38 41  1  1
 38 39  1  0
 40 38  1  0
 42 45  1  0
 43 47  1  0
 43 42  1  0
 44 43  2  0
 47 46  1  0
 49 47  1  0
 49 50  1  0
 49 48  1  0
 51  6  1  0
 51 60  1  0
 52 60  1  0
 53 58  1  0
 54 55  1  0
 54 53  1  0
 56 55  1  0
 56 65  1  0
 56 57  1  0
 58 52  1  0
 58 57  1  0
 59 52  2  0
 60 61  1  0
 62 63  2  0
 63 82  1  0
 64 63  1  0
 64 67  1  0
 65 62  1  0
 65 66  1  0
 66 64  2  0
 67 68  1  0
 68 69  2  0
 70 73  1  0
 70 69  1  0
 71 70  2  0
 72 71  1  0
 72 67  2  0
 73 74  1  0
 74 75  1  0
 75 76  2  0
 77 76  1  0
 77 81  1  0
 78 77  2  0
 79 74  2  0
 79 78  1  0
 80 79  1  0
 82 83  1  0
 83 86  1  0
 83 85  1  0
 84 82  2  0
 87 88  1  0
 87 62  1  0
 89 87  1  0
M  ISO  4   9 101  10 101  52 100  60 100
M  END
>  <TORSDO>  (54) 
F 19

>  <SCORE>  (54) 
-15.238

>  <name>  (54) 
53

>  <ligand_id>  (54) 
53

>  <original_smiles>  (54) 
[H]c1c([H])c([H])c2c(c1[H])C([H])([H])C([H])([H])C([H])([H])C2([H])N([H])C(=O)C1([H])N(C(=O)C([H])(N([H])C(=O)C([H])(N([H])C([H])([H])[H])C([H])([H])[H])C(C([H])([H])[H])(C([H])([H])[H])C([H])([H])[H])C([H])([H])c2c([H])c(OC([H])([H])C([H])([H])c3c([H])c(C([H])([H])[H])c([H])c(C([H])([H])N([H])C(=O)N4C([H])([H])C([H])([H])C([H])([H])C([H])(n5nc(-c6c([H])c([H])c(Oc7c([H])c([H])c(F)c([H])c7F)c([H])c6[H])c(C(=O)N([H])[H])c5N([H])[H])C4([H])[H])c3[H])c([H])c([H])c2C1([H])[H]

>  <smiles>  (54) 
[H]c1c([H])c([H])c2c(c1[H])C([H])([H])C([H])([H])C([H])([H])C2([H])N([H])C(=O)C1([H])N(C(=O)C([H])(N([H])C(=O)C([H])(N([H])C([H])([H])[H])C([H])([H])[H])C(C([H])([H])[H])(C([H])([H])[H])C([H])([H])[H])C([H])([H])c2c([H])c(OC([H])([H])C([H])([H])c3c([H])c(C([H])([H])[H])c([H])c(C([H])([H])N([H])C(=O)N4C([H])([H])C([H])([H])C([H])([H])C([H])(n5nc(-c6c([H])c([H])c(Oc7c([H])c([H])c(F)c([H])c7F)c([H])c6[H])c(C(=O)N([H])[H])c5N([H])[H])C4([H])[H])c3[H])c([H])c([H])c2C1([H])[H]

$$$$
54:0:0
     RDKit          3D

 92101  0  0  1  0  0  0  0  0999 V2000
  -26.6840  -22.6830   16.9880 C   0  0  0  0  0  2  0  0  0  0  0  0
  -27.5230  -20.5200   18.2040 C   0  0  0  0  0  2  0  0  0  0  0  0
  -29.0490  -22.3770   19.0140 C   0  0  0  0  0  2  0  0  0  0  0  0
  -26.4430  -21.5710   17.9950 C   0  0  0  0  0  3  0  0  0  0  0  0
  -26.6540  -22.9990   18.4550 C   0  0  0  0  0  3  0  0  0  0  0  0
  -28.6050  -20.9290   19.2350 C   0  0  0  0  0  3  0  0  0  0  0  0
  -27.8890  -23.3390   19.2750 C   0  0  0  0  0  3  0  0  0  0  0  0
  -29.8440  -20.0300   19.1940 C   0  0  0  0  0  2  0  0  0  0  0  0
  -29.5630  -18.5680   19.5390 C   0  0  0  0  0  2  0  0  0  0  0  0
  -30.7920  -17.7040   19.2610 C   0  0  0  0  0  2  0  0  0  0  0  0
  -30.4100  -16.2520   19.0040 C   0  0  0  0  0  2  0  0  0  0  0  0
  -30.9080  -14.4830   20.5620 C   0  0  0  0  0  0  0  0  0  0  0  0
  -30.5660  -12.3530   19.4690 C   0  0  0  0  0  2  0  0  0  0  0  0
  -29.6420  -12.6370   18.2650 C   0  0  0  0  0  2  0  0  0  0  0  0
  -28.1620  -12.5300   18.6800 C   0  0  0  0  0  2  0  0  0  0  0  0
  -27.8280  -13.3340   19.9660 C   0  0  0  0  0  3  0  0  0  0  0  0
  -28.8830  -13.0930   21.0770 C   0  0  0  0  0  2  0  0  0  0  0  0
  -30.2240  -13.3190   20.5170 N   0  0  0  0  0  0  0  0  0  0  0  0
  -32.1210  -14.5910   20.3770 O   0  0  0  0  0  0  0  0  0  0  0  0
  -30.1200  -15.5070   20.2300 N   0  0  0  0  0  0  0  0  0  0  0  0
  -29.1430  -15.3660   20.4340 H   0  0  0  0  0  0  0  0  0  0  0  0
  -25.4280  -13.9450   20.6640 C   0  0  0  0  0  0  0  0  0  0  0  0
  -24.3540  -13.1700   21.0110 C   0  0  0  0  0  0  0  0  0  0  0  0
  -24.8130  -11.8170   20.9670 C   0  0  0  0  0  0  0  0  0  0  0  0
  -26.4730  -13.0620   20.4330 N   0  0  0  0  0  0  0  0  0  0  0  0
  -26.1060  -11.7790   20.6750 N   0  0  0  0  0  0  0  0  0  0  0  0
  -24.0840  -10.5530   21.1310 C   0  0  0  0  0  0  0  0  0  0  0  0
  -24.4990   -9.5790   22.0650 C   0  0  0  0  0  3  0  0  0  0  0  0
  -23.7720   -8.3780   22.2170 C   0  0  0  0  0  3  0  0  0  0  0  0
  -22.6170   -8.1460   21.4340 C   0  0  0  0  0  0  0  0  0  0  0  0
  -22.2220   -9.1090   20.4890 C   0  0  0  0  0  3  0  0  0  0  0  0
  -22.9490  -10.3010   20.3360 C   0  0  0  0  0  3  0  0  0  0  0  0
  -21.8630   -6.9990   21.4950 O   0  0  0  0  0  0  0  0  0  0  0  0
  -21.7710   -6.2590   22.6470 C   0  0  0  0  0  0  0  0  0  0  0  0
  -21.2560   -6.8030   23.8430 C   0  0  0  0  0  3  0  0  0  0  0  0
  -21.1150   -5.9890   24.9850 C   0  0  0  0  0  3  0  0  0  0  0  0
  -21.4780   -4.6290   24.9290 C   0  0  0  0  0  0  0  0  0  0  0  0
  -21.9850   -4.0840   23.7360 C   0  0  0  0  0  3  0  0  0  0  0  0
  -22.1280   -4.8970   22.5970 C   0  0  0  0  0  0  0  0  0  0  0  0
  -22.5970   -4.3600   21.4450 F   0  0  0  0  0  0  0  0  0  0  0  0
  -21.3340   -3.8440   26.0210 F   0  0  0  0  0  0  0  0  0  0  0  0
  -22.9540  -13.6450   21.2740 C   0  0  0  0  0  0  0  0  0  0  0  0
  -22.2150  -12.9330   22.1180 N   0  0  0  0  0  0  0  0  0  0  0  0
  -22.5250  -14.6800   20.7680 O   0  0  0  0  0  0  0  0  0  0  0  0
  -22.5750  -12.0940   22.5480 H   0  0  0  0  0  0  0  0  0  0  0  0
  -21.2760  -13.2320   22.3370 H   0  0  0  0  0  0  0  0  0  0  0  0
  -25.5950  -15.3170   20.5050 N   0  0  0  0  0  0  0  0  0  0  0  0
  -24.8240  -15.9680   20.6130 H   0  0  0  0  0  0  0  0  0  0  0  0
  -26.4450  -15.7660   20.1900 H   0  0  0  0  0  0  0  0  0  0  0  0
  -28.3330  -24.8020   19.1160 C   0  0  0  0  0  2  0  0  0  0  0  0
  -28.3930  -25.5070   20.4790 C   0  0  0  0  0  2  0  0  0  0  0  0
  -28.4390  -26.9160   20.3420 O   0  0  0  0  0  0  0  0  0  0  0  0
  -24.5250  -31.9460   23.4220 C   0  0  0  0  0  0  0  0  0  0  0  0
  -27.2310  -27.5760   20.3360 C   0  0  0  0  0  0  0  0  0  0  0  0
  -23.3420  -30.5520   21.7560 C   0  0  0  0  0  3  0  0  0  0  0  0
  -24.8160  -29.0370   20.3410 C   0  0  0  0  0  0  0  0  0  0  0  0
  -25.8650  -30.9380   21.5820 C   0  0  0  0  0  2  0  0  0  0  0  0
  -25.9640  -29.5770   20.9320 C   0  0  0  0  0  0  0  0  0  0  0  0
  -27.1760  -28.8570   20.9180 C   0  0  0  0  0  3  0  0  0  0  0  0
  -26.0540  -27.0310   19.7680 C   0  0  0  0  0  3  0  0  0  0  0  0
  -24.8530  -27.7610   19.7580 C   0  0  0  0  0  3  0  0  0  0  0  0
  -23.5660  -29.8810   20.3760 C   0  0  0  0  0  2  0  0  0  0  0  0
  -24.5950  -31.1580   22.3130 N   0  0  0  0  0  0  0  0  0  0  0  0
  -23.4390  -32.2080   23.9540 O   0  0  0  0  0  0  0  0  0  0  0  0
  -22.6880  -29.5180   22.7010 C   0  0  0  0  0  0  0  0  0  0  0  0
  -21.3740  -29.3060   22.5340 N   0  0  0  0  0  0  0  0  0  0  0  0
  -23.3620  -28.9090   23.5370 O   0  0  0  0  0  0  0  0  0  0  0  0
  -20.8920  -29.8490   21.8310 H   0  0  0  0  0  0  0  0  0  0  0  0
  -18.0120  -28.0460   22.9270 C   0  0  0  0  0  0  0  0  0  0  0  0
  -20.5530  -28.3540   23.2800 C   0  0  0  0  0  3  0  0  0  0  0  0
  -20.7030  -26.9240   22.7130 C   0  0  0  0  0  2  0  0  0  0  0  0
  -19.6410  -26.5750   21.6660 C   0  0  0  0  0  2  0  0  0  0  0  0
  -18.2370  -26.6960   22.2650 C   0  0  0  0  0  2  0  0  0  0  0  0
  -19.1010  -28.8310   23.3890 C   0  0  0  0  0  0  0  0  0  0  0  0
  -18.8390  -30.0940   23.9640 C   0  0  0  0  0  3  0  0  0  0  0  0
  -17.5210  -30.5720   24.0820 C   0  0  0  0  0  3  0  0  0  0  0  0
  -16.4460  -29.7830   23.6400 C   0  0  0  0  0  3  0  0  0  0  0  0
  -16.6910  -28.5220   23.0680 C   0  0  0  0  0  3  0  0  0  0  0  0
  -25.8040  -32.5750   24.0600 C   0  0  0  0  0  3  0  0  0  0  0  0
  -25.5080  -33.9870   24.3380 N   0  0  0  0  0  0  0  0  0  0  0  0
  -25.9020  -35.0110   23.5690 C   0  0  0  0  0  0  0  0  0  0  0  0
  -26.6240  -34.8660   22.5790 O   0  0  0  0  0  0  0  0  0  0  0  0
  -24.8760  -34.1750   25.1020 H   0  0  0  0  0  0  0  0  0  0  0  0
  -24.2560  -36.8370   23.0430 C   0  0  0  0  0  1  0  0  0  0  0  0
  -25.4170  -36.4190   23.9610 C   0  0  0  0  0  3  0  0  0  0  0  0
  -27.5010  -37.2630   24.9460 C   0  0  0  0  0  1  0  0  0  0  0  0
  -26.4820  -37.4440   23.9170 N   0  0  0  0  0  0  0  0  0  0  0  0
  -26.0880  -38.3750   24.0240 H   0  0  0  0  0  0  0  0  0  0  0  0
  -26.2740  -31.8330   25.3710 C   0  0  1  0  0  0  0  0  0  0  0  0
  -25.1470  -31.6260   26.4090 C   0  0  0  0  0  1  0  0  0  0  0  0
  -26.8610  -30.4440   25.0300 C   0  0  0  0  0  1  0  0  0  0  0  0
  -27.4070  -32.6380   26.0510 C   0  0  0  0  0  1  0  0  0  0  0  0
  2  6  1  0
  3  6  1  0
  3  7  1  0
  4  1  1  0
  4  2  1  0
  4  5  1  0
  5  1  1  0
  5  7  1  0
  6  8  1  0
  7 50  1  0
  8  9  1  0
 10  9  1  0
 11 10  1  0
 11 20  1  0
 13 18  1  0
 14 15  1  0
 14 13  1  0
 16 15  1  0
 16 25  1  0
 16 17  1  0
 18 12  1  0
 18 17  1  0
 19 12  2  0
 20 21  1  0
 20 12  1  0
 22 23  2  0
 23 42  1  0
 24 23  1  0
 24 27  1  0
 25 22  1  0
 25 26  1  0
 26 24  2  0
 27 28  1  0
 28 29  2  0
 30 33  1  0
 30 29  1  0
 31 30  2  0
 32 31  1  0
 32 27  2  0
 33 34  1  0
 34 35  1  0
 35 36  2  0
 37 36  1  0
 37 41  1  0
 38 37  2  0
 39 34  2  0
 39 38  1  0
 40 39  1  0
 42 43  1  0
 43 46  1  0
 43 45  1  0
 44 42  2  0
 47 48  1  0
 47 22  1  0
 49 47  1  0
 50 51  1  0
 52 51  1  0
 53 64  2  0
 54 52  1  0
 54 59  1  0
 55 63  1  0
 55 65  1  0
 56 62  1  0
 56 58  1  0
 57 63  1  0
 58 57  1  0
 59 58  2  0
 60 54  2  0
 61 60  1  0
 61 56  2  0
 62 55  1  0
 63 53  1  0
 65 67  2  0
 66 65  1  0
 68 66  1  0
 69 78  2  0
 69 74  1  0
 70 66  1  0
 70 74  1  0
 71 70  1  0
 72 73  1  0
 72 71  1  0
 73 69  1  0
 74 75  2  0
 75 76  1  0
 77 76  2  0
 78 77  1  0
 79 53  1  0
 79 80  1  0
 79 89  1  0
 80 83  1  0
 81 85  1  0
 81 80  1  0
 82 81  2  0
 85 84  1  0
 87 85  1  0
 87 88  1  0
 87 86  1  0
 89 92  1  1
 89 90  1  0
 91 89  1  0
M  ISO  4  12 100  20 100  51 101  52 101
M  END
>  <TORSDO>  (55) 
F 22

>  <SCORE>  (55) 
-12.181

>  <name>  (55) 
54

>  <ligand_id>  (55) 
54

>  <original_smiles>  (55) 
[H]c1c([H])c([H])c2c(c1[H])C([H])([H])C([H])([H])C([H])([H])C2([H])N([H])C(=O)C1([H])N(C(=O)C([H])(N([H])C(=O)C([H])(N([H])C([H])([H])[H])C([H])([H])[H])C(C([H])([H])[H])(C([H])([H])[H])C([H])([H])[H])C([H])([H])c2c([H])c(OC([H])([H])C([H])([H])C3([H])C([H])([H])C([H])(C([H])([H])C([H])([H])C([H])([H])C([H])([H])N([H])C(=O)N4C([H])([H])C([H])([H])C([H])([H])C([H])(n5nc(-c6c([H])c([H])c(Oc7c([H])c([H])c(F)c([H])c7F)c([H])c6[H])c(C(=O)N([H])[H])c5N([H])[H])C4([H])[H])C([H])([H])C4([H])C([H])([H])C34[H])c([H])c([H])c2C1([H])[H]

>  <smiles>  (55) 
[H]c1c([H])c([H])c2c(c1[H])C([H])([H])C([H])([H])C([H])([H])C2([H])N([H])C(=O)C1([H])N(C(=O)C([H])(N([H])C(=O)C([H])(N([H])C([H])([H])[H])C([H])([H])[H])C(C([H])([H])[H])(C([H])([H])[H])C([H])([H])[H])C([H])([H])c2c([H])c(OC([H])([H])C([H])([H])C3([H])C([H])([H])C([H])(C([H])([H])C([H])([H])C([H])([H])C([H])([H])N([H])C(=O)N4C([H])([H])C([H])([H])C([H])([H])C([H])(n5nc(-c6c([H])c([H])c(Oc7c([H])c([H])c(F)c([H])c7F)c([H])c6[H])c(C(=O)N([H])[H])c5N([H])[H])C4([H])[H])C([H])([H])C4([H])C([H])([H])C34[H])c([H])c([H])c2C1([H])[H]

$$$$
55:0:0
     RDKit          3D

 91100  0  0  1  0  0  0  0  0999 V2000
  -28.4750  -22.1850   20.5880 C   0  0  0  0  0  2  0  0  0  0  0  0
  -31.6150  -19.7950   19.5760 C   0  0  0  0  0  2  0  0  0  0  0  0
  -30.7630  -18.7250   18.8730 C   0  0  0  0  0  2  0  0  0  0  0  0
  -28.5110  -19.4160   20.1710 C   0  0  0  0  0  2  0  0  0  0  0  0
  -30.4330  -20.0690   20.5080 C   0  0  0  0  0  3  0  0  0  0  0  0
  -29.1650  -20.8410   19.9930 C   0  0  0  0  0  3  0  0  0  0  0  0
  -29.8750  -18.6310   20.1310 C   0  0  2  0  0  0  0  0  0  0  0  0
  -30.1900  -17.3180   21.0310 C   0  0  0  0  0  2  0  0  0  0  0  0
  -30.5710  -14.7660   20.4020 C   0  0  0  0  0  0  0  0  0  0  0  0
  -30.3670  -12.4930   19.3700 C   0  0  0  0  0  2  0  0  0  0  0  0
  -29.4260  -12.5640   18.1470 C   0  0  0  0  0  2  0  0  0  0  0  0
  -27.9570  -12.3890   18.5810 C   0  0  0  0  0  2  0  0  0  0  0  0
  -27.5850  -13.2820   19.7940 C   0  0  0  0  0  3  0  0  0  0  0  0
  -28.6440  -13.1920   20.9130 C   0  0  0  0  0  2  0  0  0  0  0  0
  -29.9360  -13.5460   20.3150 N   0  0  0  0  0  0  0  0  0  0  0  0
  -31.7680  -14.8620   20.1170 O   0  0  0  0  0  0  0  0  0  0  0  0
  -29.7980  -15.8940   20.6300 N   0  0  0  0  0  0  0  0  0  0  0  0
  -28.8130  -15.6960   20.7260 H   0  0  0  0  0  0  0  0  0  0  0  0
  -25.2010  -13.8870   20.5230 C   0  0  0  0  0  0  0  0  0  0  0  0
  -24.1320  -13.1180   20.8940 C   0  0  0  0  0  0  0  0  0  0  0  0
  -24.5890  -11.7650   20.8650 C   0  0  0  0  0  0  0  0  0  0  0  0
  -26.2400  -13.0020   20.2870 N   0  0  0  0  0  0  0  0  0  0  0  0
  -25.8790  -11.7210   20.5570 N   0  0  0  0  0  0  0  0  0  0  0  0
  -23.8560  -10.5060   21.0540 C   0  0  0  0  0  0  0  0  0  0  0  0
  -24.2940   -9.5290   21.9740 C   0  0  0  0  0  3  0  0  0  0  0  0
  -23.5630   -8.3340   22.1520 C   0  0  0  0  0  3  0  0  0  0  0  0
  -22.3780   -8.1110   21.4100 C   0  0  0  0  0  0  0  0  0  0  0  0
  -21.9590   -9.0770   20.4790 C   0  0  0  0  0  3  0  0  0  0  0  0
  -22.6920  -10.2630   20.2990 C   0  0  0  0  0  3  0  0  0  0  0  0
  -21.6170   -6.9700   21.4990 O   0  0  0  0  0  0  0  0  0  0  0  0
  -21.5910   -6.2090   22.6390 C   0  0  0  0  0  0  0  0  0  0  0  0
  -21.2110   -6.7500   23.8870 C   0  0  0  0  0  3  0  0  0  0  0  0
  -21.1320   -5.9160   25.0200 C   0  0  0  0  0  3  0  0  0  0  0  0
  -21.4200   -4.5430   24.9070 C   0  0  0  0  0  0  0  0  0  0  0  0
  -21.7930   -4.0010   23.6640 C   0  0  0  0  0  3  0  0  0  0  0  0
  -21.8750   -4.8330   22.5330 C   0  0  0  0  0  0  0  0  0  0  0  0
  -22.2140   -4.3020   21.3340 F   0  0  0  0  0  0  0  0  0  0  0  0
  -21.3350   -3.7400   25.9940 F   0  0  0  0  0  0  0  0  0  0  0  0
  -22.7360  -13.6020   21.1600 C   0  0  0  0  0  0  0  0  0  0  0  0
  -22.0030  -12.9110   22.0260 N   0  0  0  0  0  0  0  0  0  0  0  0
  -22.3040  -14.6290   20.6370 O   0  0  0  0  0  0  0  0  0  0  0  0
  -22.3670  -12.0820   22.4720 H   0  0  0  0  0  0  0  0  0  0  0  0
  -21.0660  -13.2150   22.2470 H   0  0  0  0  0  0  0  0  0  0  0  0
  -25.3700  -15.2560   20.3420 N   0  0  0  0  0  0  0  0  0  0  0  0
  -24.6000  -15.9070   20.4400 H   0  0  0  0  0  0  0  0  0  0  0  0
  -26.2090  -15.6910   19.9810 H   0  0  0  0  0  0  0  0  0  0  0  0
  -29.6070  -24.1350   21.8400 C   0  0  0  0  0  1  0  0  0  0  0  0
  -29.0780  -23.7000   20.4650 C   0  0  0  0  0  3  0  0  0  0  0  0
  -28.1760  -24.7640   18.3420 C   0  0  0  0  0  1  0  0  0  0  0  0
  -28.1190  -24.8870   19.8800 C   0  0  0  0  0  3  0  0  0  0  0  0
  -28.3060  -26.3570   20.2140 O   0  0  0  0  0  0  0  0  0  0  0  0
  -24.6320  -31.8720   23.2710 C   0  0  0  0  0  0  0  0  0  0  0  0
  -27.2030  -27.2620   20.1780 C   0  0  0  0  0  0  0  0  0  0  0  0
  -23.4160  -30.4840   21.6360 C   0  0  0  0  0  3  0  0  0  0  0  0
  -24.8510  -28.9370   20.1910 C   0  0  0  0  0  0  0  0  0  0  0  0
  -25.9620  -30.7810   21.4400 C   0  0  0  0  0  2  0  0  0  0  0  0
  -26.0330  -29.4020   20.7820 C   0  0  0  0  0  0  0  0  0  0  0  0
  -27.2110  -28.5790   20.7610 C   0  0  0  0  0  3  0  0  0  0  0  0
  -25.9810  -26.8700   19.5810 C   0  0  0  0  0  3  0  0  0  0  0  0
  -24.8320  -27.6780   19.5820 C   0  0  0  0  0  3  0  0  0  0  0  0
  -23.6210  -29.8210   20.2500 C   0  0  0  0  0  2  0  0  0  0  0  0
  -24.6910  -31.0630   22.1710 N   0  0  0  0  0  0  0  0  0  0  0  0
  -23.5510  -32.1510   23.8120 O   0  0  0  0  0  0  0  0  0  0  0  0
  -22.7550  -29.4630   22.5940 C   0  0  0  0  0  0  0  0  0  0  0  0
  -21.4270  -29.2840   22.4700 N   0  0  0  0  0  0  0  0  0  0  0  0
  -23.4350  -28.8360   23.4100 O   0  0  0  0  0  0  0  0  0  0  0  0
  -20.9360  -29.8420   21.7860 H   0  0  0  0  0  0  0  0  0  0  0  0
  -18.0560  -28.0660   22.9670 C   0  0  0  0  0  0  0  0  0  0  0  0
  -20.6120  -28.3450   23.2440 C   0  0  0  0  0  3  0  0  0  0  0  0
  -20.7250  -26.9100   22.6750 C   0  0  0  0  0  2  0  0  0  0  0  0
  -19.6280  -26.5760   21.6590 C   0  0  0  0  0  2  0  0  0  0  0  0
  -18.2430  -26.7160   22.2980 C   0  0  0  0  0  2  0  0  0  0  0  0
  -19.1680  -28.8390   23.3970 C   0  0  0  0  0  0  0  0  0  0  0  0
  -18.9390  -30.1010   23.9830 C   0  0  0  0  0  3  0  0  0  0  0  0
  -17.6310  -30.5940   24.1440 C   0  0  0  0  0  3  0  0  0  0  0  0
  -16.5320  -29.8210   23.7300 C   0  0  0  0  0  3  0  0  0  0  0  0
  -16.7470  -28.5590   23.1480 C   0  0  0  0  0  3  0  0  0  0  0  0
  -25.9170  -32.5020   23.8870 C   0  0  0  0  0  3  0  0  0  0  0  0
  -26.4400  -31.7260   25.1580 C   0  0  1  0  0  0  0  0  0  0  0  0
  -25.3530  -31.4870   26.2330 C   0  0  0  0  0  1  0  0  0  0  0  0
  -27.0160  -30.3480   24.7580 C   0  0  0  0  0  1  0  0  0  0  0  0
  -27.5950  -32.5160   25.8150 C   0  0  0  0  0  1  0  0  0  0  0  0
  -25.6090  -33.9000   24.2260 N   0  0  0  0  0  0  0  0  0  0  0  0
  -25.9340  -34.9570   23.4710 C   0  0  0  0  0  0  0  0  0  0  0  0
  -26.5950  -34.8590   22.4350 O   0  0  0  0  0  0  0  0  0  0  0  0
  -25.0210  -34.0490   25.0330 H   0  0  0  0  0  0  0  0  0  0  0  0
  -24.2050  -36.7550   23.1420 C   0  0  0  0  0  1  0  0  0  0  0  0
  -25.4510  -36.3430   23.9420 C   0  0  0  0  0  3  0  0  0  0  0  0
  -27.5930  -37.2200   24.7620 C   0  0  0  0  0  1  0  0  0  0  0  0
  -26.4840  -37.3970   23.8280 N   0  0  0  0  0  0  0  0  0  0  0  0
  -26.0790  -38.3150   23.9870 H   0  0  0  0  0  0  0  0  0  0  0  0
  3  2  1  0
  3  7  1  0
  5  2  1  0
  6  4  1  0
  6  5  1  0
  6  1  1  0
  7  4  1  0
  7  5  1  0
  7  8  1  1
  9 17  1  0
 10 15  1  0
 11 12  1  0
 11 10  1  0
 13 12  1  0
 13 22  1  0
 13 14  1  0
 15  9  1  0
 15 14  1  0
 16  9  2  0
 17 18  1  0
 17  8  1  0
 19 20  2  0
 20 39  1  0
 21 20  1  0
 21 24  1  0
 22 19  1  0
 22 23  1  0
 23 21  2  0
 24 25  1  0
 25 26  2  0
 27 30  1  0
 27 26  1  0
 28 27  2  0
 29 28  1  0
 29 24  2  0
 30 31  1  0
 31 32  1  0
 32 33  2  0
 34 33  1  0
 34 38  1  0
 35 34  2  0
 36 31  2  0
 36 35  1  0
 37 36  1  0
 39 40  1  0
 40 43  1  0
 40 42  1  0
 41 39  2  0
 44 45  1  0
 44 19  1  0
 46 44  1  0
 48  1  1  0
 48 47  1  0
 50 49  1  0
 50 51  1  0
 50 48  1  0
 52 63  2  0
 53 51  1  0
 53 58  1  0
 54 62  1  0
 54 64  1  0
 55 61  1  0
 55 57  1  0
 56 62  1  0
 57 56  1  0
 58 57  2  0
 59 60  1  0
 59 53  2  0
 60 55  2  0
 61 54  1  0
 62 52  1  0
 64 66  2  0
 65 64  1  0
 67 65  1  0
 68 77  2  0
 68 73  1  0
 69 65  1  0
 69 73  1  0
 70 69  1  0
 71 72  1  0
 71 70  1  0
 72 68  1  0
 73 74  2  0
 74 75  1  0
 76 75  2  0
 77 76  1  0
 78 52  1  0
 78 83  1  0
 78 79  1  0
 79 82  1  1
 79 80  1  0
 81 79  1  0
 83 86  1  0
 84 88  1  0
 84 83  1  0
 85 84  2  0
 88 87  1  0
 90 88  1  0
 90 91  1  0
 90 89  1  0
M  ISO  4   9 100  17 100  50 101  51 101
M  END
>  <TORSDO>  (56) 
F 20

>  <SCORE>  (56) 
-13.974

>  <name>  (56) 
55

>  <ligand_id>  (56) 
55

>  <original_smiles>  (56) 
[H]c1c([H])c([H])c2c(c1[H])C([H])([H])C([H])([H])C([H])([H])C2([H])N([H])C(=O)C1([H])N(C(=O)C([H])(N([H])C(=O)C([H])(N([H])C([H])([H])[H])C([H])([H])[H])C(C([H])([H])[H])(C([H])([H])[H])C([H])([H])[H])C([H])([H])c2c([H])c(OC([H])(C([H])([H])[H])C([H])(C([H])([H])[H])C([H])([H])C3([H])C([H])([H])C4(C([H])([H])N([H])C(=O)N5C([H])([H])C([H])([H])C([H])([H])C([H])(n6nc(-c7c([H])c([H])c(Oc8c([H])c([H])c(F)c([H])c8F)c([H])c7[H])c(C(=O)N([H])[H])c6N([H])[H])C5([H])[H])C([H])([H])C([H])([H])C34[H])c([H])c([H])c2C1([H])[H]

>  <smiles>  (56) 
[H]c1c([H])c([H])c2c(c1[H])C([H])([H])C([H])([H])C([H])([H])C2([H])N([H])C(=O)C1([H])N(C(=O)C([H])(N([H])C(=O)C([H])(N([H])C([H])([H])[H])C([H])([H])[H])C(C([H])([H])[H])(C([H])([H])[H])C([H])([H])[H])C([H])([H])c2c([H])c(OC([H])(C([H])([H])[H])C([H])(C([H])([H])[H])C([H])([H])C3([H])C([H])([H])C4(C([H])([H])N([H])C(=O)N5C([H])([H])C([H])([H])C([H])([H])C([H])(n6nc(-c7c([H])c([H])c(Oc8c([H])c([H])c(F)c([H])c8F)c([H])c7[H])c(C(=O)N([H])[H])c6N([H])[H])C5([H])[H])C([H])([H])C([H])([H])C34[H])c([H])c([H])c2C1([H])[H]

$$$$
56:0:0
     RDKit          3D

 99109  0  0  1  0  0  0  0  0999 V2000
  -31.8870  -14.2240   20.2930 C   0  0  0  0  0  0  0  0  0  0  0  0
  -31.2830  -11.9310   19.6050 C   0  0  0  0  0  2  0  0  0  0  0  0
  -30.4330  -11.9780   18.3190 C   0  0  0  0  0  2  0  0  0  0  0  0
  -28.9390  -12.1050   18.6710 C   0  0  0  0  0  2  0  0  0  0  0  0
  -28.6620  -13.2340   19.6970 C   0  0  0  0  0  3  0  0  0  0  0  0
  -29.6480  -13.1840   20.8910 C   0  0  0  0  0  2  0  0  0  0  0  0
  -31.0190  -13.1700   20.3640 N   0  0  0  0  0  0  0  0  0  0  0  0
  -33.0360  -14.0810   19.8700 O   0  0  0  0  0  0  0  0  0  0  0  0
  -29.7860  -17.4480   20.4990 C   0  0  0  0  0  2  0  0  0  0  0  0
  -32.3580  -16.6360   20.6850 C   0  0  0  0  0  2  0  0  0  0  0  0
  -31.5990  -17.2100   19.4620 C   0  0  0  0  0  3  0  0  0  0  0  0
  -30.4950  -16.2410   19.8410 C   0  0  0  0  0  3  0  0  0  0  0  0
  -30.4880  -18.3390   19.4270 C   0  0  1  0  0  0  0  0  0  0  0  0
  -31.4510  -15.4640   20.6530 N   0  0  0  0  0  0  0  0  0  0  0  0
  -29.3990  -18.1800   15.7270 C   0  0  0  0  0  3  0  0  0  0  0  0
  -28.0570  -18.5860   15.7860 C   0  0  0  0  0  3  0  0  0  0  0  0
  -30.1770  -18.1590   16.8970 C   0  0  0  0  0  3  0  0  0  0  0  0
  -27.5120  -19.0170   17.0090 C   0  0  0  0  0  3  0  0  0  0  0  0
  -29.6320  -18.5310   18.1510 C   0  0  0  0  0  0  0  0  0  0  0  0
  -28.2890  -19.0220   18.1890 C   0  0  0  0  0  0  0  0  0  0  0  0
  -27.3660  -21.0760   19.3890 C   0  0  0  0  0  1  0  0  0  0  0  0
  -27.6230  -19.5650   19.4550 C   0  0  0  0  0  2  0  0  0  0  0  0
  -26.4030  -14.3150   20.2830 C   0  0  0  0  0  0  0  0  0  0  0  0
  -25.1980  -13.7760   20.6420 C   0  0  0  0  0  0  0  0  0  0  0  0
  -25.3980  -12.3620   20.6890 C   0  0  0  0  0  0  0  0  0  0  0  0
  -27.2700  -13.2420   20.1360 N   0  0  0  0  0  0  0  0  0  0  0  0
  -26.6660  -12.0660   20.4380 N   0  0  0  0  0  0  0  0  0  0  0  0
  -24.4440  -11.2680   20.9020 C   0  0  0  0  0  0  0  0  0  0  0  0
  -24.7960  -10.1120   21.6320 C   0  0  0  0  0  3  0  0  0  0  0  0
  -23.8550   -9.0810   21.8380 C   0  0  0  0  0  3  0  0  0  0  0  0
  -22.5460   -9.2000   21.3160 C   0  0  0  0  0  0  0  0  0  0  0  0
  -22.2080  -10.3430   20.5700 C   0  0  0  0  0  3  0  0  0  0  0  0
  -23.1480  -11.3660   20.3610 C   0  0  0  0  0  3  0  0  0  0  0  0
  -21.5730   -8.2390   21.4430 O   0  0  0  0  0  0  0  0  0  0  0  0
  -21.7530   -7.1360   22.2380 C   0  0  0  0  0  0  0  0  0  0  0  0
  -21.8850   -7.2410   23.6380 C   0  0  0  0  0  3  0  0  0  0  0  0
  -21.9990   -6.0760   24.4240 C   0  0  0  0  0  3  0  0  0  0  0  0
  -21.9700   -4.8090   23.8130 C   0  0  0  0  0  0  0  0  0  0  0  0
  -21.8320   -4.7020   22.4180 C   0  0  0  0  0  3  0  0  0  0  0  0
  -21.7210   -5.8630   21.6330 C   0  0  0  0  0  0  0  0  0  0  0  0
  -21.5670   -5.7550   20.2910 F   0  0  0  0  0  0  0  0  0  0  0  0
  -22.0730   -3.6890   24.5680 F   0  0  0  0  0  0  0  0  0  0  0  0
  -23.9050  -14.5180   20.8340 C   0  0  0  0  0  0  0  0  0  0  0  0
  -23.0670  -14.0640   21.7590 N   0  0  0  0  0  0  0  0  0  0  0  0
  -23.6530  -15.5380   20.1950 O   0  0  0  0  0  0  0  0  0  0  0  0
  -23.2820  -13.2390   22.2990 H   0  0  0  0  0  0  0  0  0  0  0  0
  -22.1990  -14.5520   21.9310 H   0  0  0  0  0  0  0  0  0  0  0  0
  -26.8260  -15.6200   20.0450 N   0  0  0  0  0  0  0  0  0  0  0  0
  -26.1910  -16.4080   20.0820 H   0  0  0  0  0  0  0  0  0  0  0  0
  -27.7430  -15.8660   19.7010 H   0  0  0  0  0  0  0  0  0  0  0  0
  -31.0870  -19.7080   19.9020 C   0  0  0  0  0  0  0  0  0  0  0  0
  -31.4510  -20.6190   18.9670 N   0  0  0  0  0  0  0  0  0  0  0  0
  -31.2730  -19.9180   21.1020 O   0  0  0  0  0  0  0  0  0  0  0  0
  -31.2120  -20.3680   18.0140 H   0  0  0  0  0  0  0  0  0  0  0  0
  -32.3420  -21.7800   19.1570 C   0  0  0  0  0  2  0  0  0  0  0  0
  -31.9190  -23.0830   18.4210 C   0  0  0  0  0  2  0  0  0  0  0  0
  -31.3700  -22.9440   16.9750 C   0  0  0  0  0  2  0  0  0  0  0  0
  -32.4100  -22.9210   15.8090 C   0  0  0  0  0  2  0  0  0  0  0  0
  -33.2340  -24.0960   15.6240 O   0  0  0  0  0  0  0  0  0  0  0  0
  -34.8530  -28.5840   20.9190 C   0  0  0  0  0  0  0  0  0  0  0  0
  -32.9100  -25.2920   16.2490 C   0  0  0  0  0  0  0  0  0  0  0  0
  -32.6670  -28.9510   19.8250 C   0  0  0  0  0  3  0  0  0  0  0  0
  -32.2890  -27.6900   17.6370 C   0  0  0  0  0  0  0  0  0  0  0  0
  -34.6130  -27.9130   18.5270 C   0  0  0  0  0  2  0  0  0  0  0  0
  -33.5860  -27.1670   17.6970 C   0  0  0  0  0  0  0  0  0  0  0  0
  -33.8990  -25.9710   17.0050 C   0  0  0  0  0  3  0  0  0  0  0  0
  -31.6150  -25.8580   16.1870 C   0  0  0  0  0  3  0  0  0  0  0  0
  -31.3020  -27.0400   16.8810 C   0  0  0  0  0  3  0  0  0  0  0  0
  -32.0190  -28.9600   18.4150 C   0  0  0  0  0  2  0  0  0  0  0  0
  -34.0820  -28.4600   19.8010 N   0  0  0  0  0  0  0  0  0  0  0  0
  -34.4160  -29.1290   21.9420 O   0  0  0  0  0  0  0  0  0  0  0  0
  -31.7570  -28.1500   20.7840 C   0  0  0  0  0  0  0  0  0  0  0  0
  -30.4520  -28.4660   20.7770 N   0  0  0  0  0  0  0  0  0  0  0  0
  -32.2210  -27.2530   21.4940 O   0  0  0  0  0  0  0  0  0  0  0  0
  -30.1510  -29.2170   20.1710 H   0  0  0  0  0  0  0  0  0  0  0  0
  -26.9030  -28.4630   21.4590 C   0  0  0  0  0  0  0  0  0  0  0  0
  -29.4050  -27.8200   21.5690 C   0  0  0  0  0  3  0  0  0  0  0  0
  -28.9810  -26.4730   20.9390 C   0  0  0  0  0  2  0  0  0  0  0  0
  -27.7840  -26.6000   19.9900 C   0  0  0  0  0  2  0  0  0  0  0  0
  -26.5710  -27.1720   20.7300 C   0  0  0  0  0  2  0  0  0  0  0  0
  -28.2350  -28.7750   21.8390 C   0  0  0  0  0  0  0  0  0  0  0  0
  -28.4930  -30.0040   22.4820 C   0  0  0  0  0  3  0  0  0  0  0  0
  -27.4500  -30.9100   22.7500 C   0  0  0  0  0  3  0  0  0  0  0  0
  -26.1300  -30.5890   22.3880 C   0  0  0  0  0  3  0  0  0  0  0  0
  -25.8580  -29.3660   21.7480 C   0  0  0  0  0  3  0  0  0  0  0  0
  -36.3240  -28.0680   20.9580 C   0  0  0  0  0  3  0  0  0  0  0  0
  -37.0940  -28.9940   21.8000 N   0  0  0  0  0  0  0  0  0  0  0  0
  -37.9940  -29.8720   21.3380 C   0  0  0  0  0  0  0  0  0  0  0  0
  -38.3160  -29.9380   20.1480 O   0  0  0  0  0  0  0  0  0  0  0  0
  -36.8420  -29.0330   22.7760 H   0  0  0  0  0  0  0  0  0  0  0  0
  -38.0970  -32.2530   22.1390 C   0  0  0  0  0  1  0  0  0  0  0  0
  -38.6380  -30.8310   22.3580 C   0  0  0  0  0  3  0  0  0  0  0  0
  -40.7230  -29.6010   22.7640 C   0  0  0  0  0  1  0  0  0  0  0  0
  -40.1160  -30.8460   22.3010 N   0  0  0  0  0  0  0  0  0  0  0  0
  -40.4910  -31.6090   22.8580 H   0  0  0  0  0  0  0  0  0  0  0  0
  -36.4510  -26.5890   21.4960 C   0  0  1  0  0  0  0  0  0  0  0  0
  -35.7340  -26.3540   22.8450 C   0  0  0  0  0  1  0  0  0  0  0  0
  -35.8700  -25.5870   20.4710 C   0  0  0  0  0  1  0  0  0  0  0  0
  -37.9430  -26.2240   21.6760 C   0  0  0  0  0  1  0  0  0  0  0  0
  1  7  1  0
  1 14  1  0
  2  7  1  0
  3  4  1  0
  3  2  1  0
  5  4  1  0
  5 26  1  0
  5  6  1  0
  7  6  1  0
  8  1  2  0
 11 12  1  0
 11 10  1  0
 12  9  1  0
 12 14  1  0
 13 11  1  0
 13 51  1  1
 13  9  1  0
 14 10  1  0
 15 16  2  0
 15 17  1  0
 16 18  1  0
 17 19  2  0
 18 20  2  0
 19 20  1  0
 19 13  1  0
 20 22  1  0
 21 22  1  0
 23 24  2  0
 24 25  1  0
 24 43  1  0
 25 28  1  0
 26 23  1  0
 26 27  1  0
 27 25  2  0
 28 29  1  0
 29 30  2  0
 31 34  1  0
 31 30  1  0
 32 31  2  0
 33 32  1  0
 33 28  2  0
 34 35  1  0
 35 36  1  0
 36 37  2  0
 38 37  1  0
 38 42  1  0
 39 38  2  0
 40 35  2  0
 40 39  1  0
 41 40  1  0
 43 44  1  0
 44 47  1  0
 44 46  1  0
 45 43  2  0
 48 49  1  0
 48 23  1  0
 50 48  1  0
 51 53  2  0
 52 55  1  0
 52 51  1  0
 54 52  1  0
 56 55  1  0
 57 56  1  0
 58 57  1  0
 59 58  1  0
 59 61  1  0
 60 71  2  0
 61 66  1  0
 62 72  1  0
 63 65  1  0
 63 69  1  0
 64 70  1  0
 65 64  1  0
 66 65  2  0
 67 61  2  0
 67 68  1  0
 68 63  2  0
 69 62  1  0
 70 62  1  0
 70 60  1  0
 72 74  2  0
 73 72  1  0
 75 73  1  0
 76 85  2  0
 76 81  1  0
 77 73  1  0
 77 81  1  0
 78 77  1  0
 79 80  1  0
 79 78  1  0
 80 76  1  0
 81 82  2  0
 82 83  1  0
 84 83  2  0
 85 84  1  0
 86 60  1  0
 86 96  1  0
 86 87  1  0
 87 90  1  0
 88 87  1  0
 88 92  1  0
 89 88  2  0
 92 91  1  0
 94 92  1  0
 94 93  1  0
 94 95  1  0
 96 99  1  1
 96 97  1  0
 98 96  1  0
M  ISO  4   1 100  14 100  58 101  59 101
M  END
>  <TORSDO>  (57) 
F 22

>  <SCORE>  (57) 
-7.268

>  <name>  (57) 
56

>  <ligand_id>  (57) 
56

>  <original_smiles>  (57) 
[H]c1c([H])c([H])c(C2(C(=O)N([H])C([H])([H])C([H])([H])C([H])([H])C([H])([H])Oc3c([H])c([H])c4c(c3[H])C([H])([H])N(C(=O)C([H])(N([H])C(=O)C([H])(N([H])C([H])([H])[H])C([H])([H])[H])C(C([H])([H])[H])(C([H])([H])[H])C([H])([H])[H])C([H])(C(=O)N([H])C3([H])c5c([H])c([H])c([H])c([H])c5C([H])([H])C([H])([H])C3([H])[H])C4([H])[H])C([H])([H])C3([H])N(C(=O)N4C([H])([H])C([H])([H])C([H])([H])C([H])(n5nc(-c6c([H])c([H])c(Oc7c([H])c([H])c(F)c([H])c7F)c([H])c6[H])c(C(=O)N([H])[H])c5N([H])[H])C4([H])[H])C([H])([H])C23[H])c(C([H])([H])C([H])([H])[H])c1[H]

>  <smiles>  (57) 
[H]c1c([H])c([H])c(C2(C(=O)N([H])C([H])([H])C([H])([H])C([H])([H])C([H])([H])Oc3c([H])c([H])c4c(c3[H])C([H])([H])N(C(=O)C([H])(N([H])C(=O)C([H])(N([H])C([H])([H])[H])C([H])([H])[H])C(C([H])([H])[H])(C([H])([H])[H])C([H])([H])[H])C([H])(C(=O)N([H])C3([H])c5c([H])c([H])c([H])c([H])c5C([H])([H])C([H])([H])C3([H])[H])C4([H])[H])C([H])([H])C3([H])N(C(=O)N4C([H])([H])C([H])([H])C([H])([H])C([H])(n5nc(-c6c([H])c([H])c(Oc7c([H])c([H])c(F)c([H])c7F)c([H])c6[H])c(C(=O)N([H])[H])c5N([H])[H])C4([H])[H])C([H])([H])C23[H])c(C([H])([H])C([H])([H])[H])c1[H]

$$$$
57:0:0
     RDKit          3D

 95104  0  0  1  0  0  0  0  0999 V2000
  -32.2610  -20.9080   22.6080 C   0  0  0  0  0  2  0  0  0  0  0  0
  -30.5380  -17.0880   22.8340 C   0  0  0  0  0  2  0  0  0  0  0  0
  -32.2790  -19.5280   21.9200 C   0  0  0  0  0  2  0  0  0  0  0  0
  -30.0330  -18.5000   22.5240 C   0  0  0  0  0  2  0  0  0  0  0  0
  -30.1470  -20.1540   20.6040 C   0  0  0  0  0  2  0  0  0  0  0  0
  -31.0900  -17.7480   20.5380 C   0  0  0  0  0  2  0  0  0  0  0  0
  -32.4820  -22.0940   21.6470 C   0  0  0  0  0  2  0  0  0  0  0  0
  -30.9920  -21.2170   19.8640 C   0  0  0  0  0  2  0  0  0  0  0  0
  -31.1770  -16.5660   21.5360 C   0  0  0  0  0  3  0  0  0  0  0  0
  -30.9070  -19.0380   21.3760 C   0  0  1  0  0  0  0  0  0  0  0  0
  -31.3240  -22.3620   20.7570 N   0  0  2  0  0  4  0  0  0  0  0  0
  -30.5180  -22.4680   21.3530 H   0  0  0  0  0  0  0  0  0  0  0  0
  -30.9560  -14.4970   20.1510 C   0  0  0  0  0  0  0  0  0  0  0  0
  -30.4980  -12.4470   18.8570 C   0  0  0  0  0  2  0  0  0  0  0  0
  -29.4860  -12.7270   17.7300 C   0  0  0  0  0  2  0  0  0  0  0  0
  -28.0420  -12.5770   18.2450 C   0  0  0  0  0  2  0  0  0  0  0  0
  -27.7970  -13.3600   19.5630 C   0  0  0  0  0  3  0  0  0  0  0  0
  -28.9140  -13.0720   20.5920 C   0  0  0  0  0  2  0  0  0  0  0  0
  -30.2140  -13.3730   19.9620 N   0  0  0  0  0  0  0  0  0  0  0  0
  -31.9810  -14.7470   19.5090 O   0  0  0  0  0  0  0  0  0  0  0  0
  -30.5010  -15.3480   21.0800 N   0  0  0  0  0  0  0  0  0  0  0  0
  -29.6530  -15.0790   21.5570 H   0  0  0  0  0  0  0  0  0  0  0  0
  -25.4440  -13.9590   20.4240 C   0  0  0  0  0  0  0  0  0  0  0  0
  -24.3940  -13.1810   20.8310 C   0  0  0  0  0  0  0  0  0  0  0  0
  -24.8440  -11.8280   20.7350 C   0  0  0  0  0  0  0  0  0  0  0  0
  -26.4700  -13.0800   20.1100 N   0  0  0  0  0  0  0  0  0  0  0  0
  -26.1140  -11.7910   20.3540 N   0  0  0  0  0  0  0  0  0  0  0  0
  -24.1220  -10.5630   20.9310 C   0  0  0  0  0  0  0  0  0  0  0  0
  -24.5370   -9.6190   21.8940 C   0  0  0  0  0  3  0  0  0  0  0  0
  -23.8170   -8.4190   22.0780 C   0  0  0  0  0  3  0  0  0  0  0  0
  -22.6660   -8.1560   21.2970 C   0  0  0  0  0  0  0  0  0  0  0  0
  -22.2700   -9.0890   20.3250 C   0  0  0  0  0  3  0  0  0  0  0  0
  -22.9910  -10.2800   20.1400 C   0  0  0  0  0  3  0  0  0  0  0  0
  -21.9190   -7.0060   21.3880 O   0  0  0  0  0  0  0  0  0  0  0  0
  -21.7420   -6.3560   22.5820 C   0  0  0  0  0  0  0  0  0  0  0  0
  -21.1210   -6.9790   23.6860 C   0  0  0  0  0  3  0  0  0  0  0  0
  -20.8960   -6.2500   24.8720 C   0  0  0  0  0  3  0  0  0  0  0  0
  -21.2830   -4.8990   24.9530 C   0  0  0  0  0  0  0  0  0  0  0  0
  -21.8960   -4.2750   23.8520 C   0  0  0  0  0  3  0  0  0  0  0  0
  -22.1220   -5.0010   22.6700 C   0  0  0  0  0  0  0  0  0  0  0  0
  -22.6940   -4.3900   21.6050 F   0  0  0  0  0  0  0  0  0  0  0  0
  -21.0600   -4.1970   26.0880 F   0  0  0  0  0  0  0  0  0  0  0  0
  -23.0170  -13.6570   21.1970 C   0  0  0  0  0  0  0  0  0  0  0  0
  -22.3420  -12.9460   22.0950 N   0  0  0  0  0  0  0  0  0  0  0  0
  -22.5500  -14.6910   20.7230 O   0  0  0  0  0  0  0  0  0  0  0  0
  -22.7320  -12.1080   22.5000 H   0  0  0  0  0  0  0  0  0  0  0  0
  -21.4200  -13.2440   22.3800 H   0  0  0  0  0  0  0  0  0  0  0  0
  -25.6070  -15.3330   20.2750 N   0  0  0  0  0  0  0  0  0  0  0  0
  -24.8510  -15.9900   20.4410 H   0  0  0  0  0  0  0  0  0  0  0  0
  -26.4500  -15.7790   19.9320 H   0  0  0  0  0  0  0  0  0  0  0  0
  -31.4420  -23.6770   20.0590 C   0  0  0  0  0  2  0  0  0  0  0  0
  -30.6690  -24.7830   20.8100 C   0  0  0  0  0  2  0  0  0  0  0  0
  -30.8250  -26.1900   20.1940 C   0  0  0  0  0  2  0  0  0  0  0  0
  -29.7240  -27.1760   20.6350 C   0  0  0  0  0  2  0  0  0  0  0  0
  -28.5060  -26.7060   20.0760 O   0  0  0  0  0  0  0  0  0  0  0  0
  -24.5390  -31.8010   23.2110 C   0  0  0  0  0  0  0  0  0  0  0  0
  -27.3660  -27.4750   20.1460 C   0  0  0  0  0  0  0  0  0  0  0  0
  -23.4020  -30.3950   21.5220 C   0  0  0  0  0  3  0  0  0  0  0  0
  -24.9250  -28.9010   20.1250 C   0  0  0  0  0  0  0  0  0  0  0  0
  -25.9210  -30.8130   21.3910 C   0  0  0  0  0  2  0  0  0  0  0  0
  -26.0530  -29.4500   20.7470 C   0  0  0  0  0  0  0  0  0  0  0  0
  -27.2780  -28.7460   20.7650 C   0  0  0  0  0  3  0  0  0  0  0  0
  -26.2180  -26.9330   19.5340 C   0  0  0  0  0  3  0  0  0  0  0  0
  -24.9990  -27.6350   19.5200 C   0  0  0  0  0  3  0  0  0  0  0  0
  -23.6600  -29.7300   20.1440 C   0  0  0  0  0  2  0  0  0  0  0  0
  -24.6370  -31.0160   22.1010 N   0  0  0  0  0  0  0  0  0  0  0  0
  -23.4400  -32.0480   23.7260 O   0  0  0  0  0  0  0  0  0  0  0  0
  -22.7460  -29.3520   22.4550 C   0  0  0  0  0  0  0  0  0  0  0  0
  -21.4350  -29.1270   22.2700 N   0  0  0  0  0  0  0  0  0  0  0  0
  -23.4160  -28.7470   23.2970 O   0  0  0  0  0  0  0  0  0  0  0  0
  -20.9570  -29.6700   21.5640 H   0  0  0  0  0  0  0  0  0  0  0  0
  -18.0790  -27.8420   22.6360 C   0  0  0  0  0  0  0  0  0  0  0  0
  -20.6170  -28.1630   23.0040 C   0  0  0  0  0  3  0  0  0  0  0  0
  -20.7780  -26.7390   22.4220 C   0  0  0  0  0  2  0  0  0  0  0  0
  -19.7220  -26.3960   21.3670 C   0  0  0  0  0  2  0  0  0  0  0  0
  -18.3140  -26.5020   21.9600 C   0  0  0  0  0  2  0  0  0  0  0  0
  -19.1610  -28.6290   23.1130 C   0  0  0  0  0  0  0  0  0  0  0  0
  -18.8890  -29.8830   23.7010 C   0  0  0  0  0  3  0  0  0  0  0  0
  -17.5680  -30.3500   23.8200 C   0  0  0  0  0  3  0  0  0  0  0  0
  -16.4980  -29.5610   23.3610 C   0  0  0  0  0  3  0  0  0  0  0  0
  -16.7550  -28.3080   22.7760 C   0  0  0  0  0  3  0  0  0  0  0  0
  -25.7980  -32.4470   23.8700 C   0  0  0  0  0  3  0  0  0  0  0  0
  -26.2820  -31.6820   25.1630 C   0  0  1  0  0  0  0  0  0  0  0  0
  -25.1540  -31.4140   26.1860 C   0  0  0  0  0  1  0  0  0  0  0  0
  -26.9120  -30.3200   24.7890 C   0  0  0  0  0  1  0  0  0  0  0  0
  -27.3880  -32.4980   25.8730 C   0  0  0  0  0  1  0  0  0  0  0  0
  -25.4650  -33.8420   24.1820 N   0  0  0  0  0  0  0  0  0  0  0  0
  -25.8380  -34.8950   23.4410 C   0  0  0  0  0  0  0  0  0  0  0  0
  -26.5690  -34.7930   22.4520 O   0  0  0  0  0  0  0  0  0  0  0  0
  -24.8210  -33.9970   24.9420 H   0  0  0  0  0  0  0  0  0  0  0  0
  -24.1430  -36.6920   22.9640 C   0  0  0  0  0  1  0  0  0  0  0  0
  -25.3200  -36.2820   23.8660 C   0  0  0  0  0  3  0  0  0  0  0  0
  -27.3800  -37.1630   24.8700 C   0  0  0  0  0  1  0  0  0  0  0  0
  -26.3590  -37.3340   23.8380 N   0  0  0  0  0  0  0  0  0  0  0  0
  -25.9450  -38.2540   23.9520 H   0  0  0  0  0  0  0  0  0  0  0  0
  3  1  1  0
  4  2  1  0
 10  5  1  6
  6  9  1  0
  7  1  1  0
  8  5  1  0
  8 11  1  0
  9 21  1  0
  9  2  1  0
 10  6  1  0
 10  3  1  0
 10  4  1  0
 11 12  1  1
 11  7  1  0
 13 21  1  0
 14 19  1  0
 15 16  1  0
 15 14  1  0
 17 16  1  0
 17 26  1  0
 17 18  1  0
 19 13  1  0
 19 18  1  0
 20 13  2  0
 21 22  1  0
 23 24  2  0
 24 43  1  0
 25 24  1  0
 25 28  1  0
 26 27  1  0
 26 23  1  0
 27 25  2  0
 28 29  1  0
 29 30  2  0
 31 34  1  0
 31 30  1  0
 32 31  2  0
 33 32  1  0
 33 28  2  0
 34 35  1  0
 35 40  2  0
 35 36  1  0
 36 37  2  0
 37 38  1  0
 38 42  1  0
 39 38  2  0
 40 39  1  0
 41 40  1  0
 43 44  1  0
 44 47  1  0
 44 46  1  0
 45 43  2  0
 48 23  1  0
 48 49  1  0
 50 48  1  0
 51 11  1  0
 51 52  1  0
 53 54  1  0
 53 52  1  0
 55 57  1  0
 55 54  1  0
 56 67  2  0
 57 62  1  0
 58 66  1  0
 58 68  1  0
 59 65  1  0
 59 61  1  0
 60 66  1  0
 61 62  2  0
 61 60  1  0
 63 57  2  0
 64 63  1  0
 64 59  2  0
 65 58  1  0
 66 56  1  0
 68 70  2  0
 69 68  1  0
 71 69  1  0
 72 81  2  0
 72 77  1  0
 73 69  1  0
 73 77  1  0
 74 73  1  0
 75 76  1  0
 75 74  1  0
 76 72  1  0
 77 78  2  0
 78 79  1  0
 80 79  2  0
 81 80  1  0
 82 56  1  0
 82 87  1  0
 82 83  1  0
 83 86  1  1
 83 84  1  0
 85 83  1  0
 87 90  1  0
 88 92  1  0
 88 87  1  0
 89 88  2  0
 92 91  1  0
 94 92  1  0
 94 95  1  0
 94 93  1  0
M  ISO  4  13 100  21 100  54 101  55 101
M  END
>  <TORSDO>  (58) 
F 20

>  <SCORE>  (58) 
-12.373

>  <name>  (58) 
57

>  <ligand_id>  (58) 
57

>  <original_smiles>  (58) 
[H]c1c([H])c([H])c2c(c1[H])C([H])([H])C([H])([H])C([H])([H])C2([H])N([H])C(=O)C1([H])N(C(=O)C([H])(N([H])C(=O)C([H])(N([H])C([H])([H])[H])C([H])([H])[H])C(C([H])([H])[H])(C([H])([H])[H])C([H])([H])[H])C([H])([H])c2c([H])c(OC([H])([H])C([H])([H])C([H])([H])C([H])([H])[N+]3([H])C([H])([H])C([H])([H])C([H])([H])C4(C([H])([H])C([H])([H])C([H])(N([H])C(=O)N5C([H])([H])C([H])([H])C([H])([H])C([H])(n6nc(-c7c([H])c([H])c(Oc8c([H])c([H])c(F)c([H])c8F)c([H])c7[H])c(C(=O)N([H])[H])c6N([H])[H])C5([H])[H])C4([H])[H])C([H])([H])C3([H])[H])c([H])c([H])c2C1([H])[H]

>  <smiles>  (58) 
[H]c1c([H])c([H])c2c(c1[H])C([H])([H])C([H])([H])C([H])([H])C2([H])N([H])C(=O)C1([H])N(C(=O)C([H])(N([H])C(=O)C([H])(N([H])C([H])([H])[H])C([H])([H])[H])C(C([H])([H])[H])(C([H])([H])[H])C([H])([H])[H])C([H])([H])c2c([H])c(OC([H])([H])C([H])([H])C([H])([H])C([H])([H])[N+]3([H])C([H])([H])C([H])([H])C([H])([H])C4(C([H])([H])C([H])([H])C([H])(N([H])C(=O)N5C([H])([H])C([H])([H])C([H])([H])C([H])(n6nc(-c7c([H])c([H])c(Oc8c([H])c([H])c(F)c([H])c8F)c([H])c7[H])c(C(=O)N([H])[H])c6N([H])[H])C5([H])[H])C4([H])[H])C([H])([H])C3([H])[H])c([H])c([H])c2C1([H])[H]

$$$$
58:0:0
     RDKit          3D

 99108  0  0  1  0  0  0  0  0999 V2000
  -28.4970  -22.1320   22.5310 C   0  0  0  0  0  3  0  0  0  0  0  0
  -29.7340  -20.0260   22.2910 C   0  0  0  0  0  3  0  0  0  0  0  0
  -28.0130  -23.3250   21.9540 C   0  0  0  0  0  3  0  0  0  0  0  0
  -30.5220  -19.1600   21.5070 C   0  0  0  0  0  3  0  0  0  0  0  0
  -29.3840  -22.9260   19.9780 C   0  0  0  0  0  3  0  0  0  0  0  0
  -30.7090  -20.8810   19.8020 C   0  0  0  0  0  3  0  0  0  0  0  0
  -29.3680  -21.2960   21.8030 C   0  0  0  0  0  0  0  0  0  0  0  0
  -29.8430  -21.7140   20.5380 C   0  0  0  0  0  0  0  0  0  0  0  0
  -28.4150  -23.7000   20.6520 C   0  0  0  0  0  0  0  0  0  0  0  0
  -31.0300  -19.5720   20.2510 C   0  0  0  0  0  0  0  0  0  0  0  0
  -27.6800  -24.8050   19.8990 C   0  0  0  0  0  2  0  0  0  0  0  0
  -28.4910  -26.0700   19.5440 C   0  0  0  0  0  2  0  0  0  0  0  0
  -27.8990  -26.8130   18.4680 O   0  0  0  0  0  0  0  0  0  0  0  0
  -24.3670  -31.1690   22.8390 C   0  0  0  0  0  0  0  0  0  0  0  0
  -26.7190  -27.4440   18.7730 C   0  0  0  0  0  0  0  0  0  0  0  0
  -22.9850  -29.9100   21.2190 C   0  0  0  0  0  3  0  0  0  0  0  0
  -24.2680  -28.7080   19.3720 C   0  0  0  0  0  0  0  0  0  0  0  0
  -25.4060  -30.5130   20.6740 C   0  0  0  0  0  2  0  0  0  0  0  0
  -25.4720  -29.2450   19.8480 C   0  0  0  0  0  0  0  0  0  0  0  0
  -26.7020  -28.6170   19.5550 C   0  0  0  0  0  3  0  0  0  0  0  0
  -25.5070  -26.9290   18.2690 C   0  0  0  0  0  3  0  0  0  0  0  0
  -24.2810  -27.5440   18.5810 C   0  0  0  0  0  3  0  0  0  0  0  0
  -22.9980  -29.4460   19.7370 C   0  0  0  0  0  2  0  0  0  0  0  0
  -24.2810  -30.5370   21.6340 N   0  0  0  0  0  0  0  0  0  0  0  0
  -23.3820  -31.2700   23.5830 O   0  0  0  0  0  0  0  0  0  0  0  0
  -22.5710  -28.7140   22.1060 C   0  0  0  0  0  0  0  0  0  0  0  0
  -21.2780  -28.3530   22.0590 N   0  0  0  0  0  0  0  0  0  0  0  0
  -23.4040  -28.1180   22.7920 O   0  0  0  0  0  0  0  0  0  0  0  0
  -20.6560  -28.9030   21.4830 H   0  0  0  0  0  0  0  0  0  0  0  0
  -18.2050  -26.5050   22.5040 C   0  0  0  0  0  0  0  0  0  0  0  0
  -20.6690  -27.2340   22.7790 C   0  0  0  0  0  3  0  0  0  0  0  0
  -21.0340  -25.8830   22.1210 C   0  0  0  0  0  2  0  0  0  0  0  0
  -20.0000  -25.4110   21.0960 C   0  0  0  0  0  2  0  0  0  0  0  0
  -18.6270  -25.2530   21.7530 C   0  0  0  0  0  2  0  0  0  0  0  0
  -19.1630  -27.4430   22.9710 C   0  0  0  0  0  0  0  0  0  0  0  0
  -18.7150  -28.6090   23.6320 C   0  0  0  0  0  3  0  0  0  0  0  0
  -17.3410  -28.8430   23.8250 C   0  0  0  0  0  3  0  0  0  0  0  0
  -16.3970  -27.9040   23.3730 C   0  0  0  0  0  3  0  0  0  0  0  0
  -16.8300  -26.7360   22.7200 C   0  0  0  0  0  3  0  0  0  0  0  0
  -25.7030  -31.8130   23.3300 C   0  0  0  0  0  3  0  0  0  0  0  0
  -26.4090  -30.9840   24.4720 C   0  0  1  0  0  0  0  0  0  0  0  0
  -25.4670  -30.6030   25.6380 C   0  0  0  0  0  1  0  0  0  0  0  0
  -27.0090  -29.6770   23.9030 C   0  0  0  0  0  1  0  0  0  0  0  0
  -27.5880  -31.7950   25.0600 C   0  0  0  0  0  1  0  0  0  0  0  0
  -25.3930  -33.1730   23.7880 N   0  0  0  0  0  0  0  0  0  0  0  0
  -25.6280  -34.2840   23.0770 C   0  0  0  0  0  0  0  0  0  0  0  0
  -26.2010  -34.2720   21.9840 O   0  0  0  0  0  0  0  0  0  0  0  0
  -24.8680  -33.2510   24.6460 H   0  0  0  0  0  0  0  0  0  0  0  0
  -23.8380  -36.0480   22.9980 C   0  0  0  0  0  1  0  0  0  0  0  0
  -25.1510  -35.6220   23.6740 C   0  0  0  0  0  3  0  0  0  0  0  0
  -27.3340  -36.4960   24.3800 C   0  0  0  0  0  1  0  0  0  0  0  0
  -26.1480  -36.7080   23.5550 N   0  0  0  0  0  0  0  0  0  0  0  0
  -25.7400  -37.6030   23.8070 H   0  0  0  0  0  0  0  0  0  0  0  0
  -31.8190  -18.5750   19.3700 C   0  0  0  0  0  3  0  0  0  0  0  0
  -32.5680  -19.2890   18.2070 C   0  0  0  0  0  2  0  0  0  0  0  0
  -33.3230  -18.3960   17.2010 C   0  0  0  0  0  2  0  0  0  0  0  0
  -33.6310  -19.1110   15.9500 N   0  0  0  0  0  4  0  0  0  0  0  0
  -34.1600  -18.5220   15.3330 H   0  0  0  0  0  0  0  0  0  0  0  0
  -34.1680  -19.9420   16.1270 H   0  0  0  0  0  0  0  0  0  0  0  0
  -32.7850  -19.3710   15.4730 H   0  0  0  0  0  0  0  0  0  0  0  0
  -32.7190  -17.6020   20.1990 C   0  0  0  0  0  2  0  0  0  0  0  0
  -32.6100  -15.1390   19.8280 C   0  0  0  0  0  0  0  0  0  0  0  0
  -32.2530  -12.7660   19.2860 C   0  0  0  0  0  2  0  0  0  0  0  0
  -31.3300  -12.6160   18.0630 C   0  0  0  0  0  2  0  0  0  0  0  0
  -29.8570  -12.5800   18.5090 C   0  0  0  0  0  2  0  0  0  0  0  0
  -29.4960  -13.7440   19.4710 C   0  0  0  0  0  3  0  0  0  0  0  0
  -30.5440  -13.8940   20.6010 C   0  0  0  0  0  2  0  0  0  0  0  0
  -31.8810  -14.0030   19.9910 N   0  0  0  0  0  0  0  0  0  0  0  0
  -33.6650  -15.1670   19.1940 O   0  0  0  0  0  0  0  0  0  0  0  0
  -32.1140  -16.2660   20.3510 N   0  0  0  0  0  0  0  0  0  0  0  0
  -31.2540  -16.1940   20.8740 H   0  0  0  0  0  0  0  0  0  0  0  0
  -27.2140  -14.5620   20.3370 C   0  0  0  0  0  0  0  0  0  0  0  0
  -26.0840  -13.8900   20.7160 C   0  0  0  0  0  0  0  0  0  0  0  0
  -26.3850  -12.4990   20.5780 C   0  0  0  0  0  0  0  0  0  0  0  0
  -28.1420  -13.5890   20.0020 N   0  0  0  0  0  0  0  0  0  0  0  0
  -27.6480  -12.3390   20.2040 N   0  0  0  0  0  0  0  0  0  0  0  0
  -25.5290  -11.3170   20.7330 C   0  0  0  0  0  0  0  0  0  0  0  0
  -25.8350  -10.2980   21.6640 C   0  0  0  0  0  3  0  0  0  0  0  0
  -24.9870   -9.1790   21.8050 C   0  0  0  0  0  3  0  0  0  0  0  0
  -23.8160   -9.0710   21.0160 C   0  0  0  0  0  0  0  0  0  0  0  0
  -23.5310  -10.0750   20.0750 C   0  0  0  0  0  3  0  0  0  0  0  0
  -24.3790  -11.1850   19.9330 C   0  0  0  0  0  3  0  0  0  0  0  0
  -22.9480   -8.0060   21.0670 O   0  0  0  0  0  0  0  0  0  0  0  0
  -22.5610   -7.4500   22.2600 C   0  0  0  0  0  0  0  0  0  0  0  0
  -21.9270   -8.2110   23.2660 C   0  0  0  0  0  3  0  0  0  0  0  0
  -21.4820   -7.5850   24.4480 C   0  0  0  0  0  3  0  0  0  0  0  0
  -21.6630   -6.2000   24.6210 C   0  0  0  0  0  0  0  0  0  0  0  0
  -22.2880   -5.4390   23.6190 C   0  0  0  0  0  3  0  0  0  0  0  0
  -22.7330   -6.0630   22.4390 C   0  0  0  0  0  0  0  0  0  0  0  0
  -23.3170   -5.3220   21.4670 F   0  0  0  0  0  0  0  0  0  0  0  0
  -21.2280   -5.5970   25.7530 F   0  0  0  0  0  0  0  0  0  0  0  0
  -24.7640  -14.4990   21.0910 C   0  0  0  0  0  0  0  0  0  0  0  0
  -23.9990  -13.8300   21.9470 N   0  0  0  0  0  0  0  0  0  0  0  0
  -24.4230  -15.6000   20.6610 O   0  0  0  0  0  0  0  0  0  0  0  0
  -24.2870  -12.9360   22.3160 H   0  0  0  0  0  0  0  0  0  0  0  0
  -23.1150  -14.2210   22.2410 H   0  0  0  0  0  0  0  0  0  0  0  0
  -27.5260  -15.9150   20.2340 N   0  0  0  0  0  0  0  0  0  0  0  0
  -26.8490  -16.6450   20.4280 H   0  0  0  0  0  0  0  0  0  0  0  0
  -28.4140  -16.2750   19.9060 H   0  0  0  0  0  0  0  0  0  0  0  0
  3  1  1  0
  4  2  2  0
  5  8  2  0
  5  9  1  0
  6 10  2  0
  6  8  1  0
  7  2  1  0
  7  1  2  0
  8  7  1  0
  9  3  2  0
 10  4  1  0
 11  9  1  0
 12 11  1  0
 13 15  1  0
 13 12  1  0
 14 25  2  0
 15 20  1  0
 16 24  1  0
 16 26  1  0
 17 23  1  0
 17 19  1  0
 18 24  1  0
 19 18  1  0
 20 19  2  0
 21 22  1  0
 21 15  2  0
 22 17  2  0
 23 16  1  0
 24 14  1  0
 26 28  2  0
 27 26  1  0
 29 27  1  0
 30 39  2  0
 30 35  1  0
 31 27  1  0
 31 35  1  0
 32 31  1  0
 33 34  1  0
 33 32  1  0
 34 30  1  0
 35 36  2  0
 36 37  1  0
 38 37  2  0
 39 38  1  0
 40 14  1  0
 40 45  1  0
 40 41  1  0
 41 44  1  1
 41 42  1  0
 43 41  1  0
 45 48  1  0
 46 50  1  0
 46 45  1  0
 47 46  2  0
 50 49  1  0
 52 50  1  0
 52 53  1  0
 52 51  1  0
 54 55  1  0
 54 61  1  0
 54 10  1  0
 56 55  1  0
 57 59  1  0
 57 56  1  0
 58 57  1  0
 60 57  1  0
 61 70  1  0
 62 68  1  0
 62 70  1  0
 63 68  1  0
 64 65  1  0
 64 63  1  0
 66 65  1  0
 66 75  1  0
 66 67  1  0
 68 67  1  0
 69 62  2  0
 70 71  1  0
 72 73  2  0
 73 92  1  0
 74 73  1  0
 74 77  1  0
 75 76  1  0
 75 72  1  0
 76 74  2  0
 77 78  1  0
 78 79  2  0
 80 83  1  0
 80 79  1  0
 81 80  2  0
 82 81  1  0
 82 77  2  0
 83 84  1  0
 84 89  2  0
 84 85  1  0
 85 86  2  0
 86 87  1  0
 87 91  1  0
 88 87  2  0
 89 88  1  0
 90 89  1  0
 92 93  1  0
 93 96  1  0
 93 95  1  0
 94 92  2  0
 97 72  1  0
 97 98  1  0
 99 97  1  0
M  ISO  4  12 101  13 101  62 100  70 100
M  END
>  <TORSDO>  (59) 
F 23

>  <SCORE>  (59) 
-7.732

>  <name>  (59) 
58

>  <ligand_id>  (59) 
58

>  <original_smiles>  (59) 
[H]c1c([H])c([H])c2c(c1[H])C([H])([H])C([H])([H])C([H])([H])C2([H])N([H])C(=O)C1([H])N(C(=O)C([H])(N([H])C(=O)C([H])(N([H])C([H])([H])[H])C([H])([H])[H])C(C([H])([H])[H])(C([H])([H])[H])C([H])([H])[H])C([H])([H])c2c([H])c(OC([H])([H])C([H])([H])c3c([H])c([H])c4c([H])c([H])c(C([H])(C([H])([H])N([H])C(=O)N5C([H])([H])C([H])([H])C([H])([H])C([H])(n6nc(-c7c([H])c([H])c(Oc8c([H])c([H])c(F)c([H])c8F)c([H])c7[H])c(C(=O)N([H])[H])c6N([H])[H])C5([H])[H])C([H])([H])C([H])([H])[N+]([H])([H])[H])c([H])c4c3[H])c([H])c([H])c2C1([H])[H]

>  <smiles>  (59) 
[H]c1c([H])c([H])c2c(c1[H])C([H])([H])C([H])([H])C([H])([H])C2([H])N([H])C(=O)C1([H])N(C(=O)C([H])(N([H])C(=O)C([H])(N([H])C([H])([H])[H])C([H])([H])[H])C(C([H])([H])[H])(C([H])([H])[H])C([H])([H])[H])C([H])([H])c2c([H])c(OC([H])([H])C([H])([H])c3c([H])c([H])c4c([H])c([H])c(C([H])(C([H])([H])N([H])C(=O)N5C([H])([H])C([H])([H])C([H])([H])C([H])(n6nc(-c7c([H])c([H])c(Oc8c([H])c([H])c(F)c([H])c8F)c([H])c7[H])c(C(=O)N([H])[H])c6N([H])[H])C5([H])[H])C([H])([H])C([H])([H])[N+]([H])([H])[H])c([H])c4c3[H])c([H])c([H])c2C1([H])[H]

$$$$
59:0:0
     RDKit          3D

 95105  0  0  1  0  0  0  0  0999 V2000
  -27.6870  -21.8290   22.1880 C   0  0  0  0  0  2  0  0  0  0  0  0
  -28.9020  -22.7780   22.1330 C   0  0  0  0  0  2  0  0  0  0  0  0
  -27.9020  -22.6450   19.9520 C   0  0  0  0  0  2  0  0  0  0  0  0
  -28.2040  -20.1820   20.2640 C   0  0  0  0  0  2  0  0  0  0  0  0
  -30.2220  -21.7530   20.1790 C   0  0  0  0  0  2  0  0  0  0  0  0
  -27.4190  -21.4270   20.7290 C   0  0  0  0  0  3  0  0  0  0  0  0
  -29.2460  -22.9420   20.6280 C   0  0  2  0  0  0  0  0  0  0  0  0
  -29.7580  -20.2350   20.4560 C   0  0  1  0  0  0  0  0  0  0  0  0
  -30.0910  -19.8410   21.8420 N   0  0  0  0  0  4  0  0  0  0  0  0
  -29.6580  -20.4760   22.4920 H   0  0  0  0  0  0  0  0  0  0  0  0
  -31.0840  -19.8550   21.9940 H   0  0  0  0  0  0  0  0  0  0  0  0
  -29.7550  -18.9140   22.0380 H   0  0  0  0  0  0  0  0  0  0  0  0
  -30.3760  -19.1520   19.4550 C   0  0  0  0  0  2  0  0  0  0  0  0
  -31.2120  -16.9160   18.7480 C   0  0  0  0  0  2  0  0  0  0  0  0
  -30.8310  -16.4020   20.1150 C   0  0  0  0  0  3  0  0  0  0  0  0
  -31.2560  -17.9130   19.8740 C   0  0  0  0  0  3  0  0  0  0  0  0
  -31.7120  -15.1520   20.3680 C   0  0  0  0  0  0  0  0  0  0  0  0
  -31.4850  -12.8400   19.5420 C   0  0  0  0  0  2  0  0  0  0  0  0
  -30.6000  -12.8970   18.2730 C   0  0  0  0  0  2  0  0  0  0  0  0
  -29.1050  -12.8120   18.6420 C   0  0  0  0  0  2  0  0  0  0  0  0
  -28.7140  -13.8100   19.7610 C   0  0  0  0  0  3  0  0  0  0  0  0
  -29.7120  -13.7290   20.9410 C   0  0  0  0  0  2  0  0  0  0  0  0
  -31.0700  -13.9470   20.4220 N   0  0  0  0  0  0  0  0  0  0  0  0
  -32.9330  -15.2100   20.1950 O   0  0  0  0  0  0  0  0  0  0  0  0
  -26.3570  -14.5840   20.4310 C   0  0  0  0  0  0  0  0  0  0  0  0
  -25.2200  -13.8880   20.7500 C   0  0  0  0  0  0  0  0  0  0  0  0
  -25.5790  -12.5070   20.7000 C   0  0  0  0  0  0  0  0  0  0  0  0
  -27.3350  -13.6290   20.2040 N   0  0  0  0  0  0  0  0  0  0  0  0
  -26.8710  -12.3750   20.4300 N   0  0  0  0  0  0  0  0  0  0  0  0
  -24.7560  -11.3000   20.8390 C   0  0  0  0  0  0  0  0  0  0  0  0
  -25.0710  -10.2980   21.7830 C   0  0  0  0  0  3  0  0  0  0  0  0
  -24.2550   -9.1530   21.9080 C   0  0  0  0  0  3  0  0  0  0  0  0
  -23.1100   -9.0050   21.0900 C   0  0  0  0  0  0  0  0  0  0  0  0
  -22.8140   -9.9940   20.1380 C   0  0  0  0  0  3  0  0  0  0  0  0
  -23.6290  -11.1310   20.0100 C   0  0  0  0  0  3  0  0  0  0  0  0
  -22.2730   -7.9140   21.1250 O   0  0  0  0  0  0  0  0  0  0  0  0
  -22.0530   -7.2120   22.2830 C   0  0  0  0  0  0  0  0  0  0  0  0
  -21.5370   -7.8320   23.4420 C   0  0  0  0  0  3  0  0  0  0  0  0
  -21.2590   -7.0590   24.5870 C   0  0  0  0  0  3  0  0  0  0  0  0
  -21.4870   -5.6700   24.5740 C   0  0  0  0  0  0  0  0  0  0  0  0
  -21.9980   -5.0520   23.4190 C   0  0  0  0  0  3  0  0  0  0  0  0
  -22.2760   -5.8210   22.2750 C   0  0  0  0  0  0  0  0  0  0  0  0
  -22.7460   -5.2160   21.1580 F   0  0  0  0  0  0  0  0  0  0  0  0
  -21.2140   -4.9270   25.6720 F   0  0  0  0  0  0  0  0  0  0  0  0
  -23.8560  -14.4650   20.9890 C   0  0  0  0  0  0  0  0  0  0  0  0
  -23.0540  -13.8150   21.8260 N   0  0  0  0  0  0  0  0  0  0  0  0
  -23.5090  -15.5230   20.4670 O   0  0  0  0  0  0  0  0  0  0  0  0
  -23.3480  -12.9570   22.2700 H   0  0  0  0  0  0  0  0  0  0  0  0
  -22.1360  -14.1830   22.0270 H   0  0  0  0  0  0  0  0  0  0  0  0
  -26.6330  -15.9410   20.2930 N   0  0  0  0  0  0  0  0  0  0  0  0
  -25.9160  -16.6500   20.3860 H   0  0  0  0  0  0  0  0  0  0  0  0
  -27.5210  -16.3140   19.9830 H   0  0  0  0  0  0  0  0  0  0  0  0
  -29.7320  -24.4220   20.2530 C   0  0  0  0  0  2  0  0  0  0  0  0
  -28.9390  -25.6550   20.8640 C   0  0  0  0  0  2  0  0  0  0  0  0
  -29.0390  -26.9700   20.2200 O   0  0  0  0  0  0  0  0  0  0  0  0
  -24.7540  -31.8720   23.2710 C   0  0  0  0  0  0  0  0  0  0  0  0
  -27.8570  -27.7090   20.1730 C   0  0  0  0  0  0  0  0  0  0  0  0
  -23.7390  -30.4580   21.5170 C   0  0  0  0  0  3  0  0  0  0  0  0
  -25.3690  -29.0890   20.1040 C   0  0  0  0  0  0  0  0  0  0  0  0
  -26.2440  -30.9960   21.4620 C   0  0  0  0  0  2  0  0  0  0  0  0
  -26.4640  -29.6590   20.7690 C   0  0  0  0  0  0  0  0  0  0  0  0
  -27.7140  -28.9830   20.7900 C   0  0  0  0  0  3  0  0  0  0  0  0
  -26.7440  -27.1760   19.4900 C   0  0  0  0  0  3  0  0  0  0  0  0
  -25.5090  -27.8520   19.4530 C   0  0  0  0  0  3  0  0  0  0  0  0
  -24.0640  -29.8560   20.1240 C   0  0  0  0  0  2  0  0  0  0  0  0
  -24.9270  -31.1260   22.1420 N   0  0  0  0  0  0  0  0  0  0  0  0
  -23.6310  -32.0380   23.7680 O   0  0  0  0  0  0  0  0  0  0  0  0
  -23.1190  -29.3530   22.4010 C   0  0  0  0  0  0  0  0  0  0  0  0
  -21.8120  -29.1010   22.2160 N   0  0  0  0  0  0  0  0  0  0  0  0
  -23.8120  -28.7270   23.2080 O   0  0  0  0  0  0  0  0  0  0  0  0
  -21.3140  -29.6500   21.5280 H   0  0  0  0  0  0  0  0  0  0  0  0
  -18.4870  -27.7380   22.6010 C   0  0  0  0  0  0  0  0  0  0  0  0
  -21.0280  -28.0830   22.9150 C   0  0  0  0  0  3  0  0  0  0  0  0
  -21.1910  -26.7000   22.2470 C   0  0  0  0  0  2  0  0  0  0  0  0
  -20.1190  -26.4120   21.1950 C   0  0  0  0  0  2  0  0  0  0  0  0
  -18.7260  -26.4500   21.8300 C   0  0  0  0  0  2  0  0  0  0  0  0
  -19.5690  -28.5140   23.0950 C   0  0  0  0  0  0  0  0  0  0  0  0
  -19.2930  -29.7210   23.7730 C   0  0  0  0  0  3  0  0  0  0  0  0
  -17.9660  -30.1490   23.9660 C   0  0  0  0  0  3  0  0  0  0  0  0
  -16.8980  -29.3670   23.4920 C   0  0  0  0  0  3  0  0  0  0  0  0
  -17.1600  -28.1630   22.8120 C   0  0  0  0  0  3  0  0  0  0  0  0
  -25.9560  -32.5670   23.9830 C   0  0  0  0  0  3  0  0  0  0  0  0
  -25.5550  -33.9480   24.2820 N   0  0  0  0  0  0  0  0  0  0  0  0
  -25.8860  -35.0160   23.5440 C   0  0  0  0  0  0  0  0  0  0  0  0
  -26.6320  -34.9460   22.5630 O   0  0  0  0  0  0  0  0  0  0  0  0
  -24.8920  -34.0730   25.0340 H   0  0  0  0  0  0  0  0  0  0  0  0
  -24.0950  -36.7180   23.0640 C   0  0  0  0  0  1  0  0  0  0  0  0
  -25.2990  -36.3790   23.9590 C   0  0  0  0  0  3  0  0  0  0  0  0
  -27.3270  -37.3720   24.9230 C   0  0  0  0  0  1  0  0  0  0  0  0
  -26.2810  -37.4830   23.9090 N   0  0  0  0  0  0  0  0  0  0  0  0
  -25.8200  -38.3810   24.0260 H   0  0  0  0  0  0  0  0  0  0  0  0
  -26.4170  -31.8260   25.2980 C   0  0  1  0  0  0  0  0  0  0  0  0
  -25.2580  -31.5080   26.2740 C   0  0  0  0  0  1  0  0  0  0  0  0
  -27.1190  -30.4910   24.9540 C   0  0  0  0  0  1  0  0  0  0  0  0
  -27.4520  -32.6910   26.0540 C   0  0  0  0  0  1  0  0  0  0  0  0
  2  1  1  0
  3  7  1  0
  4  8  1  0
  4  6  1  0
  5  8  1  0
  5  7  1  0
  6  3  1  0
  6  1  1  0
  7 53  1  1
  7  2  1  0
  8 13  1  6
  8  9  1  0
  9 11  1  0
  9 12  1  0
  9 10  1  0
 14 16  1  0
 14 15  1  0
 15 17  1  0
 16 13  1  0
 16 15  1  0
 17 23  1  0
 18 23  1  0
 19 20  1  0
 19 18  1  0
 21 20  1  0
 21 28  1  0
 21 22  1  0
 23 22  1  0
 24 17  2  0
 25 26  2  0
 26 45  1  0
 27 26  1  0
 27 30  1  0
 28 29  1  0
 28 25  1  0
 29 27  2  0
 30 31  1  0
 31 32  2  0
 33 36  1  0
 33 32  1  0
 34 33  2  0
 35 34  1  0
 35 30  2  0
 36 37  1  0
 37 38  1  0
 38 39  2  0
 40 39  1  0
 40 44  1  0
 41 40  2  0
 42 37  2  0
 42 41  1  0
 43 42  1  0
 45 46  1  0
 46 49  1  0
 46 48  1  0
 47 45  2  0
 50 51  1  0
 50 25  1  0
 52 50  1  0
 53 54  1  0
 55 54  1  0
 56 67  2  0
 57 55  1  0
 57 62  1  0
 58 66  1  0
 58 68  1  0
 59 65  1  0
 59 61  1  0
 60 66  1  0
 61 62  2  0
 61 60  1  0
 63 57  2  0
 64 63  1  0
 64 59  2  0
 65 58  1  0
 66 56  1  0
 68 70  2  0
 69 68  1  0
 71 69  1  0
 72 81  2  0
 72 77  1  0
 73 69  1  0
 73 77  1  0
 74 73  1  0
 75 76  1  0
 75 74  1  0
 76 72  1  0
 77 78  2  0
 78 79  1  0
 80 79  2  0
 81 80  1  0
 82 56  1  0
 82 83  1  0
 82 92  1  0
 83 86  1  0
 84 88  1  0
 84 83  1  0
 85 84  2  0
 88 87  1  0
 90 88  1  0
 90 91  1  0
 90 89  1  0
 92 95  1  1
 92 93  1  0
 94 92  1  0
M  ISO  4  15 100  17 100  54 101  55 101
M  END
>  <TORSDO>  (60) 
F 21

>  <SCORE>  (60) 
-10.965

>  <name>  (60) 
59

>  <ligand_id>  (60) 
59

>  <original_smiles>  (60) 
[H]c1c([H])c([H])c2c(c1[H])C([H])([H])C([H])([H])C([H])([H])C2([H])N([H])C(=O)C1([H])N(C(=O)C([H])(N([H])C(=O)C([H])(N([H])C([H])([H])[H])C([H])([H])[H])C(C([H])([H])[H])(C([H])([H])[H])C([H])([H])[H])C([H])([H])c2c([H])c(OC([H])([H])C([H])([H])C34C([H])([H])C([H])([H])C([H])(C3([H])[H])C([H])([H])C(C([H])([H])C3([H])C([H])([H])C3([H])C(=O)N3C([H])([H])C([H])([H])C([H])([H])C([H])(n5nc(-c6c([H])c([H])c(Oc7c([H])c([H])c(F)c([H])c7F)c([H])c6[H])c(C(=O)N([H])[H])c5N([H])[H])C3([H])[H])([N+]([H])([H])[H])C4([H])[H])c([H])c([H])c2C1([H])[H]

>  <smiles>  (60) 
[H]c1c([H])c([H])c2c(c1[H])C([H])([H])C([H])([H])C([H])([H])C2([H])N([H])C(=O)C1([H])N(C(=O)C([H])(N([H])C(=O)C([H])(N([H])C([H])([H])[H])C([H])([H])[H])C(C([H])([H])[H])(C([H])([H])[H])C([H])([H])[H])C([H])([H])c2c([H])c(OC([H])([H])C([H])([H])C34C([H])([H])C([H])([H])C([H])(C3([H])[H])C([H])([H])C(C([H])([H])C3([H])C([H])([H])C3([H])C(=O)N3C([H])([H])C([H])([H])C([H])([H])C([H])(n5nc(-c6c([H])c([H])c(Oc7c([H])c([H])c(F)c([H])c7F)c([H])c6[H])c(C(=O)N([H])[H])c5N([H])[H])C3([H])[H])([N+]([H])([H])[H])C4([H])[H])c([H])c([H])c2C1([H])[H]

$$$$
60:0:0
     RDKit          3D

 92101  0  0  1  0  0  0  0  0999 V2000
  -30.8020  -21.3800   23.3640 C   0  0  0  0  0  0  0  0  0  0  0  0
  -30.9040  -22.4020   22.2570 C   0  0  0  0  0  2  0  0  0  0  0  0
  -30.5230  -20.0180   22.7800 C   0  0  0  0  0  2  0  0  0  0  0  0
  -28.6550  -20.2900   20.1670 C   0  0  0  0  0  2  0  0  0  0  0  0
  -30.4510  -21.6690   20.9850 C   0  0  0  0  0  3  0  0  0  0  0  0
  -30.7500  -20.1600   21.2600 C   0  0  0  0  0  3  0  0  0  0  0  0
  -28.9400  -21.8420   20.6930 C   0  0  0  0  0  3  0  0  0  0  0  0
  -29.8930  -19.2120   20.3650 C   0  0  0  0  0  3  0  0  0  0  0  0
  -30.9200  -21.6280   24.5970 N   0  0  0  0  0  0  0  0  0  0  0  0
  -31.0940  -22.6130   24.7700 H   0  0  0  0  0  0  0  0  0  0  0  0
  -28.5570  -23.3190   19.9460 C   0  0  0  0  0  2  0  0  0  0  0  0
  -28.1100  -24.7660   20.7050 C   0  0  0  0  0  2  0  0  0  0  0  0
  -28.2860  -26.2440   20.2400 O   0  0  0  0  0  0  0  0  0  0  0  0
  -24.6250  -31.9040   23.2570 C   0  0  0  0  0  0  0  0  0  0  0  0
  -27.2140  -27.2030   20.2410 C   0  0  0  0  0  0  0  0  0  0  0  0
  -23.4280  -30.4990   21.6230 C   0  0  0  0  0  3  0  0  0  0  0  0
  -24.8790  -28.9270   20.2020 C   0  0  0  0  0  0  0  0  0  0  0  0
  -25.9790  -30.7820   21.4460 C   0  0  0  0  0  2  0  0  0  0  0  0
  -26.0580  -29.3880   20.8010 C   0  0  0  0  0  0  0  0  0  0  0  0
  -27.2310  -28.5440   20.7980 C   0  0  0  0  0  3  0  0  0  0  0  0
  -26.0110  -26.8340   19.6090 C   0  0  0  0  0  3  0  0  0  0  0  0
  -24.8660  -27.6630   19.5900 C   0  0  0  0  0  3  0  0  0  0  0  0
  -23.6490  -29.8190   20.2460 C   0  0  0  0  0  2  0  0  0  0  0  0
  -24.6980  -31.0840   22.1640 N   0  0  0  0  0  0  0  0  0  0  0  0
  -23.5390  -32.1810   23.7900 O   0  0  0  0  0  0  0  0  0  0  0  0
  -22.7600  -29.4880   22.5890 C   0  0  0  0  0  0  0  0  0  0  0  0
  -21.4350  -29.2980   22.4590 N   0  0  0  0  0  0  0  0  0  0  0  0
  -23.4360  -28.8780   23.4220 O   0  0  0  0  0  0  0  0  0  0  0  0
  -20.9440  -29.8470   21.7650 H   0  0  0  0  0  0  0  0  0  0  0  0
  -18.0700  -28.0480   22.9450 C   0  0  0  0  0  0  0  0  0  0  0  0
  -20.6220  -28.3560   23.2340 C   0  0  0  0  0  3  0  0  0  0  0  0
  -20.7530  -26.9190   22.6770 C   0  0  0  0  0  2  0  0  0  0  0  0
  -19.6650  -26.5660   21.6570 C   0  0  0  0  0  2  0  0  0  0  0  0
  -18.2750  -26.6950   22.2860 C   0  0  0  0  0  2  0  0  0  0  0  0
  -19.1710  -28.8340   23.3770 C   0  0  0  0  0  0  0  0  0  0  0  0
  -18.9240  -30.0980   23.9560 C   0  0  0  0  0  3  0  0  0  0  0  0
  -17.6090  -30.5770   24.1070 C   0  0  0  0  0  3  0  0  0  0  0  0
  -16.5230  -29.7880   23.6930 C   0  0  0  0  0  3  0  0  0  0  0  0
  -16.7530  -28.5250   23.1170 C   0  0  0  0  0  3  0  0  0  0  0  0
  -25.9000  -32.5490   23.8800 C   0  0  0  0  0  3  0  0  0  0  0  0
  -26.4160  -31.7900   25.1640 C   0  0  1  0  0  0  0  0  0  0  0  0
  -25.3200  -31.5560   26.2310 C   0  0  0  0  0  1  0  0  0  0  0  0
  -27.0050  -30.4110   24.7860 C   0  0  0  0  0  1  0  0  0  0  0  0
  -27.5600  -32.5940   25.8230 C   0  0  0  0  0  1  0  0  0  0  0  0
  -25.5820  -33.9490   24.2070 N   0  0  0  0  0  0  0  0  0  0  0  0
  -25.9170  -35.0060   23.4550 C   0  0  0  0  0  0  0  0  0  0  0  0
  -26.5930  -34.9040   22.4280 O   0  0  0  0  0  0  0  0  0  0  0  0
  -24.9800  -34.1000   25.0040 H   0  0  0  0  0  0  0  0  0  0  0  0
  -24.1940  -36.8040   23.0890 C   0  0  0  0  0  1  0  0  0  0  0  0
  -25.4250  -36.3930   23.9130 C   0  0  0  0  0  3  0  0  0  0  0  0
  -27.5470  -37.2750   24.7760 C   0  0  0  0  0  1  0  0  0  0  0  0
  -26.4590  -37.4460   23.8180 N   0  0  0  0  0  0  0  0  0  0  0  0
  -26.0520  -38.3670   23.9600 H   0  0  0  0  0  0  0  0  0  0  0  0
  -29.9570  -17.6300   20.9970 C   0  0  0  0  0  2  0  0  0  0  0  0
  -30.5560  -15.0290   20.2750 C   0  0  0  0  0  0  0  0  0  0  0  0
  -30.4470  -12.6960   19.2770 C   0  0  0  0  0  2  0  0  0  0  0  0
  -29.4870  -12.6550   18.0650 C   0  0  0  0  0  2  0  0  0  0  0  0
  -28.0320  -12.4340   18.5230 C   0  0  0  0  0  2  0  0  0  0  0  0
  -27.6420  -13.3430   19.7200 C   0  0  0  0  0  3  0  0  0  0  0  0
  -28.7180  -13.3380   20.8230 C   0  0  0  0  0  2  0  0  0  0  0  0
  -29.9670  -13.7720   20.1850 N   0  0  0  0  0  0  0  0  0  0  0  0
  -31.7720  -15.1060   20.0730 O   0  0  0  0  0  0  0  0  0  0  0  0
  -29.7460  -16.1940   20.3800 N   0  0  0  0  0  0  0  0  0  0  0  0
  -28.7670  -15.9630   20.3000 H   0  0  0  0  0  0  0  0  0  0  0  0
  -25.2730  -13.9080   20.5000 C   0  0  0  0  0  0  0  0  0  0  0  0
  -24.2190  -13.1250   20.8820 C   0  0  0  0  0  0  0  0  0  0  0  0
  -24.6910  -11.7760   20.8370 C   0  0  0  0  0  0  0  0  0  0  0  0
  -26.3160  -13.0360   20.2390 N   0  0  0  0  0  0  0  0  0  0  0  0
  -25.9780  -11.7490   20.5090 N   0  0  0  0  0  0  0  0  0  0  0  0
  -23.9750  -10.5080   21.0280 C   0  0  0  0  0  0  0  0  0  0  0  0
  -24.4140   -9.5450   21.9610 C   0  0  0  0  0  3  0  0  0  0  0  0
  -23.6960   -8.3430   22.1400 C   0  0  0  0  0  3  0  0  0  0  0  0
  -22.5250   -8.0960   21.3840 C   0  0  0  0  0  0  0  0  0  0  0  0
  -22.1060   -9.0500   20.4390 C   0  0  0  0  0  3  0  0  0  0  0  0
  -22.8250  -10.2430   20.2580 C   0  0  0  0  0  3  0  0  0  0  0  0
  -21.7780   -6.9480   21.4720 O   0  0  0  0  0  0  0  0  0  0  0  0
  -21.7200   -6.2130   22.6300 C   0  0  0  0  0  0  0  0  0  0  0  0
  -21.2630   -6.7720   23.8440 C   0  0  0  0  0  3  0  0  0  0  0  0
  -21.1550   -5.9630   24.9930 C   0  0  0  0  0  3  0  0  0  0  0  0
  -21.4930   -4.5990   24.9290 C   0  0  0  0  0  0  0  0  0  0  0  0
  -21.9420   -4.0390   23.7200 C   0  0  0  0  0  3  0  0  0  0  0  0
  -22.0530   -4.8450   22.5730 C   0  0  0  0  0  0  0  0  0  0  0  0
  -22.4660   -4.2970   21.4050 F   0  0  0  0  0  0  0  0  0  0  0  0
  -21.3810   -3.8200   26.0300 F   0  0  0  0  0  0  0  0  0  0  0  0
  -22.8230  -13.5920   21.1740 C   0  0  0  0  0  0  0  0  0  0  0  0
  -22.1080  -12.8840   22.0410 N   0  0  0  0  0  0  0  0  0  0  0  0
  -22.3750  -14.6200   20.6690 O   0  0  0  0  0  0  0  0  0  0  0  0
  -22.4840  -12.0500   22.4670 H   0  0  0  0  0  0  0  0  0  0  0  0
  -21.1720  -13.1770   22.2820 H   0  0  0  0  0  0  0  0  0  0  0  0
  -25.4240  -15.2810   20.3260 N   0  0  0  0  0  0  0  0  0  0  0  0
  -24.6490  -15.9250   20.4430 H   0  0  0  0  0  0  0  0  0  0  0  0
  -26.2510  -15.7250   19.9510 H   0  0  0  0  0  0  0  0  0  0  0  0
  1  9  2  0
  2  1  1  0
  3  1  1  0
  4  8  1  0
  4  7  1  0
  5  6  1  0
  5  2  1  0
  6  3  1  0
  7 11  1  0
  7  5  1  0
  8 54  1  0
  8  6  1  0
  9 10  1  0
 11 12  1  0
 13 15  1  0
 13 12  1  0
 14 25  2  0
 15 20  1  0
 16 24  1  0
 16 26  1  0
 17 23  1  0
 17 19  1  0
 18 24  1  0
 19 18  1  0
 20 19  2  0
 21 15  2  0
 22 21  1  0
 22 17  2  0
 23 16  1  0
 24 14  1  0
 26 28  2  0
 27 26  1  0
 29 27  1  0
 30 39  2  0
 30 35  1  0
 31 27  1  0
 31 35  1  0
 32 31  1  0
 33 34  1  0
 33 32  1  0
 34 30  1  0
 35 36  2  0
 36 37  1  0
 38 37  2  0
 39 38  1  0
 40 14  1  0
 40 45  1  0
 40 41  1  0
 41 44  1  1
 41 42  1  0
 43 41  1  0
 45 48  1  0
 46 50  1  0
 46 45  1  0
 47 46  2  0
 50 49  1  0
 52 50  1  0
 52 53  1  0
 52 51  1  0
 55 63  1  0
 56 61  1  0
 57 58  1  0
 57 56  1  0
 59 58  1  0
 59 68  1  0
 59 60  1  0
 61 55  1  0
 61 60  1  0
 62 55  2  0
 63 54  1  0
 64 63  1  0
 65 66  2  0
 66 85  1  0
 67 66  1  0
 67 70  1  0
 68 65  1  0
 68 69  1  0
 69 67  2  0
 70 71  1  0
 71 72  2  0
 73 76  1  0
 73 72  1  0
 74 73  2  0
 75 74  1  0
 75 70  2  0
 76 77  1  0
 77 78  1  0
 78 79  2  0
 80 79  1  0
 80 84  1  0
 81 80  2  0
 82 77  2  0
 82 81  1  0
 83 82  1  0
 85 86  1  0
 86 89  1  0
 86 88  1  0
 87 85  2  0
 90 91  1  0
 90 65  1  0
 92 90  1  0
M  ISO  4  12 101  13 101  55 100  63 100
M  END
>  <TORSDO>  (61) 
F 19

>  <SCORE>  (61) 
-15.791

>  <name>  (61) 
60

>  <ligand_id>  (61) 
60

>  <original_smiles>  (61) 
[H]N=C1C([H])([H])C2([H])C([H])(C([H])([H])N([H])C(=O)N3C([H])([H])C([H])([H])C([H])([H])C([H])(n4nc(-c5c([H])c([H])c(Oc6c([H])c([H])c(F)c([H])c6F)c([H])c5[H])c(C(=O)N([H])[H])c4N([H])[H])C3([H])[H])C([H])([H])C([H])(C([H])([H])C([H])([H])Oc3c([H])c([H])c4c(c3[H])C([H])([H])N(C(=O)C([H])(N([H])C(=O)C([H])(N([H])C([H])([H])[H])C([H])([H])[H])C(C([H])([H])[H])(C([H])([H])[H])C([H])([H])[H])C([H])(C(=O)N([H])C3([H])c5c([H])c([H])c([H])c([H])c5C([H])([H])C([H])([H])C3([H])[H])C4([H])[H])C2([H])C1([H])[H]

>  <smiles>  (61) 
[H]N=C1C([H])([H])C2([H])C([H])(C([H])([H])N([H])C(=O)N3C([H])([H])C([H])([H])C([H])([H])C([H])(n4nc(-c5c([H])c([H])c(Oc6c([H])c([H])c(F)c([H])c6F)c([H])c5[H])c(C(=O)N([H])[H])c4N([H])[H])C3([H])[H])C([H])([H])C([H])(C([H])([H])C([H])([H])Oc3c([H])c([H])c4c(c3[H])C([H])([H])N(C(=O)C([H])(N([H])C(=O)C([H])(N([H])C([H])([H])[H])C([H])([H])[H])C(C([H])([H])[H])(C([H])([H])[H])C([H])([H])[H])C([H])(C(=O)N([H])C3([H])c5c([H])c([H])c([H])c([H])c5C([H])([H])C([H])([H])C3([H])[H])C4([H])[H])C2([H])C1([H])[H]

$$$$
61:0:0
     RDKit          3D

 91100  0  0  1  0  0  0  0  0999 V2000
  -30.0620  -22.3800   19.1870 C   0  0  0  0  0  2  0  0  0  0  0  0
  -29.0010  -21.3380   19.4290 C   0  0  0  0  0  3  0  0  0  0  0  0
  -29.0380  -22.6800   20.2630 C   0  0  0  0  0  3  0  0  0  0  0  0
  -29.2040  -18.7980   18.9080 C   0  0  0  0  0  3  0  0  0  0  0  0
  -29.8560  -19.4780   21.1040 C   0  0  0  0  0  3  0  0  0  0  0  0
  -29.4910  -17.4310   19.2180 C   0  0  0  0  0  3  0  0  0  0  0  0
  -30.1470  -18.1160   21.4210 C   0  0  0  0  0  3  0  0  0  0  0  0
  -29.3710  -19.8700   19.8320 C   0  0  0  0  0  0  0  0  0  0  0  0
  -29.9770  -17.0370   20.4940 C   0  0  0  0  0  0  0  0  0  0  0  0
  -30.7010  -14.6350   20.0090 C   0  0  0  0  0  0  0  0  0  0  0  0
  -30.3060  -12.4800   18.8180 C   0  0  0  0  0  2  0  0  0  0  0  0
  -29.2870  -12.6540   17.6720 C   0  0  0  0  0  2  0  0  0  0  0  0
  -27.8540  -12.4730   18.2010 C   0  0  0  0  0  2  0  0  0  0  0  0
  -27.5930  -13.2960   19.4940 C   0  0  0  0  0  3  0  0  0  0  0  0
  -28.7200  -13.1110   20.5260 C   0  0  0  0  0  2  0  0  0  0  0  0
  -29.9970  -13.4580   19.8830 N   0  0  0  0  0  0  0  0  0  0  0  0
  -31.7450  -14.8020   19.3740 O   0  0  0  0  0  0  0  0  0  0  0  0
  -30.5100  -15.3180   22.2730 C   0  0  0  0  0  1  0  0  0  0  0  0
  -30.2320  -15.6190   20.8570 N   0  0  0  0  0  0  0  0  0  0  0  0
  -25.2770  -13.8830   20.4260 C   0  0  0  0  0  0  0  0  0  0  0  0
  -24.2330  -13.1060   20.8470 C   0  0  0  0  0  0  0  0  0  0  0  0
  -24.6780  -11.7550   20.7340 C   0  0  0  0  0  0  0  0  0  0  0  0
  -26.2880  -13.0040   20.0740 N   0  0  0  0  0  0  0  0  0  0  0  0
  -25.9370  -11.7130   20.3170 N   0  0  0  0  0  0  0  0  0  0  0  0
  -23.9530  -10.4950   20.9390 C   0  0  0  0  0  0  0  0  0  0  0  0
  -24.3960   -9.5250   21.8640 C   0  0  0  0  0  3  0  0  0  0  0  0
  -23.6670   -8.3320   22.0550 C   0  0  0  0  0  3  0  0  0  0  0  0
  -22.4800   -8.1010   21.3210 C   0  0  0  0  0  0  0  0  0  0  0  0
  -22.0560   -9.0590   20.3840 C   0  0  0  0  0  3  0  0  0  0  0  0
  -22.7840  -10.2440   20.1930 C   0  0  0  0  0  3  0  0  0  0  0  0
  -21.7180   -6.9630   21.4230 O   0  0  0  0  0  0  0  0  0  0  0  0
  -21.6270   -6.2560   22.5950 C   0  0  0  0  0  0  0  0  0  0  0  0
  -21.1670   -6.8490   23.7920 C   0  0  0  0  0  3  0  0  0  0  0  0
  -21.0310   -6.0670   24.9580 C   0  0  0  0  0  3  0  0  0  0  0  0
  -21.3410   -4.6960   24.9270 C   0  0  0  0  0  0  0  0  0  0  0  0
  -21.7910   -4.1020   23.7340 C   0  0  0  0  0  3  0  0  0  0  0  0
  -21.9330   -4.8800   22.5710 C   0  0  0  0  0  0  0  0  0  0  0  0
  -22.3490   -4.2980   21.4200 F   0  0  0  0  0  0  0  0  0  0  0  0
  -21.2040   -3.9440   26.0430 F   0  0  0  0  0  0  0  0  0  0  0  0
  -22.8680  -13.5920   21.2350 C   0  0  0  0  0  0  0  0  0  0  0  0
  -22.2040  -12.8960   22.1540 N   0  0  0  0  0  0  0  0  0  0  0  0
  -22.3990  -14.6230   20.7580 O   0  0  0  0  0  0  0  0  0  0  0  0
  -22.5960  -12.0690   22.5770 H   0  0  0  0  0  0  0  0  0  0  0  0
  -21.2880  -13.2020   22.4450 H   0  0  0  0  0  0  0  0  0  0  0  0
  -25.4290  -15.2570   20.2900 N   0  0  0  0  0  0  0  0  0  0  0  0
  -24.6460  -15.8750   20.4680 H   0  0  0  0  0  0  0  0  0  0  0  0
  -26.2500  -15.7340   19.9360 H   0  0  0  0  0  0  0  0  0  0  0  0
  -26.6890  -23.3610   19.4890 C   0  0  0  0  0  1  0  0  0  0  0  0
  -28.0070  -23.8720   20.1220 C   0  0  0  0  0  3  0  0  0  0  0  0
  -28.5500  -25.2370   19.4880 C   0  0  0  0  0  2  0  0  0  0  0  0
  -28.3930  -26.5370   20.1650 O   0  0  0  0  0  0  0  0  0  0  0  0
  -24.6490  -31.8760   23.1960 C   0  0  0  0  0  0  0  0  0  0  0  0
  -27.2420  -27.3260   20.1080 C   0  0  0  0  0  0  0  0  0  0  0  0
  -23.4270  -30.4580   21.5780 C   0  0  0  0  0  3  0  0  0  0  0  0
  -24.8600  -28.9000   20.1390 C   0  0  0  0  0  0  0  0  0  0  0  0
  -25.9570  -30.7800   21.3680 C   0  0  0  0  0  2  0  0  0  0  0  0
  -26.0270  -29.3990   20.7310 C   0  0  0  0  0  0  0  0  0  0  0  0
  -27.2130  -28.6120   20.7230 C   0  0  0  0  0  3  0  0  0  0  0  0
  -26.0680  -26.8880   19.4630 C   0  0  0  0  0  3  0  0  0  0  0  0
  -24.8840  -27.6500   19.4940 C   0  0  0  0  0  3  0  0  0  0  0  0
  -23.6200  -29.7660   20.2000 C   0  0  0  0  0  2  0  0  0  0  0  0
  -24.6980  -31.0560   22.1040 N   0  0  0  0  0  0  0  0  0  0  0  0
  -23.5720  -32.1570   23.7390 O   0  0  0  0  0  0  0  0  0  0  0  0
  -22.7780  -29.4520   22.5570 C   0  0  0  0  0  0  0  0  0  0  0  0
  -21.4530  -29.2670   22.4390 N   0  0  0  0  0  0  0  0  0  0  0  0
  -23.4650  -28.8400   23.3800 O   0  0  0  0  0  0  0  0  0  0  0  0
  -20.9580  -29.8080   21.7430 H   0  0  0  0  0  0  0  0  0  0  0  0
  -18.0890  -28.0570   22.9770 C   0  0  0  0  0  0  0  0  0  0  0  0
  -20.6470  -28.3360   23.2290 C   0  0  0  0  0  3  0  0  0  0  0  0
  -20.7580  -26.8990   22.6670 C   0  0  0  0  0  2  0  0  0  0  0  0
  -19.6520  -26.5540   21.6660 C   0  0  0  0  0  2  0  0  0  0  0  0
  -18.2730  -26.7010   22.3160 C   0  0  0  0  0  2  0  0  0  0  0  0
  -19.2070  -28.8310   23.3910 C   0  0  0  0  0  0  0  0  0  0  0  0
  -18.9840  -30.0990   23.9700 C   0  0  0  0  0  3  0  0  0  0  0  0
  -17.6770  -30.5930   24.1420 C   0  0  0  0  0  3  0  0  0  0  0  0
  -16.5740  -29.8160   23.7450 C   0  0  0  0  0  3  0  0  0  0  0  0
  -16.7820  -28.5500   23.1670 C   0  0  0  0  0  3  0  0  0  0  0  0
  -25.9390  -32.5160   23.7960 C   0  0  0  0  0  3  0  0  0  0  0  0
  -26.4910  -31.7450   25.0570 C   0  0  1  0  0  0  0  0  0  0  0  0
  -25.4210  -31.4860   26.1420 C   0  0  0  0  0  1  0  0  0  0  0  0
  -27.0870  -30.3780   24.6430 C   0  0  0  0  0  1  0  0  0  0  0  0
  -27.6390  -32.5500   25.7090 C   0  0  0  0  0  1  0  0  0  0  0  0
  -25.6190  -33.9090   24.1490 N   0  0  0  0  0  0  0  0  0  0  0  0
  -25.9180  -34.9740   23.3970 C   0  0  0  0  0  0  0  0  0  0  0  0
  -26.5640  -34.8940   22.3480 O   0  0  0  0  0  0  0  0  0  0  0  0
  -25.0520  -34.0500   24.9710 H   0  0  0  0  0  0  0  0  0  0  0  0
  -24.1660  -36.7560   23.1030 C   0  0  0  0  0  1  0  0  0  0  0  0
  -25.4240  -36.3500   23.8860 C   0  0  0  0  0  3  0  0  0  0  0  0
  -27.5600  -37.2480   24.6970 C   0  0  0  0  0  1  0  0  0  0  0  0
  -26.4430  -37.4170   23.7740 N   0  0  0  0  0  0  0  0  0  0  0  0
  -26.0260  -38.3300   23.9420 H   0  0  0  0  0  0  0  0  0  0  0  0
  1  2  1  0
  1  3  1  0
  2  8  1  0
  2  3  1  0
  3 49  1  0
  4  6  2  0
  4  8  1  0
  5  7  1  0
  6  9  1  0
  8  5  2  0
  9 19  1  0
  9  7  2  0
 10 19  1  0
 11 16  1  0
 12 13  1  0
 12 11  1  0
 14 13  1  0
 14 23  1  0
 14 15  1  0
 16 10  1  0
 16 15  1  0
 17 10  2  0
 19 18  1  0
 20 21  2  0
 21 40  1  0
 22 21  1  0
 22 25  1  0
 23 24  1  0
 23 20  1  0
 24 22  2  0
 25 26  1  0
 26 27  2  0
 28 31  1  0
 28 27  1  0
 29 28  2  0
 30 29  1  0
 30 25  2  0
 31 32  1  0
 32 33  1  0
 33 34  2  0
 35 34  1  0
 35 39  1  0
 36 35  2  0
 37 32  2  0
 37 36  1  0
 38 37  1  0
 40 41  1  0
 41 44  1  0
 41 43  1  0
 42 40  2  0
 45 20  1  0
 45 46  1  0
 47 45  1  0
 49 48  1  0
 50 49  1  0
 50 51  1  0
 52 63  2  0
 53 51  1  0
 53 58  1  0
 54 62  1  0
 54 64  1  0
 55 61  1  0
 55 57  1  0
 56 62  1  0
 57 56  1  0
 58 57  2  0
 59 60  1  0
 59 53  2  0
 60 55  2  0
 61 54  1  0
 62 52  1  0
 64 66  2  0
 65 64  1  0
 67 65  1  0
 68 77  2  0
 68 73  1  0
 69 65  1  0
 69 73  1  0
 70 69  1  0
 71 72  1  0
 71 70  1  0
 72 68  1  0
 73 74  2  0
 74 75  1  0
 76 75  2  0
 77 76  1  0
 78 52  1  0
 78 83  1  0
 78 79  1  0
 79 82  1  1
 79 80  1  0
 81 79  1  0
 83 86  1  0
 84 88  1  0
 84 83  1  0
 85 84  2  0
 88 87  1  0
 90 88  1  0
 90 91  1  0
 90 89  1  0
M  ISO  4  10 100  19 100  50 101  51 101
M  END
>  <TORSDO>  (62) 
F 19

>  <SCORE>  (62) 
-13.259

>  <name>  (62) 
61

>  <ligand_id>  (62) 
61

>  <original_smiles>  (62) 
[H]c1c([H])c([H])c2c(c1[H])C([H])([H])C([H])([H])C([H])([H])C2([H])N([H])C(=O)C1([H])N(C(=O)C([H])(N([H])C(=O)C([H])(N([H])C([H])([H])[H])C([H])([H])[H])C(C([H])([H])[H])(C([H])([H])[H])C([H])([H])[H])C([H])([H])c2c([H])c(OC([H])([H])C([H])(C([H])([H])[H])C3([H])C([H])([H])C3([H])c3c([H])c([H])c(N(C(=O)N4C([H])([H])C([H])([H])C([H])([H])C([H])(n5nc(-c6c([H])c([H])c(Oc7c([H])c([H])c(F)c([H])c7F)c([H])c6[H])c(C(=O)N([H])[H])c5N([H])[H])C4([H])[H])C([H])([H])[H])c([H])c3[H])c([H])c([H])c2C1([H])[H]

>  <smiles>  (62) 
[H]c1c([H])c([H])c2c(c1[H])C([H])([H])C([H])([H])C([H])([H])C2([H])N([H])C(=O)C1([H])N(C(=O)C([H])(N([H])C(=O)C([H])(N([H])C([H])([H])[H])C([H])([H])[H])C(C([H])([H])[H])(C([H])([H])[H])C([H])([H])[H])C([H])([H])c2c([H])c(OC([H])([H])C([H])(C([H])([H])[H])C3([H])C([H])([H])C3([H])c3c([H])c([H])c(N(C(=O)N4C([H])([H])C([H])([H])C([H])([H])C([H])(n5nc(-c6c([H])c([H])c(Oc7c([H])c([H])c(F)c([H])c7F)c([H])c6[H])c(C(=O)N([H])[H])c5N([H])[H])C4([H])[H])C([H])([H])[H])c([H])c3[H])c([H])c([H])c2C1([H])[H]

$$$$
62:0:0
     RDKit          3D

 94 93  0  0  1  0  0  0  0  0999 V2000
  -19.4680  -26.6650   20.3700 C   0  0  0  0  0  2  0  0  0  0  0  0
  -20.7640  -25.4020   22.9130 C   0  0  0  0  0  1  0  0  0  0  0  0
  -20.9290  -27.0080   21.3530 C   0  0  0  0  0  1  0  0  0  0  0  0
  -18.6190  -25.1880   20.9150 C   0  0  0  0  0  0  0  0  0  0  0  0
  -20.7560  -23.6770   22.6880 C   0  0  0  0  0  2  0  0  0  0  0  0
  -19.2060  -23.9390   22.0130 C   0  0  0  0  0  0  0  0  0  0  0  0
  -17.2920  -24.9210   20.2300 C   0  0  0  0  0  1  0  0  0  0  0  0
  -17.2940  -22.8600   23.2670 C   0  0  0  0  0  1  0  0  0  0  0  0
  -18.3330  -22.7060   22.1500 C   0  0  0  0  0  2  0  0  0  0  0  0
  -22.3980  -22.0690   22.6170 C   0  0  0  0  0 15  0  0  0  0  0  0
  -23.9470  -20.4060   21.7210 C   0  0  0  0  0  1  0  0  0  0  0  0
  -21.5740  -19.8620   20.7820 C   0  0  0  0  0  1  0  0  0  0  0  0
  -22.9970  -19.3780   21.0800 C   0  0  0  0  0  2  0  0  0  0  0  0
  -25.8800  -18.9200   21.7590 C   0  0  0  0  0 15  0  0  0  0  0  0
  -28.6420  -16.2060   20.8260 C   0  0  0  0  0  0  0  0  0  0  0  0
  -30.0020  -13.8080   19.7750 C   0  0  0  0  0  2  0  0  0  0  0  0
  -29.4800  -12.9380   18.5460 C   0  0  0  0  0  2  0  0  0  0  0  0
  -28.1360  -12.2780   18.8650 C   0  0  0  0  0  2  0  0  0  0  0  0
  -27.4040  -13.2310   19.8140 C   0  0  0  0  0  3  0  0  0  0  0  0
  -28.1700  -13.5920   21.0770 C   0  0  0  0  0  2  0  0  0  0  0  0
  -28.9060  -14.7010   20.5630 N   0  0  0  0  0  0  0  0  0  0  0  0
  -29.9090  -16.4360   20.6510 O   0  0  0  0  0  0  0  0  0  0  0  0
  -27.2130  -17.3120   21.1380 N   0  0  0  0  0  2  0  0  0  0  0  0
  -27.8940  -18.0340   20.9390 H   0  0  0  0  0  0  0  0  0  0  0  0
  -25.1260  -13.7850   20.5410 C   0  0  0  0  0  0  0  0  0  0  0  0
  -24.0870  -13.0100   20.9240 C   0  0  0  0  0  0  0  0  0  0  0  0
  -24.5630  -11.6630   20.8770 C   0  0  0  0  0  0  0  0  0  0  0  0
  -26.1230  -12.8860   20.2460 N   0  0  0  0  0  0  0  0  0  0  0  0
  -25.8350  -11.6090   20.5350 N   0  0  0  0  0  0  0  0  0  0  0  0
  -23.8590  -10.4070   21.0540 C   0  0  0  0  0  0  0  0  0  0  0  0
  -24.3360   -9.4080   21.9260 C   0  0  0  0  0  3  0  0  0  0  0  0
  -23.6150   -8.2070   22.0780 C   0  0  0  0  0  3  0  0  0  0  0  0
  -22.4140   -8.0100   21.3540 C   0  0  0  0  0  0  0  0  0  0  0  0
  -21.9660   -9.0010   20.4650 C   0  0  0  0  0  3  0  0  0  0  0  0
  -22.6870  -10.1920   20.3100 C   0  0  0  0  0  3  0  0  0  0  0  0
  -21.6540   -6.8700   21.4240 O   0  0  0  0  0  0  0  0  0  0  0  0
  -21.6780   -6.0640   22.5310 C   0  0  0  0  0  0  0  0  0  0  0  0
  -21.3960   -6.5590   23.8230 C   0  0  0  0  0  3  0  0  0  0  0  0
  -21.3630   -5.6760   24.9200 C   0  0  0  0  0  3  0  0  0  0  0  0
  -21.6050   -4.3030   24.7260 C   0  0  0  0  0  0  0  0  0  0  0  0
  -21.8830   -3.8100   23.4390 C   0  0  0  0  0  3  0  0  0  0  0  0
  -21.9180   -4.6890   22.3440 C   0  0  0  0  0  0  0  0  0  0  0  0
  -22.1660   -4.2090   21.1010 F   0  0  0  0  0  0  0  0  0  0  0  0
  -21.5630   -3.4520   25.7780 F   0  0  0  0  0  0  0  0  0  0  0  0
  -22.7080  -13.5010   21.2070 C   0  0  0  0  0  0  0  0  0  0  0  0
  -21.9830  -12.8070   22.0730 N   0  0  0  0  0  0  0  0  0  0  0  0
  -22.2890  -14.5390   20.6960 O   0  0  0  0  0  0  0  0  0  0  0  0
  -22.3410  -11.9690   22.5040 H   0  0  0  0  0  0  0  0  0  0  0  0
  -21.0510  -13.1190   22.3060 H   0  0  0  0  0  0  0  0  0  0  0  0
  -25.2880  -15.1620   20.4030 N   0  0  0  0  0  0  0  0  0  0  0  0
  -24.5310  -15.7990   20.6260 H   0  0  0  0  0  0  0  0  0  0  0  0
  -26.1470  -15.6550   20.2000 H   0  0  0  0  0  0  0  0  0  0  0  0
  -22.7010  -27.4580   20.5050 C   0  0  0  0  0 15  0  0  0  0  0  0
  -24.5310  -27.0450   20.8870 O   0  0  0  0  0  1  0  0  0  0  0  0
  -24.6680  -31.9810   23.2300 C   0  0  0  0  0  0  0  0  0  0  0  0
  -25.9180  -27.2460   20.3990 C   0  0  0  0  0  3  0  0  0  0  0  0
  -23.4440  -30.7220   21.5380 C   0  0  0  0  0  3  0  0  0  0  0  0
  -24.8300  -29.4330   19.7620 C   0  0  0  0  0  3  0  0  0  0  0  0
  -25.9930  -30.8510   21.4430 C   0  0  0  0  0  2  0  0  0  0  0  0
  -25.8850  -29.5580   20.6660 C   0  0  0  0  0  3  0  0  0  0  0  0
  -26.6280  -28.3920   20.8930 C   0  0  0  0  0  2  0  0  0  0  0  0
  -25.7540  -27.2850   19.0470 C   0  0  0  0  0  2  0  0  0  0  0  0
  -24.8580  -28.3500   18.8250 C   0  0  0  0  0  2  0  0  0  0  0  0
  -23.6790  -30.3810   20.0090 C   0  0  0  0  0  2  0  0  0  0  0  0
  -24.7190  -31.2570   22.0840 N   0  0  0  0  0  0  0  0  0  0  0  0
  -23.5880  -32.2570   23.7780 O   0  0  0  0  0  0  0  0  0  0  0  0
  -22.9940  -29.6320   22.5640 C   0  0  0  0  0  0  0  0  0  0  0  0
  -21.7400  -29.2410   22.6910 N   0  0  0  0  0  0  0  0  0  0  0  0
  -23.8060  -29.1650   23.3570 O   0  0  0  0  0  0  0  0  0  0  0  0
  -20.9990  -29.6390   22.1310 H   0  0  0  0  0  0  0  0  0  0  0  0
  -19.0430  -26.8500   22.6080 C   0  0  0  0  0  3  0  0  0  0  0  0
  -21.4600  -28.0120   23.4870 C   0  0  0  0  0  3  0  0  0  0  0  0
  -22.7280  -26.6780   22.9330 C   0  0  0  0  0  1  0  0  0  0  0  0
  -22.5660  -25.2610   21.4950 C   0  0  0  0  0  1  0  0  0  0  0  0
  -20.8960  -24.9650   20.7380 C   0  0  0  0  0  1  0  0  0  0  0  0
  -19.7740  -27.9980   23.3940 C   0  0  0  0  0  0  0  0  0  0  0  0
  -19.2190  -29.2890   23.8830 C   0  0  0  0  0  3  0  0  0  0  0  0
  -17.8840  -29.7200   23.7870 C   0  0  0  0  0  3  0  0  0  0  0  0
  -17.0760  -28.7640   23.1570 C   0  0  0  0  0  3  0  0  0  0  0  0
  -17.6200  -27.4870   22.6040 C   0  0  0  0  0  3  0  0  0  0  0  0
  -25.9660  -32.5190   23.8720 C   0  0  0  0  0  3  0  0  0  0  0  0
  -25.6610  -33.8940   24.2710 N   0  0  0  0  0  0  0  0  0  0  0  0
  -25.9220  -34.9670   23.5170 C   0  0  0  0  0  0  0  0  0  0  0  0
  -26.5480  -34.9040   22.4560 O   0  0  0  0  0  0  0  0  0  0  0  0
  -25.1020  -34.0130   25.1030 H   0  0  0  0  0  0  0  0  0  0  0  0
  -24.1540  -36.7360   23.2590 C   0  0  0  0  0  1  0  0  0  0  0  0
  -25.4160  -36.3260   24.0320 C   0  0  0  0  0  3  0  0  0  0  0  0
  -27.5620  -37.1910   24.8460 C   0  0  0  0  0  1  0  0  0  0  0  0
  -26.4320  -37.3950   23.9430 N   0  0  0  0  0  0  0  0  0  0  0  0
  -26.0200  -38.3000   24.1510 H   0  0  0  0  0  0  0  0  0  0  0  0
  -26.4640  -31.6700   25.1020 C   0  0  1  0  0  0  0  0  0  0  0  0
  -25.3690  -31.3870   26.1560 C   0  0  0  0  0  1  0  0  0  0  0  0
  -27.0430  -30.3070   24.6540 C   0  0  0  0  0  1  0  0  0  0  0  0
  -27.6200  -32.4260   25.7950 C   0  0  0  0  0  1  0  0  0  0  0  0
  1  4  1  0
  1  3  1  0
  4  6  2  0
  5  2  1  0
  6  9  1  0
  6  5  1  0
  7  4  1  0
  9  8  1  0
 12 13  1  0
 13 11  1  0
 15 23  1  0
 16 21  1  0
 17 18  1  0
 17 16  1  0
 19 18  1  0
 19 28  1  0
 19 20  1  0
 21 15  1  0
 21 20  1  0
 22 15  2  0
 24 23  1  0
 25 26  2  0
 26 45  1  0
 27 26  1  0
 27 30  1  0
 28 29  1  0
 28 25  1  0
 29 27  2  0
 30 31  1  0
 31 32  2  0
 33 36  1  0
 33 32  1  0
 34 33  2  0
 35 34  1  0
 35 30  2  0
 36 37  1  0
 37 38  1  0
 38 39  2  0
 40 39  1  0
 40 44  1  0
 41 40  2  0
 42 37  2  0
 42 41  1  0
 43 42  1  0
 45 46  1  0
 46 49  1  0
 46 48  1  0
 47 45  2  0
 50 25  1  0
 50 51  1  0
 52 50  1  0
 55 66  2  0
 56 54  1  0
 56 61  1  0
 57 65  1  0
 57 67  1  0
 58 63  1  0
 58 64  1  0
 58 60  1  0
 59 65  1  0
 60 61  1  0
 60 59  1  0
 62 56  1  0
 63 62  1  0
 64 57  1  0
 65 55  1  0
 67 68  1  0
 67 69  2  0
 68 72  1  0
 70 68  1  0
 71 76  1  0
 72 73  1  0
 75 74  1  0
 76 72  1  0
 76 77  2  0
 78 77  1  0
 79 78  2  0
 80 71  2  0
 80 79  1  0
 81 55  1  0
 81 82  1  0
 81 91  1  0
 82 85  1  0
 83 87  1  0
 83 82  1  0
 84 83  2  0
 87 86  1  0
 89 87  1  0
 89 90  1  0
 89 88  1  0
 91 94  1  1
 91 92  1  0
 93 91  1  0
M  ISO  4  15 100  23 100  53 101  54 101
M  END
>  <TORSDO>  (63) 
F 22

>  <SCORE>  (63) 
30.056

>  <name>  (63) 
62

>  <ligand_id>  (63) 
62

>  <original_smiles>  (63) 
[H]c1c([H])c([H])c2c(c1[H])C([H])([H])C([H])([H])C([H])([H])C2([H])N([H])C(=O)C1([H])N(C(=O)C([H])(N([H])C(=O)C([H])(N([H])C([H])([H])[H])C([H])([H])[H])C(C([H])([H])[H])(C([H])([H])[H])C([H])([H])[H])C([H])([H])c2c([H])c(OC([H])([H])c3c([H])c(C([H])([H])[H])c(C([H])([H])C([H])([H])[H])c(C([H])([H])C([H])(C([H])([H])N([H])C(=O)N4C([H])([H])C([H])([H])C([H])([H])C([H])(n5nc(-c6c([H])c([H])c(Oc7c([H])c([H])c(F)c([H])c7F)c([H])c6[H])c(C(=O)N([H])[H])c5N([H])[H])C4([H])[H])C([H])([H])C([H])([H])[H])c3[H])c([H])c([H])c2C1([H])[H]

>  <smiles>  (63) 
[H]c1c([H])c([H])c2c(c1[H])C([H])([H])C([H])([H])C([H])([H])C2([H])N([H])C(=O)C1([H])N(C(=O)C([H])(N([H])C(=O)C([H])(N([H])C([H])([H])[H])C([H])([H])[H])C(C([H])([H])[H])(C([H])([H])[H])C([H])([H])[H])C([H])([H])c2c([H])c(OC([H])([H])c3c([H])c(C([H])([H])[H])c(C([H])([H])C([H])([H])[H])c(C([H])([H])C([H])(C([H])([H])N([H])C(=O)N4C([H])([H])C([H])([H])C([H])([H])C([H])(n5nc(-c6c([H])c([H])c(Oc7c([H])c([H])c(F)c([H])c7F)c([H])c6[H])c(C(=O)N([H])[H])c5N([H])[H])C4([H])[H])C([H])([H])C([H])([H])[H])c3[H])c([H])c([H])c2C1([H])[H]

$$$$
63:0:0
     RDKit          3D

 93102  0  0  1  0  0  0  0  0999 V2000
  -30.2460  -21.3220   22.3680 C   0  0  0  0  0  0  0  0  0  0  0  0
  -31.2460  -21.9060   22.7940 O   0  0  0  0  0  0  0  0  0  0  0  0
  -30.9890  -17.7540   23.7750 C   0  0  0  0  0  2  0  0  0  0  0  0
  -30.2520  -16.9950   22.6690 C   0  0  0  0  0  2  0  0  0  0  0  0
  -29.9010  -19.1010   21.0960 C   0  0  0  0  0  2  0  0  0  0  0  0
  -29.9890  -19.8420   22.4350 C   0  0  0  0  0  3  0  0  0  0  0  0
  -31.1630  -18.9220   22.8030 C   0  0  0  0  0  3  0  0  0  0  0  0
  -30.8270  -17.9830   21.6210 C   0  0  1  0  0  0  0  0  0  0  0  0
  -31.9800  -17.5580   20.6800 C   0  0  0  0  0  2  0  0  0  0  0  0
  -32.4980  -16.1100   20.7940 C   0  0  0  0  0  2  0  0  0  0  0  0
  -31.5790  -14.3340   19.2960 C   0  0  0  0  0  0  0  0  0  0  0  0
  -31.0290  -12.0650   18.5090 C   0  0  0  0  0  2  0  0  0  0  0  0
  -29.9840  -12.0290   17.3830 C   0  0  0  0  0  2  0  0  0  0  0  0
  -28.5640  -12.0120   17.9710 C   0  0  0  0  0  2  0  0  0  0  0  0
  -28.3440  -13.1320   19.0210 C   0  0  0  0  0  3  0  0  0  0  0  0
  -29.4860  -13.1600   20.0590 C   0  0  0  0  0  2  0  0  0  0  0  0
  -30.7800  -13.2390   19.3520 N   0  0  0  0  0  0  0  0  0  0  0  0
  -32.4320  -14.5170   18.4230 O   0  0  0  0  0  0  0  0  0  0  0  0
  -31.5210  -15.0980   20.3900 N   0  0  0  0  0  0  0  0  0  0  0  0
  -30.8250  -14.8340   21.0720 H   0  0  0  0  0  0  0  0  0  0  0  0
  -26.1440  -13.9980   20.0410 C   0  0  0  0  0  0  0  0  0  0  0  0
  -25.0440  -13.3450   20.5320 C   0  0  0  0  0  0  0  0  0  0  0  0
  -25.3290  -11.9490   20.4190 C   0  0  0  0  0  0  0  0  0  0  0  0
  -27.0370  -13.0070   19.6630 N   0  0  0  0  0  0  0  0  0  0  0  0
  -26.5550  -11.7680   19.9450 N   0  0  0  0  0  0  0  0  0  0  0  0
  -24.4850  -10.7770   20.6790 C   0  0  0  0  0  0  0  0  0  0  0  0
  -24.8660   -9.7830   21.6080 C   0  0  0  0  0  3  0  0  0  0  0  0
  -24.0270   -8.6740   21.8540 C   0  0  0  0  0  3  0  0  0  0  0  0
  -22.7940   -8.5520   21.1720 C   0  0  0  0  0  0  0  0  0  0  0  0
  -22.4300   -9.5320   20.2320 C   0  0  0  0  0  3  0  0  0  0  0  0
  -23.2680  -10.6320   19.9830 C   0  0  0  0  0  3  0  0  0  0  0  0
  -21.9280   -7.4960   21.3280 O   0  0  0  0  0  0  0  0  0  0  0  0
  -21.8110   -6.8310   22.5220 C   0  0  0  0  0  0  0  0  0  0  0  0
  -21.4830   -7.5020   23.7200 C   0  0  0  0  0  3  0  0  0  0  0  0
  -21.3050   -6.7700   24.9110 C   0  0  0  0  0  3  0  0  0  0  0  0
  -21.4450   -5.3690   24.9070 C   0  0  0  0  0  0  0  0  0  0  0  0
  -21.7680   -4.6990   23.7130 C   0  0  0  0  0  3  0  0  0  0  0  0
  -21.9480   -5.4280   22.5250 C   0  0  0  0  0  0  0  0  0  0  0  0
  -22.2360   -4.7750   21.3730 F   0  0  0  0  0  0  0  0  0  0  0  0
  -21.2660   -4.6660   26.0480 F   0  0  0  0  0  0  0  0  0  0  0  0
  -23.7600  -13.9740   20.9920 C   0  0  0  0  0  0  0  0  0  0  0  0
  -23.0870  -13.3600   21.9580 N   0  0  0  0  0  0  0  0  0  0  0  0
  -23.3700  -15.0450   20.5280 O   0  0  0  0  0  0  0  0  0  0  0  0
  -23.4140  -12.4890   22.3500 H   0  0  0  0  0  0  0  0  0  0  0  0
  -22.2310  -13.7640   22.3090 H   0  0  0  0  0  0  0  0  0  0  0  0
  -26.4520  -15.3440   19.8670 N   0  0  0  0  0  0  0  0  0  0  0  0
  -25.7980  -16.0880   20.0900 H   0  0  0  0  0  0  0  0  0  0  0  0
  -27.3140  -15.6810   19.4550 H   0  0  0  0  0  0  0  0  0  0  0  0
  -29.1220  -22.1140   21.6890 C   0  0  0  0  0  2  0  0  0  0  0  0
  -29.1500  -23.6320   21.9590 C   0  0  0  0  0  2  0  0  0  0  0  0
  -28.6010  -24.4580   20.7890 C   0  0  0  0  0  2  0  0  0  0  0  0
  -28.7060  -25.9640   21.0570 C   0  0  0  0  0  2  0  0  0  0  0  0
  -28.3470  -26.6670   19.8780 O   0  0  0  0  0  0  0  0  0  0  0  0
  -24.5740  -31.7280   23.1790 C   0  0  0  0  0  0  0  0  0  0  0  0
  -27.1780  -27.3720   19.9740 C   0  0  0  0  0  0  0  0  0  0  0  0
  -23.3440  -30.3570   21.5250 C   0  0  0  0  0  3  0  0  0  0  0  0
  -24.7780  -28.8420   20.0600 C   0  0  0  0  0  0  0  0  0  0  0  0
  -25.8610  -30.7240   21.2990 C   0  0  0  0  0  2  0  0  0  0  0  0
  -25.9410  -29.3640   20.6420 C   0  0  0  0  0  0  0  0  0  0  0  0
  -27.1450  -28.6310   20.6050 C   0  0  0  0  0  3  0  0  0  0  0  0
  -26.0060  -26.8490   19.3950 C   0  0  0  0  0  3  0  0  0  0  0  0
  -24.8010  -27.5780   19.4410 C   0  0  0  0  0  3  0  0  0  0  0  0
  -23.5360  -29.6990   20.1330 C   0  0  0  0  0  2  0  0  0  0  0  0
  -24.6120  -30.9490   22.0610 N   0  0  0  0  0  0  0  0  0  0  0  0
  -23.5010  -31.9920   23.7400 O   0  0  0  0  0  0  0  0  0  0  0  0
  -22.7050  -29.3220   22.4750 C   0  0  0  0  0  0  0  0  0  0  0  0
  -21.3880  -29.1050   22.3230 N   0  0  0  0  0  0  0  0  0  0  0  0
  -23.3880  -28.7140   23.3040 O   0  0  0  0  0  0  0  0  0  0  0  0
  -20.8970  -29.6510   21.6290 H   0  0  0  0  0  0  0  0  0  0  0  0
  -18.0470  -27.7960   22.7180 C   0  0  0  0  0  0  0  0  0  0  0  0
  -20.5820  -28.1480   23.0790 C   0  0  0  0  0  3  0  0  0  0  0  0
  -20.7570  -26.7150   22.5260 C   0  0  0  0  0  2  0  0  0  0  0  0
  -19.7060  -26.3420   21.4750 C   0  0  0  0  0  2  0  0  0  0  0  0
  -18.2960  -26.4460   22.0670 C   0  0  0  0  0  2  0  0  0  0  0  0
  -19.1230  -28.6020   23.1790 C   0  0  0  0  0  0  0  0  0  0  0  0
  -18.8400  -29.8650   23.7430 C   0  0  0  0  0  3  0  0  0  0  0  0
  -17.5150  -30.3230   23.8540 C   0  0  0  0  0  3  0  0  0  0  0  0
  -16.4530  -29.5140   23.4120 C   0  0  0  0  0  3  0  0  0  0  0  0
  -16.7200  -28.2530   22.8500 C   0  0  0  0  0  3  0  0  0  0  0  0
  -25.8710  -32.3420   23.7940 C   0  0  0  0  0  3  0  0  0  0  0  0
  -25.5680  -33.7240   24.1850 N   0  0  0  0  0  0  0  0  0  0  0  0
  -25.9000  -34.8060   23.4680 C   0  0  0  0  0  0  0  0  0  0  0  0
  -26.5670  -34.7450   22.4310 O   0  0  0  0  0  0  0  0  0  0  0  0
  -24.9720  -33.8450   24.9910 H   0  0  0  0  0  0  0  0  0  0  0  0
  -24.1710  -36.6080   23.1830 C   0  0  0  0  0  1  0  0  0  0  0  0
  -25.4120  -36.1730   23.9800 C   0  0  0  0  0  3  0  0  0  0  0  0
  -27.5440  -37.0220   24.8490 C   0  0  0  0  0  1  0  0  0  0  0  0
  -26.4440  -37.2300   23.9110 N   0  0  0  0  0  0  0  0  0  0  0  0
  -26.0380  -38.1420   24.1000 H   0  0  0  0  0  0  0  0  0  0  0  0
  -26.4250  -31.5240   25.0240 C   0  0  1  0  0  0  0  0  0  0  0  0
  -25.3570  -31.2390   26.1070 C   0  0  0  0  0  1  0  0  0  0  0  0
  -27.0080  -30.1700   24.5590 C   0  0  0  0  0  1  0  0  0  0  0  0
  -27.5830  -32.3010   25.6940 C   0  0  0  0  0  1  0  0  0  0  0  0
  1  2  2  0
  4  3  1  0
  5  8  1  0
  5  6  1  0
  6  1  1  0
  6  7  1  0
  7  3  1  0
  8  9  1  6
  8  4  1  0
  8  7  1  0
  9 10  1  0
 11 17  1  0
 11 19  1  0
 12 17  1  0
 13 14  1  0
 13 12  1  0
 15 14  1  0
 15 24  1  0
 15 16  1  0
 17 16  1  0
 18 11  2  0
 19 10  1  0
 19 20  1  0
 21 22  2  0
 22 41  1  0
 23 22  1  0
 23 26  1  0
 24 25  1  0
 24 21  1  0
 25 23  2  0
 26 27  1  0
 27 28  2  0
 29 32  1  0
 29 28  1  0
 30 29  2  0
 31 30  1  0
 31 26  2  0
 32 33  1  0
 33 38  2  0
 33 34  1  0
 34 35  2  0
 36 35  1  0
 36 40  1  0
 37 36  2  0
 38 37  1  0
 39 38  1  0
 41 42  1  0
 42 45  1  0
 42 44  1  0
 43 41  2  0
 46 21  1  0
 46 47  1  0
 48 46  1  0
 49 50  1  0
 49  1  1  0
 51 52  1  0
 51 50  1  0
 53 55  1  0
 53 52  1  0
 54 65  2  0
 55 60  1  0
 56 64  1  0
 56 66  1  0
 57 63  1  0
 57 59  1  0
 58 64  1  0
 59 58  1  0
 60 59  2  0
 61 62  1  0
 61 55  2  0
 62 57  2  0
 63 56  1  0
 64 54  1  0
 66 68  2  0
 67 66  1  0
 69 67  1  0
 70 79  2  0
 70 75  1  0
 71 67  1  0
 71 75  1  0
 72 71  1  0
 73 74  1  0
 73 72  1  0
 74 70  1  0
 75 76  2  0
 76 77  1  0
 78 77  2  0
 79 78  1  0
 80 54  1  0
 80 81  1  0
 80 90  1  0
 81 84  1  0
 82 86  1  0
 82 81  1  0
 83 82  2  0
 86 85  1  0
 88 86  1  0
 88 89  1  0
 88 87  1  0
 90 93  1  1
 90 91  1  0
 92 90  1  0
M  ISO  4  11 100  19 100  52 101  53 101
M  END
>  <TORSDO>  (64) 
F 23

>  <SCORE>  (64) 
-9.767

>  <name>  (64) 
63

>  <ligand_id>  (64) 
63

>  <original_smiles>  (64) 
[H]c1c([H])c([H])c2c(c1[H])C([H])([H])C([H])([H])C([H])([H])C2([H])N([H])C(=O)C1([H])N(C(=O)C([H])(N([H])C(=O)C([H])(N([H])C([H])([H])[H])C([H])([H])[H])C(C([H])([H])[H])(C([H])([H])[H])C([H])([H])[H])C([H])([H])c2c([H])c(OC([H])([H])C([H])([H])C([H])([H])C([H])([H])C(=O)C3([H])C([H])([H])C4(C([H])([H])C([H])([H])N([H])C(=O)N5C([H])([H])C([H])([H])C([H])([H])C([H])(n6nc(-c7c([H])c([H])c(Oc8c([H])c([H])c(F)c([H])c8F)c([H])c7[H])c(C(=O)N([H])[H])c6N([H])[H])C5([H])[H])C([H])([H])C([H])([H])C34[H])c([H])c([H])c2C1([H])[H]

>  <smiles>  (64) 
[H]c1c([H])c([H])c2c(c1[H])C([H])([H])C([H])([H])C([H])([H])C2([H])N([H])C(=O)C1([H])N(C(=O)C([H])(N([H])C(=O)C([H])(N([H])C([H])([H])[H])C([H])([H])[H])C(C([H])([H])[H])(C([H])([H])[H])C([H])([H])[H])C([H])([H])c2c([H])c(OC([H])([H])C([H])([H])C([H])([H])C([H])([H])C(=O)C3([H])C([H])([H])C4(C([H])([H])C([H])([H])N([H])C(=O)N5C([H])([H])C([H])([H])C([H])([H])C([H])(n6nc(-c7c([H])c([H])c(Oc8c([H])c([H])c(F)c([H])c8F)c([H])c7[H])c(C(=O)N([H])[H])c6N([H])[H])C5([H])[H])C([H])([H])C([H])([H])C34[H])c([H])c([H])c2C1([H])[H]

$$$$
64:0:0
     RDKit          3D

 94103  0  0  1  0  0  0  0  0999 V2000
  -32.3790  -20.0140   22.2680 C   0  0  0  0  0  2  0  0  0  0  0  0
  -31.1040  -20.8150   22.5590 C   0  0  0  0  0  2  0  0  0  0  0  0
  -31.6250  -18.2980   20.3850 C   0  0  0  0  0  2  0  0  0  0  0  0
  -31.5120  -18.8360   21.8110 C   0  0  0  0  0  3  0  0  0  0  0  0
  -30.2610  -19.7070   21.9160 C   0  0  0  0  0  3  0  0  0  0  0  0
  -29.7100  -19.7790   20.5050 C   0  0  0  0  0  3  0  0  0  0  0  0
  -30.1510  -18.1300   19.8940 C   0  0  2  0  0  0  0  0  0  0  0  0
  -30.5290  -15.2620   20.2050 C   0  0  0  0  0  0  0  0  0  0  0  0
  -30.4210  -12.8400   19.3470 C   0  0  0  0  0  2  0  0  0  0  0  0
  -29.5000  -12.7150   18.1110 C   0  0  0  0  0  2  0  0  0  0  0  0
  -28.0420  -12.4850   18.5460 C   0  0  0  0  0  2  0  0  0  0  0  0
  -27.6230  -13.4300   19.7030 C   0  0  0  0  0  3  0  0  0  0  0  0
  -28.6790  -13.5270   20.8250 C   0  0  0  0  0  2  0  0  0  0  0  0
  -29.9230  -13.9850   20.1940 N   0  0  0  0  0  0  0  0  0  0  0  0
  -31.7210  -15.2080   19.8830 O   0  0  0  0  0  0  0  0  0  0  0  0
  -29.8350  -16.5600   20.3420 N   0  0  0  0  0  0  0  0  0  0  0  0
  -28.8660  -16.4380   20.5960 H   0  0  0  0  0  0  0  0  0  0  0  0
  -25.2660  -13.9990   20.4940 C   0  0  0  0  0  0  0  0  0  0  0  0
  -24.2050  -13.2250   20.8700 C   0  0  0  0  0  0  0  0  0  0  0  0
  -24.6630  -11.8710   20.8210 C   0  0  0  0  0  0  0  0  0  0  0  0
  -26.2990  -13.1190   20.2230 N   0  0  0  0  0  0  0  0  0  0  0  0
  -25.9500  -11.8320   20.4910 N   0  0  0  0  0  0  0  0  0  0  0  0
  -23.9310  -10.6120   21.0090 C   0  0  0  0  0  0  0  0  0  0  0  0
  -24.3490   -9.6440   21.9480 C   0  0  0  0  0  3  0  0  0  0  0  0
  -23.6130   -8.4510   22.1240 C   0  0  0  0  0  3  0  0  0  0  0  0
  -22.4450   -8.2200   21.3570 C   0  0  0  0  0  0  0  0  0  0  0  0
  -22.0480   -9.1760   20.4070 C   0  0  0  0  0  3  0  0  0  0  0  0
  -22.7840  -10.3580   20.2300 C   0  0  0  0  0  3  0  0  0  0  0  0
  -21.6820   -7.0810   21.4420 O   0  0  0  0  0  0  0  0  0  0  0  0
  -21.5950   -6.3560   22.6030 C   0  0  0  0  0  0  0  0  0  0  0  0
  -21.1170   -6.9240   23.8040 C   0  0  0  0  0  3  0  0  0  0  0  0
  -20.9800   -6.1240   24.9550 C   0  0  0  0  0  3  0  0  0  0  0  0
  -21.3130   -4.7570   24.9090 C   0  0  0  0  0  0  0  0  0  0  0  0
  -21.7850   -4.1880   23.7130 C   0  0  0  0  0  3  0  0  0  0  0  0
  -21.9230   -4.9860   22.5630 C   0  0  0  0  0  0  0  0  0  0  0  0
  -22.3580   -4.4270   21.4090 F   0  0  0  0  0  0  0  0  0  0  0  0
  -21.1750   -3.9880   26.0130 F   0  0  0  0  0  0  0  0  0  0  0  0
  -22.8130  -13.7080   21.1540 C   0  0  0  0  0  0  0  0  0  0  0  0
  -22.0850  -13.0120   22.0200 N   0  0  0  0  0  0  0  0  0  0  0  0
  -22.3790  -14.7410   20.6440 O   0  0  0  0  0  0  0  0  0  0  0  0
  -22.4460  -12.1800   22.4600 H   0  0  0  0  0  0  0  0  0  0  0  0
  -21.1500  -13.3200   22.2480 H   0  0  0  0  0  0  0  0  0  0  0  0
  -25.4320  -15.3720   20.3250 N   0  0  0  0  0  0  0  0  0  0  0  0
  -24.6690  -16.0270   20.4600 H   0  0  0  0  0  0  0  0  0  0  0  0
  -26.2680  -15.8080   19.9600 H   0  0  0  0  0  0  0  0  0  0  0  0
  -30.0320  -18.1560   18.3530 C   0  0  0  0  0  0  0  0  0  0  0  0
  -30.7170  -17.2620   17.6540 N   0  0  0  0  0  0  0  0  0  0  0  0
  -29.2810  -18.9420   17.7830 O   0  0  0  0  0  0  0  0  0  0  0  0
  -31.3260  -16.6110   18.1320 H   0  0  0  0  0  0  0  0  0  0  0  0
  -30.6330  -17.2360   16.6470 H   0  0  0  0  0  0  0  0  0  0  0  0
  -28.7130  -21.2120   20.1270 C   0  0  0  0  0  2  0  0  0  0  0  0
  -28.9580  -22.9550   20.4320 C   0  0  0  0  0  3  0  0  0  0  0  0
  -28.0170  -24.4170   20.0430 C   0  0  0  0  0  3  0  0  0  0  0  0
  -28.2500  -26.0130   20.2730 O   0  0  0  0  0  0  0  0  0  0  0  0
  -24.6530  -31.8870   23.2210 C   0  0  0  0  0  0  0  0  0  0  0  0
  -27.2270  -27.0790   20.1900 C   0  0  0  0  0  0  0  0  0  0  0  0
  -23.4560  -30.4900   21.5830 C   0  0  0  0  0  3  0  0  0  0  0  0
  -24.9080  -28.9080   20.1470 C   0  0  0  0  0  0  0  0  0  0  0  0
  -26.0170  -30.7350   21.4190 C   0  0  0  0  0  2  0  0  0  0  0  0
  -26.0940  -29.3330   20.7600 C   0  0  0  0  0  0  0  0  0  0  0  0
  -27.2500  -28.4390   20.7550 C   0  0  0  0  0  3  0  0  0  0  0  0
  -26.0130  -26.7920   19.5250 C   0  0  0  0  0  3  0  0  0  0  0  0
  -24.8910  -27.6590   19.5060 C   0  0  0  0  0  3  0  0  0  0  0  0
  -23.6800  -29.8130   20.2040 C   0  0  0  0  0  2  0  0  0  0  0  0
  -24.7300  -31.0620   22.1280 N   0  0  0  0  0  0  0  0  0  0  0  0
  -23.5660  -32.1680   23.7500 O   0  0  0  0  0  0  0  0  0  0  0  0
  -22.7780  -29.4840   22.5490 C   0  0  0  0  0  0  0  0  0  0  0  0
  -21.4500  -29.3050   22.4260 N   0  0  0  0  0  0  0  0  0  0  0  0
  -23.4520  -28.8660   23.3770 O   0  0  0  0  0  0  0  0  0  0  0  0
  -20.9570  -29.8530   21.7340 H   0  0  0  0  0  0  0  0  0  0  0  0
  -18.0810  -28.0690   22.9420 C   0  0  0  0  0  0  0  0  0  0  0  0
  -20.6380  -28.3600   23.2000 C   0  0  0  0  0  3  0  0  0  0  0  0
  -20.7520  -26.9290   22.6260 C   0  0  0  0  0  2  0  0  0  0  0  0
  -19.6510  -26.5960   21.6130 C   0  0  0  0  0  2  0  0  0  0  0  0
  -18.2690  -26.7240   22.2600 C   0  0  0  0  0  2  0  0  0  0  0  0
  -19.1920  -28.8450   23.3680 C   0  0  0  0  0  0  0  0  0  0  0  0
  -18.9590  -30.1010   23.9670 C   0  0  0  0  0  3  0  0  0  0  0  0
  -17.6490  -30.5850   24.1430 C   0  0  0  0  0  3  0  0  0  0  0  0
  -16.5520  -29.8070   23.7320 C   0  0  0  0  0  3  0  0  0  0  0  0
  -16.7680  -28.5510   23.1380 C   0  0  0  0  0  3  0  0  0  0  0  0
  -25.9260  -32.5330   23.8470 C   0  0  0  0  0  3  0  0  0  0  0  0
  -26.4440  -31.7660   25.1260 C   0  0  1  0  0  0  0  0  0  0  0  0
  -25.3490  -31.5240   26.1920 C   0  0  0  0  0  1  0  0  0  0  0  0
  -27.0410  -30.3920   24.7450 C   0  0  0  0  0  1  0  0  0  0  0  0
  -27.5880  -32.5670   25.7910 C   0  0  0  0  0  1  0  0  0  0  0  0
  -25.6010  -33.9280   24.1910 N   0  0  0  0  0  0  0  0  0  0  0  0
  -25.9060  -34.9940   23.4360 C   0  0  0  0  0  0  0  0  0  0  0  0
  -26.5520  -34.9060   22.3900 O   0  0  0  0  0  0  0  0  0  0  0  0
  -25.0210  -34.0690   25.0040 H   0  0  0  0  0  0  0  0  0  0  0  0
  -24.1450  -36.7730   23.1540 C   0  0  0  0  0  1  0  0  0  0  0  0
  -25.4180  -36.3760   23.9180 C   0  0  0  0  0  3  0  0  0  0  0  0
  -27.5650  -37.2900   24.6860 C   0  0  0  0  0  1  0  0  0  0  0  0
  -26.4330  -37.4430   23.7740 N   0  0  0  0  0  0  0  0  0  0  0  0
  -26.0190  -38.3580   23.9310 H   0  0  0  0  0  0  0  0  0  0  0  0
  1  2  1  0
  4  3  1  0
  4  5  1  0
  4  1  1  0
  5  2  1  0
  6 51  1  0
  6  5  1  0
  7 46  1  0
  7 16  1  1
  7  3  1  0
  7  6  1  0
  8 16  1  0
  9 14  1  0
 10 11  1  0
 10  9  1  0
 12 11  1  0
 12 21  1  0
 12 13  1  0
 14  8  1  0
 14 13  1  0
 15  8  2  0
 16 17  1  0
 18 19  2  0
 19 38  1  0
 20 19  1  0
 20 23  1  0
 21 22  1  0
 21 18  1  0
 22 20  2  0
 23 24  1  0
 24 25  2  0
 26 29  1  0
 26 25  1  0
 27 26  2  0
 28 27  1  0
 28 23  2  0
 29 30  1  0
 30 31  1  0
 31 32  2  0
 33 32  1  0
 33 37  1  0
 34 33  2  0
 35 30  2  0
 35 34  1  0
 36 35  1  0
 38 39  1  0
 39 42  1  0
 39 41  1  0
 40 38  2  0
 43 44  1  0
 43 18  1  0
 45 43  1  0
 47 49  1  0
 47 46  1  0
 48 46  2  0
 50 47  1  0
 51 52  1  0
 53 54  1  0
 53 52  2  0
 55 66  2  0
 56 54  1  0
 56 61  1  0
 57 65  1  0
 57 67  1  0
 58 64  1  0
 58 60  1  0
 59 65  1  0
 60 59  1  0
 61 60  2  0
 62 56  2  0
 63 62  1  0
 63 58  2  0
 64 57  1  0
 65 55  1  0
 67 69  2  0
 68 67  1  0
 70 68  1  0
 71 80  2  0
 71 76  1  0
 72 68  1  0
 72 76  1  0
 73 72  1  0
 74 75  1  0
 74 73  1  0
 75 71  1  0
 76 77  2  0
 77 78  1  0
 79 78  2  0
 80 79  1  0
 81 55  1  0
 81 86  1  0
 81 82  1  0
 82 85  1  1
 82 83  1  0
 84 82  1  0
 86 89  1  0
 87 91  1  0
 87 86  1  0
 88 87  2  0
 91 90  1  0
 93 91  1  0
 93 94  1  0
 93 92  1  0
M  ISO  4   8 100  16 100  53 101  54 101
M  END
>  <TORSDO>  (65) 
F 20

>  <SCORE>  (65) 
-15.599

>  <name>  (65) 
64

>  <ligand_id>  (65) 
64

>  <original_smiles>  (65) 
[H]c1c([H])c([H])c2c(c1[H])C([H])([H])C([H])([H])C([H])([H])C2([H])N([H])C(=O)C1([H])N(C(=O)C([H])(N([H])C(=O)C([H])(N([H])C([H])([H])[H])C([H])([H])[H])C(C([H])([H])[H])(C([H])([H])[H])C([H])([H])[H])C([H])([H])c2c([H])c(OC([H])([H])C([H])([H])C([H])([H])C3([H])C(C(=O)N([H])[H])(N([H])C(=O)N4C([H])([H])C([H])([H])C([H])([H])C([H])(n5nc(-c6c([H])c([H])c(Oc7c([H])c([H])c(F)c([H])c7F)c([H])c6[H])c(C(=O)N([H])[H])c5N([H])[H])C4([H])[H])C([H])([H])C4([H])C([H])([H])C([H])([H])C43[H])c([H])c([H])c2C1([H])[H]

>  <smiles>  (65) 
[H]c1c([H])c([H])c2c(c1[H])C([H])([H])C([H])([H])C([H])([H])C2([H])N([H])C(=O)C1([H])N(C(=O)C([H])(N([H])C(=O)C([H])(N([H])C([H])([H])[H])C([H])([H])[H])C(C([H])([H])[H])(C([H])([H])[H])C([H])([H])[H])C([H])([H])c2c([H])c(OC([H])([H])C([H])([H])C([H])([H])C3([H])C(C(=O)N([H])[H])(N([H])C(=O)N4C([H])([H])C([H])([H])C([H])([H])C([H])(n5nc(-c6c([H])c([H])c(Oc7c([H])c([H])c(F)c([H])c7F)c([H])c6[H])c(C(=O)N([H])[H])c5N([H])[H])C4([H])[H])C([H])([H])C4([H])C([H])([H])C([H])([H])C43[H])c([H])c([H])c2C1([H])[H]

$$$$
65:0:0
     RDKit          3D

 98108  0  0  1  0  0  0  0  0999 V2000
  -25.2800  -21.8080   21.0540 C   0  0  0  0  0  3  0  0  0  0  0  0
  -24.7910  -22.9940   21.6450 C   0  0  0  0  0  3  0  0  0  0  0  0
  -26.9710  -23.0870   19.8160 C   0  0  0  0  0  3  0  0  0  0  0  0
  -26.3600  -21.8480   20.1400 C   0  0  0  0  0  0  0  0  0  0  0  0
  -25.3920  -24.2150   21.2850 C   0  0  0  0  0  0  0  0  0  0  0  0
  -26.4630  -24.2570   20.3990 C   0  0  0  0  0  0  0  0  0  0  0  0
  -25.0040  -25.5950   21.7470 C   0  0  0  0  0  2  0  0  0  0  0  0
  -26.1480  -26.4860   21.2120 C   0  0  0  0  0  2  0  0  0  0  0  0
  -26.8920  -25.6730   20.1210 C   0  0  0  0  0  3  0  0  0  0  0  0
  -27.9920  -20.0740   20.6240 C   0  0  0  0  0  2  0  0  0  0  0  0
  -27.4680  -20.6130   18.1650 C   0  0  0  0  0  2  0  0  0  0  0  0
  -28.7460  -18.8400   20.1550 C   0  0  0  0  0  2  0  0  0  0  0  0
  -28.2860  -19.3720   17.7680 C   0  0  0  0  0  2  0  0  0  0  0  0
  -26.9300  -20.5380   19.6190 C   0  0  0  0  0  3  0  0  0  0  0  0
  -29.4130  -19.1500   18.7970 C   0  0  0  0  0  3  0  0  0  0  0  0
  -30.4690  -18.1390   18.3300 C   0  0  0  0  0  2  0  0  0  0  0  0
  -31.5180  -17.7950   19.4130 C   0  0  0  0  0  2  0  0  0  0  0  0
  -31.7490  -15.3970   19.8140 C   0  0  0  0  0  0  0  0  0  0  0  0
  -31.5240  -12.9870   19.4160 C   0  0  0  0  0  2  0  0  0  0  0  0
  -30.6400  -12.7680   18.1740 C   0  0  0  0  0  2  0  0  0  0  0  0
  -29.1610  -12.6710   18.5910 C   0  0  0  0  0  2  0  0  0  0  0  0
  -28.7200  -13.8280   19.5300 C   0  0  0  0  0  3  0  0  0  0  0  0
  -29.7520  -14.0770   20.6610 C   0  0  0  0  0  2  0  0  0  0  0  0
  -31.0840  -14.2380   20.0570 N   0  0  0  0  0  0  0  0  0  0  0  0
  -32.8370  -15.4250   19.2400 O   0  0  0  0  0  0  0  0  0  0  0  0
  -31.1230  -16.5490   20.0850 N   0  0  0  0  0  0  0  0  0  0  0  0
  -30.2270  -16.5080   20.5480 H   0  0  0  0  0  0  0  0  0  0  0  0
  -26.3640  -14.5060   20.3300 C   0  0  0  0  0  0  0  0  0  0  0  0
  -25.2750  -13.7640   20.7150 C   0  0  0  0  0  0  0  0  0  0  0  0
  -25.6820  -12.3990   20.6380 C   0  0  0  0  0  0  0  0  0  0  0  0
  -27.3710  -13.5930   20.0540 N   0  0  0  0  0  0  0  0  0  0  0  0
  -26.9630  -12.3180   20.2890 N   0  0  0  0  0  0  0  0  0  0  0  0
  -24.9100  -11.1600   20.8250 C   0  0  0  0  0  0  0  0  0  0  0  0
  -25.2330  -10.2320   21.8410 C   0  0  0  0  0  3  0  0  0  0  0  0
  -24.4590   -9.0640   22.0160 C   0  0  0  0  0  3  0  0  0  0  0  0
  -23.3510   -8.8170   21.1720 C   0  0  0  0  0  0  0  0  0  0  0  0
  -23.0510   -9.7320   20.1480 C   0  0  0  0  0  3  0  0  0  0  0  0
  -23.8260  -10.8880   19.9680 C   0  0  0  0  0  3  0  0  0  0  0  0
  -22.5550   -7.6980   21.2470 O   0  0  0  0  0  0  0  0  0  0  0  0
  -22.2410   -7.1210   22.4510 C   0  0  0  0  0  0  0  0  0  0  0  0
  -21.5520   -7.8310   23.4560 C   0  0  0  0  0  3  0  0  0  0  0  0
  -21.1720   -7.1760   24.6460 C   0  0  0  0  0  3  0  0  0  0  0  0
  -21.4860   -5.8170   24.8330 C   0  0  0  0  0  0  0  0  0  0  0  0
  -22.1750   -5.1080   23.8330 C   0  0  0  0  0  3  0  0  0  0  0  0
  -22.5500   -5.7580   22.6420 C   0  0  0  0  0  0  0  0  0  0  0  0
  -23.1920   -5.0650   21.6730 F   0  0  0  0  0  0  0  0  0  0  0  0
  -21.1180   -5.1870   25.9740 F   0  0  0  0  0  0  0  0  0  0  0  0
  -23.9100  -14.2930   21.0530 C   0  0  0  0  0  0  0  0  0  0  0  0
  -23.2000  -13.6160   21.9520 N   0  0  0  0  0  0  0  0  0  0  0  0
  -23.4860  -15.3410   20.5710 O   0  0  0  0  0  0  0  0  0  0  0  0
  -23.5620  -12.7640   22.3490 H   0  0  0  0  0  0  0  0  0  0  0  0
  -22.2920  -13.9540   22.2400 H   0  0  0  0  0  0  0  0  0  0  0  0
  -26.5780  -15.8700   20.1830 N   0  0  0  0  0  0  0  0  0  0  0  0
  -25.8590  -16.5610   20.3720 H   0  0  0  0  0  0  0  0  0  0  0  0
  -27.4600  -16.2810   19.9060 H   0  0  0  0  0  0  0  0  0  0  0  0
  -28.4240  -25.9290   20.0100 C   0  0  0  0  0  2  0  0  0  0  0  0
  -28.9070  -26.4640   18.6340 C   0  0  0  0  0  2  0  0  0  0  0  0
  -28.7290  -27.8810   18.4810 O   0  0  0  0  0  0  0  0  0  0  0  0
  -24.4890  -31.4370   22.9320 C   0  0  0  0  0  0  0  0  0  0  0  0
  -27.4660  -28.3780   18.7030 C   0  0  0  0  0  0  0  0  0  0  0  0
  -23.3510  -30.2600   21.0730 C   0  0  0  0  0  3  0  0  0  0  0  0
  -24.8760  -29.3650   19.2360 C   0  0  0  0  0  0  0  0  0  0  0  0
  -25.7550  -31.0840   20.8190 C   0  0  0  0  0  2  0  0  0  0  0  0
  -25.9880  -29.9230   19.8810 C   0  0  0  0  0  0  0  0  0  0  0  0
  -27.2820  -29.4120   19.6420 C   0  0  0  0  0  3  0  0  0  0  0  0
  -26.3440  -27.8830   18.0060 C   0  0  0  0  0  3  0  0  0  0  0  0
  -25.0460  -28.3270   18.3060 C   0  0  0  0  0  3  0  0  0  0  0  0
  -23.5250  -29.9560   19.5600 C   0  0  0  0  0  2  0  0  0  0  0  0
  -24.5520  -30.9320   21.6670 N   0  0  0  0  0  0  0  0  0  0  0  0
  -23.4390  -31.3900   23.5860 O   0  0  0  0  0  0  0  0  0  0  0  0
  -22.9700  -28.9480   21.7980 C   0  0  0  0  0  0  0  0  0  0  0  0
  -21.7060  -28.5240   21.6380 N   0  0  0  0  0  0  0  0  0  0  0  0
  -23.8030  -28.3270   22.4620 O   0  0  0  0  0  0  0  0  0  0  0  0
  -21.0760  -29.1040   21.1040 H   0  0  0  0  0  0  0  0  0  0  0  0
  -18.6970  -26.5380   21.7870 C   0  0  0  0  0  0  0  0  0  0  0  0
  -21.1320  -27.3000   22.1910 C   0  0  0  0  0  3  0  0  0  0  0  0
  -21.5500  -26.0650   21.3610 C   0  0  0  0  0  2  0  0  0  0  0  0
  -20.5400  -25.7040   20.2670 C   0  0  0  0  0  2  0  0  0  0  0  0
  -19.1680  -25.4130   20.8790 C   0  0  0  0  0  2  0  0  0  0  0  0
  -19.6190  -27.4330   22.3900 C   0  0  0  0  0  0  0  0  0  0  0  0
  -19.1260  -28.4820   23.1990 C   0  0  0  0  0  3  0  0  0  0  0  0
  -17.7430  -28.6410   23.4070 C   0  0  0  0  0  3  0  0  0  0  0  0
  -16.8360  -27.7430   22.8180 C   0  0  0  0  0  3  0  0  0  0  0  0
  -17.3130  -26.6900   22.0150 C   0  0  0  0  0  3  0  0  0  0  0  0
  -25.7220  -32.1180   23.6050 C   0  0  0  0  0  3  0  0  0  0  0  0
  -25.3070  -33.4640   24.0250 N   0  0  0  0  0  0  0  0  0  0  0  0
  -25.6160  -34.5940   23.3780 C   0  0  0  0  0  0  0  0  0  0  0  0
  -26.3550  -34.6210   22.3910 O   0  0  0  0  0  0  0  0  0  0  0  0
  -24.6530  -33.5170   24.7920 H   0  0  0  0  0  0  0  0  0  0  0  0
  -23.8240  -36.3320   23.0330 C   0  0  0  0  0  1  0  0  0  0  0  0
  -25.0080  -35.9040   23.9150 C   0  0  0  0  0  3  0  0  0  0  0  0
  -27.0050  -36.8150   25.0200 C   0  0  0  0  0  1  0  0  0  0  0  0
  -25.9810  -37.0140   23.9980 N   0  0  0  0  0  0  0  0  0  0  0  0
  -25.5070  -37.8920   24.1910 H   0  0  0  0  0  0  0  0  0  0  0  0
  -26.3000  -31.3050   24.8270 C   0  0  1  0  0  0  0  0  0  0  0  0
  -25.2340  -30.9220   25.8760 C   0  0  0  0  0  1  0  0  0  0  0  0
  -26.9780  -30.0000   24.3420 C   0  0  0  0  0  1  0  0  0  0  0  0
  -27.3870  -32.1340   25.5520 C   0  0  0  0  0  1  0  0  0  0  0  0
  1  2  1  0
  3  4  1  0
  3  6  2  0
  4  1  2  0
  5  2  2  0
  5  7  1  0
  6  5  1  0
  8  7  1  0
  9 56  1  0
  9  6  1  0
  9  8  1  0
 11 14  1  0
 12 10  1  0
 13 11  1  0
 13 15  1  0
 14  4  1  0
 14 10  1  0
 15 16  1  0
 15 12  1  0
 16 17  1  0
 17 26  1  0
 18 24  1  0
 18 26  1  0
 19 24  1  0
 20 21  1  0
 20 19  1  0
 22 21  1  0
 22 31  1  0
 22 23  1  0
 24 23  1  0
 25 18  2  0
 26 27  1  0
 28 29  2  0
 29 48  1  0
 30 29  1  0
 30 33  1  0
 31 32  1  0
 31 28  1  0
 32 30  2  0
 33 34  1  0
 34 35  2  0
 36 39  1  0
 36 35  1  0
 37 36  2  0
 38 37  1  0
 38 33  2  0
 39 40  1  0
 40 45  2  0
 40 41  1  0
 41 42  2  0
 42 43  1  0
 43 47  1  0
 44 43  2  0
 45 44  1  0
 46 45  1  0
 48 49  1  0
 49 52  1  0
 49 51  1  0
 50 48  2  0
 53 28  1  0
 53 54  1  0
 55 53  1  0
 57 56  1  0
 58 57  1  0
 58 60  1  0
 59 70  2  0
 60 65  1  0
 61 69  1  0
 61 71  1  0
 62 68  1  0
 62 64  1  0
 63 69  1  0
 64 63  1  0
 65 64  2  0
 66 67  1  0
 66 60  2  0
 67 62  2  0
 68 61  1  0
 69 59  1  0
 71 73  2  0
 72 71  1  0
 74 72  1  0
 75 84  2  0
 75 80  1  0
 76 72  1  0
 76 80  1  0
 77 76  1  0
 78 79  1  0
 78 77  1  0
 79 75  1  0
 80 81  2  0
 81 82  1  0
 83 82  2  0
 84 83  1  0
 85 59  1  0
 85 86  1  0
 85 95  1  0
 86 89  1  0
 87 91  1  0
 87 86  1  0
 88 87  2  0
 91 90  1  0
 91 93  1  0
 93 94  1  0
 93 92  1  0
 95 98  1  1
 95 96  1  0
 97 95  1  0
M  ISO  4  18 100  26 100  57 101  58 101
M  END
>  <TORSDO>  (66) 
F 21

>  <SCORE>  (66) 
-4.161

>  <name>  (66) 
65

>  <ligand_id>  (66) 
65

>  <original_smiles>  (66) 
[H]c1c([H])c([H])c2c(c1[H])C([H])([H])C([H])([H])C([H])([H])C2([H])N([H])C(=O)C1([H])N(C(=O)C([H])(N([H])C(=O)C([H])(N([H])C([H])([H])[H])C([H])([H])[H])C(C([H])([H])[H])(C([H])([H])[H])C([H])([H])[H])C([H])([H])c2c([H])c(OC([H])([H])C([H])([H])C3([H])c4c([H])c(C5([H])C([H])([H])C([H])([H])C([H])(C([H])([H])C([H])([H])N([H])C(=O)N6C([H])([H])C([H])([H])C([H])([H])C([H])(n7nc(-c8c([H])c([H])c(Oc9c([H])c([H])c(F)c([H])c9F)c([H])c8[H])c(C(=O)N([H])[H])c7N([H])[H])C6([H])[H])C([H])([H])C5([H])[H])c([H])c([H])c4C([H])([H])C3([H])[H])c([H])c([H])c2C1([H])[H]

>  <smiles>  (66) 
[H]c1c([H])c([H])c2c(c1[H])C([H])([H])C([H])([H])C([H])([H])C2([H])N([H])C(=O)C1([H])N(C(=O)C([H])(N([H])C(=O)C([H])(N([H])C([H])([H])[H])C([H])([H])[H])C(C([H])([H])[H])(C([H])([H])[H])C([H])([H])[H])C([H])([H])c2c([H])c(OC([H])([H])C([H])([H])C3([H])c4c([H])c(C5([H])C([H])([H])C([H])([H])C([H])(C([H])([H])C([H])([H])N([H])C(=O)N6C([H])([H])C([H])([H])C([H])([H])C([H])(n7nc(-c8c([H])c([H])c(Oc9c([H])c([H])c(F)c([H])c9F)c([H])c8[H])c(C(=O)N([H])[H])c7N([H])[H])C6([H])[H])C([H])([H])C5([H])[H])c([H])c([H])c4C([H])([H])C3([H])[H])c([H])c([H])c2C1([H])[H]

$$$$
66:0:0
     RDKit          3D

 88 97  0  0  1  0  0  0  0  0999 V2000
  -27.0200  -22.0320   21.1890 C   0  0  0  0  0  3  0  0  0  0  0  0
  -27.8800  -20.9210   21.0200 C   0  0  0  0  0  3  0  0  0  0  0  0
  -27.3700  -23.3410   20.7870 C   0  0  0  0  0  3  0  0  0  0  0  0
  -29.4840  -22.4220   20.0220 C   0  0  0  0  0  3  0  0  0  0  0  0
  -29.1650  -21.0300   20.4450 C   0  0  0  0  0  0  0  0  0  0  0  0
  -28.6080  -23.6210   20.1760 C   0  0  0  0  0  0  0  0  0  0  0  0
  -30.7400  -18.9800   19.3350 C   0  0  0  0  0  2  0  0  0  0  0  0
  -30.0880  -19.6630   20.5170 C   0  0  0  0  0  3  0  0  0  0  0  0
  -29.8330  -18.0640   20.1420 C   0  0  0  0  0  3  0  0  0  0  0  0
  -30.3280  -16.6610   20.9030 C   0  0  0  0  0  2  0  0  0  0  0  0
  -30.9820  -15.2560   20.3030 C   0  0  0  0  0  0  0  0  0  0  0  0
  -30.8610  -12.9000   19.3560 C   0  0  0  0  0  2  0  0  0  0  0  0
  -29.9440  -12.8810   18.1110 C   0  0  0  0  0  2  0  0  0  0  0  0
  -28.4730  -12.6820   18.5210 C   0  0  0  0  0  2  0  0  0  0  0  0
  -28.0650  -13.6000   19.7030 C   0  0  0  0  0  3  0  0  0  0  0  0
  -29.1060  -13.5840   20.8420 C   0  0  0  0  0  2  0  0  0  0  0  0
  -30.3930  -13.9900   20.2630 N   0  0  0  0  0  0  0  0  0  0  0  0
  -32.1360  -15.3230   19.8650 O   0  0  0  0  0  0  0  0  0  0  0  0
  -25.6810  -14.1900   20.4230 C   0  0  0  0  0  0  0  0  0  0  0  0
  -24.6090  -13.4190   20.7790 C   0  0  0  0  0  0  0  0  0  0  0  0
  -25.0630  -12.0650   20.7410 C   0  0  0  0  0  0  0  0  0  0  0  0
  -26.7190  -13.3070   20.1840 N   0  0  0  0  0  0  0  0  0  0  0  0
  -26.3570  -12.0220   20.4390 N   0  0  0  0  0  0  0  0  0  0  0  0
  -24.3260  -10.8060   20.9180 C   0  0  0  0  0  0  0  0  0  0  0  0
  -24.6910   -9.8690   21.9090 C   0  0  0  0  0  3  0  0  0  0  0  0
  -23.9530   -8.6750   22.0720 C   0  0  0  0  0  3  0  0  0  0  0  0
  -22.8360   -8.4130   21.2440 C   0  0  0  0  0  0  0  0  0  0  0  0
  -22.4890   -9.3400   20.2450 C   0  0  0  0  0  3  0  0  0  0  0  0
  -23.2290  -10.5230   20.0790 C   0  0  0  0  0  3  0  0  0  0  0  0
  -22.0760   -7.2700   21.3140 O   0  0  0  0  0  0  0  0  0  0  0  0
  -21.8740   -6.6110   22.5010 C   0  0  0  0  0  0  0  0  0  0  0  0
  -21.2510   -7.2360   23.6030 C   0  0  0  0  0  3  0  0  0  0  0  0
  -20.9990   -6.5010   24.7790 C   0  0  0  0  0  3  0  0  0  0  0  0
  -21.3610   -5.1430   24.8520 C   0  0  0  0  0  0  0  0  0  0  0  0
  -21.9770   -4.5170   23.7530 C   0  0  0  0  0  3  0  0  0  0  0  0
  -22.2310   -5.2500   22.5800 C   0  0  0  0  0  0  0  0  0  0  0  0
  -22.8050   -4.6370   21.5170 F   0  0  0  0  0  0  0  0  0  0  0  0
  -21.1130   -4.4340   25.9780 F   0  0  0  0  0  0  0  0  0  0  0  0
  -23.2130  -13.9050   21.0430 C   0  0  0  0  0  0  0  0  0  0  0  0
  -22.4820  -13.2200   21.9160 N   0  0  0  0  0  0  0  0  0  0  0  0
  -22.7810  -14.9260   20.5120 O   0  0  0  0  0  0  0  0  0  0  0  0
  -22.8470  -12.3950   22.3680 H   0  0  0  0  0  0  0  0  0  0  0  0
  -21.5450  -13.5280   22.1360 H   0  0  0  0  0  0  0  0  0  0  0  0
  -25.8570  -15.5600   20.2600 N   0  0  0  0  0  0  0  0  0  0  0  0
  -25.0970  -16.2240   20.3740 H   0  0  0  0  0  0  0  0  0  0  0  0
  -26.7160  -15.9940   19.9480 H   0  0  0  0  0  0  0  0  0  0  0  0
  -28.8130  -25.1300   19.5480 C   0  0  0  0  0  2  0  0  0  0  0  0
  -28.6040  -26.5070   20.2320 O   0  0  0  0  0  0  0  0  0  0  0  0
  -24.6970  -31.9380   23.2280 C   0  0  0  0  0  0  0  0  0  0  0  0
  -27.4940  -27.4150   20.1100 C   0  0  0  0  0  0  0  0  0  0  0  0
  -23.5700  -30.5390   21.5380 C   0  0  0  0  0  3  0  0  0  0  0  0
  -25.0950  -29.0560   20.0870 C   0  0  0  0  0  0  0  0  0  0  0  0
  -26.1090  -30.9080   21.4120 C   0  0  0  0  0  2  0  0  0  0  0  0
  -26.2430  -29.5370   20.7270 C   0  0  0  0  0  0  0  0  0  0  0  0
  -27.4370  -28.7290   20.7270 C   0  0  0  0  0  3  0  0  0  0  0  0
  -26.3190  -27.0270   19.4330 C   0  0  0  0  0  3  0  0  0  0  0  0
  -25.1440  -27.8150   19.4270 C   0  0  0  0  0  3  0  0  0  0  0  0
  -23.8310  -29.9020   20.1440 C   0  0  0  0  0  2  0  0  0  0  0  0
  -24.8100  -31.1500   22.1150 N   0  0  0  0  0  0  0  0  0  0  0  0
  -23.5950  -32.1680   23.7510 O   0  0  0  0  0  0  0  0  0  0  0  0
  -22.9190  -29.4850   22.4660 C   0  0  0  0  0  0  0  0  0  0  0  0
  -21.6020  -29.2590   22.3090 N   0  0  0  0  0  0  0  0  0  0  0  0
  -23.6000  -28.8740   23.2940 O   0  0  0  0  0  0  0  0  0  0  0  0
  -21.1070  -29.8070   21.6190 H   0  0  0  0  0  0  0  0  0  0  0  0
  -18.2710  -27.8980   22.7130 C   0  0  0  0  0  0  0  0  0  0  0  0
  -20.8080  -28.2710   23.0450 C   0  0  0  0  0  3  0  0  0  0  0  0
  -20.9880  -26.8560   22.4470 C   0  0  0  0  0  2  0  0  0  0  0  0
  -19.9250  -26.5030   21.4010 C   0  0  0  0  0  2  0  0  0  0  0  0
  -18.5240  -26.5720   22.0140 C   0  0  0  0  0  2  0  0  0  0  0  0
  -19.3440  -28.7020   23.1810 C   0  0  0  0  0  0  0  0  0  0  0  0
  -19.0530  -29.9410   23.7950 C   0  0  0  0  0  3  0  0  0  0  0  0
  -17.7220  -30.3750   23.9430 C   0  0  0  0  0  3  0  0  0  0  0  0
  -16.6640  -29.5690   23.4890 C   0  0  0  0  0  3  0  0  0  0  0  0
  -16.9390  -28.3320   22.8800 C   0  0  0  0  0  3  0  0  0  0  0  0
  -25.9440  -32.6030   23.8890 C   0  0  0  0  0  3  0  0  0  0  0  0
  -26.4280  -31.8580   25.1930 C   0  0  1  0  0  0  0  0  0  0  0  0
  -25.2960  -31.5950   26.2150 C   0  0  0  0  0  1  0  0  0  0  0  0
  -27.0680  -30.4960   24.8420 C   0  0  0  0  0  1  0  0  0  0  0  0
  -27.5250  -32.6910   25.8960 C   0  0  0  0  0  1  0  0  0  0  0  0
  -25.5950  -34.0010   24.1970 N   0  0  0  0  0  0  0  0  0  0  0  0
  -25.9290  -35.0570   23.4430 C   0  0  0  0  0  0  0  0  0  0  0  0
  -26.6280  -34.9600   22.4320 O   0  0  0  0  0  0  0  0  0  0  0  0
  -24.9750  -34.1480   24.9790 H   0  0  0  0  0  0  0  0  0  0  0  0
  -24.1790  -36.8190   23.0340 C   0  0  0  0  0  1  0  0  0  0  0  0
  -25.4050  -36.4390   23.8800 C   0  0  0  0  0  3  0  0  0  0  0  0
  -27.4940  -37.3750   24.7710 C   0  0  0  0  0  1  0  0  0  0  0  0
  -26.4210  -37.5110   23.7890 N   0  0  0  0  0  0  0  0  0  0  0  0
  -25.9940  -38.4250   23.9120 H   0  0  0  0  0  0  0  0  0  0  0  0
  2  1  1  0
  3  1  2  0
  4  6  2  0
  4  5  1  0
  5  2  2  0
  6  3  1  0
  7  9  1  0
  7  8  1  0
  8  5  1  0
  9  8  1  0
  9 10  1  0
 11 10  1  0
 12 17  1  0
 13 14  1  0
 13 12  1  0
 15 14  1  0
 15 22  1  0
 15 16  1  0
 17 11  1  0
 17 16  1  0
 18 11  2  0
 19 20  2  0
 20 39  1  0
 21 20  1  0
 21 24  1  0
 22 19  1  0
 22 23  1  0
 23 21  2  0
 24 25  1  0
 25 26  2  0
 27 30  1  0
 27 26  1  0
 28 27  2  0
 29 28  1  0
 29 24  2  0
 30 31  1  0
 31 36  2  0
 31 32  1  0
 32 33  2  0
 33 34  1  0
 34 38  1  0
 35 34  2  0
 36 35  1  0
 37 36  1  0
 39 40  1  0
 40 43  1  0
 40 42  1  0
 41 39  2  0
 44 45  1  0
 44 19  1  0
 46 44  1  0
 47  6  1  0
 47 48  1  0
 49 60  2  0
 50 48  1  0
 50 55  1  0
 51 59  1  0
 51 61  1  0
 52 58  1  0
 52 54  1  0
 53 59  1  0
 54 53  1  0
 55 54  2  0
 56 50  2  0
 57 56  1  0
 57 52  2  0
 58 51  1  0
 59 49  1  0
 61 63  2  0
 62 61  1  0
 64 62  1  0
 65 74  2  0
 65 70  1  0
 66 62  1  0
 66 70  1  0
 67 66  1  0
 68 69  1  0
 68 67  1  0
 69 65  1  0
 70 71  2  0
 71 72  1  0
 73 72  2  0
 74 73  1  0
 75 49  1  0
 75 80  1  0
 75 76  1  0
 76 79  1  1
 76 77  1  0
 78 76  1  0
 80 83  1  0
 81 85  1  0
 81 80  1  0
 82 81  2  0
 85 84  1  0
 87 85  1  0
 87 88  1  0
 87 86  1  0
M  ISO  4  10 100  11 100  47 101  48 101
M  END
>  <TORSDO>  (67) 
F 19

>  <SCORE>  (67) 
-13.037

>  <name>  (67) 
66

>  <ligand_id>  (67) 
66

>  <original_smiles>  (67) 
[H]c1c([H])c([H])c2c(c1[H])C([H])([H])C([H])([H])C([H])([H])C2([H])N([H])C(=O)C1([H])N(C(=O)C([H])(N([H])C(=O)C([H])(N([H])C([H])([H])[H])C([H])([H])[H])C(C([H])([H])[H])(C([H])([H])[H])C([H])([H])[H])C([H])([H])c2c([H])c(OC([H])([H])c3c([H])c([H])c([H])c(C4([H])C([H])([H])C4([H])C([H])([H])C(=O)N4C([H])([H])C([H])([H])C([H])([H])C([H])(n5nc(-c6c([H])c([H])c(Oc7c([H])c([H])c(F)c([H])c7F)c([H])c6[H])c(C(=O)N([H])[H])c5N([H])[H])C4([H])[H])c3[H])c([H])c([H])c2C1([H])[H]

>  <smiles>  (67) 
[H]c1c([H])c([H])c2c(c1[H])C([H])([H])C([H])([H])C([H])([H])C2([H])N([H])C(=O)C1([H])N(C(=O)C([H])(N([H])C(=O)C([H])(N([H])C([H])([H])[H])C([H])([H])[H])C(C([H])([H])[H])(C([H])([H])[H])C([H])([H])[H])C([H])([H])c2c([H])c(OC([H])([H])c3c([H])c([H])c([H])c(C4([H])C([H])([H])C4([H])C([H])([H])C(=O)N4C([H])([H])C([H])([H])C([H])([H])C([H])(n5nc(-c6c([H])c([H])c(Oc7c([H])c([H])c(F)c([H])c7F)c([H])c6[H])c(C(=O)N([H])[H])c5N([H])[H])C4([H])[H])c3[H])c([H])c([H])c2C1([H])[H]

$$$$
67:0:0
     RDKit          3D

 98105  0  0  1  0  0  0  0  0999 V2000
  -29.6680  -19.2270   19.6320 C   0  0  0  0  0  2  0  0  0  0  0  0
  -28.7310  -19.8840   20.5720 N   0  0  0  0  0  4  0  0  0  0  0  0
  -27.7940  -19.5740   20.3720 H   0  0  0  0  0  0  0  0  0  0  0  0
  -28.9610  -19.5910   21.5070 H   0  0  0  0  0  0  0  0  0  0  0  0
  -28.7730  -21.3640   20.5300 C   0  0  0  0  0  2  0  0  0  0  0  0
  -27.8840  -21.9960   21.6220 C   0  0  0  0  0  2  0  0  0  0  0  0
  -27.7300  -23.5280   21.5250 C   0  0  0  0  0  2  0  0  0  0  0  0
  -29.0230  -24.3280   21.7870 C   0  0  0  0  0  2  0  0  0  0  0  0
  -28.8120  -25.8530   21.7870 C   0  0  0  0  0  2  0  0  0  0  0  0
  -28.4430  -26.2840   20.4790 O   0  0  0  0  0  0  0  0  0  0  0  0
  -24.5600  -31.6410   23.1350 C   0  0  0  0  0  0  0  0  0  0  0  0
  -27.3020  -27.0410   20.4240 C   0  0  0  0  0  0  0  0  0  0  0  0
  -23.4190  -30.1680   21.5050 C   0  0  0  0  0  3  0  0  0  0  0  0
  -24.9260  -28.5430   20.2400 C   0  0  0  0  0  0  0  0  0  0  0  0
  -25.9520  -30.4960   21.4200 C   0  0  0  0  0  2  0  0  0  0  0  0
  -26.0530  -29.0910   20.8670 C   0  0  0  0  0  0  0  0  0  0  0  0
  -27.2430  -28.3410   20.9710 C   0  0  0  0  0  3  0  0  0  0  0  0
  -26.1690  -26.5030   19.7850 C   0  0  0  0  0  3  0  0  0  0  0  0
  -24.9750  -27.2450   19.7010 C   0  0  0  0  0  3  0  0  0  0  0  0
  -23.6900  -29.4130   20.1750 C   0  0  0  0  0  2  0  0  0  0  0  0
  -24.6590  -30.7850   22.0790 N   0  0  0  0  0  0  0  0  0  0  0  0
  -23.4570  -31.9530   23.6030 O   0  0  0  0  0  0  0  0  0  0  0  0
  -22.7080  -29.2060   22.4830 C   0  0  0  0  0  0  0  0  0  0  0  0
  -21.3830  -29.0590   22.3170 N   0  0  0  0  0  0  0  0  0  0  0  0
  -23.3440  -28.5930   23.3430 O   0  0  0  0  0  0  0  0  0  0  0  0
  -20.9350  -29.6000   21.5900 H   0  0  0  0  0  0  0  0  0  0  0  0
  -17.9500  -28.0340   22.7800 C   0  0  0  0  0  0  0  0  0  0  0  0
  -20.5110  -28.1790   23.0940 C   0  0  0  0  0  3  0  0  0  0  0  0
  -20.5590  -26.7330   22.5530 C   0  0  0  0  0  2  0  0  0  0  0  0
  -19.4600  -26.4360   21.5260 C   0  0  0  0  0  2  0  0  0  0  0  0
  -18.0750  -26.6620   22.1420 C   0  0  0  0  0  2  0  0  0  0  0  0
  -19.0950  -28.7540   23.2140 C   0  0  0  0  0  0  0  0  0  0  0  0
  -18.9270  -30.0400   23.7700 C   0  0  0  0  0  3  0  0  0  0  0  0
  -17.6450  -30.6070   23.8990 C   0  0  0  0  0  3  0  0  0  0  0  0
  -16.5130  -29.8840   23.4840 C   0  0  0  0  0  3  0  0  0  0  0  0
  -16.6670  -28.6010   22.9300 C   0  0  0  0  0  3  0  0  0  0  0  0
  -25.8230  -32.2880   23.7870 C   0  0  0  0  0  3  0  0  0  0  0  0
  -25.4790  -33.6710   24.1370 N   0  0  0  0  0  0  0  0  0  0  0  0
  -25.7960  -34.7430   23.3980 C   0  0  0  0  0  0  0  0  0  0  0  0
  -26.4810  -34.6710   22.3740 O   0  0  0  0  0  0  0  0  0  0  0  0
  -24.8700  -33.7990   24.9320 H   0  0  0  0  0  0  0  0  0  0  0  0
  -24.0260  -36.4960   23.0540 C   0  0  0  0  0  1  0  0  0  0  0  0
  -25.2700  -36.1110   23.8700 C   0  0  0  0  0  3  0  0  0  0  0  0
  -27.3740  -37.0380   24.7310 C   0  0  0  0  0  1  0  0  0  0  0  0
  -26.2760  -37.1910   23.7800 N   0  0  0  0  0  0  0  0  0  0  0  0
  -25.8450  -38.0990   23.9370 H   0  0  0  0  0  0  0  0  0  0  0  0
  -26.3410  -31.5000   25.0520 C   0  0  1  0  0  0  0  0  0  0  0  0
  -25.2370  -31.1940   26.0900 C   0  0  0  0  0  1  0  0  0  0  0  0
  -26.9810  -30.1550   24.6350 C   0  0  0  0  0  1  0  0  0  0  0  0
  -27.4520  -32.3140   25.7580 C   0  0  0  0  0  1  0  0  0  0  0  0
  -29.5950  -17.6830   19.6790 C   0  0  0  0  0  2  0  0  0  0  0  0
  -30.1390  -17.0780   20.9910 C   0  0  0  0  0  2  0  0  0  0  0  0
  -30.9930  -15.8050   20.8190 C   0  0  0  0  0  3  0  0  0  0  0  0
  -30.4250  -13.9000   19.2970 C   0  0  0  0  0  0  0  0  0  0  0  0
  -29.6860  -11.9760   17.9450 C   0  0  0  0  0  2  0  0  0  0  0  0
  -28.5280  -12.3740   17.0100 C   0  0  0  0  0  2  0  0  0  0  0  0
  -27.1750  -12.2370   17.7320 C   0  0  0  0  0  2  0  0  0  0  0  0
  -27.1710  -12.9250   19.1230 C   0  0  0  0  0  3  0  0  0  0  0  0
  -28.4130  -12.5180   19.9450 C   0  0  0  0  0  2  0  0  0  0  0  0
  -29.6150  -12.8210   19.1460 N   0  0  0  0  0  0  0  0  0  0  0  0
  -31.3330  -14.1760   18.5060 O   0  0  0  0  0  0  0  0  0  0  0  0
  -30.1900  -14.6580   20.3800 N   0  0  0  0  0  0  0  0  0  0  0  0
  -29.4260  -14.3690   20.9710 H   0  0  0  0  0  0  0  0  0  0  0  0
  -24.9680  -13.5350   20.3100 C   0  0  0  0  0  0  0  0  0  0  0  0
  -23.9770  -12.7620   20.8530 C   0  0  0  0  0  0  0  0  0  0  0  0
  -24.3950  -11.4070   20.6790 C   0  0  0  0  0  0  0  0  0  0  0  0
  -25.9300  -12.6500   19.8460 N   0  0  0  0  0  0  0  0  0  0  0  0
  -25.5980  -11.3630   20.1220 N   0  0  0  0  0  0  0  0  0  0  0  0
  -23.6940  -10.1470   20.9620 C   0  0  0  0  0  0  0  0  0  0  0  0
  -24.2210   -9.1960   21.8640 C   0  0  0  0  0  3  0  0  0  0  0  0
  -23.5200   -8.0000   22.1320 C   0  0  0  0  0  3  0  0  0  0  0  0
  -22.2800   -7.7470   21.4990 C   0  0  0  0  0  0  0  0  0  0  0  0
  -21.7720   -8.6860   20.5840 C   0  0  0  0  0  3  0  0  0  0  0  0
  -22.4730   -9.8730   20.3150 C   0  0  0  0  0  3  0  0  0  0  0  0
  -21.5420   -6.6010   21.6790 O   0  0  0  0  0  0  0  0  0  0  0  0
  -21.5640   -5.9100   22.8630 C   0  0  0  0  0  0  0  0  0  0  0  0
  -21.1870   -6.5110   24.0840 C   0  0  0  0  0  3  0  0  0  0  0  0
  -21.1560   -5.7450   25.2660 C   0  0  0  0  0  3  0  0  0  0  0  0
  -21.4920   -4.3780   25.2290 C   0  0  0  0  0  0  0  0  0  0  0  0
  -21.8630   -3.7760   24.0130 C   0  0  0  0  0  3  0  0  0  0  0  0
  -21.8950   -4.5400   22.8340 C   0  0  0  0  0  0  0  0  0  0  0  0
  -22.2330   -3.9510   21.6620 F   0  0  0  0  0  0  0  0  0  0  0  0
  -21.4560   -3.6400   26.3630 F   0  0  0  0  0  0  0  0  0  0  0  0
  -22.6720  -13.2450   21.4150 C   0  0  0  0  0  0  0  0  0  0  0  0
  -22.1330  -12.5410   22.4050 N   0  0  0  0  0  0  0  0  0  0  0  0
  -22.1450  -14.2800   21.0110 O   0  0  0  0  0  0  0  0  0  0  0  0
  -22.5760  -11.7030   22.7490 H   0  0  0  0  0  0  0  0  0  0  0  0
  -21.2650  -12.8450   22.8220 H   0  0  0  0  0  0  0  0  0  0  0  0
  -25.1250  -14.9090   20.1550 N   0  0  0  0  0  0  0  0  0  0  0  0
  -24.4120  -15.5720   20.4390 H   0  0  0  0  0  0  0  0  0  0  0  0
  -25.9110  -15.3450   19.6900 H   0  0  0  0  0  0  0  0  0  0  0  0
  -31.7410  -15.4670   22.1280 C   0  0  0  0  0  2  0  0  0  0  0  0
  -32.0570  -13.9710   22.3460 C   0  0  0  0  0  2  0  0  0  0  0  0
  -32.7070  -13.2500   21.1450 C   0  0  0  0  0  2  0  0  0  0  0  0
  -34.0930  -13.6870   20.8940 N   0  0  0  0  0  4  0  0  0  0  0  0
  -34.1350  -14.6560   20.6360 H   0  0  0  0  0  0  0  0  0  0  0  0
  -34.4840  -13.1500   20.1390 H   0  0  0  0  0  0  0  0  0  0  0  0
  -34.6690  -13.5400   21.7040 H   0  0  0  0  0  0  0  0  0  0  0  0
  1 51  1  0
  1  2  1  0
  2  4  1  0
  3  2  1  0
  5  2  1  0
  5  6  1  0
  7  6  1  0
  7  8  1  0
  8  9  1  0
 10  9  1  0
 11 22  2  0
 12 10  1  0
 12 17  1  0
 13 21  1  0
 13 23  1  0
 14 16  1  0
 15 21  1  0
 16 17  2  0
 16 15  1  0
 18 12  2  0
 19 18  1  0
 19 14  2  0
 20 14  1  0
 20 13  1  0
 21 11  1  0
 23 25  2  0
 24 23  1  0
 26 24  1  0
 27 36  2  0
 27 32  1  0
 28 24  1  0
 28 32  1  0
 29 28  1  0
 30 31  1  0
 30 29  1  0
 31 27  1  0
 32 33  2  0
 33 34  1  0
 35 34  2  0
 36 35  1  0
 37 11  1  0
 37 38  1  0
 37 47  1  0
 38 41  1  0
 39 43  1  0
 39 38  1  0
 40 39  2  0
 43 42  1  0
 45 43  1  0
 45 46  1  0
 45 44  1  0
 47 50  1  1
 47 48  1  0
 49 47  1  0
 51 52  1  0
 53 52  1  0
 53 92  1  0
 54 62  1  0
 55 60  1  0
 56 57  1  0
 56 55  1  0
 58 57  1  0
 58 67  1  0
 58 59  1  0
 60 54  1  0
 60 59  1  0
 61 54  2  0
 62 53  1  0
 62 63  1  0
 64 65  2  0
 65 84  1  0
 66 65  1  0
 66 69  1  0
 67 68  1  0
 67 64  1  0
 68 66  2  0
 69 70  1  0
 70 71  2  0
 72 75  1  0
 72 71  1  0
 73 72  2  0
 74 73  1  0
 74 69  2  0
 75 76  1  0
 76 77  1  0
 77 78  2  0
 79 78  1  0
 79 83  1  0
 80 79  2  0
 81 76  2  0
 81 80  1  0
 82 81  1  0
 84 85  1  0
 85 87  1  0
 85 88  1  0
 86 84  2  0
 89 64  1  0
 89 90  1  0
 91 89  1  0
 92 93  1  0
 94 93  1  0
 95 94  1  0
 95 98  1  0
 96 95  1  0
 97 95  1  0
M  ISO  4   9 101  10 101  54 100  62 100
M  END
>  <TORSDO>  (68) 
F 29

>  <SCORE>  (68) 
-7.854

>  <name>  (68) 
67

>  <ligand_id>  (68) 
67

>  <original_smiles>  (68) 
[H]c1c([H])c([H])c2c(c1[H])C([H])([H])C([H])([H])C([H])([H])C2([H])N([H])C(=O)C1([H])N(C(=O)C([H])(N([H])C(=O)C([H])(N([H])C([H])([H])[H])C([H])([H])[H])C(C([H])([H])[H])(C([H])([H])[H])C([H])([H])[H])C([H])([H])c2c([H])c(OC([H])([H])C([H])([H])C([H])([H])C([H])([H])C([H])([H])[N+]([H])([H])C([H])([H])C([H])([H])C([H])([H])C([H])(N([H])C(=O)N3C([H])([H])C([H])([H])C([H])([H])C([H])(n4nc(-c5c([H])c([H])c(Oc6c([H])c([H])c(F)c([H])c6F)c([H])c5[H])c(C(=O)N([H])[H])c4N([H])[H])C3([H])[H])C([H])([H])C([H])([H])C([H])([H])[N+]([H])([H])[H])c([H])c([H])c2C1([H])[H]

>  <smiles>  (68) 
[H]c1c([H])c([H])c2c(c1[H])C([H])([H])C([H])([H])C([H])([H])C2([H])N([H])C(=O)C1([H])N(C(=O)C([H])(N([H])C(=O)C([H])(N([H])C([H])([H])[H])C([H])([H])[H])C(C([H])([H])[H])(C([H])([H])[H])C([H])([H])[H])C([H])([H])c2c([H])c(OC([H])([H])C([H])([H])C([H])([H])C([H])([H])C([H])([H])[N+]([H])([H])C([H])([H])C([H])([H])C([H])([H])C([H])(N([H])C(=O)N3C([H])([H])C([H])([H])C([H])([H])C([H])(n4nc(-c5c([H])c([H])c(Oc6c([H])c([H])c(F)c([H])c6F)c([H])c5[H])c(C(=O)N([H])[H])c4N([H])[H])C3([H])[H])C([H])([H])C([H])([H])C([H])([H])[N+]([H])([H])[H])c([H])c([H])c2C1([H])[H]

$$$$
68:0:0
     RDKit          3D

 95104  0  0  1  0  0  0  0  0999 V2000
  -30.6900  -18.4200   21.4410 C   0  0  0  0  0  2  0  0  0  0  0  0
  -29.4750  -19.3280   21.7250 C   0  0  0  0  0  2  0  0  0  0  0  0
  -28.4160  -21.1040   19.8530 C   0  0  0  0  0  2  0  0  0  0  0  0
  -30.6650  -21.0940   20.1960 C   0  0  0  0  0  2  0  0  0  0  0  0
  -28.8280  -22.7970   19.8140 C   0  0  0  0  0  3  0  0  0  0  0  0
  -30.2090  -18.2420   19.9850 C   0  0  0  0  0  3  0  0  0  0  0  0
  -30.1880  -22.5910   20.5570 C   0  0  2  0  0  0  0  0  0  0  0  0
  -29.5950  -19.9350   20.3220 C   0  0  1  0  0  0  0  0  0  0  0  0
  -30.4960  -15.3610   19.9460 C   0  0  0  0  0  0  0  0  0  0  0  0
  -30.4630  -12.8990   19.1350 C   0  0  0  0  0  2  0  0  0  0  0  0
  -29.5000  -12.6410   17.9500 C   0  0  0  0  0  2  0  0  0  0  0  0
  -28.0760  -12.3600   18.4560 C   0  0  0  0  0  2  0  0  0  0  0  0
  -27.6510  -13.3470   19.5720 C   0  0  0  0  0  3  0  0  0  0  0  0
  -28.7390  -13.5540   20.6460 C   0  0  0  0  0  2  0  0  0  0  0  0
  -29.9300  -14.0560   19.9430 N   0  0  0  0  0  0  0  0  0  0  0  0
  -31.7100  -15.3550   19.6950 O   0  0  0  0  0  0  0  0  0  0  0  0
  -29.7520  -16.6450   20.0270 N   0  0  0  0  0  0  0  0  0  0  0  0
  -28.7580  -16.5090   20.1470 H   0  0  0  0  0  0  0  0  0  0  0  0
  -25.3320  -13.8880   20.4850 C   0  0  0  0  0  0  0  0  0  0  0  0
  -24.2880  -13.1020   20.8810 C   0  0  0  0  0  0  0  0  0  0  0  0
  -24.7420  -11.7510   20.7680 C   0  0  0  0  0  0  0  0  0  0  0  0
  -26.3530  -13.0180   20.1450 N   0  0  0  0  0  0  0  0  0  0  0  0
  -26.0140  -11.7230   20.3850 N   0  0  0  0  0  0  0  0  0  0  0  0
  -24.0170  -10.4860   20.9460 C   0  0  0  0  0  0  0  0  0  0  0  0
  -24.4220   -9.5280   21.9000 C   0  0  0  0  0  3  0  0  0  0  0  0
  -23.6940   -8.3300   22.0660 C   0  0  0  0  0  3  0  0  0  0  0  0
  -22.5460   -8.0820   21.2780 C   0  0  0  0  0  0  0  0  0  0  0  0
  -22.1600   -9.0290   20.3120 C   0  0  0  0  0  3  0  0  0  0  0  0
  -22.8890  -10.2170   20.1440 C   0  0  0  0  0  3  0  0  0  0  0  0
  -21.7920   -6.9350   21.3510 O   0  0  0  0  0  0  0  0  0  0  0  0
  -21.6160   -6.2650   22.5350 C   0  0  0  0  0  0  0  0  0  0  0  0
  -20.9300   -6.8430   23.6250 C   0  0  0  0  0  3  0  0  0  0  0  0
  -20.7120   -6.0930   24.7980 C   0  0  0  0  0  3  0  0  0  0  0  0
  -21.1700   -4.7640   24.8800 C   0  0  0  0  0  0  0  0  0  0  0  0
  -21.8480   -4.1850   23.7930 C   0  0  0  0  0  3  0  0  0  0  0  0
  -22.0680   -4.9320   22.6230 C   0  0  0  0  0  0  0  0  0  0  0  0
  -22.7040   -4.3620   21.5710 F   0  0  0  0  0  0  0  0  0  0  0  0
  -20.9540   -4.0410   26.0030 F   0  0  0  0  0  0  0  0  0  0  0  0
  -22.9110  -13.5760   21.2420 C   0  0  0  0  0  0  0  0  0  0  0  0
  -22.2350  -12.8670   22.1400 N   0  0  0  0  0  0  0  0  0  0  0  0
  -22.4450  -14.6100   20.7630 O   0  0  0  0  0  0  0  0  0  0  0  0
  -22.6270  -12.0330   22.5480 H   0  0  0  0  0  0  0  0  0  0  0  0
  -21.3130  -13.1660   22.4240 H   0  0  0  0  0  0  0  0  0  0  0  0
  -25.4930  -15.2640   20.3520 N   0  0  0  0  0  0  0  0  0  0  0  0
  -24.7340  -15.9130   20.5310 H   0  0  0  0  0  0  0  0  0  0  0  0
  -26.3120  -15.7130   19.9640 H   0  0  0  0  0  0  0  0  0  0  0  0
  -31.2840  -23.5780   20.0640 C   0  0  0  0  0  0  0  0  0  0  0  0
  -30.9310  -24.7910   19.6540 N   0  0  0  0  0  0  0  0  0  0  0  0
  -32.4700  -23.2490   20.0570 O   0  0  0  0  0  0  0  0  0  0  0  0
  -29.9670  -25.0950   19.7090 H   0  0  0  0  0  0  0  0  0  0  0  0
  -31.6330  -25.4420   19.3310 H   0  0  0  0  0  0  0  0  0  0  0  0
  -29.9730  -24.1100   22.7420 C   0  0  0  0  0  1  0  0  0  0  0  0
  -30.0140  -22.7030   22.1060 C   0  0  0  0  0  2  0  0  0  0  0  0
  -27.8630  -24.3100   20.0270 C   0  0  0  0  0  2  0  0  0  0  0  0
  -28.1300  -25.9330   19.9590 O   0  0  0  0  0  0  0  0  0  0  0  0
  -24.5430  -31.7420   23.2030 C   0  0  0  0  0  0  0  0  0  0  0  0
  -27.1050  -27.0160   19.9720 C   0  0  0  0  0  0  0  0  0  0  0  0
  -23.3460  -30.4100   21.5140 C   0  0  0  0  0  3  0  0  0  0  0  0
  -24.7950  -28.8770   20.0190 C   0  0  0  0  0  0  0  0  0  0  0  0
  -25.9100  -30.6450   21.3610 C   0  0  0  0  0  2  0  0  0  0  0  0
  -25.9840  -29.2650   20.6460 C   0  0  0  0  0  0  0  0  0  0  0  0
  -27.1360  -28.3580   20.5960 C   0  0  0  0  0  3  0  0  0  0  0  0
  -25.8820  -26.7810   19.3040 C   0  0  0  0  0  3  0  0  0  0  0  0
  -24.7680  -27.6560   19.3270 C   0  0  0  0  0  3  0  0  0  0  0  0
  -23.5710  -29.7870   20.1090 C   0  0  0  0  0  2  0  0  0  0  0  0
  -24.6220  -30.9560   22.0800 N   0  0  0  0  0  0  0  0  0  0  0  0
  -23.4550  -32.0020   23.7420 O   0  0  0  0  0  0  0  0  0  0  0  0
  -22.6640  -29.3700   22.4400 C   0  0  0  0  0  0  0  0  0  0  0  0
  -21.3440  -29.1620   22.2770 N   0  0  0  0  0  0  0  0  0  0  0  0
  -23.3290  -28.7500   23.2740 O   0  0  0  0  0  0  0  0  0  0  0  0
  -20.8590  -29.7150   21.5850 H   0  0  0  0  0  0  0  0  0  0  0  0
  -17.9920  -27.8330   22.6780 C   0  0  0  0  0  0  0  0  0  0  0  0
  -20.5350  -28.1810   23.0080 C   0  0  0  0  0  3  0  0  0  0  0  0
  -20.6980  -26.7650   22.4050 C   0  0  0  0  0  2  0  0  0  0  0  0
  -19.6310  -26.4280   21.3590 C   0  0  0  0  0  2  0  0  0  0  0  0
  -18.2310  -26.5080   21.9740 C   0  0  0  0  0  2  0  0  0  0  0  0
  -19.0730  -28.6250   23.1500 C   0  0  0  0  0  0  0  0  0  0  0  0
  -18.7930  -29.8610   23.7720 C   0  0  0  0  0  3  0  0  0  0  0  0
  -17.4670  -30.3080   23.9240 C   0  0  0  0  0  3  0  0  0  0  0  0
  -16.4010  -29.5130   23.4670 C   0  0  0  0  0  3  0  0  0  0  0  0
  -16.6640  -28.2770   22.8500 C   0  0  0  0  0  3  0  0  0  0  0  0
  -25.8150  -32.3640   23.8550 C   0  0  0  0  0  3  0  0  0  0  0  0
  -26.2850  -31.5940   25.1510 C   0  0  1  0  0  0  0  0  0  0  0  0
  -25.1610  -31.3810   26.1930 C   0  0  0  0  0  1  0  0  0  0  0  0
  -26.8560  -30.2040   24.7920 C   0  0  0  0  0  1  0  0  0  0  0  0
  -27.4300  -32.3750   25.8370 C   0  0  0  0  0  1  0  0  0  0  0  0
  -25.5150  -33.7700   24.1820 N   0  0  0  0  0  0  0  0  0  0  0  0
  -25.8510  -34.8220   23.4240 C   0  0  0  0  0  0  0  0  0  0  0  0
  -26.5080  -34.7130   22.3860 O   0  0  0  0  0  0  0  0  0  0  0  0
  -24.9290  -33.9290   24.9880 H   0  0  0  0  0  0  0  0  0  0  0  0
  -24.1450  -36.6460   23.0910 C   0  0  0  0  0  1  0  0  0  0  0  0
  -25.3880  -36.2180   23.8900 C   0  0  0  0  0  3  0  0  0  0  0  0
  -27.5240  -37.0930   24.7280 C   0  0  0  0  0  1  0  0  0  0  0  0
  -26.4330  -37.2590   23.7710 N   0  0  0  0  0  0  0  0  0  0  0  0
  -26.0360  -38.1860   23.8990 H   0  0  0  0  0  0  0  0  0  0  0  0
  1  2  1  0
  8  4  1  1
  4  7  1  0
  5  3  1  0
  5 54  1  0
  5  7  1  0
  6 17  1  0
  6  8  1  0
  6  1  1  0
  7 53  1  1
  8  3  1  0
  8  2  1  0
  9 17  1  0
 10 15  1  0
 11 12  1  0
 11 10  1  0
 13 12  1  0
 13 22  1  0
 13 14  1  0
 15  9  1  0
 15 14  1  0
 16  9  2  0
 17 18  1  0
 19 20  2  0
 20 39  1  0
 21 20  1  0
 21 24  1  0
 22 23  1  0
 22 19  1  0
 23 21  2  0
 24 25  1  0
 25 26  2  0
 27 30  1  0
 27 26  1  0
 28 27  2  0
 29 28  1  0
 29 24  2  0
 30 31  1  0
 31 36  2  0
 31 32  1  0
 32 33  2  0
 33 34  1  0
 34 38  1  0
 35 34  2  0
 36 35  1  0
 37 36  1  0
 39 40  1  0
 40 43  1  0
 40 42  1  0
 41 39  2  0
 44 19  1  0
 44 45  1  0
 46 44  1  0
 47  7  1  0
 48 50  1  0
 48 47  1  0
 49 47  2  0
 51 48  1  0
 53 52  1  0
 55 57  1  0
 55 54  1  0
 56 67  2  0
 57 62  1  0
 58 66  1  0
 58 68  1  0
 59 65  1  0
 59 61  1  0
 60 66  1  0
 61 60  1  0
 62 61  2  0
 63 64  1  0
 63 57  2  0
 64 59  2  0
 65 58  1  0
 66 56  1  0
 68 70  2  0
 69 68  1  0
 71 69  1  0
 72 81  2  0
 72 77  1  0
 73 69  1  0
 73 77  1  0
 74 73  1  0
 75 76  1  0
 75 74  1  0
 76 72  1  0
 77 78  2  0
 78 79  1  0
 80 79  2  0
 81 80  1  0
 82 56  1  0
 82 87  1  0
 82 83  1  0
 83 86  1  1
 83 84  1  0
 85 83  1  0
 87 90  1  0
 88 92  1  0
 88 87  1  0
 89 88  2  0
 92 91  1  0
 94 92  1  0
 94 95  1  0
 94 93  1  0
M  ISO  4   9 100  17 100  54 101  55 101
M  END
>  <TORSDO>  (69) 
F 19

>  <SCORE>  (69) 
-13.942

>  <name>  (69) 
68

>  <ligand_id>  (69) 
68

>  <original_smiles>  (69) 
[H]c1c([H])c([H])c2c(c1[H])C([H])([H])C([H])([H])C([H])([H])C2([H])N([H])C(=O)C1([H])N(C(=O)C([H])(N([H])C(=O)C([H])(N([H])C([H])([H])[H])C([H])([H])[H])C(C([H])([H])[H])(C([H])([H])[H])C([H])([H])[H])C([H])([H])c2c([H])c(OC([H])([H])C3([H])C([H])([H])C4(C([H])([H])C([H])([H])C4([H])N([H])C(=O)N4C([H])([H])C([H])([H])C([H])([H])C([H])(n5nc(-c6c([H])c([H])c(Oc7c([H])c([H])c(F)c([H])c7F)c([H])c6[H])c(C(=O)N([H])[H])c5N([H])[H])C4([H])[H])C([H])([H])C3(C(=O)N([H])[H])C([H])([H])C([H])([H])[H])c([H])c([H])c2C1([H])[H]

>  <smiles>  (69) 
[H]c1c([H])c([H])c2c(c1[H])C([H])([H])C([H])([H])C([H])([H])C2([H])N([H])C(=O)C1([H])N(C(=O)C([H])(N([H])C(=O)C([H])(N([H])C([H])([H])[H])C([H])([H])[H])C(C([H])([H])[H])(C([H])([H])[H])C([H])([H])[H])C([H])([H])c2c([H])c(OC([H])([H])C3([H])C([H])([H])C4(C([H])([H])C([H])([H])C4([H])N([H])C(=O)N4C([H])([H])C([H])([H])C([H])([H])C([H])(n5nc(-c6c([H])c([H])c(Oc7c([H])c([H])c(F)c([H])c7F)c([H])c6[H])c(C(=O)N([H])[H])c5N([H])[H])C4([H])[H])C([H])([H])C3(C(=O)N([H])[H])C([H])([H])C([H])([H])[H])c([H])c([H])c2C1([H])[H]

$$$$
69:0:0
     RDKit          3D

 94103  0  0  1  0  0  0  0  0999 V2000
  -30.5560  -22.6270   19.5400 C   0  0  0  0  0  2  0  0  0  0  0  0
  -31.1630  -20.1480   20.2410 C   0  0  0  0  0  2  0  0  0  0  0  0
  -30.7440  -21.5610   20.6180 C   0  0  0  0  0  3  0  0  0  0  0  0
  -29.2570  -21.1880   20.5370 C   0  0  0  0  0  3  0  0  0  0  0  0
  -29.0470  -22.6050   19.7990 C   0  0  0  0  0  3  0  0  0  0  0  0
  -29.6970  -19.7450   19.9450 C   0  0  1  0  0  0  0  0  0  0  0  0
  -29.3480  -19.6630   18.4380 C   0  0  0  0  0  0  0  0  0  0  0  0
  -30.2960  -19.3110   17.5760 N   0  0  0  0  0  0  0  0  0  0  0  0
  -28.2070  -19.8990   18.0470 O   0  0  0  0  0  0  0  0  0  0  0  0
  -31.2310  -19.1110   17.9000 H   0  0  0  0  0  0  0  0  0  0  0  0
  -30.0900  -19.2410   16.5900 H   0  0  0  0  0  0  0  0  0  0  0  0
  -28.4650  -23.9180   20.4750 C   0  0  0  0  0  3  0  0  0  0  0  0
  -28.5110  -25.2400   19.5880 C   0  0  0  0  0  3  0  0  0  0  0  0
  -28.3740  -26.5630   20.2200 O   0  0  0  0  0  0  0  0  0  0  0  0
  -24.5760  -31.8620   23.2260 C   0  0  0  0  0  0  0  0  0  0  0  0
  -27.2090  -27.3350   20.1620 C   0  0  0  0  0  0  0  0  0  0  0  0
  -23.3750  -30.4620   21.5820 C   0  0  0  0  0  3  0  0  0  0  0  0
  -24.8290  -28.9180   20.1570 C   0  0  0  0  0  0  0  0  0  0  0  0
  -25.9110  -30.7940   21.4000 C   0  0  0  0  0  2  0  0  0  0  0  0
  -25.9930  -29.4190   20.7500 C   0  0  0  0  0  0  0  0  0  0  0  0
  -27.1810  -28.6370   20.7450 C   0  0  0  0  0  3  0  0  0  0  0  0
  -26.0150  -26.8660   19.5710 C   0  0  0  0  0  3  0  0  0  0  0  0
  -24.8400  -27.6440   19.5630 C   0  0  0  0  0  3  0  0  0  0  0  0
  -23.5910  -29.7880   20.2010 C   0  0  0  0  0  2  0  0  0  0  0  0
  -24.6380  -31.0580   22.1250 N   0  0  0  0  0  0  0  0  0  0  0  0
  -23.4920  -32.1360   23.7610 O   0  0  0  0  0  0  0  0  0  0  0  0
  -22.7160  -29.4430   22.5410 C   0  0  0  0  0  0  0  0  0  0  0  0
  -21.3890  -29.2670   22.4170 N   0  0  0  0  0  0  0  0  0  0  0  0
  -23.3960  -28.8130   23.3550 O   0  0  0  0  0  0  0  0  0  0  0  0
  -20.9000  -29.8240   21.7310 H   0  0  0  0  0  0  0  0  0  0  0  0
  -18.0090  -28.0840   22.9240 C   0  0  0  0  0  0  0  0  0  0  0  0
  -20.5700  -28.3280   23.1860 C   0  0  0  0  0  3  0  0  0  0  0  0
  -20.6640  -26.9000   22.6000 C   0  0  0  0  0  2  0  0  0  0  0  0
  -19.5540  -26.5900   21.5900 C   0  0  0  0  0  2  0  0  0  0  0  0
  -18.1760  -26.7380   22.2390 C   0  0  0  0  0  2  0  0  0  0  0  0
  -19.1330  -28.8380   23.3540 C   0  0  0  0  0  0  0  0  0  0  0  0
  -18.9230  -30.0990   23.9530 C   0  0  0  0  0  3  0  0  0  0  0  0
  -17.6220  -30.6060   24.1270 C   0  0  0  0  0  3  0  0  0  0  0  0
  -16.5110  -29.8480   23.7140 C   0  0  0  0  0  3  0  0  0  0  0  0
  -16.7070  -28.5900   23.1190 C   0  0  0  0  0  3  0  0  0  0  0  0
  -25.8590  -32.4950   23.8500 C   0  0  0  0  0  3  0  0  0  0  0  0
  -25.5470  -33.8910   24.1850 N   0  0  0  0  0  0  0  0  0  0  0  0
  -25.8760  -34.9480   23.4310 C   0  0  0  0  0  0  0  0  0  0  0  0
  -26.5450  -34.8510   22.3980 O   0  0  0  0  0  0  0  0  0  0  0  0
  -24.9570  -34.0410   24.9910 H   0  0  0  0  0  0  0  0  0  0  0  0
  -24.1450  -36.7390   23.0810 C   0  0  0  0  0  1  0  0  0  0  0  0
  -25.3840  -36.3320   23.8950 C   0  0  0  0  0  3  0  0  0  0  0  0
  -27.5130  -37.2160   24.7390 C   0  0  0  0  0  1  0  0  0  0  0  0
  -26.4140  -37.3880   23.7920 N   0  0  0  0  0  0  0  0  0  0  0  0
  -26.0040  -38.3060   23.9460 H   0  0  0  0  0  0  0  0  0  0  0  0
  -26.3760  -31.7210   25.1250 C   0  0  1  0  0  0  0  0  0  0  0  0
  -25.2830  -31.4800   26.1930 C   0  0  0  0  0  1  0  0  0  0  0  0
  -26.9620  -30.3450   24.7330 C   0  0  0  0  0  1  0  0  0  0  0  0
  -27.5240  -32.5160   25.7920 C   0  0  0  0  0  1  0  0  0  0  0  0
  -29.2750  -18.3420   20.5760 C   0  0  0  0  0  3  0  0  0  0  0  0
  -30.2680  -17.1250   20.2910 C   0  0  0  0  0  3  0  0  0  0  0  0
  -30.6070  -14.6110   20.3630 C   0  0  0  0  0  0  0  0  0  0  0  0
  -30.3440  -12.3920   19.2990 C   0  0  0  0  0  2  0  0  0  0  0  0
  -29.4020  -12.5560   18.0880 C   0  0  0  0  0  2  0  0  0  0  0  0
  -27.9300  -12.4120   18.5240 C   0  0  0  0  0  2  0  0  0  0  0  0
  -27.5890  -13.2600   19.7790 C   0  0  0  0  0  3  0  0  0  0  0  0
  -28.6520  -13.0950   20.8870 C   0  0  0  0  0  2  0  0  0  0  0  0
  -29.9570  -13.4110   20.2950 N   0  0  0  0  0  0  0  0  0  0  0  0
  -31.7750  -14.7290   19.9850 O   0  0  0  0  0  0  0  0  0  0  0  0
  -29.8510  -15.7210   20.6230 N   0  0  0  0  0  0  0  0  0  0  0  0
  -28.8930  -15.5670   20.9020 H   0  0  0  0  0  0  0  0  0  0  0  0
  -25.2030  -13.8630   20.5120 C   0  0  0  0  0  0  0  0  0  0  0  0
  -24.1370  -13.0920   20.8890 C   0  0  0  0  0  0  0  0  0  0  0  0
  -24.5970  -11.7400   20.8560 C   0  0  0  0  0  0  0  0  0  0  0  0
  -26.2430  -12.9810   20.2710 N   0  0  0  0  0  0  0  0  0  0  0  0
  -25.8850  -11.6980   20.5390 N   0  0  0  0  0  0  0  0  0  0  0  0
  -23.8690  -10.4790   21.0500 C   0  0  0  0  0  0  0  0  0  0  0  0
  -24.3090   -9.5070   21.9760 C   0  0  0  0  0  3  0  0  0  0  0  0
  -23.5790   -8.3120   22.1580 C   0  0  0  0  0  3  0  0  0  0  0  0
  -22.3990   -8.0800   21.4130 C   0  0  0  0  0  0  0  0  0  0  0  0
  -21.9800   -9.0400   20.4740 C   0  0  0  0  0  3  0  0  0  0  0  0
  -22.7100  -10.2270   20.2920 C   0  0  0  0  0  3  0  0  0  0  0  0
  -21.6410   -6.9370   21.5040 O   0  0  0  0  0  0  0  0  0  0  0  0
  -21.6050   -6.1860   22.6510 C   0  0  0  0  0  0  0  0  0  0  0  0
  -21.1980   -6.7340   23.8880 C   0  0  0  0  0  3  0  0  0  0  0  0
  -21.1090   -5.9110   25.0270 C   0  0  0  0  0  3  0  0  0  0  0  0
  -21.4170   -4.5400   24.9330 C   0  0  0  0  0  0  0  0  0  0  0  0
  -21.8170   -3.9910   23.7010 C   0  0  0  0  0  3  0  0  0  0  0  0
  -21.9080   -4.8120   22.5640 C   0  0  0  0  0  0  0  0  0  0  0  0
  -22.2730   -4.2740   21.3740 F   0  0  0  0  0  0  0  0  0  0  0  0
  -21.3250   -3.7470   26.0250 F   0  0  0  0  0  0  0  0  0  0  0  0
  -22.7420  -13.5730   21.1670 C   0  0  0  0  0  0  0  0  0  0  0  0
  -22.0160  -12.8770   22.0340 N   0  0  0  0  0  0  0  0  0  0  0  0
  -22.3050  -14.6010   20.6510 O   0  0  0  0  0  0  0  0  0  0  0  0
  -22.3840  -12.0460   22.4740 H   0  0  0  0  0  0  0  0  0  0  0  0
  -21.0790  -13.1800   22.2610 H   0  0  0  0  0  0  0  0  0  0  0  0
  -25.3690  -15.2330   20.3330 N   0  0  0  0  0  0  0  0  0  0  0  0
  -24.6000  -15.8860   20.4390 H   0  0  0  0  0  0  0  0  0  0  0  0
  -26.2090  -15.6680   19.9740 H   0  0  0  0  0  0  0  0  0  0  0  0
  1  5  1  0
  2  3  1  0
  3  1  1  0
  4  3  1  0
  5 12  1  0
  5  4  1  0
  6  2  1  0
  6  4  1  0
  6 55  1  1
  7  6  1  0
  8 10  1  0
  8  7  1  0
  9  7  2  0
 11  8  1  0
 13 14  1  0
 13 12  2  0
 15 26  2  0
 15 41  1  0
 16 14  1  0
 16 21  1  0
 17 25  1  0
 17 27  1  0
 18 24  1  0
 18 20  1  0
 19 25  1  0
 20 19  1  0
 21 20  2  0
 22 16  2  0
 23 22  1  0
 23 18  2  0
 24 17  1  0
 25 15  1  0
 27 29  2  0
 28 27  1  0
 28 32  1  0
 30 28  1  0
 31 40  2  0
 31 36  1  0
 32 36  1  0
 33 32  1  0
 34 35  1  0
 34 33  1  0
 35 31  1  0
 36 37  2  0
 37 38  1  0
 39 38  2  0
 40 39  1  0
 41 42  1  0
 41 51  1  0
 42 45  1  0
 43 47  1  0
 43 42  1  0
 44 43  2  0
 46 47  1  0
 49 47  1  0
 49 50  1  0
 49 48  1  0
 51 54  1  1
 51 52  1  0
 53 51  1  0
 56 55  2  0
 56 65  1  0
 57 65  1  0
 58 63  1  0
 59 60  1  0
 59 58  1  0
 60 61  1  0
 61 70  1  0
 61 62  1  0
 63 57  1  0
 63 62  1  0
 64 57  2  0
 65 66  1  0
 67 68  2  0
 68 87  1  0
 69 68  1  0
 69 72  1  0
 70 67  1  0
 70 71  1  0
 71 69  2  0
 72 73  1  0
 73 74  2  0
 75 78  1  0
 75 74  1  0
 76 75  2  0
 77 76  1  0
 77 72  2  0
 78 79  1  0
 79 80  1  0
 80 81  2  0
 82 81  1  0
 82 86  1  0
 83 82  2  0
 84 79  2  0
 84 83  1  0
 85 84  1  0
 87 88  1  0
 88 91  1  0
 88 90  1  0
 89 87  2  0
 92 93  1  0
 92 67  1  0
 94 92  1  0
M  ISO  4  13 101  14 101  57 100  65 100
M  END
>  <TORSDO>  (70) 
F 21

>  <SCORE>  (70) 
-13.581

>  <name>  (70) 
69

>  <ligand_id>  (70) 
69

>  <original_smiles>  (70) 
[H]c1c([H])c([H])c2c(c1[H])C([H])([H])C([H])([H])C([H])([H])C2([H])N([H])C(=O)C1([H])N(C(=O)C([H])(N([H])C(=O)C([H])(N([H])C([H])([H])[H])C([H])([H])[H])C(C([H])([H])[H])(C([H])([H])[H])C([H])([H])[H])C([H])([H])c2c([H])c(OC([H])([H])C([H])([H])C3([H])C([H])([H])C4([H])C([H])([H])C(C(=O)N([H])[H])(C([H])([H])C([H])([H])N([H])C(=O)N5C([H])([H])C([H])([H])C([H])([H])C([H])(n6nc(-c7c([H])c([H])c(Oc8c([H])c([H])c(F)c([H])c8F)c([H])c7[H])c(C(=O)N([H])[H])c6N([H])[H])C5([H])[H])C34[H])c([H])c([H])c2C1([H])[H]

>  <smiles>  (70) 
[H]c1c([H])c([H])c2c(c1[H])C([H])([H])C([H])([H])C([H])([H])C2([H])N([H])C(=O)C1([H])N(C(=O)C([H])(N([H])C(=O)C([H])(N([H])C([H])([H])[H])C([H])([H])[H])C(C([H])([H])[H])(C([H])([H])[H])C([H])([H])[H])C([H])([H])c2c([H])c(OC([H])([H])C([H])([H])C3([H])C([H])([H])C4([H])C([H])([H])C(C(=O)N([H])[H])(C([H])([H])C([H])([H])N([H])C(=O)N5C([H])([H])C([H])([H])C([H])([H])C([H])(n6nc(-c7c([H])c([H])c(Oc8c([H])c([H])c(F)c([H])c8F)c([H])c7[H])c(C(=O)N([H])[H])c6N([H])[H])C5([H])[H])C34[H])c([H])c([H])c2C1([H])[H]

$$$$
70:0:0
     RDKit          3D

 93101  0  0  1  0  0  0  0  0999 V2000
  -30.3380  -20.3170   18.9010 C   0  0  0  0  0  0  0  0  0  0  0  0
  -30.7500  -21.5970   18.1870 C   0  0  0  0  0  2  0  0  0  0  0  0
  -30.3500  -22.8250   19.0230 C   0  0  0  0  0  2  0  0  0  0  0  0
  -28.8590  -20.2760   19.3380 C   0  0  0  0  0  3  0  0  0  0  0  0
  -28.8640  -22.7950   19.4710 C   0  0  0  0  0  3  0  0  0  0  0  0
  -28.5940  -21.4910   20.1820 N   0  0  0  0  0  4  0  0  0  0  0  0
  -31.1760  -19.4380   19.1030 O   0  0  0  0  0  0  0  0  0  0  0  0
  -29.1500  -21.4370   21.0200 H   0  0  0  0  0  0  0  0  0  0  0  0
  -27.6250  -21.4720   20.4570 H   0  0  0  0  0  0  0  0  0  0  0  0
  -28.3400  -18.8890   19.8840 C   0  0  0  0  0  2  0  0  0  0  0  0
  -29.1270  -18.0180   20.9240 C   0  0  0  0  0  2  0  0  0  0  0  0
  -30.1060  -16.9380   20.3460 C   0  0  0  0  0  2  0  0  0  0  0  0
  -30.6180  -14.4860   20.4050 C   0  0  0  0  0  0  0  0  0  0  0  0
  -30.3550  -12.3070   19.2940 C   0  0  0  0  0  2  0  0  0  0  0  0
  -29.4120  -12.5160   18.0900 C   0  0  0  0  0  2  0  0  0  0  0  0
  -27.9340  -12.3890   18.5120 C   0  0  0  0  0  2  0  0  0  0  0  0
  -27.6010  -13.2100   19.7880 C   0  0  0  0  0  3  0  0  0  0  0  0
  -28.6580  -12.9860   20.8950 C   0  0  0  0  0  2  0  0  0  0  0  0
  -29.9780  -13.2900   20.3220 N   0  0  0  0  0  0  0  0  0  0  0  0
  -31.7630  -14.6580   19.9740 O   0  0  0  0  0  0  0  0  0  0  0  0
  -29.8430  -15.5400   20.7550 N   0  0  0  0  0  0  0  0  0  0  0  0
  -28.9230  -15.3260   21.1110 H   0  0  0  0  0  0  0  0  0  0  0  0
  -25.2070  -13.8300   20.4930 C   0  0  0  0  0  0  0  0  0  0  0  0
  -24.1360  -13.0640   20.8690 C   0  0  0  0  0  0  0  0  0  0  0  0
  -24.5910  -11.7090   20.8460 C   0  0  0  0  0  0  0  0  0  0  0  0
  -26.2470  -12.9420   20.2650 N   0  0  0  0  0  0  0  0  0  0  0  0
  -25.8810  -11.6620   20.5350 N   0  0  0  0  0  0  0  0  0  0  0  0
  -23.8590  -10.4520   21.0420 C   0  0  0  0  0  0  0  0  0  0  0  0
  -24.2980   -9.4800   21.9670 C   0  0  0  0  0  3  0  0  0  0  0  0
  -23.5670   -8.2870   22.1550 C   0  0  0  0  0  3  0  0  0  0  0  0
  -22.3820   -8.0590   21.4150 C   0  0  0  0  0  0  0  0  0  0  0  0
  -21.9610   -9.0200   20.4790 C   0  0  0  0  0  3  0  0  0  0  0  0
  -22.6930  -10.2050   20.2910 C   0  0  0  0  0  3  0  0  0  0  0  0
  -21.6210   -6.9190   21.5100 O   0  0  0  0  0  0  0  0  0  0  0  0
  -21.5950   -6.1640   22.6550 C   0  0  0  0  0  0  0  0  0  0  0  0
  -21.2180   -6.7120   23.9010 C   0  0  0  0  0  3  0  0  0  0  0  0
  -21.1400   -5.8840   25.0390 C   0  0  0  0  0  3  0  0  0  0  0  0
  -21.4280   -4.5110   24.9320 C   0  0  0  0  0  0  0  0  0  0  0  0
  -21.7970   -3.9620   23.6910 C   0  0  0  0  0  3  0  0  0  0  0  0
  -21.8780   -4.7860   22.5560 C   0  0  0  0  0  0  0  0  0  0  0  0
  -22.2130   -4.2500   21.3570 F   0  0  0  0  0  0  0  0  0  0  0  0
  -21.3440   -3.7140   26.0220 F   0  0  0  0  0  0  0  0  0  0  0  0
  -22.7420  -13.5500   21.1410 C   0  0  0  0  0  0  0  0  0  0  0  0
  -22.0130  -12.8640   22.0140 N   0  0  0  0  0  0  0  0  0  0  0  0
  -22.3060  -14.5730   20.6140 O   0  0  0  0  0  0  0  0  0  0  0  0
  -22.3760  -12.0370   22.4640 H   0  0  0  0  0  0  0  0  0  0  0  0
  -21.0780  -13.1730   22.2360 H   0  0  0  0  0  0  0  0  0  0  0  0
  -25.3730  -15.2000   20.3080 N   0  0  0  0  0  0  0  0  0  0  0  0
  -24.6000  -15.8500   20.4030 H   0  0  0  0  0  0  0  0  0  0  0  0
  -26.2120  -15.6400   19.9540 H   0  0  0  0  0  0  0  0  0  0  0  0
  -28.4750  -24.0890   20.2760 C   0  0  0  0  0  2  0  0  0  0  0  0
  -28.5510  -25.4220   19.4540 C   0  0  0  0  0  2  0  0  0  0  0  0
  -28.3880  -26.6460   20.2080 O   0  0  0  0  0  0  0  0  0  0  0  0
  -24.5910  -31.8660   23.2420 C   0  0  0  0  0  0  0  0  0  0  0  0
  -27.2070  -27.3700   20.1760 C   0  0  0  0  0  0  0  0  0  0  0  0
  -23.3820  -30.4670   21.6030 C   0  0  0  0  0  3  0  0  0  0  0  0
  -24.8260  -28.9190   20.1810 C   0  0  0  0  0  0  0  0  0  0  0  0
  -25.9130  -30.8060   21.4070 C   0  0  0  0  0  2  0  0  0  0  0  0
  -25.9890  -29.4300   20.7690 C   0  0  0  0  0  0  0  0  0  0  0  0
  -27.1790  -28.6620   20.7630 C   0  0  0  0  0  3  0  0  0  0  0  0
  -26.0120  -26.8750   19.6000 C   0  0  0  0  0  3  0  0  0  0  0  0
  -24.8340  -27.6430   19.5970 C   0  0  0  0  0  3  0  0  0  0  0  0
  -23.5900  -29.7890   20.2230 C   0  0  0  0  0  2  0  0  0  0  0  0
  -24.6480  -31.0620   22.1430 N   0  0  0  0  0  0  0  0  0  0  0  0
  -23.5090  -32.1410   23.7800 O   0  0  0  0  0  0  0  0  0  0  0  0
  -22.7250  -29.4480   22.5630 C   0  0  0  0  0  0  0  0  0  0  0  0
  -21.3990  -29.2690   22.4330 N   0  0  0  0  0  0  0  0  0  0  0  0
  -23.4050  -28.8220   23.3790 O   0  0  0  0  0  0  0  0  0  0  0  0
  -20.9100  -29.8260   21.7460 H   0  0  0  0  0  0  0  0  0  0  0  0
  -18.0220  -28.0780   22.9190 C   0  0  0  0  0  0  0  0  0  0  0  0
  -20.5790  -28.3340   23.2050 C   0  0  0  0  0  3  0  0  0  0  0  0
  -20.6840  -26.9020   22.6340 C   0  0  0  0  0  2  0  0  0  0  0  0
  -19.5880  -26.5760   21.6150 C   0  0  0  0  0  2  0  0  0  0  0  0
  -18.2020  -26.7270   22.2490 C   0  0  0  0  0  2  0  0  0  0  0  0
  -19.1390  -28.8410   23.3530 C   0  0  0  0  0  0  0  0  0  0  0  0
  -18.9190  -30.1070   23.9360 C   0  0  0  0  0  3  0  0  0  0  0  0
  -17.6140  -30.6120   24.0910 C   0  0  0  0  0  3  0  0  0  0  0  0
  -16.5110  -29.8470   23.6730 C   0  0  0  0  0  3  0  0  0  0  0  0
  -16.7170  -28.5820   23.0940 C   0  0  0  0  0  3  0  0  0  0  0  0
  -25.8760  -32.4950   23.8630 C   0  0  0  0  0  3  0  0  0  0  0  0
  -25.5710  -33.8940   24.1940 N   0  0  0  0  0  0  0  0  0  0  0  0
  -25.9060  -34.9440   23.4340 C   0  0  0  0  0  0  0  0  0  0  0  0
  -26.5740  -34.8400   22.4030 O   0  0  0  0  0  0  0  0  0  0  0  0
  -24.9790  -34.0490   24.9970 H   0  0  0  0  0  0  0  0  0  0  0  0
  -24.1800  -36.7380   23.0770 C   0  0  0  0  0  1  0  0  0  0  0  0
  -25.4200  -36.3350   23.8900 C   0  0  0  0  0  3  0  0  0  0  0  0
  -27.5580  -37.2130   24.7200 C   0  0  0  0  0  1  0  0  0  0  0  0
  -26.4550  -37.3850   23.7770 N   0  0  0  0  0  0  0  0  0  0  0  0
  -26.0520  -38.3060   23.9260 H   0  0  0  0  0  0  0  0  0  0  0  0
  -26.3940  -31.7210   25.1360 C   0  0  1  0  0  0  0  0  0  0  0  0
  -25.3020  -31.4860   26.2050 C   0  0  0  0  0  1  0  0  0  0  0  0
  -26.9720  -30.3440   24.7370 C   0  0  0  0  0  1  0  0  0  0  0  0
  -27.5510  -32.5100   25.7960 C   0  0  0  0  0  1  0  0  0  0  0  0
  1  7  2  0
  1  4  1  0
  2  1  1  0
  2  3  1  0
  3  5  1  0
  4 10  1  0
  4  6  1  0
  5  6  1  0
  5 51  1  0
  6  9  1  0
  6  8  1  0
 10 11  1  0
 12 21  1  0
 12 11  1  0
 13 21  1  0
 14 19  1  0
 15 16  1  0
 15 14  1  0
 17 16  1  0
 17 26  1  0
 17 18  1  0
 19 13  1  0
 19 18  1  0
 20 13  2  0
 21 22  1  0
 23 24  2  0
 24 43  1  0
 25 24  1  0
 25 28  1  0
 26 23  1  0
 26 27  1  0
 27 25  2  0
 28 29  1  0
 29 30  2  0
 31 34  1  0
 31 30  1  0
 32 31  2  0
 33 32  1  0
 33 28  2  0
 34 35  1  0
 35 36  1  0
 36 37  2  0
 38 37  1  0
 38 42  1  0
 39 38  2  0
 40 35  2  0
 40 39  1  0
 41 40  1  0
 43 44  1  0
 44 47  1  0
 44 46  1  0
 45 43  2  0
 48 49  1  0
 48 23  1  0
 50 48  1  0
 52 53  1  0
 52 51  1  0
 54 65  2  0
 55 53  1  0
 55 60  1  0
 56 64  1  0
 56 66  1  0
 57 63  1  0
 57 59  1  0
 58 64  1  0
 59 58  1  0
 60 59  2  0
 61 55  2  0
 62 61  1  0
 62 57  2  0
 63 56  1  0
 64 54  1  0
 66 68  2  0
 67 66  1  0
 69 67  1  0
 70 79  2  0
 70 75  1  0
 71 67  1  0
 71 75  1  0
 72 71  1  0
 73 74  1  0
 73 72  1  0
 74 70  1  0
 75 76  2  0
 76 77  1  0
 78 77  2  0
 79 78  1  0
 80 54  1  0
 80 81  1  0
 80 90  1  0
 81 84  1  0
 82 86  1  0
 82 81  1  0
 83 82  2  0
 86 85  1  0
 88 86  1  0
 88 89  1  0
 88 87  1  0
 90 93  1  1
 90 91  1  0
 92 90  1  0
M  ISO  4  13 100  21 100  52 101  53 101
M  END
>  <TORSDO>  (71) 
F 21

>  <SCORE>  (71) 
-13.396

>  <name>  (71) 
70

>  <ligand_id>  (71) 
70

>  <original_smiles>  (71) 
[H]c1c([H])c([H])c2c(c1[H])C([H])([H])C([H])([H])C([H])([H])C2([H])N([H])C(=O)C1([H])N(C(=O)C([H])(N([H])C(=O)C([H])(N([H])C([H])([H])[H])C([H])([H])[H])C(C([H])([H])[H])(C([H])([H])[H])C([H])([H])[H])C([H])([H])c2c([H])c(OC([H])([H])C([H])([H])C3([H])C([H])([H])C([H])([H])C(=O)C([H])(C([H])([H])C([H])([H])C([H])([H])N([H])C(=O)N4C([H])([H])C([H])([H])C([H])([H])C([H])(n5nc(-c6c([H])c([H])c(Oc7c([H])c([H])c(F)c([H])c7F)c([H])c6[H])c(C(=O)N([H])[H])c5N([H])[H])C4([H])[H])[N+]3([H])[H])c([H])c([H])c2C1([H])[H]

>  <smiles>  (71) 
[H]c1c([H])c([H])c2c(c1[H])C([H])([H])C([H])([H])C([H])([H])C2([H])N([H])C(=O)C1([H])N(C(=O)C([H])(N([H])C(=O)C([H])(N([H])C([H])([H])[H])C([H])([H])[H])C(C([H])([H])[H])(C([H])([H])[H])C([H])([H])[H])C([H])([H])c2c([H])c(OC([H])([H])C([H])([H])C3([H])C([H])([H])C([H])([H])C(=O)C([H])(C([H])([H])C([H])([H])C([H])([H])N([H])C(=O)N4C([H])([H])C([H])([H])C([H])([H])C([H])(n5nc(-c6c([H])c([H])c(Oc7c([H])c([H])c(F)c([H])c7F)c([H])c6[H])c(C(=O)N([H])[H])c5N([H])[H])C4([H])[H])[N+]3([H])[H])c([H])c([H])c2C1([H])[H]

$$$$
71:0:0
     RDKit          3D

 94103  0  0  1  0  0  0  0  0999 V2000
  -29.6190  -20.4200   18.8440 C   0  0  0  0  0  2  0  0  0  0  0  0
  -30.7480  -21.0980   21.1490 C   0  0  0  0  0  2  0  0  0  0  0  0
  -28.7810  -21.2630   19.7740 C   0  0  0  0  0  3  0  0  0  0  0  0
  -29.2160  -22.7400   20.0970 C   0  0  0  0  0  3  0  0  0  0  0  0
  -29.8180  -20.2160   20.3250 C   0  0  1  0  0  0  0  0  0  0  0  0
  -30.0670  -22.5010   21.3990 C   0  0  1  0  0  0  0  0  0  0  0  0
  -29.8320  -22.2180   24.0220 C   0  0  0  0  0  1  0  0  0  0  0  0
  -29.1390  -22.3920   22.6520 C   0  0  0  0  0  2  0  0  0  0  0  0
  -30.7350  -25.0330   21.8280 C   0  0  0  0  0  1  0  0  0  0  0  0
  -31.1790  -23.5750   21.6090 C   0  0  0  0  0  2  0  0  0  0  0  0
  -26.6950  -23.5210   20.0170 C   0  0  0  0  0  1  0  0  0  0  0  0
  -28.1600  -23.9890   20.0910 C   0  0  0  0  0  3  0  0  0  0  0  0
  -28.4030  -25.2550   19.1230 C   0  0  0  0  0  2  0  0  0  0  0  0
  -28.3550  -26.6630   19.6050 O   0  0  0  0  0  0  0  0  0  0  0  0
  -24.4530  -31.6720   23.0010 C   0  0  0  0  0  0  0  0  0  0  0  0
  -27.2160  -27.4800   19.5730 C   0  0  0  0  0  0  0  0  0  0  0  0
  -23.3230  -30.4460   21.1830 C   0  0  0  0  0  3  0  0  0  0  0  0
  -24.8360  -29.0700   19.6470 C   0  0  0  0  0  0  0  0  0  0  0  0
  -25.8630  -30.8040   21.1210 C   0  0  0  0  0  2  0  0  0  0  0  0
  -25.9770  -29.5060   20.3290 C   0  0  0  0  0  0  0  0  0  0  0  0
  -27.1690  -28.7230   20.2790 C   0  0  0  0  0  3  0  0  0  0  0  0
  -26.0510  -27.0980   18.8720 C   0  0  0  0  0  3  0  0  0  0  0  0
  -24.8770  -27.8750   18.9090 C   0  0  0  0  0  3  0  0  0  0  0  0
  -23.5880  -29.9230   19.7470 C   0  0  0  0  0  2  0  0  0  0  0  0
  -24.5630  -30.9860   21.8250 N   0  0  0  0  0  0  0  0  0  0  0  0
  -23.3500  -31.8820   23.5230 O   0  0  0  0  0  0  0  0  0  0  0  0
  -22.6390  -29.3280   22.0070 C   0  0  0  0  0  0  0  0  0  0  0  0
  -21.2980  -29.2650   21.9450 N   0  0  0  0  0  0  0  0  0  0  0  0
  -23.3130  -28.5280   22.6620 O   0  0  0  0  0  0  0  0  0  0  0  0
  -20.8170  -29.9550   21.3860 H   0  0  0  0  0  0  0  0  0  0  0  0
  -17.8710  -28.3180   22.6090 C   0  0  0  0  0  0  0  0  0  0  0  0
  -20.4560  -28.2690   22.6080 C   0  0  0  0  0  3  0  0  0  0  0  0
  -20.3290  -26.9900   21.7490 C   0  0  0  0  0  2  0  0  0  0  0  0
  -19.1010  -26.9970   20.8340 C   0  0  0  0  0  2  0  0  0  0  0  0
  -17.8170  -27.1350   21.6580 C   0  0  0  0  0  2  0  0  0  0  0  0
  -19.1100  -28.8600   23.0430 C   0  0  0  0  0  0  0  0  0  0  0  0
  -19.1040  -29.9820   23.9010 C   0  0  0  0  0  3  0  0  0  0  0  0
  -17.8920  -30.5620   24.3190 C   0  0  0  0  0  3  0  0  0  0  0  0
  -16.6680  -30.0130   23.8980 C   0  0  0  0  0  3  0  0  0  0  0  0
  -16.6600  -28.8880   23.0530 C   0  0  0  0  0  3  0  0  0  0  0  0
  -25.7060  -32.2440   23.7320 C   0  0  0  0  0  3  0  0  0  0  0  0
  -25.3970  -33.6280   24.1230 N   0  0  0  0  0  0  0  0  0  0  0  0
  -25.8120  -34.7160   23.4610 C   0  0  0  0  0  0  0  0  0  0  0  0
  -26.5610  -34.6560   22.4830 O   0  0  0  0  0  0  0  0  0  0  0  0
  -24.7390  -33.7470   24.8800 H   0  0  0  0  0  0  0  0  0  0  0  0
  -24.1660  -36.5760   23.0700 C   0  0  0  0  0  1  0  0  0  0  0  0
  -25.3180  -36.0860   23.9620 C   0  0  0  0  0  3  0  0  0  0  0  0
  -27.3880  -36.8530   25.0370 C   0  0  0  0  0  1  0  0  0  0  0  0
  -26.3810  -37.1130   24.0120 N   0  0  0  0  0  0  0  0  0  0  0  0
  -25.9860  -38.0340   24.1810 H   0  0  0  0  0  0  0  0  0  0  0  0
  -26.1320  -31.3930   24.9920 C   0  0  1  0  0  0  0  0  0  0  0  0
  -24.9730  -31.1260   25.9810 C   0  0  0  0  0  1  0  0  0  0  0  0
  -26.7090  -30.0260   24.5590 C   0  0  0  0  0  1  0  0  0  0  0  0
  -27.2640  -32.1200   25.7550 C   0  0  0  0  0  1  0  0  0  0  0  0
  -29.6260  -18.7220   20.8770 C   0  0  0  0  0  2  0  0  0  0  0  0
  -30.7160  -17.5880   20.5140 C   0  0  0  0  0  2  0  0  0  0  0  0
  -31.0870  -15.0100   20.2350 C   0  0  0  0  0  0  0  0  0  0  0  0
  -30.8460  -12.7850   19.1360 C   0  0  0  0  0  2  0  0  0  0  0  0
  -29.8810  -12.9250   17.9390 C   0  0  0  0  0  2  0  0  0  0  0  0
  -28.4170  -12.7600   18.3940 C   0  0  0  0  0  2  0  0  0  0  0  0
  -28.0850  -13.6110   19.6490 C   0  0  0  0  0  3  0  0  0  0  0  0
  -29.1600  -13.4470   20.7430 C   0  0  0  0  0  2  0  0  0  0  0  0
  -30.4520  -13.7970   20.1420 N   0  0  0  0  0  0  0  0  0  0  0  0
  -32.2480  -15.1380   19.8380 O   0  0  0  0  0  0  0  0  0  0  0  0
  -30.3310  -16.1150   20.5860 N   0  0  0  0  0  0  0  0  0  0  0  0
  -29.3860  -15.9150   20.8740 H   0  0  0  0  0  0  0  0  0  0  0  0
  -25.7160  -14.2220   20.4200 C   0  0  0  0  0  0  0  0  0  0  0  0
  -24.6460  -13.4570   20.7880 C   0  0  0  0  0  0  0  0  0  0  0  0
  -25.0880  -12.1000   20.7220 C   0  0  0  0  0  0  0  0  0  0  0  0
  -26.7440  -13.3330   20.1520 N   0  0  0  0  0  0  0  0  0  0  0  0
  -26.3730  -12.0500   20.3930 N   0  0  0  0  0  0  0  0  0  0  0  0
  -24.3460  -10.8460   20.8980 C   0  0  0  0  0  0  0  0  0  0  0  0
  -24.7500   -9.8760   21.8390 C   0  0  0  0  0  3  0  0  0  0  0  0
  -24.0110   -8.6850   22.0040 C   0  0  0  0  0  3  0  0  0  0  0  0
  -22.8520   -8.4560   21.2240 C   0  0  0  0  0  0  0  0  0  0  0  0
  -22.4690   -9.4140   20.2690 C   0  0  0  0  0  3  0  0  0  0  0  0
  -23.2090  -10.5950   20.1040 C   0  0  0  0  0  3  0  0  0  0  0  0
  -22.0850   -7.3190   21.2980 O   0  0  0  0  0  0  0  0  0  0  0  0
  -21.8970   -6.6530   22.4810 C   0  0  0  0  0  0  0  0  0  0  0  0
  -21.2980   -7.2760   23.6000 C   0  0  0  0  0  3  0  0  0  0  0  0
  -21.0590   -6.5330   24.7730 C   0  0  0  0  0  3  0  0  0  0  0  0
  -21.4110   -5.1700   24.8300 C   0  0  0  0  0  0  0  0  0  0  0  0
  -22.0030   -4.5490   23.7160 C   0  0  0  0  0  3  0  0  0  0  0  0
  -22.2440   -5.2880   22.5440 C   0  0  0  0  0  0  0  0  0  0  0  0
  -22.7950   -4.6790   21.4670 F   0  0  0  0  0  0  0  0  0  0  0  0
  -21.1730   -4.4570   25.9550 F   0  0  0  0  0  0  0  0  0  0  0  0
  -23.2610  -13.9480   21.0910 C   0  0  0  0  0  0  0  0  0  0  0  0
  -22.5590  -13.2800   22.0000 N   0  0  0  0  0  0  0  0  0  0  0  0
  -22.8100  -14.9590   20.5560 O   0  0  0  0  0  0  0  0  0  0  0  0
  -22.9410  -12.4610   22.4540 H   0  0  0  0  0  0  0  0  0  0  0  0
  -21.6300  -13.5900   22.2460 H   0  0  0  0  0  0  0  0  0  0  0  0
  -25.8940  -15.5950   20.2670 N   0  0  0  0  0  0  0  0  0  0  0  0
  -25.1260  -16.2470   20.3910 H   0  0  0  0  0  0  0  0  0  0  0  0
  -26.7290  -16.0360   19.9090 H   0  0  0  0  0  0  0  0  0  0  0  0
  1  5  1  0
  2  6  1  0
  3  1  1  0
  3  4  1  0
  3  5  1  0
  4 12  1  0
  4  6  1  0
  5 55  1  6
  5  2  1  0
  6 10  1  1
  6  8  1  0
  8  7  1  0
 10  9  1  0
 12 11  1  0
 13 14  1  0
 13 12  1  0
 15 26  2  0
 16 14  1  0
 16 21  1  0
 17 25  1  0
 17 27  1  0
 18 24  1  0
 18 20  1  0
 19 25  1  0
 20 19  1  0
 21 20  2  0
 22 23  1  0
 22 16  2  0
 23 18  2  0
 24 17  1  0
 25 15  1  0
 27 29  2  0
 28 27  1  0
 30 28  1  0
 31 36  2  0
 31 40  1  0
 32 28  1  0
 32 36  1  0
 33 32  1  0
 34 35  1  0
 34 33  1  0
 35 31  1  0
 36 37  1  0
 37 38  2  0
 39 38  1  0
 40 39  2  0
 41 15  1  0
 41 42  1  0
 41 51  1  0
 42 45  1  0
 43 47  1  0
 43 42  1  0
 44 43  2  0
 47 46  1  0
 47 49  1  0
 49 50  1  0
 49 48  1  0
 51 54  1  1
 51 52  1  0
 53 51  1  0
 56 65  1  0
 56 55  1  0
 57 65  1  0
 58 63  1  0
 59 60  1  0
 59 58  1  0
 61 60  1  0
 61 70  1  0
 61 62  1  0
 63 57  1  0
 63 62  1  0
 64 57  2  0
 65 66  1  0
 67 68  2  0
 68 87  1  0
 69 68  1  0
 69 72  1  0
 70 71  1  0
 70 67  1  0
 71 69  2  0
 72 73  1  0
 73 74  2  0
 75 78  1  0
 75 74  1  0
 76 75  2  0
 77 76  1  0
 77 72  2  0
 78 79  1  0
 79 84  2  0
 79 80  1  0
 80 81  2  0
 81 82  1  0
 82 86  1  0
 83 82  2  0
 84 83  1  0
 85 84  1  0
 87 88  1  0
 88 91  1  0
 88 90  1  0
 89 87  2  0
 92 93  1  0
 92 67  1  0
 94 92  1  0
M  ISO  4  13 101  14 101  57 100  65 100
M  END
>  <TORSDO>  (72) 
F 22

>  <SCORE>  (72) 
-11.947

>  <name>  (72) 
71

>  <ligand_id>  (72) 
71

>  <original_smiles>  (72) 
[H]c1c([H])c([H])c2c(c1[H])C([H])([H])C([H])([H])C([H])([H])C2([H])N([H])C(=O)C1([H])N(C(=O)C([H])(N([H])C(=O)C([H])(N([H])C([H])([H])[H])C([H])([H])[H])C(C([H])([H])[H])(C([H])([H])[H])C([H])([H])[H])C([H])([H])c2c([H])c(OC([H])([H])C([H])(C([H])([H])[H])C3([H])C4([H])C([H])([H])C4(C([H])([H])C([H])([H])N([H])C(=O)N4C([H])([H])C([H])([H])C([H])([H])C([H])(n5nc(-c6c([H])c([H])c(Oc7c([H])c([H])c(F)c([H])c7F)c([H])c6[H])c(C(=O)N([H])[H])c5N([H])[H])C4([H])[H])C([H])([H])C3(C([H])([H])C([H])([H])[H])C([H])([H])C([H])([H])[H])c([H])c([H])c2C1([H])[H]

>  <smiles>  (72) 
[H]c1c([H])c([H])c2c(c1[H])C([H])([H])C([H])([H])C([H])([H])C2([H])N([H])C(=O)C1([H])N(C(=O)C([H])(N([H])C(=O)C([H])(N([H])C([H])([H])[H])C([H])([H])[H])C(C([H])([H])[H])(C([H])([H])[H])C([H])([H])[H])C([H])([H])c2c([H])c(OC([H])([H])C([H])(C([H])([H])[H])C3([H])C4([H])C([H])([H])C4(C([H])([H])C([H])([H])N([H])C(=O)N4C([H])([H])C([H])([H])C([H])([H])C([H])(n5nc(-c6c([H])c([H])c(Oc7c([H])c([H])c(F)c([H])c7F)c([H])c6[H])c(C(=O)N([H])[H])c5N([H])[H])C4([H])[H])C([H])([H])C3(C([H])([H])C([H])([H])[H])C([H])([H])C([H])([H])[H])c([H])c([H])c2C1([H])[H]

$$$$
72:0:0
     RDKit          3D

 96105  0  0  1  0  0  0  0  0999 V2000
  -29.1370  -21.7600   18.1260 C   0  0  0  0  0  2  0  0  0  0  0  0
  -29.7870  -21.9860   19.2660 C   0  0  0  0  0  3  0  0  0  0  0  0
  -27.6910  -22.1430   18.2560 C   0  0  0  0  0  2  0  0  0  0  0  0
  -30.9340  -21.1700   19.8010 C   0  0  0  0  0  2  0  0  0  0  0  0
  -27.5250  -22.2550   19.7920 C   0  0  0  0  0  2  0  0  0  0  0  0
  -29.3950  -21.7290   21.5740 C   0  0  0  0  0  2  0  0  0  0  0  0
  -28.9400  -22.5950   20.3540 C   0  0  1  0  0  0  0  0  0  0  0  0
  -30.3180  -20.5520   21.0820 C   0  0  2  0  0  0  0  0  0  0  0  0
  -31.3550  -20.2280   22.0840 N   0  0  0  0  0  4  0  0  0  0  0  0
  -31.8900  -21.0440   22.3240 H   0  0  0  0  0  0  0  0  0  0  0  0
  -31.9950  -19.5380   21.7350 H   0  0  0  0  0  0  0  0  0  0  0  0
  -30.9380  -19.8760   22.9290 H   0  0  0  0  0  0  0  0  0  0  0  0
  -29.1920  -24.1560   20.5590 C   0  0  0  0  0  3  0  0  0  0  0  0
  -28.1470  -25.1620   19.9630 C   0  0  0  0  0  3  0  0  0  0  0  0
  -28.3460  -26.5870   20.1800 O   0  0  0  0  0  0  0  0  0  0  0  0
  -24.5860  -31.8650   23.2250 C   0  0  0  0  0  0  0  0  0  0  0  0
  -27.2020  -27.3830   20.1260 C   0  0  0  0  0  0  0  0  0  0  0  0
  -23.3730  -30.4760   21.5840 C   0  0  0  0  0  3  0  0  0  0  0  0
  -24.8190  -28.9440   20.1420 C   0  0  0  0  0  0  0  0  0  0  0  0
  -25.9100  -30.8050   21.3970 C   0  0  0  0  0  2  0  0  0  0  0  0
  -25.9850  -29.4400   20.7380 C   0  0  0  0  0  0  0  0  0  0  0  0
  -27.1770  -28.6680   20.7280 C   0  0  0  0  0  3  0  0  0  0  0  0
  -26.0130  -26.9310   19.4950 C   0  0  0  0  0  3  0  0  0  0  0  0
  -24.8310  -27.6890   19.5160 C   0  0  0  0  0  3  0  0  0  0  0  0
  -23.5780  -29.8100   20.1990 C   0  0  0  0  0  2  0  0  0  0  0  0
  -24.6410  -31.0650   22.1240 N   0  0  0  0  0  0  0  0  0  0  0  0
  -23.5080  -32.1410   23.7690 O   0  0  0  0  0  0  0  0  0  0  0  0
  -22.7170  -29.4510   22.5400 C   0  0  0  0  0  0  0  0  0  0  0  0
  -21.3920  -29.2710   22.4140 N   0  0  0  0  0  0  0  0  0  0  0  0
  -23.4000  -28.8220   23.3520 O   0  0  0  0  0  0  0  0  0  0  0  0
  -20.8980  -29.8320   21.7330 H   0  0  0  0  0  0  0  0  0  0  0  0
  -18.0170  -28.0780   22.9190 C   0  0  0  0  0  0  0  0  0  0  0  0
  -20.5760  -28.3330   23.1860 C   0  0  0  0  0  3  0  0  0  0  0  0
  -20.6760  -26.9010   22.6110 C   0  0  0  0  0  2  0  0  0  0  0  0
  -19.5720  -26.5810   21.5980 C   0  0  0  0  0  2  0  0  0  0  0  0
  -18.1900  -26.7280   22.2420 C   0  0  0  0  0  2  0  0  0  0  0  0
  -19.1380  -28.8380   23.3470 C   0  0  0  0  0  0  0  0  0  0  0  0
  -18.9230  -30.1030   23.9370 C   0  0  0  0  0  3  0  0  0  0  0  0
  -17.6190  -30.6070   24.1060 C   0  0  0  0  0  3  0  0  0  0  0  0
  -16.5120  -29.8430   23.6950 C   0  0  0  0  0  3  0  0  0  0  0  0
  -16.7120  -28.5820   23.1060 C   0  0  0  0  0  3  0  0  0  0  0  0
  -25.8750  -32.4920   23.8390 C   0  0  0  0  0  3  0  0  0  0  0  0
  -25.5710  -33.8890   24.1750 N   0  0  0  0  0  0  0  0  0  0  0  0
  -25.9030  -34.9440   23.4180 C   0  0  0  0  0  0  0  0  0  0  0  0
  -26.5690  -34.8420   22.3840 O   0  0  0  0  0  0  0  0  0  0  0  0
  -24.9830  -34.0430   24.9800 H   0  0  0  0  0  0  0  0  0  0  0  0
  -24.1780  -36.7420   23.0710 C   0  0  0  0  0  1  0  0  0  0  0  0
  -25.4190  -36.3320   23.8810 C   0  0  0  0  0  3  0  0  0  0  0  0
  -27.5560  -37.2070   24.7170 C   0  0  0  0  0  1  0  0  0  0  0  0
  -26.4550  -37.3830   23.7730 N   0  0  0  0  0  0  0  0  0  0  0  0
  -26.0520  -38.3030   23.9250 H   0  0  0  0  0  0  0  0  0  0  0  0
  -26.3980  -31.7160   25.1110 C   0  0  1  0  0  0  0  0  0  0  0  0
  -25.3130  -31.4790   26.1860 C   0  0  0  0  0  1  0  0  0  0  0  0
  -26.9800  -30.3380   24.7190 C   0  0  0  0  0  1  0  0  0  0  0  0
  -27.5490  -32.5130   25.7670 C   0  0  0  0  0  1  0  0  0  0  0  0
  -29.4570  -19.2650   20.7930 C   0  0  0  0  0  2  0  0  0  0  0  0
  -30.1440  -17.9400   20.3170 C   0  0  0  0  0  2  0  0  0  0  0  0
  -30.4570  -16.8730   21.4150 C   0  0  0  0  0  2  0  0  0  0  0  0
  -30.6730  -14.4940   20.5310 C   0  0  0  0  0  0  0  0  0  0  0  0
  -30.3740  -12.3380   19.3580 C   0  0  0  0  0  2  0  0  0  0  0  0
  -29.4460  -12.5300   18.1420 C   0  0  0  0  0  2  0  0  0  0  0  0
  -27.9660  -12.3980   18.5530 C   0  0  0  0  0  2  0  0  0  0  0  0
  -27.6150  -13.2450   19.8050 C   0  0  0  0  0  3  0  0  0  0  0  0
  -28.6540  -13.0240   20.9270 C   0  0  0  0  0  2  0  0  0  0  0  0
  -29.9860  -13.3250   20.3770 N   0  0  0  0  0  0  0  0  0  0  0  0
  -31.8060  -14.6700   20.0780 O   0  0  0  0  0  0  0  0  0  0  0  0
  -29.9880  -15.5040   21.1070 N   0  0  0  0  0  0  0  0  0  0  0  0
  -29.0500  -15.2760   21.4020 H   0  0  0  0  0  0  0  0  0  0  0  0
  -25.2070  -13.8710   20.4610 C   0  0  0  0  0  0  0  0  0  0  0  0
  -24.1290  -13.1070   20.8240 C   0  0  0  0  0  0  0  0  0  0  0  0
  -24.5850  -11.7550   20.8210 C   0  0  0  0  0  0  0  0  0  0  0  0
  -26.2520  -12.9830   20.2640 N   0  0  0  0  0  0  0  0  0  0  0  0
  -25.8810  -11.7060   20.5380 N   0  0  0  0  0  0  0  0  0  0  0  0
  -23.8520  -10.4970   21.0170 C   0  0  0  0  0  0  0  0  0  0  0  0
  -24.2700   -9.5390   21.9660 C   0  0  0  0  0  3  0  0  0  0  0  0
  -23.5380   -8.3450   22.1470 C   0  0  0  0  0  3  0  0  0  0  0  0
  -22.3740   -8.1030   21.3810 C   0  0  0  0  0  0  0  0  0  0  0  0
  -21.9750   -9.0510   20.4220 C   0  0  0  0  0  3  0  0  0  0  0  0
  -22.7090  -10.2360   20.2380 C   0  0  0  0  0  3  0  0  0  0  0  0
  -21.6130   -6.9610   21.4720 O   0  0  0  0  0  0  0  0  0  0  0  0
  -21.5540   -6.2270   22.6300 C   0  0  0  0  0  0  0  0  0  0  0  0
  -21.1280   -6.7950   23.8510 C   0  0  0  0  0  3  0  0  0  0  0  0
  -21.0140   -5.9870   25.0010 C   0  0  0  0  0  3  0  0  0  0  0  0
  -21.3170   -4.6140   24.9300 C   0  0  0  0  0  0  0  0  0  0  0  0
  -21.7360   -4.0460   23.7140 C   0  0  0  0  0  3  0  0  0  0  0  0
  -21.8510   -4.8510   22.5660 C   0  0  0  0  0  0  0  0  0  0  0  0
  -22.2350   -4.2960   21.3920 F   0  0  0  0  0  0  0  0  0  0  0  0
  -21.2000   -3.8360   26.0310 F   0  0  0  0  0  0  0  0  0  0  0  0
  -22.7290  -13.5930   21.0650 C   0  0  0  0  0  0  0  0  0  0  0  0
  -21.9820  -12.9110   21.9270 N   0  0  0  0  0  0  0  0  0  0  0  0
  -22.3030  -14.6130   20.5240 O   0  0  0  0  0  0  0  0  0  0  0  0
  -22.3370  -12.0860   22.3870 H   0  0  0  0  0  0  0  0  0  0  0  0
  -21.0430  -13.2190   22.1320 H   0  0  0  0  0  0  0  0  0  0  0  0
  -25.3820  -15.2370   20.2650 N   0  0  0  0  0  0  0  0  0  0  0  0
  -24.6200  -15.9010   20.3470 H   0  0  0  0  0  0  0  0  0  0  0  0
  -26.2410  -15.6620   19.9390 H   0  0  0  0  0  0  0  0  0  0  0  0
  1  3  1  0
  2  1  1  0
  2  4  1  0
  2  7  1  0
  3  5  1  0
  4  8  1  0
  5  7  1  0
  7 13  1  1
  7  6  1  0
  8 56  1  6
  8  6  1  0
  8  9  1  0
  9 10  1  0
  9 12  1  0
 11  9  1  0
 14 15  1  0
 14 13  2  0
 16 27  2  0
 17 15  1  0
 17 22  1  0
 18 26  1  0
 18 28  1  0
 19 25  1  0
 19 21  1  0
 20 26  1  0
 21 20  1  0
 22 21  2  0
 23 24  1  0
 23 17  2  0
 24 19  2  0
 25 18  1  0
 26 16  1  0
 28 30  2  0
 29 28  1  0
 31 29  1  0
 32 41  2  0
 32 37  1  0
 33 29  1  0
 33 37  1  0
 34 33  1  0
 35 36  1  0
 35 34  1  0
 36 32  1  0
 37 38  2  0
 38 39  1  0
 40 39  2  0
 41 40  1  0
 42 16  1  0
 42 43  1  0
 42 52  1  0
 43 46  1  0
 44 48  1  0
 44 43  1  0
 45 44  2  0
 48 47  1  0
 50 48  1  0
 50 51  1  0
 50 49  1  0
 52 55  1  1
 52 53  1  0
 54 52  1  0
 57 56  1  0
 57 58  1  0
 59 67  1  0
 60 65  1  0
 61 62  1  0
 61 60  1  0
 63 62  1  0
 63 72  1  0
 63 64  1  0
 65 59  1  0
 65 64  1  0
 66 59  2  0
 67 68  1  0
 67 58  1  0
 69 70  2  0
 70 89  1  0
 71 70  1  0
 71 74  1  0
 72 69  1  0
 72 73  1  0
 73 71  2  0
 74 75  1  0
 75 76  2  0
 77 80  1  0
 77 76  1  0
 78 77  2  0
 79 78  1  0
 79 74  2  0
 80 81  1  0
 81 82  1  0
 82 83  2  0
 84 83  1  0
 84 88  1  0
 85 84  2  0
 86 81  2  0
 86 85  1  0
 87 86  1  0
 89 90  1  0
 90 93  1  0
 90 92  1  0
 91 89  2  0
 94 95  1  0
 94 69  1  0
 96 94  1  0
M  ISO  4  14 101  15 101  59 100  67 100
M  END
>  <TORSDO>  (73) 
F 22

>  <SCORE>  (73) 
-13.533

>  <name>  (73) 
72

>  <ligand_id>  (73) 
72

>  <original_smiles>  (73) 
[H]C1=C2C([H])([H])C(C([H])([H])C([H])([H])C([H])([H])N([H])C(=O)N3C([H])([H])C([H])([H])C([H])([H])C([H])(n4nc(-c5c([H])c([H])c(Oc6c([H])c([H])c(F)c([H])c6F)c([H])c5[H])c(C(=O)N([H])[H])c4N([H])[H])C3([H])[H])([N+]([H])([H])[H])C([H])([H])C2(C([H])([H])C([H])([H])Oc2c([H])c([H])c3c(c2[H])C([H])([H])N(C(=O)C([H])(N([H])C(=O)C([H])(N([H])C([H])([H])[H])C([H])([H])[H])C(C([H])([H])[H])(C([H])([H])[H])C([H])([H])[H])C([H])(C(=O)N([H])C2([H])c4c([H])c([H])c([H])c([H])c4C([H])([H])C([H])([H])C2([H])[H])C3([H])[H])C([H])([H])C1([H])[H]

>  <smiles>  (73) 
[H]C1=C2C([H])([H])C(C([H])([H])C([H])([H])C([H])([H])N([H])C(=O)N3C([H])([H])C([H])([H])C([H])([H])C([H])(n4nc(-c5c([H])c([H])c(Oc6c([H])c([H])c(F)c([H])c6F)c([H])c5[H])c(C(=O)N([H])[H])c4N([H])[H])C3([H])[H])([N+]([H])([H])[H])C([H])([H])C2(C([H])([H])C([H])([H])Oc2c([H])c([H])c3c(c2[H])C([H])([H])N(C(=O)C([H])(N([H])C(=O)C([H])(N([H])C([H])([H])[H])C([H])([H])[H])C(C([H])([H])[H])(C([H])([H])[H])C([H])([H])[H])C([H])(C(=O)N([H])C2([H])c4c([H])c([H])c([H])c([H])c4C([H])([H])C([H])([H])C2([H])[H])C3([H])[H])C([H])([H])C1([H])[H]

$$$$
73:0:0
     RDKit          3D

 96104  0  0  1  0  0  0  0  0999 V2000
  -28.3990  -21.9370   20.0090 C   0  0  0  0  0  2  0  0  0  0  0  0
  -30.8110  -22.4030   19.5960 C   0  0  0  0  0  2  0  0  0  0  0  0
  -28.6460  -20.4500   19.5890 C   0  0  0  0  0  2  0  0  0  0  0  0
  -31.0350  -20.9020   19.2340 C   0  0  0  0  0  2  0  0  0  0  0  0
  -29.3780  -22.9290   19.3340 C   0  0  0  0  0  3  0  0  0  0  0  0
  -30.0680  -19.8760   19.9180 C   0  0  1  0  0  0  0  0  0  0  0  0
  -30.2370  -19.8090   21.4600 C   0  0  0  0  0  0  0  0  0  0  0  0
  -31.3550  -20.2670   22.0080 N   0  0  0  0  0  0  0  0  0  0  0  0
  -29.3640  -19.3070   22.1670 O   0  0  0  0  0  0  0  0  0  0  0  0
  -32.0690  -20.6830   21.4300 H   0  0  0  0  0  0  0  0  0  0  0  0
  -31.4890  -20.2210   23.0090 H   0  0  0  0  0  0  0  0  0  0  0  0
  -29.2480  -24.4380   19.7760 C   0  0  0  0  0  2  0  0  0  0  0  0
  -28.0290  -25.2650   19.2660 C   0  0  0  0  0  2  0  0  0  0  0  0
  -28.1400  -26.7000   19.5210 O   0  0  0  0  0  0  0  0  0  0  0  0
  -24.5170  -31.7740   23.0440 C   0  0  0  0  0  0  0  0  0  0  0  0
  -26.9790  -27.4660   19.5860 C   0  0  0  0  0  0  0  0  0  0  0  0
  -23.2170  -30.4260   21.4330 C   0  0  0  0  0  3  0  0  0  0  0  0
  -24.5830  -28.9800   19.8360 C   0  0  0  0  0  0  0  0  0  0  0  0
  -25.7240  -30.8210   21.0760 C   0  0  0  0  0  2  0  0  0  0  0  0
  -25.7790  -29.4770   20.3680 C   0  0  0  0  0  0  0  0  0  0  0  0
  -26.9770  -28.7260   20.2440 C   0  0  0  0  0  3  0  0  0  0  0  0
  -25.7620  -27.0180   19.0190 C   0  0  0  0  0  3  0  0  0  0  0  0
  -24.5720  -27.7530   19.1580 C   0  0  0  0  0  3  0  0  0  0  0  0
  -23.3380  -29.8190   20.0120 C   0  0  0  0  0  2  0  0  0  0  0  0
  -24.5090  -31.0210   21.9080 N   0  0  0  0  0  0  0  0  0  0  0  0
  -23.4720  -32.0030   23.6700 O   0  0  0  0  0  0  0  0  0  0  0  0
  -22.6510  -29.3500   22.3890 C   0  0  0  0  0  0  0  0  0  0  0  0
  -21.3340  -29.1010   22.3010 N   0  0  0  0  0  0  0  0  0  0  0  0
  -23.3920  -28.7450   23.1680 O   0  0  0  0  0  0  0  0  0  0  0  0
  -20.7910  -29.6490   21.6480 H   0  0  0  0  0  0  0  0  0  0  0  0
  -18.0620  -27.6510   22.8140 C   0  0  0  0  0  0  0  0  0  0  0  0
  -20.5940  -28.1050   23.0770 C   0  0  0  0  0  3  0  0  0  0  0  0
  -20.8040  -26.6840   22.5040 C   0  0  0  0  0  2  0  0  0  0  0  0
  -19.7290  -26.2750   21.4940 C   0  0  0  0  0  2  0  0  0  0  0  0
  -18.3400  -26.3160   22.1410 C   0  0  0  0  0  2  0  0  0  0  0  0
  -19.1210  -28.4960   23.2390 C   0  0  0  0  0  0  0  0  0  0  0  0
  -18.8080  -29.7420   23.8270 C   0  0  0  0  0  3  0  0  0  0  0  0
  -17.4690  -30.1430   23.9940 C   0  0  0  0  0  3  0  0  0  0  0  0
  -16.4250  -29.2950   23.5860 C   0  0  0  0  0  3  0  0  0  0  0  0
  -16.7220  -28.0500   23.0020 C   0  0  0  0  0  3  0  0  0  0  0  0
  -25.8320  -32.4030   23.5970 C   0  0  0  0  0  3  0  0  0  0  0  0
  -25.5250  -33.7780   24.0150 N   0  0  0  0  0  0  0  0  0  0  0  0
  -25.8150  -34.8730   23.3000 C   0  0  0  0  0  0  0  0  0  0  0  0
  -26.4400  -34.8320   22.2360 O   0  0  0  0  0  0  0  0  0  0  0  0
  -24.9710  -33.8840   24.8510 H   0  0  0  0  0  0  0  0  0  0  0  0
  -24.0670  -36.6710   23.0980 C   0  0  0  0  0  1  0  0  0  0  0  0
  -25.3320  -36.2290   23.8510 C   0  0  0  0  0  3  0  0  0  0  0  0
  -27.4840  -37.0800   24.6700 C   0  0  0  0  0  1  0  0  0  0  0  0
  -26.3540  -37.2940   23.7700 N   0  0  0  0  0  0  0  0  0  0  0  0
  -25.9470  -38.2000   23.9820 H   0  0  0  0  0  0  0  0  0  0  0  0
  -26.4580  -31.5840   24.7930 C   0  0  1  0  0  0  0  0  0  0  0  0
  -25.4510  -31.2650   25.9220 C   0  0  0  0  0  1  0  0  0  0  0  0
  -27.0420  -30.2420   24.2890 C   0  0  0  0  0  1  0  0  0  0  0  0
  -27.6340  -32.3740   25.4130 C   0  0  0  0  0  1  0  0  0  0  0  0
  -30.2100  -18.3880   19.3400 C   0  0  0  0  0  2  0  0  0  0  0  0
  -31.2070  -17.3320   19.9920 C   0  0  0  0  0  0  0  0  0  0  0  0
  -31.4690  -14.7780   19.3710 C   0  0  0  0  0  0  0  0  0  0  0  0
  -31.0330  -12.4870   18.5320 C   0  0  0  0  0  2  0  0  0  0  0  0
  -29.9580  -12.5420   17.4270 C   0  0  0  0  0  2  0  0  0  0  0  0
  -28.5420  -12.4750   18.0330 C   0  0  0  0  0  2  0  0  0  0  0  0
  -28.3500  -13.4710   19.2070 C   0  0  0  0  0  3  0  0  0  0  0  0
  -29.5250  -13.3870   20.2080 C   0  0  0  0  0  2  0  0  0  0  0  0
  -30.7700  -13.6060   19.4560 N   0  0  0  0  0  0  0  0  0  0  0  0
  -32.5570  -14.8300   18.8020 O   0  0  0  0  0  0  0  0  0  0  0  0
  -30.8260  -15.8880   19.8260 N   0  0  0  0  0  4  0  0  0  0  0  0
  -29.9180  -15.6690   20.2070 H   0  0  0  0  0  0  0  0  0  0  0  0
  -26.1720  -14.2430   20.3340 C   0  0  0  0  0  0  0  0  0  0  0  0
  -25.0820  -13.5520   20.7920 C   0  0  0  0  0  0  0  0  0  0  0  0
  -25.3670  -12.1700   20.5660 C   0  0  0  0  0  0  0  0  0  0  0  0
  -27.0590  -13.2870   19.8630 N   0  0  0  0  0  0  0  0  0  0  0  0
  -26.5870  -12.0290   20.0600 N   0  0  0  0  0  0  0  0  0  0  0  0
  -24.5280  -10.9800   20.7470 C   0  0  0  0  0  0  0  0  0  0  0  0
  -24.9140   -9.9280   21.6070 C   0  0  0  0  0  3  0  0  0  0  0  0
  -24.0820   -8.8000   21.7780 C   0  0  0  0  0  3  0  0  0  0  0  0
  -22.8480   -8.7180   21.0880 C   0  0  0  0  0  0  0  0  0  0  0  0
  -22.4810   -9.7560   20.2140 C   0  0  0  0  0  3  0  0  0  0  0  0
  -23.3120  -10.8750   20.0410 C   0  0  0  0  0  3  0  0  0  0  0  0
  -21.9850   -7.6510   21.1740 O   0  0  0  0  0  0  0  0  0  0  0  0
  -21.8360   -6.9390   22.3370 C   0  0  0  0  0  0  0  0  0  0  0  0
  -21.4210   -7.5530   23.5390 C   0  0  0  0  0  3  0  0  0  0  0  0
  -21.2140   -6.7710   24.6930 C   0  0  0  0  0  3  0  0  0  0  0  0
  -21.4100   -5.3770   24.6450 C   0  0  0  0  0  0  0  0  0  0  0  0
  -21.8170   -4.7640   23.4470 C   0  0  0  0  0  3  0  0  0  0  0  0
  -22.0270   -5.5430   22.2950 C   0  0  0  0  0  0  0  0  0  0  0  0
  -22.3990   -4.9450   21.1380 F   0  0  0  0  0  0  0  0  0  0  0  0
  -21.2020   -4.6240   25.7500 F   0  0  0  0  0  0  0  0  0  0  0  0
  -23.8050  -14.1420   21.3180 C   0  0  0  0  0  0  0  0  0  0  0  0
  -23.1400  -13.4480   22.2350 N   0  0  0  0  0  0  0  0  0  0  0  0
  -23.4150  -15.2500   20.9500 O   0  0  0  0  0  0  0  0  0  0  0  0
  -23.4710  -12.5500   22.5550 H   0  0  0  0  0  0  0  0  0  0  0  0
  -22.2860  -13.8240   22.6230 H   0  0  0  0  0  0  0  0  0  0  0  0
  -26.4760  -15.5980   20.2590 N   0  0  0  0  0  0  0  0  0  0  0  0
  -25.8170  -16.3170   20.5370 H   0  0  0  0  0  0  0  0  0  0  0  0
  -27.3170  -15.9750   19.8380 H   0  0  0  0  0  0  0  0  0  0  0  0
  -33.1930  -18.0330   18.4000 C   0  0  0  0  0  1  0  0  0  0  0  0
  -32.7190  -17.6420   19.8120 C   0  0  0  0  0  2  0  0  0  0  0  0
  3  6  1  0
  3  1  1  0
  4  2  1  0
  4  6  1  0
  5  2  1  0
  5 12  1  0
  5  1  1  0
  6 55  1  6
  6  7  1  0
  7  8  1  0
  7  9  2  0
  8 11  1  0
 10  8  1  0
 13 14  1  0
 13 12  1  0
 14 16  1  0
 15 26  2  0
 16 21  1  0
 17 25  1  0
 17 27  1  0
 18 24  1  0
 18 20  1  0
 19 25  1  0
 20 19  1  0
 21 20  2  0
 22 23  1  0
 22 16  2  0
 23 18  2  0
 24 17  1  0
 25 15  1  0
 27 29  2  0
 28 27  1  0
 30 28  1  0
 31 40  2  0
 31 36  1  0
 32 28  1  0
 32 36  1  0
 33 32  1  0
 34 35  1  0
 34 33  1  0
 35 31  1  0
 36 37  2  0
 37 38  1  0
 39 38  2  0
 40 39  1  0
 41 15  1  0
 41 42  1  0
 41 51  1  0
 42 45  1  0
 43 47  1  0
 43 42  1  0
 44 43  2  0
 47 46  1  0
 49 47  1  0
 49 50  1  0
 49 48  1  0
 51 54  1  1
 51 52  1  0
 53 51  1  0
 55 56  1  0
 57 63  1  0
 57 65  1  0
 58 63  1  0
 59 60  1  0
 59 58  1  0
 61 60  1  0
 61 70  1  0
 61 62  1  0
 63 62  1  0
 64 57  2  0
 65 56  2  0
 65 66  1  0
 67 68  2  0
 68 87  1  0
 69 72  1  0
 69 68  1  0
 70 71  1  0
 70 67  1  0
 71 69  2  0
 72 73  1  0
 73 74  2  0
 75 78  1  0
 75 74  1  0
 76 75  2  0
 77 76  1  0
 77 72  2  0
 78 79  1  0
 79 80  1  0
 80 81  2  0
 82 81  1  0
 82 86  1  0
 83 82  2  0
 84 79  2  0
 84 83  1  0
 85 84  1  0
 87 88  1  0
 88 90  1  0
 88 91  1  0
 89 87  2  0
 92 67  1  0
 92 93  1  0
 94 92  1  0
 95 96  1  0
 96 56  1  0
M  ISO  4  13 101  14 101  57 100  65 100
M  END
>  <TORSDO>  (74) 
F 22

>  <SCORE>  (74) 
-10.643

>  <name>  (74) 
73

>  <ligand_id>  (74) 
73

>  <original_smiles>  (74) 
[H]c1c([H])c([H])c2c(c1[H])C([H])([H])C([H])([H])C([H])([H])C2([H])N([H])C(=O)C1([H])N(C(=O)C([H])(N([H])C(=O)C([H])(N([H])C([H])([H])[H])C([H])([H])[H])C(C([H])([H])[H])(C([H])([H])[H])C([H])([H])[H])C([H])([H])c2c([H])c(OC([H])([H])C([H])([H])C3([H])C([H])([H])C([H])([H])C(C(=O)N([H])[H])(C([H])([H])C([H])(N([H])C(=O)N4C([H])([H])C([H])([H])C([H])([H])C([H])(n5nc(-c6c([H])c([H])c(Oc7c([H])c([H])c(F)c([H])c7F)c([H])c6[H])c(C(=O)N([H])[H])c5N([H])[H])C4([H])[H])C([H])([H])C([H])([H])[H])C([H])([H])C3([H])[H])c([H])c([H])c2C1([H])[H]

>  <smiles>  (74) 
[H]c1c([H])c([H])c2c(c1[H])C([H])([H])C([H])([H])C([H])([H])C2([H])N([H])C(=O)C1([H])N(C(=O)C([H])(N([H])C(=O)C([H])(N([H])C([H])([H])[H])C([H])([H])[H])C(C([H])([H])[H])(C([H])([H])[H])C([H])([H])[H])C([H])([H])c2c([H])c(OC([H])([H])C([H])([H])C3([H])C([H])([H])C([H])([H])C(C(=O)N([H])[H])(C([H])([H])C([H])(N([H])C(=O)N4C([H])([H])C([H])([H])C([H])([H])C([H])(n5nc(-c6c([H])c([H])c(Oc7c([H])c([H])c(F)c([H])c7F)c([H])c6[H])c(C(=O)N([H])[H])c5N([H])[H])C4([H])[H])C([H])([H])C([H])([H])[H])C([H])([H])C3([H])[H])c([H])c([H])c2C1([H])[H]

$$$$
74:0:0
     RDKit          3D

 92101  0  0  1  0  0  0  0  0999 V2000
  -30.6740  -15.1590   20.1890 C   0  0  0  0  0  0  0  0  0  0  0  0
  -30.4820  -12.7500   19.3120 C   0  0  0  0  0  2  0  0  0  0  0  0
  -29.5470  -12.5430   18.1000 C   0  0  0  0  0  2  0  0  0  0  0  0
  -28.0900  -12.3320   18.5540 C   0  0  0  0  0  2  0  0  0  0  0  0
  -27.6720  -13.3230   19.6720 C   0  0  0  0  0  3  0  0  0  0  0  0
  -28.7540  -13.4260   20.7750 C   0  0  0  0  0  2  0  0  0  0  0  0
  -29.9720  -13.9260   20.1060 N   0  0  0  0  0  0  0  0  0  0  0  0
  -31.8880  -15.0170   19.9980 O   0  0  0  0  0  0  0  0  0  0  0  0
  -30.6360  -20.6240   19.5760 C   0  0  0  0  0  2  0  0  0  0  0  0
  -28.3720  -20.3370   20.2710 C   0  0  0  0  0  2  0  0  0  0  0  0
  -31.0610  -17.7260   19.6580 C   0  0  0  0  0  2  0  0  0  0  0  0
  -30.2620  -19.0790   19.2410 C   0  0  0  0  0  3  0  0  0  0  0  0
  -28.9110  -18.8630   19.8070 C   0  0  0  0  0  3  0  0  0  0  0  0
  -29.4050  -21.5620   20.0670 C   0  0  0  0  0  3  0  0  0  0  0  0
  -29.0860  -17.4800   20.6670 C   0  0  0  0  0  3  0  0  0  0  0  0
  -30.1640  -16.5440   20.0610 N   0  0  0  0  0  0  0  0  0  0  0  0
  -25.2800  -13.9130   20.3800 C   0  0  0  0  0  0  0  0  0  0  0  0
  -24.2240  -13.1620   20.7940 C   0  0  0  0  0  0  0  0  0  0  0  0
  -24.6840  -11.8120   20.7960 C   0  0  0  0  0  0  0  0  0  0  0  0
  -26.3360  -13.0380   20.1860 N   0  0  0  0  0  0  0  0  0  0  0  0
  -25.9790  -11.7620   20.4930 N   0  0  0  0  0  0  0  0  0  0  0  0
  -23.9400  -10.5670   21.0010 C   0  0  0  0  0  0  0  0  0  0  0  0
  -24.3700   -9.6000   21.9350 C   0  0  0  0  0  3  0  0  0  0  0  0
  -23.6210   -8.4200   22.1350 C   0  0  0  0  0  3  0  0  0  0  0  0
  -22.4300   -8.2020   21.4030 C   0  0  0  0  0  0  0  0  0  0  0  0
  -22.0190   -9.1590   20.4570 C   0  0  0  0  0  3  0  0  0  0  0  0
  -22.7690  -10.3290   20.2540 C   0  0  0  0  0  3  0  0  0  0  0  0
  -21.6520   -7.0760   21.5160 O   0  0  0  0  0  0  0  0  0  0  0  0
  -21.6200   -6.3390   22.6720 C   0  0  0  0  0  0  0  0  0  0  0  0
  -21.2120   -6.8980   23.9020 C   0  0  0  0  0  3  0  0  0  0  0  0
  -21.1290   -6.0860   25.0510 C   0  0  0  0  0  3  0  0  0  0  0  0
  -21.4420   -4.7160   24.9710 C   0  0  0  0  0  0  0  0  0  0  0  0
  -21.8450   -4.1570   23.7450 C   0  0  0  0  0  3  0  0  0  0  0  0
  -21.9310   -4.9660   22.5980 C   0  0  0  0  0  0  0  0  0  0  0  0
  -22.2980   -4.4170   21.4150 F   0  0  0  0  0  0  0  0  0  0  0  0
  -21.3560   -3.9340   26.0710 F   0  0  0  0  0  0  0  0  0  0  0  0
  -22.8330  -13.6670   21.0410 C   0  0  0  0  0  0  0  0  0  0  0  0
  -22.1010  -13.0270   21.9430 N   0  0  0  0  0  0  0  0  0  0  0  0
  -22.4150  -14.6750   20.4700 O   0  0  0  0  0  0  0  0  0  0  0  0
  -22.4590  -12.2180   22.4280 H   0  0  0  0  0  0  0  0  0  0  0  0
  -21.1680  -13.3540   22.1530 H   0  0  0  0  0  0  0  0  0  0  0  0
  -25.3740  -15.2650   20.0970 N   0  0  0  0  0  0  0  0  0  0  0  0
  -24.4350  -15.6380   19.9910 H   0  0  0  0  0  0  0  0  0  0  0  0
  -25.8890  -15.4100   19.2360 H   0  0  0  0  0  0  0  0  0  0  0  0
  -29.1120  -23.1360   19.3720 C   0  0  0  0  0  2  0  0  0  0  0  0
  -28.2120  -24.5280   19.8770 C   0  0  0  0  0  2  0  0  0  0  0  0
  -28.3230  -26.0630   19.4560 O   0  0  0  0  0  0  0  0  0  0  0  0
  -24.6620  -31.5190   22.9900 C   0  0  0  0  0  0  0  0  0  0  0  0
  -27.2540  -27.0540   19.5490 C   0  0  0  0  0  0  0  0  0  0  0  0
  -23.4680  -30.2780   21.2270 C   0  0  0  0  0  3  0  0  0  0  0  0
  -24.9220  -28.8270   19.6710 C   0  0  0  0  0  0  0  0  0  0  0  0
  -26.0260  -30.5460   21.0930 C   0  0  0  0  0  2  0  0  0  0  0  0
  -26.1040  -29.2100   20.3180 C   0  0  0  0  0  0  0  0  0  0  0  0
  -27.2700  -28.3470   20.2320 C   0  0  0  0  0  3  0  0  0  0  0  0
  -26.0410  -26.7850   18.8770 C   0  0  0  0  0  3  0  0  0  0  0  0
  -24.9070  -27.6320   18.9340 C   0  0  0  0  0  3  0  0  0  0  0  0
  -23.6960  -29.7230   19.7940 C   0  0  0  0  0  2  0  0  0  0  0  0
  -24.7390  -30.8000   21.8260 N   0  0  0  0  0  0  0  0  0  0  0  0
  -23.5720  -31.7530   23.5370 O   0  0  0  0  0  0  0  0  0  0  0  0
  -22.7850  -29.1900   22.0950 C   0  0  0  0  0  0  0  0  0  0  0  0
  -21.4540  -29.0430   21.9630 N   0  0  0  0  0  0  0  0  0  0  0  0
  -23.4560  -28.4830   22.8500 O   0  0  0  0  0  0  0  0  0  0  0  0
  -20.9670  -29.6680   21.3350 H   0  0  0  0  0  0  0  0  0  0  0  0
  -18.0620  -27.8460   22.4130 C   0  0  0  0  0  0  0  0  0  0  0  0
  -20.6310  -28.0400   22.6450 C   0  0  0  0  0  3  0  0  0  0  0  0
  -20.6930  -26.6780   21.9140 C   0  0  0  0  0  2  0  0  0  0  0  0
  -19.5640  -26.4860   20.8970 C   0  0  0  0  0  2  0  0  0  0  0  0
  -18.2000  -26.5800   21.5860 C   0  0  0  0  0  2  0  0  0  0  0  0
  -19.2030  -28.5410   22.8960 C   0  0  0  0  0  0  0  0  0  0  0  0
  -19.0170  -29.7300   23.6340 C   0  0  0  0  0  3  0  0  0  0  0  0
  -17.7250  -30.2260   23.8910 C   0  0  0  0  0  3  0  0  0  0  0  0
  -16.5990  -29.5280   23.4210 C   0  0  0  0  0  3  0  0  0  0  0  0
  -16.7680  -28.3400   22.6880 C   0  0  0  0  0  3  0  0  0  0  0  0
  -25.9350  -32.0990   23.6770 C   0  0  0  0  0  3  0  0  0  0  0  0
  -26.4680  -31.1950   24.8570 C   0  0  1  0  0  0  0  0  0  0  0  0
  -25.3870  -30.8340   25.9030 C   0  0  0  0  0  1  0  0  0  0  0  0
  -27.0560  -29.8710   24.3140 C   0  0  0  0  0  1  0  0  0  0  0  0
  -27.6210  -31.9200   25.5900 C   0  0  0  0  0  1  0  0  0  0  0  0
  -25.6050  -33.4450   24.1750 N   0  0  0  0  0  0  0  0  0  0  0  0
  -25.9250  -34.5900   23.5610 C   0  0  0  0  0  0  0  0  0  0  0  0
  -26.5960  -34.6260   22.5250 O   0  0  0  0  0  0  0  0  0  0  0  0
  -25.0080  -33.4900   24.9890 H   0  0  0  0  0  0  0  0  0  0  0  0
  -24.1870  -36.4070   23.4330 C   0  0  0  0  0  1  0  0  0  0  0  0
  -25.4270  -35.9060   24.1920 C   0  0  0  0  0  3  0  0  0  0  0  0
  -27.5450  -36.6970   25.1500 C   0  0  0  0  0  1  0  0  0  0  0  0
  -26.4520  -36.9730   24.2220 N   0  0  0  0  0  0  0  0  0  0  0  0
  -26.0370  -37.8650   24.4760 H   0  0  0  0  0  0  0  0  0  0  0  0
  -27.7400  -16.8040   20.8170 C   0  0  0  0  0  2  0  0  0  0  0  0
  -26.6100  -17.7320   20.9840 N   0  0  0  0  0  4  0  0  0  0  0  0
  -26.6770  -18.2460   21.8450 H   0  0  0  0  0  0  0  0  0  0  0  0
  -25.7710  -17.1720   21.0090 H   0  0  0  0  0  0  0  0  0  0  0  0
  -26.5370  -18.3680   20.2120 H   0  0  0  0  0  0  0  0  0  0  0  0
  2  7  1  0
  3  4  1  0
  3  2  1  0
  5  4  1  0
  5 20  1  0
  5  6  1  0
  7  1  1  0
  7  6  1  0
  8  1  2  0
  9 14  1  0
 11 16  1  0
 12  9  1  0
 12 11  1  0
 12 13  1  0
 13 10  1  0
 13 15  1  0
 14 45  1  0
 14 10  1  0
 15 88  1  0
 16  1  1  0
 16 15  1  0
 17 18  2  0
 18 19  1  0
 18 37  1  0
 19 22  1  0
 20 17  1  0
 20 21  1  0
 21 19  2  0
 22 23  1  0
 23 24  2  0
 25 28  1  0
 25 24  1  0
 26 25  2  0
 27 26  1  0
 27 22  2  0
 28 29  1  0
 29 30  1  0
 30 31  2  0
 32 31  1  0
 32 36  1  0
 33 32  2  0
 34 29  2  0
 34 33  1  0
 35 34  1  0
 37 38  1  0
 38 41  1  0
 38 40  1  0
 39 37  2  0
 42 17  1  0
 43 42  1  0
 44 42  1  0
 45 46  1  0
 47 49  1  0
 47 46  1  0
 48 59  2  0
 49 54  1  0
 50 58  1  0
 50 60  1  0
 51 57  1  0
 51 53  1  0
 52 58  1  0
 53 52  1  0
 54 53  2  0
 55 56  1  0
 55 49  2  0
 56 51  2  0
 57 50  1  0
 58 48  1  0
 60 62  2  0
 61 60  1  0
 63 61  1  0
 64 73  2  0
 64 69  1  0
 65 61  1  0
 65 69  1  0
 66 65  1  0
 67 68  1  0
 67 66  1  0
 68 64  1  0
 69 70  2  0
 70 71  1  0
 72 71  2  0
 73 72  1  0
 74 48  1  0
 74 79  1  0
 74 75  1  0
 75 78  1  1
 75 76  1  0
 77 75  1  0
 79 82  1  0
 80 79  1  0
 80 84  1  0
 81 80  2  0
 84 83  1  0
 84 86  1  0
 86 87  1  0
 86 85  1  0
 88 89  1  0
 89 91  1  0
 89 90  1  0
 92 89  1  0
M  ISO  4   1 100  16 100  46 101  47 101
M  END
>  <TORSDO>  (75) 
F 19

>  <SCORE>  (75) 
-13.506

>  <name>  (75) 
74

>  <ligand_id>  (75) 
74

>  <original_smiles>  (75) 
[H]c1c([H])c([H])c2c(c1[H])C([H])([H])C([H])([H])C([H])([H])C2([H])N([H])C(=O)C1([H])N(C(=O)C([H])(N([H])C(=O)C([H])(N([H])C([H])([H])[H])C([H])([H])[H])C(C([H])([H])[H])(C([H])([H])[H])C([H])([H])[H])C([H])([H])c2c([H])c(OC([H])([H])C([H])([H])C3([H])C([H])([H])C4([H])C([H])([H])N(C(=O)N5C([H])([H])C([H])([H])C([H])([H])C([H])(n6nc(-c7c([H])c([H])c(Oc8c([H])c([H])c(F)c([H])c8F)c([H])c7[H])c(C(=O)N([H])[H])c6N([H])[H])C5([H])[H])C([H])(C([H])([H])[N+]([H])([H])[H])C4([H])C3([H])[H])c([H])c([H])c2C1([H])[H]

>  <smiles>  (75) 
[H]c1c([H])c([H])c2c(c1[H])C([H])([H])C([H])([H])C([H])([H])C2([H])N([H])C(=O)C1([H])N(C(=O)C([H])(N([H])C(=O)C([H])(N([H])C([H])([H])[H])C([H])([H])[H])C(C([H])([H])[H])(C([H])([H])[H])C([H])([H])[H])C([H])([H])c2c([H])c(OC([H])([H])C([H])([H])C3([H])C([H])([H])C4([H])C([H])([H])N(C(=O)N5C([H])([H])C([H])([H])C([H])([H])C([H])(n6nc(-c7c([H])c([H])c(Oc8c([H])c([H])c(F)c([H])c8F)c([H])c7[H])c(C(=O)N([H])[H])c6N([H])[H])C5([H])[H])C([H])(C([H])([H])[N+]([H])([H])[H])C4([H])C3([H])[H])c([H])c([H])c2C1([H])[H]

$$$$
75:0:0
     RDKit          3D

 91100  0  0  1  0  0  0  0  0999 V2000
  -28.9880  -21.1650   20.0910 C   0  0  0  0  0  0  0  0  0  0  0  0
  -29.2800  -22.5090   19.9480 N   0  0  0  0  0  0  0  0  0  0  0  0
  -27.8390  -20.8110   20.3530 O   0  0  0  0  0  0  0  0  0  0  0  0
  -30.2350  -22.7060   19.6800 H   0  0  0  0  0  0  0  0  0  0  0  0
  -31.1010  -20.2650   21.1600 C   0  0  0  0  0  2  0  0  0  0  0  0
  -29.4640  -18.3100   21.9360 C   0  0  0  0  0  2  0  0  0  0  0  0
  -30.1330  -20.0440   19.9850 C   0  0  0  0  0  3  0  0  0  0  0  0
  -30.8420  -18.8770   21.7060 C   0  0  0  0  0  3  0  0  0  0  0  0
  -29.9620  -18.5410   20.5220 C   0  0  2  0  0  0  0  0  0  0  0  0
  -30.4650  -17.3080   19.6470 C   0  0  0  0  0  2  0  0  0  0  0  0
  -31.0040  -14.7410   19.8260 C   0  0  0  0  0  0  0  0  0  0  0  0
  -30.7360  -12.4590   18.8640 C   0  0  0  0  0  2  0  0  0  0  0  0
  -29.7400  -12.5490   17.6850 C   0  0  0  0  0  2  0  0  0  0  0  0
  -28.2880  -12.4100   18.1860 C   0  0  0  0  0  2  0  0  0  0  0  0
  -27.9910  -13.3080   19.4170 C   0  0  0  0  0  3  0  0  0  0  0  0
  -29.1010  -13.1990   20.4870 C   0  0  0  0  0  2  0  0  0  0  0  0
  -30.3750  -13.5200   19.8320 N   0  0  0  0  0  0  0  0  0  0  0  0
  -32.1570  -14.8480   19.4010 O   0  0  0  0  0  0  0  0  0  0  0  0
  -30.2330  -15.8620   20.0760 N   0  0  0  0  0  0  0  0  0  0  0  0
  -29.3090  -15.6620   20.4250 H   0  0  0  0  0  0  0  0  0  0  0  0
  -25.6560  -13.9410   20.2710 C   0  0  0  0  0  0  0  0  0  0  0  0
  -24.5970  -13.1850   20.6940 C   0  0  0  0  0  0  0  0  0  0  0  0
  -25.0320  -11.8250   20.6310 C   0  0  0  0  0  0  0  0  0  0  0  0
  -26.6690  -13.0430   19.9750 N   0  0  0  0  0  0  0  0  0  0  0  0
  -26.3030  -11.7660   20.2540 N   0  0  0  0  0  0  0  0  0  0  0  0
  -24.2930  -10.5750   20.8530 C   0  0  0  0  0  0  0  0  0  0  0  0
  -24.6660   -9.6670   21.8680 C   0  0  0  0  0  3  0  0  0  0  0  0
  -23.9270   -8.4810   22.0740 C   0  0  0  0  0  3  0  0  0  0  0  0
  -22.8030   -8.1960   21.2660 C   0  0  0  0  0  0  0  0  0  0  0  0
  -22.4500   -9.0920   20.2400 C   0  0  0  0  0  3  0  0  0  0  0  0
  -23.1890  -10.2690   20.0330 C   0  0  0  0  0  3  0  0  0  0  0  0
  -22.0420   -7.0580   21.3760 O   0  0  0  0  0  0  0  0  0  0  0  0
  -21.7950   -6.4720   22.5920 C   0  0  0  0  0  0  0  0  0  0  0  0
  -21.1490   -7.1690   23.6360 C   0  0  0  0  0  3  0  0  0  0  0  0
  -20.8530   -6.5080   24.8460 C   0  0  0  0  0  3  0  0  0  0  0  0
  -21.1920   -5.1510   25.0090 C   0  0  0  0  0  0  0  0  0  0  0  0
  -21.8290   -4.4540   23.9670 C   0  0  0  0  0  3  0  0  0  0  0  0
  -22.1270   -5.1130   22.7610 C   0  0  0  0  0  0  0  0  0  0  0  0
  -22.7220   -4.4310   21.7530 F   0  0  0  0  0  0  0  0  0  0  0  0
  -20.9000   -4.5140   26.1660 F   0  0  0  0  0  0  0  0  0  0  0  0
  -23.2250  -13.6870   21.0410 C   0  0  0  0  0  0  0  0  0  0  0  0
  -22.5430  -13.0150   21.9630 N   0  0  0  0  0  0  0  0  0  0  0  0
  -22.7700  -14.7080   20.5310 O   0  0  0  0  0  0  0  0  0  0  0  0
  -22.9260  -12.1890   22.3980 H   0  0  0  0  0  0  0  0  0  0  0  0
  -21.6240  -13.3340   22.2390 H   0  0  0  0  0  0  0  0  0  0  0  0
  -25.8340  -15.3090   20.0900 N   0  0  0  0  0  0  0  0  0  0  0  0
  -25.0820  -15.9740   20.2400 H   0  0  0  0  0  0  0  0  0  0  0  0
  -26.6600  -15.7350   19.6870 H   0  0  0  0  0  0  0  0  0  0  0  0
  -28.4780  -23.7360   20.3810 C   0  0  0  0  0  2  0  0  0  0  0  0
  -28.5540  -25.0880   19.5100 C   0  0  0  0  0  2  0  0  0  0  0  0
  -28.4080  -26.4500   20.1070 O   0  0  0  0  0  0  0  0  0  0  0  0
  -24.5960  -31.7620   23.1560 C   0  0  0  0  0  0  0  0  0  0  0  0
  -27.2580  -27.2560   20.0390 C   0  0  0  0  0  0  0  0  0  0  0  0
  -23.4090  -30.3780   21.4900 C   0  0  0  0  0  3  0  0  0  0  0  0
  -24.8760  -28.8540   20.0430 C   0  0  0  0  0  0  0  0  0  0  0  0
  -25.9440  -30.7180   21.3180 C   0  0  0  0  0  2  0  0  0  0  0  0
  -26.0360  -29.3470   20.6510 C   0  0  0  0  0  0  0  0  0  0  0  0
  -27.2250  -28.5580   20.6380 C   0  0  0  0  0  3  0  0  0  0  0  0
  -26.0720  -26.8140   19.4140 C   0  0  0  0  0  3  0  0  0  0  0  0
  -24.8970  -27.5960   19.4170 C   0  0  0  0  0  3  0  0  0  0  0  0
  -23.6320  -29.7190   20.1010 C   0  0  0  0  0  2  0  0  0  0  0  0
  -24.6680  -30.9710   22.0450 N   0  0  0  0  0  0  0  0  0  0  0  0
  -23.5090  -32.0230   23.6920 O   0  0  0  0  0  0  0  0  0  0  0  0
  -22.7510  -29.3450   22.4350 C   0  0  0  0  0  0  0  0  0  0  0  0
  -21.4300  -29.1430   22.2870 N   0  0  0  0  0  0  0  0  0  0  0  0
  -23.4290  -28.7260   23.2600 O   0  0  0  0  0  0  0  0  0  0  0  0
  -20.9420  -29.6960   21.5980 H   0  0  0  0  0  0  0  0  0  0  0  0
  -18.0740  -27.8630   22.7120 C   0  0  0  0  0  0  0  0  0  0  0  0
  -20.6190  -28.1850   23.0400 C   0  0  0  0  0  3  0  0  0  0  0  0
  -20.7680  -26.7570   22.4640 C   0  0  0  0  0  2  0  0  0  0  0  0
  -19.6980  -26.4090   21.4250 C   0  0  0  0  0  2  0  0  0  0  0  0
  -18.2990  -26.5190   22.0380 C   0  0  0  0  0  2  0  0  0  0  0  0
  -19.1630  -28.6510   23.1670 C   0  0  0  0  0  0  0  0  0  0  0  0
  -18.9000  -29.9080   23.7560 C   0  0  0  0  0  3  0  0  0  0  0  0
  -17.5790  -30.3740   23.8940 C   0  0  0  0  0  3  0  0  0  0  0  0
  -16.5040  -29.5830   23.4550 C   0  0  0  0  0  3  0  0  0  0  0  0
  -16.7530  -28.3290   22.8690 C   0  0  0  0  0  3  0  0  0  0  0  0
  -25.8710  -32.3970   23.7930 C   0  0  0  0  0  3  0  0  0  0  0  0
  -26.3920  -31.6100   25.0570 C   0  0  1  0  0  0  0  0  0  0  0  0
  -25.2980  -31.3360   26.1150 C   0  0  0  0  0  1  0  0  0  0  0  0
  -26.9950  -30.2470   24.6420 C   0  0  0  0  0  1  0  0  0  0  0  0
  -27.5300  -32.4060   25.7390 C   0  0  0  0  0  1  0  0  0  0  0  0
  -25.5470  -33.7870   24.1490 N   0  0  0  0  0  0  0  0  0  0  0  0
  -25.8640  -34.8570   23.4090 C   0  0  0  0  0  0  0  0  0  0  0  0
  -26.5290  -34.7810   22.3720 O   0  0  0  0  0  0  0  0  0  0  0  0
  -24.9560  -33.9180   24.9560 H   0  0  0  0  0  0  0  0  0  0  0  0
  -24.1120  -36.6370   23.1020 C   0  0  0  0  0  1  0  0  0  0  0  0
  -25.3640  -36.2320   23.8960 C   0  0  0  0  0  3  0  0  0  0  0  0
  -27.4910  -37.1310   24.7320 C   0  0  0  0  0  1  0  0  0  0  0  0
  -26.3840  -37.2990   23.7930 N   0  0  0  0  0  0  0  0  0  0  0  0
  -25.9670  -38.2120   23.9560 H   0  0  0  0  0  0  0  0  0  0  0  0
  1  3  2  0
  2  1  1  0
  2 49  1  0
  4  2  1  0
  7  1  1  0
  7  9  1  0
  7  5  1  0
  8  5  1  0
  8  6  1  0
  9 10  1  6
  9  8  1  0
  9  6  1  0
 10 19  1  0
 11 17  1  0
 11 19  1  0
 12 17  1  0
 13 14  1  0
 13 12  1  0
 15 14  1  0
 15 24  1  0
 15 16  1  0
 17 16  1  0
 18 11  2  0
 19 20  1  0
 21 22  2  0
 22 41  1  0
 23 22  1  0
 23 26  1  0
 24 25  1  0
 24 21  1  0
 25 23  2  0
 26 27  1  0
 27 28  2  0
 29 32  1  0
 29 28  1  0
 30 29  2  0
 31 30  1  0
 31 26  2  0
 32 33  1  0
 33 38  2  0
 33 34  1  0
 34 35  2  0
 35 36  1  0
 36 40  1  0
 37 36  2  0
 38 37  1  0
 39 38  1  0
 41 42  1  0
 42 45  1  0
 42 44  1  0
 43 41  2  0
 46 47  1  0
 46 21  1  0
 48 46  1  0
 50 51  1  0
 50 49  1  0
 52 63  2  0
 53 51  1  0
 53 58  1  0
 54 62  1  0
 54 64  1  0
 55 61  1  0
 55 57  1  0
 56 62  1  0
 57 56  1  0
 58 57  2  0
 59 60  1  0
 59 53  2  0
 60 55  2  0
 61 54  1  0
 62 52  1  0
 64 66  2  0
 65 64  1  0
 67 65  1  0
 68 77  2  0
 68 73  1  0
 69 65  1  0
 69 73  1  0
 70 69  1  0
 71 72  1  0
 71 70  1  0
 72 68  1  0
 73 74  2  0
 74 75  1  0
 76 75  2  0
 77 76  1  0
 78 52  1  0
 78 83  1  0
 78 79  1  0
 79 82  1  1
 79 80  1  0
 81 79  1  0
 83 86  1  0
 84 88  1  0
 84 83  1  0
 85 84  2  0
 88 87  1  0
 90 88  1  0
 90 91  1  0
 90 89  1  0
M  ISO  4  11 100  19 100  50 101  51 101
M  END
>  <TORSDO>  (76) 
F 20

>  <SCORE>  (76) 
-12.203

>  <name>  (76) 
75

>  <ligand_id>  (76) 
75

>  <original_smiles>  (76) 
[H]c1c([H])c([H])c2c(c1[H])C([H])([H])C([H])([H])C([H])([H])C2([H])N([H])C(=O)C1([H])N(C(=O)C([H])(N([H])C(=O)C([H])(N([H])C([H])([H])[H])C([H])([H])[H])C(C([H])([H])[H])(C([H])([H])[H])C([H])([H])[H])C([H])([H])c2c([H])c(OC([H])([H])C([H])([H])N([H])C(=O)C3([H])C([H])([H])C4([H])C([H])([H])C34C([H])([H])N([H])C(=O)N3C([H])([H])C([H])([H])C([H])([H])C([H])(n4nc(-c5c([H])c([H])c(Oc6c([H])c([H])c(F)c([H])c6F)c([H])c5[H])c(C(=O)N([H])[H])c4N([H])[H])C3([H])[H])c([H])c([H])c2C1([H])[H]

>  <smiles>  (76) 
[H]c1c([H])c([H])c2c(c1[H])C([H])([H])C([H])([H])C([H])([H])C2([H])N([H])C(=O)C1([H])N(C(=O)C([H])(N([H])C(=O)C([H])(N([H])C([H])([H])[H])C([H])([H])[H])C(C([H])([H])[H])(C([H])([H])[H])C([H])([H])[H])C([H])([H])c2c([H])c(OC([H])([H])C([H])([H])N([H])C(=O)C3([H])C([H])([H])C4([H])C([H])([H])C34C([H])([H])N([H])C(=O)N3C([H])([H])C([H])([H])C([H])([H])C([H])(n4nc(-c5c([H])c([H])c(Oc6c([H])c([H])c(F)c([H])c6F)c([H])c5[H])c(C(=O)N([H])[H])c4N([H])[H])C3([H])[H])c([H])c([H])c2C1([H])[H]

$$$$
76:0:0
     RDKit          3D

 92 98  0  0  1  0  0  0  0  0999 V2000
  -27.7810  -17.5720   17.8530 C   0  0  0  0  0  2  0  0  0  0  0  0
  -29.0630  -17.1150   17.1580 C   0  0  0  0  0  2  0  0  0  0  0  0
  -28.4020  -15.5470   19.1530 C   0  0  0  0  0  2  0  0  0  0  0  0
  -29.9390  -14.9190   19.0380 C   0  0  0  0  0  2  0  0  0  0  0  0
  -28.2120  -17.2030   19.2750 C   0  0  0  0  0  3  0  0  0  0  0  0
  -29.9570  -16.7400   18.4000 C   0  0  0  0  0  3  0  0  0  0  0  0
  -29.5440  -17.9160   19.4510 N   0  0  1  0  0  4  0  0  0  0  0  0
  -29.9640  -17.6480   20.3310 H   0  0  0  0  0  0  0  0  0  0  0  0
  -31.7610  -14.2030   21.2890 C   0  0  0  0  0  1  0  0  0  0  0  0
  -33.0980  -13.1920   20.4420 C   0  0  0  0  0  0  0  0  0  0  0  0
  -32.6600  -14.3710   18.8080 C   0  0  0  0  0  2  0  0  0  0  0  0
  -32.2480  -15.8700   19.8300 C   0  0  0  0  0  1  0  0  0  0  0  0
  -30.2910  -15.8080   20.9220 C   0  0  0  0  0 15  0  0  0  0  0  0
  -29.5270  -13.9710   20.7360 C   0  0  0  0  0  2  0  0  0  0  0  0
  -30.5270  -12.7700   19.8320 C   0  0  0  0  0  2  0  0  0  0  0  0
  -32.1630  -13.0650   19.4170 N   0  0  0  0  0  0  0  0  0  0  0  0
  -34.2170  -13.7880   20.5270 O   0  0  0  0  0  0  0  0  0  0  0  0
  -32.4450  -12.9710   21.5060 N   0  0  0  0  0  0  0  0  0  0  0  0
  -32.9430  -12.9240   22.3770 H   0  0  0  0  0  0  0  0  0  0  0  0
  -27.1920  -14.5020   21.0940 C   0  0  0  0  0  0  0  0  0  0  0  0
  -26.1250  -13.7200   21.3280 C   0  0  0  0  0  0  0  0  0  0  0  0
  -26.5160  -12.3740   21.0710 C   0  0  0  0  0  0  0  0  0  0  0  0
  -28.1680  -13.6450   20.7170 N   0  0  0  0  0  0  0  0  0  0  0  0
  -27.7900  -12.3390   20.7140 N   0  0  0  0  0  0  0  0  0  0  0  0
  -25.7380  -11.1390   21.1090 C   0  0  0  0  0  0  0  0  0  0  0  0
  -25.9710  -10.1080   22.0490 C   0  0  0  0  0  3  0  0  0  0  0  0
  -25.1400   -8.9630   22.0640 C   0  0  0  0  0  3  0  0  0  0  0  0
  -24.0670   -8.8540   21.1490 C   0  0  0  0  0  0  0  0  0  0  0  0
  -23.8670   -9.8720   20.2000 C   0  0  0  0  0  3  0  0  0  0  0  0
  -24.6970  -11.0000   20.1800 C   0  0  0  0  0  3  0  0  0  0  0  0
  -23.2220   -7.7770   21.0800 O   0  0  0  0  0  0  0  0  0  0  0  0
  -22.6940   -7.1990   22.2070 C   0  0  0  0  0  0  0  0  0  0  0  0
  -21.8820   -7.9210   23.1110 C   0  0  0  0  0  3  0  0  0  0  0  0
  -21.3160   -7.2670   24.2250 C   0  0  0  0  0  3  0  0  0  0  0  0
  -21.5590   -5.8970   24.4300 C   0  0  0  0  0  0  0  0  0  0  0  0
  -22.3560   -5.1730   23.5290 C   0  0  0  0  0  3  0  0  0  0  0  0
  -22.9290   -5.8260   22.4210 C   0  0  0  0  0  0  0  0  0  0  0  0
  -23.6890   -5.1300   21.5430 F   0  0  0  0  0  0  0  0  0  0  0  0
  -21.0010   -5.2600   25.4890 F   0  0  0  0  0  0  0  0  0  0  0  0
  -24.8070  -14.2550   21.7500 C   0  0  0  0  0  0  0  0  0  0  0  0
  -24.1070  -13.5110   22.6010 N   0  0  0  0  0  0  0  0  0  0  0  0
  -24.4330  -15.3740   21.3970 O   0  0  0  0  0  0  0  0  0  0  0  0
  -24.4330  -12.6060   22.8970 H   0  0  0  0  0  0  0  0  0  0  0  0
  -23.2240  -13.8280   22.9750 H   0  0  0  0  0  0  0  0  0  0  0  0
  -27.4220  -15.8550   21.2650 N   0  0  0  0  0  0  0  0  0  0  0  0
  -26.6670  -16.3240   21.7400 H   0  0  0  0  0  0  0  0  0  0  0  0
  -28.3420  -16.1100   21.6230 H   0  0  0  0  0  0  0  0  0  0  0  0
  -29.6100  -19.6410   19.4700 C   0  0  0  0  0  3  0  0  0  0  0  0
  -29.9900  -20.9710   20.7430 C   0  0  0  0  0  3  0  0  0  0  0  0
  -30.1990  -22.8430   20.7890 C   0  0  0  0  0  3  0  0  0  0  0  0
  -30.2730  -24.2100   22.0680 C   0  0  0  0  0  3  0  0  0  0  0  0
  -30.6960  -25.8490   22.2970 O   0  0  0  0  0  0  0  0  0  0  0  0
  -26.9850  -31.4440   26.2040 C   0  0  0  0  0  0  0  0  0  0  0  0
  -29.8260  -27.0530   22.5370 C   0  0  0  0  0  0  0  0  0  0  0  0
  -26.1020  -30.5150   24.1200 C   0  0  0  0  0  3  0  0  0  0  0  0
  -27.7160  -29.1380   22.6570 C   0  0  0  0  0  0  0  0  0  0  0  0
  -28.6600  -30.4970   24.4990 C   0  0  0  0  0  2  0  0  0  0  0  0
  -28.7930  -29.2540   23.5450 C   0  0  0  0  0  0  0  0  0  0  0  0
  -29.8590  -28.2290   23.4730 C   0  0  0  0  0  3  0  0  0  0  0  0
  -28.7250  -27.1130   21.6800 C   0  0  0  0  0  3  0  0  0  0  0  0
  -27.7130  -28.0890   21.7310 C   0  0  0  0  0  3  0  0  0  0  0  0
  -26.5760  -30.1520   22.6950 C   0  0  0  0  0  2  0  0  0  0  0  0
  -27.2680  -30.8290   25.0060 N   0  0  0  0  0  0  0  0  0  0  0  0
  -25.8200  -31.7040   26.5520 O   0  0  0  0  0  0  0  0  0  0  0  0
  -25.1960  -29.3870   24.6810 C   0  0  0  0  0  0  0  0  0  0  0  0
  -24.1060  -29.0500   23.9670 N   0  0  0  0  0  0  0  0  0  0  0  0
  -25.4950  -28.8200   25.7350 O   0  0  0  0  0  0  0  0  0  0  0  0
  -23.9060  -29.5720   23.1250 H   0  0  0  0  0  0  0  0  0  0  0  0
  -21.2740  -27.1370   22.7460 C   0  0  0  0  0  0  0  0  0  0  0  0
  -23.1620  -27.9800   24.3040 C   0  0  0  0  0  3  0  0  0  0  0  0
  -23.8040  -26.5870   24.1030 C   0  0  0  0  0  2  0  0  0  0  0  0
  -23.5290  -25.9870   22.7190 C   0  0  0  0  0  2  0  0  0  0  0  0
  -22.0230  -25.8400   22.4870 C   0  0  0  0  0  2  0  0  0  0  0  0
  -21.8160  -28.1460   23.5870 C   0  0  0  0  0  0  0  0  0  0  0  0
  -21.0910  -29.3450   23.7690 C   0  0  0  0  0  3  0  0  0  0  0  0
  -19.8530  -29.5430   23.1300 C   0  0  0  0  0  3  0  0  0  0  0  0
  -19.3150  -28.5360   22.3120 C   0  0  0  0  0  3  0  0  0  0  0  0
  -20.0220  -27.3360   22.1240 C   0  0  0  0  0  3  0  0  0  0  0  0
  -28.1110  -31.8560   27.1990 C   0  0  0  0  0  3  0  0  0  0  0  0
  -27.8680  -33.2510   27.6130 N   0  0  0  0  0  0  0  0  0  0  0  0
  -28.5390  -34.3160   27.1570 C   0  0  0  0  0  0  0  0  0  0  0  0
  -29.4860  -34.2200   26.3730 O   0  0  0  0  0  0  0  0  0  0  0  0
  -27.0800  -33.4090   28.2240 H   0  0  0  0  0  0  0  0  0  0  0  0
  -27.2900  -36.4200   26.5490 C   0  0  0  0  0  1  0  0  0  0  0  0
  -28.0950  -35.7110   27.6500 C   0  0  0  0  0  3  0  0  0  0  0  0
  -29.8850  -36.1140   29.2860 C   0  0  0  0  0  1  0  0  0  0  0  0
  -29.2200  -36.5760   28.0710 N   0  0  0  0  0  0  0  0  0  0  0  0
  -28.9020  -37.5290   28.2290 H   0  0  0  0  0  0  0  0  0  0  0  0
  -28.1800  -30.9270   28.4730 C   0  0  1  0  0  0  0  0  0  0  0  0
  -26.8100  -30.6780   29.1500 C   0  0  0  0  0  1  0  0  0  0  0  0
  -28.7860  -29.5530   28.1090 C   0  0  0  0  0  1  0  0  0  0  0  0
  -29.1120  -31.5590   29.5350 C   0  0  0  0  0  1  0  0  0  0  0  0
  2  1  1  0
  3  5  1  0
  4  3  1  0
  5  1  1  0
  5  7  1  0
  6  2  1  0
  6  4  1  0
  6  7  1  0
  7 48  1  0
  7  8  1  1
  9 18  1  0
 10 17  2  0
 10 18  1  0
 11 16  1  0
 11 12  1  0
 15 14  1  0
 16 15  1  0
 16 10  1  0
 18 19  1  0
 20 45  1  0
 20 21  2  0
 21 40  1  0
 22 25  1  0
 22 21  1  0
 23 14  1  0
 23 20  1  0
 24 23  1  0
 24 22  2  0
 25 26  1  0
 26 27  2  0
 28 27  1  0
 29 28  2  0
 30 29  1  0
 30 25  2  0
 31 28  1  0
 31 32  1  0
 32 37  2  0
 32 33  1  0
 33 34  2  0
 34 35  1  0
 35 39  1  0
 36 35  2  0
 37 36  1  0
 38 37  1  0
 40 41  1  0
 41 43  1  0
 41 44  1  0
 42 40  2  0
 45 47  1  0
 45 46  1  0
 48 49  2  0
 49 50  1  0
 50 51  2  0
 51 52  1  0
 52 54  1  0
 53 64  2  0
 54 59  1  0
 55 65  1  0
 55 63  1  0
 56 62  1  0
 56 58  1  0
 57 63  1  0
 58 57  1  0
 59 58  2  0
 60 61  1  0
 60 54  2  0
 61 56  2  0
 62 55  1  0
 63 53  1  0
 65 67  2  0
 66 65  1  0
 68 66  1  0
 69 74  1  0
 70 66  1  0
 71 70  1  0
 72 71  1  0
 73 72  1  0
 73 69  1  0
 74 75  2  0
 74 70  1  0
 76 75  1  0
 77 76  2  0
 78 77  1  0
 78 69  2  0
 79 53  1  0
 79 80  1  0
 79 89  1  0
 80 83  1  0
 81 80  1  0
 81 85  1  0
 82 81  2  0
 85 84  1  0
 85 87  1  0
 87 88  1  0
 87 86  1  0
 89 90  1  1
 89 92  1  0
 91 89  1  0
M  ISO  4  10 100  18 100  51 101  52 101
M  END
>  <TORSDO>  (77) 
F 21

>  <SCORE>  (77) 
-5.033

>  <name>  (77) 
76

>  <ligand_id>  (77) 
76

>  <original_smiles>  (77) 
[H]c1c([H])c([H])c2c(c1[H])C([H])([H])C([H])([H])C([H])([H])C2([H])N([H])C(=O)C1([H])N(C(=O)C([H])(N([H])C(=O)C([H])(N([H])C([H])([H])[H])C([H])([H])[H])C(C([H])([H])[H])(C([H])([H])[H])C([H])([H])[H])C([H])([H])c2c([H])c(OC([H])([H])C([H])([H])C([H])([H])C([H])([H])[N+]3([H])C4([H])C([H])([H])C([H])([H])C3([H])C([H])(C([H])([H])N([H])C(=O)N3C([H])([H])C([H])([H])C([H])([H])C([H])(n5nc(-c6c([H])c([H])c(Oc7c([H])c([H])c(F)c([H])c7F)c([H])c6[H])c(C(=O)N([H])[H])c5N([H])[H])C3([H])[H])C4([H])[H])c([H])c([H])c2C1([H])[H]

>  <smiles>  (77) 
[H]c1c([H])c([H])c2c(c1[H])C([H])([H])C([H])([H])C([H])([H])C2([H])N([H])C(=O)C1([H])N(C(=O)C([H])(N([H])C(=O)C([H])(N([H])C([H])([H])[H])C([H])([H])[H])C(C([H])([H])[H])(C([H])([H])[H])C([H])([H])[H])C([H])([H])c2c([H])c(OC([H])([H])C([H])([H])C([H])([H])C([H])([H])[N+]3([H])C4([H])C([H])([H])C([H])([H])C3([H])C([H])(C([H])([H])N([H])C(=O)N3C([H])([H])C([H])([H])C([H])([H])C([H])(n5nc(-c6c([H])c([H])c(Oc7c([H])c([H])c(F)c([H])c7F)c([H])c6[H])c(C(=O)N([H])[H])c5N([H])[H])C3([H])[H])C4([H])[H])c([H])c([H])c2C1([H])[H]

$$$$
77:0:0
     RDKit          3D

 95104  0  0  1  0  0  0  0  0999 V2000
  -33.2540  -22.0060   20.5910 C   0  0  0  0  0  2  0  0  0  0  0  0
  -32.3770  -22.9180   19.7240 C   0  0  0  0  0  2  0  0  0  0  0  0
  -32.1570  -19.7310   21.2660 C   0  0  0  0  0  2  0  0  0  0  0  0
  -32.2880  -21.2530   21.5240 C   0  0  0  0  0  3  0  0  0  0  0  0
  -30.8810  -21.8590   21.3210 C   0  0  0  0  0  3  0  0  0  0  0  0
  -31.1640  -23.2130   20.6110 C   0  0  0  0  0  3  0  0  0  0  0  0
  -30.1060  -20.6800   20.6640 C   0  0  0  0  0  3  0  0  0  0  0  0
  -30.6480  -19.4070   21.3960 C   0  0  2  0  0  0  0  0  0  0  0  0
  -28.7800  -20.8020   20.7720 F   0  0  0  0  0  0  0  0  0  0  0  0
  -31.1740  -19.3660   24.0170 C   0  0  0  0  0  1  0  0  0  0  0  0
  -30.1280  -19.3910   22.8790 C   0  0  0  0  0  2  0  0  0  0  0  0
  -30.0130  -24.0590   19.9960 C   0  0  0  0  0  2  0  0  0  0  0  0
  -30.4610  -25.5100   19.6330 C   0  0  0  0  0  2  0  0  0  0  0  0
  -29.3410  -26.4970   19.1730 C   0  0  0  0  0  2  0  0  0  0  0  0
  -28.4710  -26.7310   20.2830 O   0  0  0  0  0  0  0  0  0  0  0  0
  -24.6290  -31.8720   23.2420 C   0  0  0  0  0  0  0  0  0  0  0  0
  -27.3260  -27.4870   20.1350 C   0  0  0  0  0  0  0  0  0  0  0  0
  -23.4230  -30.4700   21.5930 C   0  0  0  0  0  3  0  0  0  0  0  0
  -24.8920  -28.9460   20.1490 C   0  0  0  0  0  0  0  0  0  0  0  0
  -25.9420  -30.8530   21.3860 C   0  0  0  0  0  2  0  0  0  0  0  0
  -26.0420  -29.4880   20.7400 C   0  0  0  0  0  0  0  0  0  0  0  0
  -27.2530  -28.7620   20.7360 C   0  0  0  0  0  3  0  0  0  0  0  0
  -26.1620  -26.9470   19.5470 C   0  0  0  0  0  3  0  0  0  0  0  0
  -24.9450  -27.6710   19.5510 C   0  0  0  0  0  3  0  0  0  0  0  0
  -23.6380  -29.7940   20.2090 C   0  0  0  0  0  2  0  0  0  0  0  0
  -24.6810  -31.0810   22.1320 N   0  0  0  0  0  0  0  0  0  0  0  0
  -23.5510  -32.1340   23.7910 O   0  0  0  0  0  0  0  0  0  0  0  0
  -22.7790  -29.4460   22.5550 C   0  0  0  0  0  0  0  0  0  0  0  0
  -21.4540  -29.2630   22.4370 N   0  0  0  0  0  0  0  0  0  0  0  0
  -23.4680  -28.8200   23.3660 O   0  0  0  0  0  0  0  0  0  0  0  0
  -20.9570  -29.8170   21.7540 H   0  0  0  0  0  0  0  0  0  0  0  0
  -18.0850  -28.0610   22.9560 C   0  0  0  0  0  0  0  0  0  0  0  0
  -20.6440  -28.3240   23.2120 C   0  0  0  0  0  3  0  0  0  0  0  0
  -20.7460  -26.8940   22.6340 C   0  0  0  0  0  2  0  0  0  0  0  0
  -19.6400  -26.5690   21.6250 C   0  0  0  0  0  2  0  0  0  0  0  0
  -18.2600  -26.7130   22.2750 C   0  0  0  0  0  2  0  0  0  0  0  0
  -19.2040  -28.8230   23.3810 C   0  0  0  0  0  0  0  0  0  0  0  0
  -18.9880  -30.0870   23.9740 C   0  0  0  0  0  3  0  0  0  0  0  0
  -17.6840  -30.5860   24.1490 C   0  0  0  0  0  3  0  0  0  0  0  0
  -16.5770  -29.8200   23.7400 C   0  0  0  0  0  3  0  0  0  0  0  0
  -16.7790  -28.5590   23.1470 C   0  0  0  0  0  3  0  0  0  0  0  0
  -25.9180  -32.5070   23.8570 C   0  0  0  0  0  3  0  0  0  0  0  0
  -25.6150  -33.9070   24.1820 N   0  0  0  0  0  0  0  0  0  0  0  0
  -25.9530  -34.9550   23.4200 C   0  0  0  0  0  0  0  0  0  0  0  0
  -26.6250  -34.8460   22.3900 O   0  0  0  0  0  0  0  0  0  0  0  0
  -25.0200  -34.0670   24.9820 H   0  0  0  0  0  0  0  0  0  0  0  0
  -24.2320  -36.7550   23.0490 C   0  0  0  0  0  1  0  0  0  0  0  0
  -25.4650  -36.3460   23.8700 C   0  0  0  0  0  3  0  0  0  0  0  0
  -27.5960  -37.2250   24.7170 C   0  0  0  0  0  1  0  0  0  0  0  0
  -26.5020  -37.3960   23.7640 N   0  0  0  0  0  0  0  0  0  0  0  0
  -26.0970  -38.3180   23.9040 H   0  0  0  0  0  0  0  0  0  0  0  0
  -26.4470  -31.7350   25.1300 C   0  0  1  0  0  0  0  0  0  0  0  0
  -25.3640  -31.4980   26.2090 C   0  0  0  0  0  1  0  0  0  0  0  0
  -27.0260  -30.3560   24.7340 C   0  0  0  0  0  1  0  0  0  0  0  0
  -27.6050  -32.5240   25.7860 C   0  0  0  0  0  1  0  0  0  0  0  0
  -30.2600  -18.0470   20.7170 C   0  0  0  0  0  2  0  0  0  0  0  0
  -30.7900  -16.7860   21.4650 C   0  0  0  0  0  2  0  0  0  0  0  0
  -30.7940  -14.4920   20.4530 C   0  0  0  0  0  0  0  0  0  0  0  0
  -30.4450  -12.3570   19.2750 C   0  0  0  0  0  2  0  0  0  0  0  0
  -29.5140  -12.6020   18.0730 C   0  0  0  0  0  2  0  0  0  0  0  0
  -28.0370  -12.4540   18.4910 C   0  0  0  0  0  2  0  0  0  0  0  0
  -27.7000  -13.2720   19.7660 C   0  0  0  0  0  3  0  0  0  0  0  0
  -28.7560  -13.0570   20.8760 C   0  0  0  0  0  2  0  0  0  0  0  0
  -30.0840  -13.3430   20.3060 N   0  0  0  0  0  0  0  0  0  0  0  0
  -31.9240  -14.6450   19.9740 O   0  0  0  0  0  0  0  0  0  0  0  0
  -30.1720  -15.5100   21.0630 N   0  0  0  0  0  0  0  0  0  0  0  0
  -29.2220  -15.3400   21.3670 H   0  0  0  0  0  0  0  0  0  0  0  0
  -25.2920  -13.8770   20.4370 C   0  0  0  0  0  0  0  0  0  0  0  0
  -24.2220  -13.1080   20.8010 C   0  0  0  0  0  0  0  0  0  0  0  0
  -24.6870  -11.7560   20.8070 C   0  0  0  0  0  0  0  0  0  0  0  0
  -26.3450  -12.9960   20.2390 N   0  0  0  0  0  0  0  0  0  0  0  0
  -25.9830  -11.7170   20.5170 N   0  0  0  0  0  0  0  0  0  0  0  0
  -23.9640  -10.4950   21.0120 C   0  0  0  0  0  0  0  0  0  0  0  0
  -24.3830   -9.5420   21.9670 C   0  0  0  0  0  3  0  0  0  0  0  0
  -23.6520   -8.3490   22.1590 C   0  0  0  0  0  3  0  0  0  0  0  0
  -22.4900   -8.0970   21.3910 C   0  0  0  0  0  0  0  0  0  0  0  0
  -22.0890   -9.0390   20.4260 C   0  0  0  0  0  3  0  0  0  0  0  0
  -22.8200  -10.2230   20.2340 C   0  0  0  0  0  3  0  0  0  0  0  0
  -21.7330   -6.9560   21.4850 O   0  0  0  0  0  0  0  0  0  0  0  0
  -21.6670   -6.2290   22.6480 C   0  0  0  0  0  0  0  0  0  0  0  0
  -21.2180   -6.8040   23.8570 C   0  0  0  0  0  3  0  0  0  0  0  0
  -21.1040   -6.0060   25.0130 C   0  0  0  0  0  3  0  0  0  0  0  0
  -21.4220   -4.6380   24.9590 C   0  0  0  0  0  0  0  0  0  0  0  0
  -21.8610   -4.0620   23.7530 C   0  0  0  0  0  3  0  0  0  0  0  0
  -21.9780   -4.8550   22.6010 C   0  0  0  0  0  0  0  0  0  0  0  0
  -22.3810   -4.2930   21.4340 F   0  0  0  0  0  0  0  0  0  0  0  0
  -21.3030   -3.8680   26.0680 F   0  0  0  0  0  0  0  0  0  0  0  0
  -22.8170  -13.5880   21.0410 C   0  0  0  0  0  0  0  0  0  0  0  0
  -22.0780  -12.9110   21.9090 N   0  0  0  0  0  0  0  0  0  0  0  0
  -22.3830  -14.6010   20.4930 O   0  0  0  0  0  0  0  0  0  0  0  0
  -22.4350  -12.0910   22.3770 H   0  0  0  0  0  0  0  0  0  0  0  0
  -21.1350  -13.2190   22.1050 H   0  0  0  0  0  0  0  0  0  0  0  0
  -25.4580  -15.2450   20.2350 N   0  0  0  0  0  0  0  0  0  0  0  0
  -24.6970  -15.9110   20.3230 H   0  0  0  0  0  0  0  0  0  0  0  0
  -26.3250  -15.6760   19.9390 H   0  0  0  0  0  0  0  0  0  0  0  0
  2  1  1  0
  2  6  1  0
  3  8  1  0
  3  4  1  0
  4  1  1  0
  5  4  1  0
  6  5  1  0
  7  9  1  0
  7  5  1  0
  7  8  1  0
  8 11  1  1
 11 10  1  0
 12  6  1  0
 13 12  1  0
 14 13  1  0
 14 15  1  0
 16 27  2  0
 16 42  1  0
 17 15  1  0
 17 22  1  0
 18 26  1  0
 18 28  1  0
 19 25  1  0
 19 21  1  0
 20 26  1  0
 21 20  1  0
 22 21  2  0
 23 24  1  0
 23 17  2  0
 24 19  2  0
 25 18  1  0
 26 16  1  0
 28 30  2  0
 29 28  1  0
 29 33  1  0
 31 29  1  0
 32 41  2  0
 32 37  1  0
 33 37  1  0
 34 33  1  0
 35 36  1  0
 35 34  1  0
 36 32  1  0
 37 38  2  0
 38 39  1  0
 40 39  2  0
 41 40  1  0
 42 43  1  0
 42 52  1  0
 43 46  1  0
 44 48  1  0
 44 43  1  0
 45 44  2  0
 47 48  1  0
 50 48  1  0
 50 51  1  0
 50 49  1  0
 52 55  1  1
 52 53  1  0
 54 52  1  0
 56  8  1  0
 56 57  1  0
 58 66  1  0
 59 64  1  0
 60 61  1  0
 60 59  1  0
 61 62  1  0
 62 71  1  0
 62 63  1  0
 64 58  1  0
 64 63  1  0
 65 58  2  0
 66 67  1  0
 66 57  1  0
 68 69  2  0
 69 70  1  0
 69 88  1  0
 70 73  1  0
 71 68  1  0
 71 72  1  0
 72 70  2  0
 73 74  1  0
 74 75  2  0
 76 79  1  0
 76 75  1  0
 77 76  2  0
 78 77  1  0
 78 73  2  0
 79 80  1  0
 80 81  1  0
 81 82  2  0
 83 82  1  0
 83 87  1  0
 84 83  2  0
 85 80  2  0
 85 84  1  0
 86 85  1  0
 88 89  1  0
 89 92  1  0
 89 91  1  0
 90 88  2  0
 93 94  1  0
 93 68  1  0
 95 93  1  0
M  ISO  4  14 101  15 101  58 100  66 100
M  END
>  <TORSDO>  (78) 
F 22

>  <SCORE>  (78) 
-12.252

>  <name>  (78) 
77

>  <ligand_id>  (78) 
77

>  <original_smiles>  (78) 
[H]c1c([H])c([H])c2c(c1[H])C([H])([H])C([H])([H])C([H])([H])C2([H])N([H])C(=O)C1([H])N(C(=O)C([H])(N([H])C(=O)C([H])(N([H])C([H])([H])[H])C([H])([H])[H])C(C([H])([H])[H])(C([H])([H])[H])C([H])([H])[H])C([H])([H])c2c([H])c(OC([H])([H])C([H])([H])C([H])([H])C3([H])C([H])([H])C([H])([H])C4([H])C([H])([H])C(C([H])([H])C([H])([H])[H])(C([H])([H])C([H])([H])N([H])C(=O)N5C([H])([H])C([H])([H])C([H])([H])C([H])(n6nc(-c7c([H])c([H])c(Oc8c([H])c([H])c(F)c([H])c8F)c([H])c7[H])c(C(=O)N([H])[H])c6N([H])[H])C5([H])[H])C([H])(F)C34[H])c([H])c([H])c2C1([H])[H]

>  <smiles>  (78) 
[H]c1c([H])c([H])c2c(c1[H])C([H])([H])C([H])([H])C([H])([H])C2([H])N([H])C(=O)C1([H])N(C(=O)C([H])(N([H])C(=O)C([H])(N([H])C([H])([H])[H])C([H])([H])[H])C(C([H])([H])[H])(C([H])([H])[H])C([H])([H])[H])C([H])([H])c2c([H])c(OC([H])([H])C([H])([H])C([H])([H])C3([H])C([H])([H])C([H])([H])C4([H])C([H])([H])C(C([H])([H])C([H])([H])[H])(C([H])([H])C([H])([H])N([H])C(=O)N5C([H])([H])C([H])([H])C([H])([H])C([H])(n6nc(-c7c([H])c([H])c(Oc8c([H])c([H])c(F)c([H])c8F)c([H])c7[H])c(C(=O)N([H])[H])c6N([H])[H])C5([H])[H])C([H])(F)C34[H])c([H])c([H])c2C1([H])[H]

$$$$
78:0:0
     RDKit          3D

 90 99  0  0  1  0  0  0  0  0999 V2000
  -30.6310  -20.8960   21.0740 C   0  0  0  0  0  2  0  0  0  0  0  0
  -28.9750  -21.2580   22.1590 C   0  0  0  0  0  2  0  0  0  0  0  0
  -28.6640  -21.6910   19.7460 C   0  0  0  0  0  2  0  0  0  0  0  0
  -29.9860  -22.2290   21.5170 C   0  0  0  0  0  3  0  0  0  0  0  0
  -29.3890  -22.9460   20.3020 C   0  0  0  0  0  3  0  0  0  0  0  0
  -29.1430  -20.6210   20.7600 C   0  0  1  0  0  0  0  0  0  0  0  0
  -28.5540  -24.2490   20.6230 C   0  0  0  0  0  2  0  0  0  0  0  0
  -28.7220  -25.4480   19.6270 C   0  0  0  0  0  2  0  0  0  0  0  0
  -28.5420  -26.7760   20.1880 O   0  0  0  0  0  0  0  0  0  0  0  0
  -24.6600  -31.9210   23.2370 C   0  0  0  0  0  0  0  0  0  0  0  0
  -27.3390  -27.4680   20.1510 C   0  0  0  0  0  0  0  0  0  0  0  0
  -23.4590  -30.5050   21.6010 C   0  0  0  0  0  3  0  0  0  0  0  0
  -24.9230  -28.9710   20.1720 C   0  0  0  0  0  0  0  0  0  0  0  0
  -25.9830  -30.8820   21.3890 C   0  0  0  0  0  2  0  0  0  0  0  0
  -26.0790  -29.5050   20.7550 C   0  0  0  0  0  0  0  0  0  0  0  0
  -27.2830  -28.7610   20.7390 C   0  0  0  0  0  3  0  0  0  0  0  0
  -26.1570  -26.9550   19.5690 C   0  0  0  0  0  3  0  0  0  0  0  0
  -24.9590  -27.6990   19.5780 C   0  0  0  0  0  3  0  0  0  0  0  0
  -23.6680  -29.8140   20.2260 C   0  0  0  0  0  2  0  0  0  0  0  0
  -24.7200  -31.1190   22.1350 N   0  0  0  0  0  0  0  0  0  0  0  0
  -23.5790  -32.1870   23.7790 O   0  0  0  0  0  0  0  0  0  0  0  0
  -22.8170  -29.4860   22.5670 C   0  0  0  0  0  0  0  0  0  0  0  0
  -21.4930  -29.2940   22.4440 N   0  0  0  0  0  0  0  0  0  0  0  0
  -23.5070  -28.8640   23.3780 O   0  0  0  0  0  0  0  0  0  0  0  0
  -20.9970  -29.8520   21.7650 H   0  0  0  0  0  0  0  0  0  0  0  0
  -18.1310  -28.0710   22.9460 C   0  0  0  0  0  0  0  0  0  0  0  0
  -20.6860  -28.3480   23.2130 C   0  0  0  0  0  3  0  0  0  0  0  0
  -20.7990  -26.9200   22.6320 C   0  0  0  0  0  2  0  0  0  0  0  0
  -19.6970  -26.5910   21.6200 C   0  0  0  0  0  2  0  0  0  0  0  0
  -18.3150  -26.7240   22.2680 C   0  0  0  0  0  2  0  0  0  0  0  0
  -19.2450  -28.8410   23.3730 C   0  0  0  0  0  0  0  0  0  0  0  0
  -19.0190  -30.1030   23.9640 C   0  0  0  0  0  3  0  0  0  0  0  0
  -17.7110  -30.5930   24.1390 C   0  0  0  0  0  3  0  0  0  0  0  0
  -16.6110  -29.8200   23.7330 C   0  0  0  0  0  3  0  0  0  0  0  0
  -16.8220  -28.5630   23.1400 C   0  0  0  0  0  3  0  0  0  0  0  0
  -25.9430  -32.5600   23.8540 C   0  0  0  0  0  3  0  0  0  0  0  0
  -25.6250  -33.9570   24.1880 N   0  0  0  0  0  0  0  0  0  0  0  0
  -25.9430  -35.0130   23.4270 C   0  0  0  0  0  0  0  0  0  0  0  0
  -26.6080  -34.9170   22.3920 O   0  0  0  0  0  0  0  0  0  0  0  0
  -25.0330  -34.1040   24.9930 H   0  0  0  0  0  0  0  0  0  0  0  0
  -24.2000  -36.7940   23.0840 C   0  0  0  0  0  1  0  0  0  0  0  0
  -25.4500  -36.3980   23.8880 C   0  0  0  0  0  3  0  0  0  0  0  0
  -27.5830  -37.2990   24.7040 C   0  0  0  0  0  1  0  0  0  0  0  0
  -26.4720  -37.4610   23.7690 N   0  0  0  0  0  0  0  0  0  0  0  0
  -26.0590  -38.3770   23.9250 H   0  0  0  0  0  0  0  0  0  0  0  0
  -26.4750  -31.7910   25.1240 C   0  0  1  0  0  0  0  0  0  0  0  0
  -25.3920  -31.5410   26.1990 C   0  0  0  0  0  1  0  0  0  0  0  0
  -27.0700  -30.4210   24.7240 C   0  0  0  0  0  1  0  0  0  0  0  0
  -27.6250  -32.5940   25.7790 C   0  0  0  0  0  1  0  0  0  0  0  0
  -28.6040  -19.1680   20.5200 C   0  0  0  0  0  2  0  0  0  0  0  0
  -29.5940  -18.0590   20.0160 C   0  0  0  0  0  2  0  0  0  0  0  0
  -30.2020  -17.0720   21.0750 C   0  0  0  0  0  2  0  0  0  0  0  0
  -30.6340  -14.6340   20.3570 C   0  0  0  0  0  0  0  0  0  0  0  0
  -30.3910  -12.4580   19.1930 C   0  0  0  0  0  2  0  0  0  0  0  0
  -29.4310  -12.6330   17.9950 C   0  0  0  0  0  2  0  0  0  0  0  0
  -27.9600  -12.4830   18.4330 C   0  0  0  0  0  2  0  0  0  0  0  0
  -27.6250  -13.3180   19.6980 C   0  0  0  0  0  3  0  0  0  0  0  0
  -28.6870  -13.0950   20.7970 C   0  0  0  0  0  2  0  0  0  0  0  0
  -29.9990  -13.4340   20.2240 N   0  0  0  0  0  0  0  0  0  0  0  0
  -31.7700  -14.8350   19.9150 O   0  0  0  0  0  0  0  0  0  0  0  0
  -29.8730  -15.6370   20.8660 N   0  0  0  0  0  0  0  0  0  0  0  0
  -28.9530  -15.3550   21.1700 H   0  0  0  0  0  0  0  0  0  0  0  0
  -25.2280  -13.9200   20.4070 C   0  0  0  0  0  0  0  0  0  0  0  0
  -24.1650  -13.1460   20.7850 C   0  0  0  0  0  0  0  0  0  0  0  0
  -24.6330  -11.7970   20.7680 C   0  0  0  0  0  0  0  0  0  0  0  0
  -26.2760  -13.0410   20.1820 N   0  0  0  0  0  0  0  0  0  0  0  0
  -25.9230  -11.7600   20.4590 N   0  0  0  0  0  0  0  0  0  0  0  0
  -23.9150  -10.5330   20.9740 C   0  0  0  0  0  0  0  0  0  0  0  0
  -24.3590   -9.5760   21.9130 C   0  0  0  0  0  3  0  0  0  0  0  0
  -23.6400   -8.3760   22.1060 C   0  0  0  0  0  3  0  0  0  0  0  0
  -22.4640   -8.1230   21.3590 C   0  0  0  0  0  0  0  0  0  0  0  0
  -22.0400   -9.0690   20.4090 C   0  0  0  0  0  3  0  0  0  0  0  0
  -22.7600  -10.2620   20.2150 C   0  0  0  0  0  3  0  0  0  0  0  0
  -21.7150   -6.9760   21.4610 O   0  0  0  0  0  0  0  0  0  0  0  0
  -21.6810   -6.2390   22.6180 C   0  0  0  0  0  0  0  0  0  0  0  0
  -21.2700   -6.8020   23.8470 C   0  0  0  0  0  3  0  0  0  0  0  0
  -21.1840   -5.9910   24.9960 C   0  0  0  0  0  3  0  0  0  0  0  0
  -21.4980   -4.6210   24.9210 C   0  0  0  0  0  0  0  0  0  0  0  0
  -21.9030   -4.0590   23.6950 C   0  0  0  0  0  3  0  0  0  0  0  0
  -21.9930   -4.8660   22.5470 C   0  0  0  0  0  0  0  0  0  0  0  0
  -22.3620   -4.3160   21.3650 F   0  0  0  0  0  0  0  0  0  0  0  0
  -21.4090   -3.8400   26.0230 F   0  0  0  0  0  0  0  0  0  0  0  0
  -22.7650  -13.6170   21.0570 C   0  0  0  0  0  0  0  0  0  0  0  0
  -22.0450  -12.9220   21.9300 N   0  0  0  0  0  0  0  0  0  0  0  0
  -22.3190  -14.6340   20.5280 O   0  0  0  0  0  0  0  0  0  0  0  0
  -22.4200  -12.0990   22.3760 H   0  0  0  0  0  0  0  0  0  0  0  0
  -21.1050  -13.2150   22.1570 H   0  0  0  0  0  0  0  0  0  0  0  0
  -25.3870  -15.2880   20.2160 N   0  0  0  0  0  0  0  0  0  0  0  0
  -24.6190  -15.9440   20.3220 H   0  0  0  0  0  0  0  0  0  0  0  0
  -26.2380  -15.7310   19.8930 H   0  0  0  0  0  0  0  0  0  0  0  0
  3  5  1  0
  3  6  1  0
  4  1  1  0
  4  2  1  0
  5  7  1  0
  5  4  1  0
  6 50  1  1
  6  1  1  0
  6  2  1  0
  8  9  1  0
  8  7  1  0
 10 21  2  0
 11  9  1  0
 11 16  1  0
 12 20  1  0
 12 22  1  0
 13 19  1  0
 13 15  1  0
 14 20  1  0
 15 14  1  0
 16 15  2  0
 17 18  1  0
 17 11  2  0
 18 13  2  0
 19 12  1  0
 20 10  1  0
 22 24  2  0
 23 22  1  0
 25 23  1  0
 26 35  2  0
 26 31  1  0
 27 23  1  0
 27 31  1  0
 28 27  1  0
 29 30  1  0
 29 28  1  0
 30 26  1  0
 31 32  2  0
 32 33  1  0
 34 33  2  0
 35 34  1  0
 36 10  1  0
 36 37  1  0
 36 46  1  0
 37 40  1  0
 38 42  1  0
 38 37  1  0
 39 38  2  0
 42 41  1  0
 44 42  1  0
 44 45  1  0
 44 43  1  0
 46 49  1  1
 46 47  1  0
 48 46  1  0
 51 50  1  0
 51 52  1  0
 53 61  1  0
 54 59  1  0
 55 56  1  0
 55 54  1  0
 57 56  1  0
 57 66  1  0
 57 58  1  0
 59 53  1  0
 59 58  1  0
 60 53  2  0
 61 52  1  0
 61 62  1  0
 63 64  2  0
 64 83  1  0
 65 64  1  0
 65 68  1  0
 66 63  1  0
 66 67  1  0
 67 65  2  0
 68 69  1  0
 69 70  2  0
 71 74  1  0
 71 70  1  0
 72 71  2  0
 73 72  1  0
 73 68  2  0
 74 75  1  0
 75 76  1  0
 76 77  2  0
 78 77  1  0
 78 82  1  0
 79 78  2  0
 80 75  2  0
 80 79  1  0
 81 80  1  0
 83 84  1  0
 84 87  1  0
 84 86  1  0
 85 83  2  0
 88 89  1  0
 88 63  1  0
 90 88  1  0
M  ISO  4   8 101   9 101  53 100  61 100
M  END
>  <TORSDO>  (79) 
F 21

>  <SCORE>  (79) 
-13.356

>  <name>  (79) 
78

>  <ligand_id>  (79) 
78

>  <original_smiles>  (79) 
[H]c1c([H])c([H])c2c(c1[H])C([H])([H])C([H])([H])C([H])([H])C2([H])N([H])C(=O)C1([H])N(C(=O)C([H])(N([H])C(=O)C([H])(N([H])C([H])([H])[H])C([H])([H])[H])C(C([H])([H])[H])(C([H])([H])[H])C([H])([H])[H])C([H])([H])c2c([H])c(OC([H])([H])C([H])([H])C3([H])C([H])([H])C4(C([H])([H])C([H])([H])C([H])([H])N([H])C(=O)N5C([H])([H])C([H])([H])C([H])([H])C([H])(n6nc(-c7c([H])c([H])c(Oc8c([H])c([H])c(F)c([H])c8F)c([H])c7[H])c(C(=O)N([H])[H])c6N([H])[H])C5([H])[H])C([H])([H])C3([H])C4([H])[H])c([H])c([H])c2C1([H])[H]

>  <smiles>  (79) 
[H]c1c([H])c([H])c2c(c1[H])C([H])([H])C([H])([H])C([H])([H])C2([H])N([H])C(=O)C1([H])N(C(=O)C([H])(N([H])C(=O)C([H])(N([H])C([H])([H])[H])C([H])([H])[H])C(C([H])([H])[H])(C([H])([H])[H])C([H])([H])[H])C([H])([H])c2c([H])c(OC([H])([H])C([H])([H])C3([H])C([H])([H])C4(C([H])([H])C([H])([H])C([H])([H])N([H])C(=O)N5C([H])([H])C([H])([H])C([H])([H])C([H])(n6nc(-c7c([H])c([H])c(Oc8c([H])c([H])c(F)c([H])c8F)c([H])c7[H])c(C(=O)N([H])[H])c6N([H])[H])C5([H])[H])C([H])([H])C3([H])C4([H])[H])c([H])c([H])c2C1([H])[H]

$$$$
79:0:0
     RDKit          3D

 90 99  0  0  1  0  0  0  0  0999 V2000
  -27.0250  -22.4740   19.7270 C   0  0  0  0  0  1  0  0  0  0  0  0
  -28.4740  -22.9050   19.9760 C   0  0  0  0  0  3  0  0  0  0  0  0
  -29.9220  -24.7610   21.0910 C   0  0  0  0  0  1  0  0  0  0  0  0
  -27.5980  -24.5320   21.9240 C   0  0  0  0  0  1  0  0  0  0  0  0
  -28.4590  -24.5620   20.6520 C   0  0  2  0  0  0  0  0  0  0  0  0
  -28.2580  -26.0760   20.0690 O   0  0  0  0  0  0  0  0  0  0  0  0
  -24.5970  -31.9290   23.1460 C   0  0  0  0  0  0  0  0  0  0  0  0
  -27.1730  -27.0750   20.1580 C   0  0  0  0  0  0  0  0  0  0  0  0
  -23.4020  -30.5210   21.5160 C   0  0  0  0  0  3  0  0  0  0  0  0
  -24.8500  -28.9040   20.1160 C   0  0  0  0  0  0  0  0  0  0  0  0
  -25.9630  -30.7490   21.3580 C   0  0  0  0  0  2  0  0  0  0  0  0
  -26.0380  -29.3360   20.7190 C   0  0  0  0  0  0  0  0  0  0  0  0
  -27.1980  -28.4450   20.7080 C   0  0  0  0  0  3  0  0  0  0  0  0
  -25.9480  -26.7710   19.5250 C   0  0  0  0  0  3  0  0  0  0  0  0
  -24.8240  -27.6400   19.5040 C   0  0  0  0  0  3  0  0  0  0  0  0
  -23.6300  -29.8230   20.1480 C   0  0  0  0  0  2  0  0  0  0  0  0
  -24.6750  -31.0930   22.0610 N   0  0  0  0  0  0  0  0  0  0  0  0
  -23.5090  -32.2180   23.6690 O   0  0  0  0  0  0  0  0  0  0  0  0
  -22.7120  -29.5300   22.4890 C   0  0  0  0  0  0  0  0  0  0  0  0
  -21.3800  -29.3720   22.3740 N   0  0  0  0  0  0  0  0  0  0  0  0
  -23.3810  -28.9030   23.3130 O   0  0  0  0  0  0  0  0  0  0  0  0
  -20.8930  -29.9300   21.6870 H   0  0  0  0  0  0  0  0  0  0  0  0
  -17.9950  -28.1900   22.9170 C   0  0  0  0  0  0  0  0  0  0  0  0
  -20.5600  -28.4390   23.1520 C   0  0  0  0  0  3  0  0  0  0  0  0
  -20.6440  -27.0060   22.5760 C   0  0  0  0  0  2  0  0  0  0  0  0
  -19.5290  -26.6920   21.5730 C   0  0  0  0  0  2  0  0  0  0  0  0
  -18.1560  -26.8430   22.2330 C   0  0  0  0  0  2  0  0  0  0  0  0
  -19.1230  -28.9460   23.3350 C   0  0  0  0  0  0  0  0  0  0  0  0
  -18.9160  -30.2040   23.9400 C   0  0  0  0  0  3  0  0  0  0  0  0
  -17.6160  -30.7110   24.1250 C   0  0  0  0  0  3  0  0  0  0  0  0
  -16.5030  -29.9530   23.7200 C   0  0  0  0  0  3  0  0  0  0  0  0
  -16.6940  -28.6930   23.1230 C   0  0  0  0  0  3  0  0  0  0  0  0
  -25.8700  -32.5750   23.7750 C   0  0  0  0  0  3  0  0  0  0  0  0
  -26.3910  -31.8010   25.0490 C   0  0  1  0  0  0  0  0  0  0  0  0
  -25.3010  -31.5550   26.1200 C   0  0  0  0  0  1  0  0  0  0  0  0
  -26.9820  -30.4290   24.6560 C   0  0  0  0  0  1  0  0  0  0  0  0
  -27.5420  -32.5960   25.7100 C   0  0  0  0  0  1  0  0  0  0  0  0
  -25.5450  -33.9670   24.1280 N   0  0  0  0  0  0  0  0  0  0  0  0
  -25.8870  -35.0420   23.4030 C   0  0  0  0  0  0  0  0  0  0  0  0
  -26.5740  -34.9620   22.3820 O   0  0  0  0  0  0  0  0  0  0  0  0
  -24.9370  -34.1020   24.9230 H   0  0  0  0  0  0  0  0  0  0  0  0
  -24.1750  -36.8540   23.0540 C   0  0  0  0  0  1  0  0  0  0  0  0
  -25.3930  -36.4210   23.8860 C   0  0  0  0  0  3  0  0  0  0  0  0
  -27.5110  -37.2750   24.7910 C   0  0  0  0  0  1  0  0  0  0  0  0
  -26.4330  -37.4730   23.8260 N   0  0  0  0  0  0  0  0  0  0  0  0
  -26.0280  -38.3920   23.9890 H   0  0  0  0  0  0  0  0  0  0  0  0
  -29.3640  -21.4230   20.4480 C   0  0  0  0  0  2  0  0  0  0  0  0
  -29.0290  -19.6680   20.4030 C   0  0  0  0  0  2  0  0  0  0  0  0
  -30.5320  -15.3550   20.7110 C   0  0  0  0  0  0  0  0  0  0  0  0
  -30.6010  -12.8880   19.9560 C   0  0  0  0  0  2  0  0  0  0  0  0
  -29.7820  -12.6150   18.6710 C   0  0  0  0  0  2  0  0  0  0  0  0
  -28.2970  -12.3670   19.0020 C   0  0  0  0  0  2  0  0  0  0  0  0
  -27.7460  -13.3650   20.0530 C   0  0  0  0  0  3  0  0  0  0  0  0
  -28.7060  -13.5770   21.2390 C   0  0  0  0  0  2  0  0  0  0  0  0
  -29.9790  -14.0490   20.6740 N   0  0  0  0  0  0  0  0  0  0  0  0
  -31.7710  -15.3600   20.7550 O   0  0  0  0  0  0  0  0  0  0  0  0
  -30.2290  -18.6420   17.6900 C   0  0  0  0  0  2  0  0  0  0  0  0
  -29.3670  -16.4930   18.9800 C   0  0  0  0  0  2  0  0  0  0  0  0
  -30.4000  -17.2410   18.1730 C   0  0  0  0  0  3  0  0  0  0  0  0
  -30.8570  -18.3780   19.0500 C   0  0  0  0  0  3  0  0  0  0  0  0
  -30.0960  -18.2320   20.3590 C   0  0  0  0  0  3  0  0  0  0  0  0
  -29.7680  -16.5930   20.3900 N   0  0  0  0  0  0  0  0  0  0  0  0
  -25.3230  -13.9180   20.6230 C   0  0  0  0  0  0  0  0  0  0  0  0
  -24.2440  -13.1370   20.9260 C   0  0  0  0  0  0  0  0  0  0  0  0
  -24.7290  -11.7930   20.9650 C   0  0  0  0  0  0  0  0  0  0  0  0
  -26.3890  -13.0500   20.4790 N   0  0  0  0  0  0  0  0  0  0  0  0
  -26.0400  -11.7680   20.7560 N   0  0  0  0  0  0  0  0  0  0  0  0
  -24.0060  -10.5260   21.1270 C   0  0  0  0  0  0  0  0  0  0  0  0
  -24.3960   -9.5720   22.0930 C   0  0  0  0  0  3  0  0  0  0  0  0
  -23.6730   -8.3700   22.2460 C   0  0  0  0  0  3  0  0  0  0  0  0
  -22.5450   -8.1110   21.4320 C   0  0  0  0  0  0  0  0  0  0  0  0
  -22.1750   -9.0530   20.4570 C   0  0  0  0  0  3  0  0  0  0  0  0
  -22.8980  -10.2460   20.3020 C   0  0  0  0  0  3  0  0  0  0  0  0
  -21.7970   -6.9600   21.4910 O   0  0  0  0  0  0  0  0  0  0  0  0
  -21.7070   -6.2190   22.6420 C   0  0  0  0  0  0  0  0  0  0  0  0
  -21.2370   -6.7750   23.8520 C   0  0  0  0  0  3  0  0  0  0  0  0
  -21.0950   -5.9600   24.9930 C   0  0  0  0  0  3  0  0  0  0  0  0
  -21.4130   -4.5890   24.9240 C   0  0  0  0  0  0  0  0  0  0  0  0
  -21.8760   -4.0340   23.7180 C   0  0  0  0  0  3  0  0  0  0  0  0
  -22.0190   -4.8460   22.5810 C   0  0  0  0  0  0  0  0  0  0  0  0
  -22.4450   -4.3020   21.4160 F   0  0  0  0  0  0  0  0  0  0  0  0
  -21.2700   -3.8050   26.0170 F   0  0  0  0  0  0  0  0  0  0  0  0
  -22.8230  -13.5990   21.0720 C   0  0  0  0  0  0  0  0  0  0  0  0
  -22.0390  -12.9220   21.9000 N   0  0  0  0  0  0  0  0  0  0  0  0
  -22.4160  -14.5990   20.4820 O   0  0  0  0  0  0  0  0  0  0  0  0
  -22.3810  -12.1160   22.4040 H   0  0  0  0  0  0  0  0  0  0  0  0
  -21.0820  -13.2170   22.0390 H   0  0  0  0  0  0  0  0  0  0  0  0
  -25.4860  -15.2890   20.4290 N   0  0  0  0  0  0  0  0  0  0  0  0
  -24.7130  -15.9430   20.4810 H   0  0  0  0  0  0  0  0  0  0  0  0
  -26.3660  -15.7330   20.2010 H   0  0  0  0  0  0  0  0  0  0  0  0
  2  1  1  0
  2 47  1  0
  2  5  1  0
  5  3  1  1
  5  4  1  0
  6  8  1  0
  6  5  1  0
  7 18  2  0
  8 13  1  0
  9 17  1  0
  9 19  1  0
 10 16  1  0
 10 12  1  0
 11 17  1  0
 12 11  1  0
 13 12  2  0
 14  8  2  0
 15 14  1  0
 15 10  2  0
 16  9  1  0
 17  7  1  0
 19 21  2  0
 20 19  1  0
 22 20  1  0
 23 32  2  0
 23 28  1  0
 24 20  1  0
 24 28  1  0
 25 24  1  0
 26 27  1  0
 26 25  1  0
 27 23  1  0
 28 29  2  0
 29 30  1  0
 31 30  2  0
 32 31  1  0
 33  7  1  0
 33 38  1  0
 33 34  1  0
 34 37  1  1
 34 35  1  0
 36 34  1  0
 38 41  1  0
 39 43  1  0
 39 38  1  0
 40 39  2  0
 43 42  1  0
 45 43  1  0
 45 46  1  0
 45 44  1  0
 48 47  1  0
 49 56  2  0
 50 55  1  0
 51 52  1  0
 51 50  1  0
 53 52  1  0
 53 66  1  0
 53 54  1  0
 55 49  1  0
 55 54  1  0
 58 62  1  0
 59 57  1  0
 59 58  1  0
 59 60  1  0
 60 57  1  0
 60 61  1  0
 61 62  1  0
 61 48  1  0
 62 49  1  0
 63 64  2  0
 64 65  1  0
 64 83  1  0
 65 68  1  0
 66 63  1  0
 66 67  1  0
 67 65  2  0
 68 69  1  0
 69 70  2  0
 71 74  1  0
 71 70  1  0
 72 71  2  0
 73 72  1  0
 73 68  2  0
 74 75  1  0
 75 76  1  0
 76 77  2  0
 78 77  1  0
 78 82  1  0
 79 78  2  0
 80 75  2  0
 80 79  1  0
 81 80  1  0
 83 84  1  0
 84 87  1  0
 84 86  1  0
 85 83  2  0
 88 89  1  0
 88 63  1  0
 90 88  1  0
M  ISO  4   5 101   6 101  49 100  62 100
M  END
>  <TORSDO>  (80) 
F 19

>  <SCORE>  (80) 
-15.659

>  <name>  (80) 
79

>  <ligand_id>  (80) 
79

>  <original_smiles>  (80) 
[H]c1c([H])c([H])c2c(c1[H])C([H])([H])C([H])([H])C([H])([H])C2([H])N([H])C(=O)C1([H])N(C(=O)C([H])(N([H])C(=O)C([H])(N([H])C([H])([H])[H])C([H])([H])[H])C(C([H])([H])[H])(C([H])([H])[H])C([H])([H])[H])C([H])([H])c2c([H])c(OC(C([H])([H])[H])(C([H])([H])[H])C([H])(C([H])([H])[H])C([H])([H])C([H])([H])C3([H])N(C(=O)N4C([H])([H])C([H])([H])C([H])([H])C([H])(n5nc(-c6c([H])c([H])c(Oc7c([H])c([H])c(F)c([H])c7F)c([H])c6[H])c(C(=O)N([H])[H])c5N([H])[H])C4([H])[H])C([H])([H])C4([H])C([H])([H])C34[H])c([H])c([H])c2C1([H])[H]

>  <smiles>  (80) 
[H]c1c([H])c([H])c2c(c1[H])C([H])([H])C([H])([H])C([H])([H])C2([H])N([H])C(=O)C1([H])N(C(=O)C([H])(N([H])C(=O)C([H])(N([H])C([H])([H])[H])C([H])([H])[H])C(C([H])([H])[H])(C([H])([H])[H])C([H])([H])[H])C([H])([H])c2c([H])c(OC(C([H])([H])[H])(C([H])([H])[H])C([H])(C([H])([H])[H])C([H])([H])C([H])([H])C3([H])N(C(=O)N4C([H])([H])C([H])([H])C([H])([H])C([H])(n5nc(-c6c([H])c([H])c(Oc7c([H])c([H])c(F)c([H])c7F)c([H])c6[H])c(C(=O)N([H])[H])c5N([H])[H])C4([H])[H])C([H])([H])C4([H])C([H])([H])C34[H])c([H])c([H])c2C1([H])[H]

$$$$
80:0:0
     RDKit          3D

 89 98  0  0  1  0  0  0  0  0999 V2000
  -31.0980  -19.9840   20.8440 C   0  0  0  0  0  2  0  0  0  0  0  0
  -30.8980  -18.4700   21.2300 C   0  0  0  0  0  2  0  0  0  0  0  0
  -28.7300  -18.7840   19.9380 C   0  0  0  0  0  2  0  0  0  0  0  0
  -29.8640  -20.8630   21.1240 C   0  0  0  0  0  3  0  0  0  0  0  0
  -28.6110  -20.3050   20.5650 C   0  0  0  0  0  3  0  0  0  0  0  0
  -29.1110  -21.8220   20.1450 C   0  0  0  0  0  3  0  0  0  0  0  0
  -29.9700  -17.7310   20.2310 C   0  0  0  0  0  3  0  0  0  0  0  0
  -30.5140  -14.9970   20.2930 C   0  0  0  0  0  0  0  0  0  0  0  0
  -30.3880  -12.6520   19.3420 C   0  0  0  0  0  2  0  0  0  0  0  0
  -29.4550  -12.6270   18.1090 C   0  0  0  0  0  2  0  0  0  0  0  0
  -27.9900  -12.4200   18.5360 C   0  0  0  0  0  2  0  0  0  0  0  0
  -27.5880  -13.3320   19.7250 C   0  0  0  0  0  3  0  0  0  0  0  0
  -28.6430  -13.3270   20.8520 C   0  0  0  0  0  2  0  0  0  0  0  0
  -29.9170  -13.7370   20.2490 N   0  0  0  0  0  0  0  0  0  0  0  0
  -31.7100  -15.0650   19.9890 O   0  0  0  0  0  0  0  0  0  0  0  0
  -29.7330  -16.1750   20.4670 N   0  0  0  0  0  0  0  0  0  0  0  0
  -28.7790  -15.9550   20.7120 H   0  0  0  0  0  0  0  0  0  0  0  0
  -25.2020  -13.9100   20.4480 C   0  0  0  0  0  0  0  0  0  0  0  0
  -24.1380  -13.1330   20.8190 C   0  0  0  0  0  0  0  0  0  0  0  0
  -24.6080  -11.7840   20.8010 C   0  0  0  0  0  0  0  0  0  0  0  0
  -26.2480  -13.0330   20.2190 N   0  0  0  0  0  0  0  0  0  0  0  0
  -25.9000  -11.7510   20.4990 N   0  0  0  0  0  0  0  0  0  0  0  0
  -23.8840  -10.5210   20.9970 C   0  0  0  0  0  0  0  0  0  0  0  0
  -24.3120   -9.5620   21.9420 C   0  0  0  0  0  3  0  0  0  0  0  0
  -23.5860   -8.3650   22.1270 C   0  0  0  0  0  3  0  0  0  0  0  0
  -22.4190   -8.1190   21.3660 C   0  0  0  0  0  0  0  0  0  0  0  0
  -22.0100   -9.0650   20.4100 C   0  0  0  0  0  3  0  0  0  0  0  0
  -22.7360  -10.2530   20.2240 C   0  0  0  0  0  3  0  0  0  0  0  0
  -21.6660   -6.9720   21.4600 O   0  0  0  0  0  0  0  0  0  0  0  0
  -21.6120   -6.2400   22.6190 C   0  0  0  0  0  0  0  0  0  0  0  0
  -21.1730   -6.8040   23.8370 C   0  0  0  0  0  3  0  0  0  0  0  0
  -21.0640   -5.9970   24.9870 C   0  0  0  0  0  3  0  0  0  0  0  0
  -21.3840   -4.6290   24.9200 C   0  0  0  0  0  0  0  0  0  0  0  0
  -21.8160   -4.0640   23.7070 C   0  0  0  0  0  3  0  0  0  0  0  0
  -21.9250   -4.8680   22.5590 C   0  0  0  0  0  0  0  0  0  0  0  0
  -22.3210   -4.3130   21.3860 F   0  0  0  0  0  0  0  0  0  0  0  0
  -21.2730   -3.8510   26.0230 F   0  0  0  0  0  0  0  0  0  0  0  0
  -22.7370  -13.6090   21.0750 C   0  0  0  0  0  0  0  0  0  0  0  0
  -22.0040  -12.9170   21.9390 N   0  0  0  0  0  0  0  0  0  0  0  0
  -22.3020  -14.6300   20.5440 O   0  0  0  0  0  0  0  0  0  0  0  0
  -22.3680  -12.0900   22.3910 H   0  0  0  0  0  0  0  0  0  0  0  0
  -21.0640  -13.2190   22.1530 H   0  0  0  0  0  0  0  0  0  0  0  0
  -25.3600  -15.2800   20.2580 N   0  0  0  0  0  0  0  0  0  0  0  0
  -24.5850  -15.9270   20.3560 H   0  0  0  0  0  0  0  0  0  0  0  0
  -26.1910  -15.7160   19.8810 H   0  0  0  0  0  0  0  0  0  0  0  0
  -27.5530  -23.1630   21.7780 C   0  0  0  0  0  1  0  0  0  0  0  0
  -28.6660  -23.3380   20.7330 C   0  0  0  0  0  3  0  0  0  0  0  0
  -28.2880  -24.7110   19.8220 C   0  0  0  0  0  2  0  0  0  0  0  0
  -28.3010  -26.2080   20.2890 O   0  0  0  0  0  0  0  0  0  0  0  0
  -24.6310  -31.8810   23.2320 C   0  0  0  0  0  0  0  0  0  0  0  0
  -27.2250  -27.1700   20.1890 C   0  0  0  0  0  0  0  0  0  0  0  0
  -23.4330  -30.4800   21.5950 C   0  0  0  0  0  3  0  0  0  0  0  0
  -24.8860  -28.9130   20.1630 C   0  0  0  0  0  0  0  0  0  0  0  0
  -25.9860  -30.7530   21.4290 C   0  0  0  0  0  2  0  0  0  0  0  0
  -26.0630  -29.3610   20.7750 C   0  0  0  0  0  0  0  0  0  0  0  0
  -27.2270  -28.5020   20.7750 C   0  0  0  0  0  3  0  0  0  0  0  0
  -26.0230  -26.8330   19.5270 C   0  0  0  0  0  3  0  0  0  0  0  0
  -24.8800  -27.6640   19.5250 C   0  0  0  0  0  3  0  0  0  0  0  0
  -23.6560  -29.8050   20.2140 C   0  0  0  0  0  2  0  0  0  0  0  0
  -24.7030  -31.0600   22.1400 N   0  0  0  0  0  0  0  0  0  0  0  0
  -23.5440  -32.1620   23.7610 O   0  0  0  0  0  0  0  0  0  0  0  0
  -22.7610  -29.4690   22.5570 C   0  0  0  0  0  0  0  0  0  0  0  0
  -21.4330  -29.2980   22.4360 N   0  0  0  0  0  0  0  0  0  0  0  0
  -23.4370  -28.8430   23.3770 O   0  0  0  0  0  0  0  0  0  0  0  0
  -20.9410  -29.8600   21.7540 H   0  0  0  0  0  0  0  0  0  0  0  0
  -18.0560  -28.0900   22.9500 C   0  0  0  0  0  0  0  0  0  0  0  0
  -20.6150  -28.3570   23.2070 C   0  0  0  0  0  3  0  0  0  0  0  0
  -20.7180  -26.9270   22.6290 C   0  0  0  0  0  2  0  0  0  0  0  0
  -19.6110  -26.5990   21.6230 C   0  0  0  0  0  2  0  0  0  0  0  0
  -18.2320  -26.7410   22.2730 C   0  0  0  0  0  2  0  0  0  0  0  0
  -19.1740  -28.8550   23.3760 C   0  0  0  0  0  0  0  0  0  0  0  0
  -18.9540  -30.1140   23.9740 C   0  0  0  0  0  3  0  0  0  0  0  0
  -17.6490  -30.6110   24.1480 C   0  0  0  0  0  3  0  0  0  0  0  0
  -16.5440  -29.8440   23.7360 C   0  0  0  0  0  3  0  0  0  0  0  0
  -16.7480  -28.5860   23.1440 C   0  0  0  0  0  3  0  0  0  0  0  0
  -25.9070  -32.5210   23.8580 C   0  0  0  0  0  3  0  0  0  0  0  0
  -25.5910  -33.9190   24.1890 N   0  0  0  0  0  0  0  0  0  0  0  0
  -25.9150  -34.9760   23.4310 C   0  0  0  0  0  0  0  0  0  0  0  0
  -26.5770  -34.8760   22.3950 O   0  0  0  0  0  0  0  0  0  0  0  0
  -25.0000  -34.0700   24.9940 H   0  0  0  0  0  0  0  0  0  0  0  0
  -24.1760  -36.7650   23.0950 C   0  0  0  0  0  1  0  0  0  0  0  0
  -25.4280  -36.3640   23.8940 C   0  0  0  0  0  3  0  0  0  0  0  0
  -27.5660  -37.2580   24.7040 C   0  0  0  0  0  1  0  0  0  0  0  0
  -26.4540  -37.4200   23.7700 N   0  0  0  0  0  0  0  0  0  0  0  0
  -26.0470  -38.3390   23.9190 H   0  0  0  0  0  0  0  0  0  0  0  0
  -26.4180  -31.7560   25.1420 C   0  0  1  0  0  0  0  0  0  0  0  0
  -25.3210  -31.5250   26.2070 C   0  0  0  0  0  1  0  0  0  0  0  0
  -27.0040  -30.3760   24.7640 C   0  0  0  0  0  1  0  0  0  0  0  0
  -27.5670  -32.5540   25.8020 C   0  0  0  0  0  1  0  0  0  0  0  0
  1  2  1  0
  3  7  1  0
  4  1  1  0
  5  3  1  0
  5  4  1  0
  6  5  1  0
  6 47  1  0
  6  4  1  0
  7 16  1  0
  7  2  1  0
  8 16  1  0
  9 14  1  0
 10 11  1  0
 10  9  1  0
 12 11  1  0
 12 21  1  0
 12 13  1  0
 14  8  1  0
 14 13  1  0
 15  8  2  0
 16 17  1  0
 18 19  2  0
 19 38  1  0
 20 19  1  0
 20 23  1  0
 21 18  1  0
 21 22  1  0
 22 20  2  0
 23 24  1  0
 24 25  2  0
 26 29  1  0
 26 25  1  0
 27 26  2  0
 28 27  1  0
 28 23  2  0
 29 30  1  0
 30 31  1  0
 31 32  2  0
 33 32  1  0
 33 37  1  0
 34 33  2  0
 35 30  2  0
 35 34  1  0
 36 35  1  0
 38 39  1  0
 39 42  1  0
 39 41  1  0
 40 38  2  0
 43 44  1  0
 43 18  1  0
 45 43  1  0
 47 46  1  0
 48 49  1  0
 48 47  1  0
 50 61  2  0
 51 49  1  0
 51 56  1  0
 52 60  1  0
 52 62  1  0
 53 59  1  0
 53 55  1  0
 54 60  1  0
 55 54  1  0
 56 55  2  0
 57 51  2  0
 58 57  1  0
 58 53  2  0
 59 52  1  0
 60 50  1  0
 62 64  2  0
 63 62  1  0
 65 63  1  0
 66 75  2  0
 66 71  1  0
 67 63  1  0
 67 71  1  0
 68 67  1  0
 69 70  1  0
 69 68  1  0
 70 66  1  0
 71 72  2  0
 72 73  1  0
 74 73  2  0
 75 74  1  0
 76 50  1  0
 76 77  1  0
 76 86  1  0
 77 80  1  0
 78 82  1  0
 78 77  1  0
 79 78  2  0
 82 81  1  0
 84 82  1  0
 84 85  1  0
 84 83  1  0
 86 89  1  1
 86 87  1  0
 88 86  1  0
M  ISO  4   8 100  16 100  48 101  49 101
M  END
>  <TORSDO>  (81) 
F 18

>  <SCORE>  (81) 
-14.740

>  <name>  (81) 
80

>  <ligand_id>  (81) 
80

>  <original_smiles>  (81) 
[H]c1c([H])c([H])c2c(c1[H])C([H])([H])C([H])([H])C([H])([H])C2([H])N([H])C(=O)C1([H])N(C(=O)C([H])(N([H])C(=O)C([H])(N([H])C([H])([H])[H])C([H])([H])[H])C(C([H])([H])[H])(C([H])([H])[H])C([H])([H])[H])C([H])([H])c2c([H])c(OC([H])([H])C([H])(C([H])([H])[H])C3([H])C4([H])C([H])([H])C([H])([H])C([H])(N([H])C(=O)N5C([H])([H])C([H])([H])C([H])([H])C([H])(n6nc(-c7c([H])c([H])c(Oc8c([H])c([H])c(F)c([H])c8F)c([H])c7[H])c(C(=O)N([H])[H])c6N([H])[H])C5([H])[H])C([H])([H])C43[H])c([H])c([H])c2C1([H])[H]

>  <smiles>  (81) 
[H]c1c([H])c([H])c2c(c1[H])C([H])([H])C([H])([H])C([H])([H])C2([H])N([H])C(=O)C1([H])N(C(=O)C([H])(N([H])C(=O)C([H])(N([H])C([H])([H])[H])C([H])([H])[H])C(C([H])([H])[H])(C([H])([H])[H])C([H])([H])[H])C([H])([H])c2c([H])c(OC([H])([H])C([H])(C([H])([H])[H])C3([H])C4([H])C([H])([H])C([H])([H])C([H])(N([H])C(=O)N5C([H])([H])C([H])([H])C([H])([H])C([H])(n6nc(-c7c([H])c([H])c(Oc8c([H])c([H])c(F)c([H])c8F)c([H])c7[H])c(C(=O)N([H])[H])c6N([H])[H])C5([H])[H])C([H])([H])C43[H])c([H])c([H])c2C1([H])[H]

$$$$
81:0:0
     RDKit          3D

 94103  0  0  1  0  0  0  0  0999 V2000
  -31.2160  -14.5930   20.0340 C   0  0  0  0  0  0  0  0  0  0  0  0
  -30.8330  -12.2980   19.1830 C   0  0  0  0  0  2  0  0  0  0  0  0
  -29.8910  -12.3120   17.9660 C   0  0  0  0  0  2  0  0  0  0  0  0
  -28.4230  -12.2250   18.4270 C   0  0  0  0  0  2  0  0  0  0  0  0
  -28.0900  -13.2090   19.5810 C   0  0  0  0  0  3  0  0  0  0  0  0
  -29.1690  -13.1720   20.6850 C   0  0  0  0  0  2  0  0  0  0  0  0
  -30.4480  -13.4530   20.0220 N   0  0  0  0  0  0  0  0  0  0  0  0
  -32.4250  -14.4540   19.8750 O   0  0  0  0  0  0  0  0  0  0  0  0
  -30.7810  -19.6500   19.3360 C   0  0  0  0  0  2  0  0  0  0  0  0
  -28.6940  -19.0450   20.2400 C   0  0  0  0  0  2  0  0  0  0  0  0
  -29.3790  -16.4420   20.2150 C   0  0  0  0  0  2  0  0  0  0  0  0
  -30.9980  -18.2650   20.0280 C   0  0  0  0  0  3  0  0  0  0  0  0
  -29.5920  -20.2990   20.0680 C   0  0  0  0  0  3  0  0  0  0  0  0
  -31.3460  -17.0360   19.1410 C   0  0  0  0  0  3  0  0  0  0  0  0
  -29.6660  -17.9010   20.6900 C   0  0  1  0  0  0  0  0  0  0  0  0
  -29.7870  -17.8950   22.2280 C   0  0  0  0  0  1  0  0  0  0  0  0
  -30.6660  -15.8490   19.7810 N   0  0  0  0  0  0  0  0  0  0  0  0
  -25.7660  -13.9180   20.4030 C   0  0  0  0  0  0  0  0  0  0  0  0
  -24.6640  -13.1970   20.7700 C   0  0  0  0  0  0  0  0  0  0  0  0
  -25.0400  -11.8230   20.6710 C   0  0  0  0  0  0  0  0  0  0  0  0
  -26.7470  -12.9870   20.1050 N   0  0  0  0  0  0  0  0  0  0  0  0
  -26.3180  -11.7190   20.3270 N   0  0  0  0  0  0  0  0  0  0  0  0
  -24.2410  -10.6010   20.8280 C   0  0  0  0  0  0  0  0  0  0  0  0
  -24.6540   -9.5490   21.6760 C   0  0  0  0  0  3  0  0  0  0  0  0
  -23.8550   -8.3940   21.8270 C   0  0  0  0  0  3  0  0  0  0  0  0
  -22.6300   -8.2820   21.1280 C   0  0  0  0  0  0  0  0  0  0  0  0
  -22.2350   -9.3210   20.2670 C   0  0  0  0  0  3  0  0  0  0  0  0
  -23.0320  -10.4670   20.1150 C   0  0  0  0  0  3  0  0  0  0  0  0
  -21.8040   -7.1860   21.1890 O   0  0  0  0  0  0  0  0  0  0  0  0
  -21.8130   -6.3410   22.2690 C   0  0  0  0  0  0  0  0  0  0  0  0
  -21.5220   -6.7950   23.5750 C   0  0  0  0  0  3  0  0  0  0  0  0
  -21.4740   -5.8780   24.6440 C   0  0  0  0  0  3  0  0  0  0  0  0
  -21.7080   -4.5090   24.4090 C   0  0  0  0  0  0  0  0  0  0  0  0
  -21.9940   -4.0560   23.1090 C   0  0  0  0  0  3  0  0  0  0  0  0
  -22.0430   -4.9690   22.0420 C   0  0  0  0  0  0  0  0  0  0  0  0
  -22.2960   -4.5240   20.7880 F   0  0  0  0  0  0  0  0  0  0  0  0
  -21.6540   -3.6280   25.4340 F   0  0  0  0  0  0  0  0  0  0  0  0
  -23.3060  -13.7490   21.0970 C   0  0  0  0  0  0  0  0  0  0  0  0
  -22.5740  -13.0840   21.9830 N   0  0  0  0  0  0  0  0  0  0  0  0
  -22.9070  -14.8030   20.6010 O   0  0  0  0  0  0  0  0  0  0  0  0
  -22.9120  -12.2330   22.4050 H   0  0  0  0  0  0  0  0  0  0  0  0
  -21.6650  -13.4350   22.2460 H   0  0  0  0  0  0  0  0  0  0  0  0
  -26.0090  -15.2820   20.2750 N   0  0  0  0  0  0  0  0  0  0  0  0
  -25.2900  -15.9740   20.4560 H   0  0  0  0  0  0  0  0  0  0  0  0
  -26.8720  -15.6820   19.9320 H   0  0  0  0  0  0  0  0  0  0  0  0
  -32.8630  -16.9370   18.7760 C   0  0  0  0  0  2  0  0  0  0  0  0
  -32.9700  -18.3620   16.6080 C   0  0  0  0  0  1  0  0  0  0  0  0
  -33.4890  -18.1350   18.0360 C   0  0  0  0  0  2  0  0  0  0  0  0
  -28.9810  -21.4790   19.4570 O   0  0  0  0  0  0  0  0  0  0  0  0
  -29.7050  -22.7330   19.6190 C   0  0  0  0  0  2  0  0  0  0  0  0
  -27.6100  -23.6860   20.8350 C   0  0  0  0  0  1  0  0  0  0  0  0
  -28.9380  -24.0250   20.1380 C   0  0  0  0  0  3  0  0  0  0  0  0
  -28.8250  -25.2610   19.1650 C   0  0  0  0  0  2  0  0  0  0  0  0
  -28.6760  -26.5750   19.8040 O   0  0  0  0  0  0  0  0  0  0  0  0
  -24.5530  -31.3660   23.2040 C   0  0  0  0  0  0  0  0  0  0  0  0
  -27.4900  -27.3120   19.7820 C   0  0  0  0  0  0  0  0  0  0  0  0
  -23.5060  -30.1820   21.3070 C   0  0  0  0  0  3  0  0  0  0  0  0
  -25.0900  -28.8540   19.8070 C   0  0  0  0  0  0  0  0  0  0  0  0
  -26.0390  -30.5610   21.3610 C   0  0  0  0  0  2  0  0  0  0  0  0
  -26.1950  -29.2820   20.5510 C   0  0  0  0  0  0  0  0  0  0  0  0
  -27.3920  -28.5190   20.5330 C   0  0  0  0  0  3  0  0  0  0  0  0
  -26.3550  -26.9140   19.0410 C   0  0  0  0  0  3  0  0  0  0  0  0
  -25.1690  -27.6770   19.0470 C   0  0  0  0  0  3  0  0  0  0  0  0
  -23.8370  -29.7020   19.8690 C   0  0  0  0  0  2  0  0  0  0  0  0
  -24.7140  -30.7120   22.0170 N   0  0  0  0  0  0  0  0  0  0  0  0
  -23.4260  -31.5600   23.6820 O   0  0  0  0  0  0  0  0  0  0  0  0
  -22.8030  -29.0360   22.0700 C   0  0  0  0  0  0  0  0  0  0  0  0
  -21.4710  -28.9450   21.9220 N   0  0  0  0  0  0  0  0  0  0  0  0
  -23.4510  -28.2440   22.7600 O   0  0  0  0  0  0  0  0  0  0  0  0
  -21.0100  -29.6410   21.3540 H   0  0  0  0  0  0  0  0  0  0  0  0
  -18.0270  -27.9080   22.3030 C   0  0  0  0  0  0  0  0  0  0  0  0
  -20.6040  -27.9250   22.5110 C   0  0  0  0  0  3  0  0  0  0  0  0
  -20.5800  -26.6460   21.6400 C   0  0  0  0  0  2  0  0  0  0  0  0
  -19.4250  -26.6200   20.6330 C   0  0  0  0  0  2  0  0  0  0  0  0
  -18.0780  -26.7230   21.3520 C   0  0  0  0  0  2  0  0  0  0  0  0
  -19.2140  -28.4810   22.8330 C   0  0  0  0  0  0  0  0  0  0  0  0
  -19.1100  -29.6040   23.6840 C   0  0  0  0  0  3  0  0  0  0  0  0
  -17.8520  -30.1440   24.0130 C   0  0  0  0  0  3  0  0  0  0  0  0
  -16.6800  -29.5620   23.4990 C   0  0  0  0  0  3  0  0  0  0  0  0
  -16.7700  -28.4480   22.6450 C   0  0  0  0  0  3  0  0  0  0  0  0
  -25.7730  -31.9230   24.0030 C   0  0  0  0  0  3  0  0  0  0  0  0
  -25.4410  -33.2920   24.4150 N   0  0  0  0  0  0  0  0  0  0  0  0
  -25.8630  -34.3970   23.7870 C   0  0  0  0  0  0  0  0  0  0  0  0
  -26.6350  -34.3660   22.8250 O   0  0  0  0  0  0  0  0  0  0  0  0
  -24.7580  -33.3870   25.1510 H   0  0  0  0  0  0  0  0  0  0  0  0
  -24.1850  -36.2400   23.4310 C   0  0  0  0  0  1  0  0  0  0  0  0
  -25.3450  -35.7500   24.3110 C   0  0  0  0  0  3  0  0  0  0  0  0
  -27.3920  -36.5470   25.4120 C   0  0  0  0  0  1  0  0  0  0  0  0
  -26.3910  -36.7940   24.3780 N   0  0  0  0  0  0  0  0  0  0  0  0
  -25.9760  -37.7060   24.5520 H   0  0  0  0  0  0  0  0  0  0  0  0
  -26.1510  -31.0390   25.2540 C   0  0  1  0  0  0  0  0  0  0  0  0
  -24.9570  -30.7540   26.1970 C   0  0  0  0  0  1  0  0  0  0  0  0
  -26.7400  -29.6820   24.8040 C   0  0  0  0  0  1  0  0  0  0  0  0
  -27.2510  -31.7510   26.0760 C   0  0  0  0  0  1  0  0  0  0  0  0
  2  7  1  0
  3  4  1  0
  3  2  1  0
  5  4  1  0
  5 21  1  0
  5  6  1  0
  7  1  1  0
  7  6  1  0
  8  1  2  0
  9 13  1  0
 10 15  1  0
 11 15  1  0
 12  9  1  0
 12 15  1  0
 13 49  1  0
 13 10  1  0
 14 46  1  0
 14 17  1  0
 14 12  1  0
 15 16  1  1
 17  1  1  0
 17 11  1  0
 18 19  2  0
 19 38  1  0
 20 19  1  0
 20 23  1  0
 21 22  1  0
 21 18  1  0
 22 20  2  0
 23 24  1  0
 24 25  2  0
 26 29  1  0
 26 25  1  0
 27 26  2  0
 28 27  1  0
 28 23  2  0
 29 30  1  0
 30 31  1  0
 31 32  2  0
 33 32  1  0
 33 37  1  0
 34 33  2  0
 35 30  2  0
 35 34  1  0
 36 35  1  0
 38 39  1  0
 39 42  1  0
 39 41  1  0
 40 38  2  0
 43 18  1  0
 43 44  1  0
 45 43  1  0
 47 48  1  0
 48 46  1  0
 49 50  1  0
 50 52  1  0
 52 51  1  0
 53 54  1  0
 53 52  1  0
 55 66  2  0
 56 54  1  0
 56 61  1  0
 57 65  1  0
 57 67  1  0
 58 64  1  0
 58 60  1  0
 59 65  1  0
 60 59  1  0
 61 60  2  0
 62 63  1  0
 62 56  2  0
 63 58  2  0
 64 57  1  0
 65 55  1  0
 67 69  2  0
 68 67  1  0
 70 68  1  0
 71 80  2  0
 71 76  1  0
 72 68  1  0
 72 76  1  0
 73 72  1  0
 74 75  1  0
 74 73  1  0
 75 71  1  0
 76 77  2  0
 77 78  1  0
 79 78  2  0
 80 79  1  0
 81 55  1  0
 81 82  1  0
 81 91  1  0
 82 85  1  0
 83 87  1  0
 83 82  1  0
 84 83  2  0
 87 86  1  0
 87 89  1  0
 89 90  1  0
 89 88  1  0
 91 94  1  1
 91 92  1  0
 93 91  1  0
M  ISO  4   1 100  17 100  53 101  54 101
M  END
>  <TORSDO>  (82) 
F 21

>  <SCORE>  (82) 
-11.770

>  <name>  (82) 
81

>  <ligand_id>  (82) 
81

>  <original_smiles>  (82) 
[H]c1c([H])c([H])c2c(c1[H])C([H])([H])C([H])([H])C([H])([H])C2([H])N([H])C(=O)C1([H])N(C(=O)C([H])(N([H])C(=O)C([H])(N([H])C([H])([H])[H])C([H])([H])[H])C(C([H])([H])[H])(C([H])([H])[H])C([H])([H])[H])C([H])([H])c2c([H])c(OC([H])([H])C([H])(C([H])([H])[H])C([H])([H])OC3([H])C([H])([H])C4([H])C([H])(C([H])([H])C([H])([H])C([H])([H])[H])N(C(=O)N5C([H])([H])C([H])([H])C([H])([H])C([H])(n6nc(-c7c([H])c([H])c(Oc8c([H])c([H])c(F)c([H])c8F)c([H])c7[H])c(C(=O)N([H])[H])c6N([H])[H])C5([H])[H])C([H])([H])C4(C([H])([H])[H])C3([H])[H])c([H])c([H])c2C1([H])[H]

>  <smiles>  (82) 
[H]c1c([H])c([H])c2c(c1[H])C([H])([H])C([H])([H])C([H])([H])C2([H])N([H])C(=O)C1([H])N(C(=O)C([H])(N([H])C(=O)C([H])(N([H])C([H])([H])[H])C([H])([H])[H])C(C([H])([H])[H])(C([H])([H])[H])C([H])([H])[H])C([H])([H])c2c([H])c(OC([H])([H])C([H])(C([H])([H])[H])C([H])([H])OC3([H])C([H])([H])C4([H])C([H])(C([H])([H])C([H])([H])C([H])([H])[H])N(C(=O)N5C([H])([H])C([H])([H])C([H])([H])C([H])(n6nc(-c7c([H])c([H])c(Oc8c([H])c([H])c(F)c([H])c8F)c([H])c7[H])c(C(=O)N([H])[H])c6N([H])[H])C5([H])[H])C([H])([H])C4(C([H])([H])[H])C3([H])[H])c([H])c([H])c2C1([H])[H]

$$$$
82:0:0
     RDKit          3D

 88 97  0  0  1  0  0  0  0  0999 V2000
  -29.1440  -19.4470   19.8820 C   0  0  0  0  0  3  0  0  0  0  0  0
  -28.1020  -19.5120   18.9290 C   0  0  0  0  0  3  0  0  0  0  0  0
  -27.4190  -20.0080   17.6870 C   0  0  0  0  0  2  0  0  0  0  0  0
  -27.1280  -20.9880   20.2140 C   0  0  0  0  0  2  0  0  0  0  0  0
  -28.6900  -21.0230   20.5090 C   0  0  0  0  0  3  0  0  0  0  0  0
  -26.7580  -20.0940   19.0110 C   0  0  0  0  0  3  0  0  0  0  0  0
  -29.9080  -17.9930   20.3330 C   0  0  0  0  0  3  0  0  0  0  0  0
  -30.9370  -18.2480   21.4130 C   0  0  0  0  0  1  0  0  0  0  0  0
  -29.7130  -16.6540   19.9280 N   0  0  0  0  0  2  0  0  0  0  0  0
  -30.5310  -15.3490   20.1050 C   0  0  0  0  0  0  0  0  0  0  0  0
  -30.4790  -12.8620   19.3790 C   0  0  0  0  0  2  0  0  0  0  0  0
  -29.5790  -12.6650   18.1330 C   0  0  0  0  0  2  0  0  0  0  0  0
  -28.1110  -12.4450   18.5430 C   0  0  0  0  0  2  0  0  0  0  0  0
  -27.6660  -13.4430   19.6450 C   0  0  0  0  0  3  0  0  0  0  0  0
  -28.7010  -13.6040   20.7710 C   0  0  0  0  0  2  0  0  0  0  0  0
  -29.9610  -14.0460   20.1540 N   0  0  0  0  0  0  0  0  0  0  0  0
  -31.7650  -15.3010   20.0140 O   0  0  0  0  0  0  0  0  0  0  0  0
  -25.3190  -14.0710   20.4070 C   0  0  0  0  0  0  0  0  0  0  0  0
  -24.2320  -13.3280   20.7800 C   0  0  0  0  0  0  0  0  0  0  0  0
  -24.6600  -11.9650   20.7590 C   0  0  0  0  0  0  0  0  0  0  0  0
  -26.3330  -13.1640   20.1630 N   0  0  0  0  0  0  0  0  0  0  0  0
  -25.9510  -11.8910   20.4500 N   0  0  0  0  0  0  0  0  0  0  0  0
  -23.8960  -10.7270   20.9600 C   0  0  0  0  0  0  0  0  0  0  0  0
  -24.2940   -9.7560   21.9040 C   0  0  0  0  0  3  0  0  0  0  0  0
  -23.5270   -8.5830   22.0930 C   0  0  0  0  0  3  0  0  0  0  0  0
  -22.3490   -8.3760   21.3340 C   0  0  0  0  0  0  0  0  0  0  0  0
  -21.9720   -9.3360   20.3770 C   0  0  0  0  0  3  0  0  0  0  0  0
  -22.7390  -10.4980   20.1890 C   0  0  0  0  0  3  0  0  0  0  0  0
  -21.5560   -7.2550   21.4290 O   0  0  0  0  0  0  0  0  0  0  0  0
  -21.4830   -6.5210   22.5850 C   0  0  0  0  0  0  0  0  0  0  0  0
  -21.0380   -7.0870   23.8000 C   0  0  0  0  0  3  0  0  0  0  0  0
  -20.9120   -6.2770   24.9470 C   0  0  0  0  0  3  0  0  0  0  0  0
  -21.2170   -4.9040   24.8790 C   0  0  0  0  0  0  0  0  0  0  0  0
  -21.6540   -4.3380   23.6690 C   0  0  0  0  0  3  0  0  0  0  0  0
  -21.7850   -5.1450   22.5250 C   0  0  0  0  0  0  0  0  0  0  0  0
  -22.1850   -4.5910   21.3540 F   0  0  0  0  0  0  0  0  0  0  0  0
  -21.0900   -4.1250   25.9780 F   0  0  0  0  0  0  0  0  0  0  0  0
  -22.8480  -13.8480   21.0360 C   0  0  0  0  0  0  0  0  0  0  0  0
  -22.0970  -13.1900   21.9110 N   0  0  0  0  0  0  0  0  0  0  0  0
  -22.4410  -14.8740   20.4910 O   0  0  0  0  0  0  0  0  0  0  0  0
  -22.4430  -12.3670   22.3840 H   0  0  0  0  0  0  0  0  0  0  0  0
  -21.1630  -13.5170   22.1130 H   0  0  0  0  0  0  0  0  0  0  0  0
  -25.5220  -15.4360   20.2260 N   0  0  0  0  0  0  0  0  0  0  0  0
  -24.7790  -16.1140   20.3520 H   0  0  0  0  0  0  0  0  0  0  0  0
  -26.3990  -15.8500   19.9440 H   0  0  0  0  0  0  0  0  0  0  0  0
  -29.0540  -22.7540   20.1410 C   0  0  0  0  0  3  0  0  0  0  0  0
  -28.0630  -24.2720   20.2700 C   0  0  0  0  0  3  0  0  0  0  0  0
  -28.2960  -25.9120   20.2840 O   0  0  0  0  0  0  0  0  0  0  0  0
  -24.5570  -31.8130   23.2420 C   0  0  0  0  0  0  0  0  0  0  0  0
  -27.2570  -26.9880   20.2480 C   0  0  0  0  0  0  0  0  0  0  0  0
  -23.4200  -30.3990   21.5790 C   0  0  0  0  0  3  0  0  0  0  0  0
  -24.9210  -28.8240   20.1800 C   0  0  0  0  0  0  0  0  0  0  0  0
  -25.9850  -30.6550   21.4800 C   0  0  0  0  0  2  0  0  0  0  0  0
  -26.0940  -29.2490   20.8190 C   0  0  0  0  0  0  0  0  0  0  0  0
  -27.2580  -28.3570   20.8240 C   0  0  0  0  0  3  0  0  0  0  0  0
  -26.0480  -26.7140   19.5700 C   0  0  0  0  0  3  0  0  0  0  0  0
  -24.9260  -27.5780   19.5340 C   0  0  0  0  0  3  0  0  0  0  0  0
  -23.6880  -29.7260   20.2050 C   0  0  0  0  0  2  0  0  0  0  0  0
  -24.6740  -30.9810   22.1560 N   0  0  0  0  0  0  0  0  0  0  0  0
  -23.4520  -32.0860   23.7380 O   0  0  0  0  0  0  0  0  0  0  0  0
  -22.7220  -29.3900   22.5290 C   0  0  0  0  0  0  0  0  0  0  0  0
  -21.3960  -29.2110   22.3880 N   0  0  0  0  0  0  0  0  0  0  0  0
  -23.3810  -28.7690   23.3650 O   0  0  0  0  0  0  0  0  0  0  0  0
  -20.9080  -29.7740   21.7040 H   0  0  0  0  0  0  0  0  0  0  0  0
  -18.0180  -27.9770   22.8770 C   0  0  0  0  0  0  0  0  0  0  0  0
  -20.5760  -28.2570   23.1440 C   0  0  0  0  0  3  0  0  0  0  0  0
  -20.6820  -26.8320   22.5490 C   0  0  0  0  0  2  0  0  0  0  0  0
  -19.5840  -26.5170   21.5300 C   0  0  0  0  0  2  0  0  0  0  0  0
  -18.2020  -26.6420   22.1770 C   0  0  0  0  0  2  0  0  0  0  0  0
  -19.1310  -28.7430   23.3180 C   0  0  0  0  0  0  0  0  0  0  0  0
  -18.9010  -29.9880   23.9390 C   0  0  0  0  0  3  0  0  0  0  0  0
  -17.5920  -30.4750   24.1170 C   0  0  0  0  0  3  0  0  0  0  0  0
  -16.4940  -29.7080   23.6910 C   0  0  0  0  0  3  0  0  0  0  0  0
  -16.7070  -28.4620   23.0780 C   0  0  0  0  0  3  0  0  0  0  0  0
  -25.8030  -32.4800   23.9010 C   0  0  0  0  0  3  0  0  0  0  0  0
  -26.2750  -31.7470   25.2180 C   0  0  1  0  0  0  0  0  0  0  0  0
  -25.1430  -31.5260   26.2490 C   0  0  0  0  0  1  0  0  0  0  0  0
  -26.8830  -30.3630   24.8930 C   0  0  0  0  0  1  0  0  0  0  0  0
  -27.3940  -32.5680   25.9020 C   0  0  0  0  0  1  0  0  0  0  0  0
  -25.4660  -33.8840   24.1940 N   0  0  0  0  0  0  0  0  0  0  0  0
  -25.7880  -34.9310   23.4230 C   0  0  0  0  0  0  0  0  0  0  0  0
  -26.4620  -34.8180   22.3950 O   0  0  0  0  0  0  0  0  0  0  0  0
  -24.8700  -34.0460   24.9940 H   0  0  0  0  0  0  0  0  0  0  0  0
  -24.0310  -36.6980   23.0510 C   0  0  0  0  0  1  0  0  0  0  0  0
  -25.2860  -36.3250   23.8560 C   0  0  0  0  0  3  0  0  0  0  0  0
  -27.4100  -37.2720   24.6500 C   0  0  0  0  0  1  0  0  0  0  0  0
  -26.3020  -37.3890   23.7080 N   0  0  0  0  0  0  0  0  0  0  0  0
  -25.8820  -38.3070   23.8270 H   0  0  0  0  0  0  0  0  0  0  0  0
  1  7  1  0
  1  5  1  0
  2  3  1  0
  2  6  1  0
  2  1  1  0
  4  5  1  0
  5 46  1  0
  6  3  1  0
  6  4  1  0
  7  8  1  0
  9 10  1  0
  9  7  1  0
 10 16  1  0
 11 16  1  0
 12 13  1  0
 12 11  1  0
 14 13  1  0
 14 21  1  0
 14 15  1  0
 16 15  1  0
 17 10  2  0
 18 19  2  0
 19 38  1  0
 20 19  1  0
 20 23  1  0
 21 18  1  0
 21 22  1  0
 22 20  2  0
 23 24  1  0
 24 25  2  0
 26 29  1  0
 26 25  1  0
 27 26  2  0
 28 27  1  0
 28 23  2  0
 29 30  1  0
 30 31  1  0
 31 32  2  0
 33 32  1  0
 33 37  1  0
 34 33  2  0
 35 30  2  0
 35 34  1  0
 36 35  1  0
 38 39  1  0
 39 42  1  0
 39 41  1  0
 40 38  2  0
 43 44  1  0
 43 18  1  0
 45 43  1  0
 46 47  2  0
 47 48  1  0
 49 60  2  0
 50 48  1  0
 50 55  1  0
 51 59  1  0
 51 61  1  0
 52 58  1  0
 52 54  1  0
 53 59  1  0
 54 55  2  0
 54 53  1  0
 56 50  2  0
 57 56  1  0
 57 52  2  0
 58 51  1  0
 59 49  1  0
 61 63  2  0
 62 61  1  0
 64 62  1  0
 65 74  2  0
 65 70  1  0
 66 62  1  0
 66 70  1  0
 67 66  1  0
 68 69  1  0
 68 67  1  0
 69 65  1  0
 70 71  2  0
 71 72  1  0
 73 72  2  0
 74 73  1  0
 75 49  1  0
 75 80  1  0
 75 76  1  0
 76 79  1  1
 76 77  1  0
 78 76  1  0
 80 83  1  0
 81 85  1  0
 81 80  1  0
 82 81  2  0
 85 84  1  0
 87 88  1  0
 87 85  1  0
 87 86  1  0
M  ISO  4   9 100  10 100  47 101  48 101
M  END
>  <TORSDO>  (83) 
F 19

>  <SCORE>  (83) 
-15.434

>  <name>  (83) 
82

>  <ligand_id>  (83) 
82

>  <original_smiles>  (83) 
[H]c1c([H])c([H])c2c(c1[H])C([H])([H])C([H])([H])C([H])([H])C2([H])N([H])C(=O)C1([H])N(C(=O)C([H])(N([H])C(=O)C([H])(N([H])C([H])([H])[H])C([H])([H])[H])C(C([H])([H])[H])(C([H])([H])[H])C([H])([H])[H])C([H])([H])c2c([H])c(OC([H])([H])C([H])([H])C3([H])C(C(=NC(=O)N4C([H])([H])C([H])([H])C([H])([H])C([H])(n5nc(-c6c([H])c([H])c(Oc7c([H])c([H])c(F)c([H])c7F)c([H])c6[H])c(C(=O)N([H])[H])c5N([H])[H])C4([H])[H])C([H])([H])[H])=C4C([H])([H])C4([H])C3([H])[H])c([H])c([H])c2C1([H])[H]

>  <smiles>  (83) 
[H]c1c([H])c([H])c2c(c1[H])C([H])([H])C([H])([H])C([H])([H])C2([H])N([H])C(=O)C1([H])N(C(=O)C([H])(N([H])C(=O)C([H])(N([H])C([H])([H])[H])C([H])([H])[H])C(C([H])([H])[H])(C([H])([H])[H])C([H])([H])[H])C([H])([H])c2c([H])c(OC([H])([H])C([H])([H])C3([H])C(C(=NC(=O)N4C([H])([H])C([H])([H])C([H])([H])C([H])(n5nc(-c6c([H])c([H])c(Oc7c([H])c([H])c(F)c([H])c7F)c([H])c6[H])c(C(=O)N([H])[H])c5N([H])[H])C4([H])[H])C([H])([H])[H])=C4C([H])([H])C4([H])C3([H])[H])c([H])c([H])c2C1([H])[H]

$$$$
83:0:0
     RDKit          3D

 94103  0  0  1  0  0  0  0  0999 V2000
  -26.9560  -21.4660   17.9180 C   0  0  0  0  0  3  0  0  0  0  0  0
  -27.4360  -20.1970   18.2350 C   0  0  0  0  0  3  0  0  0  0  0  0
  -27.4420  -22.5790   18.5910 C   0  0  0  0  0  3  0  0  0  0  0  0
  -28.4520  -19.9950   19.2020 C   0  0  0  0  0  0  0  0  0  0  0  0
  -28.4240  -22.4780   19.6060 C   0  0  0  0  0  0  0  0  0  0  0  0
  -28.9270  -21.1530   19.9300 C   0  0  0  0  0  0  0  0  0  0  0  0
  -29.9310  -20.9870   21.0600 C   0  0  0  0  0  1  0  0  0  0  0  0
  -28.2200  -17.3240   18.6220 C   0  0  0  0  0  2  0  0  0  0  0  0
  -29.5650  -16.6100   18.5210 C   0  0  0  0  0  2  0  0  0  0  0  0
  -29.0310  -18.5470   19.0990 C   0  0  0  0  0  3  0  0  0  0  0  0
  -30.0680  -17.4960   19.7000 C   0  0  0  0  0  3  0  0  0  0  0  0
  -30.2290  -15.4460   21.3470 C   0  0  0  0  0  3  0  0  0  0  0  0
  -29.8470  -16.7150   21.0140 C   0  0  0  0  0  0  0  0  0  0  0  0
  -30.9380  -14.4910   20.4800 C   0  0  0  0  0  0  0  0  0  0  0  0
  -30.6230  -12.4300   19.1220 C   0  0  0  0  0  2  0  0  0  0  0  0
  -29.6600  -12.7110   17.9490 C   0  0  0  0  0  2  0  0  0  0  0  0
  -28.1870  -12.5900   18.3960 C   0  0  0  0  0  2  0  0  0  0  0  0
  -27.8810  -13.3390   19.7190 C   0  0  0  0  0  3  0  0  0  0  0  0
  -28.9380  -12.9740   20.7860 C   0  0  0  0  0  2  0  0  0  0  0  0
  -30.2630  -13.3270   20.2410 N   0  0  0  0  0  0  0  0  0  0  0  0
  -32.0230  -14.7350   19.9400 O   0  0  0  0  0  0  0  0  0  0  0  0
  -25.4790  -13.9580   20.3960 C   0  0  0  0  0  0  0  0  0  0  0  0
  -24.3970  -13.1940   20.7610 C   0  0  0  0  0  0  0  0  0  0  0  0
  -24.8540  -11.8440   20.7460 C   0  0  0  0  0  0  0  0  0  0  0  0
  -26.5210  -13.0680   20.1760 N   0  0  0  0  0  0  0  0  0  0  0  0
  -26.1450  -11.7940   20.4430 N   0  0  0  0  0  0  0  0  0  0  0  0
  -24.1190  -10.5890   20.9450 C   0  0  0  0  0  0  0  0  0  0  0  0
  -24.5280   -9.6300   21.8960 C   0  0  0  0  0  3  0  0  0  0  0  0
  -23.7890   -8.4410   22.0790 C   0  0  0  0  0  3  0  0  0  0  0  0
  -22.6300   -8.2010   21.3040 C   0  0  0  0  0  0  0  0  0  0  0  0
  -22.2420   -9.1430   20.3350 C   0  0  0  0  0  3  0  0  0  0  0  0
  -22.9840  -10.3240   20.1550 C   0  0  0  0  0  3  0  0  0  0  0  0
  -21.8670   -7.0630   21.3870 O   0  0  0  0  0  0  0  0  0  0  0  0
  -21.7560   -6.3650   22.5610 C   0  0  0  0  0  0  0  0  0  0  0  0
  -21.2820   -6.9700   23.7460 C   0  0  0  0  0  3  0  0  0  0  0  0
  -21.1340   -6.1970   24.9150 C   0  0  0  0  0  3  0  0  0  0  0  0
  -21.4360   -4.8220   24.8920 C   0  0  0  0  0  0  0  0  0  0  0  0
  -21.8980   -4.2210   23.7120 C   0  0  0  0  0  3  0  0  0  0  0  0
  -22.0560   -4.9900   22.5490 C   0  0  0  0  0  0  0  0  0  0  0  0
  -22.4840   -4.4040   21.4030 F   0  0  0  0  0  0  0  0  0  0  0  0
  -21.2790   -4.0700   26.0100 F   0  0  0  0  0  0  0  0  0  0  0  0
  -23.0070  -13.6910   21.0200 C   0  0  0  0  0  0  0  0  0  0  0  0
  -22.2710  -13.0180   21.9040 N   0  0  0  0  0  0  0  0  0  0  0  0
  -22.5790  -14.7080   20.4820 O   0  0  0  0  0  0  0  0  0  0  0  0
  -22.6310  -12.1830   22.3420 H   0  0  0  0  0  0  0  0  0  0  0  0
  -21.3420  -13.3440   22.1330 H   0  0  0  0  0  0  0  0  0  0  0  0
  -25.6510  -15.3260   20.2300 N   0  0  0  0  0  0  0  0  0  0  0  0
  -24.9010  -15.9850   20.4000 H   0  0  0  0  0  0  0  0  0  0  0  0
  -26.5030  -15.7760   19.9230 H   0  0  0  0  0  0  0  0  0  0  0  0
  -29.1520  -17.4590   21.8820 O   0  0  0  0  0  0  0  0  0  0  0  0
  -28.7910  -18.1930   21.4030 H   0  0  0  0  0  0  0  0  0  0  0  0
  -28.8920  -23.8290   20.2630 C   0  0  0  0  0  2  0  0  0  0  0  0
  -28.1180  -25.1110   19.7670 C   0  0  0  0  0  2  0  0  0  0  0  0
  -28.3400  -26.4960   20.1920 O   0  0  0  0  0  0  0  0  0  0  0  0
  -24.6030  -31.8590   23.2100 C   0  0  0  0  0  0  0  0  0  0  0  0
  -27.2240  -27.3420   20.1140 C   0  0  0  0  0  0  0  0  0  0  0  0
  -23.4000  -30.4670   21.5680 C   0  0  0  0  0  3  0  0  0  0  0  0
  -24.8530  -28.9360   20.1370 C   0  0  0  0  0  0  0  0  0  0  0  0
  -25.9430  -30.7840   21.3910 C   0  0  0  0  0  2  0  0  0  0  0  0
  -26.0170  -29.4100   20.7510 C   0  0  0  0  0  0  0  0  0  0  0  0
  -27.2050  -28.6170   20.7500 C   0  0  0  0  0  3  0  0  0  0  0  0
  -26.0410  -26.9400   19.4420 C   0  0  0  0  0  3  0  0  0  0  0  0
  -24.8680  -27.7050   19.4730 C   0  0  0  0  0  3  0  0  0  0  0  0
  -23.6170  -29.8080   20.1830 C   0  0  0  0  0  2  0  0  0  0  0  0
  -24.6670  -31.0610   22.1060 N   0  0  0  0  0  0  0  0  0  0  0  0
  -23.5200  -32.1280   23.7490 O   0  0  0  0  0  0  0  0  0  0  0  0
  -22.7430  -29.4380   22.5230 C   0  0  0  0  0  0  0  0  0  0  0  0
  -21.4140  -29.2780   22.4100 N   0  0  0  0  0  0  0  0  0  0  0  0
  -23.4210  -28.7950   23.3280 O   0  0  0  0  0  0  0  0  0  0  0  0
  -20.9280  -29.8500   21.7370 H   0  0  0  0  0  0  0  0  0  0  0  0
  -18.0160  -28.1290   22.9330 C   0  0  0  0  0  0  0  0  0  0  0  0
  -20.5850  -28.3420   23.1760 C   0  0  0  0  0  3  0  0  0  0  0  0
  -20.6520  -26.9150   22.5810 C   0  0  0  0  0  2  0  0  0  0  0  0
  -19.5300  -26.6250   21.5790 C   0  0  0  0  0  2  0  0  0  0  0  0
  -18.1600  -26.7840   22.2420 C   0  0  0  0  0  2  0  0  0  0  0  0
  -19.1540  -28.8670   23.3580 C   0  0  0  0  0  0  0  0  0  0  0  0
  -18.9620  -30.1250   23.9680 C   0  0  0  0  0  3  0  0  0  0  0  0
  -17.6670  -30.6480   24.1520 C   0  0  0  0  0  3  0  0  0  0  0  0
  -16.5450  -29.9090   23.7410 C   0  0  0  0  0  3  0  0  0  0  0  0
  -16.7200  -28.6490   23.1410 C   0  0  0  0  0  3  0  0  0  0  0  0
  -25.8840  -32.4840   23.8390 C   0  0  0  0  0  3  0  0  0  0  0  0
  -25.5750  -33.8790   24.1800 N   0  0  0  0  0  0  0  0  0  0  0  0
  -25.9060  -34.9350   23.4250 C   0  0  0  0  0  0  0  0  0  0  0  0
  -26.5760  -34.8360   22.3950 O   0  0  0  0  0  0  0  0  0  0  0  0
  -24.9810  -34.0270   24.9830 H   0  0  0  0  0  0  0  0  0  0  0  0
  -24.1810  -36.7300   23.0690 C   0  0  0  0  0  1  0  0  0  0  0  0
  -25.4180  -36.3210   23.8860 C   0  0  0  0  0  3  0  0  0  0  0  0
  -27.5530  -37.1990   24.7280 C   0  0  0  0  0  1  0  0  0  0  0  0
  -26.4540  -37.3720   23.7820 N   0  0  0  0  0  0  0  0  0  0  0  0
  -26.0520  -38.2960   23.9230 H   0  0  0  0  0  0  0  0  0  0  0  0
  -26.3990  -31.7000   25.1100 C   0  0  1  0  0  0  0  0  0  0  0  0
  -25.3080  -31.4510   26.1780 C   0  0  0  0  0  1  0  0  0  0  0  0
  -26.9800  -30.3260   24.7070 C   0  0  0  0  0  1  0  0  0  0  0  0
  -27.5550  -32.4850   25.7720 C   0  0  0  0  0  1  0  0  0  0  0  0
  1  2  2  0
  1  3  1  0
  2  4  1  0
  3  5  2  0
  4  6  2  0
  5  6  1  0
  5 52  1  0
  6  7  1  0
  8 10  1  0
  9  8  1  0
  9 11  1  0
 10  4  1  0
 10 11  1  0
 11 13  1  0
 13 12  2  0
 13 50  1  0
 14 12  1  0
 15 20  1  0
 16 17  1  0
 16 15  1  0
 18 17  1  0
 18 25  1  0
 18 19  1  0
 20 14  1  0
 20 19  1  0
 21 14  2  0
 22 23  2  0
 23 42  1  0
 24 23  1  0
 24 27  1  0
 25 22  1  0
 25 26  1  0
 26 24  2  0
 27 28  1  0
 28 29  2  0
 30 33  1  0
 30 29  1  0
 31 30  2  0
 32 31  1  0
 32 27  2  0
 33 34  1  0
 34 35  1  0
 35 36  2  0
 37 36  1  0
 37 41  1  0
 38 37  2  0
 39 34  2  0
 39 38  1  0
 40 39  1  0
 42 43  1  0
 43 46  1  0
 43 45  1  0
 44 42  2  0
 47 22  1  0
 47 48  1  0
 49 47  1  0
 51 50  1  0
 53 54  1  0
 53 52  1  0
 55 66  2  0
 56 54  1  0
 56 61  1  0
 57 65  1  0
 57 67  1  0
 58 64  1  0
 58 60  1  0
 59 65  1  0
 60 59  1  0
 61 60  2  0
 62 63  1  0
 62 56  2  0
 63 58  2  0
 64 57  1  0
 65 55  1  0
 67 69  2  0
 68 67  1  0
 70 68  1  0
 71 80  2  0
 71 76  1  0
 72 68  1  0
 72 76  1  0
 73 72  1  0
 74 75  1  0
 74 73  1  0
 75 71  1  0
 76 77  2  0
 77 78  1  0
 79 78  2  0
 80 79  1  0
 81 55  1  0
 81 82  1  0
 81 91  1  0
 82 85  1  0
 83 87  1  0
 83 82  1  0
 84 83  2  0
 87 86  1  0
 89 87  1  0
 89 90  1  0
 89 88  1  0
 91 94  1  1
 91 92  1  0
 93 91  1  0
M  ISO  4  12 100  14 100  53 101  54 101
M  END
>  <TORSDO>  (84) 
F 21

>  <SCORE>  (84) 
-13.721

>  <name>  (84) 
83

>  <ligand_id>  (84) 
83

>  <original_smiles>  (84) 
[H]OC(=C([H])C(=O)N1C([H])([H])C([H])([H])C([H])([H])C([H])(n2nc(-c3c([H])c([H])c(Oc4c([H])c([H])c(F)c([H])c4F)c([H])c3[H])c(C(=O)N([H])[H])c2N([H])[H])C1([H])[H])C1([H])C([H])([H])C([H])([H])C1([H])c1c([H])c([H])c([H])c(C([H])([H])C([H])([H])Oc2c([H])c([H])c3c(c2[H])C([H])([H])N(C(=O)C([H])(N([H])C(=O)C([H])(N([H])C([H])([H])[H])C([H])([H])[H])C(C([H])([H])[H])(C([H])([H])[H])C([H])([H])[H])C([H])(C(=O)N([H])C2([H])c4c([H])c([H])c([H])c([H])c4C([H])([H])C([H])([H])C2([H])[H])C3([H])[H])c1C([H])([H])[H]

>  <smiles>  (84) 
[H]OC(=C([H])C(=O)N1C([H])([H])C([H])([H])C([H])([H])C([H])(n2nc(-c3c([H])c([H])c(Oc4c([H])c([H])c(F)c([H])c4F)c([H])c3[H])c(C(=O)N([H])[H])c2N([H])[H])C1([H])[H])C1([H])C([H])([H])C([H])([H])C1([H])c1c([H])c([H])c([H])c(C([H])([H])C([H])([H])Oc2c([H])c([H])c3c(c2[H])C([H])([H])N(C(=O)C([H])(N([H])C(=O)C([H])(N([H])C([H])([H])[H])C([H])([H])[H])C(C([H])([H])[H])(C([H])([H])[H])C([H])([H])[H])C([H])(C(=O)N([H])C2([H])c4c([H])c([H])c([H])c([H])c4C([H])([H])C([H])([H])C2([H])[H])C3([H])[H])c1C([H])([H])[H]

$$$$
84:0:0
     RDKit          3D

 98105  0  0  1  0  0  0  0  0999 V2000
  -30.0770  -18.4990   20.3060 C   0  0  1  0  0  0  0  0  0  0  0  0
  -32.1570  -17.7730   18.8570 C   0  0  0  0  0  1  0  0  0  0  0  0
  -31.4520  -18.8670   19.6680 C   0  0  0  0  0  2  0  0  0  0  0  0
  -29.0070  -18.1760   19.2130 C   0  0  0  0  0  2  0  0  0  0  0  0
  -29.1860  -18.8510   17.8290 C   0  0  0  0  0  2  0  0  0  0  0  0
  -27.8990  -18.8490   16.9850 C   0  0  0  0  0  2  0  0  0  0  0  0
  -28.1090  -19.3240   15.5290 C   0  0  0  0  0  2  0  0  0  0  0  0
  -28.8470  -18.3470   14.7100 N   0  0  0  0  0  4  0  0  0  0  0  0
  -29.7630  -18.1780   15.0820 H   0  0  0  0  0  0  0  0  0  0  0  0
  -28.9510  -18.6980   13.7750 H   0  0  0  0  0  0  0  0  0  0  0  0
  -28.3480  -17.4770   14.6590 H   0  0  0  0  0  0  0  0  0  0  0  0
  -30.2910  -17.1910   21.2490 C   0  0  0  0  0  2  0  0  0  0  0  0
  -30.7040  -14.6750   20.5420 C   0  0  0  0  0  0  0  0  0  0  0  0
  -30.4640  -12.4960   19.3530 C   0  0  0  0  0  2  0  0  0  0  0  0
  -29.5450  -12.6920   18.1270 C   0  0  0  0  0  2  0  0  0  0  0  0
  -28.0610  -12.5380   18.5240 C   0  0  0  0  0  2  0  0  0  0  0  0
  -27.6940  -13.3460   19.7990 C   0  0  0  0  0  3  0  0  0  0  0  0
  -28.7320  -13.1360   20.9200 C   0  0  0  0  0  2  0  0  0  0  0  0
  -30.0480  -13.4850   20.3690 N   0  0  0  0  0  0  0  0  0  0  0  0
  -31.9050  -14.7750   20.2930 O   0  0  0  0  0  0  0  0  0  0  0  0
  -29.9290  -15.7800   20.8150 N   0  0  0  0  0  0  0  0  0  0  0  0
  -28.9480  -15.5650   20.8890 H   0  0  0  0  0  0  0  0  0  0  0  0
  -25.3040  -13.9440   20.5140 C   0  0  0  0  0  0  0  0  0  0  0  0
  -24.2200  -13.1690   20.8260 C   0  0  0  0  0  0  0  0  0  0  0  0
  -24.6620  -11.8120   20.7310 C   0  0  0  0  0  0  0  0  0  0  0  0
  -26.3360  -13.0580   20.2490 N   0  0  0  0  0  0  0  0  0  0  0  0
  -25.9560  -11.7690   20.4410 N   0  0  0  0  0  0  0  0  0  0  0  0
  -23.9130  -10.5540   20.8400 C   0  0  0  0  0  0  0  0  0  0  0  0
  -24.3150   -9.5280   21.7230 C   0  0  0  0  0  3  0  0  0  0  0  0
  -23.5630   -8.3370   21.8250 C   0  0  0  0  0  3  0  0  0  0  0  0
  -22.3970   -8.1650   21.0420 C   0  0  0  0  0  0  0  0  0  0  0  0
  -22.0160   -9.1780   20.1430 C   0  0  0  0  0  3  0  0  0  0  0  0
  -22.7670  -10.3600   20.0420 C   0  0  0  0  0  3  0  0  0  0  0  0
  -21.6220   -7.0300   21.0530 O   0  0  0  0  0  0  0  0  0  0  0  0
  -21.5350   -6.2290   22.1620 C   0  0  0  0  0  0  0  0  0  0  0  0
  -21.0470   -6.7130   23.3940 C   0  0  0  0  0  3  0  0  0  0  0  0
  -20.9120   -5.8380   24.4920 C   0  0  0  0  0  3  0  0  0  0  0  0
  -21.2560   -4.4790   24.3540 C   0  0  0  0  0  0  0  0  0  0  0  0
  -21.7340   -3.9940   23.1240 C   0  0  0  0  0  3  0  0  0  0  0  0
  -21.8720   -4.8670   22.0310 C   0  0  0  0  0  0  0  0  0  0  0  0
  -22.3160   -4.3920   20.8420 F   0  0  0  0  0  0  0  0  0  0  0  0
  -21.1200   -3.6340   25.4040 F   0  0  0  0  0  0  0  0  0  0  0  0
  -22.8270  -13.6520   21.0990 C   0  0  0  0  0  0  0  0  0  0  0  0
  -22.0810  -12.9260   21.9240 N   0  0  0  0  0  0  0  0  0  0  0  0
  -22.4090  -14.7050   20.6170 O   0  0  0  0  0  0  0  0  0  0  0  0
  -22.4320  -12.0730   22.3330 H   0  0  0  0  0  0  0  0  0  0  0  0
  -21.1440  -13.2280   22.1470 H   0  0  0  0  0  0  0  0  0  0  0  0
  -25.4930  -15.3180   20.4060 N   0  0  0  0  0  0  0  0  0  0  0  0
  -24.7270  -15.9750   20.5190 H   0  0  0  0  0  0  0  0  0  0  0  0
  -26.3370  -15.7530   20.0610 H   0  0  0  0  0  0  0  0  0  0  0  0
  -29.5740  -19.7970   21.1560 C   0  0  0  0  0  2  0  0  0  0  0  0
  -29.6240  -21.1880   20.5160 N   0  0  0  0  0  4  0  0  0  0  0  0
  -30.5920  -21.4630   20.4880 H   0  0  0  0  0  0  0  0  0  0  0  0
  -29.3110  -21.1020   19.5650 H   0  0  0  0  0  0  0  0  0  0  0  0
  -28.8340  -22.3380   21.1380 C   0  0  0  0  0  2  0  0  0  0  0  0
  -29.0700  -23.8190   20.5440 C   0  0  0  0  0  3  0  0  0  0  0  0
  -28.1990  -25.0450   21.0970 C   0  0  0  0  0  3  0  0  0  0  0  0
  -28.4640  -26.4310   20.6140 O   0  0  0  0  0  0  0  0  0  0  0  0
  -24.5700  -31.8570   23.3620 C   0  0  0  0  0  0  0  0  0  0  0  0
  -27.3660  -27.2950   20.4980 C   0  0  0  0  0  0  0  0  0  0  0  0
  -23.4650  -30.4390   21.6680 C   0  0  0  0  0  3  0  0  0  0  0  0
  -25.0010  -28.8910   20.3290 C   0  0  0  0  0  0  0  0  0  0  0  0
  -26.0060  -30.7770   21.6210 C   0  0  0  0  0  2  0  0  0  0  0  0
  -26.1290  -29.3930   20.9930 C   0  0  0  0  0  0  0  0  0  0  0  0
  -27.3170  -28.6050   21.0690 C   0  0  0  0  0  3  0  0  0  0  0  0
  -26.2290  -26.8580   19.7860 C   0  0  0  0  0  3  0  0  0  0  0  0
  -25.0530  -27.6290   19.7190 C   0  0  0  0  0  3  0  0  0  0  0  0
  -23.7580  -29.7550   20.3040 C   0  0  0  0  0  2  0  0  0  0  0  0
  -24.6950  -31.0440   22.2730 N   0  0  0  0  0  0  0  0  0  0  0  0
  -23.4580  -32.1300   23.8370 O   0  0  0  0  0  0  0  0  0  0  0  0
  -22.7620  -29.4200   22.5970 C   0  0  0  0  0  0  0  0  0  0  0  0
  -21.4400  -29.2510   22.4190 N   0  0  0  0  0  0  0  0  0  0  0  0
  -23.4070  -28.7870   23.4380 O   0  0  0  0  0  0  0  0  0  0  0  0
  -20.9790  -29.8170   21.7200 H   0  0  0  0  0  0  0  0  0  0  0  0
  -18.0310  -28.1130   22.8210 C   0  0  0  0  0  0  0  0  0  0  0  0
  -20.5870  -28.3150   23.1530 C   0  0  0  0  0  3  0  0  0  0  0  0
  -20.6720  -26.8920   22.5520 C   0  0  0  0  0  2  0  0  0  0  0  0
  -19.5870  -26.6120   21.5080 C   0  0  0  0  0  2  0  0  0  0  0  0
  -18.1950  -26.7730   22.1240 C   0  0  0  0  0  2  0  0  0  0  0  0
  -19.1540  -28.8450   23.2890 C   0  0  0  0  0  0  0  0  0  0  0  0
  -18.9470  -30.1030   23.8950 C   0  0  0  0  0  3  0  0  0  0  0  0
  -17.6490  -30.6260   24.0430 C   0  0  0  0  0  3  0  0  0  0  0  0
  -16.5400  -29.8910   23.5930 C   0  0  0  0  0  3  0  0  0  0  0  0
  -16.7310  -28.6370   22.9870 C   0  0  0  0  0  3  0  0  0  0  0  0
  -25.8130  -32.5020   24.0460 C   0  0  0  0  0  3  0  0  0  0  0  0
  -25.5000  -33.9150   24.3000 N   0  0  0  0  0  0  0  0  0  0  0  0
  -25.8840  -34.9330   23.5180 C   0  0  0  0  0  0  0  0  0  0  0  0
  -26.6110  -34.7820   22.5320 O   0  0  0  0  0  0  0  0  0  0  0  0
  -24.8630  -34.1090   25.0600 H   0  0  0  0  0  0  0  0  0  0  0  0
  -24.1990  -36.7250   22.9870 C   0  0  0  0  0  1  0  0  0  0  0  0
  -25.3840  -36.3440   23.8880 C   0  0  0  0  0  3  0  0  0  0  0  0
  -27.4660  -37.2550   24.8210 C   0  0  0  0  0  1  0  0  0  0  0  0
  -26.4340  -37.3830   23.7960 N   0  0  0  0  0  0  0  0  0  0  0  0
  -26.0270  -38.3120   23.8690 H   0  0  0  0  0  0  0  0  0  0  0  0
  -26.2320  -31.7760   25.3840 C   0  0  1  0  0  0  0  0  0  0  0  0
  -25.0650  -31.5870   26.3810 C   0  0  0  0  0  1  0  0  0  0  0  0
  -26.8290  -30.3810   25.0890 C   0  0  0  0  0  1  0  0  0  0  0  0
  -27.3410  -32.5870   26.0960 C   0  0  0  0  0  1  0  0  0  0  0  0
  1  4  1  6
  1 51  1  0
  1 12  1  0
  2  3  1  0
  3  1  1  0
  5  4  1  0
  6  5  1  0
  7  6  1  0
  8  9  1  0
  8  7  1  0
 10  8  1  0
 11  8  1  0
 13 21  1  0
 14 19  1  0
 15 16  1  0
 15 14  1  0
 17 16  1  0
 17 26  1  0
 17 18  1  0
 19 13  1  0
 19 18  1  0
 20 13  2  0
 21 22  1  0
 21 12  1  0
 23 24  2  0
 24 43  1  0
 25 24  1  0
 25 28  1  0
 26 27  1  0
 26 23  1  0
 27 25  2  0
 28 29  1  0
 29 30  2  0
 31 34  1  0
 31 30  1  0
 32 31  2  0
 33 32  1  0
 33 28  2  0
 34 35  1  0
 35 36  1  0
 36 37  2  0
 38 37  1  0
 38 42  1  0
 39 38  2  0
 40 35  2  0
 40 39  1  0
 41 40  1  0
 43 44  1  0
 44 47  1  0
 44 46  1  0
 45 43  2  0
 48 23  1  0
 48 49  1  0
 50 48  1  0
 52 55  1  0
 52 51  1  0
 53 52  1  0
 54 52  1  0
 56 57  2  0
 56 55  1  0
 58 57  1  0
 59 70  2  0
 60 58  1  0
 60 65  1  0
 61 69  1  0
 61 71  1  0
 62 64  1  0
 63 69  1  0
 64 65  2  0
 64 63  1  0
 66 60  2  0
 67 66  1  0
 67 62  2  0
 68 62  1  0
 68 61  1  0
 69 59  1  0
 71 73  2  0
 72 71  1  0
 74 72  1  0
 75 84  2  0
 75 80  1  0
 76 72  1  0
 76 80  1  0
 77 76  1  0
 78 79  1  0
 78 77  1  0
 79 75  1  0
 80 81  2  0
 81 82  1  0
 83 82  2  0
 84 83  1  0
 85 59  1  0
 85 86  1  0
 85 95  1  0
 86 89  1  0
 87 91  1  0
 87 86  1  0
 88 87  2  0
 91 90  1  0
 93 94  1  0
 93 91  1  0
 93 92  1  0
 95 98  1  1
 95 96  1  0
 97 95  1  0
M  ISO  4  13 100  21 100  57 101  58 101
M  END
>  <TORSDO>  (85) 
F 28

>  <SCORE>  (85) 
-11.366

>  <name>  (85) 
84

>  <ligand_id>  (85) 
84

>  <original_smiles>  (85) 
[H]c1c([H])c([H])c2c(c1[H])C([H])([H])C([H])([H])C([H])([H])C2([H])N([H])C(=O)C1([H])N(C(=O)C([H])(N([H])C(=O)C([H])(N([H])C([H])([H])[H])C([H])([H])[H])C(C([H])([H])[H])(C([H])([H])[H])C([H])([H])[H])C([H])([H])c2c([H])c(OC([H])([H])C([H])([H])C([H])([H])[N+]([H])([H])C([H])([H])C(C([H])([H])N([H])C(=O)N3C([H])([H])C([H])([H])C([H])([H])C([H])(n4nc(-c5c([H])c([H])c(Oc6c([H])c([H])c(F)c([H])c6F)c([H])c5[H])c(C(=O)N([H])[H])c4N([H])[H])C3([H])[H])(C([H])([H])C([H])([H])[H])C([H])([H])C([H])([H])C([H])([H])C([H])([H])[N+]([H])([H])[H])c([H])c([H])c2C1([H])[H]

>  <smiles>  (85) 
[H]c1c([H])c([H])c2c(c1[H])C([H])([H])C([H])([H])C([H])([H])C2([H])N([H])C(=O)C1([H])N(C(=O)C([H])(N([H])C(=O)C([H])(N([H])C([H])([H])[H])C([H])([H])[H])C(C([H])([H])[H])(C([H])([H])[H])C([H])([H])[H])C([H])([H])c2c([H])c(OC([H])([H])C([H])([H])C([H])([H])[N+]([H])([H])C([H])([H])C(C([H])([H])N([H])C(=O)N3C([H])([H])C([H])([H])C([H])([H])C([H])(n4nc(-c5c([H])c([H])c(Oc6c([H])c([H])c(F)c([H])c6F)c([H])c5[H])c(C(=O)N([H])[H])c4N([H])[H])C3([H])[H])(C([H])([H])C([H])([H])[H])C([H])([H])C([H])([H])C([H])([H])C([H])([H])[N+]([H])([H])[H])c([H])c([H])c2C1([H])[H]

$$$$
85:0:0
     RDKit          3D

 93102  0  0  1  0  0  0  0  0999 V2000
  -29.1790  -16.1750   18.8520 C   0  0  0  0  0  3  0  0  0  0  0  0
  -28.5590  -17.3590   18.4260 C   0  0  0  0  0  3  0  0  0  0  0  0
  -30.3900  -17.4190   20.5300 C   0  0  0  0  0  3  0  0  0  0  0  0
  -30.0810  -16.1380   19.9370 C   0  0  0  0  0  0  0  0  0  0  0  0
  -28.8540  -18.5950   19.0260 C   0  0  0  0  0  0  0  0  0  0  0  0
  -29.7950  -18.6690   20.0860 C   0  0  0  0  0  0  0  0  0  0  0  0
  -28.1700  -19.8230   18.4510 C   0  0  0  0  0  2  0  0  0  0  0  0
  -28.1430  -21.0240   19.3940 C   0  0  0  0  0  2  0  0  0  0  0  0
  -29.5460  -21.3580   19.9160 C   0  0  0  0  0  3  0  0  0  0  0  0
  -30.1470  -20.0840   20.7040 C   0  0  2  0  0  0  0  0  0  0  0  0
  -31.6810  -20.2410   20.7400 C   0  0  0  0  0  1  0  0  0  0  0  0
  -29.6220  -20.0940   22.1530 C   0  0  0  0  0  1  0  0  0  0  0  0
  -30.8370  -14.8110   20.2080 C   0  0  0  0  0  0  0  0  0  0  0  0
  -30.5910  -12.5380   19.2490 C   0  0  0  0  0  2  0  0  0  0  0  0
  -29.6510  -12.5950   18.0260 C   0  0  0  0  0  2  0  0  0  0  0  0
  -28.1720  -12.4820   18.4550 C   0  0  0  0  0  2  0  0  0  0  0  0
  -27.8030  -13.3620   19.6800 C   0  0  0  0  0  3  0  0  0  0  0  0
  -28.8770  -13.3040   20.7850 C   0  0  0  0  0  2  0  0  0  0  0  0
  -30.1800  -13.6050   20.1820 N   0  0  0  0  0  0  0  0  0  0  0  0
  -32.0600  -14.8580   20.0620 O   0  0  0  0  0  0  0  0  0  0  0  0
  -25.4250  -13.9600   20.4230 C   0  0  0  0  0  0  0  0  0  0  0  0
  -24.3600  -13.1850   20.7930 C   0  0  0  0  0  0  0  0  0  0  0  0
  -24.8270  -11.8350   20.7680 C   0  0  0  0  0  0  0  0  0  0  0  0
  -26.4670  -13.0780   20.1870 N   0  0  0  0  0  0  0  0  0  0  0  0
  -26.1170  -11.7970   20.4610 N   0  0  0  0  0  0  0  0  0  0  0  0
  -24.1070  -10.5720   20.9590 C   0  0  0  0  0  0  0  0  0  0  0  0
  -24.5370   -9.6130   21.9030 C   0  0  0  0  0  3  0  0  0  0  0  0
  -23.8180   -8.4130   22.0830 C   0  0  0  0  0  3  0  0  0  0  0  0
  -22.6540   -8.1620   21.3170 C   0  0  0  0  0  0  0  0  0  0  0  0
  -22.2430   -9.1100   20.3620 C   0  0  0  0  0  3  0  0  0  0  0  0
  -22.9640  -10.3020   20.1810 C   0  0  0  0  0  3  0  0  0  0  0  0
  -21.9060   -7.0140   21.4070 O   0  0  0  0  0  0  0  0  0  0  0  0
  -21.8330   -6.2920   22.5700 C   0  0  0  0  0  0  0  0  0  0  0  0
  -21.3710   -6.8640   23.7750 C   0  0  0  0  0  3  0  0  0  0  0  0
  -21.2480   -6.0670   24.9310 C   0  0  0  0  0  3  0  0  0  0  0  0
  -21.5750   -4.6980   24.8820 C   0  0  0  0  0  0  0  0  0  0  0  0
  -22.0310   -4.1260   23.6810 C   0  0  0  0  0  3  0  0  0  0  0  0
  -22.1570   -4.9210   22.5270 C   0  0  0  0  0  0  0  0  0  0  0  0
  -22.5750   -4.3590   21.3680 F   0  0  0  0  0  0  0  0  0  0  0  0
  -21.4490   -3.9310   25.9890 F   0  0  0  0  0  0  0  0  0  0  0  0
  -22.9600  -13.6590   21.0610 C   0  0  0  0  0  0  0  0  0  0  0  0
  -22.2350  -12.9630   21.9300 N   0  0  0  0  0  0  0  0  0  0  0  0
  -22.5190  -14.6800   20.5360 O   0  0  0  0  0  0  0  0  0  0  0  0
  -22.6050  -12.1360   22.3740 H   0  0  0  0  0  0  0  0  0  0  0  0
  -21.2960  -13.2630   22.1530 H   0  0  0  0  0  0  0  0  0  0  0  0
  -25.5870  -15.3310   20.2430 N   0  0  0  0  0  0  0  0  0  0  0  0
  -24.8250  -15.9900   20.3600 H   0  0  0  0  0  0  0  0  0  0  0  0
  -26.4510  -15.7710   19.9520 H   0  0  0  0  0  0  0  0  0  0  0  0
  -29.5380  -22.7900   20.6360 C   0  0  0  0  0  2  0  0  0  0  0  0
  -29.2330  -24.0960   19.7980 C   0  0  0  0  0  0  0  0  0  0  0  0
  -29.5370  -24.1510   18.6030 O   0  0  0  0  0  0  0  0  0  0  0  0
  -28.5460  -25.3290   20.5020 C   0  0  0  0  0  2  0  0  0  0  0  0
  -28.6580  -26.6340   19.8190 O   0  0  0  0  0  0  0  0  0  0  0  0
  -24.6870  -31.7040   23.0540 C   0  0  0  0  0  0  0  0  0  0  0  0
  -27.5060  -27.4240   19.8270 C   0  0  0  0  0  0  0  0  0  0  0  0
  -23.5490  -30.3300   21.3460 C   0  0  0  0  0  3  0  0  0  0  0  0
  -25.0710  -28.9070   19.8640 C   0  0  0  0  0  0  0  0  0  0  0  0
  -26.0690  -30.7740   21.1860 C   0  0  0  0  0  2  0  0  0  0  0  0
  -26.2120  -29.4310   20.4840 C   0  0  0  0  0  0  0  0  0  0  0  0
  -27.4370  -28.7020   20.4530 C   0  0  0  0  0  3  0  0  0  0  0  0
  -26.3450  -26.9430   19.1860 C   0  0  0  0  0  3  0  0  0  0  0  0
  -25.1380  -27.6680   19.2040 C   0  0  0  0  0  3  0  0  0  0  0  0
  -23.7960  -29.7220   19.9390 C   0  0  0  0  0  2  0  0  0  0  0  0
  -24.7870  -30.9510   21.9200 N   0  0  0  0  0  0  0  0  0  0  0  0
  -23.5920  -31.9110   23.5960 O   0  0  0  0  0  0  0  0  0  0  0  0
  -22.9270  -29.2460   22.2570 C   0  0  0  0  0  0  0  0  0  0  0  0
  -21.6030  -29.0450   22.1410 N   0  0  0  0  0  0  0  0  0  0  0  0
  -23.6330  -28.5890   23.0260 O   0  0  0  0  0  0  0  0  0  0  0  0
  -21.0920  -29.6290   21.4940 H   0  0  0  0  0  0  0  0  0  0  0  0
  -18.2570  -27.7670   22.6420 C   0  0  0  0  0  0  0  0  0  0  0  0
  -20.8180  -28.0480   22.8680 C   0  0  0  0  0  3  0  0  0  0  0  0
  -20.9250  -26.6580   22.1990 C   0  0  0  0  0  2  0  0  0  0  0  0
  -19.8040  -26.3840   21.1930 C   0  0  0  0  0  2  0  0  0  0  0  0
  -18.4360  -26.4660   21.8760 C   0  0  0  0  0  2  0  0  0  0  0  0
  -19.3760  -28.5180   23.0930 C   0  0  0  0  0  0  0  0  0  0  0  0
  -19.1540  -29.7360   23.7700 C   0  0  0  0  0  3  0  0  0  0  0  0
  -17.8470  -30.2060   23.9980 C   0  0  0  0  0  3  0  0  0  0  0  0
  -16.7430  -29.4520   23.5620 C   0  0  0  0  0  3  0  0  0  0  0  0
  -16.9500  -28.2340   22.8900 C   0  0  0  0  0  3  0  0  0  0  0  0
  -25.9420  -32.3590   23.7120 C   0  0  0  0  0  3  0  0  0  0  0  0
  -26.4970  -31.5420   24.9420 C   0  0  1  0  0  0  0  0  0  0  0  0
  -25.4210  -31.1990   25.9990 C   0  0  0  0  0  1  0  0  0  0  0  0
  -27.1350  -30.2130   24.4720 C   0  0  0  0  0  1  0  0  0  0  0  0
  -27.6180  -32.3450   25.6420 C   0  0  0  0  0  1  0  0  0  0  0  0
  -25.5680  -33.7200   24.1210 N   0  0  0  0  0  0  0  0  0  0  0  0
  -25.8550  -34.8300   23.4270 C   0  0  0  0  0  0  0  0  0  0  0  0
  -26.5310  -34.8170   22.3960 O   0  0  0  0  0  0  0  0  0  0  0  0
  -24.9650  -33.8000   24.9270 H   0  0  0  0  0  0  0  0  0  0  0  0
  -24.0470  -36.5600   23.1700 C   0  0  0  0  0  1  0  0  0  0  0  0
  -25.3030  -36.1660   23.9620 C   0  0  0  0  0  3  0  0  0  0  0  0
  -27.3920  -37.0980   24.8540 C   0  0  0  0  0  1  0  0  0  0  0  0
  -26.2880  -37.2680   23.9150 N   0  0  0  0  0  0  0  0  0  0  0  0
  -25.8400  -38.1610   24.1090 H   0  0  0  0  0  0  0  0  0  0  0  0
  1  4  1  0
  2  1  2  0
  2  5  1  0
  4 13  1  0
  4  3  2  0
  5  6  2  0
  6  3  1  0
  6 10  1  0
  7  5  1  0
  7  8  1  0
  8  9  1  0
  9 49  1  0
  9 10  1  0
 10 11  1  1
 10 12  1  0
 14 19  1  0
 15 16  1  0
 15 14  1  0
 17 16  1  0
 17 24  1  0
 17 18  1  0
 19 13  1  0
 19 18  1  0
 20 13  2  0
 21 22  2  0
 22 41  1  0
 23 22  1  0
 23 26  1  0
 24 21  1  0
 24 25  1  0
 25 23  2  0
 26 27  1  0
 27 28  2  0
 29 32  1  0
 29 28  1  0
 30 29  2  0
 31 30  1  0
 31 26  2  0
 32 33  1  0
 33 34  1  0
 34 35  2  0
 36 35  1  0
 36 40  1  0
 37 36  2  0
 38 33  2  0
 38 37  1  0
 39 38  1  0
 41 42  1  0
 42 45  1  0
 42 44  1  0
 43 41  2  0
 46 47  1  0
 46 21  1  0
 48 46  1  0
 50 52  1  0
 50 49  1  0
 51 50  2  0
 53 55  1  0
 53 52  1  0
 54 65  2  0
 55 60  1  0
 56 64  1  0
 56 66  1  0
 57 63  1  0
 57 59  1  0
 58 64  1  0
 59 58  1  0
 60 59  2  0
 61 62  1  0
 61 55  2  0
 62 57  2  0
 63 56  1  0
 64 54  1  0
 66 68  2  0
 67 66  1  0
 69 67  1  0
 70 79  2  0
 70 75  1  0
 71 67  1  0
 71 75  1  0
 72 71  1  0
 73 74  1  0
 73 72  1  0
 74 70  1  0
 75 76  2  0
 76 77  1  0
 78 77  2  0
 79 78  1  0
 80 54  1  0
 80 85  1  0
 80 81  1  0
 81 84  1  1
 81 82  1  0
 83 81  1  0
 85 88  1  0
 86 90  1  0
 86 85  1  0
 87 86  2  0
 90 89  1  0
 92 90  1  0
 92 93  1  0
 92 91  1  0
M  ISO  4   4 100  13 100  52 101  53 101
M  END
>  <TORSDO>  (86) 
F 19

>  <SCORE>  (86) 
-13.224

>  <name>  (86) 
85

>  <ligand_id>  (86) 
85

>  <original_smiles>  (86) 
[H]c1c([H])c([H])c2c(c1[H])C([H])([H])C([H])([H])C([H])([H])C2([H])N([H])C(=O)C1([H])N(C(=O)C([H])(N([H])C(=O)C([H])(N([H])C([H])([H])[H])C([H])([H])[H])C(C([H])([H])[H])(C([H])([H])[H])C([H])([H])[H])C([H])([H])c2c([H])c(OC([H])([H])C(=O)C([H])([H])C3([H])C([H])([H])C([H])([H])c4c([H])c([H])c(C(=O)N5C([H])([H])C([H])([H])C([H])([H])C([H])(n6nc(-c7c([H])c([H])c(Oc8c([H])c([H])c(F)c([H])c8F)c([H])c7[H])c(C(=O)N([H])[H])c6N([H])[H])C5([H])[H])c([H])c4C3(C([H])([H])[H])C([H])([H])[H])c([H])c([H])c2C1([H])[H]

>  <smiles>  (86) 
[H]c1c([H])c([H])c2c(c1[H])C([H])([H])C([H])([H])C([H])([H])C2([H])N([H])C(=O)C1([H])N(C(=O)C([H])(N([H])C(=O)C([H])(N([H])C([H])([H])[H])C([H])([H])[H])C(C([H])([H])[H])(C([H])([H])[H])C([H])([H])[H])C([H])([H])c2c([H])c(OC([H])([H])C(=O)C([H])([H])C3([H])C([H])([H])C([H])([H])c4c([H])c([H])c(C(=O)N5C([H])([H])C([H])([H])C([H])([H])C([H])(n6nc(-c7c([H])c([H])c(Oc8c([H])c([H])c(F)c([H])c8F)c([H])c7[H])c(C(=O)N([H])[H])c6N([H])[H])C5([H])[H])c([H])c4C3(C([H])([H])[H])C([H])([H])[H])c([H])c([H])c2C1([H])[H]

$$$$
86:0:0
     RDKit          3D

 98106  0  0  1  0  0  0  0  0999 V2000
  -27.7150  -20.4850   23.0150 C   0  0  0  0  0  2  0  0  0  0  0  0
  -30.7830  -20.6060   20.6800 C   0  0  0  0  0  3  0  0  0  0  0  0
  -30.1330  -21.1570   23.3490 C   0  0  0  0  0  3  0  0  0  0  0  0
  -29.4670  -20.3790   21.1350 C   0  0  0  0  0  0  0  0  0  0  0  0
  -31.4380  -21.4160   22.8860 C   0  0  0  0  0  0  0  0  0  0  0  0
  -31.7710  -21.1290   21.5390 C   0  0  0  0  0  0  0  0  0  0  0  0
  -29.1340  -20.6660   22.4810 C   0  0  0  0  0  0  0  0  0  0  0  0
  -28.4410  -19.8490   20.1470 C   0  0  0  0  0  1  0  0  0  0  0  0
  -32.4470  -22.0090   23.8570 C   0  0  0  0  0  1  0  0  0  0  0  0
  -33.1580  -21.3910   20.9740 C   0  0  0  0  0  2  0  0  0  0  0  0
  -33.1280  -21.5530   19.4440 C   0  0  0  0  0  2  0  0  0  0  0  0
  -34.6950  -20.8750   17.6830 C   0  0  0  0  0  0  0  0  0  0  0  0
  -35.3930  -18.8200   16.5170 C   0  0  0  0  0  2  0  0  0  0  0  0
  -34.2490  -18.1870   15.7080 C   0  0  0  0  0  2  0  0  0  0  0  0
  -33.4020  -17.2540   16.5960 C   0  0  0  0  0  2  0  0  0  0  0  0
  -32.9770  -17.9260   17.9260 C   0  0  0  0  0  3  0  0  0  0  0  0
  -34.1940  -18.5780   18.6170 C   0  0  0  0  0  2  0  0  0  0  0  0
  -34.8180  -19.5220   17.6740 N   0  0  0  0  0  0  0  0  0  0  0  0
  -35.0110  -21.5930   16.7340 O   0  0  0  0  0  0  0  0  0  0  0  0
  -34.4680  -21.4360   18.8750 N   0  0  0  0  0  0  0  0  0  0  0  0
  -34.9480  -22.3230   18.9400 H   0  0  0  0  0  0  0  0  0  0  0  0
  -31.9930  -17.0910   20.1560 C   0  0  0  0  0  0  0  0  0  0  0  0
  -31.3020  -15.9560   20.4820 C   0  0  0  0  0  0  0  0  0  0  0  0
  -31.2080  -15.1910   19.2800 C   0  0  0  0  0  0  0  0  0  0  0  0
  -32.2980  -16.9770   18.8080 N   0  0  0  0  0  0  0  0  0  0  0  0
  -31.8620  -15.7980   18.2970 N   0  0  0  0  0  0  0  0  0  0  0  0
  -30.4880  -13.9430   18.9930 C   0  0  0  0  0  0  0  0  0  0  0  0
  -31.1030  -12.6820   19.1580 C   0  0  0  0  0  3  0  0  0  0  0  0
  -30.3870  -11.4970   18.8900 C   0  0  0  0  0  3  0  0  0  0  0  0
  -29.0420  -11.5640   18.4560 C   0  0  0  0  0  0  0  0  0  0  0  0
  -28.4410  -12.8220   18.2710 C   0  0  0  0  0  3  0  0  0  0  0  0
  -29.1560  -14.0020   18.5340 C   0  0  0  0  0  3  0  0  0  0  0  0
  -28.2740  -10.4650   18.1530 O   0  0  0  0  0  0  0  0  0  0  0  0
  -27.9450   -9.5320   19.1030 C   0  0  0  0  0  0  0  0  0  0  0  0
  -27.2940   -9.8900   20.3040 C   0  0  0  0  0  3  0  0  0  0  0  0
  -26.9090   -8.8900   21.2200 C   0  0  0  0  0  3  0  0  0  0  0  0
  -27.1640   -7.5350   20.9340 C   0  0  0  0  0  0  0  0  0  0  0  0
  -27.8040   -7.1770   19.7360 C   0  0  0  0  0  3  0  0  0  0  0  0
  -28.1920   -8.1730   18.8210 C   0  0  0  0  0  0  0  0  0  0  0  0
  -28.7910   -7.8220   17.6580 F   0  0  0  0  0  0  0  0  0  0  0  0
  -26.7870   -6.5730   21.8090 F   0  0  0  0  0  0  0  0  0  0  0  0
  -30.6790  -15.6420   21.8110 C   0  0  0  0  0  0  0  0  0  0  0  0
  -30.7570  -14.3900   22.2490 N   0  0  0  0  0  0  0  0  0  0  0  0
  -30.1560  -16.5210   22.4950 O   0  0  0  0  0  0  0  0  0  0  0  0
  -31.2070  -13.6700   21.7040 H   0  0  0  0  0  0  0  0  0  0  0  0
  -30.3510  -14.1520   23.1430 H   0  0  0  0  0  0  0  0  0  0  0  0
  -32.3670  -18.2130   20.8890 N   0  0  0  0  0  0  0  0  0  0  0  0
  -32.1220  -18.3190   21.8660 H   0  0  0  0  0  0  0  0  0  0  0  0
  -32.8750  -19.0060   20.5200 H   0  0  0  0  0  0  0  0  0  0  0  0
  -26.7150  -21.4820   22.3970 C   0  0  0  0  0  2  0  0  0  0  0  0
  -27.1940  -22.0170   21.1050 N   0  0  0  0  0  4  0  0  0  0  0  0
  -27.8880  -21.3800   20.7460 H   0  0  0  0  0  0  0  0  0  0  0  0
  -27.6390  -22.9050   21.2770 H   0  0  0  0  0  0  0  0  0  0  0  0
  -26.1380  -22.1930   20.0890 C   0  0  0  0  0  2  0  0  0  0  0  0
  -26.6360  -21.8690   18.6650 C   0  0  0  0  0  2  0  0  0  0  0  0
  -25.5420  -22.1350   17.6160 C   0  0  0  0  0  2  0  0  0  0  0  0
  -26.0690  -22.3400   16.1800 C   0  0  0  0  0  2  0  0  0  0  0  0
  -25.5500  -23.5360   15.5910 O   0  0  0  0  0  0  0  0  0  0  0  0
  -28.5030  -26.9350   21.0990 C   0  0  0  0  0  0  0  0  0  0  0  0
  -25.4920  -24.5940   16.4610 C   0  0  0  0  0  0  0  0  0  0  0  0
  -26.2090  -27.6350   20.4950 C   0  0  0  0  0  3  0  0  0  0  0  0
  -25.3330  -26.7490   18.2700 C   0  0  0  0  0  0  0  0  0  0  0  0
  -27.7880  -26.6690   18.7310 C   0  0  0  0  0  2  0  0  0  0  0  0
  -26.5660  -26.1370   18.0170 C   0  0  0  0  0  0  0  0  0  0  0  0
  -26.6540  -25.0540   17.1150 C   0  0  0  0  0  3  0  0  0  0  0  0
  -24.2620  -25.2410   16.6980 C   0  0  0  0  0  3  0  0  0  0  0  0
  -24.1720  -26.3020   17.6180 C   0  0  0  0  0  3  0  0  0  0  0  0
  -25.3260  -27.9040   19.2470 C   0  0  0  0  0  2  0  0  0  0  0  0
  -27.5400  -27.0450   20.1420 N   0  0  0  0  0  0  0  0  0  0  0  0
  -28.3120  -27.3530   22.2500 O   0  0  0  0  0  0  0  0  0  0  0  0
  -25.4020  -26.7710   21.4900 C   0  0  0  0  0  0  0  0  0  0  0  0
  -24.1630  -27.1980   21.7810 N   0  0  0  0  0  0  0  0  0  0  0  0
  -25.8810  -25.7360   21.9610 O   0  0  0  0  0  0  0  0  0  0  0  0
  -23.8500  -28.0640   21.3650 H   0  0  0  0  0  0  0  0  0  0  0  0
  -20.6850  -27.0750   22.7450 C   0  0  0  0  0  0  0  0  0  0  0  0
  -23.2090  -26.5240   22.6610 C   0  0  0  0  0  3  0  0  0  0  0  0
  -22.7900  -25.1560   22.0760 C   0  0  0  0  0  2  0  0  0  0  0  0
  -21.5090  -25.2180   21.2370 C   0  0  0  0  0  2  0  0  0  0  0  0
  -20.3440  -25.7540   22.0750 C   0  0  0  0  0  2  0  0  0  0  0  0
  -22.0310  -27.4420   23.0100 C   0  0  0  0  0  0  0  0  0  0  0  0
  -22.2940  -28.6930   23.6090 C   0  0  0  0  0  3  0  0  0  0  0  0
  -21.2420  -29.5670   23.9430 C   0  0  0  0  0  3  0  0  0  0  0  0
  -19.9090  -29.1910   23.6920 C   0  0  0  0  0  3  0  0  0  0  0  0
  -19.6350  -27.9470   23.0990 C   0  0  0  0  0  3  0  0  0  0  0  0
  -29.8970  -26.3030   20.7850 C   0  0  0  0  0  3  0  0  0  0  0  0
  -30.1170  -24.9060   21.4830 C   0  0  1  0  0  0  0  0  0  0  0  0
  -29.7580  -24.8990   22.9860 C   0  0  0  0  0  1  0  0  0  0  0  0
  -29.2680  -23.8120   20.7920 C   0  0  0  0  0  1  0  0  0  0  0  0
  -31.5960  -24.4760   21.3440 C   0  0  0  0  0  1  0  0  0  0  0  0
  -30.9240  -27.2650   21.2100 N   0  0  0  0  0  0  0  0  0  0  0  0
  -31.5800  -28.0890   20.3820 C   0  0  0  0  0  0  0  0  0  0  0  0
  -31.4340  -28.0620   19.1550 O   0  0  0  0  0  0  0  0  0  0  0  0
  -31.0600  -27.3760   22.2040 H   0  0  0  0  0  0  0  0  0  0  0  0
  -31.8660  -30.4710   21.1280 C   0  0  0  0  0  1  0  0  0  0  0  0
  -32.5540  -29.1010   21.0120 C   0  0  0  0  0  3  0  0  0  0  0  0
  -34.6750  -28.0540   20.3500 C   0  0  0  0  0  1  0  0  0  0  0  0
  -33.8250  -29.2420   20.2670 N   0  0  0  0  0  0  0  0  0  0  0  0
  -34.3560  -30.0370   20.6080 H   0  0  0  0  0  0  0  0  0  0  0  0
  2  4  2  0
  2  6  1  0
  4  7  1  0
  5  3  1  0
  5  9  1  0
  6  5  2  0
  7  1  1  0
  7  3  2  0
  8  4  1  0
 10  6  1  0
 11 10  1  0
 12 20  1  0
 13 18  1  0
 14 13  1  0
 14 15  1  0
 16 15  1  0
 16 17  1  0
 16 25  1  0
 18 12  1  0
 18 17  1  0
 19 12  2  0
 20 21  1  0
 20 11  1  0
 22 23  2  0
 22 47  1  0
 23 42  1  0
 24 23  1  0
 25 22  1  0
 26 25  1  0
 26 24  2  0
 27 28  1  0
 27 24  1  0
 29 28  2  0
 30 29  1  0
 31 30  2  0
 31 32  1  0
 32 27  2  0
 33 30  1  0
 33 34  1  0
 34 35  1  0
 35 36  2  0
 37 36  1  0
 37 41  1  0
 38 37  2  0
 39 34  2  0
 39 38  1  0
 40 39  1  0
 42 43  1  0
 42 44  2  0
 43 46  1  0
 45 43  1  0
 47 48  1  0
 49 47  1  0
 50  1  1  0
 51 53  1  0
 51 50  1  0
 52 51  1  0
 54 51  1  0
 55 54  1  0
 56 55  1  0
 57 56  1  0
 58 57  1  0
 58 60  1  0
 59 70  2  0
 60 66  2  0
 60 65  1  0
 61 71  1  0
 62 68  1  0
 63 69  1  0
 64 62  1  0
 64 63  1  0
 65 64  2  0
 66 67  1  0
 67 62  2  0
 68 61  1  0
 69 61  1  0
 69 59  1  0
 71 72  1  0
 71 73  2  0
 74 72  1  0
 75 80  2  0
 75 84  1  0
 76 72  1  0
 76 80  1  0
 77 76  1  0
 78 79  1  0
 78 77  1  0
 79 75  1  0
 80 81  1  0
 81 82  2  0
 83 82  1  0
 84 83  2  0
 85 59  1  0
 85 90  1  0
 85 86  1  0
 86 87  1  1
 88 86  1  0
 89 86  1  0
 90 93  1  0
 91 95  1  0
 91 90  1  0
 92 91  2  0
 95 94  1  0
 97 96  1  0
 97 98  1  0
 97 95  1  0
M  ISO  4  12 100  20 100  57 101  58 101
M  END
>  <TORSDO>  (87) 
F 25

>  <SCORE>  (87) 
12.755

>  <name>  (87) 
86

>  <ligand_id>  (87) 
86

>  <original_smiles>  (87) 
[H]c1c([H])c([H])c2c(c1[H])C([H])([H])C([H])([H])C([H])([H])C2([H])N([H])C(=O)C1([H])N(C(=O)C([H])(N([H])C(=O)C([H])(N([H])C([H])([H])[H])C([H])([H])[H])C(C([H])([H])[H])(C([H])([H])[H])C([H])([H])[H])C([H])([H])c2c([H])c(OC([H])([H])C([H])([H])C([H])([H])C([H])([H])[N+]([H])([H])C([H])([H])C([H])([H])c3c([H])c(C([H])([H])[H])c(C([H])([H])C([H])([H])N([H])C(=O)N4C([H])([H])C([H])([H])C([H])([H])C([H])(n5nc(-c6c([H])c([H])c(Oc7c([H])c([H])c(F)c([H])c7F)c([H])c6[H])c(C(=O)N([H])[H])c5N([H])[H])C4([H])[H])c([H])c3C([H])([H])[H])c([H])c([H])c2C1([H])[H]

>  <smiles>  (87) 
[H]c1c([H])c([H])c2c(c1[H])C([H])([H])C([H])([H])C([H])([H])C2([H])N([H])C(=O)C1([H])N(C(=O)C([H])(N([H])C(=O)C([H])(N([H])C([H])([H])[H])C([H])([H])[H])C(C([H])([H])[H])(C([H])([H])[H])C([H])([H])[H])C([H])([H])c2c([H])c(OC([H])([H])C([H])([H])C([H])([H])C([H])([H])[N+]([H])([H])C([H])([H])C([H])([H])c3c([H])c(C([H])([H])[H])c(C([H])([H])C([H])([H])N([H])C(=O)N4C([H])([H])C([H])([H])C([H])([H])C([H])(n5nc(-c6c([H])c([H])c(Oc7c([H])c([H])c(F)c([H])c7F)c([H])c6[H])c(C(=O)N([H])[H])c5N([H])[H])C4([H])[H])c([H])c3C([H])([H])[H])c([H])c([H])c2C1([H])[H]

$$$$
87:0:0
     RDKit          3D

 91 99  0  0  1  0  0  0  0  0999 V2000
  -28.9500  -22.4830   20.5300 C   0  0  0  0  0  3  0  0  0  0  0  0
  -29.2730  -24.0200   20.3180 C   0  0  0  0  0  0  0  0  0  0  0  0
  -30.4690  -24.4370   20.3330 N   0  0  0  0  0  0  0  0  0  0  0  0
  -31.1280  -23.6810   20.4880 H   0  0  0  0  0  0  0  0  0  0  0  0
  -28.0880  -25.0320   20.0930 C   0  0  0  0  0  2  0  0  0  0  0  0
  -28.3400  -26.4920   20.2380 O   0  0  0  0  0  0  0  0  0  0  0  0
  -24.6280  -31.8940   23.2840 C   0  0  0  0  0  0  0  0  0  0  0  0
  -27.2240  -27.3500   20.1910 C   0  0  0  0  0  0  0  0  0  0  0  0
  -23.4190  -30.5130   21.6350 C   0  0  0  0  0  3  0  0  0  0  0  0
  -24.8630  -28.9720   20.1950 C   0  0  0  0  0  0  0  0  0  0  0  0
  -25.9590  -30.8270   21.4480 C   0  0  0  0  0  2  0  0  0  0  0  0
  -26.0360  -29.4530   20.7910 C   0  0  0  0  0  0  0  0  0  0  0  0
  -27.2210  -28.6560   20.7760 C   0  0  0  0  0  3  0  0  0  0  0  0
  -26.0240  -26.9260   19.5730 C   0  0  0  0  0  3  0  0  0  0  0  0
  -24.8590  -27.7150   19.5780 C   0  0  0  0  0  3  0  0  0  0  0  0
  -23.6300  -29.8500   20.2490 C   0  0  0  0  0  2  0  0  0  0  0  0
  -24.6880  -31.0940   22.1800 N   0  0  0  0  0  0  0  0  0  0  0  0
  -23.5460  -32.1690   23.8230 O   0  0  0  0  0  0  0  0  0  0  0  0
  -22.7550  -29.4880   22.5870 C   0  0  0  0  0  0  0  0  0  0  0  0
  -21.4290  -29.3090   22.4560 N   0  0  0  0  0  0  0  0  0  0  0  0
  -23.4330  -28.8590   23.4030 O   0  0  0  0  0  0  0  0  0  0  0  0
  -20.9410  -29.8710   21.7710 H   0  0  0  0  0  0  0  0  0  0  0  0
  -18.0500  -28.1150   22.9500 C   0  0  0  0  0  0  0  0  0  0  0  0
  -20.6100  -28.3690   23.2210 C   0  0  0  0  0  3  0  0  0  0  0  0
  -20.7080  -26.9400   22.6370 C   0  0  0  0  0  2  0  0  0  0  0  0
  -19.6060  -26.6250   21.6210 C   0  0  0  0  0  2  0  0  0  0  0  0
  -18.2250  -26.7700   22.2650 C   0  0  0  0  0  2  0  0  0  0  0  0
  -19.1700  -28.8720   23.3850 C   0  0  0  0  0  0  0  0  0  0  0  0
  -18.9530  -30.1310   23.9860 C   0  0  0  0  0  3  0  0  0  0  0  0
  -17.6490  -30.6340   24.1540 C   0  0  0  0  0  3  0  0  0  0  0  0
  -16.5450  -29.8740   23.7350 C   0  0  0  0  0  3  0  0  0  0  0  0
  -16.7460  -28.6160   23.1380 C   0  0  0  0  0  3  0  0  0  0  0  0
  -25.9130  -32.5190   23.9070 C   0  0  0  0  0  3  0  0  0  0  0  0
  -26.4180  -31.7500   25.1900 C   0  0  1  0  0  0  0  0  0  0  0  0
  -25.3170  -31.5240   26.2540 C   0  0  0  0  0  1  0  0  0  0  0  0
  -26.9930  -30.3660   24.8070 C   0  0  0  0  0  1  0  0  0  0  0  0
  -27.5710  -32.5380   25.8550 C   0  0  0  0  0  1  0  0  0  0  0  0
  -25.6140  -33.9210   24.2310 N   0  0  0  0  0  0  0  0  0  0  0  0
  -25.9590  -34.9680   23.4700 C   0  0  0  0  0  0  0  0  0  0  0  0
  -26.6350  -34.8550   22.4430 O   0  0  0  0  0  0  0  0  0  0  0  0
  -25.0180  -34.0840   25.0290 H   0  0  0  0  0  0  0  0  0  0  0  0
  -24.2550  -36.7790   23.0910 C   0  0  0  0  0  1  0  0  0  0  0  0
  -25.4820  -36.3630   23.9190 C   0  0  0  0  0  3  0  0  0  0  0  0
  -27.6140  -37.2270   24.7760 C   0  0  0  0  0  1  0  0  0  0  0  0
  -26.5260  -37.4040   23.8170 N   0  0  0  0  0  0  0  0  0  0  0  0
  -26.1280  -38.3290   23.9570 H   0  0  0  0  0  0  0  0  0  0  0  0
  -29.9100  -21.4200   19.8320 C   0  0  0  0  0  3  0  0  0  0  0  0
  -30.6420  -19.3980   21.2990 C   0  0  0  0  0  3  0  0  0  0  0  0
  -29.2690  -18.9070   19.3890 C   0  0  0  0  0  3  0  0  0  0  0  0
  -30.7890  -18.0020   21.5420 C   0  0  0  0  0  3  0  0  0  0  0  0
  -29.4230  -17.5050   19.6270 C   0  0  0  0  0  3  0  0  0  0  0  0
  -29.8850  -19.8940   20.2110 C   0  0  0  0  0  0  0  0  0  0  0  0
  -30.2000  -17.0060   20.7070 C   0  0  0  0  0  0  0  0  0  0  0  0
  -30.7680  -14.6310   20.0860 C   0  0  0  0  0  0  0  0  0  0  0  0
  -30.3650  -12.4830   18.8910 C   0  0  0  0  0  2  0  0  0  0  0  0
  -29.3520  -12.6780   17.7480 C   0  0  0  0  0  2  0  0  0  0  0  0
  -27.9150  -12.4910   18.2720 C   0  0  0  0  0  2  0  0  0  0  0  0
  -27.6490  -13.3110   19.5620 C   0  0  0  0  0  3  0  0  0  0  0  0
  -28.7770  -13.1250   20.6000 C   0  0  0  0  0  2  0  0  0  0  0  0
  -30.0580  -13.4610   19.9560 N   0  0  0  0  0  0  0  0  0  0  0  0
  -31.7900  -14.8290   19.4210 O   0  0  0  0  0  0  0  0  0  0  0  0
  -30.7230  -15.2220   22.3810 C   0  0  0  0  0  1  0  0  0  0  0  0
  -30.3540  -15.5690   21.0000 N   0  0  0  0  0  0  0  0  0  0  0  0
  -25.3140  -13.8760   20.4730 C   0  0  0  0  0  0  0  0  0  0  0  0
  -24.2770  -13.0860   20.8930 C   0  0  0  0  0  0  0  0  0  0  0  0
  -24.7360  -11.7380   20.7810 C   0  0  0  0  0  0  0  0  0  0  0  0
  -26.3380  -13.0070   20.1320 N   0  0  0  0  0  0  0  0  0  0  0  0
  -26.0000  -11.7140   20.3780 N   0  0  0  0  0  0  0  0  0  0  0  0
  -24.0250  -10.4680   20.9810 C   0  0  0  0  0  0  0  0  0  0  0  0
  -24.4810   -9.5030   21.9050 C   0  0  0  0  0  3  0  0  0  0  0  0
  -23.7690   -8.2980   22.0930 C   0  0  0  0  0  3  0  0  0  0  0  0
  -22.5880   -8.0490   21.3560 C   0  0  0  0  0  0  0  0  0  0  0  0
  -22.1510   -9.0030   20.4210 C   0  0  0  0  0  3  0  0  0  0  0  0
  -22.8620  -10.1990   20.2310 C   0  0  0  0  0  3  0  0  0  0  0  0
  -21.8450   -6.8970   21.4540 O   0  0  0  0  0  0  0  0  0  0  0  0
  -21.7740   -6.1840   22.6230 C   0  0  0  0  0  0  0  0  0  0  0  0
  -21.3120   -6.7660   23.8240 C   0  0  0  0  0  3  0  0  0  0  0  0
  -21.1880   -5.9780   24.9850 C   0  0  0  0  0  3  0  0  0  0  0  0
  -21.5170   -4.6090   24.9480 C   0  0  0  0  0  0  0  0  0  0  0  0
  -21.9720   -4.0290   23.7530 C   0  0  0  0  0  3  0  0  0  0  0  0
  -22.0990   -4.8140   22.5930 C   0  0  0  0  0  0  0  0  0  0  0  0
  -22.5190   -4.2430   21.4390 F   0  0  0  0  0  0  0  0  0  0  0  0
  -21.3900   -3.8520   26.0620 F   0  0  0  0  0  0  0  0  0  0  0  0
  -22.9020  -13.5490   21.2800 C   0  0  0  0  0  0  0  0  0  0  0  0
  -22.2460  -12.8360   22.1880 N   0  0  0  0  0  0  0  0  0  0  0  0
  -22.4190  -14.5800   20.8120 O   0  0  0  0  0  0  0  0  0  0  0  0
  -22.6480  -12.0020   22.5890 H   0  0  0  0  0  0  0  0  0  0  0  0
  -21.3290  -13.1320   22.4880 H   0  0  0  0  0  0  0  0  0  0  0  0
  -25.4640  -15.2530   20.3340 N   0  0  0  0  0  0  0  0  0  0  0  0
  -24.7170  -15.9030   20.5460 H   0  0  0  0  0  0  0  0  0  0  0  0
  -26.2970  -15.7090   19.9850 H   0  0  0  0  0  0  0  0  0  0  0  0
  2  3  2  0
  2  1  1  0
  3  4  1  0
  5  6  1  0
  5  2  1  0
  7 18  2  0
  8  6  1  0
  8 13  1  0
  9 17  1  0
  9 19  1  0
 10 16  1  0
 10 12  1  0
 11 17  1  0
 12 11  1  0
 13 12  2  0
 14 15  1  0
 14  8  2  0
 15 10  2  0
 16  9  1  0
 17  7  1  0
 19 21  2  0
 20 19  1  0
 22 20  1  0
 23 32  2  0
 23 28  1  0
 24 20  1  0
 24 28  1  0
 25 24  1  0
 26 27  1  0
 26 25  1  0
 27 23  1  0
 28 29  2  0
 29 30  1  0
 31 30  2  0
 32 31  1  0
 33  7  1  0
 33 38  1  0
 33 34  1  0
 34 37  1  1
 34 35  1  0
 36 34  1  0
 38 41  1  0
 39 43  1  0
 39 38  1  0
 40 39  2  0
 43 42  1  0
 45 43  1  0
 45 46  1  0
 45 44  1  0
 47 52  1  0
 47  1  2  0
 48 50  1  0
 49 51  2  0
 49 52  1  0
 51 53  1  0
 52 48  2  0
 53 63  1  0
 53 50  2  0
 54 63  1  0
 55 60  1  0
 56 57  1  0
 56 55  1  0
 58 57  1  0
 58 67  1  0
 58 59  1  0
 60 54  1  0
 60 59  1  0
 61 54  2  0
 63 62  1  0
 64 65  2  0
 65 84  1  0
 66 65  1  0
 66 69  1  0
 67 68  1  0
 67 64  1  0
 68 66  2  0
 69 70  1  0
 70 71  2  0
 72 75  1  0
 72 71  1  0
 73 72  2  0
 74 73  1  0
 74 69  2  0
 75 76  1  0
 76 77  1  0
 77 78  2  0
 79 78  1  0
 79 83  1  0
 80 79  2  0
 81 76  2  0
 81 80  1  0
 82 81  1  0
 84 85  1  0
 85 88  1  0
 85 87  1  0
 86 84  2  0
 89 64  1  0
 89 90  1  0
 91 89  1  0
M  ISO  4   5 101   6 101  54 100  63 100
M  END
>  <TORSDO>  (88) 
F 20

>  <SCORE>  (88) 
-13.041

>  <name>  (88) 
87

>  <ligand_id>  (88) 
87

>  <original_smiles>  (88) 
[H]N=C(C([H])([H])Oc1c([H])c([H])c2c(c1[H])C([H])([H])N(C(=O)C([H])(N([H])C(=O)C([H])(N([H])C([H])([H])[H])C([H])([H])[H])C(C([H])([H])[H])(C([H])([H])[H])C([H])([H])[H])C([H])(C(=O)N([H])C1([H])c3c([H])c([H])c([H])c([H])c3C([H])([H])C([H])([H])C1([H])[H])C2([H])[H])C([H])([H])C([H])([H])c1c([H])c([H])c(N(C(=O)N2C([H])([H])C([H])([H])C([H])([H])C([H])(n3nc(-c4c([H])c([H])c(Oc5c([H])c([H])c(F)c([H])c5F)c([H])c4[H])c(C(=O)N([H])[H])c3N([H])[H])C2([H])[H])C([H])([H])[H])c([H])c1[H]

>  <smiles>  (88) 
[H]N=C(C([H])([H])Oc1c([H])c([H])c2c(c1[H])C([H])([H])N(C(=O)C([H])(N([H])C(=O)C([H])(N([H])C([H])([H])[H])C([H])([H])[H])C(C([H])([H])[H])(C([H])([H])[H])C([H])([H])[H])C([H])(C(=O)N([H])C1([H])c3c([H])c([H])c([H])c([H])c3C([H])([H])C([H])([H])C1([H])[H])C2([H])[H])C([H])([H])C([H])([H])c1c([H])c([H])c(N(C(=O)N2C([H])([H])C([H])([H])C([H])([H])C([H])(n3nc(-c4c([H])c([H])c(Oc5c([H])c([H])c(F)c([H])c5F)c([H])c4[H])c(C(=O)N([H])[H])c3N([H])[H])C2([H])[H])C([H])([H])[H])c([H])c1[H]

$$$$
88:0:0
     RDKit          3D

 89 98  0  0  1  0  0  0  0  0999 V2000
  -28.8900  -21.7670   20.0800 C   0  0  0  0  0  0  0  0  0  0  0  0
  -31.0190  -15.4150   20.5820 C   0  0  0  0  0  0  0  0  0  0  0  0
  -30.9160  -13.0020   19.8280 C   0  0  0  0  0  2  0  0  0  0  0  0
  -30.0870  -12.6370   18.5790 C   0  0  0  0  0  2  0  0  0  0  0  0
  -28.5850  -12.5210   18.8850 C   0  0  0  0  0  2  0  0  0  0  0  0
  -28.0610  -13.6170   19.8420 C   0  0  0  0  0  3  0  0  0  0  0  0
  -28.9960  -13.8790   21.0350 C   0  0  0  0  0  2  0  0  0  0  0  0
  -30.3300  -14.2080   20.5070 N   0  0  0  0  0  0  0  0  0  0  0  0
  -32.2460  -15.3340   20.4770 O   0  0  0  0  0  0  0  0  0  0  0  0
  -29.3680  -17.3320   19.8400 C   0  0  0  0  0  2  0  0  0  0  0  0
  -31.0440  -17.9820   21.1610 C   0  0  0  0  0  2  0  0  0  0  0  0
  -29.0520  -18.8580   20.1040 C   0  0  0  0  0  3  0  0  0  0  0  0
  -30.0660  -19.2280   21.1200 C   0  0  0  0  0  3  0  0  0  0  0  0
  -29.7930  -20.3130   20.0120 C   0  0  0  0  0  3  0  0  0  0  0  0
  -30.3990  -16.6910   20.7190 N   0  0  0  0  0  0  0  0  0  0  0  0
  -25.6620  -14.2600   20.4990 C   0  0  0  0  0  0  0  0  0  0  0  0
  -24.5660  -13.5140   20.7920 C   0  0  0  0  0  0  0  0  0  0  0  0
  -24.9900  -12.1490   20.7680 C   0  0  0  0  0  0  0  0  0  0  0  0
  -26.6930  -13.3550   20.2830 N   0  0  0  0  0  0  0  0  0  0  0  0
  -26.2920  -12.0800   20.5260 N   0  0  0  0  0  0  0  0  0  0  0  0
  -24.2380  -10.9050   20.9200 C   0  0  0  0  0  0  0  0  0  0  0  0
  -24.6000   -9.9360   21.8820 C   0  0  0  0  0  3  0  0  0  0  0  0
  -23.8530   -8.7460   22.0220 C   0  0  0  0  0  3  0  0  0  0  0  0
  -22.7260   -8.5150   21.1930 C   0  0  0  0  0  0  0  0  0  0  0  0
  -22.3800   -9.4780   20.2250 C   0  0  0  0  0  3  0  0  0  0  0  0
  -23.1270  -10.6600   20.0870 C   0  0  0  0  0  3  0  0  0  0  0  0
  -21.9440   -7.3900   21.2430 O   0  0  0  0  0  0  0  0  0  0  0  0
  -21.8030   -6.6460   22.3890 C   0  0  0  0  0  0  0  0  0  0  0  0
  -21.2550   -7.1990   23.5670 C   0  0  0  0  0  3  0  0  0  0  0  0
  -21.0480   -6.3850   24.6970 C   0  0  0  0  0  3  0  0  0  0  0  0
  -21.3870   -5.0160   24.6500 C   0  0  0  0  0  0  0  0  0  0  0  0
  -21.9360   -4.4660   23.4800 C   0  0  0  0  0  3  0  0  0  0  0  0
  -22.1330   -5.2790   22.3470 C   0  0  0  0  0  0  0  0  0  0  0  0
  -22.6310   -4.7360   21.2100 F   0  0  0  0  0  0  0  0  0  0  0  0
  -21.1960   -4.2290   25.7370 F   0  0  0  0  0  0  0  0  0  0  0  0
  -23.1600  -14.0100   20.9930 C   0  0  0  0  0  0  0  0  0  0  0  0
  -22.3780  -13.3240   21.8060 N   0  0  0  0  0  0  0  0  0  0  0  0
  -22.7640  -15.0450   20.4480 O   0  0  0  0  0  0  0  0  0  0  0  0
  -22.6950  -12.4650   22.2300 H   0  0  0  0  0  0  0  0  0  0  0  0
  -21.4330  -13.6350   21.9800 H   0  0  0  0  0  0  0  0  0  0  0  0
  -25.8800  -15.6310   20.3240 N   0  0  0  0  0  0  0  0  0  0  0  0
  -25.1720  -16.3570   20.4050 H   0  0  0  0  0  0  0  0  0  0  0  0
  -26.7760  -15.9890   20.0080 H   0  0  0  0  0  0  0  0  0  0  0  0
  -26.8050  -22.6270   21.5500 C   0  0  0  0  0  1  0  0  0  0  0  0
  -27.6290  -21.4540   20.9910 C   0  0  0  0  0  3  0  0  0  0  0  0
  -30.4050  -23.8430   21.0940 C   0  0  0  0  0  1  0  0  0  0  0  0
  -29.3860  -23.4700   19.9870 C   0  0  0  0  0  3  0  0  0  0  0  0
  -28.3810  -24.8720   19.6350 C   0  0  0  0  0  2  0  0  0  0  0  0
  -28.5440  -26.4510   19.8360 O   0  0  0  0  0  0  0  0  0  0  0  0
  -24.6470  -31.8070   23.1980 C   0  0  0  0  0  0  0  0  0  0  0  0
  -27.4430  -27.4280   19.8170 C   0  0  0  0  0  0  0  0  0  0  0  0
  -23.4940  -30.4870   21.4590 C   0  0  0  0  0  3  0  0  0  0  0  0
  -25.0090  -29.0800   19.9110 C   0  0  0  0  0  0  0  0  0  0  0  0
  -26.0360  -30.8780   21.3080 C   0  0  0  0  0  2  0  0  0  0  0  0
  -26.1700  -29.5470   20.5380 C   0  0  0  0  0  0  0  0  0  0  0  0
  -27.3830  -28.7470   20.4550 C   0  0  0  0  0  3  0  0  0  0  0  0
  -26.2440  -27.0910   19.1480 C   0  0  0  0  0  3  0  0  0  0  0  0
  -25.0580  -27.8740   19.1930 C   0  0  0  0  0  3  0  0  0  0  0  0
  -23.7320  -29.9060   20.0400 C   0  0  0  0  0  2  0  0  0  0  0  0
  -24.7440  -31.0790   22.0410 N   0  0  0  0  0  0  0  0  0  0  0  0
  -23.5530  -31.9990   23.7570 O   0  0  0  0  0  0  0  0  0  0  0  0
  -22.8640  -29.3890   22.3510 C   0  0  0  0  0  0  0  0  0  0  0  0
  -21.5450  -29.1550   22.2070 N   0  0  0  0  0  0  0  0  0  0  0  0
  -23.5630  -28.7460   23.1430 O   0  0  0  0  0  0  0  0  0  0  0  0
  -21.0360  -29.7210   21.5430 H   0  0  0  0  0  0  0  0  0  0  0  0
  -18.2370  -27.7270   22.6080 C   0  0  0  0  0  0  0  0  0  0  0  0
  -20.7780  -28.1230   22.9070 C   0  0  0  0  0  3  0  0  0  0  0  0
  -20.9610  -26.7360   22.2440 C   0  0  0  0  0  2  0  0  0  0  0  0
  -19.8850  -26.4170   21.2020 C   0  0  0  0  0  2  0  0  0  0  0  0
  -18.4960  -26.4370   21.8450 C   0  0  0  0  0  2  0  0  0  0  0  0
  -19.3090  -28.5240   23.0950 C   0  0  0  0  0  0  0  0  0  0  0  0
  -19.0080  -29.7260   23.7730 C   0  0  0  0  0  3  0  0  0  0  0  0
  -17.6750  -30.1320   23.9690 C   0  0  0  0  0  3  0  0  0  0  0  0
  -16.6200  -29.3310   23.4990 C   0  0  0  0  0  3  0  0  0  0  0  0
  -16.9020  -28.1310   22.8200 C   0  0  0  0  0  3  0  0  0  0  0  0
  -25.8980  -32.4450   23.8740 C   0  0  0  0  0  3  0  0  0  0  0  0
  -26.3910  -31.6590   25.1510 C   0  0  1  0  0  0  0  0  0  0  0  0
  -25.2740  -31.3860   26.1840 C   0  0  0  0  0  1  0  0  0  0  0  0
  -27.0030  -30.2920   24.7720 C   0  0  0  0  0  1  0  0  0  0  0  0
  -27.5240  -32.4540   25.8470 C   0  0  0  0  0  1  0  0  0  0  0  0
  -25.5590  -33.8310   24.2260 N   0  0  0  0  0  0  0  0  0  0  0  0
  -25.8710  -34.9120   23.4920 C   0  0  0  0  0  0  0  0  0  0  0  0
  -26.5410  -34.8350   22.4580 O   0  0  0  0  0  0  0  0  0  0  0  0
  -24.9560  -33.9550   25.0260 H   0  0  0  0  0  0  0  0  0  0  0  0
  -24.0940  -36.6650   23.1990 C   0  0  0  0  0  1  0  0  0  0  0  0
  -25.3620  -36.2800   23.9790 C   0  0  0  0  0  3  0  0  0  0  0  0
  -27.4880  -37.2080   24.7870 C   0  0  0  0  0  1  0  0  0  0  0  0
  -26.3710  -37.3570   23.8570 N   0  0  0  0  0  0  0  0  0  0  0  0
  -25.9500  -38.2690   24.0080 H   0  0  0  0  0  0  0  0  0  0  0  0
  1 45  2  0
  2 15  1  0
  3  8  1  0
  4  5  1  0
  4  3  1  0
  6  5  1  0
  6 19  1  0
  6  7  1  0
  8  2  1  0
  8  7  1  0
  9  2  2  0
 10 15  1  0
 12 10  1  0
 12 13  1  0
 13 11  1  0
 14  1  1  0
 14 12  1  0
 14 13  1  0
 15 11  1  0
 16 17  2  0
 17 36  1  0
 18 17  1  0
 18 21  1  0
 19 16  1  0
 19 20  1  0
 20 18  2  0
 21 22  1  0
 22 23  2  0
 24 27  1  0
 24 23  1  0
 25 24  2  0
 26 25  1  0
 26 21  2  0
 27 28  1  0
 28 29  1  0
 29 30  2  0
 31 30  1  0
 31 35  1  0
 32 31  2  0
 33 28  2  0
 33 32  1  0
 34 33  1  0
 36 37  1  0
 37 40  1  0
 37 39  1  0
 38 36  2  0
 41 42  1  0
 41 16  1  0
 43 41  1  0
 45 44  1  0
 47  1  1  0
 47 46  1  0
 48 49  1  0
 48 47  1  0
 50 61  2  0
 51 49  1  0
 51 56  1  0
 52 60  1  0
 52 62  1  0
 53 59  1  0
 53 55  1  0
 54 60  1  0
 55 54  1  0
 56 55  2  0
 57 58  1  0
 57 51  2  0
 58 53  2  0
 59 52  1  0
 60 50  1  0
 62 64  2  0
 63 62  1  0
 65 63  1  0
 66 75  2  0
 66 71  1  0
 67 63  1  0
 67 71  1  0
 68 67  1  0
 69 70  1  0
 69 68  1  0
 70 66  1  0
 71 72  2  0
 72 73  1  0
 74 73  2  0
 75 74  1  0
 76 50  1  0
 76 81  1  0
 76 77  1  0
 77 80  1  1
 77 78  1  0
 79 77  1  0
 81 84  1  0
 82 86  1  0
 82 81  1  0
 83 82  2  0
 86 85  1  0
 88 86  1  0
 88 89  1  0
 88 87  1  0
M  ISO  4   2 100  15 100  48 101  49 101
M  END
>  <TORSDO>  (89) 
F 19

>  <SCORE>  (89) 
-14.766

>  <name>  (89) 
88

>  <ligand_id>  (89) 
88

>  <original_smiles>  (89) 
[H]c1c([H])c([H])c2c(c1[H])C([H])([H])C([H])([H])C([H])([H])C2([H])N([H])C(=O)C1([H])N(C(=O)C([H])(N([H])C(=O)C([H])(N([H])C([H])([H])[H])C([H])([H])[H])C(C([H])([H])[H])(C([H])([H])[H])C([H])([H])[H])C([H])([H])c2c([H])c(OC([H])([H])C([H])(C([H])([H])[H])C([H])(C([H])([H])C([H])([H])[H])C3([H])C4([H])C([H])([H])N(C(=O)N5C([H])([H])C([H])([H])C([H])([H])C([H])(n6nc(-c7c([H])c([H])c(Oc8c([H])c([H])c(F)c([H])c8F)c([H])c7[H])c(C(=O)N([H])[H])c6N([H])[H])C5([H])[H])C([H])([H])C43[H])c([H])c([H])c2C1([H])[H]

>  <smiles>  (89) 
[H]c1c([H])c([H])c2c(c1[H])C([H])([H])C([H])([H])C([H])([H])C2([H])N([H])C(=O)C1([H])N(C(=O)C([H])(N([H])C(=O)C([H])(N([H])C([H])([H])[H])C([H])([H])[H])C(C([H])([H])[H])(C([H])([H])[H])C([H])([H])[H])C([H])([H])c2c([H])c(OC([H])([H])C([H])(C([H])([H])[H])C([H])(C([H])([H])C([H])([H])[H])C3([H])C4([H])C([H])([H])N(C(=O)N5C([H])([H])C([H])([H])C([H])([H])C([H])(n6nc(-c7c([H])c([H])c(Oc8c([H])c([H])c(F)c([H])c8F)c([H])c7[H])c(C(=O)N([H])[H])c6N([H])[H])C5([H])[H])C([H])([H])C43[H])c([H])c([H])c2C1([H])[H]

$$$$
89:0:0
     RDKit          3D

 90 99  0  0  1  0  0  0  0  0999 V2000
  -29.3790  -21.3090   19.6650 C   0  0  0  0  0  2  0  0  0  0  0  0
  -30.9830  -20.1910   22.5820 C   0  0  0  0  0  2  0  0  0  0  0  0
  -31.8950  -20.1810   20.0840 C   0  0  0  0  0  2  0  0  0  0  0  0
  -31.9050  -19.6880   21.5050 C   0  0  0  0  0  3  0  0  0  0  0  0
  -30.4150  -19.4300   21.4040 C   0  0  0  0  0  3  0  0  0  0  0  0
  -30.4100  -19.8400   19.9230 C   0  0  1  0  0  0  0  0  0  0  0  0
  -30.2820  -18.2550   19.1240 C   0  0  0  0  0  2  0  0  0  0  0  0
  -30.9850  -15.4550   19.6060 C   0  0  0  0  0  0  0  0  0  0  0  0
  -30.8950  -12.9590   18.9500 C   0  0  0  0  0  2  0  0  0  0  0  0
  -29.9190  -12.7120   17.7720 C   0  0  0  0  0  2  0  0  0  0  0  0
  -28.4860  -12.4980   18.2910 C   0  0  0  0  0  2  0  0  0  0  0  0
  -28.1030  -13.5340   19.3780 C   0  0  0  0  0  3  0  0  0  0  0  0
  -29.2060  -13.7330   20.4430 C   0  0  0  0  0  2  0  0  0  0  0  0
  -30.4210  -14.1580   19.7300 N   0  0  0  0  0  0  0  0  0  0  0  0
  -32.1580  -15.4490   19.2100 O   0  0  0  0  0  0  0  0  0  0  0  0
  -30.2370  -16.7120   19.7330 N   0  0  0  0  0  0  0  0  0  0  0  0
  -29.3460  -16.5270   20.1740 H   0  0  0  0  0  0  0  0  0  0  0  0
  -25.8310  -14.1780   20.3460 C   0  0  0  0  0  0  0  0  0  0  0  0
  -24.7570  -13.4400   20.7580 C   0  0  0  0  0  0  0  0  0  0  0  0
  -25.1370  -12.0690   20.6120 C   0  0  0  0  0  0  0  0  0  0  0  0
  -26.7970  -13.2630   19.9690 N   0  0  0  0  0  0  0  0  0  0  0  0
  -26.3970  -11.9830   20.1940 N   0  0  0  0  0  0  0  0  0  0  0  0
  -24.3520  -10.8400   20.7910 C   0  0  0  0  0  0  0  0  0  0  0  0
  -24.7570   -9.8280   21.6880 C   0  0  0  0  0  3  0  0  0  0  0  0
  -23.9720   -8.6660   21.8570 C   0  0  0  0  0  3  0  0  0  0  0  0
  -22.7690   -8.5080   21.1300 C   0  0  0  0  0  0  0  0  0  0  0  0
  -22.3810   -9.5100   20.2230 C   0  0  0  0  0  3  0  0  0  0  0  0
  -23.1650  -10.6630   20.0510 C   0  0  0  0  0  3  0  0  0  0  0  0
  -21.9570   -7.4040   21.2120 O   0  0  0  0  0  0  0  0  0  0  0  0
  -21.8410   -6.6780   22.3700 C   0  0  0  0  0  0  0  0  0  0  0  0
  -21.3990   -7.2650   23.5750 C   0  0  0  0  0  3  0  0  0  0  0  0
  -21.2290   -6.4680   24.7260 C   0  0  0  0  0  3  0  0  0  0  0  0
  -21.4900   -5.0860   24.6710 C   0  0  0  0  0  0  0  0  0  0  0  0
  -21.9240   -4.4990   23.4690 C   0  0  0  0  0  3  0  0  0  0  0  0
  -22.0970   -5.2930   22.3220 C   0  0  0  0  0  0  0  0  0  0  0  0
  -22.4960   -4.7190   21.1600 F   0  0  0  0  0  0  0  0  0  0  0  0
  -21.3190   -4.3180   25.7720 F   0  0  0  0  0  0  0  0  0  0  0  0
  -23.4160  -13.9780   21.1640 C   0  0  0  0  0  0  0  0  0  0  0  0
  -22.7230  -13.2860   22.0620 N   0  0  0  0  0  0  0  0  0  0  0  0
  -22.9970  -15.0460   20.7210 O   0  0  0  0  0  0  0  0  0  0  0  0
  -23.0760  -12.4220   22.4440 H   0  0  0  0  0  0  0  0  0  0  0  0
  -21.8270  -13.6320   22.3750 H   0  0  0  0  0  0  0  0  0  0  0  0
  -26.0580  -15.5470   20.2310 N   0  0  0  0  0  0  0  0  0  0  0  0
  -25.3320  -16.2260   20.4290 H   0  0  0  0  0  0  0  0  0  0  0  0
  -26.8840  -15.9570   19.8150 H   0  0  0  0  0  0  0  0  0  0  0  0
  -29.2240  -22.9790   21.8030 C   0  0  0  0  0  1  0  0  0  0  0  0
  -30.7870  -23.5510   19.9690 C   0  0  0  0  0  1  0  0  0  0  0  0
  -29.3780  -23.0150   20.2810 C   0  0  1  0  0  0  0  0  0  0  0  0
  -28.3260  -24.4020   19.8710 C   0  0  0  0  0  2  0  0  0  0  0  0
  -28.3940  -26.0000   20.2190 O   0  0  0  0  0  0  0  0  0  0  0  0
  -24.5910  -31.7600   23.1640 C   0  0  0  0  0  0  0  0  0  0  0  0
  -27.3320  -27.0320   20.1160 C   0  0  0  0  0  0  0  0  0  0  0  0
  -23.4510  -30.3440   21.5020 C   0  0  0  0  0  3  0  0  0  0  0  0
  -24.9630  -28.8050   20.0710 C   0  0  0  0  0  0  0  0  0  0  0  0
  -26.0070  -30.6480   21.3740 C   0  0  0  0  0  2  0  0  0  0  0  0
  -26.1280  -29.2530   20.7030 C   0  0  0  0  0  0  0  0  0  0  0  0
  -27.3050  -28.3850   20.7030 C   0  0  0  0  0  3  0  0  0  0  0  0
  -26.1360  -26.7290   19.4250 C   0  0  0  0  0  3  0  0  0  0  0  0
  -24.9880  -27.5630   19.4130 C   0  0  0  0  0  3  0  0  0  0  0  0
  -23.7110  -29.6790   20.1210 C   0  0  0  0  0  2  0  0  0  0  0  0
  -24.7040  -30.9430   22.0670 N   0  0  0  0  0  0  0  0  0  0  0  0
  -23.4910  -32.0100   23.6830 O   0  0  0  0  0  0  0  0  0  0  0  0
  -22.7840  -29.3170   22.4530 C   0  0  0  0  0  0  0  0  0  0  0  0
  -21.4670  -29.0890   22.2960 N   0  0  0  0  0  0  0  0  0  0  0  0
  -23.4580  -28.7240   23.2980 O   0  0  0  0  0  0  0  0  0  0  0  0
  -20.9750  -29.6180   21.5880 H   0  0  0  0  0  0  0  0  0  0  0  0
  -18.1410  -27.6960   22.6930 C   0  0  0  0  0  0  0  0  0  0  0  0
  -20.6710  -28.1150   23.0480 C   0  0  0  0  0  3  0  0  0  0  0  0
  -20.8770  -26.6840   22.4980 C   0  0  0  0  0  2  0  0  0  0  0  0
  -19.8340  -26.2860   21.4480 C   0  0  0  0  0  2  0  0  0  0  0  0
  -18.4230  -26.3540   22.0380 C   0  0  0  0  0  2  0  0  0  0  0  0
  -19.1970  -28.5300   23.1520 C   0  0  0  0  0  0  0  0  0  0  0  0
  -18.8790  -29.7810   23.7250 C   0  0  0  0  0  3  0  0  0  0  0  0
  -17.5410  -30.2010   23.8410 C   0  0  0  0  0  3  0  0  0  0  0  0
  -16.5000  -29.3660   23.3970 C   0  0  0  0  0  3  0  0  0  0  0  0
  -16.8020  -28.1150   22.8290 C   0  0  0  0  0  3  0  0  0  0  0  0
  -25.8410  -32.4310   23.8120 C   0  0  0  0  0  3  0  0  0  0  0  0
  -26.3460  -31.6830   25.1070 C   0  0  1  0  0  0  0  0  0  0  0  0
  -25.2350  -31.4270   26.1520 C   0  0  0  0  0  1  0  0  0  0  0  0
  -26.9690  -30.3150   24.7460 C   0  0  0  0  0  1  0  0  0  0  0  0
  -27.4650  -32.5080   25.7870 C   0  0  0  0  0  1  0  0  0  0  0  0
  -25.4870  -33.8240   24.1380 N   0  0  0  0  0  0  0  0  0  0  0  0
  -25.8130  -34.8910   23.3960 C   0  0  0  0  0  0  0  0  0  0  0  0
  -26.5040  -34.8090   22.3780 O   0  0  0  0  0  0  0  0  0  0  0  0
  -24.8710  -33.9600   24.9260 H   0  0  0  0  0  0  0  0  0  0  0  0
  -24.0500  -36.6530   23.0330 C   0  0  0  0  0  1  0  0  0  0  0  0
  -25.2910  -36.2700   23.8550 C   0  0  0  0  0  3  0  0  0  0  0  0
  -27.3950  -37.2010   24.7140 C   0  0  0  0  0  1  0  0  0  0  0  0
  -26.3010  -37.3460   23.7570 N   0  0  0  0  0  0  0  0  0  0  0  0
  -25.8710  -38.2570   23.9010 H   0  0  0  0  0  0  0  0  0  0  0  0
  6  1  1  1
  1 48  1  0
  4  3  1  0
  4  2  1  0
  5  4  1  0
  5  2  1  0
  6  7  1  0
  6  3  1  0
  6  5  1  0
  7 16  1  0
  8 14  1  0
  8 16  1  0
  9 14  1  0
 10 11  1  0
 10  9  1  0
 12 11  1  0
 12 21  1  0
 12 13  1  0
 14 13  1  0
 15  8  2  0
 16 17  1  0
 18 19  2  0
 19 38  1  0
 20 19  1  0
 20 23  1  0
 21 22  1  0
 21 18  1  0
 22 20  2  0
 23 24  1  0
 24 25  2  0
 26 29  1  0
 26 25  1  0
 27 26  2  0
 28 27  1  0
 28 23  2  0
 29 30  1  0
 30 31  1  0
 31 32  2  0
 33 32  1  0
 33 37  1  0
 34 33  2  0
 35 30  2  0
 35 34  1  0
 36 35  1  0
 38 39  1  0
 39 42  1  0
 39 41  1  0
 40 38  2  0
 43 18  1  0
 43 44  1  0
 45 43  1  0
 48 47  1  1
 48 46  1  0
 49 50  1  0
 49 48  1  0
 51 62  2  0
 52 50  1  0
 52 57  1  0
 53 61  1  0
 53 63  1  0
 54 60  1  0
 54 56  1  0
 55 61  1  0
 56 55  1  0
 57 56  2  0
 58 52  2  0
 59 58  1  0
 59 54  2  0
 60 53  1  0
 61 51  1  0
 63 65  2  0
 64 63  1  0
 66 64  1  0
 67 76  2  0
 67 72  1  0
 68 64  1  0
 68 72  1  0
 69 68  1  0
 70 71  1  0
 70 69  1  0
 71 67  1  0
 72 73  2  0
 73 74  1  0
 75 74  2  0
 76 75  1  0
 77 51  1  0
 77 82  1  0
 77 78  1  0
 78 81  1  1
 78 79  1  0
 80 78  1  0
 82 85  1  0
 83 87  1  0
 83 82  1  0
 84 83  2  0
 87 86  1  0
 89 87  1  0
 89 90  1  0
 89 88  1  0
M  ISO  4   8 100  16 100  49 101  50 101
M  END
>  <TORSDO>  (90) 
F 20

>  <SCORE>  (90) 
-15.315

>  <name>  (90) 
89

>  <ligand_id>  (90) 
89

>  <original_smiles>  (90) 
[H]c1c([H])c([H])c2c(c1[H])C([H])([H])C([H])([H])C([H])([H])C2([H])N([H])C(=O)C1([H])N(C(=O)C([H])(N([H])C(=O)C([H])(N([H])C([H])([H])[H])C([H])([H])[H])C(C([H])([H])[H])(C([H])([H])[H])C([H])([H])[H])C([H])([H])c2c([H])c(OC([H])([H])C(C([H])([H])[H])(C([H])([H])[H])C([H])([H])C3(C([H])([H])N([H])C(=O)N4C([H])([H])C([H])([H])C([H])([H])C([H])(n5nc(-c6c([H])c([H])c(Oc7c([H])c([H])c(F)c([H])c7F)c([H])c6[H])c(C(=O)N([H])[H])c5N([H])[H])C4([H])[H])C([H])([H])C4([H])C([H])([H])C43[H])c([H])c([H])c2C1([H])[H]

>  <smiles>  (90) 
[H]c1c([H])c([H])c2c(c1[H])C([H])([H])C([H])([H])C([H])([H])C2([H])N([H])C(=O)C1([H])N(C(=O)C([H])(N([H])C(=O)C([H])(N([H])C([H])([H])[H])C([H])([H])[H])C(C([H])([H])[H])(C([H])([H])[H])C([H])([H])[H])C([H])([H])c2c([H])c(OC([H])([H])C(C([H])([H])[H])(C([H])([H])[H])C([H])([H])C3(C([H])([H])N([H])C(=O)N4C([H])([H])C([H])([H])C([H])([H])C([H])(n5nc(-c6c([H])c([H])c(Oc7c([H])c([H])c(F)c([H])c7F)c([H])c6[H])c(C(=O)N([H])[H])c5N([H])[H])C4([H])[H])C([H])([H])C4([H])C([H])([H])C43[H])c([H])c([H])c2C1([H])[H]

$$$$
90:0:0
     RDKit          3D

 91 99  0  0  1  0  0  0  0  0999 V2000
  -29.0670  -20.4720   20.5540 C   0  0  0  0  0  2  0  0  0  0  0  0
  -30.8290  -21.5960   21.9780 C   0  0  0  0  0  2  0  0  0  0  0  0
  -28.8770  -21.7890   19.7700 C   0  0  0  0  0  2  0  0  0  0  0  0
  -30.6190  -22.9040   21.1860 C   0  0  0  0  0  2  0  0  0  0  0  0
  -30.4940  -20.3380   21.1350 C   0  0  0  0  0  3  0  0  0  0  0  0
  -29.1740  -23.0200   20.6510 C   0  0  0  0  0  3  0  0  0  0  0  0
  -30.6880  -19.0150   21.9150 C   0  0  0  0  0  0  0  0  0  0  0  0
  -31.0930  -19.0150   23.0830 O   0  0  0  0  0  0  0  0  0  0  0  0
  -30.3440  -17.6930   21.1980 C   0  0  0  0  0  2  0  0  0  0  0  0
  -31.1810  -16.4620   21.6370 C   0  0  0  0  0  2  0  0  0  0  0  0
  -30.9030  -14.4290   20.1800 C   0  0  0  0  0  0  0  0  0  0  0  0
  -30.4180  -12.3850   18.8830 C   0  0  0  0  0  2  0  0  0  0  0  0
  -29.4020  -12.6530   17.7570 C   0  0  0  0  0  2  0  0  0  0  0  0
  -27.9630  -12.5010   18.2800 C   0  0  0  0  0  2  0  0  0  0  0  0
  -27.7230  -13.3120   19.5790 C   0  0  0  0  0  3  0  0  0  0  0  0
  -28.8380  -13.0410   20.6160 C   0  0  0  0  0  2  0  0  0  0  0  0
  -30.1470  -13.3150   19.9900 N   0  0  0  0  0  0  0  0  0  0  0  0
  -31.8670  -14.7230   19.4660 O   0  0  0  0  0  0  0  0  0  0  0  0
  -30.5600  -15.1900   21.2290 N   0  0  0  0  0  0  0  0  0  0  0  0
  -29.8170  -14.8330   21.8110 H   0  0  0  0  0  0  0  0  0  0  0  0
  -25.3800  -13.9400   20.4480 C   0  0  0  0  0  0  0  0  0  0  0  0
  -24.3220  -13.1730   20.8640 C   0  0  0  0  0  0  0  0  0  0  0  0
  -24.7580  -11.8160   20.7720 C   0  0  0  0  0  0  0  0  0  0  0  0
  -26.3940  -13.0470   20.1320 N   0  0  0  0  0  0  0  0  0  0  0  0
  -26.0240  -11.7640   20.3820 N   0  0  0  0  0  0  0  0  0  0  0  0
  -24.0240  -10.5590   20.9760 C   0  0  0  0  0  0  0  0  0  0  0  0
  -24.4830   -9.5760   21.8790 C   0  0  0  0  0  3  0  0  0  0  0  0
  -23.7510   -8.3850   22.0700 C   0  0  0  0  0  3  0  0  0  0  0  0
  -22.5470   -8.1700   21.3610 C   0  0  0  0  0  0  0  0  0  0  0  0
  -22.1090   -9.1410   20.4440 C   0  0  0  0  0  3  0  0  0  0  0  0
  -22.8400  -10.3240   20.2510 C   0  0  0  0  0  3  0  0  0  0  0  0
  -21.7830   -7.0320   21.4650 O   0  0  0  0  0  0  0  0  0  0  0  0
  -21.7520   -6.2880   22.6170 C   0  0  0  0  0  0  0  0  0  0  0  0
  -21.3360   -6.8400   23.8480 C   0  0  0  0  0  3  0  0  0  0  0  0
  -21.2490   -6.0220   24.9930 C   0  0  0  0  0  3  0  0  0  0  0  0
  -21.5700   -4.6540   24.9070 C   0  0  0  0  0  0  0  0  0  0  0  0
  -21.9770   -4.1010   23.6800 C   0  0  0  0  0  3  0  0  0  0  0  0
  -22.0650   -4.9160   22.5390 C   0  0  0  0  0  0  0  0  0  0  0  0
  -22.4370   -4.3720   21.3560 F   0  0  0  0  0  0  0  0  0  0  0  0
  -21.4800   -3.8660   26.0050 F   0  0  0  0  0  0  0  0  0  0  0  0
  -22.9530  -13.6640   21.2370 C   0  0  0  0  0  0  0  0  0  0  0  0
  -22.2700  -12.9510   22.1270 N   0  0  0  0  0  0  0  0  0  0  0  0
  -22.4990  -14.7100   20.7740 O   0  0  0  0  0  0  0  0  0  0  0  0
  -22.6520  -12.1060   22.5230 H   0  0  0  0  0  0  0  0  0  0  0  0
  -21.3510  -13.2550   22.4160 H   0  0  0  0  0  0  0  0  0  0  0  0
  -25.5540  -15.3120   20.2940 N   0  0  0  0  0  0  0  0  0  0  0  0
  -24.8050  -15.9770   20.4550 H   0  0  0  0  0  0  0  0  0  0  0  0
  -26.3940  -15.7430   19.9290 H   0  0  0  0  0  0  0  0  0  0  0  0
  -28.9200  -24.3610   19.9080 C   0  0  0  0  0  2  0  0  0  0  0  0
  -28.4560  -25.5030   20.8370 C   0  0  0  0  0  2  0  0  0  0  0  0
  -28.4870  -26.7670   20.1640 O   0  0  0  0  0  0  0  0  0  0  0  0
  -24.5900  -31.8790   23.2170 C   0  0  0  0  0  0  0  0  0  0  0  0
  -27.3050  -27.4720   20.1740 C   0  0  0  0  0  0  0  0  0  0  0  0
  -23.4110  -30.4690   21.5610 C   0  0  0  0  0  3  0  0  0  0  0  0
  -24.8930  -28.9420   20.1540 C   0  0  0  0  0  0  0  0  0  0  0  0
  -25.9320  -30.8540   21.3870 C   0  0  0  0  0  2  0  0  0  0  0  0
  -26.0380  -29.4830   20.7530 C   0  0  0  0  0  0  0  0  0  0  0  0
  -27.2490  -28.7560   20.7560 C   0  0  0  0  0  3  0  0  0  0  0  0
  -26.1450  -26.9330   19.5780 C   0  0  0  0  0  3  0  0  0  0  0  0
  -24.9400  -27.6660   19.5640 C   0  0  0  0  0  3  0  0  0  0  0  0
  -23.6400  -29.7880   20.1840 C   0  0  0  0  0  2  0  0  0  0  0  0
  -24.6620  -31.0820   22.1160 N   0  0  0  0  0  0  0  0  0  0  0  0
  -23.5010  -32.1440   23.7460 O   0  0  0  0  0  0  0  0  0  0  0  0
  -22.7560  -29.4450   22.5150 C   0  0  0  0  0  0  0  0  0  0  0  0
  -21.4380  -29.2410   22.3590 N   0  0  0  0  0  0  0  0  0  0  0  0
  -23.4310  -28.8340   23.3480 O   0  0  0  0  0  0  0  0  0  0  0  0
  -20.9540  -29.7840   21.6580 H   0  0  0  0  0  0  0  0  0  0  0  0
  -18.0770  -27.9830   22.7650 C   0  0  0  0  0  0  0  0  0  0  0  0
  -20.6180  -28.2960   23.1160 C   0  0  0  0  0  3  0  0  0  0  0  0
  -20.7690  -26.8610   22.5580 C   0  0  0  0  0  2  0  0  0  0  0  0
  -19.7070  -26.5050   21.5140 C   0  0  0  0  0  2  0  0  0  0  0  0
  -18.3030  -26.6280   22.1120 C   0  0  0  0  0  2  0  0  0  0  0  0
  -19.1650  -28.7720   23.2200 C   0  0  0  0  0  0  0  0  0  0  0  0
  -18.9030  -30.0380   23.7870 C   0  0  0  0  0  3  0  0  0  0  0  0
  -17.5850  -30.5170   23.9040 C   0  0  0  0  0  3  0  0  0  0  0  0
  -16.5100  -29.7240   23.4670 C   0  0  0  0  0  3  0  0  0  0  0  0
  -16.7560  -28.4590   22.9030 C   0  0  0  0  0  3  0  0  0  0  0  0
  -25.8660  -32.5160   23.8520 C   0  0  0  0  0  3  0  0  0  0  0  0
  -25.5500  -33.9140   24.1720 N   0  0  0  0  0  0  0  0  0  0  0  0
  -25.8950  -34.9650   23.4150 C   0  0  0  0  0  0  0  0  0  0  0  0
  -26.5840  -34.8590   22.3980 O   0  0  0  0  0  0  0  0  0  0  0  0
  -24.9370  -34.0710   24.9580 H   0  0  0  0  0  0  0  0  0  0  0  0
  -24.1720  -36.7530   23.0190 C   0  0  0  0  0  1  0  0  0  0  0  0
  -25.3960  -36.3530   23.8590 C   0  0  0  0  0  3  0  0  0  0  0  0
  -27.5080  -37.2420   24.7390 C   0  0  0  0  0  1  0  0  0  0  0  0
  -26.4290  -37.4080   23.7680 N   0  0  0  0  0  0  0  0  0  0  0  0
  -26.0170  -38.3270   23.9060 H   0  0  0  0  0  0  0  0  0  0  0  0
  -26.3720  -31.7500   25.1350 C   0  0  1  0  0  0  0  0  0  0  0  0
  -25.2670  -31.5090   26.1890 C   0  0  0  0  0  1  0  0  0  0  0  0
  -26.9680  -30.3770   24.7500 C   0  0  0  0  0  1  0  0  0  0  0  0
  -27.5090  -32.5520   25.8110 C   0  0  0  0  0  1  0  0  0  0  0  0
  1  5  1  0
  3  1  1  0
  3  6  1  0
  4  2  1  0
  5  7  1  0
  5  2  1  0
  6 49  1  0
  6  4  1  0
  7  8  2  0
  9 10  1  0
  9  7  1  0
 11 19  1  0
 12 17  1  0
 13 14  1  0
 13 12  1  0
 15 14  1  0
 15 24  1  0
 15 16  1  0
 17 11  1  0
 17 16  1  0
 18 11  2  0
 19 10  1  0
 19 20  1  0
 21 22  2  0
 22 41  1  0
 23 22  1  0
 23 26  1  0
 24 25  1  0
 24 21  1  0
 25 23  2  0
 26 27  1  0
 27 28  2  0
 29 32  1  0
 29 28  1  0
 30 29  2  0
 31 30  1  0
 31 26  2  0
 32 33  1  0
 33 34  1  0
 34 35  2  0
 36 35  1  0
 36 40  1  0
 37 36  2  0
 38 33  2  0
 38 37  1  0
 39 38  1  0
 41 42  1  0
 42 45  1  0
 42 44  1  0
 43 41  2  0
 46 21  1  0
 46 47  1  0
 48 46  1  0
 49 50  1  0
 51 53  1  0
 51 50  1  0
 52 63  2  0
 53 58  1  0
 54 62  1  0
 54 64  1  0
 55 61  1  0
 55 57  1  0
 56 62  1  0
 57 58  2  0
 57 56  1  0
 59 53  2  0
 60 59  1  0
 60 55  2  0
 61 54  1  0
 62 52  1  0
 64 66  2  0
 65 64  1  0
 67 65  1  0
 68 77  2  0
 68 73  1  0
 69 65  1  0
 69 73  1  0
 70 69  1  0
 71 72  1  0
 71 70  1  0
 72 68  1  0
 73 74  2  0
 74 75  1  0
 76 75  2  0
 77 76  1  0
 78 52  1  0
 78 79  1  0
 78 88  1  0
 79 82  1  0
 80 84  1  0
 80 79  1  0
 81 80  2  0
 84 83  1  0
 86 84  1  0
 86 87  1  0
 86 85  1  0
 88 91  1  1
 88 89  1  0
 90 88  1  0
M  ISO  4  11 100  19 100  50 101  51 101
M  END
>  <TORSDO>  (91) 
F 21

>  <SCORE>  (91) 
-13.364

>  <name>  (91) 
90

>  <ligand_id>  (91) 
90

>  <original_smiles>  (91) 
[H]c1c([H])c([H])c2c(c1[H])C([H])([H])C([H])([H])C([H])([H])C2([H])N([H])C(=O)C1([H])N(C(=O)C([H])(N([H])C(=O)C([H])(N([H])C([H])([H])[H])C([H])([H])[H])C(C([H])([H])[H])(C([H])([H])[H])C([H])([H])[H])C([H])([H])c2c([H])c(OC([H])([H])C([H])([H])C3([H])C([H])([H])C([H])([H])C([H])(C(=O)C([H])([H])C([H])([H])N([H])C(=O)N4C([H])([H])C([H])([H])C([H])([H])C([H])(n5nc(-c6c([H])c([H])c(Oc7c([H])c([H])c(F)c([H])c7F)c([H])c6[H])c(C(=O)N([H])[H])c5N([H])[H])C4([H])[H])C([H])([H])C3([H])[H])c([H])c([H])c2C1([H])[H]

>  <smiles>  (91) 
[H]c1c([H])c([H])c2c(c1[H])C([H])([H])C([H])([H])C([H])([H])C2([H])N([H])C(=O)C1([H])N(C(=O)C([H])(N([H])C(=O)C([H])(N([H])C([H])([H])[H])C([H])([H])[H])C(C([H])([H])[H])(C([H])([H])[H])C([H])([H])[H])C([H])([H])c2c([H])c(OC([H])([H])C([H])([H])C3([H])C([H])([H])C([H])([H])C([H])(C(=O)C([H])([H])C([H])([H])N([H])C(=O)N4C([H])([H])C([H])([H])C([H])([H])C([H])(n5nc(-c6c([H])c([H])c(Oc7c([H])c([H])c(F)c([H])c7F)c([H])c6[H])c(C(=O)N([H])[H])c5N([H])[H])C4([H])[H])C([H])([H])C3([H])[H])c([H])c([H])c2C1([H])[H]

$$$$
91:0:0
     RDKit          3D

 94103  0  0  1  0  0  0  0  0999 V2000
  -30.0590  -22.5560   21.3860 N   0  0  0  0  0  4  0  0  0  0  0  0
  -29.6050  -22.6080   20.4880 H   0  0  0  0  0  0  0  0  0  0  0  0
  -31.0470  -22.4700   21.2130 H   0  0  0  0  0  0  0  0  0  0  0  0
  -30.8070  -23.9600   23.2910 C   0  0  0  0  0  1  0  0  0  0  0  0
  -29.7960  -23.8210   22.1320 C   0  0  0  0  0  3  0  0  0  0  0  0
  -29.8220  -25.0890   21.2290 C   0  0  0  0  0  2  0  0  0  0  0  0
  -28.5030  -25.4160   20.4830 C   0  0  0  0  0  2  0  0  0  0  0  0
  -28.5440  -26.7720   20.0210 O   0  0  0  0  0  0  0  0  0  0  0  0
  -24.5710  -31.7570   23.1550 C   0  0  0  0  0  0  0  0  0  0  0  0
  -27.3450  -27.4500   20.0190 C   0  0  0  0  0  0  0  0  0  0  0  0
  -23.4120  -30.3780   21.4560 C   0  0  0  0  0  3  0  0  0  0  0  0
  -24.9150  -28.8930   20.0230 C   0  0  0  0  0  0  0  0  0  0  0  0
  -25.9310  -30.7880   21.3050 C   0  0  0  0  0  2  0  0  0  0  0  0
  -26.0500  -29.4340   20.6360 C   0  0  0  0  0  0  0  0  0  0  0  0
  -27.2690  -28.7220   20.6260 C   0  0  0  0  0  3  0  0  0  0  0  0
  -26.1930  -26.9110   19.4070 C   0  0  0  0  0  3  0  0  0  0  0  0
  -24.9790  -27.6290   19.4060 C   0  0  0  0  0  3  0  0  0  0  0  0
  -23.6530  -29.7270   20.0680 C   0  0  0  0  0  2  0  0  0  0  0  0
  -24.6550  -30.9880   22.0320 N   0  0  0  0  0  0  0  0  0  0  0  0
  -23.4780  -31.9990   23.6850 O   0  0  0  0  0  0  0  0  0  0  0  0
  -22.7610  -29.3270   22.3830 C   0  0  0  0  0  0  0  0  0  0  0  0
  -21.4400  -29.1360   22.2350 N   0  0  0  0  0  0  0  0  0  0  0  0
  -23.4410  -28.6860   23.1880 O   0  0  0  0  0  0  0  0  0  0  0  0
  -20.9510  -29.7050   21.5580 H   0  0  0  0  0  0  0  0  0  0  0  0
  -18.0670  -27.9230   22.6850 C   0  0  0  0  0  0  0  0  0  0  0  0
  -20.6240  -28.1680   22.9680 C   0  0  0  0  0  3  0  0  0  0  0  0
  -20.7260  -26.7610   22.3340 C   0  0  0  0  0  2  0  0  0  0  0  0
  -19.6230  -26.4810   21.3080 C   0  0  0  0  0  2  0  0  0  0  0  0
  -18.2420  -26.6010   21.9570 C   0  0  0  0  0  2  0  0  0  0  0  0
  -19.1860  -28.6660   23.1460 C   0  0  0  0  0  0  0  0  0  0  0  0
  -18.9700  -29.9060   23.7840 C   0  0  0  0  0  3  0  0  0  0  0  0
  -17.6660  -30.4040   23.9690 C   0  0  0  0  0  3  0  0  0  0  0  0
  -16.5600  -29.6560   23.5270 C   0  0  0  0  0  3  0  0  0  0  0  0
  -16.7620  -28.4180   22.8900 C   0  0  0  0  0  3  0  0  0  0  0  0
  -25.8390  -32.3880   23.8100 C   0  0  0  0  0  3  0  0  0  0  0  0
  -25.5170  -33.7830   24.1410 N   0  0  0  0  0  0  0  0  0  0  0  0
  -25.8790  -34.8420   23.4040 C   0  0  0  0  0  0  0  0  0  0  0  0
  -26.5900  -34.7480   22.3990 O   0  0  0  0  0  0  0  0  0  0  0  0
  -24.8930  -33.9320   24.9200 H   0  0  0  0  0  0  0  0  0  0  0  0
  -24.1810  -36.6470   22.9780 C   0  0  0  0  0  1  0  0  0  0  0  0
  -25.3720  -36.2260   23.8530 C   0  0  0  0  0  3  0  0  0  0  0  0
  -27.4590  -37.0890   24.8170 C   0  0  0  0  0  1  0  0  0  0  0  0
  -26.4140  -37.2750   23.8140 N   0  0  0  0  0  0  0  0  0  0  0  0
  -26.0030  -38.1950   23.9520 H   0  0  0  0  0  0  0  0  0  0  0  0
  -26.3310  -31.6100   25.0930 C   0  0  1  0  0  0  0  0  0  0  0  0
  -25.2140  -31.3570   26.1320 C   0  0  0  0  0  1  0  0  0  0  0  0
  -26.9340  -30.2410   24.7000 C   0  0  0  0  0  1  0  0  0  0  0  0
  -27.4600  -32.4070   25.7890 C   0  0  0  0  0  1  0  0  0  0  0  0
  -29.5630  -21.3190   22.0470 C   0  0  0  0  0  2  0  0  0  0  0  0
  -30.2470  -19.1020   23.1340 C   0  0  0  0  0  2  0  0  0  0  0  0
  -30.3910  -17.7190   22.4960 C   0  0  0  0  0  2  0  0  0  0  0  0
  -30.5810  -19.3070   20.7220 C   0  0  0  0  0  2  0  0  0  0  0  0
  -28.6420  -17.6080   20.5530 C   0  0  0  0  0  2  0  0  0  0  0  0
  -30.5680  -20.1340   22.0290 C   0  0  0  0  0  3  0  0  0  0  0  0
  -29.8300  -16.8040   20.0490 C   0  0  0  0  0  3  0  0  0  0  0  0
  -30.0210  -17.9330   21.0540 C   0  0  2  0  0  0  0  0  0  0  0  0
  -30.5410  -14.4560   19.8750 C   0  0  0  0  0  0  0  0  0  0  0  0
  -30.2150  -12.3070   18.7310 C   0  0  0  0  0  2  0  0  0  0  0  0
  -29.1330  -12.5160   17.6500 C   0  0  0  0  0  2  0  0  0  0  0  0
  -27.7200  -12.3150   18.2380 C   0  0  0  0  0  2  0  0  0  0  0  0
  -27.5040  -13.0960   19.5600 C   0  0  0  0  0  3  0  0  0  0  0  0
  -28.6900  -12.8770   20.5320 C   0  0  0  0  0  2  0  0  0  0  0  0
  -29.9290  -13.2450   19.8260 N   0  0  0  0  0  0  0  0  0  0  0  0
  -31.5790  -14.7190   19.2640 O   0  0  0  0  0  0  0  0  0  0  0  0
  -29.8030  -15.4250   20.4400 N   0  0  0  0  0  0  0  0  0  0  0  0
  -28.9820  -15.1090   20.9340 H   0  0  0  0  0  0  0  0  0  0  0  0
  -25.1990  -13.5940   20.5960 C   0  0  0  0  0  0  0  0  0  0  0  0
  -24.1980  -12.7720   21.0420 C   0  0  0  0  0  0  0  0  0  0  0  0
  -24.6760  -11.4380   20.8630 C   0  0  0  0  0  0  0  0  0  0  0  0
  -26.2240  -12.7580   20.1790 N   0  0  0  0  0  0  0  0  0  0  0  0
  -25.9170  -11.4520   20.3920 N   0  0  0  0  0  0  0  0  0  0  0  0
  -24.0020  -10.1480   21.0590 C   0  0  0  0  0  0  0  0  0  0  0  0
  -24.4750   -9.2040   21.9980 C   0  0  0  0  0  3  0  0  0  0  0  0
  -23.8020   -7.9760   22.1820 C   0  0  0  0  0  3  0  0  0  0  0  0
  -22.6430   -7.6820   21.4250 C   0  0  0  0  0  0  0  0  0  0  0  0
  -22.1880   -8.6150   20.4760 C   0  0  0  0  0  3  0  0  0  0  0  0
  -22.8620   -9.8350   20.2920 C   0  0  0  0  0  3  0  0  0  0  0  0
  -21.9400   -6.5050   21.5170 O   0  0  0  0  0  0  0  0  0  0  0  0
  -21.7830   -5.8540   22.7140 C   0  0  0  0  0  0  0  0  0  0  0  0
  -21.1610   -6.4700   23.8220 C   0  0  0  0  0  3  0  0  0  0  0  0
  -20.9570   -5.7390   25.0090 C   0  0  0  0  0  3  0  0  0  0  0  0
  -21.3620   -4.3940   25.0880 C   0  0  0  0  0  0  0  0  0  0  0  0
  -21.9760   -3.7770   23.9840 C   0  0  0  0  0  3  0  0  0  0  0  0
  -22.1850   -4.5050   22.8010 C   0  0  0  0  0  0  0  0  0  0  0  0
  -22.7570   -3.9010   21.7320 F   0  0  0  0  0  0  0  0  0  0  0  0
  -21.1580   -3.6910   26.2270 F   0  0  0  0  0  0  0  0  0  0  0  0
  -22.8380  -13.1960   21.5180 C   0  0  0  0  0  0  0  0  0  0  0  0
  -22.2500  -12.4480   22.4440 N   0  0  0  0  0  0  0  0  0  0  0  0
  -22.3070  -14.2260   21.1040 O   0  0  0  0  0  0  0  0  0  0  0  0
  -22.6910  -11.6160   22.8040 H   0  0  0  0  0  0  0  0  0  0  0  0
  -21.3410  -12.7140   22.8000 H   0  0  0  0  0  0  0  0  0  0  0  0
  -25.3150  -14.9760   20.4900 N   0  0  0  0  0  0  0  0  0  0  0  0
  -24.5500  -15.6000   20.7270 H   0  0  0  0  0  0  0  0  0  0  0  0
  -26.0960  -15.4540   20.0610 H   0  0  0  0  0  0  0  0  0  0  0  0
  1 49  1  0
  1  5  1  0
  2  1  1  0
  3  1  1  0
  5  4  1  0
  6  5  1  0
  7  6  1  0
  8  7  1  0
  9 20  2  0
 10  8  1  0
 10 15  1  0
 11 19  1  0
 11 21  1  0
 12 18  1  0
 12 14  1  0
 13 19  1  0
 14 13  1  0
 15 14  2  0
 16 10  2  0
 17 16  1  0
 17 12  2  0
 18 11  1  0
 19  9  1  0
 21 23  2  0
 22 21  1  0
 24 22  1  0
 25 34  2  0
 25 30  1  0
 26 22  1  0
 26 30  1  0
 27 26  1  0
 28 29  1  0
 28 27  1  0
 29 25  1  0
 30 31  2  0
 31 32  1  0
 33 32  2  0
 34 33  1  0
 35  9  1  0
 35 36  1  0
 35 45  1  0
 36 39  1  0
 37 41  1  0
 37 36  1  0
 38 37  2  0
 41 40  1  0
 43 41  1  0
 43 44  1  0
 43 42  1  0
 45 48  1  1
 45 46  1  0
 47 45  1  0
 51 50  1  0
 56 52  1  6
 52 54  1  0
 54 49  1  0
 54 50  1  0
 55 65  1  0
 55 53  1  0
 55 56  1  0
 56 53  1  0
 56 51  1  0
 57 65  1  0
 58 63  1  0
 59 60  1  0
 59 58  1  0
 61 60  1  0
 61 70  1  0
 61 62  1  0
 63 57  1  0
 63 62  1  0
 64 57  2  0
 65 66  1  0
 67 68  2  0
 68 87  1  0
 69 68  1  0
 69 72  1  0
 70 71  1  0
 70 67  1  0
 71 69  2  0
 72 73  1  0
 73 74  2  0
 75 78  1  0
 75 74  1  0
 76 75  2  0
 77 76  1  0
 77 72  2  0
 78 79  1  0
 79 84  2  0
 79 80  1  0
 80 81  2  0
 81 82  1  0
 82 86  1  0
 83 82  2  0
 84 83  1  0
 85 84  1  0
 87 88  1  0
 88 91  1  0
 88 90  1  0
 89 87  2  0
 92 67  1  0
 92 93  1  0
 94 92  1  0
M  ISO  4   7 101   8 101  57 100  65 100
M  END
>  <TORSDO>  (92) 
F 21

>  <SCORE>  (92) 
-10.349

>  <name>  (92) 
91

>  <ligand_id>  (92) 
91

>  <original_smiles>  (92) 
[H]c1c([H])c([H])c2c(c1[H])C([H])([H])C([H])([H])C([H])([H])C2([H])N([H])C(=O)C1([H])N(C(=O)C([H])(N([H])C(=O)C([H])(N([H])C([H])([H])[H])C([H])([H])[H])C(C([H])([H])[H])(C([H])([H])[H])C([H])([H])[H])C([H])([H])c2c([H])c(OC([H])([H])C([H])([H])C([H])(C([H])([H])[H])[N+]([H])([H])C([H])([H])C3([H])C([H])([H])C([H])([H])C4(C([H])([H])C4([H])N([H])C(=O)N4C([H])([H])C([H])([H])C([H])([H])C([H])(n5nc(-c6c([H])c([H])c(Oc7c([H])c([H])c(F)c([H])c7F)c([H])c6[H])c(C(=O)N([H])[H])c5N([H])[H])C4([H])[H])C3([H])[H])c([H])c([H])c2C1([H])[H]

>  <smiles>  (92) 
[H]c1c([H])c([H])c2c(c1[H])C([H])([H])C([H])([H])C([H])([H])C2([H])N([H])C(=O)C1([H])N(C(=O)C([H])(N([H])C(=O)C([H])(N([H])C([H])([H])[H])C([H])([H])[H])C(C([H])([H])[H])(C([H])([H])[H])C([H])([H])[H])C([H])([H])c2c([H])c(OC([H])([H])C([H])([H])C([H])(C([H])([H])[H])[N+]([H])([H])C([H])([H])C3([H])C([H])([H])C([H])([H])C4(C([H])([H])C4([H])N([H])C(=O)N4C([H])([H])C([H])([H])C([H])([H])C([H])(n5nc(-c6c([H])c([H])c(Oc7c([H])c([H])c(F)c([H])c7F)c([H])c6[H])c(C(=O)N([H])[H])c5N([H])[H])C4([H])[H])C3([H])[H])c([H])c([H])c2C1([H])[H]

$$$$
92:0:0
     RDKit          3D

 98107  0  0  1  0  0  0  0  0999 V2000
  -29.5380  -18.7900   20.6950 C   0  0  0  0  0  3  0  0  0  0  0  0
  -30.0030  -18.7230   18.3290 C   0  0  0  0  0  3  0  0  0  0  0  0
  -30.1090  -17.5110   20.8620 C   0  0  0  0  0  0  0  0  0  0  0  0
  -29.4570  -19.4020   19.4310 C   0  0  0  0  0  0  0  0  0  0  0  0
  -30.5500  -17.4260   18.4490 C   0  0  0  0  0  0  0  0  0  0  0  0
  -30.5760  -16.7740   19.7290 C   0  0  0  0  0  0  0  0  0  0  0  0
  -31.0450  -16.8220   17.1420 C   0  0  0  0  0  1  0  0  0  0  0  0
  -31.3710  -14.4320   19.1700 C   0  0  0  0  0  0  0  0  0  0  0  0
  -30.8140  -12.2700   18.1400 C   0  0  0  0  0  2  0  0  0  0  0  0
  -29.6670  -12.4460   17.1260 C   0  0  0  0  0  2  0  0  0  0  0  0
  -28.3030  -12.3170   17.8290 C   0  0  0  0  0  2  0  0  0  0  0  0
  -28.1970  -13.2030   19.0990 C   0  0  0  0  0  3  0  0  0  0  0  0
  -29.4390  -13.0250   20.0010 C   0  0  0  0  0  2  0  0  0  0  0  0
  -30.6500  -13.2800   19.1960 N   0  0  0  0  0  0  0  0  0  0  0  0
  -32.3680  -14.5800   18.4670 O   0  0  0  0  0  0  0  0  0  0  0  0
  -30.9240  -15.3960   19.9810 N   0  0  0  0  0  0  0  0  0  0  0  0
  -30.4270  -14.9980   20.7630 H   0  0  0  0  0  0  0  0  0  0  0  0
  -26.0420  -13.8250   20.3660 C   0  0  0  0  0  0  0  0  0  0  0  0
  -25.0310  -13.0610   20.8820 C   0  0  0  0  0  0  0  0  0  0  0  0
  -25.3920  -11.7020   20.6220 C   0  0  0  0  0  0  0  0  0  0  0  0
  -26.9610  -12.9340   19.8320 N   0  0  0  0  0  0  0  0  0  0  0  0
  -26.5820  -11.6460   20.0390 N   0  0  0  0  0  0  0  0  0  0  0  0
  -24.6450  -10.4570   20.8390 C   0  0  0  0  0  0  0  0  0  0  0  0
  -25.0700   -9.4910   21.7780 C   0  0  0  0  0  3  0  0  0  0  0  0
  -24.3230   -8.3100   21.9800 C   0  0  0  0  0  3  0  0  0  0  0  0
  -23.1350   -8.0860   21.2420 C   0  0  0  0  0  0  0  0  0  0  0  0
  -22.7300   -9.0400   20.2920 C   0  0  0  0  0  3  0  0  0  0  0  0
  -23.4780  -10.2120   20.0880 C   0  0  0  0  0  3  0  0  0  0  0  0
  -22.3610   -6.9570   21.3550 O   0  0  0  0  0  0  0  0  0  0  0  0
  -22.0980   -6.3810   22.5730 C   0  0  0  0  0  0  0  0  0  0  0  0
  -21.4600   -7.0930   23.6110 C   0  0  0  0  0  3  0  0  0  0  0  0
  -21.1450   -6.4410   24.8210 C   0  0  0  0  0  3  0  0  0  0  0  0
  -21.4610   -5.0800   24.9920 C   0  0  0  0  0  0  0  0  0  0  0  0
  -22.0900   -4.3690   23.9560 C   0  0  0  0  0  3  0  0  0  0  0  0
  -22.4050   -5.0160   22.7480 C   0  0  0  0  0  0  0  0  0  0  0  0
  -22.9940   -4.3190   21.7460 F   0  0  0  0  0  0  0  0  0  0  0  0
  -21.1520   -4.4530   26.1500 F   0  0  0  0  0  0  0  0  0  0  0  0
  -23.7530  -13.5620   21.4920 C   0  0  0  0  0  0  0  0  0  0  0  0
  -23.2030  -12.8290   22.4550 N   0  0  0  0  0  0  0  0  0  0  0  0
  -23.2610  -14.6350   21.1490 O   0  0  0  0  0  0  0  0  0  0  0  0
  -23.6170  -11.9570   22.7500 H   0  0  0  0  0  0  0  0  0  0  0  0
  -22.3570  -13.1480   22.9040 H   0  0  0  0  0  0  0  0  0  0  0  0
  -26.2520  -15.1990   20.2840 N   0  0  0  0  0  0  0  0  0  0  0  0
  -25.5450  -15.8680   20.5670 H   0  0  0  0  0  0  0  0  0  0  0  0
  -27.0180  -15.6220   19.7770 H   0  0  0  0  0  0  0  0  0  0  0  0
  -28.0430  -21.3550   20.4400 C   0  0  0  0  0  2  0  0  0  0  0  0
  -27.6860  -22.7840   20.0130 C   0  0  0  0  0  2  0  0  0  0  0  0
  -29.4420  -21.8850   18.5580 C   0  0  0  0  0  2  0  0  0  0  0  0
  -28.6880  -20.7090   19.2070 C   0  0  0  0  0  3  0  0  0  0  0  0
  -28.3950  -23.0100   18.6570 C   0  0  0  0  0  3  0  0  0  0  0  0
  -28.8150  -24.4490   18.2380 C   0  0  0  0  0  2  0  0  0  0  0  0
  -28.9750  -25.5150   19.3440 C   0  0  0  0  0  2  0  0  0  0  0  0
  -28.7820  -26.8250   18.8090 O   0  0  0  0  0  0  0  0  0  0  0  0
  -24.7840  -31.0340   22.8810 C   0  0  0  0  0  0  0  0  0  0  0  0
  -27.5350  -27.3890   18.9890 C   0  0  0  0  0  0  0  0  0  0  0  0
  -23.5660  -29.8070   21.1040 C   0  0  0  0  0  3  0  0  0  0  0  0
  -25.0270  -28.6340   19.3690 C   0  0  0  0  0  0  0  0  0  0  0  0
  -26.0290  -30.4160   20.8140 C   0  0  0  0  0  2  0  0  0  0  0  0
  -26.1750  -29.1700   19.9680 C   0  0  0  0  0  0  0  0  0  0  0  0
  -27.4290  -28.5560   19.7720 C   0  0  0  0  0  3  0  0  0  0  0  0
  -26.3710  -26.8530   18.3940 C   0  0  0  0  0  3  0  0  0  0  0  0
  -25.1200  -27.4770   18.5750 C   0  0  0  0  0  3  0  0  0  0  0  0
  -23.7240  -29.3570   19.6260 C   0  0  0  0  0  2  0  0  0  0  0  0
  -24.8140  -30.4270   21.6600 N   0  0  0  0  0  0  0  0  0  0  0  0
  -23.7290  -31.1290   23.5230 O   0  0  0  0  0  0  0  0  0  0  0  0
  -23.0590  -28.6040   21.9280 C   0  0  0  0  0  0  0  0  0  0  0  0
  -21.7700  -28.2680   21.7610 N   0  0  0  0  0  0  0  0  0  0  0  0
  -23.8200  -27.9790   22.6700 O   0  0  0  0  0  0  0  0  0  0  0  0
  -21.2110  -28.8330   21.1360 H   0  0  0  0  0  0  0  0  0  0  0  0
  -18.6150  -26.5180   21.9510 C   0  0  0  0  0  0  0  0  0  0  0  0
  -21.0840  -27.1430   22.3960 C   0  0  0  0  0  3  0  0  0  0  0  0
  -21.4420  -25.8100   21.6990 C   0  0  0  0  0  2  0  0  0  0  0  0
  -20.4500  -25.4210   20.5980 C   0  0  0  0  0  2  0  0  0  0  0  0
  -19.0360  -25.2860   21.1690 C   0  0  0  0  0  2  0  0  0  0  0  0
  -19.5760  -27.3990   22.5140 C   0  0  0  0  0  0  0  0  0  0  0  0
  -19.1320  -28.5500   23.2010 C   0  0  0  0  0  3  0  0  0  0  0  0
  -17.7590  -28.8280   23.3270 C   0  0  0  0  0  3  0  0  0  0  0  0
  -16.8090  -27.9420   22.7840 C   0  0  0  0  0  3  0  0  0  0  0  0
  -17.2390  -26.7880   22.1040 C   0  0  0  0  0  3  0  0  0  0  0  0
  -26.0650  -31.6600   23.5180 C   0  0  0  0  0  3  0  0  0  0  0  0
  -26.7100  -30.7550   24.6380 C   0  0  1  0  0  0  0  0  0  0  0  0
  -25.6990  -30.2720   25.7030 C   0  0  0  0  0  1  0  0  0  0  0  0
  -27.3680  -29.5040   24.0090 C   0  0  0  0  0  1  0  0  0  0  0  0
  -27.8390  -31.5290   25.3600 C   0  0  0  0  0  1  0  0  0  0  0  0
  -25.6940  -32.9720   24.0640 N   0  0  0  0  0  0  0  0  0  0  0  0
  -25.9440  -34.1420   23.4610 C   0  0  0  0  0  0  0  0  0  0  0  0
  -26.5850  -34.2320   22.4110 O   0  0  0  0  0  0  0  0  0  0  0  0
  -25.1160  -32.9720   24.8930 H   0  0  0  0  0  0  0  0  0  0  0  0
  -24.1120  -35.8640   23.4130 C   0  0  0  0  0  1  0  0  0  0  0  0
  -25.3960  -35.4160   24.1310 C   0  0  0  0  0  3  0  0  0  0  0  0
  -27.4990  -36.2930   25.0470 C   0  0  0  0  0  1  0  0  0  0  0  0
  -26.3670  -36.5320   24.1550 N   0  0  0  0  0  0  0  0  0  0  0  0
  -25.9160  -37.3980   24.4380 H   0  0  0  0  0  0  0  0  0  0  0  0
  -30.1990  -16.9800   22.2690 C   0  0  0  0  0  0  0  0  0  0  0  0
  -29.0920  -16.4340   22.7550 N   0  0  0  0  0  0  0  0  0  0  0  0
  -31.2430  -17.0360   22.9190 O   0  0  0  0  0  0  0  0  0  0  0  0
  -28.2710  -16.3600   22.1740 H   0  0  0  0  0  0  0  0  0  0  0  0
  -29.0780  -16.0550   23.6900 H   0  0  0  0  0  0  0  0  0  0  0  0
  1  3  1  0
  2  5  2  0
  2  4  1  0
  3 94  1  0
  4  1  2  0
  5  6  1  0
  6 16  1  0
  6  3  2  0
  7  5  1  0
  8 14  1  0
  8 16  1  0
  9 14  1  0
 10 11  1  0
 10  9  1  0
 12 11  1  0
 12 21  1  0
 12 13  1  0
 14 13  1  0
 15  8  2  0
 16 17  1  0
 18 19  2  0
 19 38  1  0
 20 23  1  0
 20 19  1  0
 21 22  1  0
 21 18  1  0
 22 20  2  0
 23 24  1  0
 24 25  2  0
 26 29  1  0
 26 25  1  0
 27 26  2  0
 28 27  1  0
 28 23  2  0
 29 30  1  0
 30 35  2  0
 30 31  1  0
 31 32  2  0
 32 33  1  0
 33 37  1  0
 34 33  2  0
 35 34  1  0
 36 35  1  0
 38 39  1  0
 39 41  1  0
 39 42  1  0
 40 38  2  0
 43 18  1  0
 43 44  1  0
 45 43  1  0
 47 46  1  0
 48 50  1  0
 48 49  1  0
 49  4  1  0
 49 46  1  0
 50 51  1  0
 50 47  1  0
 51 52  1  0
 53 55  1  0
 53 52  1  0
 54 65  2  0
 55 60  1  0
 56 64  1  0
 56 66  1  0
 57 63  1  0
 57 59  1  0
 58 64  1  0
 59 58  1  0
 60 59  2  0
 61 62  1  0
 61 55  2  0
 62 57  2  0
 63 56  1  0
 64 54  1  0
 66 68  2  0
 67 66  1  0
 69 67  1  0
 70 79  2  0
 70 75  1  0
 71 67  1  0
 71 75  1  0
 72 71  1  0
 73 74  1  0
 73 72  1  0
 74 70  1  0
 75 76  2  0
 76 77  1  0
 78 77  2  0
 79 78  1  0
 80 54  1  0
 80 85  1  0
 80 81  1  0
 81 84  1  1
 81 82  1  0
 83 81  1  0
 85 88  1  0
 86 85  1  0
 86 90  1  0
 87 86  2  0
 90 89  1  0
 90 92  1  0
 92 93  1  0
 92 91  1  0
 94 95  1  0
 94 96  2  0
 95 98  1  0
 97 95  1  0
M  ISO  4   8 100  16 100  52 101  53 101
M  END
>  <TORSDO>  (93) 
F 20

>  <SCORE>  (93) 
-6.529

>  <name>  (93) 
92

>  <ligand_id>  (93) 
92

>  <original_smiles>  (93) 
[H]c1c([H])c([H])c2c(c1[H])C([H])([H])C([H])([H])C([H])([H])C2([H])N([H])C(=O)C1([H])N(C(=O)C([H])(N([H])C(=O)C([H])(N([H])C([H])([H])[H])C([H])([H])[H])C(C([H])([H])[H])(C([H])([H])[H])C([H])([H])[H])C([H])([H])c2c([H])c(OC([H])([H])C([H])([H])C3([H])C([H])([H])C([H])([H])C([H])(c4c([H])c(C(=O)N([H])[H])c(N([H])C(=O)N5C([H])([H])C([H])([H])C([H])([H])C([H])(n6nc(-c7c([H])c([H])c(Oc8c([H])c([H])c(F)c([H])c8F)c([H])c7[H])c(C(=O)N([H])[H])c6N([H])[H])C5([H])[H])c(C([H])([H])[H])c4[H])C3([H])[H])c([H])c([H])c2C1([H])[H]

>  <smiles>  (93) 
[H]c1c([H])c([H])c2c(c1[H])C([H])([H])C([H])([H])C([H])([H])C2([H])N([H])C(=O)C1([H])N(C(=O)C([H])(N([H])C(=O)C([H])(N([H])C([H])([H])[H])C([H])([H])[H])C(C([H])([H])[H])(C([H])([H])[H])C([H])([H])[H])C([H])([H])c2c([H])c(OC([H])([H])C([H])([H])C3([H])C([H])([H])C([H])([H])C([H])(c4c([H])c(C(=O)N([H])[H])c(N([H])C(=O)N5C([H])([H])C([H])([H])C([H])([H])C([H])(n6nc(-c7c([H])c([H])c(Oc8c([H])c([H])c(F)c([H])c8F)c([H])c7[H])c(C(=O)N([H])[H])c6N([H])[H])C5([H])[H])c(C([H])([H])[H])c4[H])C3([H])[H])c([H])c([H])c2C1([H])[H]

$$$$
93:0:0
     RDKit          3D

 91100  0  0  1  0  0  0  0  0999 V2000
  -30.3860  -17.8730   17.5560 C   0  0  0  0  0  2  0  0  0  0  0  0
  -28.6730  -19.4820   18.0560 C   0  0  0  0  0  2  0  0  0  0  0  0
  -31.5720  -17.7600   18.1560 C   0  0  0  0  0  2  0  0  0  0  0  0
  -29.4990  -18.4900   18.5030 C   0  0  0  0  0  3  0  0  0  0  0  0
  -28.2130  -20.6700   18.8450 C   0  0  0  0  0  0  0  0  0  0  0  0
  -31.5270  -18.2750   19.5900 C   0  0  0  0  0  2  0  0  0  0  0  0
  -29.5220  -19.6880   20.7440 C   0  0  0  0  0  2  0  0  0  0  0  0
  -29.1370  -21.1950   19.9500 C   0  0  0  0  0  3  0  0  0  0  0  0
  -30.0100  -18.2180   19.9320 C   0  0  1  0  0  0  0  0  0  0  0  0
  -27.1670  -21.2710   18.5860 O   0  0  0  0  0  0  0  0  0  0  0  0
  -30.4550  -15.3010   20.3350 C   0  0  0  0  0  0  0  0  0  0  0  0
  -30.3990  -12.8400   19.5380 C   0  0  0  0  0  2  0  0  0  0  0  0
  -29.5070  -12.6250   18.2910 C   0  0  0  0  0  2  0  0  0  0  0  0
  -28.0480  -12.3740   18.7070 C   0  0  0  0  0  2  0  0  0  0  0  0
  -27.5780  -13.3540   19.8110 C   0  0  0  0  0  3  0  0  0  0  0  0
  -28.6080  -13.5360   20.9450 C   0  0  0  0  0  2  0  0  0  0  0  0
  -29.8540  -14.0100   20.3180 N   0  0  0  0  0  0  0  0  0  0  0  0
  -31.6780  -15.2370   20.1480 O   0  0  0  0  0  0  0  0  0  0  0  0
  -29.7410  -16.6080   20.3490 N   0  0  0  0  0  0  0  0  0  0  0  0
  -28.7580  -16.4480   20.5160 H   0  0  0  0  0  0  0  0  0  0  0  0
  -25.1970  -13.9100   20.5380 C   0  0  0  0  0  0  0  0  0  0  0  0
  -24.1320  -13.1360   20.9030 C   0  0  0  0  0  0  0  0  0  0  0  0
  -24.6010  -11.7860   20.8850 C   0  0  0  0  0  0  0  0  0  0  0  0
  -26.2460  -13.0360   20.3130 N   0  0  0  0  0  0  0  0  0  0  0  0
  -25.8980  -11.7520   20.5920 N   0  0  0  0  0  0  0  0  0  0  0  0
  -23.8690  -10.5260   21.0730 C   0  0  0  0  0  0  0  0  0  0  0  0
  -24.2920   -9.5570   22.0120 C   0  0  0  0  0  3  0  0  0  0  0  0
  -23.5560   -8.3650   22.1910 C   0  0  0  0  0  3  0  0  0  0  0  0
  -22.3860   -8.1320   21.4300 C   0  0  0  0  0  0  0  0  0  0  0  0
  -21.9820   -9.0880   20.4810 C   0  0  0  0  0  3  0  0  0  0  0  0
  -22.7170  -10.2710   20.3000 C   0  0  0  0  0  3  0  0  0  0  0  0
  -21.6260   -6.9910   21.5170 O   0  0  0  0  0  0  0  0  0  0  0  0
  -21.5740   -6.2450   22.6670 C   0  0  0  0  0  0  0  0  0  0  0  0
  -21.1570   -6.8000   23.8970 C   0  0  0  0  0  3  0  0  0  0  0  0
  -21.0490   -5.9830   25.0400 C   0  0  0  0  0  3  0  0  0  0  0  0
  -21.3450   -4.6110   24.9550 C   0  0  0  0  0  0  0  0  0  0  0  0
  -21.7540   -4.0540   23.7300 C   0  0  0  0  0  3  0  0  0  0  0  0
  -21.8660   -4.8680   22.5900 C   0  0  0  0  0  0  0  0  0  0  0  0
  -22.2390   -4.3210   21.4080 F   0  0  0  0  0  0  0  0  0  0  0  0
  -21.2350   -3.8240   26.0510 F   0  0  0  0  0  0  0  0  0  0  0  0
  -22.7300  -13.6160   21.1440 C   0  0  0  0  0  0  0  0  0  0  0  0
  -21.9820  -12.9340   22.0030 N   0  0  0  0  0  0  0  0  0  0  0  0
  -22.3040  -14.6360   20.6040 O   0  0  0  0  0  0  0  0  0  0  0  0
  -22.3400  -12.1150   22.4740 H   0  0  0  0  0  0  0  0  0  0  0  0
  -21.0390  -13.2390   22.2000 H   0  0  0  0  0  0  0  0  0  0  0  0
  -25.3500  -15.2800   20.3500 N   0  0  0  0  0  0  0  0  0  0  0  0
  -24.5570  -15.9100   20.4100 H   0  0  0  0  0  0  0  0  0  0  0  0
  -26.1860  -15.7270   20.0000 H   0  0  0  0  0  0  0  0  0  0  0  0
  -28.7670  -22.8440   20.5710 C   0  0  0  0  0  2  0  0  0  0  0  0
  -28.1700  -24.3680   19.8500 C   0  0  0  0  0  2  0  0  0  0  0  0
  -28.2400  -25.9490   20.2690 O   0  0  0  0  0  0  0  0  0  0  0  0
  -24.6500  -31.8610   23.1920 C   0  0  0  0  0  0  0  0  0  0  0  0
  -27.2150  -27.0140   20.1660 C   0  0  0  0  0  0  0  0  0  0  0  0
  -23.4520  -30.4560   21.5590 C   0  0  0  0  0  3  0  0  0  0  0  0
  -24.9000  -28.8610   20.1310 C   0  0  0  0  0  0  0  0  0  0  0  0
  -26.0140  -30.6870   21.4020 C   0  0  0  0  0  2  0  0  0  0  0  0
  -26.0870  -29.2800   20.7460 C   0  0  0  0  0  0  0  0  0  0  0  0
  -27.2340  -28.3720   20.7480 C   0  0  0  0  0  3  0  0  0  0  0  0
  -26.0000  -26.7450   19.4960 C   0  0  0  0  0  3  0  0  0  0  0  0
  -24.8800  -27.6140   19.4880 C   0  0  0  0  0  3  0  0  0  0  0  0
  -23.6750  -29.7710   20.1830 C   0  0  0  0  0  2  0  0  0  0  0  0
  -24.7250  -31.0280   22.1050 N   0  0  0  0  0  0  0  0  0  0  0  0
  -23.5640  -32.1450   23.7220 O   0  0  0  0  0  0  0  0  0  0  0  0
  -22.7720  -29.4590   22.5310 C   0  0  0  0  0  0  0  0  0  0  0  0
  -21.4410  -29.2900   22.4190 N   0  0  0  0  0  0  0  0  0  0  0  0
  -23.4440  -28.8350   23.3560 O   0  0  0  0  0  0  0  0  0  0  0  0
  -20.9490  -29.8440   21.7300 H   0  0  0  0  0  0  0  0  0  0  0  0
  -18.0660  -28.0730   22.9500 C   0  0  0  0  0  0  0  0  0  0  0  0
  -20.6270  -28.3520   23.1990 C   0  0  0  0  0  3  0  0  0  0  0  0
  -20.7320  -26.9170   22.6320 C   0  0  0  0  0  2  0  0  0  0  0  0
  -19.6260  -26.5840   21.6250 C   0  0  0  0  0  2  0  0  0  0  0  0
  -18.2460  -26.7220   22.2760 C   0  0  0  0  0  2  0  0  0  0  0  0
  -19.1830  -28.8440   23.3690 C   0  0  0  0  0  0  0  0  0  0  0  0
  -18.9580  -30.1050   23.9630 C   0  0  0  0  0  3  0  0  0  0  0  0
  -17.6510  -30.5940   24.1410 C   0  0  0  0  0  3  0  0  0  0  0  0
  -16.5490  -29.8210   23.7360 C   0  0  0  0  0  3  0  0  0  0  0  0
  -16.7570  -28.5620   23.1470 C   0  0  0  0  0  3  0  0  0  0  0  0
  -25.9260  -32.5110   23.8130 C   0  0  0  0  0  3  0  0  0  0  0  0
  -25.6010  -33.9070   24.1510 N   0  0  0  0  0  0  0  0  0  0  0  0
  -25.9210  -34.9730   23.4060 C   0  0  0  0  0  0  0  0  0  0  0  0
  -26.5820  -34.8850   22.3670 O   0  0  0  0  0  0  0  0  0  0  0  0
  -25.0140  -34.0480   24.9610 H   0  0  0  0  0  0  0  0  0  0  0  0
  -24.1800  -36.7640   23.0890 C   0  0  0  0  0  1  0  0  0  0  0  0
  -25.4320  -36.3560   23.8820 C   0  0  0  0  0  3  0  0  0  0  0  0
  -27.5670  -37.2480   24.6990 C   0  0  0  0  0  1  0  0  0  0  0  0
  -26.4560  -37.4180   23.7680 N   0  0  0  0  0  0  0  0  0  0  0  0
  -26.0440  -38.3330   23.9340 H   0  0  0  0  0  0  0  0  0  0  0  0
  -26.4460  -31.7500   25.0960 C   0  0  1  0  0  0  0  0  0  0  0  0
  -25.3540  -31.5190   26.1670 C   0  0  0  0  0  1  0  0  0  0  0  0
  -27.0320  -30.3710   24.7190 C   0  0  0  0  0  1  0  0  0  0  0  0
  -27.5910  -32.5540   25.7520 C   0  0  0  0  0  1  0  0  0  0  0  0
  1  3  1  0
  2  4  1  0
  2  5  1  0
  3  6  1  0
  4  1  1  0
  4  9  1  0
  5  8  1  0
  6  9  1  0
  8 49  1  0
  8  7  1  0
  9 19  1  1
  9  7  1  0
 10  5  2  0
 11 19  1  0
 12 17  1  0
 13 14  1  0
 13 12  1  0
 15 14  1  0
 15 24  1  0
 15 16  1  0
 17 11  1  0
 17 16  1  0
 18 11  2  0
 19 20  1  0
 21 22  2  0
 22 41  1  0
 23 22  1  0
 23 26  1  0
 24 21  1  0
 24 25  1  0
 25 23  2  0
 26 27  1  0
 27 28  2  0
 29 32  1  0
 29 28  1  0
 30 29  2  0
 31 30  1  0
 31 26  2  0
 32 33  1  0
 33 34  1  0
 34 35  2  0
 36 35  1  0
 36 40  1  0
 37 36  2  0
 38 33  2  0
 38 37  1  0
 39 38  1  0
 41 42  1  0
 42 45  1  0
 42 44  1  0
 43 41  2  0
 46 47  1  0
 46 21  1  0
 48 46  1  0
 50 51  1  0
 50 49  1  0
 52 63  2  0
 53 51  1  0
 53 58  1  0
 54 62  1  0
 54 64  1  0
 55 61  1  0
 55 57  1  0
 56 62  1  0
 57 58  2  0
 57 56  1  0
 59 53  2  0
 60 59  1  0
 60 55  2  0
 61 54  1  0
 62 52  1  0
 64 66  2  0
 65 64  1  0
 67 65  1  0
 68 77  2  0
 68 73  1  0
 69 65  1  0
 69 73  1  0
 70 69  1  0
 71 72  1  0
 71 70  1  0
 72 68  1  0
 73 74  2  0
 74 75  1  0
 76 75  2  0
 77 76  1  0
 78 52  1  0
 78 79  1  0
 78 88  1  0
 79 82  1  0
 80 84  1  0
 80 79  1  0
 81 80  2  0
 84 83  1  0
 86 84  1  0
 86 87  1  0
 86 85  1  0
 88 91  1  1
 88 89  1  0
 90 88  1  0
M  ISO  4  11 100  19 100  50 101  51 101
M  END
>  <TORSDO>  (94) 
F 18

>  <SCORE>  (94) 
-16.197

>  <name>  (94) 
93

>  <ligand_id>  (94) 
93

>  <original_smiles>  (94) 
[H]C1=C([H])C([H])([H])C2(N([H])C(=O)N3C([H])([H])C([H])([H])C([H])([H])C([H])(n4nc(-c5c([H])c([H])c(Oc6c([H])c([H])c(F)c([H])c6F)c([H])c5[H])c(C(=O)N([H])[H])c4N([H])[H])C3([H])[H])C1=C([H])C(=O)C([H])(C([H])([H])C([H])([H])Oc1c([H])c([H])c3c(c1[H])C([H])([H])N(C(=O)C([H])(N([H])C(=O)C([H])(N([H])C([H])([H])[H])C([H])([H])[H])C(C([H])([H])[H])(C([H])([H])[H])C([H])([H])[H])C([H])(C(=O)N([H])C1([H])c4c([H])c([H])c([H])c([H])c4C([H])([H])C([H])([H])C1([H])[H])C3([H])[H])C2([H])[H]

>  <smiles>  (94) 
[H]C1=C([H])C([H])([H])C2(N([H])C(=O)N3C([H])([H])C([H])([H])C([H])([H])C([H])(n4nc(-c5c([H])c([H])c(Oc6c([H])c([H])c(F)c([H])c6F)c([H])c5[H])c(C(=O)N([H])[H])c4N([H])[H])C3([H])[H])C1=C([H])C(=O)C([H])(C([H])([H])C([H])([H])Oc1c([H])c([H])c3c(c1[H])C([H])([H])N(C(=O)C([H])(N([H])C(=O)C([H])(N([H])C([H])([H])[H])C([H])([H])[H])C(C([H])([H])[H])(C([H])([H])[H])C([H])([H])[H])C([H])(C(=O)N([H])C1([H])c4c([H])c([H])c([H])c([H])c4C([H])([H])C([H])([H])C1([H])[H])C3([H])[H])C2([H])[H]

$$$$
95:0:0
     RDKit          3D

 94103  0  0  1  0  0  0  0  0999 V2000
  -31.0020  -21.2780   21.4620 C   0  0  0  0  0  2  0  0  0  0  0  0
  -30.5440  -20.0520   22.2530 C   0  0  0  0  0  2  0  0  0  0  0  0
  -31.1980  -18.1120   19.6940 C   0  0  0  0  0  2  0  0  0  0  0  0
  -29.6780  -17.7430   21.5490 C   0  0  0  0  0  2  0  0  0  0  0  0
  -30.3900  -19.4440   19.9060 C   0  0  0  0  0  3  0  0  0  0  0  0
  -30.9070  -17.1210   20.8630 C   0  0  0  0  0  3  0  0  0  0  0  0
  -31.2160  -20.7850   20.0160 C   0  0  0  0  0  3  0  0  0  0  0  0
  -29.6790  -19.2590   21.2610 C   0  0  2  0  0  0  0  0  0  0  0  0
  -28.2400  -19.8240   21.2500 C   0  0  0  0  0  1  0  0  0  0  0  0
  -31.3110  -14.7430   19.8830 C   0  0  0  0  0  0  0  0  0  0  0  0
  -30.9690  -12.5730   18.7290 C   0  0  0  0  0  2  0  0  0  0  0  0
  -29.9490  -12.7650   17.5860 C   0  0  0  0  0  2  0  0  0  0  0  0
  -28.5040  -12.6420   18.1130 C   0  0  0  0  0  2  0  0  0  0  0  0
  -28.2530  -13.4930   19.3870 C   0  0  0  0  0  3  0  0  0  0  0  0
  -29.3680  -13.2400   20.4250 C   0  0  0  0  0  2  0  0  0  0  0  0
  -30.6520  -13.5540   19.7770 N   0  0  0  0  0  0  0  0  0  0  0  0
  -32.4180  -14.9400   19.3760 O   0  0  0  0  0  0  0  0  0  0  0  0
  -30.5870  -15.7240   20.4790 N   0  0  0  0  0  0  0  0  0  0  0  0
  -29.6880  -15.4010   20.8000 H   0  0  0  0  0  0  0  0  0  0  0  0
  -25.9730  -14.1660   20.3640 C   0  0  0  0  0  0  0  0  0  0  0  0
  -24.8890  -13.4250   20.7490 C   0  0  0  0  0  0  0  0  0  0  0  0
  -25.2460  -12.0600   20.5330 C   0  0  0  0  0  0  0  0  0  0  0  0
  -26.9280  -13.2510   19.9510 N   0  0  0  0  0  0  0  0  0  0  0  0
  -26.5000  -11.9730   20.1080 N   0  0  0  0  0  0  0  0  0  0  0  0
  -24.4480  -10.8340   20.6480 C   0  0  0  0  0  0  0  0  0  0  0  0
  -24.8080   -9.7960   21.5380 C   0  0  0  0  0  3  0  0  0  0  0  0
  -24.0120   -8.6370   21.6440 C   0  0  0  0  0  3  0  0  0  0  0  0
  -22.8370   -8.5060   20.8630 C   0  0  0  0  0  0  0  0  0  0  0  0
  -22.4950   -9.5330   19.9640 C   0  0  0  0  0  3  0  0  0  0  0  0
  -23.2930  -10.6840   19.8550 C   0  0  0  0  0  3  0  0  0  0  0  0
  -22.0170   -7.4050   20.8840 O   0  0  0  0  0  0  0  0  0  0  0  0
  -21.7350   -6.7400   22.0520 C   0  0  0  0  0  0  0  0  0  0  0  0
  -21.1490   -7.3920   23.1580 C   0  0  0  0  0  3  0  0  0  0  0  0
  -20.8120   -6.6540   24.3120 C   0  0  0  0  0  3  0  0  0  0  0  0
  -21.0500   -5.2670   24.3550 C   0  0  0  0  0  0  0  0  0  0  0  0
  -21.6300   -4.6160   23.2510 C   0  0  0  0  0  3  0  0  0  0  0  0
  -21.9680   -5.3510   22.1010 C   0  0  0  0  0  0  0  0  0  0  0  0
  -22.5080   -4.7150   21.0320 F   0  0  0  0  0  0  0  0  0  0  0  0
  -20.7200   -4.5560   25.4580 F   0  0  0  0  0  0  0  0  0  0  0  0
  -23.5580  -13.9570   21.1950 C   0  0  0  0  0  0  0  0  0  0  0  0
  -22.8740  -13.2360   22.0750 N   0  0  0  0  0  0  0  0  0  0  0  0
  -23.1420  -15.0470   20.8040 O   0  0  0  0  0  0  0  0  0  0  0  0
  -23.2210  -12.3510   22.4150 H   0  0  0  0  0  0  0  0  0  0  0  0
  -21.9880  -13.5770   22.4200 H   0  0  0  0  0  0  0  0  0  0  0  0
  -26.2130  -15.5360   20.3110 N   0  0  0  0  0  0  0  0  0  0  0  0
  -25.4710  -16.2000   20.5030 H   0  0  0  0  0  0  0  0  0  0  0  0
  -27.0290  -15.9640   19.8970 H   0  0  0  0  0  0  0  0  0  0  0  0
  -30.8550  -21.8500   19.0180 N   0  0  0  0  0  4  0  0  0  0  0  0
  -31.0120  -21.4340   18.1110 H   0  0  0  0  0  0  0  0  0  0  0  0
  -29.8740  -22.0670   19.0670 H   0  0  0  0  0  0  0  0  0  0  0  0
  -31.6910  -23.1010   19.0280 C   0  0  0  0  0  2  0  0  0  0  0  0
  -31.1190  -24.4010   19.7140 C   0  0  0  0  0  2  0  0  0  0  0  0
  -29.9680  -25.1880   19.0020 C   0  0  0  0  0  2  0  0  0  0  0  0
  -29.7840  -26.5510   19.4950 O   0  0  0  0  0  0  0  0  0  0  0  0
  -24.9850  -30.5990   22.9410 C   0  0  0  0  0  0  0  0  0  0  0  0
  -28.5120  -27.1220   19.4640 C   0  0  0  0  0  0  0  0  0  0  0  0
  -24.1310  -29.2830   21.0370 C   0  0  0  0  0  3  0  0  0  0  0  0
  -25.8950  -28.2360   19.5160 C   0  0  0  0  0  0  0  0  0  0  0  0
  -26.5700  -30.0640   21.0810 C   0  0  0  0  0  2  0  0  0  0  0  0
  -26.9210  -28.8360   20.2560 C   0  0  0  0  0  0  0  0  0  0  0  0
  -28.2310  -28.2880   20.2290 C   0  0  0  0  0  3  0  0  0  0  0  0
  -27.4650  -26.5630   18.6990 C   0  0  0  0  0  3  0  0  0  0  0  0
  -26.1660  -27.1020   18.7320 C   0  0  0  0  0  3  0  0  0  0  0  0
  -24.5190  -28.8590   19.5960 C   0  0  0  0  0  2  0  0  0  0  0  0
  -25.2410  -29.9960   21.7440 N   0  0  0  0  0  0  0  0  0  0  0  0
  -23.8470  -30.6010   23.4290 O   0  0  0  0  0  0  0  0  0  0  0  0
  -23.6200  -28.0390   21.7980 C   0  0  0  0  0  0  0  0  0  0  0  0
  -22.3690  -27.6380   21.5220 N   0  0  0  0  0  0  0  0  0  0  0  0
  -24.3530  -27.4380   22.5910 O   0  0  0  0  0  0  0  0  0  0  0  0
  -21.8340  -28.1820   20.8600 H   0  0  0  0  0  0  0  0  0  0  0  0
  -19.2710  -25.7790   21.5500 C   0  0  0  0  0  0  0  0  0  0  0  0
  -21.7020  -26.4680   22.0890 C   0  0  0  0  0  3  0  0  0  0  0  0
  -22.1270  -25.1820   21.3500 C   0  0  0  0  0  2  0  0  0  0  0  0
  -21.1820  -24.8110   20.2030 C   0  0  0  0  0  2  0  0  0  0  0  0
  -19.7570  -24.5980   20.7250 C   0  0  0  0  0  2  0  0  0  0  0  0
  -20.1850  -26.6680   22.1750 C   0  0  0  0  0  0  0  0  0  0  0  0
  -19.6860  -27.7740   22.8970 C   0  0  0  0  0  3  0  0  0  0  0  0
  -18.3010  -27.9970   23.0020 C   0  0  0  0  0  3  0  0  0  0  0  0
  -17.3990  -27.1050   22.3970 C   0  0  0  0  0  3  0  0  0  0  0  0
  -17.8820  -25.9980   21.6770 C   0  0  0  0  0  3  0  0  0  0  0  0
  -26.1050  -31.3370   23.7390 C   0  0  0  0  0  3  0  0  0  0  0  0
  -26.5790  -30.5490   25.0200 C   0  0  1  0  0  0  0  0  0  0  0  0
  -25.4210  -30.1060   25.9470 C   0  0  0  0  0  1  0  0  0  0  0  0
  -27.3730  -29.2830   24.6210 C   0  0  0  0  0  1  0  0  0  0  0  0
  -27.5460  -31.4280   25.8460 C   0  0  0  0  0  1  0  0  0  0  0  0
  -25.5870  -32.6630   24.1050 N   0  0  0  0  0  0  0  0  0  0  0  0
  -25.8830  -33.7980   23.4600 C   0  0  0  0  0  0  0  0  0  0  0  0
  -26.6870  -33.8480   22.5250 O   0  0  0  0  0  0  0  0  0  0  0  0
  -24.8900  -32.6930   24.8340 H   0  0  0  0  0  0  0  0  0  0  0  0
  -24.0250  -35.4180   22.9580 C   0  0  0  0  0  1  0  0  0  0  0  0
  -25.1750  -35.0870   23.9240 C   0  0  0  0  0  3  0  0  0  0  0  0
  -27.0450  -36.1290   25.1280 C   0  0  0  0  0  1  0  0  0  0  0  0
  -26.0830  -36.2490   24.0340 N   0  0  0  0  0  0  0  0  0  0  0  0
  -25.5580  -37.1100   24.1600 H   0  0  0  0  0  0  0  0  0  0  0  0
  1  2  1  0
  3  6  1  0
  5  3  1  0
  5  7  1  0
  5  8  1  0
  6 18  1  0
  6  4  1  0
  7 48  1  0
  7  1  1  0
  8  9  1  6
  8  4  1  0
  8  2  1  0
 10 18  1  0
 11 16  1  0
 12 13  1  0
 12 11  1  0
 14 13  1  0
 14 23  1  0
 14 15  1  0
 16 10  1  0
 16 15  1  0
 17 10  2  0
 18 19  1  0
 20 21  2  0
 21 40  1  0
 22 25  1  0
 22 21  1  0
 23 24  1  0
 23 20  1  0
 24 22  2  0
 25 26  1  0
 26 27  2  0
 28 31  1  0
 28 27  1  0
 29 28  2  0
 30 29  1  0
 30 25  2  0
 31 32  1  0
 32 37  2  0
 32 33  1  0
 33 34  2  0
 34 35  1  0
 35 39  1  0
 36 35  2  0
 37 36  1  0
 38 37  1  0
 40 41  1  0
 41 43  1  0
 41 44  1  0
 42 40  2  0
 45 20  1  0
 45 46  1  0
 47 45  1  0
 48 51  1  0
 48 50  1  0
 49 48  1  0
 51 52  1  0
 53 54  1  0
 53 52  1  0
 55 66  2  0
 56 54  1  0
 56 61  1  0
 57 65  1  0
 57 67  1  0
 58 64  1  0
 58 60  1  0
 59 65  1  0
 60 59  1  0
 61 60  2  0
 62 63  1  0
 62 56  2  0
 63 58  2  0
 64 57  1  0
 65 55  1  0
 67 69  2  0
 68 67  1  0
 70 68  1  0
 71 80  2  0
 71 76  1  0
 72 68  1  0
 72 76  1  0
 73 72  1  0
 74 75  1  0
 74 73  1  0
 75 71  1  0
 76 77  2  0
 77 78  1  0
 79 78  2  0
 80 79  1  0
 81 55  1  0
 81 86  1  0
 81 82  1  0
 82 85  1  1
 82 83  1  0
 84 82  1  0
 86 89  1  0
 87 91  1  0
 87 86  1  0
 88 87  2  0
 91 90  1  0
 91 93  1  0
 93 94  1  0
 93 92  1  0
M  ISO  4  10 100  18 100  53 101  54 101
M  END
>  <TORSDO>  (95) 
F 20

>  <SCORE>  (95) 
-8.426

>  <name>  (95) 
95

>  <ligand_id>  (95) 
95

>  <original_smiles>  (95) 
[H]c1c([H])c([H])c2c(c1[H])C([H])([H])C([H])([H])C([H])([H])C2([H])N([H])C(=O)C1([H])N(C(=O)C([H])(N([H])C(=O)C([H])(N([H])C([H])([H])[H])C([H])([H])[H])C(C([H])([H])[H])(C([H])([H])[H])C([H])([H])[H])C([H])([H])c2c([H])c(OC([H])([H])C([H])([H])C([H])([H])[N+]([H])([H])C3([H])C([H])([H])C([H])([H])C4(C([H])([H])[H])C([H])([H])C([H])(N([H])C(=O)N5C([H])([H])C([H])([H])C([H])([H])C([H])(n6nc(-c7c([H])c([H])c(Oc8c([H])c([H])c(F)c([H])c8F)c([H])c7[H])c(C(=O)N([H])[H])c6N([H])[H])C5([H])[H])C([H])([H])C43[H])c([H])c([H])c2C1([H])[H]

>  <smiles>  (95) 
[H]c1c([H])c([H])c2c(c1[H])C([H])([H])C([H])([H])C([H])([H])C2([H])N([H])C(=O)C1([H])N(C(=O)C([H])(N([H])C(=O)C([H])(N([H])C([H])([H])[H])C([H])([H])[H])C(C([H])([H])[H])(C([H])([H])[H])C([H])([H])[H])C([H])([H])c2c([H])c(OC([H])([H])C([H])([H])C([H])([H])[N+]([H])([H])C3([H])C([H])([H])C([H])([H])C4(C([H])([H])[H])C([H])([H])C([H])(N([H])C(=O)N5C([H])([H])C([H])([H])C([H])([H])C([H])(n6nc(-c7c([H])c([H])c(Oc8c([H])c([H])c(F)c([H])c8F)c([H])c7[H])c(C(=O)N([H])[H])c6N([H])[H])C5([H])[H])C([H])([H])C43[H])c([H])c([H])c2C1([H])[H]

$$$$
96:0:0
     RDKit          3D

 90 98  0  0  1  0  0  0  0  0999 V2000
  -29.5880  -18.0800   18.3650 C   0  0  0  0  0  2  0  0  0  0  0  0
  -29.5930  -19.6390   18.2850 C   0  0  0  0  0  2  0  0  0  0  0  0
  -30.3750  -17.6670   19.6190 C   0  0  0  0  0  3  0  0  0  0  0  0
  -29.3290  -20.2780   19.6820 C   0  0  2  0  0  0  0  0  0  0  0  0
  -30.0670  -19.0280   20.5290 C   0  0  1  0  0  0  0  0  0  0  0  0
  -27.7990  -20.2860   19.8910 C   0  0  0  0  0  1  0  0  0  0  0  0
  -29.2430  -18.6040   21.7620 C   0  0  0  0  0  1  0  0  0  0  0  0
  -31.4170  -19.5520   21.0480 C   0  0  0  0  0  1  0  0  0  0  0  0
  -30.8820  -14.9650   19.8510 C   0  0  0  0  0  0  0  0  0  0  0  0
  -30.6750  -12.6050   18.9590 C   0  0  0  0  0  2  0  0  0  0  0  0
  -29.6800  -12.5870   17.7760 C   0  0  0  0  0  2  0  0  0  0  0  0
  -28.2380  -12.4040   18.2870 C   0  0  0  0  0  2  0  0  0  0  0  0
  -27.9140  -13.3340   19.4860 C   0  0  0  0  0  3  0  0  0  0  0  0
  -29.0290  -13.3310   20.5540 C   0  0  0  0  0  2  0  0  0  0  0  0
  -30.2730  -13.7120   19.8740 N   0  0  0  0  0  0  0  0  0  0  0  0
  -32.0570  -15.0120   19.4690 O   0  0  0  0  0  0  0  0  0  0  0  0
  -30.1270  -16.1580   20.0400 N   0  0  0  0  0  0  0  0  0  0  0  0
  -29.1960  -15.9850   20.3850 H   0  0  0  0  0  0  0  0  0  0  0  0
  -25.6020  -13.9510   20.3910 C   0  0  0  0  0  0  0  0  0  0  0  0
  -24.5430  -13.1930   20.8080 C   0  0  0  0  0  0  0  0  0  0  0  0
  -24.9670  -11.8320   20.7100 C   0  0  0  0  0  0  0  0  0  0  0  0
  -26.6030  -13.0540   20.0590 N   0  0  0  0  0  0  0  0  0  0  0  0
  -26.2340  -11.7720   20.3160 N   0  0  0  0  0  0  0  0  0  0  0  0
  -24.2170  -10.5850   20.9110 C   0  0  0  0  0  0  0  0  0  0  0  0
  -24.6480   -9.6030   21.8320 C   0  0  0  0  0  3  0  0  0  0  0  0
  -23.8990   -8.4230   22.0220 C   0  0  0  0  0  3  0  0  0  0  0  0
  -22.7040   -8.2130   21.2920 C   0  0  0  0  0  0  0  0  0  0  0  0
  -22.2920   -9.1830   20.3610 C   0  0  0  0  0  3  0  0  0  0  0  0
  -23.0410  -10.3550   20.1680 C   0  0  0  0  0  3  0  0  0  0  0  0
  -21.9260   -7.0870   21.3930 O   0  0  0  0  0  0  0  0  0  0  0  0
  -21.8380   -6.3730   22.5620 C   0  0  0  0  0  0  0  0  0  0  0  0
  -21.3570   -6.9560   23.7550 C   0  0  0  0  0  3  0  0  0  0  0  0
  -21.2180   -6.1680   24.9150 C   0  0  0  0  0  3  0  0  0  0  0  0
  -21.5510   -4.7990   24.8830 C   0  0  0  0  0  0  0  0  0  0  0  0
  -22.0240   -4.2180   23.6930 C   0  0  0  0  0  3  0  0  0  0  0  0
  -22.1640   -5.0030   22.5360 C   0  0  0  0  0  0  0  0  0  0  0  0
  -22.6010   -4.4310   21.3880 F   0  0  0  0  0  0  0  0  0  0  0  0
  -21.4090   -4.0420   25.9950 F   0  0  0  0  0  0  0  0  0  0  0  0
  -23.1800  -13.6990   21.1780 C   0  0  0  0  0  0  0  0  0  0  0  0
  -22.4900  -13.0030   22.0750 N   0  0  0  0  0  0  0  0  0  0  0  0
  -22.7380  -14.7460   20.7060 O   0  0  0  0  0  0  0  0  0  0  0  0
  -22.8610  -12.1560   22.4780 H   0  0  0  0  0  0  0  0  0  0  0  0
  -21.5760  -13.3250   22.3640 H   0  0  0  0  0  0  0  0  0  0  0  0
  -25.7890  -15.3220   20.2410 N   0  0  0  0  0  0  0  0  0  0  0  0
  -25.0390  -15.9830   20.4180 H   0  0  0  0  0  0  0  0  0  0  0  0
  -26.6070  -15.7510   19.8310 H   0  0  0  0  0  0  0  0  0  0  0  0
  -29.7720  -21.9260   19.6130 C   0  0  0  0  0  2  0  0  0  0  0  0
  -29.0860  -23.3230   20.2780 C   0  0  0  0  0  2  0  0  0  0  0  0
  -28.9930  -24.8220   19.5000 C   0  0  0  0  0  2  0  0  0  0  0  0
  -28.8120  -26.2630   20.0640 O   0  0  0  0  0  0  0  0  0  0  0  0
  -24.7100  -31.5590   23.0680 C   0  0  0  0  0  0  0  0  0  0  0  0
  -27.6740  -27.1390   19.9510 C   0  0  0  0  0  0  0  0  0  0  0  0
  -23.6460  -30.1430   21.3520 C   0  0  0  0  0  3  0  0  0  0  0  0
  -25.2300  -28.7150   19.9130 C   0  0  0  0  0  0  0  0  0  0  0  0
  -26.1770  -30.5830   21.2640 C   0  0  0  0  0  2  0  0  0  0  0  0
  -26.3570  -29.2220   20.5690 C   0  0  0  0  0  0  0  0  0  0  0  0
  -27.5750  -28.4470   20.5750 C   0  0  0  0  0  3  0  0  0  0  0  0
  -26.5140  -26.7260   19.2590 C   0  0  0  0  0  3  0  0  0  0  0  0
  -25.3200  -27.4830   19.2450 C   0  0  0  0  0  3  0  0  0  0  0  0
  -23.9430  -29.5260   19.9580 C   0  0  0  0  0  2  0  0  0  0  0  0
  -24.8610  -30.7840   21.9510 N   0  0  0  0  0  0  0  0  0  0  0  0
  -23.5950  -31.7520   23.5770 O   0  0  0  0  0  0  0  0  0  0  0  0
  -23.0140  -29.0620   22.2640 C   0  0  0  0  0  0  0  0  0  0  0  0
  -21.7010  -28.8160   22.1020 N   0  0  0  0  0  0  0  0  0  0  0  0
  -23.7080  -28.4480   23.0780 O   0  0  0  0  0  0  0  0  0  0  0  0
  -21.1950  -29.3670   21.4230 H   0  0  0  0  0  0  0  0  0  0  0  0
  -18.3900  -27.4050   22.4990 C   0  0  0  0  0  0  0  0  0  0  0  0
  -20.9240  -27.8030   22.8230 C   0  0  0  0  0  3  0  0  0  0  0  0
  -21.1180  -26.4030   22.1940 C   0  0  0  0  0  2  0  0  0  0  0  0
  -20.0530  -26.0570   21.1490 C   0  0  0  0  0  2  0  0  0  0  0  0
  -18.6550  -26.0970   21.7730 C   0  0  0  0  0  2  0  0  0  0  0  0
  -19.4550  -28.2130   22.9780 C   0  0  0  0  0  0  0  0  0  0  0  0
  -19.1520  -29.4350   23.6170 C   0  0  0  0  0  3  0  0  0  0  0  0
  -17.8160  -29.8510   23.7810 C   0  0  0  0  0  3  0  0  0  0  0  0
  -16.7660  -29.0400   23.3190 C   0  0  0  0  0  3  0  0  0  0  0  0
  -17.0530  -27.8190   22.6820 C   0  0  0  0  0  3  0  0  0  0  0  0
  -25.9270  -32.2550   23.7500 C   0  0  0  0  0  3  0  0  0  0  0  0
  -26.4390  -31.4930   25.0340 C   0  0  1  0  0  0  0  0  0  0  0  0
  -25.3240  -31.1800   26.0590 C   0  0  0  0  0  1  0  0  0  0  0  0
  -27.1090  -30.1550   24.6480 C   0  0  0  0  0  1  0  0  0  0  0  0
  -27.5200  -32.3370   25.7490 C   0  0  0  0  0  1  0  0  0  0  0  0
  -25.5220  -33.6270   24.0970 N   0  0  0  0  0  0  0  0  0  0  0  0
  -25.8050  -34.7160   23.3710 C   0  0  0  0  0  0  0  0  0  0  0  0
  -26.5020  -34.6760   22.3540 O   0  0  0  0  0  0  0  0  0  0  0  0
  -24.9010  -33.7250   24.8870 H   0  0  0  0  0  0  0  0  0  0  0  0
  -23.9760  -36.4100   23.0230 C   0  0  0  0  0  1  0  0  0  0  0  0
  -25.2260  -36.0640   23.8480 C   0  0  0  0  0  3  0  0  0  0  0  0
  -27.2830  -37.0680   24.7400 C   0  0  0  0  0  1  0  0  0  0  0  0
  -26.1940  -37.1800   23.7730 N   0  0  0  0  0  0  0  0  0  0  0  0
  -25.7280  -38.0720   23.9210 H   0  0  0  0  0  0  0  0  0  0  0  0
  1  3  1  0
  2  1  1  0
  2  4  1  0
  3 17  1  0
  3  5  1  0
  4  6  1  1
  4  5  1  0
  5  8  1  1
  5  7  1  0
  9 15  1  0
  9 17  1  0
 10 15  1  0
 11 12  1  0
 11 10  1  0
 13 12  1  0
 13 22  1  0
 13 14  1  0
 15 14  1  0
 16  9  2  0
 17 18  1  0
 19 20  2  0
 20 39  1  0
 21 20  1  0
 21 24  1  0
 22 23  1  0
 22 19  1  0
 23 21  2  0
 24 25  1  0
 25 26  2  0
 27 30  1  0
 27 26  1  0
 28 27  2  0
 29 28  1  0
 29 24  2  0
 30 31  1  0
 31 32  1  0
 32 33  2  0
 34 33  1  0
 34 38  1  0
 35 34  2  0
 36 31  2  0
 36 35  1  0
 37 36  1  0
 39 40  1  0
 40 43  1  0
 40 42  1  0
 41 39  2  0
 44 19  1  0
 44 45  1  0
 46 44  1  0
 47  4  1  0
 47 48  1  0
 49 50  1  0
 49 48  1  0
 51 62  2  0
 52 50  1  0
 52 57  1  0
 53 61  1  0
 53 63  1  0
 54 60  1  0
 54 56  1  0
 55 61  1  0
 56 57  2  0
 56 55  1  0
 58 52  2  0
 59 58  1  0
 59 54  2  0
 60 53  1  0
 61 51  1  0
 63 65  2  0
 64 63  1  0
 66 64  1  0
 67 76  2  0
 67 72  1  0
 68 64  1  0
 68 72  1  0
 69 68  1  0
 70 71  1  0
 70 69  1  0
 71 67  1  0
 72 73  2  0
 73 74  1  0
 75 74  2  0
 76 75  1  0
 77 51  1  0
 77 82  1  0
 77 78  1  0
 78 81  1  1
 78 79  1  0
 80 78  1  0
 82 85  1  0
 83 87  1  0
 83 82  1  0
 84 83  2  0
 87 86  1  0
 89 87  1  0
 89 90  1  0
 89 88  1  0
M  ISO  4   9 100  17 100  49 101  50 101
M  END
>  <TORSDO>  (96) 
F 19

>  <SCORE>  (96) 
-12.827

>  <name>  (96) 
96

>  <ligand_id>  (96) 
96

>  <original_smiles>  (96) 
[H]c1c([H])c([H])c2c(c1[H])C([H])([H])C([H])([H])C([H])([H])C2([H])N([H])C(=O)C1([H])N(C(=O)C([H])(N([H])C(=O)C([H])(N([H])C([H])([H])[H])C([H])([H])[H])C(C([H])([H])[H])(C([H])([H])[H])C([H])([H])[H])C([H])([H])c2c([H])c(OC([H])([H])C([H])([H])C([H])([H])C3(C([H])([H])[H])C([H])([H])C([H])([H])C([H])(N([H])C(=O)N4C([H])([H])C([H])([H])C([H])([H])C([H])(n5nc(-c6c([H])c([H])c(Oc7c([H])c([H])c(F)c([H])c7F)c([H])c6[H])c(C(=O)N([H])[H])c5N([H])[H])C4([H])[H])C3(C([H])([H])[H])C([H])([H])[H])c([H])c([H])c2C1([H])[H]

>  <smiles>  (96) 
[H]c1c([H])c([H])c2c(c1[H])C([H])([H])C([H])([H])C([H])([H])C2([H])N([H])C(=O)C1([H])N(C(=O)C([H])(N([H])C(=O)C([H])(N([H])C([H])([H])[H])C([H])([H])[H])C(C([H])([H])[H])(C([H])([H])[H])C([H])([H])[H])C([H])([H])c2c([H])c(OC([H])([H])C([H])([H])C([H])([H])C3(C([H])([H])[H])C([H])([H])C([H])([H])C([H])(N([H])C(=O)N4C([H])([H])C([H])([H])C([H])([H])C([H])(n5nc(-c6c([H])c([H])c(Oc7c([H])c([H])c(F)c([H])c7F)c([H])c6[H])c(C(=O)N([H])[H])c5N([H])[H])C4([H])[H])C3(C([H])([H])[H])C([H])([H])[H])c([H])c([H])c2C1([H])[H]

$$$$
97:0:0
     RDKit          3D

 95103  0  0  1  0  0  0  0  0999 V2000
  -26.3890  -22.6590   21.7530 C   0  0  0  0  0  2  0  0  0  0  0  0
  -27.5880  -23.4830   22.2660 C   0  0  0  0  0  2  0  0  0  0  0  0
  -26.4760  -22.2910   20.2600 C   0  0  0  0  0  2  0  0  0  0  0  0
  -29.0190  -22.6420   20.3560 C   0  0  0  0  0  2  0  0  0  0  0  0
  -28.5930  -23.8870   21.1670 C   0  0  0  0  0  3  0  0  0  0  0  0
  -27.8600  -21.7390   19.8160 C   0  0  2  0  0  0  0  0  0  0  0  0
  -27.8840  -21.7170   18.3370 N   0  0  0  0  0  4  0  0  0  0  0  0
  -27.1710  -21.1050   17.9830 H   0  0  0  0  0  0  0  0  0  0  0  0
  -28.7680  -21.3900   17.9870 H   0  0  0  0  0  0  0  0  0  0  0  0
  -27.7170  -22.6310   17.9560 H   0  0  0  0  0  0  0  0  0  0  0  0
  -28.1050  -25.0590   20.2770 C   0  0  0  0  0  2  0  0  0  0  0  0
  -28.9180  -26.3580   20.4500 C   0  0  0  0  0  2  0  0  0  0  0  0
  -28.6200  -27.2900   19.4120 O   0  0  0  0  0  0  0  0  0  0  0  0
  -24.5720  -31.7770   23.1520 C   0  0  0  0  0  0  0  0  0  0  0  0
  -27.4100  -27.9180   19.5460 C   0  0  0  0  0  0  0  0  0  0  0  0
  -23.4070  -30.4660   21.4050 C   0  0  0  0  0  3  0  0  0  0  0  0
  -24.9140  -29.1990   19.7860 C   0  0  0  0  0  0  0  0  0  0  0  0
  -25.8860  -31.0420   21.1710 C   0  0  0  0  0  2  0  0  0  0  0  0
  -26.0470  -29.7550   20.3920 C   0  0  0  0  0  0  0  0  0  0  0  0
  -27.3010  -29.1170   20.2780 C   0  0  0  0  0  3  0  0  0  0  0  0
  -26.2690  -27.3720   18.9270 C   0  0  0  0  0  3  0  0  0  0  0  0
  -25.0150  -28.0030   19.0530 C   0  0  0  0  0  3  0  0  0  0  0  0
  -23.6120  -29.9480   19.9560 C   0  0  0  0  0  2  0  0  0  0  0  0
  -24.6400  -31.1040   21.9690 N   0  0  0  0  0  0  0  0  0  0  0  0
  -23.4960  -31.9080   23.7530 O   0  0  0  0  0  0  0  0  0  0  0  0
  -22.8680  -29.3040   22.2700 C   0  0  0  0  0  0  0  0  0  0  0  0
  -21.5690  -28.9980   22.1180 N   0  0  0  0  0  0  0  0  0  0  0  0
  -23.6150  -28.6840   23.0320 O   0  0  0  0  0  0  0  0  0  0  0  0
  -21.0220  -29.5610   21.4800 H   0  0  0  0  0  0  0  0  0  0  0  0
  -18.3460  -27.4040   22.4560 C   0  0  0  0  0  0  0  0  0  0  0  0
  -20.8560  -27.9190   22.7980 C   0  0  0  0  0  3  0  0  0  0  0  0
  -21.1230  -26.5570   22.1150 C   0  0  0  0  0  2  0  0  0  0  0  0
  -20.0740  -26.1930   21.0590 C   0  0  0  0  0  2  0  0  0  0  0  0
  -18.6790  -26.1350   21.6880 C   0  0  0  0  0  2  0  0  0  0  0  0
  -19.3690  -28.2470   22.9650 C   0  0  0  0  0  0  0  0  0  0  0  0
  -19.0050  -29.4310   23.6430 C   0  0  0  0  0  3  0  0  0  0  0  0
  -17.6520  -29.7740   23.8180 C   0  0  0  0  0  3  0  0  0  0  0  0
  -16.6430  -28.9280   23.3260 C   0  0  0  0  0  3  0  0  0  0  0  0
  -16.9920  -27.7440   22.6520 C   0  0  0  0  0  3  0  0  0  0  0  0
  -25.8340  -32.4300   23.7960 C   0  0  0  0  0  3  0  0  0  0  0  0
  -26.3740  -31.6400   25.0510 C   0  0  1  0  0  0  0  0  0  0  0  0
  -25.2860  -31.3330   26.1060 C   0  0  0  0  0  1  0  0  0  0  0  0
  -27.0040  -30.2950   24.6190 C   0  0  0  0  0  1  0  0  0  0  0  0
  -27.4940  -32.4540   25.7400 C   0  0  0  0  0  1  0  0  0  0  0  0
  -25.4810  -33.8080   24.1600 N   0  0  0  0  0  0  0  0  0  0  0  0
  -25.7930  -34.8890   23.4310 C   0  0  0  0  0  0  0  0  0  0  0  0
  -26.4800  -34.8320   22.4070 O   0  0  0  0  0  0  0  0  0  0  0  0
  -24.8720  -33.9240   24.9560 H   0  0  0  0  0  0  0  0  0  0  0  0
  -24.0220  -36.6380   23.0890 C   0  0  0  0  0  1  0  0  0  0  0  0
  -25.2570  -36.2490   23.9160 C   0  0  0  0  0  3  0  0  0  0  0  0
  -27.3450  -37.1700   24.8200 C   0  0  0  0  0  1  0  0  0  0  0  0
  -26.2620  -37.3330   23.8540 N   0  0  0  0  0  0  0  0  0  0  0  0
  -25.8270  -38.2370   24.0140 H   0  0  0  0  0  0  0  0  0  0  0  0
  -28.0060  -20.2820   20.3420 C   0  0  0  0  0  2  0  0  0  0  0  0
  -29.2610  -19.5010   19.8900 C   0  0  0  0  0  2  0  0  0  0  0  0
  -29.2240  -18.0400   20.3720 C   0  0  0  0  0  2  0  0  0  0  0  0
  -30.5080  -17.2540   20.0510 C   0  0  0  0  0  2  0  0  0  0  0  0
  -31.0130  -14.8300   19.8060 C   0  0  0  0  0  0  0  0  0  0  0  0
  -30.7620  -12.5270   18.9680 C   0  0  0  0  0  2  0  0  0  0  0  0
  -29.7630  -12.5310   17.7920 C   0  0  0  0  0  2  0  0  0  0  0  0
  -28.3150  -12.3980   18.3090 C   0  0  0  0  0  2  0  0  0  0  0  0
  -27.9920  -13.4020   19.4460 C   0  0  0  0  0  3  0  0  0  0  0  0
  -29.0970  -13.3640   20.5280 C   0  0  0  0  0  2  0  0  0  0  0  0
  -30.3940  -13.6230   19.8730 N   0  0  0  0  0  0  0  0  0  0  0  0
  -32.0600  -15.0280   19.1800 O   0  0  0  0  0  0  0  0  0  0  0  0
  -30.3260  -15.8380   20.3560 N   0  0  0  0  0  0  0  0  0  0  0  0
  -29.5020  -15.5820   20.8780 H   0  0  0  0  0  0  0  0  0  0  0  0
  -25.6830  -14.0650   20.3810 C   0  0  0  0  0  0  0  0  0  0  0  0
  -24.6170  -13.3140   20.7970 C   0  0  0  0  0  0  0  0  0  0  0  0
  -25.0160  -11.9500   20.6550 C   0  0  0  0  0  0  0  0  0  0  0  0
  -26.6680  -13.1580   20.0180 N   0  0  0  0  0  0  0  0  0  0  0  0
  -26.2730  -11.8780   20.2350 N   0  0  0  0  0  0  0  0  0  0  0  0
  -24.2540  -10.7070   20.8360 C   0  0  0  0  0  0  0  0  0  0  0  0
  -24.6390   -9.7390   21.7900 C   0  0  0  0  0  3  0  0  0  0  0  0
  -23.8830   -8.5600   21.9600 C   0  0  0  0  0  3  0  0  0  0  0  0
  -22.7280   -8.3380   21.1720 C   0  0  0  0  0  0  0  0  0  0  0  0
  -22.3600   -9.2950   20.2100 C   0  0  0  0  0  3  0  0  0  0  0  0
  -23.1180  -10.4660   20.0390 C   0  0  0  0  0  3  0  0  0  0  0  0
  -21.9480   -7.2090   21.2480 O   0  0  0  0  0  0  0  0  0  0  0  0
  -21.7260   -6.5670   22.4400 C   0  0  0  0  0  0  0  0  0  0  0  0
  -21.1340   -7.2230   23.5430 C   0  0  0  0  0  3  0  0  0  0  0  0
  -20.8590   -6.5050   24.7240 C   0  0  0  0  0  3  0  0  0  0  0  0
  -21.1690   -5.1350   24.8040 C   0  0  0  0  0  0  0  0  0  0  0  0
  -21.7530   -4.4780   23.7060 C   0  0  0  0  0  3  0  0  0  0  0  0
  -22.0290   -5.1920   22.5270 C   0  0  0  0  0  0  0  0  0  0  0  0
  -22.5730   -4.5520   21.4640 F   0  0  0  0  0  0  0  0  0  0  0  0
  -20.8970   -4.4430   25.9350 F   0  0  0  0  0  0  0  0  0  0  0  0
  -23.2690  -13.8280   21.2150 C   0  0  0  0  0  0  0  0  0  0  0  0
  -22.5930  -13.1160   22.1090 N   0  0  0  0  0  0  0  0  0  0  0  0
  -22.8310  -14.8950   20.7860 O   0  0  0  0  0  0  0  0  0  0  0  0
  -22.9640  -12.2510   22.4750 H   0  0  0  0  0  0  0  0  0  0  0  0
  -21.6930  -13.4380   22.4330 H   0  0  0  0  0  0  0  0  0  0  0  0
  -25.8920  -15.4350   20.2630 N   0  0  0  0  0  0  0  0  0  0  0  0
  -25.1620  -16.1070   20.4690 H   0  0  0  0  0  0  0  0  0  0  0  0
  -26.7300  -15.8560   19.8840 H   0  0  0  0  0  0  0  0  0  0  0  0
  1  2  1  0
  3  1  1  0
  4  5  1  0
  5 11  1  0
  5  2  1  0
  6  3  1  0
  6 54  1  1
  6  4  1  0
  7  6  1  0
  8  7  1  0
  9  7  1  0
 10  7  1  0
 11 12  1  0
 13 15  1  0
 13 12  1  0
 14 25  2  0
 15 20  1  0
 16 24  1  0
 16 26  1  0
 17 23  1  0
 17 19  1  0
 18 24  1  0
 19 18  1  0
 20 19  2  0
 21 22  1  0
 21 15  2  0
 22 17  2  0
 23 16  1  0
 24 14  1  0
 26 28  2  0
 27 26  1  0
 29 27  1  0
 30 39  2  0
 30 35  1  0
 31 27  1  0
 31 35  1  0
 32 31  1  0
 33 34  1  0
 33 32  1  0
 34 30  1  0
 35 36  2  0
 36 37  1  0
 38 37  2  0
 39 38  1  0
 40 14  1  0
 40 45  1  0
 40 41  1  0
 41 44  1  1
 41 42  1  0
 43 41  1  0
 45 48  1  0
 46 50  1  0
 46 45  1  0
 47 46  2  0
 50 49  1  0
 52 50  1  0
 52 53  1  0
 52 51  1  0
 55 54  1  0
 55 56  1  0
 57 66  1  0
 57 56  1  0
 58 64  1  0
 58 66  1  0
 59 64  1  0
 60 61  1  0
 60 59  1  0
 62 61  1  0
 62 71  1  0
 62 63  1  0
 64 63  1  0
 65 58  2  0
 66 67  1  0
 68 69  2  0
 69 88  1  0
 70 69  1  0
 70 73  1  0
 71 72  1  0
 71 68  1  0
 72 70  2  0
 73 74  1  0
 74 75  2  0
 76 79  1  0
 76 75  1  0
 77 76  2  0
 78 77  1  0
 78 73  2  0
 79 80  1  0
 80 85  2  0
 80 81  1  0
 81 82  2  0
 82 83  1  0
 83 87  1  0
 84 83  2  0
 85 84  1  0
 86 85  1  0
 88 89  1  0
 89 92  1  0
 89 91  1  0
 90 88  2  0
 93 68  1  0
 93 94  1  0
 95 93  1  0
M  ISO  4  12 101  13 101  58 100  66 100
M  END
>  <TORSDO>  (97) 
F 23

>  <SCORE>  (97) 
-10.664

>  <name>  (97) 
97

>  <ligand_id>  (97) 
97

>  <original_smiles>  (97) 
[H]c1c([H])c([H])c2c(c1[H])C([H])([H])C([H])([H])C([H])([H])C2([H])N([H])C(=O)C1([H])N(C(=O)C([H])(N([H])C(=O)C([H])(N([H])C([H])([H])[H])C([H])([H])[H])C(C([H])([H])[H])(C([H])([H])[H])C([H])([H])[H])C([H])([H])c2c([H])c(OC([H])([H])C([H])([H])C3([H])C([H])([H])C([H])([H])C([H])([H])C(C([H])([H])C([H])([H])C([H])([H])C([H])([H])N([H])C(=O)N4C([H])([H])C([H])([H])C([H])([H])C([H])(n5nc(-c6c([H])c([H])c(Oc7c([H])c([H])c(F)c([H])c7F)c([H])c6[H])c(C(=O)N([H])[H])c5N([H])[H])C4([H])[H])([N+]([H])([H])[H])C3([H])[H])c([H])c([H])c2C1([H])[H]

>  <smiles>  (97) 
[H]c1c([H])c([H])c2c(c1[H])C([H])([H])C([H])([H])C([H])([H])C2([H])N([H])C(=O)C1([H])N(C(=O)C([H])(N([H])C(=O)C([H])(N([H])C([H])([H])[H])C([H])([H])[H])C(C([H])([H])[H])(C([H])([H])[H])C([H])([H])[H])C([H])([H])c2c([H])c(OC([H])([H])C([H])([H])C3([H])C([H])([H])C([H])([H])C([H])([H])C(C([H])([H])C([H])([H])C([H])([H])C([H])([H])N([H])C(=O)N4C([H])([H])C([H])([H])C([H])([H])C([H])(n5nc(-c6c([H])c([H])c(Oc7c([H])c([H])c(F)c([H])c7F)c([H])c6[H])c(C(=O)N([H])[H])c5N([H])[H])C4([H])[H])([N+]([H])([H])[H])C3([H])[H])c([H])c([H])c2C1([H])[H]

$$$$
