0:0:0
     RDKit          3D

 89 96  0  0  1  0  0  0  0  0999 V2000
  -29.4470  -21.8020   19.9190 C   0  0  0  0  0  0  0  0  0  0  0  0
  -28.8960  -22.9050   20.4610 N   0  0  0  0  0  0  0  0  0  0  0  0
  -30.1210  -21.8630   18.8880 O   0  0  0  0  0  0  0  0  0  0  0  0
  -28.3480  -22.7920   21.3030 H   0  0  0  0  0  0  0  0  0  0  0  0
  -29.1580  -20.5670   20.6540 C   0  0  0  0  0  3  0  0  0  0  0  0
  -29.4600  -19.3510   20.1320 C   0  0  0  0  0  3  0  0  0  0  0  0
  -29.1840  -17.9820   20.7700 C   0  0  0  0  0  2  0  0  0  0  0  0
  -30.3360  -16.9550   20.5820 C   0  0  0  0  0  2  0  0  0  0  0  0
  -30.6610  -14.4850   20.4030 C   0  0  0  0  0  0  0  0  0  0  0  0
  -30.3570  -12.3110   19.2870 C   0  0  0  0  0  2  0  0  0  0  0  0
  -29.4130  -12.5150   18.0820 C   0  0  0  0  0  2  0  0  0  0  0  0
  -27.9410  -12.3790   18.5180 C   0  0  0  0  0  2  0  0  0  0  0  0
  -27.6080  -13.2210   19.7780 C   0  0  0  0  0  3  0  0  0  0  0  0
  -28.6670  -13.0140   20.8850 C   0  0  0  0  0  2  0  0  0  0  0  0
  -29.9890  -13.3060   20.3080 N   0  0  0  0  0  0  0  0  0  0  0  0
  -31.8020  -14.6410   19.9600 O   0  0  0  0  0  0  0  0  0  0  0  0
  -29.9360  -15.5500   20.8060 N   0  0  0  0  0  0  0  0  0  0  0  0
  -29.0010  -15.3710   21.1390 H   0  0  0  0  0  0  0  0  0  0  0  0
  -25.2090  -13.8260   20.4900 C   0  0  0  0  0  0  0  0  0  0  0  0
  -24.1440  -13.0540   20.8660 C   0  0  0  0  0  0  0  0  0  0  0  0
  -24.6080  -11.7030   20.8430 C   0  0  0  0  0  0  0  0  0  0  0  0
  -26.2560  -12.9460   20.2630 N   0  0  0  0  0  0  0  0  0  0  0  0
  -25.8980  -11.6650   20.5330 N   0  0  0  0  0  0  0  0  0  0  0  0
  -23.8850  -10.4420   21.0430 C   0  0  0  0  0  0  0  0  0  0  0  0
  -24.3280   -9.4740   21.9720 C   0  0  0  0  0  3  0  0  0  0  0  0
  -23.6060   -8.2760   22.1580 C   0  0  0  0  0  3  0  0  0  0  0  0
  -22.4250   -8.0370   21.4160 C   0  0  0  0  0  0  0  0  0  0  0  0
  -22.0000   -8.9930   20.4770 C   0  0  0  0  0  3  0  0  0  0  0  0
  -22.7230  -10.1820   20.2880 C   0  0  0  0  0  3  0  0  0  0  0  0
  -21.6720   -6.8910   21.5130 O   0  0  0  0  0  0  0  0  0  0  0  0
  -21.6470   -6.1410   22.6610 C   0  0  0  0  0  0  0  0  0  0  0  0
  -21.2500   -6.6890   23.9010 C   0  0  0  0  0  3  0  0  0  0  0  0
  -21.1730   -5.8650   25.0420 C   0  0  0  0  0  3  0  0  0  0  0  0
  -21.4830   -4.4950   24.9440 C   0  0  0  0  0  0  0  0  0  0  0  0
  -21.8730   -3.9470   23.7090 C   0  0  0  0  0  3  0  0  0  0  0  0
  -21.9520   -4.7680   22.5710 C   0  0  0  0  0  0  0  0  0  0  0  0
  -22.3080   -4.2310   21.3790 F   0  0  0  0  0  0  0  0  0  0  0  0
  -21.4010   -3.7020   26.0370 F   0  0  0  0  0  0  0  0  0  0  0  0
  -22.7470  -13.5310   21.1380 C   0  0  0  0  0  0  0  0  0  0  0  0
  -22.0220  -12.8390   22.0120 N   0  0  0  0  0  0  0  0  0  0  0  0
  -22.3050  -14.5510   20.6130 O   0  0  0  0  0  0  0  0  0  0  0  0
  -22.3930  -12.0140   22.4610 H   0  0  0  0  0  0  0  0  0  0  0  0
  -21.0860  -13.1420   22.2390 H   0  0  0  0  0  0  0  0  0  0  0  0
  -25.3690  -15.1950   20.3020 N   0  0  0  0  0  0  0  0  0  0  0  0
  -24.5970  -15.8450   20.4030 H   0  0  0  0  0  0  0  0  0  0  0  0
  -26.2130  -15.6360   19.9570 H   0  0  0  0  0  0  0  0  0  0  0  0
  -28.9850  -24.2630   19.8840 C   0  0  0  0  0  2  0  0  0  0  0  0
  -28.2930  -25.3440   20.7540 C   0  0  0  0  0  2  0  0  0  0  0  0
  -28.3990  -26.6710   20.1940 O   0  0  0  0  0  0  0  0  0  0  0  0
  -24.5900  -31.8720   23.2420 C   0  0  0  0  0  0  0  0  0  0  0  0
  -27.2380  -27.4180   20.1820 C   0  0  0  0  0  0  0  0  0  0  0  0
  -23.3860  -30.4680   21.5980 C   0  0  0  0  0  3  0  0  0  0  0  0
  -24.8440  -28.9290   20.1760 C   0  0  0  0  0  0  0  0  0  0  0  0
  -25.9120  -30.8280   21.4020 C   0  0  0  0  0  2  0  0  0  0  0  0
  -26.0010  -29.4550   20.7650 C   0  0  0  0  0  0  0  0  0  0  0  0
  -27.2040  -28.7100   20.7570 C   0  0  0  0  0  3  0  0  0  0  0  0
  -26.0660  -26.9100   19.5790 C   0  0  0  0  0  3  0  0  0  0  0  0
  -24.8720  -27.6560   19.5780 C   0  0  0  0  0  3  0  0  0  0  0  0
  -23.5980  -29.7850   20.2200 C   0  0  0  0  0  2  0  0  0  0  0  0
  -24.6470  -31.0720   22.1390 N   0  0  0  0  0  0  0  0  0  0  0  0
  -23.5080  -32.1420   23.7810 O   0  0  0  0  0  0  0  0  0  0  0  0
  -22.7350  -29.4460   22.5590 C   0  0  0  0  0  0  0  0  0  0  0  0
  -21.4100  -29.2680   22.4360 N   0  0  0  0  0  0  0  0  0  0  0  0
  -23.4190  -28.8200   23.3720 O   0  0  0  0  0  0  0  0  0  0  0  0
  -20.9190  -29.8260   21.7520 H   0  0  0  0  0  0  0  0  0  0  0  0
  -18.0320  -28.0880   22.9460 C   0  0  0  0  0  0  0  0  0  0  0  0
  -20.5920  -28.3310   23.2070 C   0  0  0  0  0  3  0  0  0  0  0  0
  -20.6840  -26.9010   22.6230 C   0  0  0  0  0  2  0  0  0  0  0  0
  -19.5740  -26.5910   21.6130 C   0  0  0  0  0  2  0  0  0  0  0  0
  -18.1970  -26.7420   22.2640 C   0  0  0  0  0  2  0  0  0  0  0  0
  -19.1570  -28.8430   23.3740 C   0  0  0  0  0  0  0  0  0  0  0  0
  -18.9470  -30.1060   23.9710 C   0  0  0  0  0  3  0  0  0  0  0  0
  -17.6470  -30.6130   24.1430 C   0  0  0  0  0  3  0  0  0  0  0  0
  -16.5370  -29.8570   23.7320 C   0  0  0  0  0  3  0  0  0  0  0  0
  -16.7300  -28.5960   23.1380 C   0  0  0  0  0  3  0  0  0  0  0  0
  -25.8750  -32.5050   23.8620 C   0  0  0  0  0  3  0  0  0  0  0  0
  -25.5680  -33.9030   24.1900 N   0  0  0  0  0  0  0  0  0  0  0  0
  -25.9020  -34.9540   23.4280 C   0  0  0  0  0  0  0  0  0  0  0  0
  -26.5750  -34.8460   22.3990 O   0  0  0  0  0  0  0  0  0  0  0  0
  -24.9770  -34.0600   24.9930 H   0  0  0  0  0  0  0  0  0  0  0  0
  -24.1770  -36.7430   23.0580 C   0  0  0  0  0  1  0  0  0  0  0  0
  -25.4130  -36.3430   23.8790 C   0  0  0  0  0  3  0  0  0  0  0  0
  -27.5440  -37.2240   24.7210 C   0  0  0  0  0  1  0  0  0  0  0  0
  -26.4470  -37.3950   23.7710 N   0  0  0  0  0  0  0  0  0  0  0  0
  -26.0410  -38.3160   23.9170 H   0  0  0  0  0  0  0  0  0  0  0  0
  -26.3920  -31.7340   25.1390 C   0  0  1  0  0  0  0  0  0  0  0  0
  -25.3010  -31.4980   26.2090 C   0  0  0  0  0  1  0  0  0  0  0  0
  -26.9730  -30.3570   24.7450 C   0  0  0  0  0  1  0  0  0  0  0  0
  -27.5430  -32.5280   25.8020 C   0  0  0  0  0  1  0  0  0  0  0  0
  1  2  1  0
  1  5  1  0
  2  4  1  0
  3  1  2  0
  6  5  2  0
  6  7  1  0
  8  7  1  0
  8 17  1  0
  9 17  1  0
 10 15  1  0
 11 12  1  0
 11 10  1  0
 13 12  1  0
 13 22  1  0
 13 14  1  0
 15  9  1  0
 15 14  1  0
 16  9  2  0
 17 18  1  0
 19 20  2  0
 20 39  1  0
 21 20  1  0
 21 24  1  0
 22 19  1  0
 22 23  1  0
 23 21  2  0
 24 25  1  0
 25 26  2  0
 27 30  1  0
 27 26  1  0
 28 27  2  0
 29 28  1  0
 29 24  2  0
 30 31  1  0
 31 32  1  0
 32 33  2  0
 34 33  1  0
 34 38  1  0
 35 34  2  0
 36 31  2  0
 36 35  1  0
 37 36  1  0
 39 40  1  0
 40 43  1  0
 40 42  1  0
 41 39  2  0
 44 45  1  0
 44 19  1  0
 46 44  1  0
 47  2  1  0
 47 48  1  0
 49 48  1  0
 50 61  2  0
 51 49  1  0
 51 56  1  0
 52 60  1  0
 52 62  1  0
 53 59  1  0
 53 55  1  0
 54 60  1  0
 55 54  1  0
 56 55  2  0
 57 51  2  0
 58 57  1  0
 58 53  2  0
 59 52  1  0
 60 50  1  0
 62 64  2  0
 63 62  1  0
 65 63  1  0
 66 75  2  0
 66 71  1  0
 67 63  1  0
 67 71  1  0
 68 67  1  0
 69 70  1  0
 69 68  1  0
 70 66  1  0
 71 72  2  0
 72 73  1  0
 74 73  2  0
 75 74  1  0
 76 50  1  0
 76 77  1  0
 76 86  1  0
 77 80  1  0
 78 82  1  0
 78 77  1  0
 79 78  2  0
 82 81  1  0
 84 82  1  0
 84 85  1  0
 84 83  1  0
 86 89  1  1
 86 87  1  0
 88 86  1  0
M  ISO  4   9 100  17 100  48 101  49 101
M  END
>  <TORSDO>  (1) 
F 21

>  <SCORE>  (1) 
-13.301

>  <name>  (1) 
0

>  <ligand_id>  (1) 
0

>  <original_smiles>  (1) 
[H]C(C(=O)N([H])C([H])([H])C([H])([H])Oc1c([H])c([H])c2c(c1[H])C([H])([H])N(C(=O)C([H])(N([H])C(=O)C([H])(N([H])C([H])([H])[H])C([H])([H])[H])C(C([H])([H])[H])(C([H])([H])[H])C([H])([H])[H])C([H])(C(=O)N([H])C1([H])c3c([H])c([H])c([H])c([H])c3C([H])([H])C([H])([H])C1([H])[H])C2([H])[H])=C([H])C([H])([H])C([H])([H])N([H])C(=O)N1C([H])([H])C([H])([H])C([H])([H])C([H])(n2nc(-c3c([H])c([H])c(Oc4c([H])c([H])c(F)c([H])c4F)c([H])c3[H])c(C(=O)N([H])[H])c2N([H])[H])C1([H])[H]

>  <smiles>  (1) 
[H]C(C(=O)N([H])C([H])([H])C([H])([H])Oc1c([H])c([H])c2c(c1[H])C([H])([H])N(C(=O)C([H])(N([H])C(=O)C([H])(N([H])C([H])([H])[H])C([H])([H])[H])C(C([H])([H])[H])(C([H])([H])[H])C([H])([H])[H])C([H])(C(=O)N([H])C1([H])c3c([H])c([H])c([H])c([H])c3C([H])([H])C([H])([H])C1([H])[H])C2([H])[H])=C([H])C([H])([H])C([H])([H])N([H])C(=O)N1C([H])([H])C([H])([H])C([H])([H])C([H])(n2nc(-c3c([H])c([H])c(Oc4c([H])c([H])c(F)c([H])c4F)c([H])c3[H])c(C(=O)N([H])[H])c2N([H])[H])C1([H])[H]

$$$$
1:0:0
     RDKit          3D

 91101  0  0  1  0  0  0  0  0999 V2000
  -28.0260  -21.5860   21.4260 C   0  0  0  0  0  2  0  0  0  0  0  0
  -28.9900  -21.3830   20.5040 C   0  0  0  0  0  0  0  0  0  0  0  0
  -28.4550  -18.5480   21.0460 C   0  0  0  0  0  2  0  0  0  0  0  0
  -30.8290  -17.9240   21.4630 C   0  0  0  0  0  2  0  0  0  0  0  0
  -29.8130  -20.0000   20.3830 C   0  0  0  0  0  3  0  0  0  0  0  0
  -29.8030  -19.0560   21.6160 C   0  0  2  0  0  0  0  0  0  0  0  0
  -29.3580  -18.5520   19.8210 C   0  0  2  0  0  0  0  0  0  0  0  0
  -30.4590  -17.4290   20.0530 C   0  0  0  0  0  3  0  0  0  0  0  0
  -30.8340  -14.8380   19.8440 C   0  0  0  0  0  0  0  0  0  0  0  0
  -30.6050  -12.5310   18.9280 C   0  0  0  0  0  2  0  0  0  0  0  0
  -29.6030  -12.5540   17.7530 C   0  0  0  0  0  2  0  0  0  0  0  0
  -28.1600  -12.3800   18.2660 C   0  0  0  0  0  2  0  0  0  0  0  0
  -27.8360  -13.3140   19.4620 C   0  0  0  0  0  3  0  0  0  0  0  0
  -28.9510  -13.2820   20.5300 C   0  0  0  0  0  2  0  0  0  0  0  0
  -30.2130  -13.6130   19.8560 N   0  0  0  0  0  0  0  0  0  0  0  0
  -32.0000  -14.9420   19.4550 O   0  0  0  0  0  0  0  0  0  0  0  0
  -30.0650  -15.9590   20.0710 N   0  0  0  0  0  0  0  0  0  0  0  0
  -29.1040  -15.7750   20.3140 H   0  0  0  0  0  0  0  0  0  0  0  0
  -25.5110  -13.9180   20.3660 C   0  0  0  0  0  0  0  0  0  0  0  0
  -24.4600  -13.1480   20.7840 C   0  0  0  0  0  0  0  0  0  0  0  0
  -24.8990  -11.7910   20.6810 C   0  0  0  0  0  0  0  0  0  0  0  0
  -26.5220  -13.0320   20.0330 N   0  0  0  0  0  0  0  0  0  0  0  0
  -26.1660  -11.7460   20.2880 N   0  0  0  0  0  0  0  0  0  0  0  0
  -24.1660  -10.5340   20.8790 C   0  0  0  0  0  0  0  0  0  0  0  0
  -24.5550   -9.5980   21.8650 C   0  0  0  0  0  3  0  0  0  0  0  0
  -23.8210   -8.4070   22.0470 C   0  0  0  0  0  3  0  0  0  0  0  0
  -22.6870   -8.1400   21.2460 C   0  0  0  0  0  0  0  0  0  0  0  0
  -22.3180   -9.0650   20.2530 C   0  0  0  0  0  3  0  0  0  0  0  0
  -23.0510  -10.2480   20.0680 C   0  0  0  0  0  3  0  0  0  0  0  0
  -21.9300   -6.9970   21.3360 O   0  0  0  0  0  0  0  0  0  0  0  0
  -21.7070   -6.3750   22.5390 C   0  0  0  0  0  0  0  0  0  0  0  0
  -21.0800   -7.0380   23.6160 C   0  0  0  0  0  3  0  0  0  0  0  0
  -20.8060   -6.3390   24.8090 C   0  0  0  0  0  3  0  0  0  0  0  0
  -21.1510   -4.9790   24.9250 C   0  0  0  0  0  0  0  0  0  0  0  0
  -21.7720   -4.3160   23.8500 C   0  0  0  0  0  3  0  0  0  0  0  0
  -22.0460   -5.0120   22.6600 C   0  0  0  0  0  0  0  0  0  0  0  0
  -22.6230   -4.3620   21.6210 F   0  0  0  0  0  0  0  0  0  0  0  0
  -20.8820   -4.3060   26.0680 F   0  0  0  0  0  0  0  0  0  0  0  0
  -23.0910  -13.6360   21.1590 C   0  0  0  0  0  0  0  0  0  0  0  0
  -22.4070  -12.9250   22.0480 N   0  0  0  0  0  0  0  0  0  0  0  0
  -22.6380  -14.6820   20.6980 O   0  0  0  0  0  0  0  0  0  0  0  0
  -22.7840  -12.0770   22.4440 H   0  0  0  0  0  0  0  0  0  0  0  0
  -21.4920  -13.2380   22.3400 H   0  0  0  0  0  0  0  0  0  0  0  0
  -25.6810  -15.2910   20.2130 N   0  0  0  0  0  0  0  0  0  0  0  0
  -24.9290  -15.9470   20.3900 H   0  0  0  0  0  0  0  0  0  0  0  0
  -26.4950  -15.7270   19.8010 H   0  0  0  0  0  0  0  0  0  0  0  0
  -29.4220  -22.6160   19.6260 C   0  0  0  0  0  2  0  0  0  0  0  0
  -27.1620  -23.4770   18.7080 C   0  0  0  0  0  1  0  0  0  0  0  0
  -28.4960  -23.9180   19.3360 C   0  0  0  0  0  3  0  0  0  0  0  0
  -28.3230  -25.1320   20.3810 C   0  0  0  0  0  2  0  0  0  0  0  0
  -28.4120  -26.5610   19.9530 O   0  0  0  0  0  0  0  0  0  0  0  0
  -24.6830  -31.8120   23.2840 C   0  0  0  0  0  0  0  0  0  0  0  0
  -27.2840  -27.3960   20.0150 C   0  0  0  0  0  0  0  0  0  0  0  0
  -23.4700  -30.4840   21.5910 C   0  0  0  0  0  3  0  0  0  0  0  0
  -24.9140  -29.0020   20.0870 C   0  0  0  0  0  0  0  0  0  0  0  0
  -26.0060  -30.8220   21.3990 C   0  0  0  0  0  2  0  0  0  0  0  0
  -26.0880  -29.4720   20.6920 C   0  0  0  0  0  0  0  0  0  0  0  0
  -27.2800  -28.6850   20.6380 C   0  0  0  0  0  3  0  0  0  0  0  0
  -26.0880  -26.9780   19.3980 C   0  0  0  0  0  3  0  0  0  0  0  0
  -24.9190  -27.7620   19.4260 C   0  0  0  0  0  3  0  0  0  0  0  0
  -23.6720  -29.8660   20.1820 C   0  0  0  0  0  2  0  0  0  0  0  0
  -24.7390  -31.0550   22.1480 N   0  0  0  0  0  0  0  0  0  0  0  0
  -23.6040  -32.0620   23.8400 O   0  0  0  0  0  0  0  0  0  0  0  0
  -22.8190  -29.4250   22.5120 C   0  0  0  0  0  0  0  0  0  0  0  0
  -21.4930  -29.2430   22.3820 N   0  0  0  0  0  0  0  0  0  0  0  0
  -23.5050  -28.7700   23.3010 O   0  0  0  0  0  0  0  0  0  0  0  0
  -20.9980  -29.8290   21.7230 H   0  0  0  0  0  0  0  0  0  0  0  0
  -18.1310  -27.9890   22.8360 C   0  0  0  0  0  0  0  0  0  0  0  0
  -20.6870  -28.2650   23.1110 C   0  0  0  0  0  3  0  0  0  0  0  0
  -20.8060  -26.8630   22.4720 C   0  0  0  0  0  2  0  0  0  0  0  0
  -19.7020  -26.5690   21.4500 C   0  0  0  0  0  2  0  0  0  0  0  0
  -18.3230  -26.6690   22.1080 C   0  0  0  0  0  2  0  0  0  0  0  0
  -19.2420  -28.7450   23.2940 C   0  0  0  0  0  0  0  0  0  0  0  0
  -19.0110  -29.9830   23.9350 C   0  0  0  0  0  3  0  0  0  0  0  0
  -17.7010  -30.4630   24.1220 C   0  0  0  0  0  3  0  0  0  0  0  0
  -16.6040  -29.7030   23.6780 C   0  0  0  0  0  3  0  0  0  0  0  0
  -16.8210  -28.4670   23.0410 C   0  0  0  0  0  3  0  0  0  0  0  0
  -25.9690  -32.4190   23.9250 C   0  0  0  0  0  3  0  0  0  0  0  0
  -26.4860  -31.6030   25.1740 C   0  0  1  0  0  0  0  0  0  0  0  0
  -25.3920  -31.3300   26.2330 C   0  0  0  0  0  1  0  0  0  0  0  0
  -27.0660  -30.2380   24.7340 C   0  0  0  0  0  1  0  0  0  0  0  0
  -27.6390  -32.3700   25.8610 C   0  0  0  0  0  1  0  0  0  0  0  0
  -25.6650  -33.8070   24.3060 N   0  0  0  0  0  0  0  0  0  0  0  0
  -26.0040  -34.8850   23.5880 C   0  0  0  0  0  0  0  0  0  0  0  0
  -26.6750  -34.8160   22.5550 O   0  0  0  0  0  0  0  0  0  0  0  0
  -25.0720  -33.9350   25.1130 H   0  0  0  0  0  0  0  0  0  0  0  0
  -24.2900  -36.7030   23.2880 C   0  0  0  0  0  1  0  0  0  0  0  0
  -25.5210  -36.2590   24.0940 C   0  0  0  0  0  3  0  0  0  0  0  0
  -27.6500  -37.0990   24.9820 C   0  0  0  0  0  1  0  0  0  0  0  0
  -26.5620  -37.3080   24.0320 N   0  0  0  0  0  0  0  0  0  0  0  0
  -26.1600  -38.2250   24.2080 H   0  0  0  0  0  0  0  0  0  0  0  0
  2  1  2  0
  6  4  1  6
  5  2  1  0
  5  6  1  0
  6  3  1  0
  7  8  1  0
  7  5  1  0
  7  3  1  6
  7  6  1  0
  8 17  1  0
  8  4  1  0
  9 15  1  0
  9 17  1  0
 10 15  1  0
 11 12  1  0
 11 10  1  0
 13 12  1  0
 13 22  1  0
 13 14  1  0
 15 14  1  0
 16  9  2  0
 17 18  1  0
 19 20  2  0
 20 39  1  0
 21 20  1  0
 21 24  1  0
 22 23  1  0
 22 19  1  0
 23 21  2  0
 24 25  1  0
 25 26  2  0
 27 30  1  0
 27 26  1  0
 28 27  2  0
 29 28  1  0
 29 24  2  0
 30 31  1  0
 31 36  2  0
 31 32  1  0
 32 33  2  0
 33 34  1  0
 34 38  1  0
 35 34  2  0
 36 35  1  0
 37 36  1  0
 39 40  1  0
 40 43  1  0
 40 42  1  0
 41 39  2  0
 44 19  1  0
 44 45  1  0
 46 44  1  0
 47  2  1  0
 49 48  1  0
 49 47  1  0
 49 50  1  0
 51 53  1  0
 51 50  1  0
 52 63  2  0
 53 58  1  0
 54 62  1  0
 54 64  1  0
 55 61  1  0
 55 57  1  0
 56 62  1  0
 57 56  1  0
 58 57  2  0
 59 60  1  0
 59 53  2  0
 60 55  2  0
 61 54  1  0
 62 52  1  0
 64 66  2  0
 65 64  1  0
 67 65  1  0
 68 77  2  0
 68 73  1  0
 69 65  1  0
 69 73  1  0
 70 69  1  0
 71 72  1  0
 71 70  1  0
 72 68  1  0
 73 74  2  0
 74 75  1  0
 76 75  2  0
 77 76  1  0
 78 52  1  0
 78 83  1  0
 78 79  1  0
 79 82  1  1
 79 80  1  0
 81 79  1  0
 83 86  1  0
 84 88  1  0
 84 83  1  0
 85 84  2  0
 88 87  1  0
 90 88  1  0
 90 91  1  0
 90 89  1  0
M  ISO  4   9 100  17 100  50 101  51 101
M  END
>  <TORSDO>  (2) 
F 20

>  <SCORE>  (2) 
-12.504

>  <name>  (2) 
1

>  <ligand_id>  (2) 
1

>  <original_smiles>  (2) 
[H]C([H])=C(C([H])([H])C([H])(C([H])([H])[H])C([H])([H])Oc1c([H])c([H])c2c(c1[H])C([H])([H])N(C(=O)C([H])(N([H])C(=O)C([H])(N([H])C([H])([H])[H])C([H])([H])[H])C(C([H])([H])[H])(C([H])([H])[H])C([H])([H])[H])C([H])(C(=O)N([H])C1([H])c3c([H])c([H])c([H])c([H])c3C([H])([H])C([H])([H])C1([H])[H])C2([H])[H])C1([H])C2([H])C([H])([H])C([H])(N([H])C(=O)N3C([H])([H])C([H])([H])C([H])([H])C([H])(n4nc(-c5c([H])c([H])c(Oc6c([H])c([H])c(F)c([H])c6F)c([H])c5[H])c(C(=O)N([H])[H])c4N([H])[H])C3([H])[H])C1([H])C2([H])[H]

>  <smiles>  (2) 
[H]C([H])=C(C([H])([H])C([H])(C([H])([H])[H])C([H])([H])Oc1c([H])c([H])c2c(c1[H])C([H])([H])N(C(=O)C([H])(N([H])C(=O)C([H])(N([H])C([H])([H])[H])C([H])([H])[H])C(C([H])([H])[H])(C([H])([H])[H])C([H])([H])[H])C([H])(C(=O)N([H])C1([H])c3c([H])c([H])c([H])c([H])c3C([H])([H])C([H])([H])C1([H])[H])C2([H])[H])C1([H])C2([H])C([H])([H])C([H])(N([H])C(=O)N3C([H])([H])C([H])([H])C([H])([H])C([H])(n4nc(-c5c([H])c([H])c(Oc6c([H])c([H])c(F)c([H])c6F)c([H])c5[H])c(C(=O)N([H])[H])c4N([H])[H])C3([H])[H])C1([H])C2([H])[H]

$$$$
2:0:0
     RDKit          3D

 94 99  0  0  1  0  0  0  0  0999 V2000
  -24.9040  -11.8020   18.5350 C   0  0  0  0  0  3  0  0  0  0  0  0
  -24.5580  -13.4700   18.5830 C   0  0  0  0  0  3  0  0  0  0  0  0
  -26.0320  -10.8310   19.3690 C   0  0  0  0  0  2  0  0  0  0  0  0
  -26.2420  -14.5560   20.5100 C   0  0  0  0  0  3  0  0  0  0  0  0
  -25.1770  -14.7840   19.4200 C   0  0  0  0  0  3  0  0  0  0  0  0
  -26.9890  -11.4860   20.6470 C   0  0  0  0  0  3  0  0  0  0  0  0
  -27.3120  -16.4510   20.6630 C   0  0  0  0  0  2  0  0  0  0  0  0
  -25.1830  -16.4420   19.0150 C   0  0  0  0  0  2  0  0  0  0  0  0
  -25.7880  -17.9590   19.7940 C   0  0  0  0  0  2  0  0  0  0  0  0
  -27.3470  -18.5450   20.3300 C   0  0  0  0  0  1  0  0  0  0  0  0
  -28.5090  -16.2800   20.9080 O   0  0  0  0  0  0  0  0  0  0  0  0
  -28.0990  -10.7050   21.6000 C   0  0  0  0  0  3  0  0  0  0  0  0
  -29.2380  -11.2700   22.6780 C   0  0  0  0  0  2  0  0  0  0  0  0
  -30.8410  -11.7790   22.4620 C   0  0  0  0  0  2  0  0  0  0  0  0
  -31.9600  -12.4780   20.0590 C   0  0  0  0  0  0  0  0  0  0  0  0
  -31.1840  -11.2120   17.9800 C   0  0  0  0  0  2  0  0  0  0  0  0
  -30.0240  -11.9050   17.1890 C   0  0  0  0  0  2  0  0  0  0  0  0
  -28.8090  -12.3850   18.0120 C   0  0  0  0  0  2  0  0  0  0  0  0
  -29.2510  -12.8370   19.4800 C   0  0  0  0  0  3  0  0  0  0  0  0
  -29.8900  -11.4320   19.7870 C   0  0  0  0  0  2  0  0  0  0  0  0
  -31.2000  -11.5990   19.3830 N   0  0  0  0  0  0  0  0  0  0  0  0
  -32.8460  -13.0890   19.4300 O   0  0  0  0  0  0  0  0  0  0  0  0
  -31.5100  -12.6920   21.3770 N   0  0  0  0  0  0  0  0  0  0  0  0
  -31.9310  -13.5210   21.7800 H   0  0  0  0  0  0  0  0  0  0  0  0
  -27.6080  -13.6510   22.0720 C   0  0  0  0  0  3  0  0  0  0  0  0
  -25.9660  -13.4950   22.2240 C   0  0  0  0  0  3  0  0  0  0  0  0
  -25.2260  -13.3460   20.8300 C   0  0  0  0  0  3  0  0  0  0  0  0
  -28.3360  -13.6240   20.3910 N   0  0  0  0  0  0  0  0  0  0  0  0
  -27.1000  -13.5750   19.3140 N   0  0  0  0  0  2  0  0  0  0  0  0
  -24.2980  -11.7450   21.2400 C   0  0  0  0  0  0  0  0  0  0  0  0
  -24.7010  -10.4280   21.9080 C   0  0  0  0  0  3  0  0  0  0  0  0
  -23.9490   -9.1700   22.0910 C   0  0  0  0  0  3  0  0  0  0  0  0
  -22.5990   -9.0690   21.6740 C   0  0  0  0  0  0  0  0  0  0  0  0
  -22.1790  -10.2500   21.0120 C   0  0  0  0  0  3  0  0  0  0  0  0
  -22.9710  -11.4460   20.7970 C   0  0  0  0  0  3  0  0  0  0  0  0
  -21.6900   -7.9820   21.7560 O   0  0  0  0  0  0  0  0  0  0  0  0
  -21.5960   -6.9720   22.7220 C   0  0  0  0  0  0  0  0  0  0  0  0
  -21.6500   -7.2210   24.1140 C   0  0  0  0  0  3  0  0  0  0  0  0
  -21.4900   -6.1730   25.0530 C   0  0  0  0  0  3  0  0  0  0  0  0
  -21.2650   -4.8500   24.6210 C   0  0  0  0  0  0  0  0  0  0  0  0
  -21.1640   -4.5880   23.2450 C   0  0  0  0  0  3  0  0  0  0  0  0
  -21.3100   -5.6360   22.3110 C   0  0  0  0  0  0  0  0  0  0  0  0
  -21.1630   -5.3410   20.9960 F   0  0  0  0  0  0  0  0  0  0  0  0
  -21.1450   -3.8410   25.5200 F   0  0  0  0  0  0  0  0  0  0  0  0
  -24.8270  -14.1300   22.9510 C   0  0  0  0  0  0  0  0  0  0  0  0
  -24.0320  -13.3160   23.6410 N   0  0  0  0  0  0  0  0  0  0  0  0
  -24.3840  -15.2160   22.5730 O   0  0  0  0  0  0  0  0  0  0  0  0
  -24.3020  -12.3580   23.8060 H   0  0  0  0  0  0  0  0  0  0  0  0
  -23.1610  -13.6610   24.0170 H   0  0  0  0  0  0  0  0  0  0  0  0
  -28.2420  -14.5230   22.8380 N   0  0  0  0  0  0  0  0  0  0  0  0
  -27.9090  -14.8690   23.7270 H   0  0  0  0  0  0  0  0  0  0  0  0
  -28.9630  -15.1070   22.4130 H   0  0  0  0  0  0  0  0  0  0  0  0
  -28.1290  -20.9430   20.7720 C   0  0  0  0  0 15  0  0  0  0  0  0
  -29.2800  -22.9010   20.8000 O   0  0  0  0  0  1  0  0  0  0  0  0
  -28.5250  -30.8050   24.1250 C   0  0  0  0  0  0  0  0  0  0  0  0
  -29.2750  -24.7020   20.9280 C   0  0  0  0  0  0  0  0  0  0  0  0
  -27.1550  -29.6960   22.4520 C   0  0  0  0  0  3  0  0  0  0  0  0
  -28.1680  -27.7600   20.9530 C   0  0  0  0  0  0  0  0  0  0  0  0
  -29.6490  -29.0000   22.4710 C   0  0  0  0  0  2  0  0  0  0  0  0
  -29.3120  -27.5570   21.7130 C   0  0  0  0  0  0  0  0  0  0  0  0
  -29.8620  -26.0660   21.6630 C   0  0  0  0  0  3  0  0  0  0  0  0
  -28.3960  -25.3870   20.0520 C   0  0  0  0  0  3  0  0  0  0  0  0
  -27.8390  -26.7120   20.0840 C   0  0  0  0  0  3  0  0  0  0  0  0
  -27.3030  -29.0420   21.0440 C   0  0  0  0  0  2  0  0  0  0  0  0
  -28.5030  -29.8910   23.0630 N   0  0  0  0  0  0  0  0  0  0  0  0
  -27.4800  -31.3100   24.5860 O   0  0  0  0  0  0  0  0  0  0  0  0
  -26.2380  -28.8480   23.3780 C   0  0  0  0  0  0  0  0  0  0  0  0
  -24.9610  -28.6320   23.0090 N   0  0  0  0  0  0  0  0  0  0  0  0
  -26.6980  -28.3930   24.4280 O   0  0  0  0  0  0  0  0  0  0  0  0
  -24.6310  -29.0540   22.1520 H   0  0  0  0  0  0  0  0  0  0  0  0
  -21.6570  -27.1150   22.8890 C   0  0  0  0  0  0  0  0  0  0  0  0
  -24.0140  -27.7720   23.7320 C   0  0  0  0  0  3  0  0  0  0  0  0
  -24.3740  -26.2800   23.5490 C   0  0  0  0  0  2  0  0  0  0  0  0
  -23.6350  -25.6220   22.3790 C   0  0  0  0  0  2  0  0  0  0  0  0
  -22.1210  -25.6990   22.5940 C   0  0  0  0  0  2  0  0  0  0  0  0
  -22.5480  -28.0930   23.4080 C   0  0  0  0  0  0  0  0  0  0  0  0
  -22.0670  -29.4000   23.6400 C   0  0  0  0  0  3  0  0  0  0  0  0
  -20.7280  -29.7360   23.3610 C   0  0  0  0  0  3  0  0  0  0  0  0
  -19.8490  -28.7610   22.8570 C   0  0  0  0  0  3  0  0  0  0  0  0
  -20.3120  -27.4530   22.6280 C   0  0  0  0  0  3  0  0  0  0  0  0
  -29.8330  -31.2840   24.8310 C   0  0  0  0  0  3  0  0  0  0  0  0
  -30.1000  -30.5360   26.1980 C   0  0  1  0  0  0  0  0  0  0  0  0
  -28.9090  -30.5840   27.1870 C   0  0  0  0  0  1  0  0  0  0  0  0
  -30.4360  -29.0520   25.9620 C   0  0  0  0  0  1  0  0  0  0  0  0
  -31.3310  -31.1510   26.9070 C   0  0  0  0  0  1  0  0  0  0  0  0
  -29.7350  -32.7440   25.1120 N   0  0  0  0  0  0  0  0  0  0  0  0
  -30.2900  -33.7310   24.3910 C   0  0  0  0  0  0  0  0  0  0  0  0
  -30.9780  -33.5060   23.3950 O   0  0  0  0  0  0  0  0  0  0  0  0
  -29.1310  -33.0060   25.8770 H   0  0  0  0  0  0  0  0  0  0  0  0
  -28.9430  -35.8330   23.9810 C   0  0  0  0  0  1  0  0  0  0  0  0
  -30.0520  -35.1960   24.8360 C   0  0  0  0  0  3  0  0  0  0  0  0
  -32.2720  -35.7080   25.7650 C   0  0  0  0  0  1  0  0  0  0  0  0
  -31.2620  -36.0470   24.7650 N   0  0  0  0  0  0  0  0  0  0  0  0
  -31.0200  -37.0270   24.8790 H   0  0  0  0  0  0  0  0  0  0  0  0
  1  2  2  0
  1  3  1  0
  2  5  1  0
  3  6  1  0
  4 29  1  0
  4 27  1  0
  5  8  1  0
  5  4  1  0
  6 12  2  0
  7 11  2  0
  8  9  1  0
  9 10  1  0
 12 13  1  0
 14 13  1  0
 15 23  1  0
 16 21  1  0
 17 16  1  0
 17 18  1  0
 19 18  1  0
 19 20  1  0
 19 28  1  0
 21 20  1  0
 21 15  1  0
 22 15  2  0
 23 24  1  0
 23 14  1  0
 25 26  1  0
 25 50  1  0
 26 45  1  0
 27 30  1  0
 27 26  1  0
 28 29  1  0
 28 25  1  0
 30 31  1  0
 31 32  2  0
 33 36  1  0
 33 32  1  0
 34 33  2  0
 35 34  1  0
 35 30  2  0
 36 37  1  0
 37 38  1  0
 38 39  2  0
 40 39  1  0
 40 44  1  0
 41 40  2  0
 42 37  2  0
 42 41  1  0
 43 42  1  0
 45 46  1  0
 46 48  1  0
 46 49  1  0
 47 45  2  0
 50 51  1  0
 52 50  1  0
 54 56  1  0
 55 66  2  0
 56 61  1  0
 57 65  1  0
 57 67  1  0
 58 64  1  0
 58 60  1  0
 59 65  1  0
 60 59  1  0
 61 60  2  0
 62 63  1  0
 62 56  2  0
 63 58  2  0
 64 57  1  0
 65 55  1  0
 67 69  2  0
 68 67  1  0
 70 68  1  0
 71 76  1  0
 72 68  1  0
 73 72  1  0
 74 75  1  0
 74 73  1  0
 75 71  1  0
 76 77  2  0
 76 72  1  0
 78 77  1  0
 79 78  2  0
 80 79  1  0
 80 71  2  0
 81 55  1  0
 81 86  1  0
 81 82  1  0
 82 85  1  1
 82 83  1  0
 84 82  1  0
 86 89  1  0
 87 91  1  0
 87 86  1  0
 88 87  2  0
 91 90  1  0
 93 91  1  0
 93 94  1  0
 93 92  1  0
M  ISO  4  15 100  23 100  53 101  54 101
M  END
>  <TORSDO>  (3) 
F 20

>  <SCORE>  (3) 
12.018

>  <name>  (3) 
2

>  <ligand_id>  (3) 
2

>  <original_smiles>  (3) 
[H]c1c([H])c([H])c2c(c1[H])C([H])([H])C([H])([H])C([H])([H])C2([H])N([H])C(=O)C1([H])N(C(=O)C([H])(N([H])C(=O)C([H])(N([H])C([H])([H])[H])C([H])([H])[H])C(C([H])([H])[H])(C([H])([H])[H])C([H])([H])[H])C([H])([H])c2c([H])c(OC([H])([H])C3([H])C(=O)c4c(C([H])([H])C([H])([H])C([H])([H])N([H])C(=O)N5C([H])([H])C([H])([H])C([H])([H])C([H])(n6nc(-c7c([H])c([H])c(Oc8c([H])c([H])c(F)c([H])c8F)c([H])c7[H])c(C(=O)N([H])[H])c6N([H])[H])C5([H])[H])c([H])c([H])c([H])c4C([H])([H])C3([H])[H])c([H])c([H])c2C1([H])[H]

>  <smiles>  (3) 
[H]c1c([H])c([H])c2c(c1[H])C([H])([H])C([H])([H])C([H])([H])C2([H])N([H])C(=O)C1([H])N(C(=O)C([H])(N([H])C(=O)C([H])(N([H])C([H])([H])[H])C([H])([H])[H])C(C([H])([H])[H])(C([H])([H])[H])C([H])([H])[H])C([H])([H])c2c([H])c(OC([H])([H])C3([H])C(=O)c4c(C([H])([H])C([H])([H])C([H])([H])N([H])C(=O)N5C([H])([H])C([H])([H])C([H])([H])C([H])(n6nc(-c7c([H])c([H])c(Oc8c([H])c([H])c(F)c([H])c8F)c([H])c7[H])c(C(=O)N([H])[H])c6N([H])[H])C5([H])[H])c([H])c([H])c([H])c4C([H])([H])C3([H])[H])c([H])c([H])c2C1([H])[H]

$$$$
3:0:0
     RDKit          3D

 95103  0  0  1  0  0  0  0  0999 V2000
  -28.9230  -19.6710   17.4920 C   0  0  0  0  0  2  0  0  0  0  0  0
  -28.1810  -20.4530   18.5730 C   0  0  0  0  0  2  0  0  0  0  0  0
  -30.4440  -20.7990   19.0390 C   0  0  0  0  0  2  0  0  0  0  0  0
  -30.4140  -19.9450   17.7470 C   0  0  0  0  0  3  0  0  0  0  0  0
  -29.1250  -20.5320   19.7950 C   0  0  1  0  0  0  0  0  0  0  0  0
  -31.1120  -20.5970   16.6220 N   0  0  0  0  0  4  0  0  0  0  0  0
  -30.6540  -21.4440   16.3330 H   0  0  0  0  0  0  0  0  0  0  0  0
  -31.1740  -19.9810   15.8310 H   0  0  0  0  0  0  0  0  0  0  0  0
  -32.0520  -20.8260   16.8960 H   0  0  0  0  0  0  0  0  0  0  0  0
  -28.6210  -21.9330   20.5640 C   0  0  0  0  0  2  0  0  0  0  0  0
  -28.8050  -23.4930   19.9710 C   0  0  0  0  0  3  0  0  0  0  0  0
  -27.9820  -24.8270   20.5290 C   0  0  0  0  0  3  0  0  0  0  0  0
  -28.2260  -26.3060   20.1540 O   0  0  0  0  0  0  0  0  0  0  0  0
  -24.5920  -31.9180   23.2140 C   0  0  0  0  0  0  0  0  0  0  0  0
  -27.1540  -27.2540   20.1460 C   0  0  0  0  0  0  0  0  0  0  0  0
  -23.3830  -30.5310   21.5710 C   0  0  0  0  0  3  0  0  0  0  0  0
  -24.8230  -28.9730   20.1290 C   0  0  0  0  0  0  0  0  0  0  0  0
  -25.9310  -30.8090   21.3940 C   0  0  0  0  0  2  0  0  0  0  0  0
  -26.0020  -29.4230   20.7370 C   0  0  0  0  0  0  0  0  0  0  0  0
  -27.1680  -28.5760   20.7360 C   0  0  0  0  0  3  0  0  0  0  0  0
  -25.9530  -26.8970   19.4970 C   0  0  0  0  0  3  0  0  0  0  0  0
  -24.8070  -27.7190   19.4970 C   0  0  0  0  0  3  0  0  0  0  0  0
  -23.5970  -29.8670   20.1850 C   0  0  0  0  0  2  0  0  0  0  0  0
  -24.6540  -31.1080   22.1160 N   0  0  0  0  0  0  0  0  0  0  0  0
  -23.5090  -32.1960   23.7520 O   0  0  0  0  0  0  0  0  0  0  0  0
  -22.7170  -29.5120   22.5300 C   0  0  0  0  0  0  0  0  0  0  0  0
  -21.3910  -29.3350   22.4090 N   0  0  0  0  0  0  0  0  0  0  0  0
  -23.3960  -28.8850   23.3470 O   0  0  0  0  0  0  0  0  0  0  0  0
  -20.8970  -29.8950   21.7280 H   0  0  0  0  0  0  0  0  0  0  0  0
  -18.0160  -28.1340   22.9370 C   0  0  0  0  0  0  0  0  0  0  0  0
  -20.5770  -28.3910   23.1790 C   0  0  0  0  0  3  0  0  0  0  0  0
  -20.6730  -26.9650   22.5900 C   0  0  0  0  0  2  0  0  0  0  0  0
  -19.5600  -26.6520   21.5840 C   0  0  0  0  0  2  0  0  0  0  0  0
  -18.1850  -26.7920   22.2450 C   0  0  0  0  0  2  0  0  0  0  0  0
  -19.1390  -28.8920   23.3610 C   0  0  0  0  0  0  0  0  0  0  0  0
  -18.9270  -30.1480   23.9690 C   0  0  0  0  0  3  0  0  0  0  0  0
  -17.6230  -30.6450   24.1580 C   0  0  0  0  0  3  0  0  0  0  0  0
  -16.5150  -29.8840   23.7480 C   0  0  0  0  0  3  0  0  0  0  0  0
  -16.7110  -28.6310   23.1420 C   0  0  0  0  0  3  0  0  0  0  0  0
  -25.8750  -32.5540   23.8340 C   0  0  0  0  0  3  0  0  0  0  0  0
  -26.3860  -31.7910   25.1170 C   0  0  1  0  0  0  0  0  0  0  0  0
  -25.2920  -31.5640   26.1850 C   0  0  0  0  0  1  0  0  0  0  0  0
  -26.9700  -30.4100   24.7400 C   0  0  0  0  0  1  0  0  0  0  0  0
  -27.5330  -32.5900   25.7810 C   0  0  0  0  0  1  0  0  0  0  0  0
  -25.5670  -33.9550   24.1600 N   0  0  0  0  0  0  0  0  0  0  0  0
  -25.8970  -35.0080   23.4000 C   0  0  0  0  0  0  0  0  0  0  0  0
  -26.5620  -34.9040   22.3660 O   0  0  0  0  0  0  0  0  0  0  0  0
  -24.9770  -34.1100   24.9630 H   0  0  0  0  0  0  0  0  0  0  0  0
  -24.1860  -36.8220   23.0410 C   0  0  0  0  0  1  0  0  0  0  0  0
  -25.4160  -36.3980   23.8610 C   0  0  0  0  0  3  0  0  0  0  0  0
  -27.5420  -37.2730   24.7280 C   0  0  0  0  0  1  0  0  0  0  0  0
  -26.4560  -37.4460   23.7670 N   0  0  0  0  0  0  0  0  0  0  0  0
  -26.0500  -38.3670   23.9130 H   0  0  0  0  0  0  0  0  0  0  0  0
  -29.0250  -18.9910   20.5200 C   0  0  0  0  0  2  0  0  0  0  0  0
  -30.1320  -17.7260   20.7520 C   0  0  0  0  0  0  0  0  0  0  0  0
  -30.6170  -15.0210   20.3050 C   0  0  0  0  0  0  0  0  0  0  0  0
  -30.4840  -12.7100   19.3110 C   0  0  0  0  0  2  0  0  0  0  0  0
  -29.5350  -12.7210   18.0920 C   0  0  0  0  0  2  0  0  0  0  0  0
  -28.0790  -12.4890   18.5340 C   0  0  0  0  0  2  0  0  0  0  0  0
  -27.6810  -13.3690   19.7490 C   0  0  0  0  0  3  0  0  0  0  0  0
  -28.7530  -13.3540   20.8580 C   0  0  0  0  0  2  0  0  0  0  0  0
  -30.0150  -13.7760   20.2380 N   0  0  0  0  0  0  0  0  0  0  0  0
  -31.8150  -15.0830   20.0210 O   0  0  0  0  0  0  0  0  0  0  0  0
  -29.8390  -16.1930   20.4990 N   0  0  0  0  0  4  0  0  0  0  0  0
  -28.8700  -15.9530   20.6420 H   0  0  0  0  0  0  0  0  0  0  0  0
  -25.2970  -13.8960   20.5080 C   0  0  0  0  0  0  0  0  0  0  0  0
  -24.2490  -13.0940   20.8830 C   0  0  0  0  0  0  0  0  0  0  0  0
  -24.7420  -11.7540   20.8350 C   0  0  0  0  0  0  0  0  0  0  0  0
  -26.3530  -13.0400   20.2520 N   0  0  0  0  0  0  0  0  0  0  0  0
  -26.0310  -11.7460   20.5140 N   0  0  0  0  0  0  0  0  0  0  0  0
  -24.0420  -10.4750   21.0170 C   0  0  0  0  0  0  0  0  0  0  0  0
  -24.4760   -9.5250   21.9670 C   0  0  0  0  0  3  0  0  0  0  0  0
  -23.7730   -8.3120   22.1380 C   0  0  0  0  0  3  0  0  0  0  0  0
  -22.6240   -8.0400   21.3580 C   0  0  0  0  0  0  0  0  0  0  0  0
  -22.2080   -8.9800   20.3990 C   0  0  0  0  0  3  0  0  0  0  0  0
  -22.9110  -10.1830   20.2250 C   0  0  0  0  0  3  0  0  0  0  0  0
  -21.8940   -6.8770   21.4380 O   0  0  0  0  0  0  0  0  0  0  0  0
  -21.8050   -6.1610   22.6050 C   0  0  0  0  0  0  0  0  0  0  0  0
  -21.2490   -6.7130   23.7790 C   0  0  0  0  0  3  0  0  0  0  0  0
  -21.1150   -5.9190   24.9350 C   0  0  0  0  0  3  0  0  0  0  0  0
  -21.5240   -4.5720   24.9160 C   0  0  0  0  0  0  0  0  0  0  0  0
  -22.0740   -4.0190   23.7450 C   0  0  0  0  0  3  0  0  0  0  0  0
  -22.2090   -4.8100   22.5920 C   0  0  0  0  0  0  0  0  0  0  0  0
  -22.7170   -4.2680   21.4600 F   0  0  0  0  0  0  0  0  0  0  0  0
  -21.3890   -3.8060   26.0240 F   0  0  0  0  0  0  0  0  0  0  0  0
  -22.8470  -13.5410   21.1680 C   0  0  0  0  0  0  0  0  0  0  0  0
  -22.1380  -12.8150   22.0270 N   0  0  0  0  0  0  0  0  0  0  0  0
  -22.3860  -14.5670   20.6680 O   0  0  0  0  0  0  0  0  0  0  0  0
  -22.5250  -11.9870   22.4540 H   0  0  0  0  0  0  0  0  0  0  0  0
  -21.1950  -13.0930   22.2610 H   0  0  0  0  0  0  0  0  0  0  0  0
  -25.4320  -15.2690   20.3400 N   0  0  0  0  0  0  0  0  0  0  0  0
  -24.6520  -15.9080   20.4500 H   0  0  0  0  0  0  0  0  0  0  0  0
  -26.2560  -15.7230   19.9720 H   0  0  0  0  0  0  0  0  0  0  0  0
  -32.0060  -19.0950   21.8310 C   0  0  0  0  0  1  0  0  0  0  0  0
  -31.6220  -18.1540   20.6770 C   0  0  0  0  0  2  0  0  0  0  0  0
  1  4  1  0
  1  2  1  0
  2  5  1  0
  3  5  1  0
  4  6  1  0
  4  3  1  0
  5 54  1  1
  5 10  1  0
  6  9  1  0
  7  6  1  0
  8  6  1  0
 11 12  2  0
 11 10  1  0
 13 12  1  0
 14 25  2  0
 15 13  1  0
 15 20  1  0
 16 24  1  0
 16 26  1  0
 17 23  1  0
 17 19  1  0
 18 24  1  0
 19 18  1  0
 20 19  2  0
 21 15  2  0
 22 21  1  0
 22 17  2  0
 23 16  1  0
 24 14  1  0
 26 28  2  0
 27 26  1  0
 29 27  1  0
 30 39  2  0
 30 35  1  0
 31 27  1  0
 31 35  1  0
 32 31  1  0
 33 34  1  0
 33 32  1  0
 34 30  1  0
 35 36  2  0
 36 37  1  0
 38 37  2  0
 39 38  1  0
 40 14  1  0
 40 45  1  0
 40 41  1  0
 41 44  1  1
 41 42  1  0
 43 41  1  0
 45 48  1  0
 46 50  1  0
 46 45  1  0
 47 46  2  0
 50 49  1  0
 52 50  1  0
 52 53  1  0
 52 51  1  0
 54 55  1  0
 56 64  1  0
 57 62  1  0
 58 59  1  0
 58 57  1  0
 60 59  1  0
 60 69  1  0
 60 61  1  0
 62 56  1  0
 62 61  1  0
 63 56  2  0
 64 65  1  0
 64 55  2  0
 66 67  2  0
 67 86  1  0
 68 67  1  0
 68 71  1  0
 69 66  1  0
 69 70  1  0
 70 68  2  0
 71 72  1  0
 72 73  2  0
 74 77  1  0
 74 73  1  0
 75 74  2  0
 76 75  1  0
 76 71  2  0
 77 78  1  0
 78 79  1  0
 79 80  2  0
 81 80  1  0
 81 85  1  0
 82 81  2  0
 83 78  2  0
 83 82  1  0
 84 83  1  0
 86 87  1  0
 87 90  1  0
 87 89  1  0
 88 86  2  0
 91 92  1  0
 91 66  1  0
 93 91  1  0
 95 55  1  0
 95 94  1  0
M  ISO  4  12 101  13 101  56 100  64 100
M  END
>  <TORSDO>  (4) 
F 23

>  <SCORE>  (4) 
-13.813

>  <name>  (4) 
3

>  <ligand_id>  (4) 
3

>  <original_smiles>  (4) 
[H]c1c([H])c([H])c2c(c1[H])C([H])([H])C([H])([H])C([H])([H])C2([H])N([H])C(=O)C1([H])N(C(=O)C([H])(N([H])C(=O)C([H])(N([H])C([H])([H])[H])C([H])([H])[H])C(C([H])([H])[H])(C([H])([H])[H])C([H])([H])[H])C([H])([H])c2c([H])c(OC([H])([H])C([H])([H])C([H])([H])C3(C([H])([H])C([H])(N([H])C(=O)N4C([H])([H])C([H])([H])C([H])([H])C([H])(n5nc(-c6c([H])c([H])c(Oc7c([H])c([H])c(F)c([H])c7F)c([H])c6[H])c(C(=O)N([H])[H])c5N([H])[H])C4([H])[H])C([H])([H])C([H])([H])[H])C([H])([H])C([H])([H])C([H])([N+]([H])([H])[H])C3([H])[H])c([H])c([H])c2C1([H])[H]

>  <smiles>  (4) 
[H]c1c([H])c([H])c2c(c1[H])C([H])([H])C([H])([H])C([H])([H])C2([H])N([H])C(=O)C1([H])N(C(=O)C([H])(N([H])C(=O)C([H])(N([H])C([H])([H])[H])C([H])([H])[H])C(C([H])([H])[H])(C([H])([H])[H])C([H])([H])[H])C([H])([H])c2c([H])c(OC([H])([H])C([H])([H])C([H])([H])C3(C([H])([H])C([H])(N([H])C(=O)N4C([H])([H])C([H])([H])C([H])([H])C([H])(n5nc(-c6c([H])c([H])c(Oc7c([H])c([H])c(F)c([H])c7F)c([H])c6[H])c(C(=O)N([H])[H])c5N([H])[H])C4([H])[H])C([H])([H])C([H])([H])[H])C([H])([H])C([H])([H])C([H])([N+]([H])([H])[H])C3([H])[H])c([H])c([H])c2C1([H])[H]

$$$$
4:0:0
     RDKit          3D

 96104  0  0  1  0  0  0  0  0999 V2000
  -29.3760  -21.1190   20.2360 C   0  0  0  0  0  3  0  0  0  0  0  0
  -33.0370  -22.2580   20.1030 C   0  0  0  0  0  3  0  0  0  0  0  0
  -33.5140  -21.8410   21.3590 C   0  0  0  0  0  3  0  0  0  0  0  0
  -31.6970  -22.0160   19.7450 C   0  0  0  0  0  3  0  0  0  0  0  0
  -31.3060  -20.9530   21.9040 C   0  0  0  0  0  3  0  0  0  0  0  0
  -32.6530  -21.1810   22.2580 C   0  0  0  0  0  0  0  0  0  0  0  0
  -30.8200  -21.3750   20.6460 C   0  0  0  0  0  0  0  0  0  0  0  0
  -33.1760  -20.7230   23.6050 C   0  0  0  0  0  1  0  0  0  0  0  0
  -28.7090  -22.6760   19.6550 C   0  0  0  0  0  2  0  0  0  0  0  0
  -28.2850  -24.2110   20.4540 C   0  0  0  0  0  2  0  0  0  0  0  0
  -28.3750  -25.8050   20.1260 O   0  0  0  0  0  0  0  0  0  0  0  0
  -24.6030  -31.6270   23.0660 C   0  0  0  0  0  0  0  0  0  0  0  0
  -27.3070  -26.8250   20.1330 C   0  0  0  0  0  0  0  0  0  0  0  0
  -23.4720  -30.2210   21.3910 C   0  0  0  0  0  3  0  0  0  0  0  0
  -24.9760  -28.6350   20.0180 C   0  0  0  0  0  0  0  0  0  0  0  0
  -26.0340  -30.4790   21.3090 C   0  0  0  0  0  2  0  0  0  0  0  0
  -26.1410  -29.0720   20.6650 C   0  0  0  0  0  0  0  0  0  0  0  0
  -27.3040  -28.1900   20.6910 C   0  0  0  0  0  3  0  0  0  0  0  0
  -26.1100  -26.5190   19.4520 C   0  0  0  0  0  3  0  0  0  0  0  0
  -24.9810  -27.3760   19.3940 C   0  0  0  0  0  3  0  0  0  0  0  0
  -23.7470  -29.5400   20.0230 C   0  0  0  0  0  2  0  0  0  0  0  0
  -24.7230  -30.8020   21.9770 N   0  0  0  0  0  0  0  0  0  0  0  0
  -23.4970  -31.9010   23.5590 O   0  0  0  0  0  0  0  0  0  0  0  0
  -22.7630  -29.2160   22.3340 C   0  0  0  0  0  0  0  0  0  0  0  0
  -21.4340  -29.0600   22.1920 N   0  0  0  0  0  0  0  0  0  0  0  0
  -23.4170  -28.5750   23.1600 O   0  0  0  0  0  0  0  0  0  0  0  0
  -20.9590  -29.6320   21.5070 H   0  0  0  0  0  0  0  0  0  0  0  0
  -18.0320  -27.9020   22.6750 C   0  0  0  0  0  0  0  0  0  0  0  0
  -20.5960  -28.1170   22.9380 C   0  0  0  0  0  3  0  0  0  0  0  0
  -20.6710  -26.6990   22.3260 C   0  0  0  0  0  2  0  0  0  0  0  0
  -19.5610  -26.4210   21.3080 C   0  0  0  0  0  2  0  0  0  0  0  0
  -18.1840  -26.5710   21.9590 C   0  0  0  0  0  2  0  0  0  0  0  0
  -19.1640  -28.6350   23.1200 C   0  0  0  0  0  0  0  0  0  0  0  0
  -18.9650  -29.8830   23.7520 C   0  0  0  0  0  3  0  0  0  0  0  0
  -17.6670  -30.3960   23.9420 C   0  0  0  0  0  3  0  0  0  0  0  0
  -16.5510  -29.6590   23.5110 C   0  0  0  0  0  3  0  0  0  0  0  0
  -16.7320  -28.4140   22.8830 C   0  0  0  0  0  3  0  0  0  0  0  0
  -25.8500  -32.2820   23.7370 C   0  0  0  0  0  3  0  0  0  0  0  0
  -26.3400  -31.5060   25.0210 C   0  0  1  0  0  0  0  0  0  0  0  0
  -25.2200  -31.2320   26.0510 C   0  0  0  0  0  1  0  0  0  0  0  0
  -26.9670  -30.1470   24.6360 C   0  0  0  0  0  1  0  0  0  0  0  0
  -27.4490  -32.3160   25.7310 C   0  0  0  0  0  1  0  0  0  0  0  0
  -25.5000  -33.6690   24.0860 N   0  0  0  0  0  0  0  0  0  0  0  0
  -25.8300  -34.7490   23.3650 C   0  0  0  0  0  0  0  0  0  0  0  0
  -26.5230  -34.6820   22.3470 O   0  0  0  0  0  0  0  0  0  0  0  0
  -24.8910  -33.7920   24.8820 H   0  0  0  0  0  0  0  0  0  0  0  0
  -24.0750  -36.5220   23.0240 C   0  0  0  0  0  1  0  0  0  0  0  0
  -25.3090  -36.1190   23.8470 C   0  0  0  0  0  3  0  0  0  0  0  0
  -27.4080  -37.0290   24.7410 C   0  0  0  0  0  1  0  0  0  0  0  0
  -26.3240  -37.1930   23.7770 N   0  0  0  0  0  0  0  0  0  0  0  0
  -25.8970  -38.1020   23.9320 H   0  0  0  0  0  0  0  0  0  0  0  0
  -29.3550  -19.4510   19.5850 C   0  0  0  0  0  3  0  0  0  0  0  0
  -30.2730  -17.9860   20.0530 C   0  0  0  0  0  2  0  0  0  0  0  0
  -30.6730  -15.0920   19.8670 C   0  0  0  0  0  0  0  0  0  0  0  0
  -30.5370  -12.6580   19.0080 C   0  0  0  0  0  2  0  0  0  0  0  0
  -29.5330  -12.4690   17.8440 C   0  0  0  0  0  2  0  0  0  0  0  0
  -28.1090  -12.2400   18.3820 C   0  0  0  0  0  2  0  0  0  0  0  0
  -27.7520  -13.2280   19.5200 C   0  0  0  0  0  3  0  0  0  0  0  0
  -28.8710  -13.3530   20.5740 C   0  0  0  0  0  2  0  0  0  0  0  0
  -30.0710  -13.8100   19.8570 N   0  0  0  0  0  0  0  0  0  0  0  0
  -31.8810  -15.0770   19.5920 O   0  0  0  0  0  0  0  0  0  0  0  0
  -29.9330  -16.3620   19.9830 N   0  0  0  0  0  0  0  0  0  0  0  0
  -28.9510  -16.1690   20.1070 H   0  0  0  0  0  0  0  0  0  0  0  0
  -25.4650  -13.8510   20.4630 C   0  0  0  0  0  0  0  0  0  0  0  0
  -24.4020  -13.1030   20.8840 C   0  0  0  0  0  0  0  0  0  0  0  0
  -24.8110  -11.7380   20.7720 C   0  0  0  0  0  0  0  0  0  0  0  0
  -26.4520  -12.9470   20.1140 N   0  0  0  0  0  0  0  0  0  0  0  0
  -26.0740  -11.6670   20.3670 N   0  0  0  0  0  0  0  0  0  0  0  0
  -24.0490  -10.4980   20.9670 C   0  0  0  0  0  0  0  0  0  0  0  0
  -24.4760   -9.5030   21.8740 C   0  0  0  0  0  3  0  0  0  0  0  0
  -23.7130   -8.3290   22.0590 C   0  0  0  0  0  3  0  0  0  0  0  0
  -22.5100   -8.1420   21.3380 C   0  0  0  0  0  0  0  0  0  0  0  0
  -22.1020   -9.1240   20.4190 C   0  0  0  0  0  3  0  0  0  0  0  0
  -22.8640  -10.2890   20.2320 C   0  0  0  0  0  3  0  0  0  0  0  0
  -21.7190   -7.0230   21.4360 O   0  0  0  0  0  0  0  0  0  0  0  0
  -21.6580   -6.2820   22.5890 C   0  0  0  0  0  0  0  0  0  0  0  0
  -21.2430   -6.8450   23.8160 C   0  0  0  0  0  3  0  0  0  0  0  0
  -21.1290   -6.0330   24.9610 C   0  0  0  0  0  3  0  0  0  0  0  0
  -21.4190   -4.6570   24.8810 C   0  0  0  0  0  0  0  0  0  0  0  0
  -21.8270   -4.0940   23.6590 C   0  0  0  0  0  3  0  0  0  0  0  0
  -21.9440   -4.9040   22.5160 C   0  0  0  0  0  0  0  0  0  0  0  0
  -22.3150   -4.3520   21.3370 F   0  0  0  0  0  0  0  0  0  0  0  0
  -21.3020   -3.8740   25.9780 F   0  0  0  0  0  0  0  0  0  0  0  0
  -23.0470  -13.6220   21.2640 C   0  0  0  0  0  0  0  0  0  0  0  0
  -22.3510  -12.9220   22.1530 N   0  0  0  0  0  0  0  0  0  0  0  0
  -22.6190  -14.6820   20.8090 O   0  0  0  0  0  0  0  0  0  0  0  0
  -22.7130  -12.0630   22.5400 H   0  0  0  0  0  0  0  0  0  0  0  0
  -21.4430  -13.2490   22.4510 H   0  0  0  0  0  0  0  0  0  0  0  0
  -25.6670  -15.2210   20.3170 N   0  0  0  0  0  0  0  0  0  0  0  0
  -24.9010  -15.8740   20.4410 H   0  0  0  0  0  0  0  0  0  0  0  0
  -26.4440  -15.6140   19.8030 H   0  0  0  0  0  0  0  0  0  0  0  0
  -27.8780  -19.0530   19.3840 C   0  0  0  0  0  2  0  0  0  0  0  0
  -27.2070  -18.6450   20.6330 N   0  0  0  0  0  4  0  0  0  0  0  0
  -27.6580  -17.8520   21.0530 H   0  0  0  0  0  0  0  0  0  0  0  0
  -26.2570  -18.3870   20.4310 H   0  0  0  0  0  0  0  0  0  0  0  0
  -27.1780  -19.3950   21.3000 H   0  0  0  0  0  0  0  0  0  0  0  0
  1  9  1  0
  1  7  1  0
  2  3  1  0
  3  6  2  0
  4  2  2  0
  4  7  1  0
  5  6  1  0
  6  8  1  0
  7  5  2  0
  9 10  1  0
 11 13  1  0
 11 10  1  0
 12 23  2  0
 13 18  1  0
 14 22  1  0
 14 24  1  0
 15 21  1  0
 15 17  1  0
 16 22  1  0
 17 18  2  0
 17 16  1  0
 19 13  2  0
 20 19  1  0
 20 15  2  0
 21 14  1  0
 22 12  1  0
 24 26  2  0
 25 24  1  0
 27 25  1  0
 28 37  2  0
 28 33  1  0
 29 25  1  0
 29 33  1  0
 30 29  1  0
 31 32  1  0
 31 30  1  0
 32 28  1  0
 33 34  2  0
 34 35  1  0
 36 35  2  0
 37 36  1  0
 38 12  1  0
 38 43  1  0
 38 39  1  0
 39 42  1  1
 39 40  1  0
 41 39  1  0
 43 46  1  0
 44 48  1  0
 44 43  1  0
 45 44  2  0
 48 47  1  0
 50 48  1  0
 50 51  1  0
 50 49  1  0
 52 92  1  0
 52 53  1  0
 52  1  1  0
 54 62  1  0
 55 60  1  0
 56 57  1  0
 56 55  1  0
 58 57  1  0
 58 67  1  0
 58 59  1  0
 60 54  1  0
 60 59  1  0
 61 54  2  0
 62 53  1  0
 62 63  1  0
 64 65  2  0
 65 84  1  0
 66 65  1  0
 66 69  1  0
 67 68  1  0
 67 64  1  0
 68 66  2  0
 69 70  1  0
 70 71  2  0
 72 75  1  0
 72 71  1  0
 73 72  2  0
 74 73  1  0
 74 69  2  0
 75 76  1  0
 76 77  1  0
 77 78  2  0
 79 78  1  0
 79 83  1  0
 80 79  2  0
 81 76  2  0
 81 80  1  0
 82 81  1  0
 84 85  1  0
 85 88  1  0
 85 87  1  0
 86 84  2  0
 89 90  1  0
 89 64  1  0
 91 89  1  0
 92 93  1  0
 93 94  1  0
 93 96  1  0
 95 93  1  0
M  ISO  4  10 101  11 101  54 100  62 100
M  END
>  <TORSDO>  (5) 
F 23

>  <SCORE>  (5) 
-14.370

>  <name>  (5) 
4

>  <ligand_id>  (5) 
4

>  <original_smiles>  (5) 
[H]c1c([H])c([H])c2c(c1[H])C([H])([H])C([H])([H])C([H])([H])C2([H])N([H])C(=O)C1([H])N(C(=O)C([H])(N([H])C(=O)C([H])(N([H])C([H])([H])[H])C([H])([H])[H])C(C([H])([H])[H])(C([H])([H])[H])C([H])([H])[H])C([H])([H])c2c([H])c(OC([H])([H])C([H])([H])C([H])(c3c([H])c([H])c([H])c(C([H])([H])[H])c3[H])C([H])(C([H])([H])N([H])C(=O)N3C([H])([H])C([H])([H])C([H])([H])C([H])(n4nc(-c5c([H])c([H])c(Oc6c([H])c([H])c(F)c([H])c6F)c([H])c5[H])c(C(=O)N([H])[H])c4N([H])[H])C3([H])[H])C([H])([H])[N+]([H])([H])[H])c([H])c([H])c2C1([H])[H]

>  <smiles>  (5) 
[H]c1c([H])c([H])c2c(c1[H])C([H])([H])C([H])([H])C([H])([H])C2([H])N([H])C(=O)C1([H])N(C(=O)C([H])(N([H])C(=O)C([H])(N([H])C([H])([H])[H])C([H])([H])[H])C(C([H])([H])[H])(C([H])([H])[H])C([H])([H])[H])C([H])([H])c2c([H])c(OC([H])([H])C([H])([H])C([H])(c3c([H])c([H])c([H])c(C([H])([H])[H])c3[H])C([H])(C([H])([H])N([H])C(=O)N3C([H])([H])C([H])([H])C([H])([H])C([H])(n4nc(-c5c([H])c([H])c(Oc6c([H])c([H])c(F)c([H])c6F)c([H])c5[H])c(C(=O)N([H])[H])c4N([H])[H])C3([H])[H])C([H])([H])[N+]([H])([H])[H])c([H])c([H])c2C1([H])[H]

$$$$
5:0:0
     RDKit          3D

 92100  0  0  1  0  0  0  0  0999 V2000
  -29.2260  -22.9210   21.7360 C   0  0  0  0  0  2  0  0  0  0  0  0
  -29.3910  -21.3420   21.7940 C   0  0  0  0  0  2  0  0  0  0  0  0
  -28.6340  -21.9020   19.6810 C   0  0  0  0  0  2  0  0  0  0  0  0
  -28.9430  -23.3950   20.2860 C   0  0  0  0  0  3  0  0  0  0  0  0
  -29.5280  -20.7090   20.3660 C   0  0  1  0  0  0  0  0  0  0  0  0
  -30.9570  -20.8330   19.7890 C   0  0  0  0  0  0  0  0  0  0  0  0
  -31.9590  -21.1600   20.5960 N   0  0  0  0  0  0  0  0  0  0  0  0
  -31.1650  -20.6160   18.5970 O   0  0  0  0  0  0  0  0  0  0  0  0
  -31.7760  -21.3500   21.5700 H   0  0  0  0  0  0  0  0  0  0  0  0
  -32.9010  -21.2440   20.2420 H   0  0  0  0  0  0  0  0  0  0  0  0
  -27.9550  -24.7470   20.0590 C   0  0  0  0  0  2  0  0  0  0  0  0
  -28.2330  -26.2590   20.3050 O   0  0  0  0  0  0  0  0  0  0  0  0
  -24.6140  -31.9590   23.2600 C   0  0  0  0  0  0  0  0  0  0  0  0
  -27.1790  -27.2440   20.2290 C   0  0  0  0  0  0  0  0  0  0  0  0
  -23.4110  -30.5700   21.6160 C   0  0  0  0  0  3  0  0  0  0  0  0
  -24.8560  -28.9930   20.1920 C   0  0  0  0  0  0  0  0  0  0  0  0
  -25.9660  -30.8280   21.4560 C   0  0  0  0  0  2  0  0  0  0  0  0
  -26.0350  -29.4360   20.8040 C   0  0  0  0  0  0  0  0  0  0  0  0
  -27.1990  -28.5770   20.8060 C   0  0  0  0  0  3  0  0  0  0  0  0
  -25.9720  -26.9030   19.5790 C   0  0  0  0  0  3  0  0  0  0  0  0
  -24.8370  -27.7400   19.5640 C   0  0  0  0  0  3  0  0  0  0  0  0
  -23.6310  -29.8940   20.2360 C   0  0  0  0  0  2  0  0  0  0  0  0
  -24.6840  -31.1400   22.1650 N   0  0  0  0  0  0  0  0  0  0  0  0
  -23.5280  -32.2460   23.7860 O   0  0  0  0  0  0  0  0  0  0  0  0
  -22.7260  -29.5660   22.5760 C   0  0  0  0  0  0  0  0  0  0  0  0
  -21.3980  -29.3970   22.4420 N   0  0  0  0  0  0  0  0  0  0  0  0
  -23.3920  -28.9400   23.4040 O   0  0  0  0  0  0  0  0  0  0  0  0
  -20.9170  -29.9530   21.7490 H   0  0  0  0  0  0  0  0  0  0  0  0
  -18.0060  -28.2270   22.9450 C   0  0  0  0  0  0  0  0  0  0  0  0
  -20.5690  -28.4640   23.2090 C   0  0  0  0  0  3  0  0  0  0  0  0
  -20.6560  -27.0330   22.6270 C   0  0  0  0  0  2  0  0  0  0  0  0
  -19.5490  -26.7260   21.6130 C   0  0  0  0  0  2  0  0  0  0  0  0
  -18.1700  -26.8800   22.2600 C   0  0  0  0  0  2  0  0  0  0  0  0
  -19.1340  -28.9760   23.3760 C   0  0  0  0  0  0  0  0  0  0  0  0
  -18.9250  -30.2370   23.9770 C   0  0  0  0  0  3  0  0  0  0  0  0
  -17.6250  -30.7470   24.1500 C   0  0  0  0  0  3  0  0  0  0  0  0
  -16.5140  -29.9940   23.7340 C   0  0  0  0  0  3  0  0  0  0  0  0
  -16.7050  -28.7360   23.1370 C   0  0  0  0  0  3  0  0  0  0  0  0
  -25.8930  -32.5870   23.8910 C   0  0  0  0  0  3  0  0  0  0  0  0
  -26.3890  -31.8210   25.1780 C   0  0  1  0  0  0  0  0  0  0  0  0
  -25.2830  -31.5970   26.2350 C   0  0  0  0  0  1  0  0  0  0  0  0
  -26.9680  -30.4360   24.8040 C   0  0  0  0  0  1  0  0  0  0  0  0
  -27.5380  -32.6100   25.8480 C   0  0  0  0  0  1  0  0  0  0  0  0
  -25.5910  -33.9900   24.2160 N   0  0  0  0  0  0  0  0  0  0  0  0
  -25.9100  -35.0380   23.4460 C   0  0  0  0  0  0  0  0  0  0  0  0
  -26.5580  -34.9260   22.4000 O   0  0  0  0  0  0  0  0  0  0  0  0
  -25.0140  -34.1520   25.0290 H   0  0  0  0  0  0  0  0  0  0  0  0
  -24.1720  -36.8310   23.1290 C   0  0  0  0  0  1  0  0  0  0  0  0
  -25.4390  -36.4330   23.9050 C   0  0  0  0  0  3  0  0  0  0  0  0
  -27.5950  -37.3320   24.6660 C   0  0  0  0  0  1  0  0  0  0  0  0
  -26.4680  -37.4840   23.7480 N   0  0  0  0  0  0  0  0  0  0  0  0
  -26.0650  -38.4060   23.8930 H   0  0  0  0  0  0  0  0  0  0  0  0
  -29.1340  -19.0590   20.2660 C   0  0  0  0  0  3  0  0  0  0  0  0
  -30.1780  -17.7460   20.4750 C   0  0  0  0  0  3  0  0  0  0  0  0
  -30.5330  -15.0290   20.3160 C   0  0  0  0  0  0  0  0  0  0  0  0
  -30.3940  -12.6910   19.3540 C   0  0  0  0  0  2  0  0  0  0  0  0
  -29.4460  -12.6560   18.1340 C   0  0  0  0  0  2  0  0  0  0  0  0
  -27.9870  -12.4450   18.5830 C   0  0  0  0  0  2  0  0  0  0  0  0
  -27.5940  -13.3590   19.7730 C   0  0  0  0  0  3  0  0  0  0  0  0
  -28.6630  -13.3660   20.8850 C   0  0  0  0  0  2  0  0  0  0  0  0
  -29.9260  -13.7780   20.2600 N   0  0  0  0  0  0  0  0  0  0  0  0
  -31.7360  -15.0900   20.0370 O   0  0  0  0  0  0  0  0  0  0  0  0
  -29.7720  -16.2180   20.4760 N   0  0  0  0  0  0  0  0  0  0  0  0
  -28.7890  -16.0450   20.6290 H   0  0  0  0  0  0  0  0  0  0  0  0
  -25.2200  -13.9230   20.5470 C   0  0  0  0  0  0  0  0  0  0  0  0
  -24.1620  -13.1400   20.9210 C   0  0  0  0  0  0  0  0  0  0  0  0
  -24.6320  -11.7910   20.8700 C   0  0  0  0  0  0  0  0  0  0  0  0
  -26.2630  -13.0520   20.2850 N   0  0  0  0  0  0  0  0  0  0  0  0
  -25.9190  -11.7630   20.5460 N   0  0  0  0  0  0  0  0  0  0  0  0
  -23.9110  -10.5240   21.0520 C   0  0  0  0  0  0  0  0  0  0  0  0
  -24.3420   -9.5560   21.9860 C   0  0  0  0  0  3  0  0  0  0  0  0
  -23.6200   -8.3550   22.1580 C   0  0  0  0  0  3  0  0  0  0  0  0
  -22.4520   -8.1140   21.3960 C   0  0  0  0  0  0  0  0  0  0  0  0
  -22.0400   -9.0700   20.4510 C   0  0  0  0  0  3  0  0  0  0  0  0
  -22.7630  -10.2630   20.2780 C   0  0  0  0  0  3  0  0  0  0  0  0
  -21.7010   -6.9660   21.4770 O   0  0  0  0  0  0  0  0  0  0  0  0
  -21.6320   -6.2320   22.6340 C   0  0  0  0  0  0  0  0  0  0  0  0
  -21.1360   -6.7810   23.8370 C   0  0  0  0  0  3  0  0  0  0  0  0
  -21.0170   -5.9710   24.9840 C   0  0  0  0  0  3  0  0  0  0  0  0
  -21.3840   -4.6130   24.9290 C   0  0  0  0  0  0  0  0  0  0  0  0
  -21.8720   -4.0630   23.7310 C   0  0  0  0  0  3  0  0  0  0  0  0
  -21.9930   -4.8690   22.5850 C   0  0  0  0  0  0  0  0  0  0  0  0
  -22.4440   -4.3300   21.4280 F   0  0  0  0  0  0  0  0  0  0  0  0
  -21.2630   -3.8330   26.0280 F   0  0  0  0  0  0  0  0  0  0  0  0
  -22.7660  -13.6090   21.2090 C   0  0  0  0  0  0  0  0  0  0  0  0
  -22.0480  -12.9030   22.0760 N   0  0  0  0  0  0  0  0  0  0  0  0
  -22.3200  -14.6380   20.7020 O   0  0  0  0  0  0  0  0  0  0  0  0
  -22.4220  -12.0700   22.5080 H   0  0  0  0  0  0  0  0  0  0  0  0
  -21.1120  -13.1990   22.3120 H   0  0  0  0  0  0  0  0  0  0  0  0
  -25.3740  -15.2950   20.3820 N   0  0  0  0  0  0  0  0  0  0  0  0
  -24.6030  -15.9430   20.5060 H   0  0  0  0  0  0  0  0  0  0  0  0
  -26.2040  -15.7390   20.0090 H   0  0  0  0  0  0  0  0  0  0  0  0
  1  2  1  0
  3  4  1  0
  3  5  1  0
  4 11  1  0
  4  1  1  0
  5 53  1  1
  5  2  1  0
  6  5  1  0
  6  7  1  0
  7  9  1  0
  8  6  2  0
 10  7  1  0
 11 12  1  0
 13 24  2  0
 14 12  1  0
 14 19  1  0
 15 23  1  0
 15 25  1  0
 16 22  1  0
 16 18  1  0
 17 23  1  0
 18 19  2  0
 18 17  1  0
 20 14  2  0
 21 20  1  0
 21 16  2  0
 22 15  1  0
 23 13  1  0
 25 27  2  0
 26 25  1  0
 28 26  1  0
 29 38  2  0
 29 34  1  0
 30 26  1  0
 30 34  1  0
 31 30  1  0
 32 33  1  0
 32 31  1  0
 33 29  1  0
 34 35  2  0
 35 36  1  0
 37 36  2  0
 38 37  1  0
 39 13  1  0
 39 44  1  0
 39 40  1  0
 40 43  1  1
 40 41  1  0
 42 40  1  0
 44 47  1  0
 45 49  1  0
 45 44  1  0
 46 45  2  0
 49 48  1  0
 51 52  1  0
 51 49  1  0
 51 50  1  0
 53 54  2  0
 54 63  1  0
 55 63  1  0
 56 61  1  0
 57 58  1  0
 57 56  1  0
 59 58  1  0
 59 68  1  0
 59 60  1  0
 61 55  1  0
 61 60  1  0
 62 55  2  0
 63 64  1  0
 65 66  2  0
 66 85  1  0
 67 66  1  0
 67 70  1  0
 68 69  1  0
 68 65  1  0
 69 67  2  0
 70 71  1  0
 71 72  2  0
 73 76  1  0
 73 72  1  0
 74 73  2  0
 75 74  1  0
 75 70  2  0
 76 77  1  0
 77 78  1  0
 78 79  2  0
 80 79  1  0
 80 84  1  0
 81 80  2  0
 82 77  2  0
 82 81  1  0
 83 82  1  0
 85 86  1  0
 86 89  1  0
 86 88  1  0
 87 85  2  0
 90 91  1  0
 90 65  1  0
 92 90  1  0
M  ISO  4  11 101  12 101  55 100  63 100
M  END
>  <TORSDO>  (6) 
F 20

>  <SCORE>  (6) 
-14.540

>  <name>  (6) 
5

>  <ligand_id>  (6) 
5

>  <original_smiles>  (6) 
[H]c1c([H])c([H])c2c(c1[H])C([H])([H])C([H])([H])C([H])([H])C2([H])N([H])C(=O)C1([H])N(C(=O)C([H])(N([H])C(=O)C([H])(N([H])C([H])([H])[H])C([H])([H])[H])C(C([H])([H])[H])(C([H])([H])[H])C([H])([H])[H])C([H])([H])c2c([H])c(OC([H])([H])C3([H])C([H])([H])C([H])([H])C(C(=O)N([H])[H])(C([H])([H])C([H])([H])N([H])C(=O)N4C([H])([H])C([H])([H])C([H])([H])C([H])(n5nc(-c6c([H])c([H])c(Oc7c([H])c([H])c(F)c([H])c7F)c([H])c6[H])c(C(=O)N([H])[H])c5N([H])[H])C4([H])[H])C3([H])[H])c([H])c([H])c2C1([H])[H]

>  <smiles>  (6) 
[H]c1c([H])c([H])c2c(c1[H])C([H])([H])C([H])([H])C([H])([H])C2([H])N([H])C(=O)C1([H])N(C(=O)C([H])(N([H])C(=O)C([H])(N([H])C([H])([H])[H])C([H])([H])[H])C(C([H])([H])[H])(C([H])([H])[H])C([H])([H])[H])C([H])([H])c2c([H])c(OC([H])([H])C3([H])C([H])([H])C([H])([H])C(C(=O)N([H])[H])(C([H])([H])C([H])([H])N([H])C(=O)N4C([H])([H])C([H])([H])C([H])([H])C([H])(n5nc(-c6c([H])c([H])c(Oc7c([H])c([H])c(F)c([H])c7F)c([H])c6[H])c(C(=O)N([H])[H])c5N([H])[H])C4([H])[H])C3([H])[H])c([H])c([H])c2C1([H])[H]

$$$$
6:0:0
     RDKit          3D

 89 98  0  0  1  0  0  0  0  0999 V2000
  -28.8130  -21.8960   21.7430 C   0  0  0  0  0  0  0  0  0  0  0  0
  -29.6070  -20.5790   21.7010 C   0  0  0  0  0  2  0  0  0  0  0  0
  -28.3620  -21.1280   19.3240 C   0  0  0  0  0  2  0  0  0  0  0  0
  -28.8140  -22.1100   20.2820 C   0  0  2  0  0  0  0  0  0  0  0  0
  -29.5350  -20.5720   20.1620 C   0  0  1  0  0  0  0  0  0  0  0  0
  -28.3580  -22.6250   22.6280 O   0  0  0  0  0  0  0  0  0  0  0  0
  -29.1840  -23.6720   19.9050 C   0  0  0  0  0  3  0  0  0  0  0  0
  -28.0630  -24.8950   19.9700 C   0  0  0  0  0  3  0  0  0  0  0  0
  -28.3330  -26.4130   19.9650 O   0  0  0  0  0  0  0  0  0  0  0  0
  -24.6890  -31.9080   23.1990 C   0  0  0  0  0  0  0  0  0  0  0  0
  -27.2450  -27.3480   19.9720 C   0  0  0  0  0  0  0  0  0  0  0  0
  -23.4600  -30.5430   21.5560 C   0  0  0  0  0  3  0  0  0  0  0  0
  -24.8880  -29.0320   20.0550 C   0  0  0  0  0  0  0  0  0  0  0  0
  -26.0040  -30.8550   21.3280 C   0  0  0  0  0  2  0  0  0  0  0  0
  -26.0770  -29.4860   20.6390 C   0  0  0  0  0  0  0  0  0  0  0  0
  -27.2570  -28.6610   20.5780 C   0  0  0  0  0  3  0  0  0  0  0  0
  -26.0240  -26.9860   19.3580 C   0  0  0  0  0  3  0  0  0  0  0  0
  -24.8710  -27.7920   19.4010 C   0  0  0  0  0  3  0  0  0  0  0  0
  -23.6500  -29.9060   20.1550 C   0  0  0  0  0  2  0  0  0  0  0  0
  -24.7390  -31.1210   22.0830 N   0  0  0  0  0  0  0  0  0  0  0  0
  -23.6150  -32.1660   23.7640 O   0  0  0  0  0  0  0  0  0  0  0  0
  -22.8220  -29.5000   22.5070 C   0  0  0  0  0  0  0  0  0  0  0  0
  -21.4990  -29.2900   22.3840 N   0  0  0  0  0  0  0  0  0  0  0  0
  -23.5180  -28.8850   23.3190 O   0  0  0  0  0  0  0  0  0  0  0  0
  -20.9960  -29.8390   21.7010 H   0  0  0  0  0  0  0  0  0  0  0  0
  -18.1590  -27.9840   22.8840 C   0  0  0  0  0  0  0  0  0  0  0  0
  -20.7100  -28.3210   23.1470 C   0  0  0  0  0  3  0  0  0  0  0  0
  -20.8520  -26.8980   22.5570 C   0  0  0  0  0  2  0  0  0  0  0  0
  -19.7560  -26.5530   21.5430 C   0  0  0  0  0  2  0  0  0  0  0  0
  -18.3730  -26.6480   22.1920 C   0  0  0  0  0  2  0  0  0  0  0  0
  -19.2550  -28.7760   23.3170 C   0  0  0  0  0  0  0  0  0  0  0  0
  -18.9990  -30.0240   23.9260 C   0  0  0  0  0  3  0  0  0  0  0  0
  -17.6800  -30.4820   24.1050 C   0  0  0  0  0  3  0  0  0  0  0  0
  -16.5980  -29.6870   23.6860 C   0  0  0  0  0  3  0  0  0  0  0  0
  -16.8380  -28.4410   23.0820 C   0  0  0  0  0  3  0  0  0  0  0  0
  -25.9780  -32.5410   23.8080 C   0  0  0  0  0  3  0  0  0  0  0  0
  -26.5160  -31.7600   25.0710 C   0  0  1  0  0  0  0  0  0  0  0  0
  -25.4360  -31.4970   26.1460 C   0  0  0  0  0  1  0  0  0  0  0  0
  -27.1110  -30.3940   24.6590 C   0  0  0  0  0  1  0  0  0  0  0  0
  -27.6640  -32.5590   25.7290 C   0  0  0  0  0  1  0  0  0  0  0  0
  -25.6680  -33.9340   24.1620 N   0  0  0  0  0  0  0  0  0  0  0  0
  -25.9920  -35.0010   23.4180 C   0  0  0  0  0  0  0  0  0  0  0  0
  -26.6510  -34.9150   22.3790 O   0  0  0  0  0  0  0  0  0  0  0  0
  -25.0850  -34.0750   24.9730 H   0  0  0  0  0  0  0  0  0  0  0  0
  -24.2740  -36.8110   23.0970 C   0  0  0  0  0  1  0  0  0  0  0  0
  -25.5100  -36.3820   23.9040 C   0  0  0  0  0  3  0  0  0  0  0  0
  -27.6370  -37.2460   24.7750 C   0  0  0  0  0  1  0  0  0  0  0  0
  -26.5490  -37.4320   23.8200 N   0  0  0  0  0  0  0  0  0  0  0  0
  -26.1450  -38.3520   23.9750 H   0  0  0  0  0  0  0  0  0  0  0  0
  -29.3010  -18.9470   19.8830 C   0  0  0  0  0  3  0  0  0  0  0  0
  -30.3600  -17.7370   20.2950 C   0  0  0  0  0  3  0  0  0  0  0  0
  -30.7620  -15.0620   20.0410 C   0  0  0  0  0  0  0  0  0  0  0  0
  -30.5890  -12.7320   19.1000 C   0  0  0  0  0  2  0  0  0  0  0  0
  -29.6010  -12.7050   17.9120 C   0  0  0  0  0  2  0  0  0  0  0  0
  -28.1570  -12.5030   18.4080 C   0  0  0  0  0  2  0  0  0  0  0  0
  -27.8040  -13.4260   19.6050 C   0  0  0  0  0  3  0  0  0  0  0  0
  -28.9080  -13.4250   20.6840 C   0  0  0  0  0  2  0  0  0  0  0  0
  -30.1580  -13.8150   20.0200 N   0  0  0  0  0  0  0  0  0  0  0  0
  -31.9480  -15.1470   19.7070 O   0  0  0  0  0  0  0  0  0  0  0  0
  -29.9870  -16.2200   20.2380 N   0  0  0  0  0  0  0  0  0  0  0  0
  -29.0170  -16.0220   20.4330 H   0  0  0  0  0  0  0  0  0  0  0  0
  -25.4630  -13.9990   20.4700 C   0  0  0  0  0  0  0  0  0  0  0  0
  -24.4120  -13.2180   20.8700 C   0  0  0  0  0  0  0  0  0  0  0  0
  -24.8680  -11.8670   20.7810 C   0  0  0  0  0  0  0  0  0  0  0  0
  -26.4890  -13.1230   20.1580 N   0  0  0  0  0  0  0  0  0  0  0  0
  -26.1430  -11.8340   20.4100 N   0  0  0  0  0  0  0  0  0  0  0  0
  -24.1440  -10.6030   20.9700 C   0  0  0  0  0  0  0  0  0  0  0  0
  -24.5750   -9.6380   21.9070 C   0  0  0  0  0  3  0  0  0  0  0  0
  -23.8520   -8.4400   22.0850 C   0  0  0  0  0  3  0  0  0  0  0  0
  -22.6820   -8.1960   21.3250 C   0  0  0  0  0  0  0  0  0  0  0  0
  -22.2710   -9.1510   20.3780 C   0  0  0  0  0  3  0  0  0  0  0  0
  -22.9950  -10.3410   20.1980 C   0  0  0  0  0  3  0  0  0  0  0  0
  -21.9290   -7.0500   21.4120 O   0  0  0  0  0  0  0  0  0  0  0  0
  -21.8380   -6.3370   22.5810 C   0  0  0  0  0  0  0  0  0  0  0  0
  -21.3140   -6.9060   23.7620 C   0  0  0  0  0  3  0  0  0  0  0  0
  -21.1730   -6.1170   24.9210 C   0  0  0  0  0  3  0  0  0  0  0  0
  -21.5450   -4.7600   24.9000 C   0  0  0  0  0  0  0  0  0  0  0  0
  -22.0600   -4.1900   23.7220 C   0  0  0  0  0  3  0  0  0  0  0  0
  -22.2030   -4.9760   22.5650 C   0  0  0  0  0  0  0  0  0  0  0  0
  -22.6810   -4.4160   21.4280 F   0  0  0  0  0  0  0  0  0  0  0  0
  -21.4020   -3.9990   26.0100 F   0  0  0  0  0  0  0  0  0  0  0  0
  -23.0330  -13.6940   21.2190 C   0  0  0  0  0  0  0  0  0  0  0  0
  -22.3460  -12.9820   22.1060 N   0  0  0  0  0  0  0  0  0  0  0  0
  -22.5740  -14.7310   20.7420 O   0  0  0  0  0  0  0  0  0  0  0  0
  -22.7310  -12.1420   22.5120 H   0  0  0  0  0  0  0  0  0  0  0  0
  -21.4220  -13.2830   22.3840 H   0  0  0  0  0  0  0  0  0  0  0  0
  -25.6240  -15.3730   20.3200 N   0  0  0  0  0  0  0  0  0  0  0  0
  -24.8600  -16.0230   20.4750 H   0  0  0  0  0  0  0  0  0  0  0  0
  -26.4430  -15.8150   19.9260 H   0  0  0  0  0  0  0  0  0  0  0  0
  1  6  2  0
  2  1  1  0
  3  5  1  0
  3  4  1  0
  4  7  1  1
  4  1  1  0
  5 50  1  1
  5  4  1  0
  5  2  1  0
  7  8  2  0
  9  8  1  0
  9 11  1  0
 10 21  2  0
 11 16  1  0
 12 20  1  0
 12 22  1  0
 13 19  1  0
 13 15  1  0
 14 20  1  0
 15 14  1  0
 16 15  2  0
 17 18  1  0
 17 11  2  0
 18 13  2  0
 19 12  1  0
 20 10  1  0
 22 24  2  0
 23 22  1  0
 25 23  1  0
 26 35  2  0
 26 31  1  0
 27 23  1  0
 27 31  1  0
 28 27  1  0
 29 30  1  0
 29 28  1  0
 30 26  1  0
 31 32  2  0
 32 33  1  0
 34 33  2  0
 35 34  1  0
 36 10  1  0
 36 41  1  0
 36 37  1  0
 37 40  1  1
 37 38  1  0
 39 37  1  0
 41 44  1  0
 42 46  1  0
 42 41  1  0
 43 42  2  0
 46 45  1  0
 48 46  1  0
 48 49  1  0
 48 47  1  0
 50 51  2  0
 52 60  1  0
 53 58  1  0
 54 55  1  0
 54 53  1  0
 56 55  1  0
 56 65  1  0
 56 57  1  0
 58 52  1  0
 58 57  1  0
 59 52  2  0
 60 51  1  0
 60 61  1  0
 62 63  2  0
 63 82  1  0
 64 63  1  0
 64 67  1  0
 65 66  1  0
 65 62  1  0
 66 64  2  0
 67 68  1  0
 68 69  2  0
 70 73  1  0
 70 69  1  0
 71 70  2  0
 72 71  1  0
 72 67  2  0
 73 74  1  0
 74 75  1  0
 75 76  2  0
 77 76  1  0
 77 81  1  0
 78 77  2  0
 79 74  2  0
 79 78  1  0
 80 79  1  0
 82 83  1  0
 83 86  1  0
 83 85  1  0
 84 82  2  0
 87 62  1  0
 87 88  1  0
 89 87  1  0
M  ISO  4   8 101   9 101  52 100  60 100
M  END
>  <TORSDO>  (7) 
F 20

>  <SCORE>  (7) 
-13.311

>  <name>  (7) 
6

>  <ligand_id>  (7) 
6

>  <original_smiles>  (7) 
[H]c1c([H])c([H])c2c(c1[H])C([H])([H])C([H])([H])C([H])([H])C2([H])N([H])C(=O)C1([H])N(C(=O)C([H])(N([H])C(=O)C([H])(N([H])C([H])([H])[H])C([H])([H])[H])C(C([H])([H])[H])(C([H])([H])[H])C([H])([H])[H])C([H])([H])c2c([H])c(OC([H])([H])C([H])([H])C34C(=O)C([H])([H])C3(C([H])([H])C([H])([H])N([H])C(=O)N3C([H])([H])C([H])([H])C([H])([H])C([H])(n5nc(-c6c([H])c([H])c(Oc7c([H])c([H])c(F)c([H])c7F)c([H])c6[H])c(C(=O)N([H])[H])c5N([H])[H])C3([H])[H])C4([H])[H])c([H])c([H])c2C1([H])[H]

>  <smiles>  (7) 
[H]c1c([H])c([H])c2c(c1[H])C([H])([H])C([H])([H])C([H])([H])C2([H])N([H])C(=O)C1([H])N(C(=O)C([H])(N([H])C(=O)C([H])(N([H])C([H])([H])[H])C([H])([H])[H])C(C([H])([H])[H])(C([H])([H])[H])C([H])([H])[H])C([H])([H])c2c([H])c(OC([H])([H])C([H])([H])C34C(=O)C([H])([H])C3(C([H])([H])C([H])([H])N([H])C(=O)N3C([H])([H])C([H])([H])C([H])([H])C([H])(n5nc(-c6c([H])c([H])c(Oc7c([H])c([H])c(F)c([H])c7F)c([H])c6[H])c(C(=O)N([H])[H])c5N([H])[H])C3([H])[H])C4([H])[H])c([H])c([H])c2C1([H])[H]

$$$$
7:0:0
     RDKit          3D

 91100  0  0  1  0  0  0  0  0999 V2000
  -25.5160  -22.8730   19.3160 C   0  0  0  0  0  2  0  0  0  0  0  0
  -26.4620  -23.1860   18.1090 C   0  0  0  0  0  2  0  0  0  0  0  0
  -27.2340  -21.2210   20.8110 C   0  0  0  0  0  2  0  0  0  0  0  0
  -28.8220  -21.9050   19.0240 C   0  0  0  0  0  2  0  0  0  0  0  0
  -26.6340  -21.8960   19.6220 C   0  0  0  0  0  3  0  0  0  0  0  0
  -28.6080  -20.8170   20.1790 C   0  0  0  0  0  3  0  0  0  0  0  0
  -27.6430  -22.9280   19.0980 C   0  0  2  0  0  0  0  0  0  0  0  0
  -28.6250  -19.2970   19.7130 C   0  0  0  0  0  2  0  0  0  0  0  0
  -29.7540  -18.3330   20.2390 C   0  0  0  0  0  3  0  0  0  0  0  0
  -29.5340  -16.8020   19.9280 C   0  0  0  0  0  3  0  0  0  0  0  0
  -31.0480  -14.7720   20.0540 C   0  0  0  0  0  0  0  0  0  0  0  0
  -30.7080  -12.5270   19.0620 C   0  0  0  0  0  2  0  0  0  0  0  0
  -29.7580  -12.6280   17.8520 C   0  0  0  0  0  2  0  0  0  0  0  0
  -28.2910  -12.5240   18.3100 C   0  0  0  0  0  2  0  0  0  0  0  0
  -27.9660  -13.4620   19.5030 C   0  0  0  0  0  3  0  0  0  0  0  0
  -29.0320  -13.3510   20.6140 C   0  0  0  0  0  2  0  0  0  0  0  0
  -30.3420  -13.6040   20.0020 N   0  0  0  0  0  0  0  0  0  0  0  0
  -32.1850  -14.8630   19.5910 O   0  0  0  0  0  0  0  0  0  0  0  0
  -30.4700  -15.8680   20.6130 N   0  0  0  0  0  0  0  0  0  0  0  0
  -31.1790  -16.4060   21.0890 H   0  0  0  0  0  0  0  0  0  0  0  0
  -25.6220  -14.1510   20.2900 C   0  0  0  0  0  0  0  0  0  0  0  0
  -24.5320  -13.4170   20.6770 C   0  0  0  0  0  0  0  0  0  0  0  0
  -24.9360  -12.0480   20.6170 C   0  0  0  0  0  0  0  0  0  0  0  0
  -26.6200  -13.2310   20.0170 N   0  0  0  0  0  0  0  0  0  0  0  0
  -26.2150  -11.9600   20.2750 N   0  0  0  0  0  0  0  0  0  0  0  0
  -24.1610  -10.8140   20.8100 C   0  0  0  0  0  0  0  0  0  0  0  0
  -24.5640   -9.8240   21.7310 C   0  0  0  0  0  3  0  0  0  0  0  0
  -23.7930   -8.6560   21.9110 C   0  0  0  0  0  3  0  0  0  0  0  0
  -22.6010   -8.4710   21.1690 C   0  0  0  0  0  0  0  0  0  0  0  0
  -22.2180   -9.4490   20.2340 C   0  0  0  0  0  3  0  0  0  0  0  0
  -22.9900  -10.6080   20.0530 C   0  0  0  0  0  3  0  0  0  0  0  0
  -21.8020   -7.3560   21.2580 O   0  0  0  0  0  0  0  0  0  0  0  0
  -21.7160   -6.6250   22.4160 C   0  0  0  0  0  0  0  0  0  0  0  0
  -21.3090   -7.2060   23.6370 C   0  0  0  0  0  3  0  0  0  0  0  0
  -21.1690   -6.4020   24.7860 C   0  0  0  0  0  3  0  0  0  0  0  0
  -21.4250   -5.0200   24.7140 C   0  0  0  0  0  0  0  0  0  0  0  0
  -21.8260   -4.4390   23.4990 C   0  0  0  0  0  3  0  0  0  0  0  0
  -21.9690   -5.2400   22.3510 C   0  0  0  0  0  0  0  0  0  0  0  0
  -22.3350   -4.6730   21.1770 F   0  0  0  0  0  0  0  0  0  0  0  0
  -21.2820   -4.2450   25.8150 F   0  0  0  0  0  0  0  0  0  0  0  0
  -23.1640  -13.9500   20.9880 C   0  0  0  0  0  0  0  0  0  0  0  0
  -22.4340  -13.2810   21.8770 N   0  0  0  0  0  0  0  0  0  0  0  0
  -22.7510  -14.9920   20.4820 O   0  0  0  0  0  0  0  0  0  0  0  0
  -22.7810  -12.4380   22.3100 H   0  0  0  0  0  0  0  0  0  0  0  0
  -21.5160  -13.6190   22.1250 H   0  0  0  0  0  0  0  0  0  0  0  0
  -25.8350  -15.5140   20.1230 N   0  0  0  0  0  0  0  0  0  0  0  0
  -25.0960  -16.1960   20.2590 H   0  0  0  0  0  0  0  0  0  0  0  0
  -26.6910  -15.9180   19.7680 H   0  0  0  0  0  0  0  0  0  0  0  0
  -28.0450  -24.2280   19.9280 C   0  0  0  0  0  2  0  0  0  0  0  0
  -28.4560  -25.5100   19.1010 C   0  0  0  0  0  2  0  0  0  0  0  0
  -28.3870  -26.8090   19.7670 O   0  0  0  0  0  0  0  0  0  0  0  0
  -24.5480  -31.8590   23.1170 C   0  0  0  0  0  0  0  0  0  0  0  0
  -27.2040  -27.5450   19.7990 C   0  0  0  0  0  0  0  0  0  0  0  0
  -23.3340  -30.4950   21.4520 C   0  0  0  0  0  3  0  0  0  0  0  0
  -24.7840  -29.0440   19.9300 C   0  0  0  0  0  0  0  0  0  0  0  0
  -25.8500  -30.9020   21.2120 C   0  0  0  0  0  2  0  0  0  0  0  0
  -25.9510  -29.5560   20.5120 C   0  0  0  0  0  0  0  0  0  0  0  0
  -27.1620  -28.8160   20.4400 C   0  0  0  0  0  3  0  0  0  0  0  0
  -26.0090  -27.0610   19.2220 C   0  0  0  0  0  3  0  0  0  0  0  0
  -24.8130  -27.7980   19.2830 C   0  0  0  0  0  3  0  0  0  0  0  0
  -23.5260  -29.8760   20.0420 C   0  0  0  0  0  2  0  0  0  0  0  0
  -24.5970  -31.0980   21.9850 N   0  0  0  0  0  0  0  0  0  0  0  0
  -23.4750  -32.0900   23.6940 O   0  0  0  0  0  0  0  0  0  0  0  0
  -22.7240  -29.4250   22.3860 C   0  0  0  0  0  0  0  0  0  0  0  0
  -21.4040  -29.2050   22.2730 N   0  0  0  0  0  0  0  0  0  0  0  0
  -23.4370  -28.7980   23.1740 O   0  0  0  0  0  0  0  0  0  0  0  0
  -20.8850  -29.7660   21.6110 H   0  0  0  0  0  0  0  0  0  0  0  0
  -18.0880  -27.8640   22.7480 C   0  0  0  0  0  0  0  0  0  0  0  0
  -20.6320  -28.2220   23.0340 C   0  0  0  0  0  3  0  0  0  0  0  0
  -20.7860  -26.8010   22.4420 C   0  0  0  0  0  2  0  0  0  0  0  0
  -19.7170  -26.4840   21.3930 C   0  0  0  0  0  2  0  0  0  0  0  0
  -18.3230  -26.5490   22.0240 C   0  0  0  0  0  2  0  0  0  0  0  0
  -19.1740  -28.6590   23.2040 C   0  0  0  0  0  0  0  0  0  0  0  0
  -18.9040  -29.8960   23.8260 C   0  0  0  0  0  3  0  0  0  0  0  0
  -17.5810  -30.3370   24.0030 C   0  0  0  0  0  3  0  0  0  0  0  0
  -16.5100  -29.5410   23.5650 C   0  0  0  0  0  3  0  0  0  0  0  0
  -16.7620  -28.3070   22.9410 C   0  0  0  0  0  3  0  0  0  0  0  0
  -25.8350  -32.4970   23.7280 C   0  0  0  0  0  3  0  0  0  0  0  0
  -25.5070  -33.8770   24.1150 N   0  0  0  0  0  0  0  0  0  0  0  0
  -25.8050  -34.9630   23.3890 C   0  0  0  0  0  0  0  0  0  0  0  0
  -26.4580  -34.9120   22.3430 O   0  0  0  0  0  0  0  0  0  0  0  0
  -24.9270  -33.9880   24.9330 H   0  0  0  0  0  0  0  0  0  0  0  0
  -24.0390  -36.7350   23.1260 C   0  0  0  0  0  1  0  0  0  0  0  0
  -25.2980  -36.3230   23.9060 C   0  0  0  0  0  3  0  0  0  0  0  0
  -27.4240  -37.2170   24.7450 C   0  0  0  0  0  1  0  0  0  0  0  0
  -26.3080  -37.4000   23.8210 N   0  0  0  0  0  0  0  0  0  0  0  0
  -25.8850  -38.3040   24.0110 H   0  0  0  0  0  0  0  0  0  0  0  0
  -26.4010  -31.6950   24.9630 C   0  0  1  0  0  0  0  0  0  0  0  0
  -25.3410  -31.4010   26.0500 C   0  0  0  0  0  1  0  0  0  0  0  0
  -26.9970  -30.3410   24.5110 C   0  0  0  0  0  1  0  0  0  0  0  0
  -27.5550  -32.4870   25.6250 C   0  0  0  0  0  1  0  0  0  0  0  0
  2  7  1  0
  2  1  1  0
  4  7  1  0
  4  6  1  0
  5  1  1  0
  5  3  1  0
  6  8  1  0
  6  3  1  0
  7  5  1  0
  7 49  1  1
  8  9  1  0
 10  9  2  0
 10 19  1  0
 11 19  1  0
 12 17  1  0
 13 14  1  0
 13 12  1  0
 15 14  1  0
 15 24  1  0
 15 16  1  0
 17 11  1  0
 17 16  1  0
 18 11  2  0
 19 20  1  0
 21 22  2  0
 22 41  1  0
 23 22  1  0
 23 26  1  0
 24 25  1  0
 24 21  1  0
 25 23  2  0
 26 27  1  0
 27 28  2  0
 29 32  1  0
 29 28  1  0
 30 29  2  0
 31 30  1  0
 31 26  2  0
 32 33  1  0
 33 34  1  0
 34 35  2  0
 36 35  1  0
 36 40  1  0
 37 36  2  0
 38 33  2  0
 38 37  1  0
 39 38  1  0
 41 42  1  0
 42 45  1  0
 42 44  1  0
 43 41  2  0
 46 47  1  0
 46 21  1  0
 48 46  1  0
 50 51  1  0
 50 49  1  0
 51 53  1  0
 52 63  2  0
 53 58  1  0
 54 62  1  0
 54 64  1  0
 55 61  1  0
 55 57  1  0
 56 62  1  0
 57 56  1  0
 58 57  2  0
 59 60  1  0
 59 53  2  0
 60 55  2  0
 61 54  1  0
 62 52  1  0
 64 66  2  0
 65 64  1  0
 67 65  1  0
 68 77  2  0
 68 73  1  0
 69 65  1  0
 69 73  1  0
 70 69  1  0
 71 72  1  0
 71 70  1  0
 72 68  1  0
 73 74  2  0
 74 75  1  0
 76 75  2  0
 77 76  1  0
 78 52  1  0
 78 79  1  0
 78 88  1  0
 79 82  1  0
 80 84  1  0
 80 79  1  0
 81 80  2  0
 84 83  1  0
 86 84  1  0
 86 87  1  0
 86 85  1  0
 88 91  1  1
 88 89  1  0
 90 88  1  0
M  ISO  4  11 100  19 100  50 101  51 101
M  END
>  <TORSDO>  (8) 
F 21

>  <SCORE>  (8) 
-12.307

>  <name>  (8) 
7

>  <ligand_id>  (8) 
7

>  <original_smiles>  (8) 
[H]c1c([H])c([H])c2c(c1[H])C([H])([H])C([H])([H])C([H])([H])C2([H])N([H])C(=O)C1([H])N(C(=O)C([H])(N([H])C(=O)C([H])(N([H])C([H])([H])[H])C([H])([H])[H])C(C([H])([H])[H])(C([H])([H])[H])C([H])([H])[H])C([H])([H])c2c([H])c(OC([H])([H])C([H])([H])C34C([H])([H])C([H])([H])C3([H])C([H])([H])C([H])(C([H])([H])C([H])([H])C([H])([H])N([H])C(=O)N3C([H])([H])C([H])([H])C([H])([H])C([H])(n5nc(-c6c([H])c([H])c(Oc7c([H])c([H])c(F)c([H])c7F)c([H])c6[H])c(C(=O)N([H])[H])c5N([H])[H])C3([H])[H])C4([H])[H])c([H])c([H])c2C1([H])[H]

>  <smiles>  (8) 
[H]c1c([H])c([H])c2c(c1[H])C([H])([H])C([H])([H])C([H])([H])C2([H])N([H])C(=O)C1([H])N(C(=O)C([H])(N([H])C(=O)C([H])(N([H])C([H])([H])[H])C([H])([H])[H])C(C([H])([H])[H])(C([H])([H])[H])C([H])([H])[H])C([H])([H])c2c([H])c(OC([H])([H])C([H])([H])C34C([H])([H])C([H])([H])C3([H])C([H])([H])C([H])(C([H])([H])C([H])([H])C([H])([H])N([H])C(=O)N3C([H])([H])C([H])([H])C([H])([H])C([H])(n5nc(-c6c([H])c([H])c(Oc7c([H])c([H])c(F)c([H])c7F)c([H])c6[H])c(C(=O)N([H])[H])c5N([H])[H])C3([H])[H])C4([H])[H])c([H])c([H])c2C1([H])[H]

$$$$
8:0:0
     RDKit          3D

 91100  0  0  1  0  0  0  0  0999 V2000
  -28.7630  -23.7490   18.9080 C   0  0  0  0  0  2  0  0  0  0  0  0
  -29.3390  -22.3390   18.7380 C   0  0  0  0  0  2  0  0  0  0  0  0
  -29.3190  -22.8660   21.0840 C   0  0  0  0  0  2  0  0  0  0  0  0
  -30.3970  -20.5100   20.3050 C   0  0  0  0  0  2  0  0  0  0  0  0
  -28.3010  -20.5140   20.3200 C   0  0  0  0  0  2  0  0  0  0  0  0
  -29.2390  -24.2160   20.2820 C   0  0  0  0  0  3  0  0  0  0  0  0
  -29.3530  -19.5160   20.8510 C   0  0  0  0  0  3  0  0  0  0  0  0
  -29.3440  -21.6440   20.1070 C   0  0  2  0  0  0  0  0  0  0  0  0
  -28.3430  -25.3600   20.8570 C   0  0  0  0  0  0  0  0  0  0  0  0
  -27.6050  -25.1510   21.8240 O   0  0  0  0  0  0  0  0  0  0  0  0
  -28.3940  -26.5770   20.1630 O   0  0  0  0  0  0  0  0  0  0  0  0
  -24.6000  -31.8620   23.2120 C   0  0  0  0  0  0  0  0  0  0  0  0
  -27.2730  -27.3960   20.1600 C   0  0  0  0  0  0  0  0  0  0  0  0
  -23.4140  -30.4610   21.5560 C   0  0  0  0  0  3  0  0  0  0  0  0
  -24.8860  -28.9350   20.1340 C   0  0  0  0  0  0  0  0  0  0  0  0
  -25.9450  -30.8210   21.3820 C   0  0  0  0  0  2  0  0  0  0  0  0
  -26.0430  -29.4500   20.7360 C   0  0  0  0  0  0  0  0  0  0  0  0
  -27.2440  -28.6920   20.7430 C   0  0  0  0  0  3  0  0  0  0  0  0
  -26.1020  -26.9180   19.5320 C   0  0  0  0  0  3  0  0  0  0  0  0
  -24.9140  -27.6700   19.5250 C   0  0  0  0  0  3  0  0  0  0  0  0
  -23.6400  -29.7900   20.1740 C   0  0  0  0  0  2  0  0  0  0  0  0
  -24.6710  -31.0640   22.1080 N   0  0  0  0  0  0  0  0  0  0  0  0
  -23.5140  -32.1270   23.7440 O   0  0  0  0  0  0  0  0  0  0  0  0
  -22.7570  -29.4350   22.5090 C   0  0  0  0  0  0  0  0  0  0  0  0
  -21.4300  -29.2660   22.3890 N   0  0  0  0  0  0  0  0  0  0  0  0
  -23.4400  -28.7930   23.3130 O   0  0  0  0  0  0  0  0  0  0  0  0
  -20.9410  -29.8330   21.7110 H   0  0  0  0  0  0  0  0  0  0  0  0
  -18.0440  -28.1080   22.9100 C   0  0  0  0  0  0  0  0  0  0  0  0
  -20.6090  -28.3270   23.1540 C   0  0  0  0  0  3  0  0  0  0  0  0
  -20.6840  -26.9040   22.5520 C   0  0  0  0  0  2  0  0  0  0  0  0
  -19.5660  -26.6150   21.5470 C   0  0  0  0  0  2  0  0  0  0  0  0
  -18.1940  -26.7690   22.2100 C   0  0  0  0  0  2  0  0  0  0  0  0
  -19.1780  -28.8470   23.3390 C   0  0  0  0  0  0  0  0  0  0  0  0
  -18.9830  -30.1030   23.9540 C   0  0  0  0  0  3  0  0  0  0  0  0
  -17.6870  -30.6190   24.1450 C   0  0  0  0  0  3  0  0  0  0  0  0
  -16.5670  -29.8760   23.7320 C   0  0  0  0  0  3  0  0  0  0  0  0
  -16.7470  -28.6220   23.1200 C   0  0  0  0  0  3  0  0  0  0  0  0
  -25.8780  -32.4970   23.8430 C   0  0  0  0  0  3  0  0  0  0  0  0
  -26.3910  -31.7230   25.1200 C   0  0  1  0  0  0  0  0  0  0  0  0
  -25.2930  -31.4760   26.1800 C   0  0  0  0  0  1  0  0  0  0  0  0
  -26.9830  -30.3500   24.7250 C   0  0  0  0  0  1  0  0  0  0  0  0
  -27.5350  -32.5200   25.7900 C   0  0  0  0  0  1  0  0  0  0  0  0
  -25.5610  -33.8930   24.1750 N   0  0  0  0  0  0  0  0  0  0  0  0
  -25.8920  -34.9480   23.4180 C   0  0  0  0  0  0  0  0  0  0  0  0
  -26.5640  -34.8480   22.3880 O   0  0  0  0  0  0  0  0  0  0  0  0
  -24.9630  -34.0430   24.9750 H   0  0  0  0  0  0  0  0  0  0  0  0
  -24.1580  -36.7330   23.0590 C   0  0  0  0  0  1  0  0  0  0  0  0
  -25.3960  -36.3320   23.8760 C   0  0  0  0  0  3  0  0  0  0  0  0
  -27.5210  -37.2260   24.7220 C   0  0  0  0  0  1  0  0  0  0  0  0
  -26.4260  -37.3890   23.7690 N   0  0  0  0  0  0  0  0  0  0  0  0
  -26.0160  -38.3090   23.9120 H   0  0  0  0  0  0  0  0  0  0  0  0
  -29.2730  -18.0170   20.3990 C   0  0  0  0  0  2  0  0  0  0  0  0
  -30.2770  -17.0030   21.0470 C   0  0  0  0  0  2  0  0  0  0  0  0
  -30.6520  -14.5490   20.3840 C   0  0  0  0  0  0  0  0  0  0  0  0
  -30.3920  -12.3680   19.2400 C   0  0  0  0  0  2  0  0  0  0  0  0
  -29.4460  -12.5530   18.0340 C   0  0  0  0  0  2  0  0  0  0  0  0
  -27.9720  -12.4130   18.4640 C   0  0  0  0  0  2  0  0  0  0  0  0
  -27.6300  -13.2520   19.7260 C   0  0  0  0  0  3  0  0  0  0  0  0
  -28.6860  -13.0300   20.8310 C   0  0  0  0  0  2  0  0  0  0  0  0
  -30.0030  -13.3560   20.2590 N   0  0  0  0  0  0  0  0  0  0  0  0
  -31.7950  -14.7290   19.9530 O   0  0  0  0  0  0  0  0  0  0  0  0
  -29.9060  -15.5720   20.8650 N   0  0  0  0  0  0  0  0  0  0  0  0
  -28.9710  -15.3190   21.1510 H   0  0  0  0  0  0  0  0  0  0  0  0
  -25.2320  -13.8610   20.4320 C   0  0  0  0  0  0  0  0  0  0  0  0
  -24.1630  -13.0920   20.8070 C   0  0  0  0  0  0  0  0  0  0  0  0
  -24.6250  -11.7400   20.7870 C   0  0  0  0  0  0  0  0  0  0  0  0
  -26.2770  -12.9780   20.2060 N   0  0  0  0  0  0  0  0  0  0  0  0
  -25.9160  -11.6980   20.4780 N   0  0  0  0  0  0  0  0  0  0  0  0
  -23.8970  -10.4800   20.9890 C   0  0  0  0  0  0  0  0  0  0  0  0
  -24.3250   -9.5240   21.9360 C   0  0  0  0  0  3  0  0  0  0  0  0
  -23.5980   -8.3270   22.1230 C   0  0  0  0  0  3  0  0  0  0  0  0
  -22.4300   -8.0810   21.3630 C   0  0  0  0  0  0  0  0  0  0  0  0
  -22.0230   -9.0250   20.4050 C   0  0  0  0  0  3  0  0  0  0  0  0
  -22.7500  -10.2130   20.2170 C   0  0  0  0  0  3  0  0  0  0  0  0
  -21.6770   -6.9360   21.4590 O   0  0  0  0  0  0  0  0  0  0  0  0
  -21.6180   -6.2090   22.6210 C   0  0  0  0  0  0  0  0  0  0  0  0
  -21.1660   -6.7750   23.8330 C   0  0  0  0  0  3  0  0  0  0  0  0
  -21.0550   -5.9720   24.9860 C   0  0  0  0  0  3  0  0  0  0  0  0
  -21.3860   -4.6050   24.9280 C   0  0  0  0  0  0  0  0  0  0  0  0
  -21.8300   -4.0380   23.7210 C   0  0  0  0  0  3  0  0  0  0  0  0
  -21.9430   -4.8380   22.5690 C   0  0  0  0  0  0  0  0  0  0  0  0
  -22.3520   -4.2830   21.4030 F   0  0  0  0  0  0  0  0  0  0  0  0
  -21.2720   -3.8320   26.0330 F   0  0  0  0  0  0  0  0  0  0  0  0
  -22.7670  -13.5740   21.0760 C   0  0  0  0  0  0  0  0  0  0  0  0
  -22.0370  -12.8840   21.9470 N   0  0  0  0  0  0  0  0  0  0  0  0
  -22.3300  -14.5950   20.5490 O   0  0  0  0  0  0  0  0  0  0  0  0
  -22.3990  -12.0580   22.3980 H   0  0  0  0  0  0  0  0  0  0  0  0
  -21.1010  -13.1920   22.1710 H   0  0  0  0  0  0  0  0  0  0  0  0
  -25.3930  -15.2310   20.2460 N   0  0  0  0  0  0  0  0  0  0  0  0
  -24.6190  -15.8780   20.3520 H   0  0  0  0  0  0  0  0  0  0  0  0
  -26.2360  -15.6740   19.9050 H   0  0  0  0  0  0  0  0  0  0  0  0
  1  6  1  0
  2  1  1  0
  4  7  1  0
  5  7  1  0
  6  9  1  0
  6  3  1  0
  7 52  1  0
  8  2  1  6
  8  4  1  0
  8  5  1  0
  8  3  1  0
  9 10  2  0
 11  9  1  0
 12 23  2  0
 13 11  1  0
 13 18  1  0
 14 22  1  0
 14 24  1  0
 15 21  1  0
 15 17  1  0
 16 22  1  0
 17 18  2  0
 17 16  1  0
 19 13  2  0
 20 19  1  0
 20 15  2  0
 21 14  1  0
 22 12  1  0
 24 26  2  0
 25 24  1  0
 27 25  1  0
 28 37  2  0
 28 33  1  0
 29 25  1  0
 29 33  1  0
 30 29  1  0
 31 32  1  0
 31 30  1  0
 32 28  1  0
 33 34  2  0
 34 35  1  0
 36 35  2  0
 37 36  1  0
 38 12  1  0
 38 43  1  0
 38 39  1  0
 39 42  1  1
 39 40  1  0
 41 39  1  0
 43 46  1  0
 44 48  1  0
 44 43  1  0
 45 44  2  0
 48 47  1  0
 50 48  1  0
 50 51  1  0
 50 49  1  0
 52 53  1  0
 54 62  1  0
 55 60  1  0
 56 57  1  0
 56 55  1  0
 58 57  1  0
 58 67  1  0
 58 59  1  0
 60 54  1  0
 60 59  1  0
 61 54  2  0
 62 53  1  0
 62 63  1  0
 64 65  2  0
 65 84  1  0
 66 65  1  0
 66 69  1  0
 67 64  1  0
 67 68  1  0
 68 66  2  0
 69 70  1  0
 70 71  2  0
 72 75  1  0
 72 71  1  0
 73 72  2  0
 74 73  1  0
 74 69  2  0
 75 76  1  0
 76 77  1  0
 77 78  2  0
 79 78  1  0
 79 83  1  0
 80 79  2  0
 81 76  2  0
 81 80  1  0
 82 81  1  0
 84 85  1  0
 85 88  1  0
 85 87  1  0
 86 84  2  0
 89 90  1  0
 89 64  1  0
 91 89  1  0
M  ISO  4   9 101  11 101  54 100  62 100
M  END
>  <TORSDO>  (9) 
F 19

>  <SCORE>  (9) 
-14.307

>  <name>  (9) 
8

>  <ligand_id>  (9) 
8

>  <original_smiles>  (9) 
[H]c1c([H])c([H])c2c(c1[H])C([H])([H])C([H])([H])C([H])([H])C2([H])N([H])C(=O)C1([H])N(C(=O)C([H])(N([H])C(=O)C([H])(N([H])C([H])([H])[H])C([H])([H])[H])C(C([H])([H])[H])(C([H])([H])[H])C([H])([H])[H])C([H])([H])c2c([H])c(OC(=O)C3([H])C([H])([H])C([H])([H])C4(C3([H])[H])C([H])([H])C([H])(C([H])([H])C([H])([H])N([H])C(=O)N3C([H])([H])C([H])([H])C([H])([H])C([H])(n5nc(-c6c([H])c([H])c(Oc7c([H])c([H])c(F)c([H])c7F)c([H])c6[H])c(C(=O)N([H])[H])c5N([H])[H])C3([H])[H])C4([H])[H])c([H])c([H])c2C1([H])[H]

>  <smiles>  (9) 
[H]c1c([H])c([H])c2c(c1[H])C([H])([H])C([H])([H])C([H])([H])C2([H])N([H])C(=O)C1([H])N(C(=O)C([H])(N([H])C(=O)C([H])(N([H])C([H])([H])[H])C([H])([H])[H])C(C([H])([H])[H])(C([H])([H])[H])C([H])([H])[H])C([H])([H])c2c([H])c(OC(=O)C3([H])C([H])([H])C([H])([H])C4(C3([H])[H])C([H])([H])C([H])(C([H])([H])C([H])([H])N([H])C(=O)N3C([H])([H])C([H])([H])C([H])([H])C([H])(n5nc(-c6c([H])c([H])c(Oc7c([H])c([H])c(F)c([H])c7F)c([H])c6[H])c(C(=O)N([H])[H])c5N([H])[H])C3([H])[H])C4([H])[H])c([H])c([H])c2C1([H])[H]

$$$$
9:0:0
     RDKit          3D

 90 99  0  0  1  0  0  0  0  0999 V2000
  -29.7740  -22.0290   19.7060 C   0  0  0  0  0  0  0  0  0  0  0  0
  -30.8430  -22.3020   19.1530 O   0  0  0  0  0  0  0  0  0  0  0  0
  -31.0050  -15.2580   19.5310 C   0  0  0  0  0  0  0  0  0  0  0  0
  -30.7430  -12.9200   18.5550 C   0  0  0  0  0  2  0  0  0  0  0  0
  -29.6590  -12.8820   17.4520 C   0  0  0  0  0  2  0  0  0  0  0  0
  -28.2660  -12.6510   18.0670 C   0  0  0  0  0  2  0  0  0  0  0  0
  -28.0150  -13.5410   19.3150 C   0  0  0  0  0  3  0  0  0  0  0  0
  -29.2150  -13.5110   20.2860 C   0  0  0  0  0  2  0  0  0  0  0  0
  -30.3690  -14.0040   19.5200 N   0  0  0  0  0  0  0  0  0  0  0  0
  -32.1610  -15.2460   19.0840 O   0  0  0  0  0  0  0  0  0  0  0  0
  -29.1970  -20.3540   22.4650 C   0  0  0  0  0  2  0  0  0  0  0  0
  -30.5090  -19.6840   22.1540 C   0  0  0  0  0  2  0  0  0  0  0  0
  -30.1500  -19.2830   18.8340 C   0  0  0  0  0  2  0  0  0  0  0  0
  -28.6510  -18.2200   20.9650 C   0  0  0  0  0  2  0  0  0  0  0  0
  -30.9660  -17.9050   19.3010 C   0  0  0  0  0  2  0  0  0  0  0  0
  -29.4400  -16.8360   20.8650 C   0  0  0  0  0  2  0  0  0  0  0  0
  -29.4230  -20.3860   19.8130 C   0  0  0  0  0  3  0  0  0  0  0  0
  -29.3720  -19.6070   21.1520 C   0  0  1  0  0  0  0  0  0  0  0  0
  -30.3490  -16.5410   19.7190 N   0  0  0  0  0  0  0  0  0  0  0  0
  -25.7900  -14.0970   20.4530 C   0  0  0  0  0  0  0  0  0  0  0  0
  -24.7570  -13.3150   20.8940 C   0  0  0  0  0  0  0  0  0  0  0  0
  -25.1570  -11.9640   20.6590 C   0  0  0  0  0  0  0  0  0  0  0  0
  -26.7530  -13.2240   19.9760 N   0  0  0  0  0  0  0  0  0  0  0  0
  -26.3890  -11.9270   20.1620 N   0  0  0  0  0  0  0  0  0  0  0  0
  -24.4090  -10.7070   20.8250 C   0  0  0  0  0  0  0  0  0  0  0  0
  -24.8050   -9.7340   21.7690 C   0  0  0  0  0  3  0  0  0  0  0  0
  -24.0580   -8.5450   21.9320 C   0  0  0  0  0  3  0  0  0  0  0  0
  -22.8990   -8.3250   21.1490 C   0  0  0  0  0  0  0  0  0  0  0  0
  -22.5210   -9.2890   20.1970 C   0  0  0  0  0  3  0  0  0  0  0  0
  -23.2700  -10.4660   20.0340 C   0  0  0  0  0  3  0  0  0  0  0  0
  -22.1300   -7.1890   21.2190 O   0  0  0  0  0  0  0  0  0  0  0  0
  -21.8770   -6.5600   22.4120 C   0  0  0  0  0  0  0  0  0  0  0  0
  -21.2380   -7.2230   23.4820 C   0  0  0  0  0  3  0  0  0  0  0  0
  -20.9350   -6.5200   24.6650 C   0  0  0  0  0  3  0  0  0  0  0  0
  -21.2590   -5.1550   24.7750 C   0  0  0  0  0  0  0  0  0  0  0  0
  -21.8900   -4.4910   23.7090 C   0  0  0  0  0  3  0  0  0  0  0  0
  -22.1950   -5.1910   22.5290 C   0  0  0  0  0  0  0  0  0  0  0  0
  -22.7830   -4.5430   21.4940 F   0  0  0  0  0  0  0  0  0  0  0  0
  -20.9610   -4.4770   25.9080 F   0  0  0  0  0  0  0  0  0  0  0  0
  -23.4340  -13.8020   21.4070 C   0  0  0  0  0  0  0  0  0  0  0  0
  -22.8210  -13.0640   22.3250 N   0  0  0  0  0  0  0  0  0  0  0  0
  -22.9530  -14.8690   21.0270 O   0  0  0  0  0  0  0  0  0  0  0  0
  -23.2230  -12.2020   22.6570 H   0  0  0  0  0  0  0  0  0  0  0  0
  -21.9380  -13.3740   22.7030 H   0  0  0  0  0  0  0  0  0  0  0  0
  -25.9740  -15.4750   20.3900 N   0  0  0  0  0  0  0  0  0  0  0  0
  -25.2500  -16.1230   20.6780 H   0  0  0  0  0  0  0  0  0  0  0  0
  -26.7700  -15.9360   19.9690 H   0  0  0  0  0  0  0  0  0  0  0  0
  -28.9130  -23.3570   20.2400 C   0  0  0  0  0  2  0  0  0  0  0  0
  -28.6000  -24.8020   19.3880 C   0  0  0  0  0  2  0  0  0  0  0  0
  -28.5690  -26.3190   19.8360 O   0  0  0  0  0  0  0  0  0  0  0  0
  -24.6270  -31.7170   22.9660 C   0  0  0  0  0  0  0  0  0  0  0  0
  -27.4570  -27.2500   19.7520 C   0  0  0  0  0  0  0  0  0  0  0  0
  -23.4980  -30.2960   21.2970 C   0  0  0  0  0  3  0  0  0  0  0  0
  -25.0250  -28.8730   19.7880 C   0  0  0  0  0  0  0  0  0  0  0  0
  -26.0290  -30.7280   21.1070 C   0  0  0  0  0  2  0  0  0  0  0  0
  -26.1800  -29.3610   20.4110 C   0  0  0  0  0  0  0  0  0  0  0  0
  -27.3890  -28.5650   20.3800 C   0  0  0  0  0  3  0  0  0  0  0  0
  -26.2730  -26.8870   19.0660 C   0  0  0  0  0  3  0  0  0  0  0  0
  -25.0880  -27.6560   19.0930 C   0  0  0  0  0  3  0  0  0  0  0  0
  -23.7430  -29.6880   19.8870 C   0  0  0  0  0  2  0  0  0  0  0  0
  -24.7380  -30.9380   21.8440 N   0  0  0  0  0  0  0  0  0  0  0  0
  -23.5340  -31.9130   23.5150 O   0  0  0  0  0  0  0  0  0  0  0  0
  -22.9060  -29.2150   22.2350 C   0  0  0  0  0  0  0  0  0  0  0  0
  -21.5900  -28.9590   22.1270 N   0  0  0  0  0  0  0  0  0  0  0  0
  -23.6320  -28.6100   23.0290 O   0  0  0  0  0  0  0  0  0  0  0  0
  -21.0560  -29.5120   21.4710 H   0  0  0  0  0  0  0  0  0  0  0  0
  -18.3050  -27.5210   22.6520 C   0  0  0  0  0  0  0  0  0  0  0  0
  -20.8460  -27.9430   22.8780 C   0  0  0  0  0  3  0  0  0  0  0  0
  -21.0270  -26.5420   22.2510 C   0  0  0  0  0  2  0  0  0  0  0  0
  -19.9270  -26.1820   21.2460 C   0  0  0  0  0  2  0  0  0  0  0  0
  -18.5540  -26.2110   21.9230 C   0  0  0  0  0  2  0  0  0  0  0  0
  -19.3810  -28.3420   23.0850 C   0  0  0  0  0  0  0  0  0  0  0  0
  -19.0910  -29.5630   23.7290 C   0  0  0  0  0  3  0  0  0  0  0  0
  -17.7590  -29.9680   23.9400 C   0  0  0  0  0  3  0  0  0  0  0  0
  -16.6990  -29.1470   23.5160 C   0  0  0  0  0  3  0  0  0  0  0  0
  -16.9730  -27.9240   22.8790 C   0  0  0  0  0  3  0  0  0  0  0  0
  -25.8700  -32.4170   23.5950 C   0  0  0  0  0  3  0  0  0  0  0  0
  -25.4600  -33.7690   24.0080 N   0  0  0  0  0  0  0  0  0  0  0  0
  -25.7050  -34.8880   23.3160 C   0  0  0  0  0  0  0  0  0  0  0  0
  -26.3660  -34.8970   22.2730 O   0  0  0  0  0  0  0  0  0  0  0  0
  -24.8630  -33.8290   24.8200 H   0  0  0  0  0  0  0  0  0  0  0  0
  -23.8570  -36.5850   23.0790 C   0  0  0  0  0  1  0  0  0  0  0  0
  -25.1260  -36.2090   23.8620 C   0  0  0  0  0  3  0  0  0  0  0  0
  -27.1920  -37.1890   24.7570 C   0  0  0  0  0  1  0  0  0  0  0  0
  -26.0830  -37.3350   23.8190 N   0  0  0  0  0  0  0  0  0  0  0  0
  -25.6130  -38.2160   24.0170 H   0  0  0  0  0  0  0  0  0  0  0  0
  -26.4720  -31.6270   24.8230 C   0  0  1  0  0  0  0  0  0  0  0  0
  -25.4270  -31.2480   25.8980 C   0  0  0  0  0  1  0  0  0  0  0  0
  -27.1560  -30.3210   24.3550 C   0  0  0  0  0  1  0  0  0  0  0  0
  -27.5680  -32.4800   25.5050 C   0  0  0  0  0  1  0  0  0  0  0  0
  1 48  1  0
  2  1  2  0
  3 19  1  0
  4  9  1  0
  5  6  1  0
  5  4  1  0
  7  6  1  0
  7 23  1  0
  7  8  1  0
  9  3  1  0
  9  8  1  0
 10  3  2  0
 12 11  1  0
 13 15  1  0
 13 17  1  0
 18 14  1  6
 15 19  1  0
 16 14  1  0
 17  1  1  0
 17 18  1  0
 18 12  1  0
 18 11  1  0
 19 16  1  0
 20 21  2  0
 21 40  1  0
 22 25  1  0
 22 21  1  0
 23 24  1  0
 23 20  1  0
 24 22  2  0
 25 26  1  0
 26 27  2  0
 28 31  1  0
 28 27  1  0
 29 28  2  0
 30 29  1  0
 30 25  2  0
 31 32  1  0
 32 37  2  0
 32 33  1  0
 33 34  2  0
 34 35  1  0
 35 39  1  0
 36 35  2  0
 37 36  1  0
 38 37  1  0
 40 41  1  0
 41 43  1  0
 41 44  1  0
 42 40  2  0
 45 20  1  0
 45 46  1  0
 47 45  1  0
 49 50  1  0
 49 48  1  0
 51 62  2  0
 52 50  1  0
 52 57  1  0
 53 61  1  0
 53 63  1  0
 54 60  1  0
 54 56  1  0
 55 61  1  0
 56 55  1  0
 57 56  2  0
 58 59  1  0
 58 52  2  0
 59 54  2  0
 60 53  1  0
 61 51  1  0
 63 65  2  0
 64 63  1  0
 66 64  1  0
 67 76  2  0
 67 72  1  0
 68 64  1  0
 68 72  1  0
 69 68  1  0
 70 71  1  0
 70 69  1  0
 71 67  1  0
 72 73  2  0
 73 74  1  0
 75 74  2  0
 76 75  1  0
 77 51  1  0
 77 78  1  0
 77 87  1  0
 78 81  1  0
 79 83  1  0
 79 78  1  0
 80 79  2  0
 83 82  1  0
 85 83  1  0
 85 86  1  0
 85 84  1  0
 87 90  1  1
 87 88  1  0
 89 87  1  0
M  ISO  4   3 100  19 100  49 101  50 101
M  END
>  <TORSDO>  (10) 
F 18

>  <SCORE>  (10) 
-11.498

>  <name>  (10) 
9

>  <ligand_id>  (10) 
9

>  <original_smiles>  (10) 
[H]c1c([H])c([H])c2c(c1[H])C([H])([H])C([H])([H])C([H])([H])C2([H])N([H])C(=O)C1([H])N(C(=O)C([H])(N([H])C(=O)C([H])(N([H])C([H])([H])[H])C([H])([H])[H])C(C([H])([H])[H])(C([H])([H])[H])C([H])([H])[H])C([H])([H])c2c([H])c(OC([H])([H])C([H])([H])C(=O)C3([H])C([H])([H])C([H])([H])N(C(=O)N4C([H])([H])C([H])([H])C([H])([H])C([H])(n5nc(-c6c([H])c([H])c(Oc7c([H])c([H])c(F)c([H])c7F)c([H])c6[H])c(C(=O)N([H])[H])c5N([H])[H])C4([H])[H])C([H])([H])C([H])([H])C34C([H])([H])C4([H])[H])c([H])c([H])c2C1([H])[H]

>  <smiles>  (10) 
[H]c1c([H])c([H])c2c(c1[H])C([H])([H])C([H])([H])C([H])([H])C2([H])N([H])C(=O)C1([H])N(C(=O)C([H])(N([H])C(=O)C([H])(N([H])C([H])([H])[H])C([H])([H])[H])C(C([H])([H])[H])(C([H])([H])[H])C([H])([H])[H])C([H])([H])c2c([H])c(OC([H])([H])C([H])([H])C(=O)C3([H])C([H])([H])C([H])([H])N(C(=O)N4C([H])([H])C([H])([H])C([H])([H])C([H])(n5nc(-c6c([H])c([H])c(Oc7c([H])c([H])c(F)c([H])c7F)c([H])c6[H])c(C(=O)N([H])[H])c5N([H])[H])C4([H])[H])C([H])([H])C([H])([H])C34C([H])([H])C4([H])[H])c([H])c([H])c2C1([H])[H]

$$$$
11:0:0
     RDKit          3D

 96105  0  0  1  0  0  0  0  0999 V2000
  -30.1490  -21.0870   23.6250 C   0  0  0  0  0  3  0  0  0  0  0  0
  -30.2550  -19.6890   23.5170 C   0  0  0  0  0  3  0  0  0  0  0  0
  -29.5260  -19.8140   21.1960 C   0  0  0  0  0  3  0  0  0  0  0  0
  -29.7220  -21.8550   22.5230 C   0  0  0  0  0  0  0  0  0  0  0  0
  -29.4020  -21.2160   21.3070 C   0  0  0  0  0  0  0  0  0  0  0  0
  -29.9500  -19.0450   22.2990 C   0  0  0  0  0  0  0  0  0  0  0  0
  -29.6160  -23.3110   22.6390 C   0  0  0  0  0  3  0  0  0  0  0  0
  -29.3380  -24.1210   21.5960 C   0  0  0  0  0  0  0  0  0  0  0  0
  -28.8620  -22.0250   20.1370 C   0  0  0  0  0  3  0  0  0  0  0  0
  -29.1400  -23.5450   20.1970 C   0  0  0  0  0  3  0  0  0  0  0  0
  -29.6300  -26.1930   23.0940 C   0  0  0  0  0  1  0  0  0  0  0  0
  -29.2090  -25.6490   21.7100 C   0  0  0  0  0  3  0  0  0  0  0  0
  -29.9540  -26.3840   20.5640 C   0  0  0  0  0  2  0  0  0  0  0  0
  -29.7700  -27.8010   20.6020 O   0  0  0  0  0  0  0  0  0  0  0  0
  -24.9770  -31.9790   23.7310 C   0  0  0  0  0  0  0  0  0  0  0  0
  -28.4920  -28.3070   20.5310 C   0  0  0  0  0  0  0  0  0  0  0  0
  -24.1350  -30.6350   21.8300 C   0  0  0  0  0  3  0  0  0  0  0  0
  -25.9150  -29.4610   20.4320 C   0  0  0  0  0  0  0  0  0  0  0  0
  -26.5910  -31.3340   21.9480 C   0  0  0  0  0  2  0  0  0  0  0  0
  -26.9250  -30.0680   21.1880 C   0  0  0  0  0  0  0  0  0  0  0  0
  -28.2150  -29.5010   21.2300 C   0  0  0  0  0  3  0  0  0  0  0  0
  -27.4620  -27.6980   19.7790 C   0  0  0  0  0  3  0  0  0  0  0  0
  -26.1770  -28.2730   19.7260 C   0  0  0  0  0  3  0  0  0  0  0  0
  -24.5680  -30.1460   20.4220 C   0  0  0  0  0  2  0  0  0  0  0  0
  -25.2450  -31.3250   22.5650 N   0  0  0  0  0  0  0  0  0  0  0  0
  -23.8220  -32.0500   24.1720 O   0  0  0  0  0  0  0  0  0  0  0  0
  -23.5410  -29.4380   22.6050 C   0  0  0  0  0  0  0  0  0  0  0  0
  -22.2590  -29.1360   22.3430 N   0  0  0  0  0  0  0  0  0  0  0  0
  -24.2310  -28.7910   23.3950 O   0  0  0  0  0  0  0  0  0  0  0  0
  -21.7580  -29.7210   21.6890 H   0  0  0  0  0  0  0  0  0  0  0  0
  -19.0030  -27.5730   22.4330 C   0  0  0  0  0  0  0  0  0  0  0  0
  -21.5000  -28.0280   22.9220 C   0  0  0  0  0  3  0  0  0  0  0  0
  -21.7830  -26.7070   22.1700 C   0  0  0  0  0  2  0  0  0  0  0  0
  -20.7820  -26.4250   21.0460 C   0  0  0  0  0  2  0  0  0  0  0  0
  -19.3570  -26.3510   21.6020 C   0  0  0  0  0  2  0  0  0  0  0  0
  -20.0110  -28.3680   23.0400 C   0  0  0  0  0  0  0  0  0  0  0  0
  -19.6290  -29.5140   23.7720 C   0  0  0  0  0  3  0  0  0  0  0  0
  -18.2740  -29.8650   23.9060 C   0  0  0  0  0  3  0  0  0  0  0  0
  -17.2800  -29.0640   23.3170 C   0  0  0  0  0  3  0  0  0  0  0  0
  -17.6450  -27.9200   22.5870 C   0  0  0  0  0  3  0  0  0  0  0  0
  -26.1010  -32.6870   24.5510 C   0  0  0  0  0  3  0  0  0  0  0  0
  -25.6570  -34.0620   24.8110 N   0  0  0  0  0  0  0  0  0  0  0  0
  -26.0360  -35.1310   24.0970 C   0  0  0  0  0  0  0  0  0  0  0  0
  -26.8640  -35.0670   23.1850 O   0  0  0  0  0  0  0  0  0  0  0  0
  -24.9330  -34.1790   25.5050 H   0  0  0  0  0  0  0  0  0  0  0  0
  -24.2690  -36.8020   23.4570 C   0  0  0  0  0  1  0  0  0  0  0  0
  -25.3950  -36.4850   24.4530 C   0  0  0  0  0  3  0  0  0  0  0  0
  -27.3290  -37.5060   25.5710 C   0  0  0  0  0  1  0  0  0  0  0  0
  -26.3620  -37.6050   24.4800 N   0  0  0  0  0  0  0  0  0  0  0  0
  -25.8790  -38.4960   24.5660 H   0  0  0  0  0  0  0  0  0  0  0  0
  -26.4470  -31.9460   25.9010 C   0  0  1  0  0  0  0  0  0  0  0  0
  -25.2050  -31.5840   26.7490 C   0  0  0  0  0  1  0  0  0  0  0  0
  -27.2260  -30.6390   25.6210 C   0  0  0  0  0  1  0  0  0  0  0  0
  -27.3720  -32.8360   26.7660 C   0  0  0  0  0  1  0  0  0  0  0  0
  -30.0460  -17.5290   22.1980 C   0  0  0  0  0  2  0  0  0  0  0  0
  -32.0420  -15.9840   22.5440 C   0  0  0  0  0  1  0  0  0  0  0  0
  -31.3930  -17.0340   21.6250 C   0  0  0  0  0  3  0  0  0  0  0  0
  -31.2780  -16.5330   20.1700 C   0  0  0  0  0  2  0  0  0  0  0  0
  -30.9600  -14.2610   19.2120 C   0  0  0  0  0  0  0  0  0  0  0  0
  -30.5330  -11.9430   18.4800 C   0  0  0  0  0  2  0  0  0  0  0  0
  -29.4170  -11.8830   17.4200 C   0  0  0  0  0  2  0  0  0  0  0  0
  -28.0330  -11.8020   18.0910 C   0  0  0  0  0  2  0  0  0  0  0  0
  -27.8420  -12.8830   19.1870 C   0  0  0  0  0  3  0  0  0  0  0  0
  -29.0490  -12.9070   20.1510 C   0  0  0  0  0  2  0  0  0  0  0  0
  -30.2770  -13.0960   19.3560 N   0  0  0  0  0  0  0  0  0  0  0  0
  -31.8490  -14.4290   18.3710 O   0  0  0  0  0  0  0  0  0  0  0  0
  -30.6350  -15.2220   20.0830 N   0  0  0  0  0  0  0  0  0  0  0  0
  -29.9120  -15.0080   20.7510 H   0  0  0  0  0  0  0  0  0  0  0  0
  -25.7060  -13.6400   20.4140 C   0  0  0  0  0  0  0  0  0  0  0  0
  -24.6500  -12.9370   20.9290 C   0  0  0  0  0  0  0  0  0  0  0  0
  -24.9420  -11.5590   20.6960 C   0  0  0  0  0  0  0  0  0  0  0  0
  -26.5830  -12.6930   19.9050 N   0  0  0  0  0  0  0  0  0  0  0  0
  -26.1350  -11.4300   20.1280 N   0  0  0  0  0  0  0  0  0  0  0  0
  -24.1320  -10.3570   20.9270 C   0  0  0  0  0  0  0  0  0  0  0  0
  -24.5920   -9.3020   21.7460 C   0  0  0  0  0  3  0  0  0  0  0  0
  -23.7880   -8.1640   21.9680 C   0  0  0  0  0  3  0  0  0  0  0  0
  -22.5070   -8.0730   21.3730 C   0  0  0  0  0  0  0  0  0  0  0  0
  -22.0620   -9.1150   20.5400 C   0  0  0  0  0  3  0  0  0  0  0  0
  -22.8670  -10.2460   20.3160 C   0  0  0  0  0  3  0  0  0  0  0  0
  -21.6660   -6.9960   21.5120 O   0  0  0  0  0  0  0  0  0  0  0  0
  -21.6180   -6.2640   22.6720 C   0  0  0  0  0  0  0  0  0  0  0  0
  -21.3160   -6.8600   23.9160 C   0  0  0  0  0  3  0  0  0  0  0  0
  -21.2090   -6.0610   25.0710 C   0  0  0  0  0  3  0  0  0  0  0  0
  -21.3930   -4.6690   24.9850 C   0  0  0  0  0  0  0  0  0  0  0  0
  -21.6880   -4.0720   23.7460 C   0  0  0  0  0  3  0  0  0  0  0  0
  -21.7970   -4.8690   22.5920 C   0  0  0  0  0  0  0  0  0  0  0  0
  -22.0610   -4.2860   21.3970 F   0  0  0  0  0  0  0  0  0  0  0  0
  -21.2820   -3.8990   26.0930 F   0  0  0  0  0  0  0  0  0  0  0  0
  -23.3960  -13.5110   21.5210 C   0  0  0  0  0  0  0  0  0  0  0  0
  -22.8010  -12.8190   22.4860 N   0  0  0  0  0  0  0  0  0  0  0  0
  -22.9620  -14.6060   21.1620 O   0  0  0  0  0  0  0  0  0  0  0  0
  -23.1680  -11.9310   22.7950 H   0  0  0  0  0  0  0  0  0  0  0  0
  -21.9650  -13.1820   22.9230 H   0  0  0  0  0  0  0  0  0  0  0  0
  -25.9880  -14.9990   20.3170 N   0  0  0  0  0  0  0  0  0  0  0  0
  -25.3400  -15.7120   20.6340 H   0  0  0  0  0  0  0  0  0  0  0  0
  -26.8090  -15.3830   19.8670 H   0  0  0  0  0  0  0  0  0  0  0  0
  2  1  1  0
  3  5  2  0
  3  6  1  0
  4  7  1  0
  4  1  2  0
  5  4  1  0
  6  2  2  0
  8 12  1  0
  8  7  2  0
  9 10  2  0
  9  5  1  0
 10  8  1  0
 12 11  1  0
 13 14  1  0
 13 12  1  0
 15 26  2  0
 16 14  1  0
 16 21  1  0
 17 25  1  0
 17 27  1  0
 18 20  1  0
 19 25  1  0
 20 21  2  0
 20 19  1  0
 22 16  2  0
 23 22  1  0
 23 18  2  0
 24 18  1  0
 24 17  1  0
 25 15  1  0
 27 29  2  0
 28 27  1  0
 30 28  1  0
 31 40  2  0
 31 36  1  0
 32 28  1  0
 32 36  1  0
 33 32  1  0
 34 35  1  0
 34 33  1  0
 35 31  1  0
 36 37  2  0
 37 38  1  0
 39 38  2  0
 40 39  1  0
 41 15  1  0
 41 42  1  0
 41 51  1  0
 42 45  1  0
 43 47  1  0
 43 42  1  0
 44 43  2  0
 47 46  1  0
 47 49  1  0
 49 50  1  0
 49 48  1  0
 51 52  1  1
 51 54  1  0
 53 51  1  0
 55  6  1  0
 57 55  1  0
 57 56  1  0
 58 57  1  0
 59 65  1  0
 59 67  1  0
 60 65  1  0
 61 62  1  0
 61 60  1  0
 63 62  1  0
 63 72  1  0
 63 64  1  0
 65 64  1  0
 66 59  2  0
 67 58  1  0
 67 68  1  0
 69 70  2  0
 70 89  1  0
 71 74  1  0
 71 70  1  0
 72 73  1  0
 72 69  1  0
 73 71  2  0
 74 75  1  0
 75 76  2  0
 77 80  1  0
 77 76  1  0
 78 77  2  0
 79 78  1  0
 79 74  2  0
 80 81  1  0
 81 82  1  0
 82 83  2  0
 84 83  1  0
 84 88  1  0
 85 84  2  0
 86 81  2  0
 86 85  1  0
 87 86  1  0
 89 90  1  0
 90 92  1  0
 90 93  1  0
 91 89  2  0
 94 69  1  0
 94 95  1  0
 96 94  1  0
M  ISO  4  13 101  14 101  59 100  67 100
M  END
>  <TORSDO>  (11) 
F 21

>  <SCORE>  (11) 
-6.622

>  <name>  (11) 
11

>  <ligand_id>  (11) 
11

>  <original_smiles>  (11) 
[H]C1=C(C([H])(C([H])([H])[H])C([H])([H])Oc2c([H])c([H])c3c(c2[H])C([H])([H])N(C(=O)C([H])(N([H])C(=O)C([H])(N([H])C([H])([H])[H])C([H])([H])[H])C(C([H])([H])[H])(C([H])([H])[H])C([H])([H])[H])C([H])(C(=O)N([H])C2([H])c4c([H])c([H])c([H])c([H])c4C([H])([H])C([H])([H])C2([H])[H])C3([H])[H])C([H])([H])C([H])([H])c2c([H])c(C([H])([H])C([H])(C([H])([H])[H])C([H])([H])N([H])C(=O)N3C([H])([H])C([H])([H])C([H])([H])C([H])(n4nc(-c5c([H])c([H])c(Oc6c([H])c([H])c(F)c([H])c6F)c([H])c5[H])c(C(=O)N([H])[H])c4N([H])[H])C3([H])[H])c([H])c([H])c21

>  <smiles>  (11) 
[H]C1=C(C([H])(C([H])([H])[H])C([H])([H])Oc2c([H])c([H])c3c(c2[H])C([H])([H])N(C(=O)C([H])(N([H])C(=O)C([H])(N([H])C([H])([H])[H])C([H])([H])[H])C(C([H])([H])[H])(C([H])([H])[H])C([H])([H])[H])C([H])(C(=O)N([H])C2([H])c4c([H])c([H])c([H])c([H])c4C([H])([H])C([H])([H])C2([H])[H])C3([H])[H])C([H])([H])C([H])([H])c2c([H])c(C([H])([H])C([H])(C([H])([H])[H])C([H])([H])N([H])C(=O)N3C([H])([H])C([H])([H])C([H])([H])C([H])(n4nc(-c5c([H])c([H])c(Oc6c([H])c([H])c(F)c([H])c6F)c([H])c5[H])c(C(=O)N([H])[H])c4N([H])[H])C3([H])[H])c([H])c([H])c21

$$$$
12:0:0
     RDKit          3D

 95104  0  0  1  0  0  0  0  0999 V2000
  -29.4270  -19.8920   18.6560 C   0  0  0  0  0  2  0  0  0  0  0  0
  -30.1990  -22.3900   18.7890 C   0  0  0  0  0  2  0  0  0  0  0  0
  -30.1630  -20.6290   20.8400 C   0  0  0  0  0  2  0  0  0  0  0  0
  -29.1000  -21.3670   18.8030 C   0  0  0  0  0  3  0  0  0  0  0  0
  -30.5210  -19.6080   19.7110 C   0  0  0  0  0  3  0  0  0  0  0  0
  -29.6270  -21.8870   20.1180 C   0  0  2  0  0  0  0  0  0  0  0  0
  -28.8650  -22.9010   21.0070 C   0  0  0  0  0  2  0  0  0  0  0  0
  -29.1610  -24.4160   20.7990 C   0  0  0  0  0  0  0  0  0  0  0  0
  -30.2440  -24.9010   21.1410 O   0  0  0  0  0  0  0  0  0  0  0  0
  -28.0560  -25.2890   20.1610 C   0  0  0  0  0  2  0  0  0  0  0  0
  -28.2980  -26.7230   20.2390 O   0  0  0  0  0  0  0  0  0  0  0  0
  -24.5480  -31.9750   23.2920 C   0  0  0  0  0  0  0  0  0  0  0  0
  -27.1590  -27.5150   20.1830 C   0  0  0  0  0  0  0  0  0  0  0  0
  -23.3330  -30.5820   21.6510 C   0  0  0  0  0  3  0  0  0  0  0  0
  -24.7760  -29.0590   20.2040 C   0  0  0  0  0  0  0  0  0  0  0  0
  -25.8620  -30.9360   21.4400 C   0  0  0  0  0  2  0  0  0  0  0  0
  -25.9430  -29.5690   20.7860 C   0  0  0  0  0  0  0  0  0  0  0  0
  -27.1400  -28.8080   20.7680 C   0  0  0  0  0  3  0  0  0  0  0  0
  -25.9700  -27.0410   19.5770 C   0  0  0  0  0  3  0  0  0  0  0  0
  -24.7860  -27.7960   19.5960 C   0  0  0  0  0  3  0  0  0  0  0  0
  -23.5330  -29.9200   20.2650 C   0  0  0  0  0  2  0  0  0  0  0  0
  -24.5990  -31.1790   22.1860 N   0  0  0  0  0  0  0  0  0  0  0  0
  -23.4690  -32.2420   23.8410 O   0  0  0  0  0  0  0  0  0  0  0  0
  -22.6910  -29.5510   22.6090 C   0  0  0  0  0  0  0  0  0  0  0  0
  -21.3690  -29.3490   22.4740 N   0  0  0  0  0  0  0  0  0  0  0  0
  -23.3780  -28.9370   23.4280 O   0  0  0  0  0  0  0  0  0  0  0  0
  -20.8740  -29.8970   21.7850 H   0  0  0  0  0  0  0  0  0  0  0  0
  -18.0110  -28.1010   22.9560 C   0  0  0  0  0  0  0  0  0  0  0  0
  -20.5630  -28.4000   23.2420 C   0  0  0  0  0  3  0  0  0  0  0  0
  -20.6910  -26.9680   22.6730 C   0  0  0  0  0  2  0  0  0  0  0  0
  -19.6010  -26.6250   21.6530 C   0  0  0  0  0  2  0  0  0  0  0  0
  -18.2130  -26.7520   22.2860 C   0  0  0  0  0  2  0  0  0  0  0  0
  -19.1150  -28.8820   23.3890 C   0  0  0  0  0  0  0  0  0  0  0  0
  -18.8730  -30.1440   23.9750 C   0  0  0  0  0  3  0  0  0  0  0  0
  -17.5590  -30.6270   24.1280 C   0  0  0  0  0  3  0  0  0  0  0  0
  -16.4710  -29.8430   23.7110 C   0  0  0  0  0  3  0  0  0  0  0  0
  -16.6960  -28.5820   23.1310 C   0  0  0  0  0  3  0  0  0  0  0  0
  -25.8370  -32.6050   23.9040 C   0  0  0  0  0  3  0  0  0  0  0  0
  -25.5360  -34.0090   24.2170 N   0  0  0  0  0  0  0  0  0  0  0  0
  -25.8790  -35.0490   23.4470 C   0  0  0  0  0  0  0  0  0  0  0  0
  -26.5540  -34.9300   22.4210 O   0  0  0  0  0  0  0  0  0  0  0  0
  -24.9390  -34.1780   25.0140 H   0  0  0  0  0  0  0  0  0  0  0  0
  -24.1790  -36.8590   23.0420 C   0  0  0  0  0  1  0  0  0  0  0  0
  -25.3960  -36.4460   23.8850 C   0  0  0  0  0  3  0  0  0  0  0  0
  -27.5170  -37.3150   24.7650 C   0  0  0  0  0  1  0  0  0  0  0  0
  -26.4420  -37.4870   23.7910 N   0  0  0  0  0  0  0  0  0  0  0  0
  -26.0420  -38.4120   23.9210 H   0  0  0  0  0  0  0  0  0  0  0  0
  -26.3500  -31.8470   25.1900 C   0  0  1  0  0  0  0  0  0  0  0  0
  -25.2550  -31.6200   26.2570 C   0  0  0  0  0  1  0  0  0  0  0  0
  -26.9340  -30.4650   24.8120 C   0  0  0  0  0  1  0  0  0  0  0  0
  -27.4990  -32.6470   25.8470 C   0  0  0  0  0  1  0  0  0  0  0  0
  -30.9580  -18.0960   19.9920 C   0  0  1  0  0  0  0  0  0  0  0  0
  -30.9350  -17.0500   17.5430 C   0  0  0  0  0  1  0  0  0  0  0  0
  -31.7480  -17.6220   18.7210 C   0  0  0  0  0  2  0  0  0  0  0  0
  -33.1870  -18.9270   21.1260 C   0  0  0  0  0  1  0  0  0  0  0  0
  -31.9120  -18.0710   21.2230 C   0  0  0  0  0  2  0  0  0  0  0  0
  -29.7450  -17.1350   20.3180 C   0  0  0  0  0  2  0  0  0  0  0  0
  -30.7050  -14.6760   20.3670 C   0  0  0  0  0  0  0  0  0  0  0  0
  -30.4600  -12.4680   19.2900 C   0  0  0  0  0  2  0  0  0  0  0  0
  -29.5060  -12.6480   18.0890 C   0  0  0  0  0  2  0  0  0  0  0  0
  -28.0340  -12.5000   18.5280 C   0  0  0  0  0  2  0  0  0  0  0  0
  -27.6980  -13.3370   19.7910 C   0  0  0  0  0  3  0  0  0  0  0  0
  -28.7690  -13.1380   20.8920 C   0  0  0  0  0  2  0  0  0  0  0  0
  -30.0800  -13.4640   20.3090 N   0  0  0  0  0  0  0  0  0  0  0  0
  -31.8440  -14.8310   19.9330 O   0  0  0  0  0  0  0  0  0  0  0  0
  -29.9060  -15.7040   20.7430 N   0  0  0  0  0  0  0  0  0  0  0  0
  -29.0740  -15.3550   21.1950 H   0  0  0  0  0  0  0  0  0  0  0  0
  -25.3050  -13.9210   20.5350 C   0  0  0  0  0  0  0  0  0  0  0  0
  -24.2460  -13.1380   20.9090 C   0  0  0  0  0  0  0  0  0  0  0  0
  -24.7160  -11.7900   20.8580 C   0  0  0  0  0  0  0  0  0  0  0  0
  -26.3520  -13.0500   20.2840 N   0  0  0  0  0  0  0  0  0  0  0  0
  -26.0020  -11.7620   20.5350 N   0  0  0  0  0  0  0  0  0  0  0  0
  -23.9980  -10.5210   21.0430 C   0  0  0  0  0  0  0  0  0  0  0  0
  -24.4350   -9.5540   21.9750 C   0  0  0  0  0  3  0  0  0  0  0  0
  -23.7180   -8.3510   22.1460 C   0  0  0  0  0  3  0  0  0  0  0  0
  -22.5500   -8.1050   21.3870 C   0  0  0  0  0  0  0  0  0  0  0  0
  -22.1320   -9.0590   20.4430 C   0  0  0  0  0  3  0  0  0  0  0  0
  -22.8510  -10.2540   20.2690 C   0  0  0  0  0  3  0  0  0  0  0  0
  -21.8050   -6.9550   21.4700 O   0  0  0  0  0  0  0  0  0  0  0  0
  -21.7350   -6.2230   22.6300 C   0  0  0  0  0  0  0  0  0  0  0  0
  -21.2310   -6.7750   23.8280 C   0  0  0  0  0  3  0  0  0  0  0  0
  -21.1120   -5.9680   24.9770 C   0  0  0  0  0  3  0  0  0  0  0  0
  -21.4850   -4.6110   24.9290 C   0  0  0  0  0  0  0  0  0  0  0  0
  -21.9810   -4.0610   23.7340 C   0  0  0  0  0  3  0  0  0  0  0  0
  -22.1030   -4.8640   22.5870 C   0  0  0  0  0  0  0  0  0  0  0  0
  -22.5620   -4.3220   21.4330 F   0  0  0  0  0  0  0  0  0  0  0  0
  -21.3640   -3.8340   26.0290 F   0  0  0  0  0  0  0  0  0  0  0  0
  -22.8500  -13.6020   21.2050 C   0  0  0  0  0  0  0  0  0  0  0  0
  -22.1390  -12.8920   22.0750 N   0  0  0  0  0  0  0  0  0  0  0  0
  -22.3970  -14.6310   20.7040 O   0  0  0  0  0  0  0  0  0  0  0  0
  -22.5160  -12.0580   22.5000 H   0  0  0  0  0  0  0  0  0  0  0  0
  -21.2030  -13.1870   22.3180 H   0  0  0  0  0  0  0  0  0  0  0  0
  -25.4560  -15.2950   20.3700 N   0  0  0  0  0  0  0  0  0  0  0  0
  -24.6800  -15.9390   20.4780 H   0  0  0  0  0  0  0  0  0  0  0  0
  -26.2990  -15.7460   20.0370 H   0  0  0  0  0  0  0  0  0  0  0  0
  1  5  1  0
  2  4  1  0
  2  6  1  0
  4  1  1  0
  4  6  1  0
  5 52  1  0
  5  3  1  0
  6  3  1  0
  6  7  1  1
  8  7  1  0
  8  9  2  0
 10 11  1  0
 10  8  1  0
 12 23  2  0
 13 11  1  0
 13 18  1  0
 14 22  1  0
 14 24  1  0
 15 21  1  0
 15 17  1  0
 16 22  1  0
 17 16  1  0
 18 17  2  0
 19 20  1  0
 19 13  2  0
 20 15  2  0
 21 14  1  0
 22 12  1  0
 24 26  2  0
 25 24  1  0
 27 25  1  0
 28 37  2  0
 28 33  1  0
 29 25  1  0
 29 33  1  0
 30 29  1  0
 31 32  1  0
 31 30  1  0
 32 28  1  0
 33 34  2  0
 34 35  1  0
 36 35  2  0
 37 36  1  0
 38 12  1  0
 38 39  1  0
 38 48  1  0
 39 42  1  0
 40 44  1  0
 40 39  1  0
 41 40  2  0
 44 43  1  0
 46 44  1  0
 46 47  1  0
 46 45  1  0
 48 51  1  1
 48 49  1  0
 50 48  1  0
 52 57  1  1
 52 56  1  0
 53 54  1  0
 54 52  1  0
 55 56  1  0
 57 66  1  0
 58 66  1  0
 59 64  1  0
 60 61  1  0
 60 59  1  0
 62 61  1  0
 62 71  1  0
 62 63  1  0
 64 58  1  0
 64 63  1  0
 65 58  2  0
 66 67  1  0
 68 69  2  0
 69 88  1  0
 70 69  1  0
 70 73  1  0
 71 72  1  0
 71 68  1  0
 72 70  2  0
 73 74  1  0
 74 75  2  0
 76 79  1  0
 76 75  1  0
 77 76  2  0
 78 77  1  0
 78 73  2  0
 79 80  1  0
 80 81  1  0
 81 82  2  0
 83 82  1  0
 83 87  1  0
 84 83  2  0
 85 80  2  0
 85 84  1  0
 86 85  1  0
 88 89  1  0
 89 92  1  0
 89 91  1  0
 90 88  2  0
 93 94  1  0
 93 68  1  0
 95 93  1  0
M  ISO  4  10 101  11 101  58 100  66 100
M  END
>  <TORSDO>  (12) 
F 23

>  <SCORE>  (12) 
-12.811

>  <name>  (12) 
12

>  <ligand_id>  (12) 
12

>  <original_smiles>  (12) 
[H]c1c([H])c([H])c2c(c1[H])C([H])([H])C([H])([H])C([H])([H])C2([H])N([H])C(=O)C1([H])N(C(=O)C([H])(N([H])C(=O)C([H])(N([H])C([H])([H])[H])C([H])([H])[H])C(C([H])([H])[H])(C([H])([H])[H])C([H])([H])[H])C([H])([H])c2c([H])c(OC([H])([H])C(=O)C([H])([H])C34C([H])([H])C3([H])C([H])([H])C([H])(C(C([H])([H])N([H])C(=O)N3C([H])([H])C([H])([H])C([H])([H])C([H])(n5nc(-c6c([H])c([H])c(Oc7c([H])c([H])c(F)c([H])c7F)c([H])c6[H])c(C(=O)N([H])[H])c5N([H])[H])C3([H])[H])(C([H])([H])C([H])([H])[H])C([H])([H])C([H])([H])[H])C4([H])[H])c([H])c([H])c2C1([H])[H]

>  <smiles>  (12) 
[H]c1c([H])c([H])c2c(c1[H])C([H])([H])C([H])([H])C([H])([H])C2([H])N([H])C(=O)C1([H])N(C(=O)C([H])(N([H])C(=O)C([H])(N([H])C([H])([H])[H])C([H])([H])[H])C(C([H])([H])[H])(C([H])([H])[H])C([H])([H])[H])C([H])([H])c2c([H])c(OC([H])([H])C(=O)C([H])([H])C34C([H])([H])C3([H])C([H])([H])C([H])(C(C([H])([H])N([H])C(=O)N3C([H])([H])C([H])([H])C([H])([H])C([H])(n5nc(-c6c([H])c([H])c(Oc7c([H])c([H])c(F)c([H])c7F)c([H])c6[H])c(C(=O)N([H])[H])c5N([H])[H])C3([H])[H])(C([H])([H])C([H])([H])[H])C([H])([H])C([H])([H])[H])C4([H])[H])c([H])c([H])c2C1([H])[H]

$$$$
13:0:0
     RDKit          3D

 97105  0  0  1  0  0  0  0  0999 V2000
  -28.9440  -19.1200   19.9200 C   0  0  0  0  0  3  0  0  0  0  0  0
  -26.4390  -19.4850   19.3740 C   0  0  0  0  0  1  0  0  0  0  0  0
  -27.4830  -19.0840   20.4330 C   0  0  0  0  0  2  0  0  0  0  0  0
  -29.9230  -18.2810   20.8140 C   0  0  0  0  0  2  0  0  0  0  0  0
  -32.7580  -19.1190   19.5120 C   0  0  0  0  0  2  0  0  0  0  0  0
  -31.9780  -17.4960   17.7440 C   0  0  0  0  0  2  0  0  0  0  0  0
  -32.4220  -17.9200   20.4250 C   0  0  0  0  0  2  0  0  0  0  0  0
  -30.9050  -16.9050   18.6820 C   0  0  0  0  0  2  0  0  0  0  0  0
  -32.2690  -18.9620   18.0530 C   0  0  0  0  0  3  0  0  0  0  0  0
  -31.0110  -17.2830   20.2110 C   0  0  2  0  0  0  0  0  0  0  0  0
  -33.2630  -19.5740   17.0590 C   0  0  0  0  0  1  0  0  0  0  0  0
  -31.6050  -14.8610   20.9360 C   0  0  0  0  0  0  0  0  0  0  0  0
  -31.2880  -12.7170   19.8120 C   0  0  0  0  0  2  0  0  0  0  0  0
  -30.4590  -12.9970   18.5380 C   0  0  0  0  0  2  0  0  0  0  0  0
  -28.9510  -12.9310   18.8500 C   0  0  0  0  0  2  0  0  0  0  0  0
  -28.5460  -13.7580   20.0970 C   0  0  0  0  0  3  0  0  0  0  0  0
  -29.5090  -13.4930   21.2820 C   0  0  0  0  0  2  0  0  0  0  0  0
  -30.8870  -13.7130   20.8150 N   0  0  0  0  0  0  0  0  0  0  0  0
  -32.8200  -14.8950   20.7630 O   0  0  0  0  0  0  0  0  0  0  0  0
  -30.8430  -15.9780   20.9230 N   0  0  0  0  0  0  0  0  0  0  0  0
  -29.8860  -15.7730   21.1630 H   0  0  0  0  0  0  0  0  0  0  0  0
  -26.1260  -14.4830   20.5760 C   0  0  0  0  0  0  0  0  0  0  0  0
  -24.9920  -13.7650   20.8380 C   0  0  0  0  0  0  0  0  0  0  0  0
  -25.3900  -12.3930   20.8470 C   0  0  0  0  0  0  0  0  0  0  0  0
  -27.1460  -13.5520   20.4480 N   0  0  0  0  0  0  0  0  0  0  0  0
  -26.7000  -12.2920   20.6640 N   0  0  0  0  0  0  0  0  0  0  0  0
  -24.5920  -11.1670   20.9570 C   0  0  0  0  0  0  0  0  0  0  0  0
  -24.9000  -10.1700   21.9090 C   0  0  0  0  0  3  0  0  0  0  0  0
  -24.1080   -9.0060   22.0070 C   0  0  0  0  0  3  0  0  0  0  0  0
  -22.9950   -8.8310   21.1490 C   0  0  0  0  0  0  0  0  0  0  0  0
  -22.7090   -9.8150   20.1880 C   0  0  0  0  0  3  0  0  0  0  0  0
  -23.5010  -10.9710   20.0880 C   0  0  0  0  0  3  0  0  0  0  0  0
  -22.1840   -7.7210   21.1570 O   0  0  0  0  0  0  0  0  0  0  0  0
  -21.9850   -6.9840   22.2950 C   0  0  0  0  0  0  0  0  0  0  0  0
  -21.4500   -7.5590   23.4690 C   0  0  0  0  0  3  0  0  0  0  0  0
  -21.1990   -6.7530   24.5970 C   0  0  0  0  0  3  0  0  0  0  0  0
  -21.4690   -5.3720   24.5510 C   0  0  0  0  0  0  0  0  0  0  0  0
  -21.9960   -4.7960   23.3820 C   0  0  0  0  0  3  0  0  0  0  0  0
  -22.2510   -5.6010   22.2570 C   0  0  0  0  0  0  0  0  0  0  0  0
  -22.7390   -5.0390   21.1250 F   0  0  0  0  0  0  0  0  0  0  0  0
  -21.2200   -4.5960   25.6310 F   0  0  0  0  0  0  0  0  0  0  0  0
  -23.5980  -14.3090   20.9740 C   0  0  0  0  0  0  0  0  0  0  0  0
  -22.7650  -13.6670   21.7880 N   0  0  0  0  0  0  0  0  0  0  0  0
  -23.2540  -15.3370   20.3970 O   0  0  0  0  0  0  0  0  0  0  0  0
  -23.0540  -12.8360   22.2780 H   0  0  0  0  0  0  0  0  0  0  0  0
  -21.8260  -14.0180   21.9240 H   0  0  0  0  0  0  0  0  0  0  0  0
  -26.3680  -15.8450   20.4080 N   0  0  0  0  0  0  0  0  0  0  0  0
  -25.6140  -16.5220   20.4200 H   0  0  0  0  0  0  0  0  0  0  0  0
  -27.2360  -16.2290   20.0580 H   0  0  0  0  0  0  0  0  0  0  0  0
  -29.4500  -20.5470   19.5520 C   0  0  0  0  0  2  0  0  0  0  0  0
  -29.2020  -21.6500   20.5200 N   0  0  0  0  0  4  0  0  0  0  0  0
  -28.3370  -21.4680   21.0070 H   0  0  0  0  0  0  0  0  0  0  0  0
  -29.9440  -21.6660   21.2000 H   0  0  0  0  0  0  0  0  0  0  0  0
  -29.1010  -22.9590   19.8190 C   0  0  0  0  0  2  0  0  0  0  0  0
  -29.2080  -24.2540   20.6730 C   0  0  0  0  0  2  0  0  0  0  0  0
  -28.4520  -25.3720   19.9260 C   0  0  0  0  0  2  0  0  0  0  0  0
  -28.5950  -26.7430   20.3570 O   0  0  0  0  0  0  0  0  0  0  0  0
  -24.6240  -31.8610   23.3170 C   0  0  0  0  0  0  0  0  0  0  0  0
  -27.4530  -27.5240   20.2420 C   0  0  0  0  0  0  0  0  0  0  0  0
  -23.5100  -30.4840   21.5940 C   0  0  0  0  0  3  0  0  0  0  0  0
  -25.0470  -29.0280   20.1830 C   0  0  0  0  0  0  0  0  0  0  0  0
  -26.0400  -30.8810   21.5170 C   0  0  0  0  0  2  0  0  0  0  0  0
  -26.1750  -29.5330   20.8440 C   0  0  0  0  0  0  0  0  0  0  0  0
  -27.3790  -28.7850   20.8820 C   0  0  0  0  0  3  0  0  0  0  0  0
  -26.3140  -27.0790   19.5210 C   0  0  0  0  0  3  0  0  0  0  0  0
  -25.1130  -27.7970   19.5190 C   0  0  0  0  0  3  0  0  0  0  0  0
  -23.7890  -29.8620   20.2030 C   0  0  0  0  0  2  0  0  0  0  0  0
  -24.7410  -31.0880   22.2020 N   0  0  0  0  0  0  0  0  0  0  0  0
  -23.5180  -32.1000   23.8210 O   0  0  0  0  0  0  0  0  0  0  0  0
  -22.8440  -29.4200   22.4970 C   0  0  0  0  0  0  0  0  0  0  0  0
  -21.5210  -29.2500   22.3540 N   0  0  0  0  0  0  0  0  0  0  0  0
  -23.5180  -28.7510   23.2870 O   0  0  0  0  0  0  0  0  0  0  0  0
  -21.0370  -29.8460   21.6960 H   0  0  0  0  0  0  0  0  0  0  0  0
  -18.1270  -28.0990   22.8200 C   0  0  0  0  0  0  0  0  0  0  0  0
  -20.6940  -28.2820   23.0750 C   0  0  0  0  0  3  0  0  0  0  0  0
  -20.7540  -26.8870   22.4110 C   0  0  0  0  0  2  0  0  0  0  0  0
  -19.6350  -26.6520   21.3940 C   0  0  0  0  0  2  0  0  0  0  0  0
  -18.2620  -26.7890   22.0600 C   0  0  0  0  0  2  0  0  0  0  0  0
  -19.2690  -28.8060   23.2830 C   0  0  0  0  0  0  0  0  0  0  0  0
  -19.0880  -30.0340   23.9540 C   0  0  0  0  0  3  0  0  0  0  0  0
  -17.7970  -30.5570   24.1620 C   0  0  0  0  0  3  0  0  0  0  0  0
  -16.6700  -29.8470   23.7130 C   0  0  0  0  0  3  0  0  0  0  0  0
  -16.8360  -28.6180   23.0510 C   0  0  0  0  0  3  0  0  0  0  0  0
  -25.8750  -32.4990   24.0000 C   0  0  0  0  0  3  0  0  0  0  0  0
  -25.5490  -33.9010   24.2880 N   0  0  0  0  0  0  0  0  0  0  0  0
  -25.9250  -34.9390   23.5280 C   0  0  0  0  0  0  0  0  0  0  0  0
  -26.6560  -34.8180   22.5410 O   0  0  0  0  0  0  0  0  0  0  0  0
  -24.9100  -34.0710   25.0510 H   0  0  0  0  0  0  0  0  0  0  0  0
  -24.2250  -36.7230   23.0300 C   0  0  0  0  0  1  0  0  0  0  0  0
  -25.4110  -36.3340   23.9260 C   0  0  0  0  0  3  0  0  0  0  0  0
  -27.4820  -37.2400   24.8810 C   0  0  0  0  0  1  0  0  0  0  0  0
  -26.4490  -37.3840   23.8590 N   0  0  0  0  0  0  0  0  0  0  0  0
  -26.0350  -38.3060   23.9570 H   0  0  0  0  0  0  0  0  0  0  0  0
  -26.3150  -31.7460   25.3160 C   0  0  1  0  0  0  0  0  0  0  0  0
  -25.1600  -31.5240   26.3200 C   0  0  0  0  0  1  0  0  0  0  0  0
  -26.9250  -30.3630   24.9800 C   0  0  0  0  0  1  0  0  0  0  0  0
  -27.4200  -32.5550   26.0360 C   0  0  0  0  0  1  0  0  0  0  0  0
  1 50  1  0
  1  3  1  0
  1  4  1  0
  2  3  1  0
  5  7  1  0
  6  9  1  0
  6  8  1  0
  8 10  1  0
  9 11  1  0
  9  5  1  0
 10  7  1  0
 10  4  1  1
 10 20  1  0
 13 18  1  0
 14 15  1  0
 14 13  1  0
 16 15  1  0
 16 25  1  0
 16 17  1  0
 18 12  1  0
 18 17  1  0
 19 12  2  0
 20 12  1  0
 20 21  1  0
 22 23  2  0
 23 24  1  0
 23 42  1  0
 24 27  1  0
 25 22  1  0
 25 26  1  0
 26 24  2  0
 27 28  1  0
 28 29  2  0
 30 33  1  0
 30 29  1  0
 31 30  2  0
 32 31  1  0
 32 27  2  0
 33 34  1  0
 34 35  1  0
 35 36  2  0
 37 36  1  0
 37 41  1  0
 38 37  2  0
 39 34  2  0
 39 38  1  0
 40 39  1  0
 42 43  1  0
 43 46  1  0
 43 45  1  0
 44 42  2  0
 47 48  1  0
 47 22  1  0
 49 47  1  0
 50 51  1  0
 51 52  1  0
 51 53  1  0
 54 51  1  0
 54 55  1  0
 56 57  1  0
 56 55  1  0
 58 69  2  0
 59 57  1  0
 59 64  1  0
 60 68  1  0
 60 70  1  0
 61 67  1  0
 61 63  1  0
 62 68  1  0
 63 64  2  0
 63 62  1  0
 65 59  2  0
 66 65  1  0
 66 61  2  0
 67 60  1  0
 68 58  1  0
 70 72  2  0
 71 70  1  0
 73 71  1  0
 74 83  2  0
 74 79  1  0
 75 71  1  0
 75 79  1  0
 76 75  1  0
 77 78  1  0
 77 76  1  0
 78 74  1  0
 79 80  2  0
 80 81  1  0
 82 81  2  0
 83 82  1  0
 84 58  1  0
 84 85  1  0
 84 94  1  0
 85 88  1  0
 86 90  1  0
 86 85  1  0
 87 86  2  0
 90 89  1  0
 92 90  1  0
 92 93  1  0
 92 91  1  0
 94 97  1  1
 94 95  1  0
 96 94  1  0
M  ISO  4  12 100  20 100  56 101  57 101
M  END
>  <TORSDO>  (13) 
F 24

>  <SCORE>  (13) 
-10.925

>  <name>  (13) 
13

>  <ligand_id>  (13) 
13

>  <original_smiles>  (13) 
[H]c1c([H])c([H])c2c(c1[H])C([H])([H])C([H])([H])C([H])([H])C2([H])N([H])C(=O)C1([H])N(C(=O)C([H])(N([H])C(=O)C([H])(N([H])C([H])([H])[H])C([H])([H])[H])C(C([H])([H])[H])(C([H])([H])[H])C([H])([H])[H])C([H])([H])c2c([H])c(OC([H])([H])C([H])([H])C([H])([H])[N+]([H])([H])C([H])([H])C([H])(C([H])([H])C([H])([H])[H])C([H])([H])C3(N([H])C(=O)N4C([H])([H])C([H])([H])C([H])([H])C([H])(n5nc(-c6c([H])c([H])c(Oc7c([H])c([H])c(F)c([H])c7F)c([H])c6[H])c(C(=O)N([H])[H])c5N([H])[H])C4([H])[H])C([H])([H])C([H])([H])C([H])(C([H])([H])[H])C([H])([H])C3([H])[H])c([H])c([H])c2C1([H])[H]

>  <smiles>  (13) 
[H]c1c([H])c([H])c2c(c1[H])C([H])([H])C([H])([H])C([H])([H])C2([H])N([H])C(=O)C1([H])N(C(=O)C([H])(N([H])C(=O)C([H])(N([H])C([H])([H])[H])C([H])([H])[H])C(C([H])([H])[H])(C([H])([H])[H])C([H])([H])[H])C([H])([H])c2c([H])c(OC([H])([H])C([H])([H])C([H])([H])[N+]([H])([H])C([H])([H])C([H])(C([H])([H])C([H])([H])[H])C([H])([H])C3(N([H])C(=O)N4C([H])([H])C([H])([H])C([H])([H])C([H])(n5nc(-c6c([H])c([H])c(Oc7c([H])c([H])c(F)c([H])c7F)c([H])c6[H])c(C(=O)N([H])[H])c5N([H])[H])C4([H])[H])C([H])([H])C([H])([H])C([H])(C([H])([H])[H])C([H])([H])C3([H])[H])c([H])c([H])c2C1([H])[H]

$$$$
14:0:0
     RDKit          3D

 93102  0  0  1  0  0  0  0  0999 V2000
  -27.6260  -19.6860   20.2170 C   0  0  0  0  0  3  0  0  0  0  0  0
  -26.8560  -20.7050   19.6220 C   0  0  0  0  0  3  0  0  0  0  0  0
  -29.4490  -21.2690   20.6600 C   0  0  0  0  0  3  0  0  0  0  0  0
  -28.9360  -19.9480   20.6960 C   0  0  0  0  0  0  0  0  0  0  0  0
  -27.4220  -21.9850   19.5150 C   0  0  0  0  0  0  0  0  0  0  0  0
  -28.6770  -22.2680   20.0390 C   0  0  0  0  0  0  0  0  0  0  0  0
  -26.8220  -23.1770   18.8290 C   0  0  0  0  0  2  0  0  0  0  0  0
  -29.0700  -23.7010   19.7900 C   0  0  0  0  0  2  0  0  0  0  0  0
  -27.7910  -24.3340   19.1720 C   0  0  0  0  0  3  0  0  0  0  0  0
  -29.7810  -18.8330   21.1950 C   0  0  0  0  0  0  0  0  0  0  0  0
  -30.5620  -18.9240   22.1490 O   0  0  0  0  0  0  0  0  0  0  0  0
  -29.7190  -17.5680   20.3290 C   0  0  0  0  0  2  0  0  0  0  0  0
  -30.4390  -16.3170   20.8780 C   0  0  0  0  0  2  0  0  0  0  0  0
  -31.4440  -14.3350   19.7050 C   0  0  0  0  0  0  0  0  0  0  0  0
  -30.9670  -12.1170   18.7640 C   0  0  0  0  0  2  0  0  0  0  0  0
  -29.9490  -12.2750   17.6140 C   0  0  0  0  0  2  0  0  0  0  0  0
  -28.5040  -12.2430   18.1470 C   0  0  0  0  0  2  0  0  0  0  0  0
  -28.2910  -13.1890   19.3600 C   0  0  0  0  0  3  0  0  0  0  0  0
  -29.4140  -13.0060   20.4060 C   0  0  0  0  0  2  0  0  0  0  0  0
  -30.7050  -13.1950   19.7280 N   0  0  0  0  0  0  0  0  0  0  0  0
  -32.5650  -14.4050   19.2010 O   0  0  0  0  0  0  0  0  0  0  0  0
  -30.7260  -15.4590   19.7270 N   0  0  0  0  0  0  0  0  0  0  0  0
  -31.0670  -16.0310   18.9660 H   0  0  0  0  0  0  0  0  0  0  0  0
  -26.0330  -13.9740   20.3160 C   0  0  0  0  0  0  0  0  0  0  0  0
  -24.9330  -13.2830   20.7470 C   0  0  0  0  0  0  0  0  0  0  0  0
  -25.2590  -11.8990   20.6170 C   0  0  0  0  0  0  0  0  0  0  0  0
  -26.9650  -13.0140   19.9520 N   0  0  0  0  0  0  0  0  0  0  0  0
  -26.5070  -11.7580   20.1870 N   0  0  0  0  0  0  0  0  0  0  0  0
  -24.4430  -10.6980   20.8260 C   0  0  0  0  0  0  0  0  0  0  0  0
  -24.7820   -9.7340   21.8010 C   0  0  0  0  0  3  0  0  0  0  0  0
  -23.9690   -8.5950   21.9960 C   0  0  0  0  0  3  0  0  0  0  0  0
  -22.8050   -8.4130   21.2120 C   0  0  0  0  0  0  0  0  0  0  0  0
  -22.4850   -9.3630   20.2250 C   0  0  0  0  0  3  0  0  0  0  0  0
  -23.2960  -10.4930   20.0310 C   0  0  0  0  0  3  0  0  0  0  0  0
  -21.9720   -7.3250   21.3130 O   0  0  0  0  0  0  0  0  0  0  0  0
  -21.7300   -6.7120   22.5160 C   0  0  0  0  0  0  0  0  0  0  0  0
  -21.1720   -7.4100   23.6090 C   0  0  0  0  0  3  0  0  0  0  0  0
  -20.8740   -6.7250   24.8030 C   0  0  0  0  0  3  0  0  0  0  0  0
  -21.1250   -5.3440   24.9060 C   0  0  0  0  0  0  0  0  0  0  0  0
  -21.6780   -4.6460   23.8180 C   0  0  0  0  0  3  0  0  0  0  0  0
  -21.9760   -5.3270   22.6250 C   0  0  0  0  0  0  0  0  0  0  0  0
  -22.4900   -4.6480   21.5720 F   0  0  0  0  0  0  0  0  0  0  0  0
  -20.8320   -4.6840   26.0500 F   0  0  0  0  0  0  0  0  0  0  0  0
  -23.6150  -13.8680   21.1640 C   0  0  0  0  0  0  0  0  0  0  0  0
  -22.9260  -13.2220   22.0990 N   0  0  0  0  0  0  0  0  0  0  0  0
  -23.2080  -14.9300   20.6930 O   0  0  0  0  0  0  0  0  0  0  0  0
  -23.2710  -12.3640   22.5040 H   0  0  0  0  0  0  0  0  0  0  0  0
  -22.0450  -13.5950   22.4250 H   0  0  0  0  0  0  0  0  0  0  0  0
  -26.3120  -15.3300   20.1890 N   0  0  0  0  0  0  0  0  0  0  0  0
  -25.6470  -16.0550   20.4360 H   0  0  0  0  0  0  0  0  0  0  0  0
  -27.1850  -15.6920   19.8320 H   0  0  0  0  0  0  0  0  0  0  0  0
  -28.0520  -25.3010   17.9900 C   0  0  0  0  0  2  0  0  0  0  0  0
  -28.1840  -26.6450   18.4550 O   0  0  0  0  0  0  0  0  0  0  0  0
  -24.9540  -31.0890   22.9770 C   0  0  0  0  0  0  0  0  0  0  0  0
  -27.0360  -27.3580   18.7350 C   0  0  0  0  0  0  0  0  0  0  0  0
  -23.5220  -30.1350   21.1970 C   0  0  0  0  0  3  0  0  0  0  0  0
  -24.7430  -28.9000   19.3390 C   0  0  0  0  0  0  0  0  0  0  0  0
  -26.0360  -30.4270   20.8330 C   0  0  0  0  0  2  0  0  0  0  0  0
  -25.9770  -29.2300   19.9100 C   0  0  0  0  0  0  0  0  0  0  0  0
  -27.1250  -28.4620   19.6150 C   0  0  0  0  0  3  0  0  0  0  0  0
  -25.7720  -27.0420   18.1750 C   0  0  0  0  0  3  0  0  0  0  0  0
  -24.6330  -27.7990   18.4760 C   0  0  0  0  0  3  0  0  0  0  0  0
  -23.5660  -29.7730   19.6910 C   0  0  0  0  0  2  0  0  0  0  0  0
  -24.8610  -30.5510   21.7270 N   0  0  0  0  0  0  0  0  0  0  0  0
  -23.9450  -31.2770   23.6690 O   0  0  0  0  0  0  0  0  0  0  0  0
  -22.9010  -28.9520   21.9730 C   0  0  0  0  0  0  0  0  0  0  0  0
  -21.5680  -28.8070   21.8790 N   0  0  0  0  0  0  0  0  0  0  0  0
  -23.6120  -28.1750   22.6140 O   0  0  0  0  0  0  0  0  0  0  0  0
  -21.0540  -29.4890   21.3380 H   0  0  0  0  0  0  0  0  0  0  0  0
  -18.2160  -27.5160   22.2030 C   0  0  0  0  0  0  0  0  0  0  0  0
  -20.7710  -27.7510   22.5000 C   0  0  0  0  0  3  0  0  0  0  0  0
  -20.8780  -26.4290   21.7060 C   0  0  0  0  0  2  0  0  0  0  0  0
  -19.7800  -26.2740   20.6470 C   0  0  0  0  0  2  0  0  0  0  0  0
  -18.3980  -26.3020   21.3030 C   0  0  0  0  0  2  0  0  0  0  0  0
  -19.3290  -28.2070   22.7470 C   0  0  0  0  0  0  0  0  0  0  0  0
  -19.1060  -29.3570   23.5380 C   0  0  0  0  0  3  0  0  0  0  0  0
  -17.7980  -29.8100   23.7930 C   0  0  0  0  0  3  0  0  0  0  0  0
  -16.6980  -29.1070   23.2750 C   0  0  0  0  0  3  0  0  0  0  0  0
  -16.9080  -27.9640   22.4840 C   0  0  0  0  0  3  0  0  0  0  0  0
  -26.3270  -31.5180   23.5810 C   0  0  0  0  0  3  0  0  0  0  0  0
  -26.9150  -30.4560   24.5900 C   0  0  1  0  0  0  0  0  0  0  0  0
  -25.9220  -30.0300   25.6940 C   0  0  0  0  0  1  0  0  0  0  0  0
  -27.3640  -29.1800   23.8400 C   0  0  0  0  0  1  0  0  0  0  0  0
  -28.1770  -31.0270   25.2770 C   0  0  0  0  0  1  0  0  0  0  0  0
  -26.1340  -32.8150   24.2430 N   0  0  0  0  0  0  0  0  0  0  0  0
  -26.4840  -33.9940   23.7130 C   0  0  0  0  0  0  0  0  0  0  0  0
  -27.0840  -34.0960   22.6390 O   0  0  0  0  0  0  0  0  0  0  0  0
  -25.5980  -32.8120   25.0970 H   0  0  0  0  0  0  0  0  0  0  0  0
  -24.8580  -35.9010   23.9020 C   0  0  0  0  0  1  0  0  0  0  0  0
  -26.1200  -35.2630   24.5060 C   0  0  0  0  0  3  0  0  0  0  0  0
  -28.3540  -35.8270   25.3540 C   0  0  0  0  0  1  0  0  0  0  0  0
  -27.2100  -36.2610   24.5550 N   0  0  0  0  0  0  0  0  0  0  0  0
  -26.8760  -37.1430   24.9360 H   0  0  0  0  0  0  0  0  0  0  0  0
  1  4  1  0
  2  1  2  0
  3  4  2  0
  4 10  1  0
  5  2  1  0
  5  6  2  0
  6  3  1  0
  7  9  1  0
  7  5  1  0
  8  6  1  0
  9 52  1  0
  9  8  1  0
 10 11  2  0
 12 13  1  0
 12 10  1  0
 14 22  1  0
 14 20  1  0
 15 20  1  0
 16 17  1  0
 16 15  1  0
 18 17  1  0
 18 27  1  0
 18 19  1  0
 20 19  1  0
 21 14  2  0
 22 13  1  0
 23 22  1  0
 24 25  2  0
 25 44  1  0
 26 25  1  0
 26 29  1  0
 27 28  1  0
 27 24  1  0
 28 26  2  0
 29 30  1  0
 30 31  2  0
 32 35  1  0
 32 31  1  0
 33 32  2  0
 34 33  1  0
 34 29  2  0
 35 36  1  0
 36 41  2  0
 36 37  1  0
 37 38  2  0
 38 39  1  0
 39 43  1  0
 40 39  2  0
 41 40  1  0
 42 41  1  0
 44 45  1  0
 45 48  1  0
 45 47  1  0
 46 44  2  0
 49 24  1  0
 49 50  1  0
 51 49  1  0
 52 53  1  0
 53 55  1  0
 54 65  2  0
 55 60  1  0
 56 64  1  0
 56 66  1  0
 57 63  1  0
 57 59  1  0
 58 64  1  0
 59 58  1  0
 60 59  2  0
 61 62  1  0
 61 55  2  0
 62 57  2  0
 63 56  1  0
 64 54  1  0
 66 68  2  0
 67 66  1  0
 69 67  1  0
 70 79  2  0
 70 75  1  0
 71 67  1  0
 71 75  1  0
 72 71  1  0
 73 74  1  0
 73 72  1  0
 74 70  1  0
 75 76  2  0
 76 77  1  0
 78 77  2  0
 79 78  1  0
 80 54  1  0
 80 85  1  0
 80 81  1  0
 81 84  1  1
 81 82  1  0
 83 81  1  0
 85 88  1  0
 86 85  1  0
 86 90  1  0
 87 86  2  0
 90 89  1  0
 90 92  1  0
 92 93  1  0
 92 91  1  0
M  ISO  4  14 100  22 100  52 101  53 101
M  END
>  <TORSDO>  (14) 
F 20

>  <SCORE>  (14) 
-10.289

>  <name>  (14) 
14

>  <ligand_id>  (14) 
14

>  <original_smiles>  (14) 
[H]c1c([H])c([H])c2c(c1[H])C([H])([H])C([H])([H])C([H])([H])C2([H])N([H])C(=O)C1([H])N(C(=O)C([H])(N([H])C(=O)C([H])(N([H])C([H])([H])[H])C([H])([H])[H])C(C([H])([H])[H])(C([H])([H])[H])C([H])([H])[H])C([H])([H])c2c([H])c(OC([H])([H])C3([H])C([H])([H])c4c([H])c([H])c(C(=O)C([H])([H])C([H])([H])N([H])C(=O)N5C([H])([H])C([H])([H])C([H])([H])C([H])(n6nc(-c7c([H])c([H])c(Oc8c([H])c([H])c(F)c([H])c8F)c([H])c7[H])c(C(=O)N([H])[H])c6N([H])[H])C5([H])[H])c([H])c4C3([H])[H])c([H])c([H])c2C1([H])[H]

>  <smiles>  (14) 
[H]c1c([H])c([H])c2c(c1[H])C([H])([H])C([H])([H])C([H])([H])C2([H])N([H])C(=O)C1([H])N(C(=O)C([H])(N([H])C(=O)C([H])(N([H])C([H])([H])[H])C([H])([H])[H])C(C([H])([H])[H])(C([H])([H])[H])C([H])([H])[H])C([H])([H])c2c([H])c(OC([H])([H])C3([H])C([H])([H])c4c([H])c([H])c(C(=O)C([H])([H])C([H])([H])N([H])C(=O)N5C([H])([H])C([H])([H])C([H])([H])C([H])(n6nc(-c7c([H])c([H])c(Oc8c([H])c([H])c(F)c([H])c8F)c([H])c7[H])c(C(=O)N([H])[H])c6N([H])[H])C5([H])[H])c([H])c4C3([H])[H])c([H])c([H])c2C1([H])[H]

$$$$
15:0:0
     RDKit          3D

 92101  0  0  1  0  0  0  0  0999 V2000
  -26.2420  -22.9490   21.7300 C   0  0  0  0  0  2  0  0  0  0  0  0
  -26.5680  -24.1640   20.8530 C   0  0  0  0  0  2  0  0  0  0  0  0
  -27.6810  -21.1840   20.4140 C   0  0  0  0  0  2  0  0  0  0  0  0
  -27.4810  -22.0570   21.6570 C   0  0  0  0  0  3  0  0  0  0  0  0
  -28.7160  -22.8770   21.2420 C   0  0  0  0  0  3  0  0  0  0  0  0
  -28.0990  -24.3440   20.9160 C   0  0  0  0  0  3  0  0  0  0  0  0
  -29.1570  -21.5830   20.3680 C   0  0  0  0  0  3  0  0  0  0  0  0
  -30.1870  -20.4430   20.8770 C   0  0  0  0  0  2  0  0  0  0  0  0
  -30.3510  -19.0450   20.0420 C   0  0  0  0  0  3  0  0  0  0  0  0
  -32.5570  -19.9830   18.7720 C   0  0  0  0  0  1  0  0  0  0  0  0
  -31.1540  -19.2880   18.6990 C   0  0  0  0  0  2  0  0  0  0  0  0
  -30.9140  -17.7060   20.7990 C   0  0  0  0  0  2  0  0  0  0  0  0
  -31.0280  -15.0970   20.4380 C   0  0  0  0  0  0  0  0  0  0  0  0
  -30.7910  -12.7940   19.4880 C   0  0  0  0  0  2  0  0  0  0  0  0
  -29.9010  -12.8580   18.2280 C   0  0  0  0  0  2  0  0  0  0  0  0
  -28.4180  -12.6950   18.6080 C   0  0  0  0  0  2  0  0  0  0  0  0
  -28.0050  -13.6030   19.8050 C   0  0  0  0  0  3  0  0  0  0  0  0
  -29.0340  -13.5750   20.9570 C   0  0  0  0  0  2  0  0  0  0  0  0
  -30.3440  -13.8950   20.3750 N   0  0  0  0  0  0  0  0  0  0  0  0
  -32.2320  -15.1180   20.2000 O   0  0  0  0  0  0  0  0  0  0  0  0
  -30.3370  -16.2940   20.5690 N   0  0  0  0  0  0  0  0  0  0  0  0
  -29.3350  -16.2030   20.6610 H   0  0  0  0  0  0  0  0  0  0  0  0
  -25.6070  -14.1970   20.4820 C   0  0  0  0  0  0  0  0  0  0  0  0
  -24.5240  -13.4250   20.8150 C   0  0  0  0  0  0  0  0  0  0  0  0
  -24.9810  -12.0700   20.7750 C   0  0  0  0  0  0  0  0  0  0  0  0
  -26.6500  -13.3120   20.2590 N   0  0  0  0  0  0  0  0  0  0  0  0
  -26.2800  -12.0280   20.5020 N   0  0  0  0  0  0  0  0  0  0  0  0
  -24.2340  -10.8090   20.9220 C   0  0  0  0  0  0  0  0  0  0  0  0
  -24.6060   -9.8460   21.8850 C   0  0  0  0  0  3  0  0  0  0  0  0
  -23.8590   -8.6550   22.0300 C   0  0  0  0  0  3  0  0  0  0  0  0
  -22.7260   -8.4250   21.2140 C   0  0  0  0  0  0  0  0  0  0  0  0
  -22.3760   -9.3770   20.2400 C   0  0  0  0  0  3  0  0  0  0  0  0
  -23.1220  -10.5610   20.0910 C   0  0  0  0  0  3  0  0  0  0  0  0
  -21.9590   -7.2840   21.2640 O   0  0  0  0  0  0  0  0  0  0  0  0
  -21.8010   -6.5740   22.4260 C   0  0  0  0  0  0  0  0  0  0  0  0
  -21.2510   -7.1580   23.5880 C   0  0  0  0  0  3  0  0  0  0  0  0
  -21.0390   -6.3760   24.7390 C   0  0  0  0  0  3  0  0  0  0  0  0
  -21.3700   -5.0070   24.7300 C   0  0  0  0  0  0  0  0  0  0  0  0
  -21.9110   -4.4200   23.5710 C   0  0  0  0  0  3  0  0  0  0  0  0
  -22.1210   -5.2010   22.4220 C   0  0  0  0  0  0  0  0  0  0  0  0
  -22.6230   -4.6270   21.3040 F   0  0  0  0  0  0  0  0  0  0  0  0
  -21.1590   -4.2520   25.8320 F   0  0  0  0  0  0  0  0  0  0  0  0
  -23.1230  -13.9130   21.0490 C   0  0  0  0  0  0  0  0  0  0  0  0
  -22.3700  -13.2220   21.9060 N   0  0  0  0  0  0  0  0  0  0  0  0
  -22.7000  -14.9350   20.5110 O   0  0  0  0  0  0  0  0  0  0  0  0
  -22.7160  -12.3950   22.3690 H   0  0  0  0  0  0  0  0  0  0  0  0
  -21.4300  -13.5310   22.1030 H   0  0  0  0  0  0  0  0  0  0  0  0
  -25.7760  -15.5680   20.3260 N   0  0  0  0  0  0  0  0  0  0  0  0
  -25.0060  -16.2170   20.4390 H   0  0  0  0  0  0  0  0  0  0  0  0
  -26.6460  -16.0240   20.0800 H   0  0  0  0  0  0  0  0  0  0  0  0
  -28.6260  -25.3780   19.8290 C   0  0  0  0  0  2  0  0  0  0  0  0
  -28.5500  -26.8330   20.1370 O   0  0  0  0  0  0  0  0  0  0  0  0
  -24.6850  -31.9530   23.3750 C   0  0  0  0  0  0  0  0  0  0  0  0
  -27.3780  -27.6070   20.0940 C   0  0  0  0  0  0  0  0  0  0  0  0
  -23.5050  -30.6080   21.6710 C   0  0  0  0  0  3  0  0  0  0  0  0
  -24.9770  -29.1610   20.1530 C   0  0  0  0  0  0  0  0  0  0  0  0
  -26.0320  -30.9850   21.5020 C   0  0  0  0  0  2  0  0  0  0  0  0
  -26.1280  -29.6450   20.7860 C   0  0  0  0  0  0  0  0  0  0  0  0
  -27.3250  -28.8760   20.7500 C   0  0  0  0  0  3  0  0  0  0  0  0
  -26.2130  -27.1840   19.4130 C   0  0  0  0  0  3  0  0  0  0  0  0
  -25.0250  -27.9430   19.4520 C   0  0  0  0  0  3  0  0  0  0  0  0
  -23.7200  -30.0070   20.2530 C   0  0  0  0  0  2  0  0  0  0  0  0
  -24.7590  -31.1970   22.2400 N   0  0  0  0  0  0  0  0  0  0  0  0
  -23.5970  -32.1880   23.9220 O   0  0  0  0  0  0  0  0  0  0  0  0
  -22.8580  -29.5360   22.5800 C   0  0  0  0  0  0  0  0  0  0  0  0
  -21.5400  -29.3300   22.4290 N   0  0  0  0  0  0  0  0  0  0  0  0
  -23.5430  -28.9040   23.3900 O   0  0  0  0  0  0  0  0  0  0  0  0
  -21.0420  -29.8980   21.7530 H   0  0  0  0  0  0  0  0  0  0  0  0
  -18.1960  -28.0170   22.8200 C   0  0  0  0  0  0  0  0  0  0  0  0
  -20.7380  -28.3390   23.1490 C   0  0  0  0  0  3  0  0  0  0  0  0
  -20.8970  -26.9350   22.5250 C   0  0  0  0  0  2  0  0  0  0  0  0
  -19.8230  -26.6130   21.4810 C   0  0  0  0  0  2  0  0  0  0  0  0
  -18.4230  -26.7000   22.1020 C   0  0  0  0  0  2  0  0  0  0  0  0
  -19.2830  -28.7960   23.3020 C   0  0  0  0  0  0  0  0  0  0  0  0
  -19.0180  -30.0270   23.9370 C   0  0  0  0  0  3  0  0  0  0  0  0
  -17.6930  -30.4820   24.1020 C   0  0  0  0  0  3  0  0  0  0  0  0
  -16.6190  -29.7000   23.6390 C   0  0  0  0  0  3  0  0  0  0  0  0
  -16.8730  -28.4720   23.0050 C   0  0  0  0  0  3  0  0  0  0  0  0
  -25.9620  -32.5690   24.0240 C   0  0  0  0  0  3  0  0  0  0  0  0
  -25.6580  -33.9690   24.3570 N   0  0  0  0  0  0  0  0  0  0  0  0
  -26.0110  -35.0250   23.6130 C   0  0  0  0  0  0  0  0  0  0  0  0
  -26.7000  -34.9250   22.5920 O   0  0  0  0  0  0  0  0  0  0  0  0
  -25.0530  -34.1260   25.1500 H   0  0  0  0  0  0  0  0  0  0  0  0
  -24.2920  -36.8290   23.2460 C   0  0  0  0  0  1  0  0  0  0  0  0
  -25.5240  -36.4170   24.0670 C   0  0  0  0  0  3  0  0  0  0  0  0
  -27.6480  -37.2910   24.9370 C   0  0  0  0  0  1  0  0  0  0  0  0
  -26.5630  -37.4680   23.9750 N   0  0  0  0  0  0  0  0  0  0  0  0
  -26.1580  -38.3880   24.1170 H   0  0  0  0  0  0  0  0  0  0  0  0
  -26.4500  -31.7880   25.3080 C   0  0  1  0  0  0  0  0  0  0  0  0
  -25.3300  -31.5320   26.3410 C   0  0  0  0  0  1  0  0  0  0  0  0
  -27.0460  -30.4130   24.9200 C   0  0  0  0  0  1  0  0  0  0  0  0
  -27.5780  -32.5820   26.0070 C   0  0  0  0  0  1  0  0  0  0  0  0
  2  6  1  0
  2  1  1  0
  4  3  1  0
  4  1  1  0
  5  4  1  0
  6  5  1  0
  7  3  1  0
  7  8  1  0
  7  5  1  0
  9 12  1  0
  9  8  1  0
 11 10  1  0
 11  9  1  0
 13 21  1  0
 14 19  1  0
 15 16  1  0
 15 14  1  0
 16 17  1  0
 17 26  1  0
 17 18  1  0
 19 13  1  0
 19 18  1  0
 20 13  2  0
 21 22  1  0
 21 12  1  0
 23 24  2  0
 24 43  1  0
 25 24  1  0
 25 28  1  0
 26 23  1  0
 26 27  1  0
 27 25  2  0
 28 29  1  0
 29 30  2  0
 31 34  1  0
 31 30  1  0
 32 31  2  0
 33 32  1  0
 33 28  2  0
 34 35  1  0
 35 36  1  0
 36 37  2  0
 38 37  1  0
 38 42  1  0
 39 38  2  0
 40 35  2  0
 40 39  1  0
 41 40  1  0
 43 44  1  0
 44 47  1  0
 44 46  1  0
 45 43  2  0
 48 49  1  0
 48 23  1  0
 50 48  1  0
 51 52  1  0
 51  6  1  0
 53 64  2  0
 53 79  1  0
 54 52  1  0
 54 59  1  0
 55 63  1  0
 55 65  1  0
 56 62  1  0
 56 58  1  0
 57 63  1  0
 58 57  1  0
 59 58  2  0
 60 61  1  0
 60 54  2  0
 61 56  2  0
 62 55  1  0
 63 53  1  0
 65 67  2  0
 66 65  1  0
 66 70  1  0
 68 66  1  0
 69 78  2  0
 69 74  1  0
 70 74  1  0
 71 70  1  0
 72 73  1  0
 72 71  1  0
 73 69  1  0
 74 75  2  0
 75 76  1  0
 77 76  2  0
 78 77  1  0
 79 80  1  0
 79 89  1  0
 80 83  1  0
 81 85  1  0
 81 80  1  0
 82 81  2  0
 84 85  1  0
 87 85  1  0
 87 88  1  0
 87 86  1  0
 89 92  1  1
 89 90  1  0
 91 89  1  0
M  ISO  4  13 100  21 100  51 101  52 101
M  END
>  <TORSDO>  (15) 
F 21

>  <SCORE>  (15) 
-12.651

>  <name>  (15) 
15

>  <ligand_id>  (15) 
15

>  <original_smiles>  (15) 
[H]c1c([H])c([H])c2c(c1[H])C([H])([H])C([H])([H])C([H])([H])C2([H])N([H])C(=O)C1([H])N(C(=O)C([H])(N([H])C(=O)C([H])(N([H])C([H])([H])[H])C([H])([H])[H])C(C([H])([H])[H])(C([H])([H])[H])C([H])([H])[H])C([H])([H])c2c([H])c(OC([H])([H])C3([H])C([H])([H])C([H])([H])C4([H])C([H])([H])C([H])(C([H])([H])C([H])(C([H])([H])N([H])C(=O)N5C([H])([H])C([H])([H])C([H])([H])C([H])(n6nc(-c7c([H])c([H])c(Oc8c([H])c([H])c(F)c([H])c8F)c([H])c7[H])c(C(=O)N([H])[H])c6N([H])[H])C5([H])[H])C([H])([H])C([H])([H])[H])C34[H])c([H])c([H])c2C1([H])[H]

>  <smiles>  (15) 
[H]c1c([H])c([H])c2c(c1[H])C([H])([H])C([H])([H])C([H])([H])C2([H])N([H])C(=O)C1([H])N(C(=O)C([H])(N([H])C(=O)C([H])(N([H])C([H])([H])[H])C([H])([H])[H])C(C([H])([H])[H])(C([H])([H])[H])C([H])([H])[H])C([H])([H])c2c([H])c(OC([H])([H])C3([H])C([H])([H])C([H])([H])C4([H])C([H])([H])C([H])(C([H])([H])C([H])(C([H])([H])N([H])C(=O)N5C([H])([H])C([H])([H])C([H])([H])C([H])(n6nc(-c7c([H])c([H])c(Oc8c([H])c([H])c(F)c([H])c8F)c([H])c7[H])c(C(=O)N([H])[H])c6N([H])[H])C5([H])[H])C([H])([H])C([H])([H])[H])C34[H])c([H])c([H])c2C1([H])[H]

$$$$
16:0:0
     RDKit          3D

101109  0  0  1  0  0  0  0  0999 V2000
  -30.7120  -20.9350   19.0810 C   0  0  0  0  0  3  0  0  0  0  0  0
  -30.4010  -22.1760   19.8680 N   0  0  0  0  0  4  0  0  0  0  0  0
  -29.4510  -22.1380   20.1990 H   0  0  0  0  0  0  0  0  0  0  0  0
  -30.9790  -22.0650   20.6910 H   0  0  0  0  0  0  0  0  0  0  0  0
  -30.7280  -23.5120   19.2660 C   0  0  0  0  0  2  0  0  0  0  0  0
  -29.5420  -24.4550   18.8360 C   0  0  0  0  0  2  0  0  0  0  0  0
  -28.8500  -25.3470   19.9180 C   0  0  0  0  0  2  0  0  0  0  0  0
  -28.7400  -26.7360   19.5150 O   0  0  0  0  0  0  0  0  0  0  0  0
  -24.7570  -31.5190   23.0330 C   0  0  0  0  0  0  0  0  0  0  0  0
  -27.5210  -27.3830   19.6290 C   0  0  0  0  0  0  0  0  0  0  0  0
  -23.5710  -30.1780   21.3230 C   0  0  0  0  0  3  0  0  0  0  0  0
  -25.0580  -28.7900   19.7740 C   0  0  0  0  0  0  0  0  0  0  0  0
  -26.0750  -30.6520   21.1010 C   0  0  0  0  0  2  0  0  0  0  0  0
  -26.2060  -29.3250   20.3730 C   0  0  0  0  0  0  0  0  0  0  0  0
  -27.4370  -28.6330   20.2920 C   0  0  0  0  0  3  0  0  0  0  0  0
  -26.3550  -26.8610   19.0300 C   0  0  0  0  0  3  0  0  0  0  0  0
  -25.1290  -27.5580   19.0970 C   0  0  0  0  0  3  0  0  0  0  0  0
  -23.7810  -29.5960   19.8970 C   0  0  0  0  0  2  0  0  0  0  0  0
  -24.8190  -30.7960   21.8770 N   0  0  0  0  0  0  0  0  0  0  0  0
  -23.6790  -31.7110   23.6130 O   0  0  0  0  0  0  0  0  0  0  0  0
  -22.9810  -29.0720   22.2260 C   0  0  0  0  0  0  0  0  0  0  0  0
  -21.6610  -28.8450   22.1130 N   0  0  0  0  0  0  0  0  0  0  0  0
  -23.7050  -28.4240   22.9870 O   0  0  0  0  0  0  0  0  0  0  0  0
  -21.1330  -29.4250   21.4750 H   0  0  0  0  0  0  0  0  0  0  0  0
  -18.3540  -27.4690   22.5770 C   0  0  0  0  0  0  0  0  0  0  0  0
  -20.9000  -27.8250   22.8340 C   0  0  0  0  0  3  0  0  0  0  0  0
  -21.0570  -26.4380   22.1680 C   0  0  0  0  0  2  0  0  0  0  0  0
  -19.9570  -26.1310   21.1470 C   0  0  0  0  0  2  0  0  0  0  0  0
  -18.5810  -26.1720   21.8160 C   0  0  0  0  0  2  0  0  0  0  0  0
  -19.4430  -28.2510   23.0420 C   0  0  0  0  0  0  0  0  0  0  0  0
  -19.1770  -29.4650   23.7120 C   0  0  0  0  0  3  0  0  0  0  0  0
  -17.8540  -29.8950   23.9260 C   0  0  0  0  0  3  0  0  0  0  0  0
  -16.7800  -29.1070   23.4800 C   0  0  0  0  0  3  0  0  0  0  0  0
  -17.0290  -27.8960   22.8100 C   0  0  0  0  0  3  0  0  0  0  0  0
  -26.0320  -32.1570   23.6690 C   0  0  0  0  0  3  0  0  0  0  0  0
  -25.6820  -33.5180   24.0970 N   0  0  0  0  0  0  0  0  0  0  0  0
  -25.9730  -34.6310   23.4090 C   0  0  0  0  0  0  0  0  0  0  0  0
  -26.6400  -34.6200   22.3710 O   0  0  0  0  0  0  0  0  0  0  0  0
  -25.0920  -33.5990   24.9130 H   0  0  0  0  0  0  0  0  0  0  0  0
  -24.1840  -36.3820   23.1800 C   0  0  0  0  0  1  0  0  0  0  0  0
  -25.4410  -35.9660   23.9600 C   0  0  0  0  0  3  0  0  0  0  0  0
  -27.5480  -36.8650   24.8450 C   0  0  0  0  0  1  0  0  0  0  0  0
  -26.4350  -37.0600   23.9190 N   0  0  0  0  0  0  0  0  0  0  0  0
  -25.9980  -37.9510   24.1340 H   0  0  0  0  0  0  0  0  0  0  0  0
  -26.6100  -31.3230   24.8780 C   0  0  1  0  0  0  0  0  0  0  0  0
  -25.5600  -30.9860   25.9610 C   0  0  0  0  0  1  0  0  0  0  0  0
  -27.2190  -29.9900   24.3810 C   0  0  0  0  0  1  0  0  0  0  0  0
  -27.7600  -32.1070   25.5560 C   0  0  0  0  0  1  0  0  0  0  0  0
  -30.9130  -19.7360   20.0920 C   0  0  0  0  0  0  0  0  0  0  0  0
  -31.2050  -19.9800   21.2690 O   0  0  0  0  0  0  0  0  0  0  0  0
  -30.8400  -18.2300   19.6370 C   0  0  0  0  0  2  0  0  0  0  0  0
  -29.8290  -17.3320   20.4610 C   0  0  0  0  0  3  0  0  0  0  0  0
  -30.8170  -14.8800   20.2340 C   0  0  0  0  0  0  0  0  0  0  0  0
  -30.8280  -12.4730   19.6070 C   0  0  0  0  0  2  0  0  0  0  0  0
  -29.9130  -12.2920   18.3750 C   0  0  0  0  0  2  0  0  0  0  0  0
  -28.4350  -12.1250   18.7880 C   0  0  0  0  0  2  0  0  0  0  0  0
  -27.9780  -13.1780   19.8330 C   0  0  0  0  0  3  0  0  0  0  0  0
  -29.0090  -13.2960   20.9780 C   0  0  0  0  0  2  0  0  0  0  0  0
  -30.3120  -13.6200   20.3710 N   0  0  0  0  0  0  0  0  0  0  0  0
  -31.9810  -15.1030   19.8870 O   0  0  0  0  0  0  0  0  0  0  0  0
  -29.8710  -15.8490   20.3250 N   0  0  0  0  0  0  0  0  0  0  0  0
  -28.9630  -15.4430   20.4920 H   0  0  0  0  0  0  0  0  0  0  0  0
  -25.6200  -13.7810   20.6590 C   0  0  0  0  0  0  0  0  0  0  0  0
  -24.5440  -13.0200   21.0120 C   0  0  0  0  0  0  0  0  0  0  0  0
  -24.9670  -11.6650   20.8730 C   0  0  0  0  0  0  0  0  0  0  0  0
  -26.6370  -12.8990   20.3390 N   0  0  0  0  0  0  0  0  0  0  0  0
  -26.2470  -11.6120   20.5230 N   0  0  0  0  0  0  0  0  0  0  0  0
  -24.2080  -10.4160   20.9960 C   0  0  0  0  0  0  0  0  0  0  0  0
  -24.6050   -9.3990   21.8910 C   0  0  0  0  0  3  0  0  0  0  0  0
  -23.8490   -8.2140   22.0030 C   0  0  0  0  0  3  0  0  0  0  0  0
  -22.6810   -8.0410   21.2220 C   0  0  0  0  0  0  0  0  0  0  0  0
  -22.3010   -9.0500   20.3180 C   0  0  0  0  0  3  0  0  0  0  0  0
  -23.0590  -10.2260   20.2030 C   0  0  0  0  0  3  0  0  0  0  0  0
  -21.9000   -6.9130   21.2460 O   0  0  0  0  0  0  0  0  0  0  0  0
  -21.6860   -6.2090   22.4030 C   0  0  0  0  0  0  0  0  0  0  0  0
  -21.1330   -6.8150   23.5530 C   0  0  0  0  0  3  0  0  0  0  0  0
  -20.8700   -6.0400   24.6990 C   0  0  0  0  0  3  0  0  0  0  0  0
  -21.1430   -4.6600   24.6950 C   0  0  0  0  0  0  0  0  0  0  0  0
  -21.6860   -4.0510   23.5490 C   0  0  0  0  0  3  0  0  0  0  0  0
  -21.9530   -4.8240   22.4050 C   0  0  0  0  0  0  0  0  0  0  0  0
  -22.4590   -4.2300   21.2970 F   0  0  0  0  0  0  0  0  0  0  0  0
  -20.8780   -3.9150   25.7940 F   0  0  0  0  0  0  0  0  0  0  0  0
  -23.1740  -13.5230   21.3660 C   0  0  0  0  0  0  0  0  0  0  0  0
  -22.4600  -12.8080   22.2280 N   0  0  0  0  0  0  0  0  0  0  0  0
  -22.7480  -14.5860   20.9150 O   0  0  0  0  0  0  0  0  0  0  0  0
  -22.8140  -11.9470   22.6170 H   0  0  0  0  0  0  0  0  0  0  0  0
  -21.5390  -13.1220   22.4950 H   0  0  0  0  0  0  0  0  0  0  0  0
  -25.7970  -15.1510   20.5680 N   0  0  0  0  0  0  0  0  0  0  0  0
  -25.0590  -15.7890   20.8350 H   0  0  0  0  0  0  0  0  0  0  0  0
  -26.6750  -15.6290   20.4090 H   0  0  0  0  0  0  0  0  0  0  0  0
  -25.7880  -18.3830   19.1800 C   0  0  0  0  0  3  0  0  0  0  0  0
  -26.3560  -17.1440   18.8490 C   0  0  0  0  0  3  0  0  0  0  0  0
  -26.5100  -19.2920   19.9720 C   0  0  0  0  0  3  0  0  0  0  0  0
  -27.6430  -16.8190   19.3090 C   0  0  0  0  0  3  0  0  0  0  0  0
  -27.8140  -18.9840   20.4370 C   0  0  0  0  0  0  0  0  0  0  0  0
  -28.3950  -17.7350   20.0790 C   0  0  0  0  0  0  0  0  0  0  0  0
  -27.8920  -21.3550   21.4980 C   0  0  0  0  0  1  0  0  0  0  0  0
  -28.5810  -19.9960   21.2890 C   0  0  0  0  0  2  0  0  0  0  0  0
  -29.6400  -20.6980   17.9830 C   0  0  0  0  0  2  0  0  0  0  0  0
  -27.2020  -20.9600   17.1980 C   0  0  0  0  0  1  0  0  0  0  0  0
  -28.2330  -21.2530   18.2960 C   0  0  0  0  0  2  0  0  0  0  0  0
  1 99  1  0
  1  2  1  0
  1 49  1  0
  2  3  1  0
  2  4  1  0
  5  2  1  0
  6  5  1  0
  6  7  1  0
  8 10  1  0
  8  7  1  0
  9 20  2  0
 10 15  1  0
 11 19  1  0
 11 21  1  0
 12 18  1  0
 12 14  1  0
 13 19  1  0
 14 13  1  0
 15 14  2  0
 16 17  1  0
 16 10  2  0
 17 12  2  0
 18 11  1  0
 19  9  1  0
 21 23  2  0
 22 21  1  0
 24 22  1  0
 25 34  2  0
 25 30  1  0
 26 22  1  0
 26 30  1  0
 27 26  1  0
 28 29  1  0
 28 27  1  0
 29 25  1  0
 30 31  2  0
 31 32  1  0
 33 32  2  0
 34 33  1  0
 35  9  1  0
 35 36  1  0
 35 45  1  0
 36 39  1  0
 37 41  1  0
 37 36  1  0
 38 37  2  0
 41 40  1  0
 43 41  1  0
 43 44  1  0
 43 42  1  0
 45 48  1  1
 45 46  1  0
 47 45  1  0
 49 50  2  0
 51 49  1  0
 52 51  1  0
 53 61  1  0
 53 59  1  0
 54 59  1  0
 55 56  1  0
 55 54  1  0
 57 56  1  0
 57 66  1  0
 57 58  1  0
 59 58  1  0
 60 53  2  0
 61 52  1  0
 61 62  1  0
 63 64  2  0
 64 83  1  0
 65 68  1  0
 65 64  1  0
 66 67  1  0
 66 63  1  0
 67 65  2  0
 68 69  1  0
 69 70  2  0
 71 74  1  0
 71 70  1  0
 72 71  2  0
 73 72  1  0
 73 68  2  0
 74 75  1  0
 75 80  2  0
 75 76  1  0
 76 77  2  0
 78 77  1  0
 78 82  1  0
 79 78  2  0
 80 79  1  0
 81 80  1  0
 83 84  1  0
 84 87  1  0
 84 86  1  0
 85 83  2  0
 88 63  1  0
 88 89  1  0
 90 88  1  0
 91 93  1  0
 92 91  2  0
 92 94  1  0
 93 95  2  0
 94 96  2  0
 95 98  1  0
 96 95  1  0
 96 52  1  0
 98 97  1  0
 99101  1  0
100101  1  0
M  ISO  4   7 101   8 101  53 100  61 100
M  END
>  <TORSDO>  (16) 
F 27

>  <SCORE>  (16) 
-8.219

>  <name>  (16) 
16

>  <ligand_id>  (16) 
16

>  <original_smiles>  (16) 
[H]c1c([H])c([H])c(C([H])(N([H])C(=O)N2C([H])([H])C([H])([H])C([H])([H])C([H])(n3nc(-c4c([H])c([H])c(Oc5c([H])c([H])c(F)c([H])c5F)c([H])c4[H])c(C(=O)N([H])[H])c3N([H])[H])C2([H])[H])C([H])([H])C(=O)C([H])(C([H])([H])C([H])([H])C([H])([H])[H])[N+]([H])([H])C([H])([H])C([H])([H])C([H])([H])Oc2c([H])c([H])c3c(c2[H])C([H])([H])N(C(=O)C([H])(N([H])C(=O)C([H])(N([H])C([H])([H])[H])C([H])([H])[H])C(C([H])([H])[H])(C([H])([H])[H])C([H])([H])[H])C([H])(C(=O)N([H])C2([H])c4c([H])c([H])c([H])c([H])c4C([H])([H])C([H])([H])C2([H])[H])C3([H])[H])c(C([H])([H])C([H])([H])[H])c1[H]

>  <smiles>  (16) 
[H]c1c([H])c([H])c(C([H])(N([H])C(=O)N2C([H])([H])C([H])([H])C([H])([H])C([H])(n3nc(-c4c([H])c([H])c(Oc5c([H])c([H])c(F)c([H])c5F)c([H])c4[H])c(C(=O)N([H])[H])c3N([H])[H])C2([H])[H])C([H])([H])C(=O)C([H])(C([H])([H])C([H])([H])C([H])([H])[H])[N+]([H])([H])C([H])([H])C([H])([H])C([H])([H])Oc2c([H])c([H])c3c(c2[H])C([H])([H])N(C(=O)C([H])(N([H])C(=O)C([H])(N([H])C([H])([H])[H])C([H])([H])[H])C(C([H])([H])[H])(C([H])([H])[H])C([H])([H])[H])C([H])(C(=O)N([H])C2([H])c4c([H])c([H])c([H])c([H])c4C([H])([H])C([H])([H])C2([H])[H])C3([H])[H])c(C([H])([H])C([H])([H])[H])c1[H]

$$$$
17:0:0
     RDKit          3D

 88 97  0  0  1  0  0  0  0  0999 V2000
  -30.3190  -19.9590   21.7400 C   0  0  0  0  0  2  0  0  0  0  0  0
  -30.7700  -21.6200   19.6760 C   0  0  0  0  0  2  0  0  0  0  0  0
  -29.2570  -19.5720   20.6750 C   0  0  0  0  0  3  0  0  0  0  0  0
  -30.5920  -21.3300   21.1430 C   0  0  0  0  0  3  0  0  0  0  0  0
  -29.3980  -21.2930   20.2260 C   0  0  2  0  0  0  0  0  0  0  0  0
  -30.4320  -15.3540   20.1970 C   0  0  0  0  0  0  0  0  0  0  0  0
  -30.3920  -12.9070   19.3460 C   0  0  0  0  0  2  0  0  0  0  0  0
  -29.4690  -12.7300   18.1130 C   0  0  0  0  0  2  0  0  0  0  0  0
  -28.0230  -12.4530   18.5560 C   0  0  0  0  0  2  0  0  0  0  0  0
  -27.5800  -13.4010   19.6990 C   0  0  0  0  0  3  0  0  0  0  0  0
  -28.6340  -13.5410   20.8210 C   0  0  0  0  0  2  0  0  0  0  0  0
  -29.8670  -14.0440   20.1930 N   0  0  0  0  0  0  0  0  0  0  0  0
  -31.6300  -15.3370   19.8810 O   0  0  0  0  0  0  0  0  0  0  0  0
  -29.9430  -18.0540   20.0840 C   0  0  0  0  0  0  0  0  0  0  0  0
  -29.6970  -16.6280   20.4120 N   0  0  0  0  0  0  0  0  0  0  0  0
  -30.8340  -18.2460   19.2530 O   0  0  0  0  0  0  0  0  0  0  0  0
  -28.8200  -16.4920   20.8910 H   0  0  0  0  0  0  0  0  0  0  0  0
  -25.2090  -13.9350   20.4660 C   0  0  0  0  0  0  0  0  0  0  0  0
  -24.1580  -13.1480   20.8450 C   0  0  0  0  0  0  0  0  0  0  0  0
  -24.6380  -11.8030   20.8140 C   0  0  0  0  0  0  0  0  0  0  0  0
  -26.2580  -13.0700   20.2160 N   0  0  0  0  0  0  0  0  0  0  0  0
  -25.9280  -11.7810   20.4940 N   0  0  0  0  0  0  0  0  0  0  0  0
  -23.9240  -10.5340   21.0110 C   0  0  0  0  0  0  0  0  0  0  0  0
  -24.3680   -9.5710   21.9440 C   0  0  0  0  0  3  0  0  0  0  0  0
  -23.6510   -8.3700   22.1300 C   0  0  0  0  0  3  0  0  0  0  0  0
  -22.4740   -8.1220   21.3850 C   0  0  0  0  0  0  0  0  0  0  0  0
  -22.0480   -9.0730   20.4410 C   0  0  0  0  0  3  0  0  0  0  0  0
  -22.7670  -10.2660   20.2520 C   0  0  0  0  0  3  0  0  0  0  0  0
  -21.7270   -6.9730   21.4800 O   0  0  0  0  0  0  0  0  0  0  0  0
  -21.6950   -6.2290   22.6330 C   0  0  0  0  0  0  0  0  0  0  0  0
  -21.2730   -6.7790   23.8640 C   0  0  0  0  0  3  0  0  0  0  0  0
  -21.1880   -5.9620   25.0070 C   0  0  0  0  0  3  0  0  0  0  0  0
  -21.5160   -4.5950   24.9240 C   0  0  0  0  0  0  0  0  0  0  0  0
  -21.9300   -4.0450   23.6980 C   0  0  0  0  0  3  0  0  0  0  0  0
  -22.0160   -4.8590   22.5560 C   0  0  0  0  0  0  0  0  0  0  0  0
  -22.3970   -4.3180   21.3730 F   0  0  0  0  0  0  0  0  0  0  0  0
  -21.4270   -3.8070   26.0210 F   0  0  0  0  0  0  0  0  0  0  0  0
  -22.7580  -13.6140   21.1200 C   0  0  0  0  0  0  0  0  0  0  0  0
  -22.0390  -12.9140   21.9920 N   0  0  0  0  0  0  0  0  0  0  0  0
  -22.3090  -14.6320   20.5960 O   0  0  0  0  0  0  0  0  0  0  0  0
  -22.4160  -12.0920   22.4390 H   0  0  0  0  0  0  0  0  0  0  0  0
  -21.1000  -13.2090   22.2160 H   0  0  0  0  0  0  0  0  0  0  0  0
  -25.3570  -15.3070   20.2840 N   0  0  0  0  0  0  0  0  0  0  0  0
  -24.5810  -15.9520   20.3910 H   0  0  0  0  0  0  0  0  0  0  0  0
  -26.1890  -15.7500   19.9160 H   0  0  0  0  0  0  0  0  0  0  0  0
  -28.4120  -22.7370   20.5750 C   0  0  0  0  0  2  0  0  0  0  0  0
  -28.3800  -24.4120   19.8970 C   0  0  0  0  0  2  0  0  0  0  0  0
  -28.2500  -25.9730   20.4180 O   0  0  0  0  0  0  0  0  0  0  0  0
  -24.6310  -31.9180   23.2470 C   0  0  0  0  0  0  0  0  0  0  0  0
  -27.2190  -27.0380   20.2710 C   0  0  0  0  0  0  0  0  0  0  0  0
  -23.4450  -30.5040   21.6150 C   0  0  0  0  0  3  0  0  0  0  0  0
  -24.9050  -28.8950   20.2020 C   0  0  0  0  0  0  0  0  0  0  0  0
  -26.0090  -30.7290   21.4720 C   0  0  0  0  0  2  0  0  0  0  0  0
  -26.0840  -29.3150   20.8270 C   0  0  0  0  0  0  0  0  0  0  0  0
  -27.2310  -28.4030   20.8410 C   0  0  0  0  0  3  0  0  0  0  0  0
  -26.0130  -26.7660   19.5900 C   0  0  0  0  0  3  0  0  0  0  0  0
  -24.8920  -27.6410   19.5640 C   0  0  0  0  0  3  0  0  0  0  0  0
  -23.6790  -29.8080   20.2440 C   0  0  0  0  0  2  0  0  0  0  0  0
  -24.7170  -31.0790   22.1660 N   0  0  0  0  0  0  0  0  0  0  0  0
  -23.5410  -32.2080   23.7640 O   0  0  0  0  0  0  0  0  0  0  0  0
  -22.7540  -29.5140   22.5900 C   0  0  0  0  0  0  0  0  0  0  0  0
  -21.4260  -29.3420   22.4620 N   0  0  0  0  0  0  0  0  0  0  0  0
  -23.4200  -28.9000   23.4260 O   0  0  0  0  0  0  0  0  0  0  0  0
  -20.9410  -29.8880   21.7630 H   0  0  0  0  0  0  0  0  0  0  0  0
  -18.0490  -28.1150   22.9670 C   0  0  0  0  0  0  0  0  0  0  0  0
  -20.6050  -28.4070   23.2400 C   0  0  0  0  0  3  0  0  0  0  0  0
  -20.7230  -26.9690   22.6840 C   0  0  0  0  0  2  0  0  0  0  0  0
  -19.6280  -26.6250   21.6670 C   0  0  0  0  0  2  0  0  0  0  0  0
  -18.2420  -26.7630   22.3030 C   0  0  0  0  0  2  0  0  0  0  0  0
  -19.1580  -28.8940   23.3930 C   0  0  0  0  0  0  0  0  0  0  0  0
  -18.9210  -30.1570   23.9780 C   0  0  0  0  0  3  0  0  0  0  0  0
  -17.6090  -30.6430   24.1380 C   0  0  0  0  0  3  0  0  0  0  0  0
  -16.5160  -29.8630   23.7250 C   0  0  0  0  0  3  0  0  0  0  0  0
  -16.7360  -28.6000   23.1460 C   0  0  0  0  0  3  0  0  0  0  0  0
  -25.8990  -32.5700   23.8770 C   0  0  0  0  0  3  0  0  0  0  0  0
  -25.5780  -33.9730   24.1950 N   0  0  0  0  0  0  0  0  0  0  0  0
  -25.9120  -35.0270   23.4390 C   0  0  0  0  0  0  0  0  0  0  0  0
  -26.5840  -34.9230   22.4110 O   0  0  0  0  0  0  0  0  0  0  0  0
  -24.9760  -34.1270   24.9920 H   0  0  0  0  0  0  0  0  0  0  0  0
  -24.1820  -36.8250   23.0850 C   0  0  0  0  0  1  0  0  0  0  0  0
  -25.4240  -36.4190   23.8940 C   0  0  0  0  0  3  0  0  0  0  0  0
  -27.5580  -37.3130   24.7230 C   0  0  0  0  0  1  0  0  0  0  0  0
  -26.4560  -37.4740   23.7770 N   0  0  0  0  0  0  0  0  0  0  0  0
  -26.0480  -38.3940   23.9190 H   0  0  0  0  0  0  0  0  0  0  0  0
  -26.4010  -31.8220   25.1750 C   0  0  1  0  0  0  0  0  0  0  0  0
  -25.2950  -31.6050   26.2360 C   0  0  0  0  0  1  0  0  0  0  0  0
  -26.9880  -30.4370   24.8230 C   0  0  0  0  0  1  0  0  0  0  0  0
  -27.5450  -32.6290   25.8360 C   0  0  0  0  0  1  0  0  0  0  0  0
  2  5  1  0
  3 14  1  0
  3  1  1  0
  4  2  1  0
  4  1  1  0
  5 46  1  6
  5  3  1  0
  5  4  1  0
  6 15  1  0
  7 12  1  0
  8  9  1  0
  8  7  1  0
 10  9  1  0
 10 21  1  0
 10 11  1  0
 12  6  1  0
 12 11  1  0
 13  6  2  0
 14 15  1  0
 15 17  1  0
 16 14  2  0
 18 19  2  0
 19 38  1  0
 20 19  1  0
 20 23  1  0
 21 18  1  0
 21 22  1  0
 22 20  2  0
 23 24  1  0
 24 25  2  0
 26 29  1  0
 26 25  1  0
 27 26  2  0
 28 27  1  0
 28 23  2  0
 29 30  1  0
 30 31  1  0
 31 32  2  0
 33 32  1  0
 33 37  1  0
 34 33  2  0
 35 30  2  0
 35 34  1  0
 36 35  1  0
 38 39  1  0
 39 42  1  0
 39 41  1  0
 40 38  2  0
 43 44  1  0
 43 18  1  0
 45 43  1  0
 47 48  1  0
 47 46  1  0
 49 60  2  0
 50 48  1  0
 50 55  1  0
 51 59  1  0
 51 61  1  0
 52 58  1  0
 52 54  1  0
 53 59  1  0
 54 55  2  0
 54 53  1  0
 56 50  2  0
 57 56  1  0
 57 52  2  0
 58 51  1  0
 59 49  1  0
 61 63  2  0
 62 61  1  0
 64 62  1  0
 65 74  2  0
 65 70  1  0
 66 62  1  0
 66 70  1  0
 67 66  1  0
 68 69  1  0
 68 67  1  0
 69 65  1  0
 70 71  2  0
 71 72  1  0
 73 72  2  0
 74 73  1  0
 75 49  1  0
 75 76  1  0
 75 85  1  0
 76 79  1  0
 77 81  1  0
 77 76  1  0
 78 77  2  0
 81 80  1  0
 83 81  1  0
 83 84  1  0
 83 82  1  0
 85 88  1  1
 85 86  1  0
 87 85  1  0
M  ISO  4   6 100  15 100  47 101  48 101
M  END
>  <TORSDO>  (17) 
F 18

>  <SCORE>  (17) 
-16.593

>  <name>  (17) 
17

>  <ligand_id>  (17) 
17

>  <original_smiles>  (17) 
[H]c1c([H])c([H])c2c(c1[H])C([H])([H])C([H])([H])C([H])([H])C2([H])N([H])C(=O)C1([H])N(C(=O)C([H])(N([H])C(=O)C([H])(N([H])C([H])([H])[H])C([H])([H])[H])C(C([H])([H])[H])(C([H])([H])[H])C([H])([H])[H])C([H])([H])c2c([H])c(OC([H])([H])C([H])([H])C34C([H])([H])C3([H])C([H])([H])C4([H])C(=O)N([H])C(=O)N3C([H])([H])C([H])([H])C([H])([H])C([H])(n4nc(-c5c([H])c([H])c(Oc6c([H])c([H])c(F)c([H])c6F)c([H])c5[H])c(C(=O)N([H])[H])c4N([H])[H])C3([H])[H])c([H])c([H])c2C1([H])[H]

>  <smiles>  (17) 
[H]c1c([H])c([H])c2c(c1[H])C([H])([H])C([H])([H])C([H])([H])C2([H])N([H])C(=O)C1([H])N(C(=O)C([H])(N([H])C(=O)C([H])(N([H])C([H])([H])[H])C([H])([H])[H])C(C([H])([H])[H])(C([H])([H])[H])C([H])([H])[H])C([H])([H])c2c([H])c(OC([H])([H])C([H])([H])C34C([H])([H])C3([H])C([H])([H])C4([H])C(=O)N([H])C(=O)N3C([H])([H])C([H])([H])C([H])([H])C([H])(n4nc(-c5c([H])c([H])c(Oc6c([H])c([H])c(F)c([H])c6F)c([H])c5[H])c(C(=O)N([H])[H])c4N([H])[H])C3([H])[H])c([H])c([H])c2C1([H])[H]

$$$$
18:0:0
     RDKit          3D

 89 96  0  0  1  0  0  0  0  0999 V2000
  -28.9580  -21.3430   19.7290 C   0  0  0  0  0  2  0  0  0  0  0  0
  -28.7830  -22.9420   20.4140 C   0  0  0  0  0  0  0  0  0  0  0  0
  -29.2740  -23.0680   21.5390 O   0  0  0  0  0  0  0  0  0  0  0  0
  -28.0310  -24.3830   19.7780 C   0  0  0  0  0  2  0  0  0  0  0  0
  -28.2040  -25.9460   20.2480 O   0  0  0  0  0  0  0  0  0  0  0  0
  -24.6620  -31.8770   23.2250 C   0  0  0  0  0  0  0  0  0  0  0  0
  -27.1960  -27.0350   20.1600 C   0  0  0  0  0  0  0  0  0  0  0  0
  -23.4510  -30.4830   21.5960 C   0  0  0  0  0  3  0  0  0  0  0  0
  -24.8870  -28.8920   20.1470 C   0  0  0  0  0  0  0  0  0  0  0  0
  -26.0120  -30.7080   21.4180 C   0  0  0  0  0  2  0  0  0  0  0  0
  -26.0790  -29.3030   20.7580 C   0  0  0  0  0  0  0  0  0  0  0  0
  -27.2260  -28.3930   20.7440 C   0  0  0  0  0  3  0  0  0  0  0  0
  -25.9780  -26.7760   19.4920 C   0  0  0  0  0  3  0  0  0  0  0  0
  -24.8600  -27.6490   19.4950 C   0  0  0  0  0  3  0  0  0  0  0  0
  -23.6640  -29.8050   20.2150 C   0  0  0  0  0  2  0  0  0  0  0  0
  -24.7310  -31.0480   22.1340 N   0  0  0  0  0  0  0  0  0  0  0  0
  -23.5780  -32.1610   23.7620 O   0  0  0  0  0  0  0  0  0  0  0  0
  -22.7730  -29.4810   22.5680 C   0  0  0  0  0  0  0  0  0  0  0  0
  -21.4440  -29.3010   22.4490 N   0  0  0  0  0  0  0  0  0  0  0  0
  -23.4490  -28.8650   23.3960 O   0  0  0  0  0  0  0  0  0  0  0  0
  -20.9520  -29.8500   21.7570 H   0  0  0  0  0  0  0  0  0  0  0  0
  -18.0790  -28.0520   22.9670 C   0  0  0  0  0  0  0  0  0  0  0  0
  -20.6350  -28.3580   23.2260 C   0  0  0  0  0  3  0  0  0  0  0  0
  -20.7550  -26.9230   22.6600 C   0  0  0  0  0  2  0  0  0  0  0  0
  -19.6570  -26.5780   21.6490 C   0  0  0  0  0  2  0  0  0  0  0  0
  -18.2750  -26.7050   22.2940 C   0  0  0  0  0  2  0  0  0  0  0  0
  -19.1860  -28.8360   23.3900 C   0  0  0  0  0  0  0  0  0  0  0  0
  -18.9460  -30.0940   23.9830 C   0  0  0  0  0  3  0  0  0  0  0  0
  -17.6330  -30.5720   24.1540 C   0  0  0  0  0  3  0  0  0  0  0  0
  -16.5410  -29.7870   23.7450 C   0  0  0  0  0  3  0  0  0  0  0  0
  -16.7640  -28.5300   23.1580 C   0  0  0  0  0  3  0  0  0  0  0  0
  -25.9400  -32.5200   23.8450 C   0  0  0  0  0  3  0  0  0  0  0  0
  -25.6280  -33.9210   24.1730 N   0  0  0  0  0  0  0  0  0  0  0  0
  -25.9440  -34.9770   23.4120 C   0  0  0  0  0  0  0  0  0  0  0  0
  -26.5920  -34.8750   22.3680 O   0  0  0  0  0  0  0  0  0  0  0  0
  -25.0450  -34.0750   24.9840 H   0  0  0  0  0  0  0  0  0  0  0  0
  -24.2060  -36.7750   23.1060 C   0  0  0  0  0  1  0  0  0  0  0  0
  -25.4690  -36.3680   23.8820 C   0  0  0  0  0  3  0  0  0  0  0  0
  -27.6180  -37.2680   24.6600 C   0  0  0  0  0  1  0  0  0  0  0  0
  -26.4960  -37.4240   23.7380 N   0  0  0  0  0  0  0  0  0  0  0  0
  -26.0910  -38.3430   23.8840 H   0  0  0  0  0  0  0  0  0  0  0  0
  -26.4530  -31.7620   25.1320 C   0  0  1  0  0  0  0  0  0  0  0  0
  -25.3580  -31.5380   26.2010 C   0  0  0  0  0  1  0  0  0  0  0  0
  -27.0360  -30.3780   24.7630 C   0  0  0  0  0  1  0  0  0  0  0  0
  -27.6030  -32.5620   25.7870 C   0  0  0  0  0  1  0  0  0  0  0  0
  -29.1920  -19.6990   20.4270 C   0  0  0  0  0  3  0  0  0  0  0  0
  -27.9640  -19.3250   21.1480 N   0  0  0  0  0  4  0  0  0  0  0  0
  -27.2200  -19.1090   20.5080 H   0  0  0  0  0  0  0  0  0  0  0  0
  -27.6630  -20.0680   21.7520 H   0  0  0  0  0  0  0  0  0  0  0  0
  -28.1350  -18.5200   21.7220 H   0  0  0  0  0  0  0  0  0  0  0  0
  -29.8630  -18.1830   19.7380 C   0  0  0  0  0  2  0  0  0  0  0  0
  -30.4780  -15.3170   19.9020 C   0  0  0  0  0  0  0  0  0  0  0  0
  -30.3690  -12.9050   18.9730 C   0  0  0  0  0  2  0  0  0  0  0  0
  -29.3680  -12.7710   17.7970 C   0  0  0  0  0  2  0  0  0  0  0  0
  -27.9450  -12.5060   18.3210 C   0  0  0  0  0  2  0  0  0  0  0  0
  -27.5860  -13.4270   19.5140 C   0  0  0  0  0  3  0  0  0  0  0  0
  -28.7090  -13.5130   20.5710 C   0  0  0  0  0  2  0  0  0  0  0  0
  -29.9060  -14.0160   19.8810 N   0  0  0  0  0  0  0  0  0  0  0  0
  -31.6580  -15.3370   19.5270 O   0  0  0  0  0  0  0  0  0  0  0  0
  -29.7310  -16.5710   20.1390 N   0  0  0  0  0  0  0  0  0  0  0  0
  -28.8070  -16.3470   20.4760 H   0  0  0  0  0  0  0  0  0  0  0  0
  -25.2740  -13.9720   20.4410 C   0  0  0  0  0  0  0  0  0  0  0  0
  -24.2350  -13.1890   20.8590 C   0  0  0  0  0  0  0  0  0  0  0  0
  -24.6900  -11.8380   20.7540 C   0  0  0  0  0  0  0  0  0  0  0  0
  -26.2920  -13.1020   20.0990 N   0  0  0  0  0  0  0  0  0  0  0  0
  -25.9580  -11.8100   20.3550 N   0  0  0  0  0  0  0  0  0  0  0  0
  -23.9690  -10.5740   20.9530 C   0  0  0  0  0  0  0  0  0  0  0  0
  -24.4270   -9.5970   21.8630 C   0  0  0  0  0  3  0  0  0  0  0  0
  -23.7030   -8.3990   22.0520 C   0  0  0  0  0  3  0  0  0  0  0  0
  -22.5070   -8.1710   21.3310 C   0  0  0  0  0  0  0  0  0  0  0  0
  -22.0680   -9.1380   20.4080 C   0  0  0  0  0  3  0  0  0  0  0  0
  -22.7930  -10.3250   20.2180 C   0  0  0  0  0  3  0  0  0  0  0  0
  -21.7510   -7.0280   21.4310 O   0  0  0  0  0  0  0  0  0  0  0  0
  -21.7070   -6.2930   22.5900 C   0  0  0  0  0  0  0  0  0  0  0  0
  -21.2480   -6.8460   23.8060 C   0  0  0  0  0  3  0  0  0  0  0  0
  -21.1530   -6.0370   24.9540 C   0  0  0  0  0  3  0  0  0  0  0  0
  -21.5070   -4.6760   24.8900 C   0  0  0  0  0  0  0  0  0  0  0  0
  -21.9580   -4.1230   23.6790 C   0  0  0  0  0  3  0  0  0  0  0  0
  -22.0550   -4.9290   22.5320 C   0  0  0  0  0  0  0  0  0  0  0  0
  -22.4710   -4.3850   21.3620 F   0  0  0  0  0  0  0  0  0  0  0  0
  -21.4080   -3.8960   25.9920 F   0  0  0  0  0  0  0  0  0  0  0  0
  -22.8620  -13.6640   21.2340 C   0  0  0  0  0  0  0  0  0  0  0  0
  -22.1860  -12.9470   22.1260 N   0  0  0  0  0  0  0  0  0  0  0  0
  -22.3990  -14.7060   20.7710 O   0  0  0  0  0  0  0  0  0  0  0  0
  -22.5760  -12.1050   22.5210 H   0  0  0  0  0  0  0  0  0  0  0  0
  -21.2670  -13.2470   22.4160 H   0  0  0  0  0  0  0  0  0  0  0  0
  -25.4280  -15.3480   20.2910 N   0  0  0  0  0  0  0  0  0  0  0  0
  -24.6560  -15.9880   20.4480 H   0  0  0  0  0  0  0  0  0  0  0  0
  -26.2120  -15.7820   19.8230 H   0  0  0  0  0  0  0  0  0  0  0  0
  1  2  1  0
  2  3  2  0
  4  5  1  0
  4  2  1  0
  6 17  2  0
  7  5  1  0
  7 12  1  0
  8 16  1  0
  8 18  1  0
  9 15  1  0
  9 11  1  0
 10 16  1  0
 11 10  1  0
 12 11  2  0
 13 14  1  0
 13  7  2  0
 14  9  2  0
 15  8  1  0
 16  6  1  0
 18 20  2  0
 19 18  1  0
 21 19  1  0
 22 31  2  0
 22 27  1  0
 23 19  1  0
 23 27  1  0
 24 23  1  0
 25 26  1  0
 25 24  1  0
 26 22  1  0
 27 28  2  0
 28 29  1  0
 30 29  2  0
 31 30  1  0
 32  6  1  0
 32 33  1  0
 32 42  1  0
 33 36  1  0
 34 38  1  0
 34 33  1  0
 35 34  2  0
 38 37  1  0
 40 38  1  0
 40 41  1  0
 40 39  1  0
 42 45  1  1
 42 43  1  0
 44 42  1  0
 46  1  1  0
 46 47  1  0
 47 50  1  0
 47 49  1  0
 48 47  1  0
 51 60  1  0
 51 46  1  0
 52 60  1  0
 53 58  1  0
 54 55  1  0
 54 53  1  0
 56 55  1  0
 56 65  1  0
 56 57  1  0
 58 52  1  0
 58 57  1  0
 59 52  2  0
 60 61  1  0
 62 63  2  0
 63 82  1  0
 64 63  1  0
 64 67  1  0
 65 66  1  0
 65 62  1  0
 66 64  2  0
 67 68  1  0
 68 69  2  0
 70 73  1  0
 70 69  1  0
 71 70  2  0
 72 71  1  0
 72 67  2  0
 73 74  1  0
 74 75  1  0
 75 76  2  0
 77 76  1  0
 77 81  1  0
 78 77  2  0
 79 74  2  0
 79 78  1  0
 80 79  1  0
 82 83  1  0
 83 86  1  0
 83 85  1  0
 84 82  2  0
 87 62  1  0
 87 88  1  0
 89 87  1  0
M  ISO  4   4 101   5 101  52 100  60 100
M  END
>  <TORSDO>  (18) 
F 21

>  <SCORE>  (18) 
-15.303

>  <name>  (18) 
18

>  <ligand_id>  (18) 
18

>  <original_smiles>  (18) 
[H]c1c([H])c([H])c2c(c1[H])C([H])([H])C([H])([H])C([H])([H])C2([H])N([H])C(=O)C1([H])N(C(=O)C([H])(N([H])C(=O)C([H])(N([H])C([H])([H])[H])C([H])([H])[H])C(C([H])([H])[H])(C([H])([H])[H])C([H])([H])[H])C([H])([H])c2c([H])c(OC([H])([H])C(=O)C([H])([H])C([H])(C([H])([H])N([H])C(=O)N3C([H])([H])C([H])([H])C([H])([H])C([H])(n4nc(-c5c([H])c([H])c(Oc6c([H])c([H])c(F)c([H])c6F)c([H])c5[H])c(C(=O)N([H])[H])c4N([H])[H])C3([H])[H])[N+]([H])([H])[H])c([H])c([H])c2C1([H])[H]

>  <smiles>  (18) 
[H]c1c([H])c([H])c2c(c1[H])C([H])([H])C([H])([H])C([H])([H])C2([H])N([H])C(=O)C1([H])N(C(=O)C([H])(N([H])C(=O)C([H])(N([H])C([H])([H])[H])C([H])([H])[H])C(C([H])([H])[H])(C([H])([H])[H])C([H])([H])[H])C([H])([H])c2c([H])c(OC([H])([H])C(=O)C([H])([H])C([H])(C([H])([H])N([H])C(=O)N3C([H])([H])C([H])([H])C([H])([H])C([H])(n4nc(-c5c([H])c([H])c(Oc6c([H])c([H])c(F)c([H])c6F)c([H])c5[H])c(C(=O)N([H])[H])c4N([H])[H])C3([H])[H])[N+]([H])([H])[H])c([H])c([H])c2C1([H])[H]

$$$$
19:0:0
     RDKit          3D

 90 97  0  0  1  0  0  0  0  0999 V2000
  -28.8970  -23.7420   19.9820 C   0  0  0  0  0  3  0  0  0  0  0  0
  -30.3400  -23.9720   20.2070 N   0  0  0  0  0  4  0  0  0  0  0  0
  -30.9040  -23.2640   19.7660 H   0  0  0  0  0  0  0  0  0  0  0  0
  -30.5700  -23.9970   21.1870 H   0  0  0  0  0  0  0  0  0  0  0  0
  -30.6140  -24.8500   19.8030 H   0  0  0  0  0  0  0  0  0  0  0  0
  -28.4870  -22.2470   20.4740 C   0  0  0  0  0  3  0  0  0  0  0  0
  -29.2920  -20.9610   19.9170 C   0  0  0  0  0  3  0  0  0  0  0  0
  -28.8330  -19.4770   20.2320 C   0  0  0  0  0  3  0  0  0  0  0  0
  -29.6020  -18.3270   20.1820 C   0  0  0  0  0  3  0  0  0  0  0  0
  -29.1510  -16.8100   20.2920 C   0  0  0  0  0  2  0  0  0  0  0  0
  -30.6660  -14.6830   20.4170 C   0  0  0  0  0  0  0  0  0  0  0  0
  -30.3840  -12.4530   19.3520 C   0  0  0  0  0  2  0  0  0  0  0  0
  -29.4630  -12.5970   18.1240 C   0  0  0  0  0  2  0  0  0  0  0  0
  -27.9880  -12.4330   18.5410 C   0  0  0  0  0  2  0  0  0  0  0  0
  -27.6240  -13.2810   19.7920 C   0  0  0  0  0  3  0  0  0  0  0  0
  -28.6800  -13.1710   20.9120 C   0  0  0  0  0  2  0  0  0  0  0  0
  -29.9820  -13.4950   20.3220 N   0  0  0  0  0  0  0  0  0  0  0  0
  -31.8310  -14.7690   20.0190 O   0  0  0  0  0  0  0  0  0  0  0  0
  -30.0750  -15.8070   20.9430 N   0  0  0  0  0  0  0  0  0  0  0  0
  -30.7890  -16.3190   21.4390 H   0  0  0  0  0  0  0  0  0  0  0  0
  -25.2250  -13.8510   20.4900 C   0  0  0  0  0  0  0  0  0  0  0  0
  -24.1610  -13.0700   20.8580 C   0  0  0  0  0  0  0  0  0  0  0  0
  -24.6370  -11.7220   20.8370 C   0  0  0  0  0  0  0  0  0  0  0  0
  -26.2780  -12.9800   20.2700 N   0  0  0  0  0  0  0  0  0  0  0  0
  -25.9300  -11.6930   20.5340 N   0  0  0  0  0  0  0  0  0  0  0  0
  -23.9130  -10.4560   21.0310 C   0  0  0  0  0  0  0  0  0  0  0  0
  -24.3490   -9.4930   21.9680 C   0  0  0  0  0  3  0  0  0  0  0  0
  -23.6260   -8.2930   22.1490 C   0  0  0  0  0  3  0  0  0  0  0  0
  -22.4530   -8.0490   21.3940 C   0  0  0  0  0  0  0  0  0  0  0  0
  -22.0390   -9.0010   20.4450 C   0  0  0  0  0  3  0  0  0  0  0  0
  -22.7630  -10.1920   20.2610 C   0  0  0  0  0  3  0  0  0  0  0  0
  -21.7050   -6.9010   21.4850 O   0  0  0  0  0  0  0  0  0  0  0  0
  -21.6610   -6.1550   22.6370 C   0  0  0  0  0  0  0  0  0  0  0  0
  -21.2380   -6.7080   23.8650 C   0  0  0  0  0  3  0  0  0  0  0  0
  -21.1460   -5.8910   25.0080 C   0  0  0  0  0  3  0  0  0  0  0  0
  -21.4650   -4.5220   24.9230 C   0  0  0  0  0  0  0  0  0  0  0  0
  -21.8780   -3.9700   23.6980 C   0  0  0  0  0  3  0  0  0  0  0  0
  -21.9750   -4.7840   22.5580 C   0  0  0  0  0  0  0  0  0  0  0  0
  -22.3550   -4.2410   21.3750 F   0  0  0  0  0  0  0  0  0  0  0  0
  -21.3700   -3.7350   26.0200 F   0  0  0  0  0  0  0  0  0  0  0  0
  -22.7590  -13.5380   21.1210 C   0  0  0  0  0  0  0  0  0  0  0  0
  -22.0350  -12.8370   21.9890 N   0  0  0  0  0  0  0  0  0  0  0  0
  -22.3160  -14.5600   20.6000 O   0  0  0  0  0  0  0  0  0  0  0  0
  -22.4050  -12.0080   22.4280 H   0  0  0  0  0  0  0  0  0  0  0  0
  -21.0960  -13.1320   22.2120 H   0  0  0  0  0  0  0  0  0  0  0  0
  -25.3800  -15.2200   20.3000 N   0  0  0  0  0  0  0  0  0  0  0  0
  -24.6150  -15.8750   20.4080 H   0  0  0  0  0  0  0  0  0  0  0  0
  -26.2370  -15.6620   19.9970 H   0  0  0  0  0  0  0  0  0  0  0  0
  -28.0510  -24.9950   20.5610 C   0  0  0  0  0  2  0  0  0  0  0  0
  -28.3030  -26.4200   20.1570 O   0  0  0  0  0  0  0  0  0  0  0  0
  -24.6110  -31.8710   23.2440 C   0  0  0  0  0  0  0  0  0  0  0  0
  -27.2050  -27.3080   20.1510 C   0  0  0  0  0  0  0  0  0  0  0  0
  -23.4010  -30.4820   21.6000 C   0  0  0  0  0  3  0  0  0  0  0  0
  -24.8470  -28.9410   20.1580 C   0  0  0  0  0  0  0  0  0  0  0  0
  -25.9410  -30.7950   21.4160 C   0  0  0  0  0  2  0  0  0  0  0  0
  -26.0210  -29.4170   20.7600 C   0  0  0  0  0  0  0  0  0  0  0  0
  -27.2040  -28.6130   20.7450 C   0  0  0  0  0  3  0  0  0  0  0  0
  -26.0140  -26.9060   19.5080 C   0  0  0  0  0  3  0  0  0  0  0  0
  -24.8490  -27.6920   19.5190 C   0  0  0  0  0  3  0  0  0  0  0  0
  -23.6170  -29.8200   20.2150 C   0  0  0  0  0  2  0  0  0  0  0  0
  -24.6700  -31.0680   22.1440 N   0  0  0  0  0  0  0  0  0  0  0  0
  -23.5290  -32.1500   23.7820 O   0  0  0  0  0  0  0  0  0  0  0  0
  -22.7390  -29.4620   22.5580 C   0  0  0  0  0  0  0  0  0  0  0  0
  -21.4140  -29.2830   22.4320 N   0  0  0  0  0  0  0  0  0  0  0  0
  -23.4180  -28.8420   23.3800 O   0  0  0  0  0  0  0  0  0  0  0  0
  -20.9250  -29.8430   21.7480 H   0  0  0  0  0  0  0  0  0  0  0  0
  -18.0400  -28.0670   22.9190 C   0  0  0  0  0  0  0  0  0  0  0  0
  -20.5960  -28.3410   23.1990 C   0  0  0  0  0  3  0  0  0  0  0  0
  -20.7070  -26.9090   22.6280 C   0  0  0  0  0  2  0  0  0  0  0  0
  -19.6100  -26.5790   21.6080 C   0  0  0  0  0  2  0  0  0  0  0  0
  -18.2260  -26.7180   22.2440 C   0  0  0  0  0  2  0  0  0  0  0  0
  -19.1540  -28.8360   23.3520 C   0  0  0  0  0  0  0  0  0  0  0  0
  -18.9250  -30.0960   23.9450 C   0  0  0  0  0  3  0  0  0  0  0  0
  -17.6170  -30.5920   24.1030 C   0  0  0  0  0  3  0  0  0  0  0  0
  -16.5180  -29.8220   23.6830 C   0  0  0  0  0  3  0  0  0  0  0  0
  -16.7300  -28.5590   23.1010 C   0  0  0  0  0  3  0  0  0  0  0  0
  -25.8960  -32.4990   23.8660 C   0  0  0  0  0  3  0  0  0  0  0  0
  -26.4170  -31.7200   25.1350 C   0  0  1  0  0  0  0  0  0  0  0  0
  -25.3280  -31.4860   26.2060 C   0  0  0  0  0  1  0  0  0  0  0  0
  -26.9940  -30.3430   24.7330 C   0  0  0  0  0  1  0  0  0  0  0  0
  -27.5700  -32.5090   25.7980 C   0  0  0  0  0  1  0  0  0  0  0  0
  -25.5910  -33.8970   24.2050 N   0  0  0  0  0  0  0  0  0  0  0  0
  -25.9160  -34.9550   23.4490 C   0  0  0  0  0  0  0  0  0  0  0  0
  -26.5770  -34.8560   22.4120 O   0  0  0  0  0  0  0  0  0  0  0  0
  -25.0100  -34.0480   25.0170 H   0  0  0  0  0  0  0  0  0  0  0  0
  -24.1890  -36.7490   23.1140 C   0  0  0  0  0  1  0  0  0  0  0  0
  -25.4310  -36.3380   23.9190 C   0  0  0  0  0  3  0  0  0  0  0  0
  -27.5660  -37.2170   24.7530 C   0  0  0  0  0  1  0  0  0  0  0  0
  -26.4620  -37.3920   23.8140 N   0  0  0  0  0  0  0  0  0  0  0  0
  -26.0530  -38.3090   23.9730 H   0  0  0  0  0  0  0  0  0  0  0  0
  1  2  1  0
  1  6  1  0
  1 49  1  0
  2  4  1  0
  3  2  1  0
  5  2  1  0
  7  8  1  0
  7  6  2  0
  9  8  2  0
  9 10  1  0
 10 19  1  0
 11 19  1  0
 12 17  1  0
 13 14  1  0
 13 12  1  0
 15 14  1  0
 15 24  1  0
 15 16  1  0
 17 11  1  0
 17 16  1  0
 18 11  2  0
 19 20  1  0
 21 22  2  0
 22 41  1  0
 23 22  1  0
 23 26  1  0
 24 21  1  0
 24 25  1  0
 25 23  2  0
 26 27  1  0
 27 28  2  0
 29 32  1  0
 29 28  1  0
 30 29  2  0
 31 30  1  0
 31 26  2  0
 32 33  1  0
 33 34  1  0
 34 35  2  0
 36 35  1  0
 36 40  1  0
 37 36  2  0
 38 33  2  0
 38 37  1  0
 39 38  1  0
 41 42  1  0
 42 45  1  0
 42 44  1  0
 43 41  2  0
 46 47  1  0
 46 21  1  0
 48 46  1  0
 50 49  1  0
 51 62  2  0
 52 50  1  0
 52 57  1  0
 53 61  1  0
 53 63  1  0
 54 60  1  0
 54 56  1  0
 55 61  1  0
 56 55  1  0
 57 56  2  0
 58 59  1  0
 58 52  2  0
 59 54  2  0
 60 53  1  0
 61 51  1  0
 63 65  2  0
 64 63  1  0
 66 64  1  0
 67 76  2  0
 67 72  1  0
 68 64  1  0
 68 72  1  0
 69 68  1  0
 70 71  1  0
 70 69  1  0
 71 67  1  0
 72 73  2  0
 73 74  1  0
 75 74  2  0
 76 75  1  0
 77 51  1  0
 77 82  1  0
 77 78  1  0
 78 81  1  1
 78 79  1  0
 80 78  1  0
 82 85  1  0
 83 87  1  0
 83 82  1  0
 84 83  2  0
 87 86  1  0
 89 87  1  0
 89 90  1  0
 89 88  1  0
M  ISO  4  11 100  19 100  49 101  50 101
M  END
>  <TORSDO>  (19) 
F 22

>  <SCORE>  (19) 
-13.150

>  <name>  (19) 
19

>  <ligand_id>  (19) 
19

>  <original_smiles>  (19) 
[H]C(=C([H])C([H])([H])C([H])([H])C([H])(C([H])([H])Oc1c([H])c([H])c2c(c1[H])C([H])([H])N(C(=O)C([H])(N([H])C(=O)C([H])(N([H])C([H])([H])[H])C([H])([H])[H])C(C([H])([H])[H])(C([H])([H])[H])C([H])([H])[H])C([H])(C(=O)N([H])C1([H])c3c([H])c([H])c([H])c([H])c3C([H])([H])C([H])([H])C1([H])[H])C2([H])[H])[N+]([H])([H])[H])C([H])([H])N([H])C(=O)N1C([H])([H])C([H])([H])C([H])([H])C([H])(n2nc(-c3c([H])c([H])c(Oc4c([H])c([H])c(F)c([H])c4F)c([H])c3[H])c(C(=O)N([H])[H])c2N([H])[H])C1([H])[H]

>  <smiles>  (19) 
[H]C(=C([H])C([H])([H])C([H])([H])C([H])(C([H])([H])Oc1c([H])c([H])c2c(c1[H])C([H])([H])N(C(=O)C([H])(N([H])C(=O)C([H])(N([H])C([H])([H])[H])C([H])([H])[H])C(C([H])([H])[H])(C([H])([H])[H])C([H])([H])[H])C([H])(C(=O)N([H])C1([H])c3c([H])c([H])c([H])c([H])c3C([H])([H])C([H])([H])C1([H])[H])C2([H])[H])[N+]([H])([H])[H])C([H])([H])N([H])C(=O)N1C([H])([H])C([H])([H])C([H])([H])C([H])(n2nc(-c3c([H])c([H])c(Oc4c([H])c([H])c(F)c([H])c4F)c([H])c3[H])c(C(=O)N([H])[H])c2N([H])[H])C1([H])[H]

$$$$
20:0:0
     RDKit          3D

 88 97  0  0  1  0  0  0  0  0999 V2000
  -31.3870  -18.6330   22.4380 C   0  0  0  0  0  2  0  0  0  0  0  0
  -29.4510  -20.4470   22.0640 C   0  0  0  0  0  2  0  0  0  0  0  0
  -30.9150  -20.0380   22.1480 C   0  0  0  0  0  3  0  0  0  0  0  0
  -31.2500  -19.0980   21.0090 C   0  0  0  0  0  3  0  0  0  0  0  0
  -29.0720  -20.4450   20.5700 C   0  0  0  0  0  3  0  0  0  0  0  0
  -30.0130  -18.8100   20.1860 C   0  0  0  0  0  3  0  0  0  0  0  0
  -30.5010  -15.7130   20.1510 C   0  0  0  0  0  0  0  0  0  0  0  0
  -30.5510  -13.1980   19.2880 C   0  0  0  0  0  2  0  0  0  0  0  0
  -29.6350  -12.8590   18.0780 C   0  0  0  0  0  2  0  0  0  0  0  0
  -28.2080  -12.5210   18.5410 C   0  0  0  0  0  2  0  0  0  0  0  0
  -27.7300  -13.4850   19.6520 C   0  0  0  0  0  3  0  0  0  0  0  0
  -28.7860  -13.7480   20.7530 C   0  0  0  0  0  2  0  0  0  0  0  0
  -29.9600  -14.3610   20.0870 N   0  0  0  0  0  0  0  0  0  0  0  0
  -31.7200  -15.6600   19.9060 O   0  0  0  0  0  0  0  0  0  0  0  0
  -29.7670  -17.0680   20.2950 N   0  0  0  0  0  0  0  0  0  0  0  0
  -28.7950  -16.8780   20.4840 H   0  0  0  0  0  0  0  0  0  0  0  0
  -25.3800  -13.9790   20.4840 C   0  0  0  0  0  0  0  0  0  0  0  0
  -24.3370  -13.1840   20.8640 C   0  0  0  0  0  0  0  0  0  0  0  0
  -24.8190  -11.8390   20.7950 C   0  0  0  0  0  0  0  0  0  0  0  0
  -26.4250  -13.1240   20.1930 N   0  0  0  0  0  0  0  0  0  0  0  0
  -26.1040  -11.8280   20.4500 N   0  0  0  0  0  0  0  0  0  0  0  0
  -24.1060  -10.5670   20.9790 C   0  0  0  0  0  0  0  0  0  0  0  0
  -24.5290   -9.6140   21.9310 C   0  0  0  0  0  3  0  0  0  0  0  0
  -23.8110   -8.4100   22.1070 C   0  0  0  0  0  3  0  0  0  0  0  0
  -22.6570   -8.1530   21.3320 C   0  0  0  0  0  0  0  0  0  0  0  0
  -22.2520   -9.0940   20.3710 C   0  0  0  0  0  3  0  0  0  0  0  0
  -22.9700  -10.2900   20.1930 C   0  0  0  0  0  3  0  0  0  0  0  0
  -21.9130   -6.9970   21.4120 O   0  0  0  0  0  0  0  0  0  0  0  0
  -21.8010   -6.2920   22.5830 C   0  0  0  0  0  0  0  0  0  0  0  0
  -21.2450   -6.8640   23.7470 C   0  0  0  0  0  3  0  0  0  0  0  0
  -21.0870   -6.0850   24.9100 C   0  0  0  0  0  3  0  0  0  0  0  0
  -21.4780   -4.7310   24.9080 C   0  0  0  0  0  0  0  0  0  0  0  0
  -22.0250   -4.1570   23.7470 C   0  0  0  0  0  3  0  0  0  0  0  0
  -22.1840   -4.9360   22.5880 C   0  0  0  0  0  0  0  0  0  0  0  0
  -22.6940   -4.3720   21.4660 F   0  0  0  0  0  0  0  0  0  0  0  0
  -21.3190   -3.9790   26.0220 F   0  0  0  0  0  0  0  0  0  0  0  0
  -22.9410  -13.6430   21.1640 C   0  0  0  0  0  0  0  0  0  0  0  0
  -22.2290  -12.9250   22.0260 N   0  0  0  0  0  0  0  0  0  0  0  0
  -22.4880  -14.6760   20.6730 O   0  0  0  0  0  0  0  0  0  0  0  0
  -22.6050  -12.0930   22.4550 H   0  0  0  0  0  0  0  0  0  0  0  0
  -21.2900  -13.2160   22.2610 H   0  0  0  0  0  0  0  0  0  0  0  0
  -25.5200  -15.3550   20.3290 N   0  0  0  0  0  0  0  0  0  0  0  0
  -24.7480  -15.9940   20.4830 H   0  0  0  0  0  0  0  0  0  0  0  0
  -26.3420  -15.8110   19.9560 H   0  0  0  0  0  0  0  0  0  0  0  0
  -30.5980  -22.7320   20.2900 C   0  0  0  0  0  1  0  0  0  0  0  0
  -29.1320  -22.3230   20.0980 C   0  0  0  0  0  3  0  0  0  0  0  0
  -28.1830  -23.9700   20.4200 C   0  0  0  0  0  2  0  0  0  0  0  0
  -28.2960  -25.6990   20.1670 O   0  0  0  0  0  0  0  0  0  0  0  0
  -24.6470  -31.8450   23.1600 C   0  0  0  0  0  0  0  0  0  0  0  0
  -27.2780  -26.8640   20.1570 C   0  0  0  0  0  0  0  0  0  0  0  0
  -23.4900  -30.4490   21.4970 C   0  0  0  0  0  3  0  0  0  0  0  0
  -24.9730  -28.8390   20.0850 C   0  0  0  0  0  0  0  0  0  0  0  0
  -26.0640  -30.6410   21.3950 C   0  0  0  0  0  2  0  0  0  0  0  0
  -26.1570  -29.2180   20.7280 C   0  0  0  0  0  0  0  0  0  0  0  0
  -27.2950  -28.2600   20.7290 C   0  0  0  0  0  3  0  0  0  0  0  0
  -26.0580  -26.6840   19.4580 C   0  0  0  0  0  3  0  0  0  0  0  0
  -24.9600  -27.5950   19.4270 C   0  0  0  0  0  3  0  0  0  0  0  0
  -23.7490  -29.7660   20.1230 C   0  0  0  0  0  2  0  0  0  0  0  0
  -24.7570  -31.0100   22.0700 N   0  0  0  0  0  0  0  0  0  0  0  0
  -23.5480  -32.1220   23.6690 O   0  0  0  0  0  0  0  0  0  0  0  0
  -22.7830  -29.4500   22.4540 C   0  0  0  0  0  0  0  0  0  0  0  0
  -21.4560  -29.2700   22.3110 N   0  0  0  0  0  0  0  0  0  0  0  0
  -23.4410  -28.8350   23.2950 O   0  0  0  0  0  0  0  0  0  0  0  0
  -20.9730  -29.8170   21.6130 H   0  0  0  0  0  0  0  0  0  0  0  0
  -18.0830  -28.0030   22.7840 C   0  0  0  0  0  0  0  0  0  0  0  0
  -20.6380  -28.3120   23.0660 C   0  0  0  0  0  3  0  0  0  0  0  0
  -20.7640  -26.8860   22.4790 C   0  0  0  0  0  2  0  0  0  0  0  0
  -19.6760  -26.5560   21.4540 C   0  0  0  0  0  2  0  0  0  0  0  0
  -18.2870  -26.6680   22.0890 C   0  0  0  0  0  2  0  0  0  0  0  0
  -19.1850  -28.7820   23.2280 C   0  0  0  0  0  0  0  0  0  0  0  0
  -18.9340  -30.0280   23.8430 C   0  0  0  0  0  3  0  0  0  0  0  0
  -17.6170  -30.4960   24.0150 C   0  0  0  0  0  3  0  0  0  0  0  0
  -16.5310  -29.7140   23.5840 C   0  0  0  0  0  3  0  0  0  0  0  0
  -16.7650  -28.4690   22.9740 C   0  0  0  0  0  3  0  0  0  0  0  0
  -25.8990  -32.5030   23.8150 C   0  0  0  0  0  3  0  0  0  0  0  0
  -25.5690  -33.9060   24.1330 N   0  0  0  0  0  0  0  0  0  0  0  0
  -25.9180  -34.9670   23.3930 C   0  0  0  0  0  0  0  0  0  0  0  0
  -26.6110  -34.8690   22.3770 O   0  0  0  0  0  0  0  0  0  0  0  0
  -24.9520  -34.0550   24.9190 H   0  0  0  0  0  0  0  0  0  0  0  0
  -24.2080  -36.7790   23.0140 C   0  0  0  0  0  1  0  0  0  0  0  0
  -25.4260  -36.3570   23.8500 C   0  0  0  0  0  3  0  0  0  0  0  0
  -27.5360  -37.2400   24.7500 C   0  0  0  0  0  1  0  0  0  0  0  0
  -26.4640  -37.4090   23.7730 N   0  0  0  0  0  0  0  0  0  0  0  0
  -26.0550  -38.3290   23.9090 H   0  0  0  0  0  0  0  0  0  0  0  0
  -26.3760  -31.7570   25.1250 C   0  0  1  0  0  0  0  0  0  0  0  0
  -25.2440  -31.5240   26.1540 C   0  0  0  0  0  1  0  0  0  0  0  0
  -26.9890  -30.3800   24.7860 C   0  0  0  0  0  1  0  0  0  0  0  0
  -27.4920  -32.5750   25.8170 C   0  0  0  0  0  1  0  0  0  0  0  0
  3  2  1  0
  3  1  1  0
  4  3  1  0
  4  1  1  0
  5 46  1  0
  5  2  1  0
  6 15  1  0
  6  5  1  0
  6  4  1  0
  7 15  1  0
  8 13  1  0
  9 10  1  0
  9  8  1  0
 11 10  1  0
 11 20  1  0
 11 12  1  0
 13  7  1  0
 13 12  1  0
 14  7  2  0
 15 16  1  0
 17 18  2  0
 18 37  1  0
 19 18  1  0
 19 22  1  0
 20 21  1  0
 20 17  1  0
 21 19  2  0
 22 23  1  0
 23 24  2  0
 25 28  1  0
 25 24  1  0
 26 25  2  0
 27 26  1  0
 27 22  2  0
 28 29  1  0
 29 34  2  0
 29 30  1  0
 30 31  2  0
 32 31  1  0
 32 36  1  0
 33 32  2  0
 34 33  1  0
 35 34  1  0
 37 38  1  0
 38 41  1  0
 38 40  1  0
 39 37  2  0
 42 43  1  0
 42 17  1  0
 44 42  1  0
 46 45  1  0
 46 47  1  0
 48 47  1  0
 49 60  2  0
 50 48  1  0
 50 55  1  0
 51 59  1  0
 51 61  1  0
 52 58  1  0
 52 54  1  0
 53 59  1  0
 54 55  2  0
 54 53  1  0
 56 50  2  0
 57 56  1  0
 57 52  2  0
 58 51  1  0
 59 49  1  0
 61 63  2  0
 62 61  1  0
 64 62  1  0
 65 74  2  0
 65 70  1  0
 66 62  1  0
 66 70  1  0
 67 66  1  0
 68 69  1  0
 68 67  1  0
 69 65  1  0
 70 71  2  0
 71 72  1  0
 73 72  2  0
 74 73  1  0
 75 49  1  0
 75 76  1  0
 75 85  1  0
 76 79  1  0
 77 81  1  0
 77 76  1  0
 78 77  2  0
 81 80  1  0
 83 81  1  0
 83 84  1  0
 83 82  1  0
 85 88  1  1
 85 86  1  0
 87 85  1  0
M  ISO  4   7 100  15 100  47 101  48 101
M  END
>  <TORSDO>  (20) 
F 18

>  <SCORE>  (20) 
-16.058

>  <name>  (20) 
20

>  <ligand_id>  (20) 
20

>  <original_smiles>  (20) 
[H]c1c([H])c([H])c2c(c1[H])C([H])([H])C([H])([H])C([H])([H])C2([H])N([H])C(=O)C1([H])N(C(=O)C([H])(N([H])C(=O)C([H])(N([H])C([H])([H])[H])C([H])([H])[H])C(C([H])([H])[H])(C([H])([H])[H])C([H])([H])[H])C([H])([H])c2c([H])c(OC([H])([H])C([H])(C([H])([H])[H])C3([H])C([H])([H])C4([H])C([H])([H])C4([H])C3([H])N([H])C(=O)N3C([H])([H])C([H])([H])C([H])([H])C([H])(n4nc(-c5c([H])c([H])c(Oc6c([H])c([H])c(F)c([H])c6F)c([H])c5[H])c(C(=O)N([H])[H])c4N([H])[H])C3([H])[H])c([H])c([H])c2C1([H])[H]

>  <smiles>  (20) 
[H]c1c([H])c([H])c2c(c1[H])C([H])([H])C([H])([H])C([H])([H])C2([H])N([H])C(=O)C1([H])N(C(=O)C([H])(N([H])C(=O)C([H])(N([H])C([H])([H])[H])C([H])([H])[H])C(C([H])([H])[H])(C([H])([H])[H])C([H])([H])[H])C([H])([H])c2c([H])c(OC([H])([H])C([H])(C([H])([H])[H])C3([H])C([H])([H])C4([H])C([H])([H])C4([H])C3([H])N([H])C(=O)N3C([H])([H])C([H])([H])C([H])([H])C([H])(n4nc(-c5c([H])c([H])c(Oc6c([H])c([H])c(F)c([H])c6F)c([H])c5[H])c(C(=O)N([H])[H])c4N([H])[H])C3([H])[H])c([H])c([H])c2C1([H])[H]

$$$$
21:0:0
     RDKit          3D

 90 99  0  0  1  0  0  0  0  0999 V2000
  -28.9540  -21.2870   20.0680 C   0  0  0  0  0  0  0  0  0  0  0  0
  -28.7170  -21.2410   18.8610 O   0  0  0  0  0  0  0  0  0  0  0  0
  -29.4260  -19.7520   20.7720 C   0  0  0  0  0  2  0  0  0  0  0  0
  -28.4260  -18.2790   17.8190 C   0  0  0  0  0  2  0  0  0  0  0  0
  -28.3120  -17.8920   19.2970 C   0  0  0  0  0  2  0  0  0  0  0  0
  -30.8920  -17.3750   17.7390 C   0  0  0  0  0  2  0  0  0  0  0  0
  -29.8910  -18.4840   17.5580 C   0  0  0  0  0  3  0  0  0  0  0  0
  -30.6420  -18.3690   18.8590 C   0  0  0  0  0  3  0  0  0  0  0  0
  -29.6780  -18.1360   20.0190 C   0  0  1  0  0  0  0  0  0  0  0  0
  -30.7100  -15.3890   20.4760 C   0  0  0  0  0  0  0  0  0  0  0  0
  -30.7110  -12.9370   19.6630 C   0  0  0  0  0  2  0  0  0  0  0  0
  -29.8490  -12.7680   18.3870 C   0  0  0  0  0  2  0  0  0  0  0  0
  -28.3810  -12.5050   18.7610 C   0  0  0  0  0  2  0  0  0  0  0  0
  -27.8850  -13.4740   19.8630 C   0  0  0  0  0  3  0  0  0  0  0  0
  -28.8820  -13.6100   21.0370 C   0  0  0  0  0  2  0  0  0  0  0  0
  -30.1610  -14.0790   20.4800 N   0  0  0  0  0  0  0  0  0  0  0  0
  -31.9020  -15.4180   20.1440 O   0  0  0  0  0  0  0  0  0  0  0  0
  -29.9320  -16.6280   20.6890 N   0  0  0  0  0  0  0  0  0  0  0  0
  -29.1160  -16.3760   21.2280 H   0  0  0  0  0  0  0  0  0  0  0  0
  -25.4790  -14.0290   20.5060 C   0  0  0  0  0  0  0  0  0  0  0  0
  -24.4080  -13.2530   20.8440 C   0  0  0  0  0  0  0  0  0  0  0  0
  -24.8860  -11.9050   20.8520 C   0  0  0  0  0  0  0  0  0  0  0  0
  -26.5360  -13.1580   20.3140 N   0  0  0  0  0  0  0  0  0  0  0  0
  -26.1890  -11.8750   20.5910 N   0  0  0  0  0  0  0  0  0  0  0  0
  -24.1580  -10.6420   21.0300 C   0  0  0  0  0  0  0  0  0  0  0  0
  -24.5520   -9.6910   21.9970 C   0  0  0  0  0  3  0  0  0  0  0  0
  -23.8200   -8.4940   22.1610 C   0  0  0  0  0  3  0  0  0  0  0  0
  -22.6820   -8.2380   21.3610 C   0  0  0  0  0  0  0  0  0  0  0  0
  -22.3080   -9.1790   20.3850 C   0  0  0  0  0  3  0  0  0  0  0  0
  -23.0390  -10.3670   20.2170 C   0  0  0  0  0  3  0  0  0  0  0  0
  -21.9250   -7.0920   21.4370 O   0  0  0  0  0  0  0  0  0  0  0  0
  -21.8200   -6.3770   22.6020 C   0  0  0  0  0  0  0  0  0  0  0  0
  -21.3160   -6.9540   23.7880 C   0  0  0  0  0  3  0  0  0  0  0  0
  -21.1540   -6.1610   24.9430 C   0  0  0  0  0  3  0  0  0  0  0  0
  -21.4890   -4.7960   24.9140 C   0  0  0  0  0  0  0  0  0  0  0  0
  -21.9870   -4.2180   23.7320 C   0  0  0  0  0  3  0  0  0  0  0  0
  -22.1480   -5.0050   22.5780 C   0  0  0  0  0  0  0  0  0  0  0  0
  -22.6060   -4.4390   21.4370 F   0  0  0  0  0  0  0  0  0  0  0  0
  -21.3280   -4.0340   26.0220 F   0  0  0  0  0  0  0  0  0  0  0  0
  -23.0010  -13.7260   21.0520 C   0  0  0  0  0  0  0  0  0  0  0  0
  -22.2410  -13.0440   21.9010 N   0  0  0  0  0  0  0  0  0  0  0  0
  -22.5800  -14.7360   20.4910 O   0  0  0  0  0  0  0  0  0  0  0  0
  -22.5940  -12.2270   22.3760 H   0  0  0  0  0  0  0  0  0  0  0  0
  -21.2970  -13.3490   22.0870 H   0  0  0  0  0  0  0  0  0  0  0  0
  -25.6390  -15.3970   20.3170 N   0  0  0  0  0  0  0  0  0  0  0  0
  -24.8630  -16.0440   20.3890 H   0  0  0  0  0  0  0  0  0  0  0  0
  -26.4860  -15.8340   19.9860 H   0  0  0  0  0  0  0  0  0  0  0  0
  -28.8050  -22.8960   20.7210 C   0  0  0  0  0  2  0  0  0  0  0  0
  -28.0760  -24.3940   20.0520 C   0  0  0  0  0  2  0  0  0  0  0  0
  -28.2230  -26.0060   20.3390 O   0  0  0  0  0  0  0  0  0  0  0  0
  -24.5880  -31.9290   23.1930 C   0  0  0  0  0  0  0  0  0  0  0  0
  -27.2000  -27.0790   20.2200 C   0  0  0  0  0  0  0  0  0  0  0  0
  -23.4110  -30.5140   21.5550 C   0  0  0  0  0  3  0  0  0  0  0  0
  -24.8790  -28.9170   20.1450 C   0  0  0  0  0  0  0  0  0  0  0  0
  -25.9730  -30.7530   21.4180 C   0  0  0  0  0  2  0  0  0  0  0  0
  -26.0560  -29.3440   20.7700 C   0  0  0  0  0  0  0  0  0  0  0  0
  -27.2080  -28.4400   20.7900 C   0  0  0  0  0  3  0  0  0  0  0  0
  -25.9980  -26.8020   19.5340 C   0  0  0  0  0  3  0  0  0  0  0  0
  -24.8730  -27.6660   19.5060 C   0  0  0  0  0  3  0  0  0  0  0  0
  -23.6510  -29.8230   20.1840 C   0  0  0  0  0  2  0  0  0  0  0  0
  -24.6790  -31.0920   22.1090 N   0  0  0  0  0  0  0  0  0  0  0  0
  -23.4960  -32.2150   23.7090 O   0  0  0  0  0  0  0  0  0  0  0  0
  -22.7220  -29.5180   22.5250 C   0  0  0  0  0  0  0  0  0  0  0  0
  -21.3910  -29.3550   22.4060 N   0  0  0  0  0  0  0  0  0  0  0  0
  -23.3890  -28.8960   23.3550 O   0  0  0  0  0  0  0  0  0  0  0  0
  -20.9060  -29.9080   21.7130 H   0  0  0  0  0  0  0  0  0  0  0  0
  -18.0100  -28.1530   22.9360 C   0  0  0  0  0  0  0  0  0  0  0  0
  -20.5740  -28.4150   23.1790 C   0  0  0  0  0  3  0  0  0  0  0  0
  -20.6670  -26.9840   22.6000 C   0  0  0  0  0  2  0  0  0  0  0  0
  -19.5580  -26.6650   21.5940 C   0  0  0  0  0  2  0  0  0  0  0  0
  -18.1810  -26.8070   22.2500 C   0  0  0  0  0  2  0  0  0  0  0  0
  -19.1330  -28.9140   23.3590 C   0  0  0  0  0  0  0  0  0  0  0  0
  -18.9180  -30.1700   23.9630 C   0  0  0  0  0  3  0  0  0  0  0  0
  -17.6140  -30.6680   24.1500 C   0  0  0  0  0  3  0  0  0  0  0  0
  -16.5070  -29.9040   23.7430 C   0  0  0  0  0  3  0  0  0  0  0  0
  -16.7050  -28.6490   23.1400 C   0  0  0  0  0  3  0  0  0  0  0  0
  -25.8540  -32.5850   23.8250 C   0  0  0  0  0  3  0  0  0  0  0  0
  -26.3600  -31.8320   25.1180 C   0  0  1  0  0  0  0  0  0  0  0  0
  -25.2560  -31.6010   26.1770 C   0  0  0  0  0  1  0  0  0  0  0  0
  -26.9580  -30.4540   24.7570 C   0  0  0  0  0  1  0  0  0  0  0  0
  -27.4950  -32.6430   25.7850 C   0  0  0  0  0  1  0  0  0  0  0  0
  -25.5250  -33.9840   24.1510 N   0  0  0  0  0  0  0  0  0  0  0  0
  -25.8710  -35.0490   23.4150 C   0  0  0  0  0  0  0  0  0  0  0  0
  -26.5660  -34.9570   22.4000 O   0  0  0  0  0  0  0  0  0  0  0  0
  -24.9110  -34.1300   24.9400 H   0  0  0  0  0  0  0  0  0  0  0  0
  -24.1670  -36.8620   23.0230 C   0  0  0  0  0  1  0  0  0  0  0  0
  -25.3720  -36.4340   23.8750 C   0  0  0  0  0  3  0  0  0  0  0  0
  -27.4710  -37.3020   24.8100 C   0  0  0  0  0  1  0  0  0  0  0  0
  -26.4120  -37.4840   23.8220 N   0  0  0  0  0  0  0  0  0  0  0  0
  -26.0020  -38.4020   23.9640 H   0  0  0  0  0  0  0  0  0  0  0  0
  1 48  1  0
  1  3  1  0
  2  1  2  0
  4  5  1  0
  5  9  1  0
  7  6  1  0
  7  4  1  0
  7  8  1  0
  8  6  1  0
  8  9  1  0
  9 18  1  0
  9  3  1  1
 10 16  1  0
 10 18  1  0
 11 16  1  0
 12 13  1  0
 12 11  1  0
 14 13  1  0
 14 23  1  0
 14 15  1  0
 16 15  1  0
 17 10  2  0
 18 19  1  0
 20 21  2  0
 21 22  1  0
 21 40  1  0
 22 25  1  0
 23 20  1  0
 23 24  1  0
 24 22  2  0
 25 26  1  0
 26 27  2  0
 28 31  1  0
 28 27  1  0
 29 28  2  0
 30 29  1  0
 30 25  2  0
 31 32  1  0
 32 33  1  0
 33 34  2  0
 35 34  1  0
 35 39  1  0
 36 35  2  0
 37 32  2  0
 37 36  1  0
 38 37  1  0
 40 41  1  0
 41 44  1  0
 41 43  1  0
 42 40  2  0
 45 46  1  0
 45 20  1  0
 47 45  1  0
 49 50  1  0
 49 48  1  0
 51 62  2  0
 52 50  1  0
 52 57  1  0
 53 61  1  0
 53 63  1  0
 54 60  1  0
 54 56  1  0
 55 61  1  0
 56 57  2  0
 56 55  1  0
 58 52  2  0
 59 58  1  0
 59 54  2  0
 60 53  1  0
 61 51  1  0
 63 65  2  0
 64 63  1  0
 66 64  1  0
 67 76  2  0
 67 72  1  0
 68 64  1  0
 68 72  1  0
 69 68  1  0
 70 71  1  0
 70 69  1  0
 71 67  1  0
 72 73  2  0
 73 74  1  0
 75 74  2  0
 76 75  1  0
 77 51  1  0
 77 82  1  0
 77 78  1  0
 78 81  1  1
 78 79  1  0
 80 78  1  0
 82 85  1  0
 83 87  1  0
 83 82  1  0
 84 83  2  0
 87 86  1  0
 89 87  1  0
 89 90  1  0
 89 88  1  0
M  ISO  4  10 100  18 100  49 101  50 101
M  END
>  <TORSDO>  (21) 
F 20

>  <SCORE>  (21) 
-15.664

>  <name>  (21) 
21

>  <ligand_id>  (21) 
21

>  <original_smiles>  (21) 
[H]c1c([H])c([H])c2c(c1[H])C([H])([H])C([H])([H])C([H])([H])C2([H])N([H])C(=O)C1([H])N(C(=O)C([H])(N([H])C(=O)C([H])(N([H])C([H])([H])[H])C([H])([H])[H])C(C([H])([H])[H])(C([H])([H])[H])C([H])([H])[H])C([H])([H])c2c([H])c(OC([H])([H])C([H])([H])C(=O)C([H])([H])C3(N([H])C(=O)N4C([H])([H])C([H])([H])C([H])([H])C([H])(n5nc(-c6c([H])c([H])c(Oc7c([H])c([H])c(F)c([H])c7F)c([H])c6[H])c(C(=O)N([H])[H])c5N([H])[H])C4([H])[H])C([H])([H])C([H])([H])C4([H])C([H])([H])C43[H])c([H])c([H])c2C1([H])[H]

>  <smiles>  (21) 
[H]c1c([H])c([H])c2c(c1[H])C([H])([H])C([H])([H])C([H])([H])C2([H])N([H])C(=O)C1([H])N(C(=O)C([H])(N([H])C(=O)C([H])(N([H])C([H])([H])[H])C([H])([H])[H])C(C([H])([H])[H])(C([H])([H])[H])C([H])([H])[H])C([H])([H])c2c([H])c(OC([H])([H])C([H])([H])C(=O)C([H])([H])C3(N([H])C(=O)N4C([H])([H])C([H])([H])C([H])([H])C([H])(n5nc(-c6c([H])c([H])c(Oc7c([H])c([H])c(F)c([H])c7F)c([H])c6[H])c(C(=O)N([H])[H])c5N([H])[H])C4([H])[H])C([H])([H])C([H])([H])C4([H])C([H])([H])C43[H])c([H])c([H])c2C1([H])[H]

$$$$
22:0:0
     RDKit          3D

 98106  0  0  1  0  0  0  0  0999 V2000
  -32.0040  -20.5400   22.0630 C   0  0  0  0  0  2  0  0  0  0  0  0
  -29.8730  -20.5160   20.6950 C   0  0  0  0  0  2  0  0  0  0  0  0
  -31.8510  -19.0320   22.3300 C   0  0  0  0  0  2  0  0  0  0  0  0
  -29.7410  -19.0040   20.9560 C   0  0  0  0  0  2  0  0  0  0  0  0
  -30.6530  -21.2400   21.8130 C   0  0  0  0  0  3  0  0  0  0  0  0
  -31.0920  -18.2820   21.2040 C   0  0  1  0  0  0  0  0  0  0  0  0
  -31.8850  -18.3030   19.9550 N   0  0  0  0  0  4  0  0  0  0  0  0
  -32.1370  -19.2460   19.7130 H   0  0  0  0  0  0  0  0  0  0  0  0
  -31.3570  -17.9210   19.1890 H   0  0  0  0  0  0  0  0  0  0  0  0
  -32.7370  -17.7770   20.0560 H   0  0  0  0  0  0  0  0  0  0  0  0
  -30.8680  -22.7330   21.4870 C   0  0  0  0  0  2  0  0  0  0  0  0
  -29.5900  -23.5880   21.5820 C   0  0  0  0  0  2  0  0  0  0  0  0
  -29.7380  -24.9810   20.9360 C   0  0  0  0  0  2  0  0  0  0  0  0
  -28.4270  -25.7840   20.9670 C   0  0  0  0  0  2  0  0  0  0  0  0
  -28.4990  -26.9320   20.1210 O   0  0  0  0  0  0  0  0  0  0  0  0
  -24.7200  -31.9640   23.4070 C   0  0  0  0  0  0  0  0  0  0  0  0
  -27.3420  -27.6710   20.1420 C   0  0  0  0  0  0  0  0  0  0  0  0
  -23.5030  -30.6430   21.7030 C   0  0  0  0  0  3  0  0  0  0  0  0
  -24.9500  -29.1630   20.2130 C   0  0  0  0  0  0  0  0  0  0  0  0
  -26.0220  -31.0100   21.5140 C   0  0  0  0  0  2  0  0  0  0  0  0
  -26.1070  -29.6680   20.8180 C   0  0  0  0  0  0  0  0  0  0  0  0
  -27.3080  -28.9280   20.7820 C   0  0  0  0  0  3  0  0  0  0  0  0
  -26.1740  -27.1740   19.5280 C   0  0  0  0  0  3  0  0  0  0  0  0
  -24.9770  -27.9130   19.5650 C   0  0  0  0  0  3  0  0  0  0  0  0
  -23.7050  -30.0150   20.2970 C   0  0  0  0  0  2  0  0  0  0  0  0
  -24.7660  -31.2150   22.2690 N   0  0  0  0  0  0  0  0  0  0  0  0
  -23.6430  -32.2180   23.9630 O   0  0  0  0  0  0  0  0  0  0  0  0
  -22.8420  -29.5900   22.6190 C   0  0  0  0  0  0  0  0  0  0  0  0
  -21.5180  -29.4170   22.4720 N   0  0  0  0  0  0  0  0  0  0  0  0
  -23.5160  -28.9340   23.4180 O   0  0  0  0  0  0  0  0  0  0  0  0
  -21.0380  -29.9990   21.8000 H   0  0  0  0  0  0  0  0  0  0  0  0
  -18.1410  -28.2000   22.8680 C   0  0  0  0  0  0  0  0  0  0  0  0
  -20.6910  -28.4520   23.1940 C   0  0  0  0  0  3  0  0  0  0  0  0
  -20.8100  -27.0420   22.5700 C   0  0  0  0  0  2  0  0  0  0  0  0
  -19.7260  -26.7530   21.5260 C   0  0  0  0  0  2  0  0  0  0  0  0
  -18.3310  -26.8750   22.1480 C   0  0  0  0  0  2  0  0  0  0  0  0
  -19.2500  -28.9480   23.3430 C   0  0  0  0  0  0  0  0  0  0  0  0
  -19.0200  -30.1920   23.9680 C   0  0  0  0  0  3  0  0  0  0  0  0
  -17.7120  -30.6850   24.1330 C   0  0  0  0  0  3  0  0  0  0  0  0
  -16.6160  -29.9290   23.6800 C   0  0  0  0  0  3  0  0  0  0  0  0
  -16.8310  -28.6900   23.0500 C   0  0  0  0  0  3  0  0  0  0  0  0
  -26.0140  -32.5550   24.0520 C   0  0  0  0  0  3  0  0  0  0  0  0
  -26.4930  -31.7570   25.3260 C   0  0  1  0  0  0  0  0  0  0  0  0
  -25.3780  -31.5190   26.3690 C   0  0  0  0  0  1  0  0  0  0  0  0
  -27.0650  -30.3770   24.9240 C   0  0  0  0  0  1  0  0  0  0  0  0
  -27.6390  -32.5230   26.0290 C   0  0  0  0  0  1  0  0  0  0  0  0
  -25.7420  -33.9590   24.3890 N   0  0  0  0  0  0  0  0  0  0  0  0
  -26.1210  -35.0070   23.6460 C   0  0  0  0  0  0  0  0  0  0  0  0
  -26.8080  -34.8930   22.6270 O   0  0  0  0  0  0  0  0  0  0  0  0
  -25.1470  -34.1240   25.1880 H   0  0  0  0  0  0  0  0  0  0  0  0
  -24.4460  -36.8440   23.2770 C   0  0  0  0  0  1  0  0  0  0  0  0
  -25.6640  -36.4050   24.1040 C   0  0  0  0  0  3  0  0  0  0  0  0
  -27.8090  -37.2270   24.9690 C   0  0  0  0  0  1  0  0  0  0  0  0
  -26.7250  -37.4300   24.0120 N   0  0  0  0  0  0  0  0  0  0  0  0
  -26.3410  -38.3570   24.1630 H   0  0  0  0  0  0  0  0  0  0  0  0
  -30.7710  -16.8140   21.6240 C   0  0  0  0  0  2  0  0  0  0  0  0
  -31.9440  -15.8070   21.8150 C   0  0  0  0  0  3  0  0  0  0  0  0
  -32.0030  -15.5520   24.3800 C   0  0  0  0  0  1  0  0  0  0  0  0
  -31.6960  -14.8820   23.0320 C   0  0  0  0  0  2  0  0  0  0  0  0
  -32.2430  -14.9540   20.5630 C   0  0  0  0  0  2  0  0  0  0  0  0
  -30.8330  -13.6430   18.9830 C   0  0  0  0  0  0  0  0  0  0  0  0
  -30.0880  -11.5190   18.0070 C   0  0  0  0  0  2  0  0  0  0  0  0
  -28.9050  -11.6250   17.0340 C   0  0  0  0  0  2  0  0  0  0  0  0
  -27.5730  -11.5740   17.7980 C   0  0  0  0  0  2  0  0  0  0  0  0
  -27.5230  -12.5910   18.9650 C   0  0  0  0  0  3  0  0  0  0  0  0
  -28.7850  -12.4860   19.8520 C   0  0  0  0  0  2  0  0  0  0  0  0
  -29.9890  -12.5900   19.0040 N   0  0  0  0  0  0  0  0  0  0  0  0
  -31.4900  -13.9960   18.0010 O   0  0  0  0  0  0  0  0  0  0  0  0
  -31.1020  -14.1180   20.2030 N   0  0  0  0  0  0  0  0  0  0  0  0
  -30.5950  -13.6840   20.9600 H   0  0  0  0  0  0  0  0  0  0  0  0
  -25.4530  -13.4040   20.2720 C   0  0  0  0  0  0  0  0  0  0  0  0
  -24.4100  -12.7260   20.8440 C   0  0  0  0  0  0  0  0  0  0  0  0
  -24.6690  -11.3390   20.6210 C   0  0  0  0  0  0  0  0  0  0  0  0
  -26.2930  -12.4350   19.7440 N   0  0  0  0  0  0  0  0  0  0  0  0
  -25.8340  -11.1840   20.0040 N   0  0  0  0  0  0  0  0  0  0  0  0
  -23.8500  -10.1550   20.9090 C   0  0  0  0  0  0  0  0  0  0  0  0
  -24.3100   -9.1270   21.7610 C   0  0  0  0  0  3  0  0  0  0  0  0
  -23.4960   -8.0060   22.0370 C   0  0  0  0  0  3  0  0  0  0  0  0
  -22.2060   -7.9080   21.4630 C   0  0  0  0  0  0  0  0  0  0  0  0
  -21.7620   -8.9220   20.5970 C   0  0  0  0  0  3  0  0  0  0  0  0
  -22.5740  -10.0340   20.3200 C   0  0  0  0  0  3  0  0  0  0  0  0
  -21.3570   -6.8460   21.6540 O   0  0  0  0  0  0  0  0  0  0  0  0
  -21.3260   -6.1520   22.8360 C   0  0  0  0  0  0  0  0  0  0  0  0
  -21.0380   -6.7850   24.0640 C   0  0  0  0  0  3  0  0  0  0  0  0
  -20.9490   -6.0210   25.2480 C   0  0  0  0  0  3  0  0  0  0  0  0
  -21.1380   -4.6270   25.2020 C   0  0  0  0  0  0  0  0  0  0  0  0
  -21.4210   -3.9950   23.9780 C   0  0  0  0  0  3  0  0  0  0  0  0
  -21.5120   -4.7540   22.7990 C   0  0  0  0  0  0  0  0  0  0  0  0
  -21.7630   -4.1370   21.6200 F   0  0  0  0  0  0  0  0  0  0  0  0
  -21.0450   -3.8930   26.3360 F   0  0  0  0  0  0  0  0  0  0  0  0
  -23.1900  -13.3300   21.4780 C   0  0  0  0  0  0  0  0  0  0  0  0
  -22.6150  -12.6590   22.4680 N   0  0  0  0  0  0  0  0  0  0  0  0
  -22.7680  -14.4330   21.1280 O   0  0  0  0  0  0  0  0  0  0  0  0
  -22.9720  -11.7630   22.7700 H   0  0  0  0  0  0  0  0  0  0  0  0
  -21.8030  -13.0440   22.9310 H   0  0  0  0  0  0  0  0  0  0  0  0
  -25.7470  -14.7590   20.1410 N   0  0  0  0  0  0  0  0  0  0  0  0
  -25.1240  -15.4820   20.4820 H   0  0  0  0  0  0  0  0  0  0  0  0
  -26.5510  -15.1280   19.6510 H   0  0  0  0  0  0  0  0  0  0  0  0
  1  3  1  0
  2  4  1  0
  2  5  1  0
  4  6  1  0
  5 11  1  0
  5  1  1  0
  6 56  1  1
  6  3  1  0
  7 10  1  0
  7  6  1  0
  8  7  1  0
  9  7  1  0
 11 12  1  0
 13 14  1  0
 13 12  1  0
 15 17  1  0
 15 14  1  0
 16 27  2  0
 17 22  1  0
 18 26  1  0
 18 28  1  0
 19 25  1  0
 19 21  1  0
 20 26  1  0
 21 20  1  0
 22 21  2  0
 23 24  1  0
 23 17  2  0
 24 19  2  0
 25 18  1  0
 26 16  1  0
 28 30  2  0
 29 28  1  0
 31 29  1  0
 32 41  2  0
 32 37  1  0
 33 29  1  0
 33 37  1  0
 34 33  1  0
 35 36  1  0
 35 34  1  0
 36 32  1  0
 37 38  2  0
 38 39  1  0
 40 39  2  0
 41 40  1  0
 42 16  1  0
 42 47  1  0
 42 43  1  0
 43 46  1  1
 43 44  1  0
 45 43  1  0
 47 50  1  0
 48 52  1  0
 48 47  1  0
 49 48  2  0
 52 51  1  0
 54 52  1  0
 54 55  1  0
 54 53  1  0
 56 57  1  0
 57 60  1  0
 57 59  1  0
 59 58  1  0
 61 67  1  0
 61 69  1  0
 62 67  1  0
 63 64  1  0
 63 62  1  0
 65 64  1  0
 65 74  1  0
 65 66  1  0
 67 66  1  0
 68 61  2  0
 69 60  1  0
 69 70  1  0
 71 72  2  0
 72 91  1  0
 73 72  1  0
 73 76  1  0
 74 75  1  0
 74 71  1  0
 75 73  2  0
 76 77  1  0
 77 78  2  0
 79 82  1  0
 79 78  1  0
 80 79  2  0
 81 80  1  0
 81 76  2  0
 82 83  1  0
 83 84  1  0
 84 85  2  0
 86 85  1  0
 86 90  1  0
 87 86  2  0
 88 83  2  0
 88 87  1  0
 89 88  1  0
 91 92  1  0
 92 94  1  0
 92 95  1  0
 93 91  2  0
 96 71  1  0
 96 97  1  0
 98 96  1  0
M  ISO  4  14 101  15 101  61 100  69 100
M  END
>  <TORSDO>  (22) 
F 25

>  <SCORE>  (22) 
-2.950

>  <name>  (22) 
22

>  <ligand_id>  (22) 
22

>  <original_smiles>  (22) 
[H]c1c([H])c([H])c2c(c1[H])C([H])([H])C([H])([H])C([H])([H])C2([H])N([H])C(=O)C1([H])N(C(=O)C([H])(N([H])C(=O)C([H])(N([H])C([H])([H])[H])C([H])([H])[H])C(C([H])([H])[H])(C([H])([H])[H])C([H])([H])[H])C([H])([H])c2c([H])c(OC([H])([H])C([H])([H])C([H])([H])C([H])([H])C3([H])C([H])([H])C([H])([H])C(C([H])([H])C([H])(C([H])([H])N([H])C(=O)N4C([H])([H])C([H])([H])C([H])([H])C([H])(n5nc(-c6c([H])c([H])c(Oc7c([H])c([H])c(F)c([H])c7F)c([H])c6[H])c(C(=O)N([H])[H])c5N([H])[H])C4([H])[H])C([H])([H])C([H])([H])[H])([N+]([H])([H])[H])C([H])([H])C3([H])[H])c([H])c([H])c2C1([H])[H]

>  <smiles>  (22) 
[H]c1c([H])c([H])c2c(c1[H])C([H])([H])C([H])([H])C([H])([H])C2([H])N([H])C(=O)C1([H])N(C(=O)C([H])(N([H])C(=O)C([H])(N([H])C([H])([H])[H])C([H])([H])[H])C(C([H])([H])[H])(C([H])([H])[H])C([H])([H])[H])C([H])([H])c2c([H])c(OC([H])([H])C([H])([H])C([H])([H])C([H])([H])C3([H])C([H])([H])C([H])([H])C(C([H])([H])C([H])(C([H])([H])N([H])C(=O)N4C([H])([H])C([H])([H])C([H])([H])C([H])(n5nc(-c6c([H])c([H])c(Oc7c([H])c([H])c(F)c([H])c7F)c([H])c6[H])c(C(=O)N([H])[H])c5N([H])[H])C4([H])[H])C([H])([H])C([H])([H])[H])([N+]([H])([H])[H])C([H])([H])C3([H])[H])c([H])c([H])c2C1([H])[H]

$$$$
23:0:0
     RDKit          3D

 91100  0  0  1  0  0  0  0  0999 V2000
  -29.3110  -21.1020   20.3000 C   0  0  0  0  0  2  0  0  0  0  0  0
  -29.7180  -15.8420   18.9550 C   0  0  0  0  0  3  0  0  0  0  0  0
  -29.1000  -16.8410   18.1860 C   0  0  0  0  0  3  0  0  0  0  0  0
  -29.7370  -17.2970   20.9190 C   0  0  0  0  0  3  0  0  0  0  0  0
  -30.0000  -15.9940   20.3350 C   0  0  0  0  0  0  0  0  0  0  0  0
  -28.7810  -18.0530   18.8050 C   0  0  0  0  0  0  0  0  0  0  0  0
  -29.1280  -18.3470   20.1230 C   0  0  0  0  0  0  0  0  0  0  0  0
  -27.8680  -19.0850   18.2140 C   0  0  0  0  0  2  0  0  0  0  0  0
  -27.3160  -19.7580   19.4830 C   0  0  0  0  0  2  0  0  0  0  0  0
  -28.4910  -19.7370   20.5030 C   0  0  0  0  0  3  0  0  0  0  0  0
  -30.7140  -14.7990   21.0180 C   0  0  0  0  0  0  0  0  0  0  0  0
  -30.6460  -12.4250   20.3120 C   0  0  0  0  0  2  0  0  0  0  0  0
  -29.8600  -12.2300   18.9960 C   0  0  0  0  0  2  0  0  0  0  0  0
  -28.3320  -12.2150   19.2190 C   0  0  0  0  0  2  0  0  0  0  0  0
  -27.8100  -13.2410   20.2630 C   0  0  0  0  0  3  0  0  0  0  0  0
  -28.7240  -13.3110   21.4990 C   0  0  0  0  0  2  0  0  0  0  0  0
  -30.0910  -13.5780   21.0400 N   0  0  0  0  0  0  0  0  0  0  0  0
  -31.9410  -14.8820   21.0710 O   0  0  0  0  0  0  0  0  0  0  0  0
  -25.3550  -13.8640   20.7330 C   0  0  0  0  0  0  0  0  0  0  0  0
  -24.2500  -13.1010   21.0010 C   0  0  0  0  0  0  0  0  0  0  0  0
  -24.7130  -11.7500   21.0700 C   0  0  0  0  0  0  0  0  0  0  0  0
  -26.4180  -12.9780   20.6340 N   0  0  0  0  0  0  0  0  0  0  0  0
  -26.0290  -11.7070   20.9090 N   0  0  0  0  0  0  0  0  0  0  0  0
  -23.9710  -10.4920   21.2120 C   0  0  0  0  0  0  0  0  0  0  0  0
  -24.3150   -9.5350   22.1930 C   0  0  0  0  0  3  0  0  0  0  0  0
  -23.5740   -8.3410   22.3210 C   0  0  0  0  0  3  0  0  0  0  0  0
  -22.4730   -8.0950   21.4670 C   0  0  0  0  0  0  0  0  0  0  0  0
  -22.1500   -9.0390   20.4770 C   0  0  0  0  0  3  0  0  0  0  0  0
  -22.8920  -10.2220   20.3460 C   0  0  0  0  0  3  0  0  0  0  0  0
  -21.7090   -6.9530   21.5060 O   0  0  0  0  0  0  0  0  0  0  0  0
  -21.5720   -6.2160   22.6550 C   0  0  0  0  0  0  0  0  0  0  0  0
  -21.0680   -6.7790   23.8480 C   0  0  0  0  0  3  0  0  0  0  0  0
  -20.8790   -5.9680   24.9850 C   0  0  0  0  0  3  0  0  0  0  0  0
  -21.1820   -4.5950   24.9290 C   0  0  0  0  0  0  0  0  0  0  0  0
  -21.6790   -4.0310   23.7410 C   0  0  0  0  0  3  0  0  0  0  0  0
  -21.8700   -4.8390   22.6060 C   0  0  0  0  0  0  0  0  0  0  0  0
  -22.3280   -4.2860   21.4580 F   0  0  0  0  0  0  0  0  0  0  0  0
  -20.9960   -3.8140   26.0190 F   0  0  0  0  0  0  0  0  0  0  0  0
  -22.8290  -13.5820   21.0870 C   0  0  0  0  0  0  0  0  0  0  0  0
  -22.0040  -12.9250   21.8940 N   0  0  0  0  0  0  0  0  0  0  0  0
  -22.4550  -14.5830   20.4750 O   0  0  0  0  0  0  0  0  0  0  0  0
  -22.3070  -12.1230   22.4260 H   0  0  0  0  0  0  0  0  0  0  0  0
  -21.0450  -13.2310   21.9800 H   0  0  0  0  0  0  0  0  0  0  0  0
  -25.5420  -15.2270   20.5300 N   0  0  0  0  0  0  0  0  0  0  0  0
  -24.7790  -15.8940   20.5560 H   0  0  0  0  0  0  0  0  0  0  0  0
  -26.4330  -15.6580   20.3130 H   0  0  0  0  0  0  0  0  0  0  0  0
  -28.5810  -22.4500   20.7150 C   0  0  0  0  0  0  0  0  0  0  0  0
  -27.6000  -22.3860   21.4630 O   0  0  0  0  0  0  0  0  0  0  0  0
  -29.0750  -23.8820   20.2490 C   0  0  0  0  0  3  0  0  0  0  0  0
  -27.9660  -25.0270   20.2610 C   0  0  0  0  0  3  0  0  0  0  0  0
  -28.2700  -26.4780   20.1070 O   0  0  0  0  0  0  0  0  0  0  0  0
  -24.6160  -31.8980   23.2210 C   0  0  0  0  0  0  0  0  0  0  0  0
  -27.1650  -27.3520   20.0900 C   0  0  0  0  0  0  0  0  0  0  0  0
  -23.3850  -30.5120   21.5920 C   0  0  0  0  0  3  0  0  0  0  0  0
  -24.8080  -28.9770   20.1310 C   0  0  0  0  0  0  0  0  0  0  0  0
  -25.9220  -30.8280   21.3690 C   0  0  0  0  0  2  0  0  0  0  0  0
  -25.9900  -29.4530   20.7140 C   0  0  0  0  0  0  0  0  0  0  0  0
  -27.1720  -28.6520   20.6880 C   0  0  0  0  0  3  0  0  0  0  0  0
  -25.9610  -26.9480   19.4660 C   0  0  0  0  0  3  0  0  0  0  0  0
  -24.7960  -27.7290   19.5000 C   0  0  0  0  0  3  0  0  0  0  0  0
  -23.5740  -29.8500   20.2040 C   0  0  0  0  0  2  0  0  0  0  0  0
  -24.6610  -31.0950   22.1160 N   0  0  0  0  0  0  0  0  0  0  0  0
  -23.5420  -32.1690   23.7760 O   0  0  0  0  0  0  0  0  0  0  0  0
  -22.7360  -29.4880   22.5530 C   0  0  0  0  0  0  0  0  0  0  0  0
  -21.4110  -29.2990   22.4380 N   0  0  0  0  0  0  0  0  0  0  0  0
  -23.4270  -28.8620   23.3640 O   0  0  0  0  0  0  0  0  0  0  0  0
  -20.9110  -29.8520   21.7560 H   0  0  0  0  0  0  0  0  0  0  0  0
  -18.0500  -28.0610   22.9480 C   0  0  0  0  0  0  0  0  0  0  0  0
  -20.6060  -28.3550   23.2150 C   0  0  0  0  0  3  0  0  0  0  0  0
  -20.7260  -26.9210   22.6490 C   0  0  0  0  0  2  0  0  0  0  0  0
  -19.6260  -26.5770   21.6390 C   0  0  0  0  0  2  0  0  0  0  0  0
  -18.2430  -26.7100   22.2810 C   0  0  0  0  0  2  0  0  0  0  0  0
  -19.1600  -28.8410   23.3730 C   0  0  0  0  0  0  0  0  0  0  0  0
  -18.9260  -30.1040   23.9560 C   0  0  0  0  0  3  0  0  0  0  0  0
  -17.6160  -30.5900   24.1200 C   0  0  0  0  0  3  0  0  0  0  0  0
  -16.5200  -29.8090   23.7130 C   0  0  0  0  0  3  0  0  0  0  0  0
  -16.7390  -28.5470   23.1330 C   0  0  0  0  0  3  0  0  0  0  0  0
  -25.9090  -32.5280   23.8230 C   0  0  0  0  0  3  0  0  0  0  0  0
  -26.4480  -31.7470   25.0840 C   0  0  1  0  0  0  0  0  0  0  0  0
  -25.3760  -31.5060   26.1710 C   0  0  0  0  0  1  0  0  0  0  0  0
  -27.0230  -30.3740   24.6690 C   0  0  0  0  0  1  0  0  0  0  0  0
  -27.6070  -32.5400   25.7320 C   0  0  0  0  0  1  0  0  0  0  0  0
  -25.6060  -33.9230   24.1750 N   0  0  0  0  0  0  0  0  0  0  0  0
  -25.9140  -34.9820   23.4160 C   0  0  0  0  0  0  0  0  0  0  0  0
  -26.5580  -34.8900   22.3670 O   0  0  0  0  0  0  0  0  0  0  0  0
  -25.0410  -34.0690   25.0000 H   0  0  0  0  0  0  0  0  0  0  0  0
  -24.1750  -36.7730   23.1160 C   0  0  0  0  0  1  0  0  0  0  0  0
  -25.4340  -36.3650   23.8980 C   0  0  0  0  0  3  0  0  0  0  0  0
  -27.5850  -37.2460   24.6870 C   0  0  0  0  0  1  0  0  0  0  0  0
  -26.4610  -37.4230   23.7710 N   0  0  0  0  0  0  0  0  0  0  0  0
  -26.0560  -38.3410   23.9410 H   0  0  0  0  0  0  0  0  0  0  0  0
  1 47  1  0
  2  5  1  0
  3  6  1  0
  3  2  2  0
  5  4  2  0
  5 11  1  0
  6  7  2  0
  7 10  1  0
  7  4  1  0
  8  6  1  0
  8  9  1  0
  9 10  1  0
 10  1  1  0
 11 17  1  0
 11 18  2  0
 12 17  1  0
 13 14  1  0
 13 12  1  0
 15 14  1  0
 15 22  1  0
 15 16  1  0
 17 16  1  0
 19 20  2  0
 20 21  1  0
 20 39  1  0
 21 24  1  0
 22 19  1  0
 22 23  1  0
 23 21  2  0
 24 25  1  0
 25 26  2  0
 27 30  1  0
 27 26  1  0
 28 27  2  0
 29 28  1  0
 29 24  2  0
 30 31  1  0
 31 32  1  0
 32 33  2  0
 34 33  1  0
 34 38  1  0
 35 34  2  0
 36 31  2  0
 36 35  1  0
 37 36  1  0
 39 40  1  0
 40 43  1  0
 40 42  1  0
 41 39  2  0
 44 45  1  0
 44 19  1  0
 46 44  1  0
 47 48  2  0
 49 50  2  0
 49 47  1  0
 51 50  1  0
 52 63  2  0
 53 51  1  0
 53 58  1  0
 54 62  1  0
 54 64  1  0
 55 61  1  0
 55 57  1  0
 56 62  1  0
 57 56  1  0
 58 57  2  0
 59 60  1  0
 59 53  2  0
 60 55  2  0
 61 54  1  0
 62 52  1  0
 64 66  2  0
 65 64  1  0
 67 65  1  0
 68 77  2  0
 68 73  1  0
 69 65  1  0
 69 73  1  0
 70 69  1  0
 71 72  1  0
 71 70  1  0
 72 68  1  0
 73 74  2  0
 74 75  1  0
 76 75  2  0
 77 76  1  0
 78 52  1  0
 78 83  1  0
 78 79  1  0
 79 82  1  1
 79 80  1  0
 81 79  1  0
 83 86  1  0
 84 88  1  0
 84 83  1  0
 85 84  2  0
 88 87  1  0
 90 88  1  0
 90 91  1  0
 90 89  1  0
M  ISO  4   5 100  11 100  50 101  51 101
M  END
>  <TORSDO>  (23) 
F 20

>  <SCORE>  (23) 
-13.074

>  <name>  (23) 
23

>  <ligand_id>  (23) 
23

>  <original_smiles>  (23) 
[H]c1c([H])c([H])c2c(c1[H])C([H])([H])C([H])([H])C([H])([H])C2([H])N([H])C(=O)C1([H])N(C(=O)C([H])(N([H])C(=O)C([H])(N([H])C([H])([H])[H])C([H])([H])[H])C(C([H])([H])[H])(C([H])([H])[H])C([H])([H])[H])C([H])([H])c2c([H])c(OC([H])([H])C([H])([H])C(=O)C([H])([H])C3([H])c4c([H])c(C(=O)N5C([H])([H])C([H])([H])C([H])([H])C([H])(n6nc(-c7c([H])c([H])c(Oc8c([H])c([H])c(F)c([H])c8F)c([H])c7[H])c(C(=O)N([H])[H])c6N([H])[H])C5([H])[H])c([H])c([H])c4C([H])([H])C3([H])[H])c([H])c([H])c2C1([H])[H]

>  <smiles>  (23) 
[H]c1c([H])c([H])c2c(c1[H])C([H])([H])C([H])([H])C([H])([H])C2([H])N([H])C(=O)C1([H])N(C(=O)C([H])(N([H])C(=O)C([H])(N([H])C([H])([H])[H])C([H])([H])[H])C(C([H])([H])[H])(C([H])([H])[H])C([H])([H])[H])C([H])([H])c2c([H])c(OC([H])([H])C([H])([H])C(=O)C([H])([H])C3([H])c4c([H])c(C(=O)N5C([H])([H])C([H])([H])C([H])([H])C([H])(n6nc(-c7c([H])c([H])c(Oc8c([H])c([H])c(F)c([H])c8F)c([H])c7[H])c(C(=O)N([H])[H])c6N([H])[H])C5([H])[H])c([H])c([H])c4C([H])([H])C3([H])[H])c([H])c([H])c2C1([H])[H]

$$$$
24:0:0
     RDKit          3D

 95105  0  0  1  0  0  0  0  0999 V2000
  -29.1850  -21.6880   17.6360 C   0  0  0  0  0  2  0  0  0  0  0  0
  -31.9290  -20.4120   18.4110 C   0  0  0  0  0  2  0  0  0  0  0  0
  -29.8890  -19.1890   17.7750 C   0  0  0  0  0  2  0  0  0  0  0  0
  -31.2710  -19.0290   18.4300 C   0  0  1  0  0  0  0  0  0  0  0  0
  -30.7170  -20.5870   19.3650 C   0  0  2  0  0  0  0  0  0  0  0  0
  -29.4430  -20.4480   18.5330 C   0  0  0  0  0  3  0  0  0  0  0  0
  -31.2120  -19.2450   19.9790 C   0  0  2  0  0  0  0  0  0  0  0  0
  -32.5030  -19.3850   20.8510 C   0  0  0  0  0  1  0  0  0  0  0  0
  -30.2540  -18.2640   20.7280 C   0  0  0  0  0  2  0  0  0  0  0  0
  -30.9550  -16.9210   21.0750 C   0  0  0  0  0  2  0  0  0  0  0  0
  -30.7590  -14.5410   20.4810 C   0  0  0  0  0  0  0  0  0  0  0  0
  -30.3450  -12.4170   19.3280 C   0  0  0  0  0  2  0  0  0  0  0  0
  -29.4220  -12.6660   18.1230 C   0  0  0  0  0  2  0  0  0  0  0  0
  -27.9490  -12.5340   18.5510 C   0  0  0  0  0  2  0  0  0  0  0  0
  -27.6130  -13.3440   19.8370 C   0  0  0  0  0  3  0  0  0  0  0  0
  -28.6830  -13.1540   20.9400 C   0  0  0  0  0  2  0  0  0  0  0  0
  -30.0010  -13.4210   20.3470 N   0  0  0  0  0  0  0  0  0  0  0  0
  -31.9150  -14.5930   20.0620 O   0  0  0  0  0  0  0  0  0  0  0  0
  -30.1760  -15.6700   20.9360 N   0  0  0  0  0  0  0  0  0  0  0  0
  -29.1980  -15.6500   21.1850 H   0  0  0  0  0  0  0  0  0  0  0  0
  -25.2060  -13.8910   20.5580 C   0  0  0  0  0  0  0  0  0  0  0  0
  -24.1500  -13.0920   20.9190 C   0  0  0  0  0  0  0  0  0  0  0  0
  -24.6370  -11.7520   20.8770 C   0  0  0  0  0  0  0  0  0  0  0  0
  -26.2670  -13.0310   20.3210 N   0  0  0  0  0  0  0  0  0  0  0  0
  -25.9300  -11.7400   20.5730 N   0  0  0  0  0  0  0  0  0  0  0  0
  -23.9290  -10.4750   21.0540 C   0  0  0  0  0  0  0  0  0  0  0  0
  -24.3570   -9.5200   22.0020 C   0  0  0  0  0  3  0  0  0  0  0  0
  -23.6520   -8.3090   22.1710 C   0  0  0  0  0  3  0  0  0  0  0  0
  -22.5040   -8.0430   21.3870 C   0  0  0  0  0  0  0  0  0  0  0  0
  -22.0940   -8.9850   20.4280 C   0  0  0  0  0  3  0  0  0  0  0  0
  -22.8020  -10.1880   20.2580 C   0  0  0  0  0  3  0  0  0  0  0  0
  -21.7730   -6.8820   21.4600 O   0  0  0  0  0  0  0  0  0  0  0  0
  -21.6900   -6.1550   22.6200 C   0  0  0  0  0  0  0  0  0  0  0  0
  -21.1750   -6.7070   23.8130 C   0  0  0  0  0  3  0  0  0  0  0  0
  -21.0480   -5.9040   24.9640 C   0  0  0  0  0  3  0  0  0  0  0  0
  -21.4230   -4.5470   24.9210 C   0  0  0  0  0  0  0  0  0  0  0  0
  -21.9320   -3.9940   23.7330 C   0  0  0  0  0  3  0  0  0  0  0  0
  -22.0630   -4.7960   22.5840 C   0  0  0  0  0  0  0  0  0  0  0  0
  -22.5340   -4.2520   21.4370 F   0  0  0  0  0  0  0  0  0  0  0  0
  -21.2930   -3.7740   26.0230 F   0  0  0  0  0  0  0  0  0  0  0  0
  -22.7440  -13.5440   21.1870 C   0  0  0  0  0  0  0  0  0  0  0  0
  -22.0250  -12.8240   22.0440 N   0  0  0  0  0  0  0  0  0  0  0  0
  -22.2920  -14.5670   20.6780 O   0  0  0  0  0  0  0  0  0  0  0  0
  -22.4030  -11.9940   22.4740 H   0  0  0  0  0  0  0  0  0  0  0  0
  -21.0810  -13.1090   22.2700 H   0  0  0  0  0  0  0  0  0  0  0  0
  -25.3430  -15.2640   20.3950 N   0  0  0  0  0  0  0  0  0  0  0  0
  -24.5580  -15.8970   20.5140 H   0  0  0  0  0  0  0  0  0  0  0  0
  -26.1850  -15.7320   20.0800 H   0  0  0  0  0  0  0  0  0  0  0  0
  -29.2540  -22.9110   18.4610 N   0  0  0  0  0  4  0  0  0  0  0  0
  -29.8330  -22.6780   19.2550 H   0  0  0  0  0  0  0  0  0  0  0  0
  -28.3360  -23.1230   18.8140 H   0  0  0  0  0  0  0  0  0  0  0  0
  -29.8530  -24.1030   17.8280 C   0  0  0  0  0  2  0  0  0  0  0  0
  -29.8290  -25.2840   18.8170 C   0  0  0  0  0  2  0  0  0  0  0  0
  -28.4010  -25.7840   19.0210 C   0  0  0  0  0  2  0  0  0  0  0  0
  -28.3540  -26.8000   20.0140 O   0  0  0  0  0  0  0  0  0  0  0  0
  -24.5630  -31.8910   23.2160 C   0  0  0  0  0  0  0  0  0  0  0  0
  -27.1600  -27.4750   20.0920 C   0  0  0  0  0  0  0  0  0  0  0  0
  -23.3420  -30.5020   21.5810 C   0  0  0  0  0  3  0  0  0  0  0  0
  -24.7720  -28.9700   20.1510 C   0  0  0  0  0  0  0  0  0  0  0  0
  -25.8630  -30.8640   21.3520 C   0  0  0  0  0  2  0  0  0  0  0  0
  -25.9390  -29.4880   20.7300 C   0  0  0  0  0  0  0  0  0  0  0  0
  -27.1350  -28.7410   20.7090 C   0  0  0  0  0  3  0  0  0  0  0  0
  -25.9590  -26.9580   19.5430 C   0  0  0  0  0  3  0  0  0  0  0  0
  -24.7700  -27.6970   19.5710 C   0  0  0  0  0  3  0  0  0  0  0  0
  -23.5400  -29.8440   20.1940 C   0  0  0  0  0  2  0  0  0  0  0  0
  -24.6120  -31.0970   22.1110 N   0  0  0  0  0  0  0  0  0  0  0  0
  -23.4840  -32.1590   23.7610 O   0  0  0  0  0  0  0  0  0  0  0  0
  -22.7020  -29.4660   22.5360 C   0  0  0  0  0  0  0  0  0  0  0  0
  -21.3780  -29.2770   22.4110 N   0  0  0  0  0  0  0  0  0  0  0  0
  -23.3910  -28.8360   23.3410 O   0  0  0  0  0  0  0  0  0  0  0  0
  -20.8830  -29.8470   21.7410 H   0  0  0  0  0  0  0  0  0  0  0  0
  -18.0070  -28.0830   22.9010 C   0  0  0  0  0  0  0  0  0  0  0  0
  -20.5620  -28.3350   23.1770 C   0  0  0  0  0  3  0  0  0  0  0  0
  -20.6620  -26.9040   22.5960 C   0  0  0  0  0  2  0  0  0  0  0  0
  -19.5610  -26.5860   21.5800 C   0  0  0  0  0  2  0  0  0  0  0  0
  -18.1820  -26.7330   22.2270 C   0  0  0  0  0  2  0  0  0  0  0  0
  -19.1250  -28.8420   23.3330 C   0  0  0  0  0  0  0  0  0  0  0  0
  -18.9090  -30.1070   23.9260 C   0  0  0  0  0  3  0  0  0  0  0  0
  -17.6060  -30.6100   24.0910 C   0  0  0  0  0  3  0  0  0  0  0  0
  -16.5000  -29.8480   23.6730 C   0  0  0  0  0  3  0  0  0  0  0  0
  -16.7020  -28.5850   23.0840 C   0  0  0  0  0  3  0  0  0  0  0  0
  -25.8500  -32.5190   23.8280 C   0  0  0  0  0  3  0  0  0  0  0  0
  -25.5450  -33.9140   24.1630 N   0  0  0  0  0  0  0  0  0  0  0  0
  -25.8850  -34.9680   23.4050 C   0  0  0  0  0  0  0  0  0  0  0  0
  -26.5610  -34.8650   22.3790 O   0  0  0  0  0  0  0  0  0  0  0  0
  -24.9480  -34.0630   24.9620 H   0  0  0  0  0  0  0  0  0  0  0  0
  -24.1800  -36.7790   23.0280 C   0  0  0  0  0  1  0  0  0  0  0  0
  -25.3990  -36.3590   23.8620 C   0  0  0  0  0  3  0  0  0  0  0  0
  -27.5220  -37.2200   24.7480 C   0  0  0  0  0  1  0  0  0  0  0  0
  -26.4450  -37.4040   23.7780 N   0  0  0  0  0  0  0  0  0  0  0  0
  -26.0450  -38.3280   23.9220 H   0  0  0  0  0  0  0  0  0  0  0  0
  -26.3770  -31.7360   25.0940 C   0  0  1  0  0  0  0  0  0  0  0  0
  -25.2890  -31.4380   26.1540 C   0  0  0  0  0  1  0  0  0  0  0  0
  -26.9940  -30.3870   24.6630 C   0  0  0  0  0  1  0  0  0  0  0  0
  -27.5080  -32.5440   25.7750 C   0  0  0  0  0  1  0  0  0  0  0  0
  1 49  1  0
  4  2  1  6
  3  6  1  0
  4  3  1  0
  4  5  1  0
  4  7  1  0
  5  2  1  6
  5  7  1  0
  6  1  1  0
  6  5  1  0
  7  9  1  0
  7  8  1  1
  9 10  1  0
 11 19  1  0
 12 17  1  0
 13 14  1  0
 13 12  1  0
 15 14  1  0
 15 24  1  0
 15 16  1  0
 17 11  1  0
 17 16  1  0
 18 11  2  0
 19 10  1  0
 19 20  1  0
 21 22  2  0
 22 41  1  0
 23 22  1  0
 23 26  1  0
 24 21  1  0
 24 25  1  0
 25 23  2  0
 26 27  1  0
 27 28  2  0
 29 32  1  0
 29 28  1  0
 30 29  2  0
 31 30  1  0
 31 26  2  0
 32 33  1  0
 33 34  1  0
 34 35  2  0
 36 35  1  0
 36 40  1  0
 37 36  2  0
 38 33  2  0
 38 37  1  0
 39 38  1  0
 41 42  1  0
 42 45  1  0
 42 44  1  0
 43 41  2  0
 46 47  1  0
 46 21  1  0
 48 46  1  0
 49 51  1  0
 49 50  1  0
 52 49  1  0
 52 53  1  0
 53 54  1  0
 54 55  1  0
 55 57  1  0
 56 67  2  0
 57 62  1  0
 58 66  1  0
 58 68  1  0
 59 65  1  0
 59 61  1  0
 60 66  1  0
 61 60  1  0
 62 61  2  0
 63 64  1  0
 63 57  2  0
 64 59  2  0
 65 58  1  0
 66 56  1  0
 68 70  2  0
 69 68  1  0
 71 69  1  0
 72 81  2  0
 72 77  1  0
 73 69  1  0
 73 77  1  0
 74 73  1  0
 75 76  1  0
 75 74  1  0
 76 72  1  0
 77 78  2  0
 78 79  1  0
 80 79  2  0
 81 80  1  0
 82 56  1  0
 82 83  1  0
 82 92  1  0
 83 86  1  0
 84 88  1  0
 84 83  1  0
 85 84  2  0
 88 87  1  0
 90 88  1  0
 90 91  1  0
 90 89  1  0
 92 95  1  1
 92 93  1  0
 94 92  1  0
M  ISO  4  11 100  19 100  54 101  55 101
M  END
>  <TORSDO>  (24) 
F 23

>  <SCORE>  (24) 
-12.931

>  <name>  (24) 
24

>  <ligand_id>  (24) 
24

>  <original_smiles>  (24) 
[H]c1c([H])c([H])c2c(c1[H])C([H])([H])C([H])([H])C([H])([H])C2([H])N([H])C(=O)C1([H])N(C(=O)C([H])(N([H])C(=O)C([H])(N([H])C([H])([H])[H])C([H])([H])[H])C(C([H])([H])[H])(C([H])([H])[H])C([H])([H])[H])C([H])([H])c2c([H])c(OC([H])([H])C([H])([H])C([H])([H])[N+]([H])([H])C([H])([H])C3([H])C([H])([H])C4([H])C([H])([H])C3([H])C4(C([H])([H])[H])C([H])([H])C([H])([H])N([H])C(=O)N3C([H])([H])C([H])([H])C([H])([H])C([H])(n4nc(-c5c([H])c([H])c(Oc6c([H])c([H])c(F)c([H])c6F)c([H])c5[H])c(C(=O)N([H])[H])c4N([H])[H])C3([H])[H])c([H])c([H])c2C1([H])[H]

>  <smiles>  (24) 
[H]c1c([H])c([H])c2c(c1[H])C([H])([H])C([H])([H])C([H])([H])C2([H])N([H])C(=O)C1([H])N(C(=O)C([H])(N([H])C(=O)C([H])(N([H])C([H])([H])[H])C([H])([H])[H])C(C([H])([H])[H])(C([H])([H])[H])C([H])([H])[H])C([H])([H])c2c([H])c(OC([H])([H])C([H])([H])C([H])([H])[N+]([H])([H])C([H])([H])C3([H])C([H])([H])C4([H])C([H])([H])C3([H])C4(C([H])([H])[H])C([H])([H])C([H])([H])N([H])C(=O)N3C([H])([H])C([H])([H])C([H])([H])C([H])(n4nc(-c5c([H])c([H])c(Oc6c([H])c([H])c(F)c([H])c6F)c([H])c5[H])c(C(=O)N([H])[H])c4N([H])[H])C3([H])[H])c([H])c([H])c2C1([H])[H]

$$$$
25:0:0
     RDKit          3D

 91101  0  0  1  0  0  0  0  0999 V2000
  -28.9430  -19.7140   18.9570 C   0  0  0  0  0  0  0  0  0  0  0  0
  -30.6140  -18.3390   21.4580 C   0  0  0  0  0  2  0  0  0  0  0  0
  -29.5460  -21.0910   19.3330 C   0  0  0  0  0  3  0  0  0  0  0  0
  -29.0210  -18.6760   20.0870 C   0  0  0  0  0  3  0  0  0  0  0  0
  -29.5940  -19.5080   21.2420 C   0  0  0  0  0  3  0  0  0  0  0  0
  -29.9400  -20.9710   20.7680 C   0  0  0  0  0  3  0  0  0  0  0  0
  -28.9450  -22.1380   20.3360 C   0  0  0  0  0  3  0  0  0  0  0  0
  -30.1910  -17.5730   20.1720 C   0  0  0  0  0  3  0  0  0  0  0  0
  -28.4500  -19.5480   17.8400 O   0  0  0  0  0  0  0  0  0  0  0  0
  -30.6450  -14.9100   20.1600 C   0  0  0  0  0  0  0  0  0  0  0  0
  -30.4570  -12.5950   19.1940 C   0  0  0  0  0  2  0  0  0  0  0  0
  -29.4890  -12.6290   17.9920 C   0  0  0  0  0  2  0  0  0  0  0  0
  -28.0350  -12.4320   18.4620 C   0  0  0  0  0  2  0  0  0  0  0  0
  -27.6800  -13.3240   19.6830 C   0  0  0  0  0  3  0  0  0  0  0  0
  -28.7720  -13.2800   20.7740 C   0  0  0  0  0  2  0  0  0  0  0  0
  -30.0360  -13.6680   20.1350 N   0  0  0  0  0  0  0  0  0  0  0  0
  -31.8240  -15.0020   19.8050 O   0  0  0  0  0  0  0  0  0  0  0  0
  -29.8700  -16.0600   20.3660 N   0  0  0  0  0  0  0  0  0  0  0  0
  -28.9140  -15.8630   20.6230 H   0  0  0  0  0  0  0  0  0  0  0  0
  -25.3280  -13.9010   20.5200 C   0  0  0  0  0  0  0  0  0  0  0  0
  -24.2740  -13.1240   20.9090 C   0  0  0  0  0  0  0  0  0  0  0  0
  -24.7250  -11.7700   20.8240 C   0  0  0  0  0  0  0  0  0  0  0  0
  -26.3550  -13.0250   20.2190 N   0  0  0  0  0  0  0  0  0  0  0  0
  -26.0050  -11.7360   20.4660 N   0  0  0  0  0  0  0  0  0  0  0  0
  -23.9960  -10.5080   21.0060 C   0  0  0  0  0  0  0  0  0  0  0  0
  -24.4230   -9.5420   21.9430 C   0  0  0  0  0  3  0  0  0  0  0  0
  -23.6980   -8.3430   22.1090 C   0  0  0  0  0  3  0  0  0  0  0  0
  -22.5340   -8.1030   21.3410 C   0  0  0  0  0  0  0  0  0  0  0  0
  -22.1270   -9.0590   20.3960 C   0  0  0  0  0  3  0  0  0  0  0  0
  -22.8500  -10.2510   20.2260 C   0  0  0  0  0  3  0  0  0  0  0  0
  -21.7780   -6.9580   21.4200 O   0  0  0  0  0  0  0  0  0  0  0  0
  -21.6650   -6.2480   22.5890 C   0  0  0  0  0  0  0  0  0  0  0  0
  -21.1110   -6.8170   23.7560 C   0  0  0  0  0  3  0  0  0  0  0  0
  -20.9490   -6.0310   24.9150 C   0  0  0  0  0  3  0  0  0  0  0  0
  -21.3330   -4.6760   24.9070 C   0  0  0  0  0  0  0  0  0  0  0  0
  -21.8790   -4.1060   23.7430 C   0  0  0  0  0  3  0  0  0  0  0  0
  -22.0430   -4.8900   22.5870 C   0  0  0  0  0  0  0  0  0  0  0  0
  -22.5500   -4.3320   21.4610 F   0  0  0  0  0  0  0  0  0  0  0  0
  -21.1730   -3.9150   26.0160 F   0  0  0  0  0  0  0  0  0  0  0  0
  -22.8890  -13.6000   21.2430 C   0  0  0  0  0  0  0  0  0  0  0  0
  -22.1920  -12.8910   22.1220 N   0  0  0  0  0  0  0  0  0  0  0  0
  -22.4350  -14.6360   20.7540 O   0  0  0  0  0  0  0  0  0  0  0  0
  -22.5730  -12.0550   22.5440 H   0  0  0  0  0  0  0  0  0  0  0  0
  -21.2600  -13.1870   22.3790 H   0  0  0  0  0  0  0  0  0  0  0  0
  -25.4930  -15.2760   20.3750 N   0  0  0  0  0  0  0  0  0  0  0  0
  -24.7280  -15.9250   20.5180 H   0  0  0  0  0  0  0  0  0  0  0  0
  -26.3150  -15.7180   19.9820 H   0  0  0  0  0  0  0  0  0  0  0  0
  -30.1100  -24.1190   21.5680 C   0  0  0  0  0  1  0  0  0  0  0  0
  -29.3240  -23.7310   20.3020 C   0  0  0  0  0  3  0  0  0  0  0  0
  -28.1820  -24.8870   20.0290 C   0  0  0  0  0  2  0  0  0  0  0  0
  -28.4000  -26.3840   20.2410 O   0  0  0  0  0  0  0  0  0  0  0  0
  -24.6720  -31.8770   23.2790 C   0  0  0  0  0  0  0  0  0  0  0  0
  -27.2990  -27.2930   20.1910 C   0  0  0  0  0  0  0  0  0  0  0  0
  -23.4800  -30.5070   21.6070 C   0  0  0  0  0  3  0  0  0  0  0  0
  -24.9420  -28.9650   20.1750 C   0  0  0  0  0  0  0  0  0  0  0  0
  -26.0290  -30.8030   21.4550 C   0  0  0  0  0  2  0  0  0  0  0  0
  -26.1110  -29.4280   20.7870 C   0  0  0  0  0  0  0  0  0  0  0  0
  -27.2930  -28.6090   20.7790 C   0  0  0  0  0  3  0  0  0  0  0  0
  -26.0970  -26.9010   19.5610 C   0  0  0  0  0  3  0  0  0  0  0  0
  -24.9380  -27.7070   19.5520 C   0  0  0  0  0  3  0  0  0  0  0  0
  -23.7080  -29.8490   20.2190 C   0  0  0  0  0  2  0  0  0  0  0  0
  -24.7460  -31.0800   22.1690 N   0  0  0  0  0  0  0  0  0  0  0  0
  -23.5840  -32.1470   23.8100 O   0  0  0  0  0  0  0  0  0  0  0  0
  -22.8020  -29.4810   22.5480 C   0  0  0  0  0  0  0  0  0  0  0  0
  -21.4780  -29.3040   22.4040 N   0  0  0  0  0  0  0  0  0  0  0  0
  -23.4700  -28.8430   23.3660 O   0  0  0  0  0  0  0  0  0  0  0  0
  -20.9960  -29.8730   21.7220 H   0  0  0  0  0  0  0  0  0  0  0  0
  -18.0910  -28.1120   22.8880 C   0  0  0  0  0  0  0  0  0  0  0  0
  -20.6540  -28.3520   23.1540 C   0  0  0  0  0  3  0  0  0  0  0  0
  -20.7450  -26.9350   22.5450 C   0  0  0  0  0  2  0  0  0  0  0  0
  -19.6380  -26.6410   21.5270 C   0  0  0  0  0  2  0  0  0  0  0  0
  -18.2580  -26.7800   22.1770 C   0  0  0  0  0  2  0  0  0  0  0  0
  -19.2170  -28.8580   23.3330 C   0  0  0  0  0  0  0  0  0  0  0  0
  -19.0070  -30.1060   23.9580 C   0  0  0  0  0  3  0  0  0  0  0  0
  -17.7060  -30.6090   24.1420 C   0  0  0  0  0  3  0  0  0  0  0  0
  -16.5950  -29.8620   23.7110 C   0  0  0  0  0  3  0  0  0  0  0  0
  -16.7900  -28.6160   23.0910 C   0  0  0  0  0  3  0  0  0  0  0  0
  -25.9480  -32.5000   23.9250 C   0  0  0  0  0  3  0  0  0  0  0  0
  -25.6450  -33.9010   24.2550 N   0  0  0  0  0  0  0  0  0  0  0  0
  -25.9420  -34.9490   23.4780 C   0  0  0  0  0  0  0  0  0  0  0  0
  -26.5740  -34.8410   22.4220 O   0  0  0  0  0  0  0  0  0  0  0  0
  -25.0990  -34.0620   25.0880 H   0  0  0  0  0  0  0  0  0  0  0  0
  -24.1780  -36.7210   23.1940 C   0  0  0  0  0  1  0  0  0  0  0  0
  -25.4660  -36.3390   23.9410 C   0  0  0  0  0  3  0  0  0  0  0  0
  -27.6260  -37.2660   24.6530 C   0  0  0  0  0  1  0  0  0  0  0  0
  -26.4780  -37.4030   23.7600 N   0  0  0  0  0  0  0  0  0  0  0  0
  -26.0670  -38.3210   23.9100 H   0  0  0  0  0  0  0  0  0  0  0  0
  -26.4340  -31.7220   25.2120 C   0  0  1  0  0  0  0  0  0  0  0  0
  -25.3220  -31.4910   26.2600 C   0  0  0  0  0  1  0  0  0  0  0  0
  -27.0150  -30.3400   24.8300 C   0  0  0  0  0  1  0  0  0  0  0  0
  -27.5720  -32.5130   25.9020 C   0  0  0  0  0  1  0  0  0  0  0  0
  3  1  1  0
  3  7  1  0
  3  6  1  0
  4  1  1  0
  4  8  1  0
  4  5  1  0
  5  2  1  0
  6  5  1  0
  7  6  1  0
  8 18  1  0
  8  2  1  0
  9  1  2  0
 10 18  1  0
 11 16  1  0
 12 13  1  0
 12 11  1  0
 13 14  1  0
 14 23  1  0
 14 15  1  0
 16 10  1  0
 16 15  1  0
 17 10  2  0
 18 19  1  0
 20 21  2  0
 21 40  1  0
 22 21  1  0
 22 25  1  0
 23 24  1  0
 23 20  1  0
 24 22  2  0
 25 26  1  0
 26 27  2  0
 28 31  1  0
 28 27  1  0
 29 28  2  0
 30 29  1  0
 30 25  2  0
 31 32  1  0
 32 33  1  0
 33 34  2  0
 35 34  1  0
 35 39  1  0
 36 35  2  0
 37 32  2  0
 37 36  1  0
 38 37  1  0
 40 41  1  0
 41 44  1  0
 41 43  1  0
 42 40  2  0
 45 46  1  0
 45 20  1  0
 47 45  1  0
 49  7  1  0
 49 48  1  0
 50 51  1  0
 50 49  1  0
 52 63  2  0
 52 78  1  0
 53 51  1  0
 53 58  1  0
 54 62  1  0
 54 64  1  0
 55 61  1  0
 55 57  1  0
 56 62  1  0
 57 56  1  0
 58 57  2  0
 59 53  2  0
 60 59  1  0
 60 55  2  0
 61 54  1  0
 62 52  1  0
 64 66  2  0
 65 64  1  0
 65 69  1  0
 67 65  1  0
 68 77  2  0
 68 73  1  0
 69 73  1  0
 70 69  1  0
 71 72  1  0
 71 70  1  0
 72 68  1  0
 73 74  2  0
 74 75  1  0
 76 75  2  0
 77 76  1  0
 78 79  1  0
 78 88  1  0
 79 82  1  0
 80 84  1  0
 80 79  1  0
 81 80  2  0
 83 84  1  0
 86 87  1  0
 86 84  1  0
 86 85  1  0
 88 91  1  1
 88 89  1  0
 90 88  1  0
M  ISO  4  10 100  18 100  50 101  51 101
M  END
>  <TORSDO>  (25) 
F 18

>  <SCORE>  (25) 
-14.575

>  <name>  (25) 
25

>  <ligand_id>  (25) 
25

>  <original_smiles>  (25) 
[H]c1c([H])c([H])c2c(c1[H])C([H])([H])C([H])([H])C([H])([H])C2([H])N([H])C(=O)C1([H])N(C(=O)C([H])(N([H])C(=O)C([H])(N([H])C([H])([H])[H])C([H])([H])[H])C(C([H])([H])[H])(C([H])([H])[H])C([H])([H])[H])C([H])([H])c2c([H])c(OC([H])([H])C([H])(C([H])([H])[H])C3([H])C4([H])C(=O)C5([H])C([H])(N([H])C(=O)N6C([H])([H])C([H])([H])C([H])([H])C([H])(n7nc(-c8c([H])c([H])c(Oc9c([H])c([H])c(F)c([H])c9F)c([H])c8[H])c(C(=O)N([H])[H])c7N([H])[H])C6([H])[H])C([H])([H])C5([H])C43[H])c([H])c([H])c2C1([H])[H]

>  <smiles>  (25) 
[H]c1c([H])c([H])c2c(c1[H])C([H])([H])C([H])([H])C([H])([H])C2([H])N([H])C(=O)C1([H])N(C(=O)C([H])(N([H])C(=O)C([H])(N([H])C([H])([H])[H])C([H])([H])[H])C(C([H])([H])[H])(C([H])([H])[H])C([H])([H])[H])C([H])([H])c2c([H])c(OC([H])([H])C([H])(C([H])([H])[H])C3([H])C4([H])C(=O)C5([H])C([H])(N([H])C(=O)N6C([H])([H])C([H])([H])C([H])([H])C([H])(n7nc(-c8c([H])c([H])c(Oc9c([H])c([H])c(F)c([H])c9F)c([H])c8[H])c(C(=O)N([H])[H])c7N([H])[H])C6([H])[H])C([H])([H])C5([H])C43[H])c([H])c([H])c2C1([H])[H]

$$$$
26:0:0
     RDKit          3D

 91 99  0  0  1  0  0  0  0  0999 V2000
  -28.3870  -20.8530   18.0530 C   0  0  0  0  0  3  0  0  0  0  0  0
  -28.4400  -22.1430   18.6120 C   0  0  0  0  0  3  0  0  0  0  0  0
  -28.8950  -19.7330   18.7410 C   0  0  0  0  0  3  0  0  0  0  0  0
  -29.4780  -21.1880   20.5910 C   0  0  0  0  0  3  0  0  0  0  0  0
  -28.9980  -22.3640   19.8880 C   0  0  0  0  0  0  0  0  0  0  0  0
  -29.4560  -19.8440   20.0340 C   0  0  0  0  0  0  0  0  0  0  0  0
  -29.1320  -23.8530   20.4180 C   0  0  0  0  0  3  0  0  0  0  0  0
  -28.1410  -24.9920   19.8650 C   0  0  0  0  0  3  0  0  0  0  0  0
  -28.3010  -26.4320   20.2250 O   0  0  0  0  0  0  0  0  0  0  0  0
  -24.6140  -31.8720   23.2400 C   0  0  0  0  0  0  0  0  0  0  0  0
  -27.1860  -27.2930   20.1600 C   0  0  0  0  0  0  0  0  0  0  0  0
  -23.3910  -30.4770   21.6120 C   0  0  0  0  0  3  0  0  0  0  0  0
  -24.8220  -28.9210   20.1740 C   0  0  0  0  0  0  0  0  0  0  0  0
  -25.9300  -30.7830   21.4070 C   0  0  0  0  0  2  0  0  0  0  0  0
  -25.9980  -29.4030   20.7600 C   0  0  0  0  0  0  0  0  0  0  0  0
  -27.1800  -28.6000   20.7470 C   0  0  0  0  0  3  0  0  0  0  0  0
  -25.9860  -26.8810   19.5320 C   0  0  0  0  0  3  0  0  0  0  0  0
  -24.8180  -27.6650   19.5520 C   0  0  0  0  0  3  0  0  0  0  0  0
  -23.5900  -29.8000   20.2310 C   0  0  0  0  0  2  0  0  0  0  0  0
  -24.6640  -31.0630   22.1430 N   0  0  0  0  0  0  0  0  0  0  0  0
  -23.5370  -32.1530   23.7850 O   0  0  0  0  0  0  0  0  0  0  0  0
  -22.7350  -29.4620   22.5790 C   0  0  0  0  0  0  0  0  0  0  0  0
  -21.4080  -29.2860   22.4620 N   0  0  0  0  0  0  0  0  0  0  0  0
  -23.4180  -28.8380   23.3950 O   0  0  0  0  0  0  0  0  0  0  0  0
  -20.9170  -29.8380   21.7730 H   0  0  0  0  0  0  0  0  0  0  0  0
  -18.0360  -28.0810   22.9780 C   0  0  0  0  0  0  0  0  0  0  0  0
  -20.5940  -28.3530   23.2420 C   0  0  0  0  0  3  0  0  0  0  0  0
  -20.7000  -26.9160   22.6790 C   0  0  0  0  0  2  0  0  0  0  0  0
  -19.5970  -26.5800   21.6700 C   0  0  0  0  0  2  0  0  0  0  0  0
  -18.2170  -26.7260   22.3140 C   0  0  0  0  0  2  0  0  0  0  0  0
  -19.1520  -28.8510   23.3990 C   0  0  0  0  0  0  0  0  0  0  0  0
  -18.9290  -30.1170   23.9820 C   0  0  0  0  0  3  0  0  0  0  0  0
  -17.6230  -30.6140   24.1470 C   0  0  0  0  0  3  0  0  0  0  0  0
  -16.5220  -29.8420   23.7410 C   0  0  0  0  0  3  0  0  0  0  0  0
  -16.7290  -28.5780   23.1610 C   0  0  0  0  0  3  0  0  0  0  0  0
  -25.9050  -32.5000   23.8500 C   0  0  0  0  0  3  0  0  0  0  0  0
  -25.5970  -33.8970   24.1900 N   0  0  0  0  0  0  0  0  0  0  0  0
  -25.9160  -34.9540   23.4310 C   0  0  0  0  0  0  0  0  0  0  0  0
  -26.5700  -34.8560   22.3890 O   0  0  0  0  0  0  0  0  0  0  0  0
  -25.0100  -34.0460   24.9980 H   0  0  0  0  0  0  0  0  0  0  0  0
  -24.1770  -36.7470   23.1200 C   0  0  0  0  0  1  0  0  0  0  0  0
  -25.4360  -36.3400   23.9040 C   0  0  0  0  0  3  0  0  0  0  0  0
  -27.5900  -37.2260   24.6870 C   0  0  0  0  0  1  0  0  0  0  0  0
  -26.4640  -37.3960   23.7710 N   0  0  0  0  0  0  0  0  0  0  0  0
  -26.0600  -38.3140   23.9330 H   0  0  0  0  0  0  0  0  0  0  0  0
  -26.4360  -31.7230   25.1170 C   0  0  1  0  0  0  0  0  0  0  0  0
  -25.3570  -31.4870   26.1990 C   0  0  0  0  0  1  0  0  0  0  0  0
  -27.0100  -30.3440   24.7160 C   0  0  0  0  0  1  0  0  0  0  0  0
  -27.5960  -32.5120   25.7650 C   0  0  0  0  0  1  0  0  0  0  0  0
  -29.9930  -18.5220   20.7610 C   0  0  0  0  0  3  0  0  0  0  0  0
  -32.0430  -19.6970   21.9080 C   0  0  0  0  0  1  0  0  0  0  0  0
  -31.5190  -18.5630   21.0140 C   0  0  0  0  0  2  0  0  0  0  0  0
  -29.6860  -17.1040   20.0500 C   0  0  0  0  0  2  0  0  0  0  0  0
  -30.5860  -14.6850   20.4700 C   0  0  0  0  0  0  0  0  0  0  0  0
  -30.3970  -12.4140   19.4730 C   0  0  0  0  0  2  0  0  0  0  0  0
  -29.4780  -12.5150   18.2340 C   0  0  0  0  0  2  0  0  0  0  0  0
  -27.9970  -12.3670   18.6340 C   0  0  0  0  0  2  0  0  0  0  0  0
  -27.6160  -13.2470   19.8540 C   0  0  0  0  0  3  0  0  0  0  0  0
  -28.6550  -13.1240   20.9940 C   0  0  0  0  0  2  0  0  0  0  0  0
  -29.9750  -13.4550   20.4370 N   0  0  0  0  0  0  0  0  0  0  0  0
  -31.7340  -14.8340   20.0410 O   0  0  0  0  0  0  0  0  0  0  0  0
  -29.7990  -15.7720   20.7760 N   0  0  0  0  0  0  0  0  0  0  0  0
  -28.9490  -15.5070   21.2540 H   0  0  0  0  0  0  0  0  0  0  0  0
  -25.2110  -13.8510   20.5300 C   0  0  0  0  0  0  0  0  0  0  0  0
  -24.1360  -13.0840   20.8890 C   0  0  0  0  0  0  0  0  0  0  0  0
  -24.5980  -11.7310   20.8770 C   0  0  0  0  0  0  0  0  0  0  0  0
  -26.2590  -12.9680   20.3190 N   0  0  0  0  0  0  0  0  0  0  0  0
  -25.8930  -11.6880   20.5880 N   0  0  0  0  0  0  0  0  0  0  0  0
  -23.8650  -10.4710   21.0660 C   0  0  0  0  0  0  0  0  0  0  0  0
  -24.2960   -9.4970   21.9940 C   0  0  0  0  0  3  0  0  0  0  0  0
  -23.5630   -8.3040   22.1720 C   0  0  0  0  0  3  0  0  0  0  0  0
  -22.3840   -8.0760   21.4210 C   0  0  0  0  0  0  0  0  0  0  0  0
  -21.9750   -9.0370   20.4810 C   0  0  0  0  0  3  0  0  0  0  0  0
  -22.7090  -10.2210   20.3020 C   0  0  0  0  0  3  0  0  0  0  0  0
  -21.6220   -6.9350   21.5100 O   0  0  0  0  0  0  0  0  0  0  0  0
  -21.5890   -6.1800   22.6550 C   0  0  0  0  0  0  0  0  0  0  0  0
  -21.2060   -6.7260   23.8990 C   0  0  0  0  0  3  0  0  0  0  0  0
  -21.1170   -5.8960   25.0340 C   0  0  0  0  0  3  0  0  0  0  0  0
  -21.4020   -4.5220   24.9280 C   0  0  0  0  0  0  0  0  0  0  0  0
  -21.7800   -3.9760   23.6890 C   0  0  0  0  0  3  0  0  0  0  0  0
  -21.8700   -4.8010   22.5550 C   0  0  0  0  0  0  0  0  0  0  0  0
  -22.2120   -4.2660   21.3590 F   0  0  0  0  0  0  0  0  0  0  0  0
  -21.3090   -3.7240   26.0170 F   0  0  0  0  0  0  0  0  0  0  0  0
  -22.7360  -13.5650   21.1330 C   0  0  0  0  0  0  0  0  0  0  0  0
  -21.9910  -12.8830   21.9960 N   0  0  0  0  0  0  0  0  0  0  0  0
  -22.3080  -14.5860   20.5940 O   0  0  0  0  0  0  0  0  0  0  0  0
  -22.3490  -12.0580   22.4560 H   0  0  0  0  0  0  0  0  0  0  0  0
  -21.0510  -13.1880   22.2000 H   0  0  0  0  0  0  0  0  0  0  0  0
  -25.3790  -15.2190   20.3410 N   0  0  0  0  0  0  0  0  0  0  0  0
  -24.6090  -15.8720   20.4380 H   0  0  0  0  0  0  0  0  0  0  0  0
  -26.2260  -15.6570   20.0060 H   0  0  0  0  0  0  0  0  0  0  0  0
  1  2  2  0
  1  3  1  0
  2  5  1  0
  3  6  2  0
  5  7  1  0
  5  4  2  0
  6  4  1  0
  6 50  1  0
  8  9  1  0
  8  7  2  0
 10 21  2  0
 11  9  1  0
 11 16  1  0
 12 20  1  0
 12 22  1  0
 13 19  1  0
 13 15  1  0
 14 20  1  0
 15 14  1  0
 16 15  2  0
 17 18  1  0
 17 11  2  0
 18 13  2  0
 19 12  1  0
 20 10  1  0
 22 24  2  0
 23 22  1  0
 25 23  1  0
 26 35  2  0
 26 31  1  0
 27 23  1  0
 27 31  1  0
 28 27  1  0
 29 30  1  0
 29 28  1  0
 30 26  1  0
 31 32  2  0
 32 33  1  0
 34 33  2  0
 35 34  1  0
 36 10  1  0
 36 37  1  0
 36 46  1  0
 37 40  1  0
 38 42  1  0
 38 37  1  0
 39 38  2  0
 42 41  1  0
 44 42  1  0
 44 45  1  0
 44 43  1  0
 46 49  1  1
 46 47  1  0
 48 46  1  0
 50 53  1  0
 50 52  1  0
 52 51  1  0
 53 62  1  0
 54 62  1  0
 55 60  1  0
 56 57  1  0
 56 55  1  0
 58 57  1  0
 58 67  1  0
 58 59  1  0
 60 54  1  0
 60 59  1  0
 61 54  2  0
 62 63  1  0
 64 65  2  0
 65 84  1  0
 66 65  1  0
 66 69  1  0
 67 64  1  0
 67 68  1  0
 68 66  2  0
 69 70  1  0
 70 71  2  0
 72 75  1  0
 72 71  1  0
 73 72  2  0
 74 73  1  0
 74 69  2  0
 75 76  1  0
 76 77  1  0
 77 78  2  0
 79 78  1  0
 79 83  1  0
 80 79  2  0
 81 76  2  0
 81 80  1  0
 82 81  1  0
 84 85  1  0
 85 88  1  0
 85 87  1  0
 86 84  2  0
 89 90  1  0
 89 64  1  0
 91 89  1  0
M  ISO  4   8 101   9 101  54 100  62 100
M  END
>  <TORSDO>  (26) 
F 21

>  <SCORE>  (26) 
-13.622

>  <name>  (26) 
26

>  <ligand_id>  (26) 
26

>  <original_smiles>  (26) 
[H]c1c([H])c([H])c2c(c1[H])C([H])([H])C([H])([H])C([H])([H])C2([H])N([H])C(=O)C1([H])N(C(=O)C([H])(N([H])C(=O)C([H])(N([H])C([H])([H])[H])C([H])([H])[H])C(C([H])([H])[H])(C([H])([H])[H])C([H])([H])[H])C([H])([H])c2c([H])c(OC([H])([H])C([H])([H])c3c([H])c([H])c([H])c(C([H])(C([H])([H])N([H])C(=O)N4C([H])([H])C([H])([H])C([H])([H])C([H])(n5nc(-c6c([H])c([H])c(Oc7c([H])c([H])c(F)c([H])c7F)c([H])c6[H])c(C(=O)N([H])[H])c5N([H])[H])C4([H])[H])C([H])([H])C([H])([H])[H])c3[H])c([H])c([H])c2C1([H])[H]

>  <smiles>  (26) 
[H]c1c([H])c([H])c2c(c1[H])C([H])([H])C([H])([H])C([H])([H])C2([H])N([H])C(=O)C1([H])N(C(=O)C([H])(N([H])C(=O)C([H])(N([H])C([H])([H])[H])C([H])([H])[H])C(C([H])([H])[H])(C([H])([H])[H])C([H])([H])[H])C([H])([H])c2c([H])c(OC([H])([H])C([H])([H])c3c([H])c([H])c([H])c(C([H])(C([H])([H])N([H])C(=O)N4C([H])([H])C([H])([H])C([H])([H])C([H])(n5nc(-c6c([H])c([H])c(Oc7c([H])c([H])c(F)c([H])c7F)c([H])c6[H])c(C(=O)N([H])[H])c5N([H])[H])C4([H])[H])C([H])([H])C([H])([H])[H])c3[H])c([H])c([H])c2C1([H])[H]

$$$$
27:0:0
     RDKit          3D

 96104  0  0  1  0  0  0  0  0999 V2000
  -30.0470  -20.1120   20.1490 C   0  0  0  0  0  2  0  0  0  0  0  0
  -29.3200  -21.4070   20.7360 C   0  0  0  0  0  0  0  0  0  0  0  0
  -29.3900  -22.6010   20.0640 N   0  0  0  0  0  0  0  0  0  0  0  0
  -28.7170  -21.3380   21.8090 O   0  0  0  0  0  0  0  0  0  0  0  0
  -29.8190  -22.5420   19.1500 H   0  0  0  0  0  0  0  0  0  0  0  0
  -29.2010  -24.0190   20.5680 C   0  0  0  0  0  3  0  0  0  0  0  0
  -28.1620  -24.9890   19.8540 C   0  0  0  0  0  3  0  0  0  0  0  0
  -28.2810  -26.4380   20.1500 O   0  0  0  0  0  0  0  0  0  0  0  0
  -24.5680  -31.8570   23.1370 C   0  0  0  0  0  0  0  0  0  0  0  0
  -27.1510  -27.2720   20.0900 C   0  0  0  0  0  0  0  0  0  0  0  0
  -23.3460  -30.4430   21.5200 C   0  0  0  0  0  3  0  0  0  0  0  0
  -24.7820  -28.8790   20.0960 C   0  0  0  0  0  0  0  0  0  0  0  0
  -25.8840  -30.7580   21.3140 C   0  0  0  0  0  2  0  0  0  0  0  0
  -25.9560  -29.3710   20.6830 C   0  0  0  0  0  0  0  0  0  0  0  0
  -27.1370  -28.5730   20.6820 C   0  0  0  0  0  3  0  0  0  0  0  0
  -25.9610  -26.8460   19.4580 C   0  0  0  0  0  3  0  0  0  0  0  0
  -24.7870  -27.6190   19.4790 C   0  0  0  0  0  3  0  0  0  0  0  0
  -23.5470  -29.7530   20.1460 C   0  0  0  0  0  2  0  0  0  0  0  0
  -24.6180  -31.0380   22.0460 N   0  0  0  0  0  0  0  0  0  0  0  0
  -23.4920  -32.1400   23.6840 O   0  0  0  0  0  0  0  0  0  0  0  0
  -22.6920  -29.4380   22.4990 C   0  0  0  0  0  0  0  0  0  0  0  0
  -21.3670  -29.2480   22.3800 N   0  0  0  0  0  0  0  0  0  0  0  0
  -23.3780  -28.8280   23.3230 O   0  0  0  0  0  0  0  0  0  0  0  0
  -20.8710  -29.7920   21.6880 H   0  0  0  0  0  0  0  0  0  0  0  0
  -18.0060  -28.0100   22.8800 C   0  0  0  0  0  0  0  0  0  0  0  0
  -20.5580  -28.3180   23.1690 C   0  0  0  0  0  3  0  0  0  0  0  0
  -20.6900  -26.8740   22.6330 C   0  0  0  0  0  2  0  0  0  0  0  0
  -19.6050  -26.5050   21.6180 C   0  0  0  0  0  2  0  0  0  0  0  0
  -18.2120  -26.6460   22.2440 C   0  0  0  0  0  2  0  0  0  0  0  0
  -19.1090  -28.8000   23.3000 C   0  0  0  0  0  0  0  0  0  0  0  0
  -18.8660  -30.0740   23.8580 C   0  0  0  0  0  3  0  0  0  0  0  0
  -17.5530  -30.5610   23.9980 C   0  0  0  0  0  3  0  0  0  0  0  0
  -16.4630  -29.7670   23.5990 C   0  0  0  0  0  3  0  0  0  0  0  0
  -16.6910  -28.4940   23.0440 C   0  0  0  0  0  3  0  0  0  0  0  0
  -25.8580  -32.4970   23.7340 C   0  0  0  0  0  3  0  0  0  0  0  0
  -26.4210  -31.7090   24.9810 C   0  0  1  0  0  0  0  0  0  0  0  0
  -25.3610  -31.4320   26.0740 C   0  0  0  0  0  1  0  0  0  0  0  0
  -27.0180  -30.3480   24.5490 C   0  0  0  0  0  1  0  0  0  0  0  0
  -27.5750  -32.5080   25.6340 C   0  0  0  0  0  1  0  0  0  0  0  0
  -25.5380  -33.8810   24.1050 N   0  0  0  0  0  0  0  0  0  0  0  0
  -25.8370  -34.9580   23.3650 C   0  0  0  0  0  0  0  0  0  0  0  0
  -26.4860  -34.8910   22.3180 O   0  0  0  0  0  0  0  0  0  0  0  0
  -24.9650  -34.0050   24.9260 H   0  0  0  0  0  0  0  0  0  0  0  0
  -24.0750  -36.7350   23.0970 C   0  0  0  0  0  1  0  0  0  0  0  0
  -25.3400  -36.3270   23.8690 C   0  0  0  0  0  3  0  0  0  0  0  0
  -27.4800  -37.2240   24.6700 C   0  0  0  0  0  1  0  0  0  0  0  0
  -26.3520  -37.3980   23.7600 N   0  0  0  0  0  0  0  0  0  0  0  0
  -25.9350  -38.3060   23.9470 H   0  0  0  0  0  0  0  0  0  0  0  0
  -30.3070  -18.7440   21.0010 C   0  0  0  0  0  3  0  0  0  0  0  0
  -30.9950  -14.8650   20.1470 C   0  0  0  0  0  0  0  0  0  0  0  0
  -30.6520  -12.6370   19.0670 C   0  0  0  0  0  2  0  0  0  0  0  0
  -29.6750  -12.6950   17.8700 C   0  0  0  0  0  2  0  0  0  0  0  0
  -28.2050  -12.5970   18.3340 C   0  0  0  0  0  2  0  0  0  0  0  0
  -27.8840  -13.4490   19.5920 C   0  0  0  0  0  3  0  0  0  0  0  0
  -28.9880  -13.3550   20.6710 C   0  0  0  0  0  2  0  0  0  0  0  0
  -30.2670  -13.6940   20.0310 N   0  0  0  0  0  0  0  0  0  0  0  0
  -32.2180  -14.8250   19.9980 O   0  0  0  0  0  0  0  0  0  0  0  0
  -30.0280  -17.4760   18.1030 C   0  0  0  0  0  2  0  0  0  0  0  0
  -31.3360  -17.8240   18.7730 C   0  0  0  0  0  2  0  0  0  0  0  0
  -29.4820  -16.3170   18.9370 C   0  0  0  0  0  2  0  0  0  0  0  0
  -31.0410  -17.4840   20.2380 C   0  0  0  0  0  3  0  0  0  0  0  0
  -30.3460  -16.1140   20.1200 N   0  0  0  0  0  0  0  0  0  0  0  0
  -25.5210  -14.0920   20.3530 C   0  0  0  0  0  0  0  0  0  0  0  0
  -24.4480  -13.3380   20.7330 C   0  0  0  0  0  0  0  0  0  0  0  0
  -24.8950  -11.9820   20.7100 C   0  0  0  0  0  0  0  0  0  0  0  0
  -26.5500  -13.1930   20.1160 N   0  0  0  0  0  0  0  0  0  0  0  0
  -26.1820  -11.9210   20.3990 N   0  0  0  0  0  0  0  0  0  0  0  0
  -24.1570  -10.7310   20.9110 C   0  0  0  0  0  0  0  0  0  0  0  0
  -24.5660   -9.7810   21.8730 C   0  0  0  0  0  3  0  0  0  0  0  0
  -23.8280   -8.5930   22.0620 C   0  0  0  0  0  3  0  0  0  0  0  0
  -22.6690   -8.3470   21.2880 C   0  0  0  0  0  0  0  0  0  0  0  0
  -22.2840   -9.2860   20.3140 C   0  0  0  0  0  3  0  0  0  0  0  0
  -23.0210  -10.4640   20.1220 C   0  0  0  0  0  3  0  0  0  0  0  0
  -21.9030   -7.2110   21.3880 O   0  0  0  0  0  0  0  0  0  0  0  0
  -21.7960   -6.5180   22.5660 C   0  0  0  0  0  0  0  0  0  0  0  0
  -21.3300   -7.1290   23.7510 C   0  0  0  0  0  3  0  0  0  0  0  0
  -21.1660   -6.3630   24.9210 C   0  0  0  0  0  3  0  0  0  0  0  0
  -21.4580   -4.9860   24.9090 C   0  0  0  0  0  0  0  0  0  0  0  0
  -21.9170   -4.3750   23.7300 C   0  0  0  0  0  3  0  0  0  0  0  0
  -22.0810   -5.1380   22.5600 C   0  0  0  0  0  0  0  0  0  0  0  0
  -22.5030   -4.5400   21.4210 F   0  0  0  0  0  0  0  0  0  0  0  0
  -21.2940   -4.2470   26.0310 F   0  0  0  0  0  0  0  0  0  0  0  0
  -23.0570  -13.8330   21.0050 C   0  0  0  0  0  0  0  0  0  0  0  0
  -22.3330  -13.1670   21.8950 N   0  0  0  0  0  0  0  0  0  0  0  0
  -22.6220  -14.8510   20.4650 O   0  0  0  0  0  0  0  0  0  0  0  0
  -22.6970  -12.3430   22.3510 H   0  0  0  0  0  0  0  0  0  0  0  0
  -21.3990  -13.4820   22.1180 H   0  0  0  0  0  0  0  0  0  0  0  0
  -25.6990  -15.4610   20.1640 N   0  0  0  0  0  0  0  0  0  0  0  0
  -24.9390  -16.1200   20.2800 H   0  0  0  0  0  0  0  0  0  0  0  0
  -26.5570  -15.9000   19.8560 H   0  0  0  0  0  0  0  0  0  0  0  0
  -31.1560  -19.1390   22.2470 C   0  0  0  0  0  2  0  0  0  0  0  0
  -31.3200  -18.0710   23.3420 C   0  0  0  0  0  2  0  0  0  0  0  0
  -30.1890  -18.0660   24.2870 N   0  0  0  0  0  4  0  0  0  0  0  0
  -30.0600  -18.9830   24.6820 H   0  0  0  0  0  0  0  0  0  0  0  0
  -30.3820  -17.4300   25.0420 H   0  0  0  0  0  0  0  0  0  0  0  0
  -29.3350  -17.7850   23.8440 H   0  0  0  0  0  0  0  0  0  0  0  0
  1  2  1  0
  2  4  2  0
  3  6  1  0
  3  2  1  0
  5  3  1  0
  7  8  1  0
  7  6  2  0
  9 20  2  0
 10  8  1  0
 10 15  1  0
 11 19  1  0
 11 21  1  0
 12 18  1  0
 12 14  1  0
 13 19  1  0
 14 13  1  0
 15 14  2  0
 16 17  1  0
 16 10  2  0
 17 12  2  0
 18 11  1  0
 19  9  1  0
 21 23  2  0
 22 21  1  0
 24 22  1  0
 25 34  2  0
 25 30  1  0
 26 22  1  0
 26 30  1  0
 27 26  1  0
 28 29  1  0
 28 27  1  0
 29 25  1  0
 30 31  2  0
 31 32  1  0
 33 32  2  0
 34 33  1  0
 35  9  1  0
 35 40  1  0
 35 36  1  0
 36 39  1  1
 36 37  1  0
 38 36  1  0
 40 43  1  0
 41 45  1  0
 41 40  1  0
 42 41  2  0
 45 44  1  0
 47 45  1  0
 47 48  1  0
 47 46  1  0
 49  1  1  0
 49 91  1  0
 51 56  1  0
 52 53  1  0
 52 51  1  0
 54 53  1  0
 54 66  1  0
 54 55  1  0
 56 50  1  0
 56 55  1  0
 57 50  2  0
 58 59  1  0
 58 60  1  0
 59 61  1  0
 60 62  1  0
 61 49  1  0
 62 50  1  0
 62 61  1  0
 63 64  2  0
 64 83  1  0
 65 64  1  0
 65 68  1  0
 66 63  1  0
 66 67  1  0
 67 65  2  0
 68 69  1  0
 69 70  2  0
 71 74  1  0
 71 70  1  0
 72 71  2  0
 73 72  1  0
 73 68  2  0
 74 75  1  0
 75 76  1  0
 76 77  2  0
 78 77  1  0
 78 82  1  0
 79 78  2  0
 80 75  2  0
 80 79  1  0
 81 80  1  0
 83 84  1  0
 84 87  1  0
 84 86  1  0
 85 83  2  0
 88 89  1  0
 88 63  1  0
 90 88  1  0
 91 92  1  0
 92 93  1  0
 93 94  1  0
 93 95  1  0
 96 93  1  0
M  ISO  4   7 101   8 101  50 100  62 100
M  END
>  <TORSDO>  (27) 
F 23

>  <SCORE>  (27) 
-11.832

>  <name>  (27) 
27

>  <ligand_id>  (27) 
27

>  <original_smiles>  (27) 
[H]c1c([H])c([H])c2c(c1[H])C([H])([H])C([H])([H])C([H])([H])C2([H])N([H])C(=O)C1([H])N(C(=O)C([H])(N([H])C(=O)C([H])(N([H])C([H])([H])[H])C([H])([H])[H])C(C([H])([H])[H])(C([H])([H])[H])C([H])([H])[H])C([H])([H])c2c([H])c(OC([H])([H])C([H])([H])N([H])C(=O)C([H])([H])C([H])(C([H])([H])C([H])([H])[N+]([H])([H])[H])C3([H])N(C(=O)N4C([H])([H])C([H])([H])C([H])([H])C([H])(n5nc(-c6c([H])c([H])c(Oc7c([H])c([H])c(F)c([H])c7F)c([H])c6[H])c(C(=O)N([H])[H])c5N([H])[H])C4([H])[H])C([H])([H])C([H])([H])C3([H])[H])c([H])c([H])c2C1([H])[H]

>  <smiles>  (27) 
[H]c1c([H])c([H])c2c(c1[H])C([H])([H])C([H])([H])C([H])([H])C2([H])N([H])C(=O)C1([H])N(C(=O)C([H])(N([H])C(=O)C([H])(N([H])C([H])([H])[H])C([H])([H])[H])C(C([H])([H])[H])(C([H])([H])[H])C([H])([H])[H])C([H])([H])c2c([H])c(OC([H])([H])C([H])([H])N([H])C(=O)C([H])([H])C([H])(C([H])([H])C([H])([H])[N+]([H])([H])[H])C3([H])N(C(=O)N4C([H])([H])C([H])([H])C([H])([H])C([H])(n5nc(-c6c([H])c([H])c(Oc7c([H])c([H])c(F)c([H])c7F)c([H])c6[H])c(C(=O)N([H])[H])c5N([H])[H])C4([H])[H])C([H])([H])C([H])([H])C3([H])[H])c([H])c([H])c2C1([H])[H]

$$$$
28:0:0
     RDKit          3D

 96104  0  0  1  0  0  0  0  0999 V2000
  -30.0650  -20.5900   20.4140 C   0  0  0  0  0  2  0  0  0  0  0  0
  -28.3850  -21.3070   18.6650 C   0  0  0  0  0  2  0  0  0  0  0  0
  -30.0250  -19.0940   19.6830 C   0  0  0  0  0  3  0  0  0  0  0  0
  -29.4200  -21.9120   19.6460 C   0  0  0  0  0  3  0  0  0  0  0  0
  -27.6860  -19.9800   19.1170 C   0  0  0  0  0  3  0  0  0  0  0  0
  -28.6070  -18.8050   19.3360 N   0  0  0  0  0  4  0  0  0  0  0  0
  -28.2140  -18.2470   20.0770 H   0  0  0  0  0  0  0  0  0  0  0  0
  -28.6030  -18.2430   18.5030 H   0  0  0  0  0  0  0  0  0  0  0  0
  -31.1630  -15.1720   20.4220 C   0  0  0  0  0  0  0  0  0  0  0  0
  -31.0320  -12.7450   19.6990 C   0  0  0  0  0  2  0  0  0  0  0  0
  -30.2010  -12.5970   18.4070 C   0  0  0  0  0  2  0  0  0  0  0  0
  -28.7030  -12.4560   18.7370 C   0  0  0  0  0  2  0  0  0  0  0  0
  -28.2280  -13.4990   19.7830 C   0  0  0  0  0  3  0  0  0  0  0  0
  -29.1940  -13.6180   20.9790 C   0  0  0  0  0  2  0  0  0  0  0  0
  -30.5140  -13.9390   20.4240 N   0  0  0  0  0  0  0  0  0  0  0  0
  -32.3950  -15.1390   20.3350 O   0  0  0  0  0  0  0  0  0  0  0  0
  -30.8390  -17.7580   20.2590 C   0  0  0  0  0  0  0  0  0  0  0  0
  -30.4260  -16.3890   20.2590 N   0  0  0  0  0  0  0  0  0  0  0  0
  -31.9540  -18.0310   20.7110 O   0  0  0  0  0  0  0  0  0  0  0  0
  -29.4570  -16.2270   20.0610 H   0  0  0  0  0  0  0  0  0  0  0  0
  -25.8420  -14.2090   20.3710 C   0  0  0  0  0  0  0  0  0  0  0  0
  -24.7200  -13.4970   20.6860 C   0  0  0  0  0  0  0  0  0  0  0  0
  -25.1140  -12.1220   20.6960 C   0  0  0  0  0  0  0  0  0  0  0  0
  -26.8510  -13.2760   20.2030 N   0  0  0  0  0  0  0  0  0  0  0  0
  -26.4180  -12.0160   20.4650 N   0  0  0  0  0  0  0  0  0  0  0  0
  -24.3120  -10.9010   20.8450 C   0  0  0  0  0  0  0  0  0  0  0  0
  -24.6680   -9.8910   21.7650 C   0  0  0  0  0  3  0  0  0  0  0  0
  -23.8710   -8.7350   21.9050 C   0  0  0  0  0  3  0  0  0  0  0  0
  -22.6980   -8.5830   21.1250 C   0  0  0  0  0  0  0  0  0  0  0  0
  -22.3600   -9.5800   20.1940 C   0  0  0  0  0  3  0  0  0  0  0  0
  -23.1580  -10.7270   20.0520 C   0  0  0  0  0  3  0  0  0  0  0  0
  -21.8770   -7.4830   21.1760 O   0  0  0  0  0  0  0  0  0  0  0  0
  -21.8250   -6.6730   22.2810 C   0  0  0  0  0  0  0  0  0  0  0  0
  -21.5260   -7.1820   23.5640 C   0  0  0  0  0  3  0  0  0  0  0  0
  -21.4160   -6.3050   24.6610 C   0  0  0  0  0  3  0  0  0  0  0  0
  -21.5940   -4.9220   24.4780 C   0  0  0  0  0  0  0  0  0  0  0  0
  -21.8870   -4.4120   23.2010 C   0  0  0  0  0  3  0  0  0  0  0  0
  -21.9990   -5.2860   22.1050 C   0  0  0  0  0  0  0  0  0  0  0  0
  -22.2600   -4.7880   20.8720 F   0  0  0  0  0  0  0  0  0  0  0  0
  -21.4810   -4.0770   25.5300 F   0  0  0  0  0  0  0  0  0  0  0  0
  -23.3340  -14.0480   20.8530 C   0  0  0  0  0  0  0  0  0  0  0  0
  -22.5170  -13.4130   21.6860 N   0  0  0  0  0  0  0  0  0  0  0  0
  -22.9880  -15.0800   20.2770 O   0  0  0  0  0  0  0  0  0  0  0  0
  -22.8100  -12.5790   22.1710 H   0  0  0  0  0  0  0  0  0  0  0  0
  -21.5840  -13.7680   21.8390 H   0  0  0  0  0  0  0  0  0  0  0  0
  -26.0870  -15.5660   20.1750 N   0  0  0  0  0  0  0  0  0  0  0  0
  -25.2560  -16.1410   20.0880 H   0  0  0  0  0  0  0  0  0  0  0  0
  -26.7770  -15.7910   19.4730 H   0  0  0  0  0  0  0  0  0  0  0  0
  -28.9750  -23.3740   20.3800 C   0  0  0  0  0  2  0  0  0  0  0  0
  -28.2960  -24.7250   19.6350 C   0  0  0  0  0  2  0  0  0  0  0  0
  -28.4180  -26.2250   20.0470 O   0  0  0  0  0  0  0  0  0  0  0  0
  -24.5790  -31.7310   23.0850 C   0  0  0  0  0  0  0  0  0  0  0  0
  -27.3280  -27.1680   19.9720 C   0  0  0  0  0  0  0  0  0  0  0  0
  -23.4330  -30.3240   21.4170 C   0  0  0  0  0  3  0  0  0  0  0  0
  -24.9370  -28.8260   19.9680 C   0  0  0  0  0  0  0  0  0  0  0  0
  -25.9750  -30.6790   21.2660 C   0  0  0  0  0  2  0  0  0  0  0  0
  -26.0970  -29.3010   20.5930 C   0  0  0  0  0  0  0  0  0  0  0  0
  -27.2890  -28.4850   20.5850 C   0  0  0  0  0  3  0  0  0  0  0  0
  -26.1410  -26.8020   19.2960 C   0  0  0  0  0  3  0  0  0  0  0  0
  -24.9720  -27.5900   19.3070 C   0  0  0  0  0  3  0  0  0  0  0  0
  -23.6790  -29.6800   20.0270 C   0  0  0  0  0  2  0  0  0  0  0  0
  -24.6820  -30.9320   21.9780 N   0  0  0  0  0  0  0  0  0  0  0  0
  -23.4840  -31.9680   23.6150 O   0  0  0  0  0  0  0  0  0  0  0  0
  -22.7860  -29.2770   22.3600 C   0  0  0  0  0  0  0  0  0  0  0  0
  -21.4600  -29.0790   22.2410 N   0  0  0  0  0  0  0  0  0  0  0  0
  -23.4800  -28.6450   23.1610 O   0  0  0  0  0  0  0  0  0  0  0  0
  -20.9540  -29.6440   21.5730 H   0  0  0  0  0  0  0  0  0  0  0  0
  -18.1100  -27.8020   22.7590 C   0  0  0  0  0  0  0  0  0  0  0  0
  -20.6680  -28.1050   22.9980 C   0  0  0  0  0  3  0  0  0  0  0  0
  -20.7880  -26.6910   22.3830 C   0  0  0  0  0  2  0  0  0  0  0  0
  -19.6780  -26.3740   21.3760 C   0  0  0  0  0  2  0  0  0  0  0  0
  -18.3030  -26.4760   22.0420 C   0  0  0  0  0  2  0  0  0  0  0  0
  -19.2200  -28.5740   23.1950 C   0  0  0  0  0  0  0  0  0  0  0  0
  -18.9850  -29.8140   23.8280 C   0  0  0  0  0  3  0  0  0  0  0  0
  -17.6740  -30.2830   24.0270 C   0  0  0  0  0  3  0  0  0  0  0  0
  -16.5780  -29.5080   23.6060 C   0  0  0  0  0  3  0  0  0  0  0  0
  -16.7980  -28.2700   22.9780 C   0  0  0  0  0  3  0  0  0  0  0  0
  -25.8340  -32.3990   23.7250 C   0  0  0  0  0  3  0  0  0  0  0  0
  -25.4730  -33.7810   24.0790 N   0  0  0  0  0  0  0  0  0  0  0  0
  -25.8230  -34.8670   23.3780 C   0  0  0  0  0  0  0  0  0  0  0  0
  -26.5490  -34.8120   22.3810 O   0  0  0  0  0  0  0  0  0  0  0  0
  -24.8340  -33.8950   24.8530 H   0  0  0  0  0  0  0  0  0  0  0  0
  -24.0730  -36.6360   22.9950 C   0  0  0  0  0  1  0  0  0  0  0  0
  -25.2830  -36.2310   23.8530 C   0  0  0  0  0  3  0  0  0  0  0  0
  -27.3540  -37.1360   24.8130 C   0  0  0  0  0  1  0  0  0  0  0  0
  -26.2950  -37.3090   23.8230 N   0  0  0  0  0  0  0  0  0  0  0  0
  -25.8620  -38.2150   23.9780 H   0  0  0  0  0  0  0  0  0  0  0  0
  -26.3640  -31.6290   24.9970 C   0  0  1  0  0  0  0  0  0  0  0  0
  -25.2730  -31.3510   26.0580 C   0  0  0  0  0  1  0  0  0  0  0  0
  -26.9880  -30.2720   24.5990 C   0  0  0  0  0  1  0  0  0  0  0  0
  -27.4890  -32.4460   25.6750 C   0  0  0  0  0  1  0  0  0  0  0  0
  -26.4730  -19.5540   18.2180 C   0  0  0  0  0  3  0  0  0  0  0  0
  -27.3500  -19.5730   15.6830 C   0  0  0  0  0  1  0  0  0  0  0  0
  -26.8100  -18.7900   16.8980 C   0  0  0  0  0  2  0  0  0  0  0  0
  -25.3430  -21.6940   17.0730 C   0  0  0  0  0  1  0  0  0  0  0  0
  -25.3100  -20.5880   18.1450 C   0  0  0  0  0  2  0  0  0  0  0  0
  2  5  1  0
  2  4  1  0
  3 17  1  0
  3  1  1  0
  4 49  1  0
  4  1  1  0
  5 92  1  0
  5  6  1  0
  6  3  1  0
  6  7  1  0
  8  6  1  0
  9 15  1  0
 10 15  1  0
 11 12  1  0
 11 10  1  0
 13 12  1  0
 13 24  1  0
 13 14  1  0
 15 14  1  0
 16  9  2  0
 17 18  1  0
 17 19  2  0
 18  9  1  0
 20 18  1  0
 21 22  2  0
 22 23  1  0
 22 41  1  0
 23 26  1  0
 24 21  1  0
 24 25  1  0
 25 23  2  0
 26 27  1  0
 27 28  2  0
 29 32  1  0
 29 28  1  0
 30 29  2  0
 31 30  1  0
 31 26  2  0
 32 33  1  0
 33 34  1  0
 34 35  2  0
 36 35  1  0
 36 40  1  0
 37 36  2  0
 38 33  2  0
 38 37  1  0
 39 38  1  0
 41 42  1  0
 42 45  1  0
 42 44  1  0
 43 41  2  0
 46 21  1  0
 47 46  1  0
 48 46  1  0
 50 51  1  0
 50 49  1  0
 52 63  2  0
 53 51  1  0
 53 58  1  0
 54 62  1  0
 54 64  1  0
 55 61  1  0
 55 57  1  0
 56 62  1  0
 57 56  1  0
 58 57  2  0
 59 60  1  0
 59 53  2  0
 60 55  2  0
 61 54  1  0
 62 52  1  0
 64 66  2  0
 65 64  1  0
 67 65  1  0
 68 77  2  0
 68 73  1  0
 69 65  1  0
 69 73  1  0
 70 69  1  0
 71 72  1  0
 71 70  1  0
 72 68  1  0
 73 74  2  0
 74 75  1  0
 76 75  2  0
 77 76  1  0
 78 52  1  0
 78 79  1  0
 78 88  1  0
 79 82  1  0
 80 84  1  0
 80 79  1  0
 81 80  2  0
 84 83  1  0
 86 84  1  0
 86 87  1  0
 86 85  1  0
 88 91  1  1
 88 89  1  0
 90 88  1  0
 93 94  1  0
 94 92  1  0
 95 96  1  0
 96 92  1  0
M  ISO  4   9 100  18 100  50 101  51 101
M  END
>  <TORSDO>  (28) 
F 21

>  <SCORE>  (28) 
-11.797

>  <name>  (28) 
28

>  <ligand_id>  (28) 
28

>  <original_smiles>  (28) 
[H]c1c([H])c([H])c2c(c1[H])C([H])([H])C([H])([H])C([H])([H])C2([H])N([H])C(=O)C1([H])N(C(=O)C([H])(N([H])C(=O)C([H])(N([H])C([H])([H])[H])C([H])([H])[H])C(C([H])([H])[H])(C([H])([H])[H])C([H])([H])[H])C([H])([H])c2c([H])c(OC([H])([H])C([H])([H])C3([H])C([H])([H])C([H])(C(=O)N([H])C(=O)N4C([H])([H])C([H])([H])C([H])([H])C([H])(n5nc(-c6c([H])c([H])c(Oc7c([H])c([H])c(F)c([H])c7F)c([H])c6[H])c(C(=O)N([H])[H])c5N([H])[H])C4([H])[H])[N+]([H])([H])C([H])(C([H])(C([H])([H])C([H])([H])[H])C([H])([H])C([H])([H])[H])C3([H])[H])c([H])c([H])c2C1([H])[H]

>  <smiles>  (28) 
[H]c1c([H])c([H])c2c(c1[H])C([H])([H])C([H])([H])C([H])([H])C2([H])N([H])C(=O)C1([H])N(C(=O)C([H])(N([H])C(=O)C([H])(N([H])C([H])([H])[H])C([H])([H])[H])C(C([H])([H])[H])(C([H])([H])[H])C([H])([H])[H])C([H])([H])c2c([H])c(OC([H])([H])C([H])([H])C3([H])C([H])([H])C([H])(C(=O)N([H])C(=O)N4C([H])([H])C([H])([H])C([H])([H])C([H])(n5nc(-c6c([H])c([H])c(Oc7c([H])c([H])c(F)c([H])c7F)c([H])c6[H])c(C(=O)N([H])[H])c5N([H])[H])C4([H])[H])[N+]([H])([H])C([H])(C([H])(C([H])([H])C([H])([H])[H])C([H])([H])C([H])([H])[H])C3([H])[H])c([H])c([H])c2C1([H])[H]

$$$$
29:0:0
     RDKit          3D

 91 99  0  0  1  0  0  0  0  0999 V2000
  -29.5600  -20.7150   19.6090 C   0  0  0  0  0  0  0  0  0  0  0  0
  -29.0890  -21.8750   20.2690 N   0  0  0  0  0  0  0  0  0  0  0  0
  -30.0690  -20.8480   18.4960 O   0  0  0  0  0  0  0  0  0  0  0  0
  -28.6510  -21.6880   21.1620 H   0  0  0  0  0  0  0  0  0  0  0  0
  -28.0600  -18.6400   20.1510 C   0  0  0  0  0  2  0  0  0  0  0  0
  -28.4580  -17.6910   19.0080 C   0  0  0  0  0  2  0  0  0  0  0  0
  -29.4980  -19.1790   20.2100 C   0  0  0  0  0  3  0  0  0  0  0  0
  -29.9260  -17.7310   19.4570 C   0  0  0  0  0  3  0  0  0  0  0  0
  -31.9980  -16.8050   20.5180 C   0  0  0  0  0  1  0  0  0  0  0  0
  -30.5610  -16.3350   20.1510 C   0  0  2  0  0  0  0  0  0  0  0  0
  -30.8050  -14.9030   19.2940 C   0  0  0  0  0  0  0  0  0  0  0  0
  -30.2950  -12.6630   18.2010 C   0  0  0  0  0  2  0  0  0  0  0  0
  -29.1690  -12.8090   17.1490 C   0  0  0  0  0  2  0  0  0  0  0  0
  -27.7870  -12.6480   17.8080 C   0  0  0  0  0  2  0  0  0  0  0  0
  -27.6690  -13.4800   19.1110 C   0  0  0  0  0  3  0  0  0  0  0  0
  -28.8920  -13.2730   20.0220 C   0  0  0  0  0  2  0  0  0  0  0  0
  -30.0870  -13.6950   19.2700 N   0  0  0  0  0  0  0  0  0  0  0  0
  -31.8150  -14.9000   18.5780 O   0  0  0  0  0  0  0  0  0  0  0  0
  -25.5200  -14.1340   20.3430 C   0  0  0  0  0  0  0  0  0  0  0  0
  -24.4750  -13.3960   20.8280 C   0  0  0  0  0  0  0  0  0  0  0  0
  -24.8060  -12.0300   20.5730 C   0  0  0  0  0  0  0  0  0  0  0  0
  -26.4180  -13.2230   19.8140 N   0  0  0  0  0  0  0  0  0  0  0  0
  -26.0070  -11.9420   20.0150 N   0  0  0  0  0  0  0  0  0  0  0  0
  -24.0180  -10.8060   20.7720 C   0  0  0  0  0  0  0  0  0  0  0  0
  -24.4640   -9.7680   21.6180 C   0  0  0  0  0  3  0  0  0  0  0  0
  -23.6780   -8.6110   21.8080 C   0  0  0  0  0  3  0  0  0  0  0  0
  -22.4300   -8.4850   21.1510 C   0  0  0  0  0  0  0  0  0  0  0  0
  -22.0010   -9.5110   20.2920 C   0  0  0  0  0  3  0  0  0  0  0  0
  -22.7880  -10.6600   20.0990 C   0  0  0  0  0  3  0  0  0  0  0  0
  -21.6120   -7.3870   21.2550 O   0  0  0  0  0  0  0  0  0  0  0  0
  -21.5430   -6.6480   22.4090 C   0  0  0  0  0  0  0  0  0  0  0  0
  -21.1650   -7.2230   23.6410 C   0  0  0  0  0  3  0  0  0  0  0  0
  -21.0400   -6.4120   24.7870 C   0  0  0  0  0  3  0  0  0  0  0  0
  -21.2820   -5.0280   24.7030 C   0  0  0  0  0  0  0  0  0  0  0  0
  -21.6530   -4.4530   23.4750 C   0  0  0  0  0  3  0  0  0  0  0  0
  -21.7800   -5.2610   22.3300 C   0  0  0  0  0  0  0  0  0  0  0  0
  -22.1170   -4.6970   21.1460 F   0  0  0  0  0  0  0  0  0  0  0  0
  -21.1530   -4.2480   25.8010 F   0  0  0  0  0  0  0  0  0  0  0  0
  -23.2010  -13.9340   21.4100 C   0  0  0  0  0  0  0  0  0  0  0  0
  -22.6040  -13.2110   22.3540 N   0  0  0  0  0  0  0  0  0  0  0  0
  -22.7500  -15.0240   21.0640 O   0  0  0  0  0  0  0  0  0  0  0  0
  -22.9850  -12.3260   22.6550 H   0  0  0  0  0  0  0  0  0  0  0  0
  -21.7550  -13.5500   22.7820 H   0  0  0  0  0  0  0  0  0  0  0  0
  -25.7640  -15.5020   20.2860 N   0  0  0  0  0  0  0  0  0  0  0  0
  -25.0930  -16.1810   20.6290 H   0  0  0  0  0  0  0  0  0  0  0  0
  -26.5810  -15.9290   19.8720 H   0  0  0  0  0  0  0  0  0  0  0  0
  -30.5490  -15.1030   22.5040 C   0  0  0  0  0  1  0  0  0  0  0  0
  -29.8630  -16.0920   21.5260 C   0  0  0  0  0  2  0  0  0  0  0  0
  -29.2040  -23.4060   19.9090 C   0  0  0  0  0  3  0  0  0  0  0  0
  -28.2540  -24.6210   20.5590 C   0  0  0  0  0  3  0  0  0  0  0  0
  -28.4970  -26.1530   20.4730 O   0  0  0  0  0  0  0  0  0  0  0  0
  -24.6720  -31.8440   23.1520 C   0  0  0  0  0  0  0  0  0  0  0  0
  -27.4150  -27.0920   20.3760 C   0  0  0  0  0  0  0  0  0  0  0  0
  -23.5470  -30.3760   21.5230 C   0  0  0  0  0  3  0  0  0  0  0  0
  -25.0600  -28.7760   20.2040 C   0  0  0  0  0  0  0  0  0  0  0  0
  -26.0960  -30.6740   21.4360 C   0  0  0  0  0  2  0  0  0  0  0  0
  -26.2100  -29.2680   20.8360 C   0  0  0  0  0  0  0  0  0  0  0  0
  -27.3910  -28.4420   20.9040 C   0  0  0  0  0  3  0  0  0  0  0  0
  -26.2440  -26.6950   19.6960 C   0  0  0  0  0  3  0  0  0  0  0  0
  -25.0920  -27.5020   19.6170 C   0  0  0  0  0  3  0  0  0  0  0  0
  -23.8170  -29.6470   20.1800 C   0  0  0  0  0  2  0  0  0  0  0  0
  -24.7890  -30.9880   22.0900 N   0  0  0  0  0  0  0  0  0  0  0  0
  -23.5650  -32.1320   23.6320 O   0  0  0  0  0  0  0  0  0  0  0  0
  -22.8520  -29.3940   22.5010 C   0  0  0  0  0  0  0  0  0  0  0  0
  -21.5270  -29.2180   22.3470 N   0  0  0  0  0  0  0  0  0  0  0  0
  -23.5070  -28.7930   23.3580 O   0  0  0  0  0  0  0  0  0  0  0  0
  -21.0600  -29.7500   21.6270 H   0  0  0  0  0  0  0  0  0  0  0  0
  -18.1420  -28.0120   22.8030 C   0  0  0  0  0  0  0  0  0  0  0  0
  -20.6910  -28.3030   23.1260 C   0  0  0  0  0  3  0  0  0  0  0  0
  -20.8190  -26.8540   22.6010 C   0  0  0  0  0  2  0  0  0  0  0  0
  -19.7450  -26.4910   21.5700 C   0  0  0  0  0  2  0  0  0  0  0  0
  -18.3460  -26.6430   22.1740 C   0  0  0  0  0  2  0  0  0  0  0  0
  -19.2440  -28.7960   23.2370 C   0  0  0  0  0  0  0  0  0  0  0  0
  -19.0020  -30.0730   23.7870 C   0  0  0  0  0  3  0  0  0  0  0  0
  -17.6890  -30.5660   23.9100 C   0  0  0  0  0  3  0  0  0  0  0  0
  -16.6010  -29.7800   23.4930 C   0  0  0  0  0  3  0  0  0  0  0  0
  -16.8280  -28.5050   22.9440 C   0  0  0  0  0  3  0  0  0  0  0  0
  -25.9180  -32.5180   23.8020 C   0  0  0  0  0  3  0  0  0  0  0  0
  -25.5550  -33.9060   24.1340 N   0  0  0  0  0  0  0  0  0  0  0  0
  -25.8560  -34.9740   23.3850 C   0  0  0  0  0  0  0  0  0  0  0  0
  -26.5360  -34.8980   22.3570 O   0  0  0  0  0  0  0  0  0  0  0  0
  -24.9480  -34.0370   24.9320 H   0  0  0  0  0  0  0  0  0  0  0  0
  -24.0630  -36.7080   23.0400 C   0  0  0  0  0  1  0  0  0  0  0  0
  -25.3190  -36.3440   23.8470 C   0  0  0  0  0  3  0  0  0  0  0  0
  -27.4240  -37.3050   24.6730 C   0  0  0  0  0  1  0  0  0  0  0  0
  -26.3120  -37.4340   23.7350 N   0  0  0  0  0  0  0  0  0  0  0  0
  -25.8750  -38.3410   23.8850 H   0  0  0  0  0  0  0  0  0  0  0  0
  -26.4340  -31.7630   25.0880 C   0  0  1  0  0  0  0  0  0  0  0  0
  -25.3240  -31.4650   26.1240 C   0  0  0  0  0  1  0  0  0  0  0  0
  -27.0940  -30.4170   24.7120 C   0  0  0  0  0  1  0  0  0  0  0  0
  -27.5290  -32.6070   25.7830 C   0  0  0  0  0  1  0  0  0  0  0  0
  1  2  1  0
  2  4  1  0
  3  1  2  0
  5  7  1  0
  6  8  1  0
  6  5  1  0
  7  1  1  0
  8 10  1  0
  8  7  1  0
 10  9  1  1
 10 48  1  0
 11 10  1  0
 12 17  1  0
 13 14  1  0
 13 12  1  0
 15 14  1  0
 15 22  1  0
 15 16  1  0
 17 11  1  0
 17 16  1  0
 18 11  2  0
 19 20  2  0
 20 39  1  0
 21 24  1  0
 21 20  1  0
 22 23  1  0
 22 19  1  0
 23 21  2  0
 24 25  1  0
 25 26  2  0
 27 30  1  0
 27 26  1  0
 28 27  2  0
 29 28  1  0
 29 24  2  0
 30 31  1  0
 31 32  1  0
 32 33  2  0
 34 33  1  0
 34 38  1  0
 35 34  2  0
 36 31  2  0
 36 35  1  0
 37 36  1  0
 39 40  1  0
 40 42  1  0
 40 43  1  0
 41 39  2  0
 44 19  1  0
 44 45  1  0
 46 44  1  0
 48 47  1  0
 49  2  1  0
 49 50  2  0
 51 50  1  0
 52 63  2  0
 53 51  1  0
 53 58  1  0
 54 62  1  0
 54 64  1  0
 55 57  1  0
 56 62  1  0
 57 58  2  0
 57 56  1  0
 59 53  2  0
 60 59  1  0
 60 55  2  0
 61 55  1  0
 61 54  1  0
 62 52  1  0
 64 66  2  0
 65 64  1  0
 67 65  1  0
 68 77  2  0
 68 73  1  0
 69 65  1  0
 69 73  1  0
 70 69  1  0
 71 72  1  0
 71 70  1  0
 72 68  1  0
 73 74  2  0
 74 75  1  0
 76 75  2  0
 77 76  1  0
 78 52  1  0
 78 79  1  0
 78 88  1  0
 79 82  1  0
 80 84  1  0
 80 79  1  0
 81 80  2  0
 84 83  1  0
 86 84  1  0
 86 87  1  0
 86 85  1  0
 88 91  1  1
 88 89  1  0
 90 88  1  0
M  ISO  4  10 100  11 100  50 101  51 101
M  END
>  <TORSDO>  (29) 
F 21

>  <SCORE>  (29) 
-10.607

>  <name>  (29) 
29

>  <ligand_id>  (29) 
29

>  <original_smiles>  (29) 
[H]c1c([H])c([H])c2c(c1[H])C([H])([H])C([H])([H])C([H])([H])C2([H])N([H])C(=O)C1([H])N(C(=O)C([H])(N([H])C(=O)C([H])(N([H])C([H])([H])[H])C([H])([H])[H])C(C([H])([H])[H])(C([H])([H])[H])C([H])([H])[H])C([H])([H])c2c([H])c(OC([H])([H])C([H])([H])N([H])C(=O)C3([H])C([H])([H])C([H])([H])C3([H])C(C(=O)N3C([H])([H])C([H])([H])C([H])([H])C([H])(n4nc(-c5c([H])c([H])c(Oc6c([H])c([H])c(F)c([H])c6F)c([H])c5[H])c(C(=O)N([H])[H])c4N([H])[H])C3([H])[H])(C([H])([H])[H])C([H])([H])C([H])([H])[H])c([H])c([H])c2C1([H])[H]

>  <smiles>  (29) 
[H]c1c([H])c([H])c2c(c1[H])C([H])([H])C([H])([H])C([H])([H])C2([H])N([H])C(=O)C1([H])N(C(=O)C([H])(N([H])C(=O)C([H])(N([H])C([H])([H])[H])C([H])([H])[H])C(C([H])([H])[H])(C([H])([H])[H])C([H])([H])[H])C([H])([H])c2c([H])c(OC([H])([H])C([H])([H])N([H])C(=O)C3([H])C([H])([H])C([H])([H])C3([H])C(C(=O)N3C([H])([H])C([H])([H])C([H])([H])C([H])(n4nc(-c5c([H])c([H])c(Oc6c([H])c([H])c(F)c([H])c6F)c([H])c5[H])c(C(=O)N([H])[H])c4N([H])[H])C3([H])[H])(C([H])([H])[H])C([H])([H])C([H])([H])[H])c([H])c([H])c2C1([H])[H]

$$$$
30:0:0
     RDKit          3D

 92101  0  0  1  0  0  0  0  0999 V2000
  -28.2130  -19.5550   20.9530 C   0  0  0  0  0  2  0  0  0  0  0  0
  -28.7000  -21.0090   20.9820 C   0  0  0  0  0  3  0  0  0  0  0  0
  -29.5840  -20.7140   19.8020 C   0  0  0  0  0  3  0  0  0  0  0  0
  -28.6200  -22.0290   19.8330 C   0  0  0  0  0  3  0  0  0  0  0  0
  -29.1250  -19.1600   19.7680 C   0  0  2  0  0  0  0  0  0  0  0  0
  -28.3250  -18.9550   18.5350 N   0  0  0  0  0  4  0  0  0  0  0  0
  -27.6530  -19.6910   18.4110 H   0  0  0  0  0  0  0  0  0  0  0  0
  -27.8210  -18.0870   18.5520 H   0  0  0  0  0  0  0  0  0  0  0  0
  -28.9140  -18.9530   17.7190 H   0  0  0  0  0  0  0  0  0  0  0  0
  -28.9860  -23.6150   20.0510 C   0  0  0  0  0  3  0  0  0  0  0  0
  -27.8840  -24.8350   19.8470 C   0  0  0  0  0  3  0  0  0  0  0  0
  -28.1520  -26.3410   19.9910 O   0  0  0  0  0  0  0  0  0  0  0  0
  -24.5890  -31.8900   23.1800 C   0  0  0  0  0  0  0  0  0  0  0  0
  -27.0730  -27.2850   19.9750 C   0  0  0  0  0  0  0  0  0  0  0  0
  -23.3330  -30.5280   21.5500 C   0  0  0  0  0  3  0  0  0  0  0  0
  -24.7350  -28.9890   20.0510 C   0  0  0  0  0  0  0  0  0  0  0  0
  -25.8770  -30.8150   21.3020 C   0  0  0  0  0  2  0  0  0  0  0  0
  -25.9300  -29.4380   20.6260 C   0  0  0  0  0  0  0  0  0  0  0  0
  -27.1000  -28.6000   20.5740 C   0  0  0  0  0  3  0  0  0  0  0  0
  -25.8510  -26.9240   19.3660 C   0  0  0  0  0  3  0  0  0  0  0  0
  -24.7040  -27.7430   19.4080 C   0  0  0  0  0  3  0  0  0  0  0  0
  -23.5090  -29.8800   20.1520 C   0  0  0  0  0  2  0  0  0  0  0  0
  -24.6220  -31.0960   22.0670 N   0  0  0  0  0  0  0  0  0  0  0  0
  -23.5200  -32.1630   23.7480 O   0  0  0  0  0  0  0  0  0  0  0  0
  -22.6910  -29.4970   22.5120 C   0  0  0  0  0  0  0  0  0  0  0  0
  -21.3660  -29.2980   22.3990 N   0  0  0  0  0  0  0  0  0  0  0  0
  -23.3850  -28.8780   23.3230 O   0  0  0  0  0  0  0  0  0  0  0  0
  -20.8600  -29.8580   21.7270 H   0  0  0  0  0  0  0  0  0  0  0  0
  -18.0230  -27.9970   22.8910 C   0  0  0  0  0  0  0  0  0  0  0  0
  -20.5700  -28.3420   23.1730 C   0  0  0  0  0  3  0  0  0  0  0  0
  -20.7210  -26.9080   22.6150 C   0  0  0  0  0  2  0  0  0  0  0  0
  -19.6380  -26.5420   21.5960 C   0  0  0  0  0  2  0  0  0  0  0  0
  -18.2480  -26.6470   22.2280 C   0  0  0  0  0  2  0  0  0  0  0  0
  -19.1140  -28.7970   23.3210 C   0  0  0  0  0  0  0  0  0  0  0  0
  -18.8490  -30.0560   23.9030 C   0  0  0  0  0  3  0  0  0  0  0  0
  -17.5280  -30.5160   24.0580 C   0  0  0  0  0  3  0  0  0  0  0  0
  -16.4510  -29.7120   23.6440 C   0  0  0  0  0  3  0  0  0  0  0  0
  -16.6990  -28.4550   23.0640 C   0  0  0  0  0  3  0  0  0  0  0  0
  -25.8880  -32.5120   23.7760 C   0  0  0  0  0  3  0  0  0  0  0  0
  -25.5910  -33.9070   24.1400 N   0  0  0  0  0  0  0  0  0  0  0  0
  -25.9030  -34.9750   23.3940 C   0  0  0  0  0  0  0  0  0  0  0  0
  -26.5430  -34.8890   22.3420 O   0  0  0  0  0  0  0  0  0  0  0  0
  -25.0220  -34.0450   24.9610 H   0  0  0  0  0  0  0  0  0  0  0  0
  -24.1720  -36.7830   23.1320 C   0  0  0  0  0  1  0  0  0  0  0  0
  -25.4350  -36.3560   23.8950 C   0  0  0  0  0  3  0  0  0  0  0  0
  -27.5980  -37.2190   24.6750 C   0  0  0  0  0  1  0  0  0  0  0  0
  -26.4670  -37.4080   23.7710 N   0  0  0  0  0  0  0  0  0  0  0  0
  -26.0690  -38.3260   23.9480 H   0  0  0  0  0  0  0  0  0  0  0  0
  -26.4350  -31.7210   25.0280 C   0  0  1  0  0  0  0  0  0  0  0  0
  -25.3690  -31.4730   26.1220 C   0  0  0  0  0  1  0  0  0  0  0  0
  -27.0030  -30.3490   24.6000 C   0  0  0  0  0  1  0  0  0  0  0  0
  -27.6020  -32.5030   25.6710 C   0  0  0  0  0  1  0  0  0  0  0  0
  -30.2140  -17.8960   19.8650 C   0  0  0  0  0  2  0  0  0  0  0  0
  -29.8570  -16.3600   20.4240 C   0  0  0  0  0  3  0  0  0  0  0  0
  -30.6220  -14.9930   19.8960 C   0  0  0  0  0  0  0  0  0  0  0  0
  -30.4410  -12.6920   18.8440 C   0  0  0  0  0  2  0  0  0  0  0  0
  -29.4370  -12.7350   17.6660 C   0  0  0  0  0  2  0  0  0  0  0  0
  -27.9910  -12.5300   18.1610 C   0  0  0  0  0  2  0  0  0  0  0  0
  -27.6700  -13.4030   19.4020 C   0  0  0  0  0  3  0  0  0  0  0  0
  -28.7830  -13.3000   20.4600 C   0  0  0  0  0  2  0  0  0  0  0  0
  -30.0380  -13.7320   19.8290 N   0  0  0  0  0  0  0  0  0  0  0  0
  -31.7640  -15.1050   19.4350 O   0  0  0  0  0  0  0  0  0  0  0  0
  -25.3230  -13.9860   20.2510 C   0  0  0  0  0  0  0  0  0  0  0  0
  -24.2800  -13.2100   20.6780 C   0  0  0  0  0  0  0  0  0  0  0  0
  -24.7480  -11.8610   20.6320 C   0  0  0  0  0  0  0  0  0  0  0  0
  -26.3560  -13.1090   19.9620 N   0  0  0  0  0  0  0  0  0  0  0  0
  -26.0200  -11.8260   20.2550 N   0  0  0  0  0  0  0  0  0  0  0  0
  -24.0360  -10.5990   20.8670 C   0  0  0  0  0  0  0  0  0  0  0  0
  -24.4830   -9.6670   21.8290 C   0  0  0  0  0  3  0  0  0  0  0  0
  -23.7710   -8.4680   22.0500 C   0  0  0  0  0  3  0  0  0  0  0  0
  -22.5980   -8.1930   21.3070 C   0  0  0  0  0  0  0  0  0  0  0  0
  -22.1700   -9.1150   20.3360 C   0  0  0  0  0  3  0  0  0  0  0  0
  -22.8820  -10.3050   20.1140 C   0  0  0  0  0  3  0  0  0  0  0  0
  -21.8580   -7.0420   21.4330 O   0  0  0  0  0  0  0  0  0  0  0  0
  -21.7710   -6.3700   22.6260 C   0  0  0  0  0  0  0  0  0  0  0  0
  -21.3000   -6.9950   23.8010 C   0  0  0  0  0  3  0  0  0  0  0  0
  -21.1620   -6.2480   24.9880 C   0  0  0  0  0  3  0  0  0  0  0  0
  -21.4840   -4.8780   25.0000 C   0  0  0  0  0  0  0  0  0  0  0  0
  -21.9490   -4.2520   23.8290 C   0  0  0  0  0  3  0  0  0  0  0  0
  -22.0890   -4.9960   22.6460 C   0  0  0  0  0  0  0  0  0  0  0  0
  -22.5170   -4.3850   21.5150 F   0  0  0  0  0  0  0  0  0  0  0  0
  -21.3440   -4.1570   26.1380 F   0  0  0  0  0  0  0  0  0  0  0  0
  -22.8970  -13.6860   21.0180 C   0  0  0  0  0  0  0  0  0  0  0  0
  -22.2270  -13.0090   21.9430 N   0  0  0  0  0  0  0  0  0  0  0  0
  -22.4230  -14.6940   20.4970 O   0  0  0  0  0  0  0  0  0  0  0  0
  -22.6240  -12.1900   22.3800 H   0  0  0  0  0  0  0  0  0  0  0  0
  -21.3050  -13.3140   22.2180 H   0  0  0  0  0  0  0  0  0  0  0  0
  -25.4710  -15.3580   20.0650 N   0  0  0  0  0  0  0  0  0  0  0  0
  -24.7050  -16.0030   20.2240 H   0  0  0  0  0  0  0  0  0  0  0  0
  -26.3050  -15.8070   19.7120 H   0  0  0  0  0  0  0  0  0  0  0  0
  -31.2660  -16.3300   22.6490 C   0  0  0  0  0  1  0  0  0  0  0  0
  -29.8840  -16.4280   21.9820 C   0  0  0  0  0  2  0  0  0  0  0  0
  2  1  1  0
  3  4  1  0
  3  2  1  0
  4 10  1  0
  4  2  1  0
  5  3  1  0
  5 53  1  1
  5  1  1  0
  6  8  1  0
  6  5  1  0
  7  6  1  0
  9  6  1  0
 11 12  1  0
 11 10  2  0
 13 24  2  0
 13 39  1  0
 14 12  1  0
 14 19  1  0
 15 23  1  0
 15 25  1  0
 16 22  1  0
 16 18  1  0
 17 23  1  0
 18 17  1  0
 19 18  2  0
 20 21  1  0
 20 14  2  0
 21 16  2  0
 22 15  1  0
 23 13  1  0
 25 27  2  0
 26 25  1  0
 26 30  1  0
 28 26  1  0
 29 38  2  0
 29 34  1  0
 30 34  1  0
 31 30  1  0
 32 33  1  0
 32 31  1  0
 33 29  1  0
 34 35  2  0
 35 36  1  0
 37 36  2  0
 38 37  1  0
 39 40  1  0
 39 49  1  0
 40 43  1  0
 41 45  1  0
 41 40  1  0
 42 41  2  0
 44 45  1  0
 47 45  1  0
 47 48  1  0
 47 46  1  0
 49 52  1  1
 49 50  1  0
 51 49  1  0
 53 54  1  0
 54 92  1  0
 55 54  1  0
 56 61  1  0
 57 58  1  0
 57 56  1  0
 58 59  1  0
 59 66  1  0
 59 60  1  0
 61 55  1  0
 61 60  1  0
 62 55  2  0
 63 64  2  0
 64 83  1  0
 65 64  1  0
 65 68  1  0
 66 63  1  0
 66 67  1  0
 67 65  2  0
 68 69  1  0
 69 70  2  0
 71 74  1  0
 71 70  1  0
 72 71  2  0
 73 72  1  0
 73 68  2  0
 74 75  1  0
 75 80  2  0
 75 76  1  0
 76 77  2  0
 77 78  1  0
 78 82  1  0
 79 78  2  0
 80 79  1  0
 81 80  1  0
 83 84  1  0
 84 87  1  0
 84 86  1  0
 85 83  2  0
 88 89  1  0
 88 63  1  0
 90 88  1  0
 92 91  1  0
M  ISO  4  11 101  12 101  54 100  55 100
M  END
>  <TORSDO>  (30) 
F 22

>  <SCORE>  (30) 
-11.887

>  <name>  (30) 
30

>  <ligand_id>  (30) 
30

>  <original_smiles>  (30) 
[H]c1c([H])c([H])c2c(c1[H])C([H])([H])C([H])([H])C([H])([H])C2([H])N([H])C(=O)C1([H])N(C(=O)C([H])(N([H])C(=O)C([H])(N([H])C([H])([H])[H])C([H])([H])[H])C(C([H])([H])[H])(C([H])([H])[H])C([H])([H])[H])C([H])([H])c2c([H])c(OC([H])([H])C([H])([H])C3([H])C4([H])C([H])([H])C(C([H])([H])C([H])(C(=O)N5C([H])([H])C([H])([H])C([H])([H])C([H])(n6nc(-c7c([H])c([H])c(Oc8c([H])c([H])c(F)c([H])c8F)c([H])c7[H])c(C(=O)N([H])[H])c6N([H])[H])C5([H])[H])C([H])([H])C([H])([H])[H])([N+]([H])([H])[H])C34[H])c([H])c([H])c2C1([H])[H]

>  <smiles>  (30) 
[H]c1c([H])c([H])c2c(c1[H])C([H])([H])C([H])([H])C([H])([H])C2([H])N([H])C(=O)C1([H])N(C(=O)C([H])(N([H])C(=O)C([H])(N([H])C([H])([H])[H])C([H])([H])[H])C(C([H])([H])[H])(C([H])([H])[H])C([H])([H])[H])C([H])([H])c2c([H])c(OC([H])([H])C([H])([H])C3([H])C4([H])C([H])([H])C(C([H])([H])C([H])(C(=O)N5C([H])([H])C([H])([H])C([H])([H])C([H])(n6nc(-c7c([H])c([H])c(Oc8c([H])c([H])c(F)c([H])c8F)c([H])c7[H])c(C(=O)N([H])[H])c6N([H])[H])C5([H])[H])C([H])([H])C([H])([H])[H])([N+]([H])([H])[H])C34[H])c([H])c([H])c2C1([H])[H]

$$$$
31:0:0
     RDKit          3D

100110  0  0  1  0  0  0  0  0999 V2000
  -26.6830  -24.0760   18.4510 C   0  0  0  0  0  2  0  0  0  0  0  0
  -26.7250  -21.9710   19.6400 C   0  0  0  0  0  2  0  0  0  0  0  0
  -25.8340  -23.4680   17.3160 C   0  0  0  0  0  2  0  0  0  0  0  0
  -25.8180  -21.3010   18.5810 C   0  0  0  0  0  2  0  0  0  0  0  0
  -30.2500  -20.6150   18.7760 C   0  0  0  0  0  2  0  0  0  0  0  0
  -29.7030  -21.1580   21.0430 C   0  0  0  0  0  2  0  0  0  0  0  0
  -28.6860  -22.5770   18.0680 C   0  0  0  0  0  2  0  0  0  0  0  0
  -29.9420  -22.1330   18.8170 C   0  0  0  0  0  3  0  0  0  0  0  0
  -29.7410  -22.5710   20.2700 C   0  0  0  0  0  3  0  0  0  0  0  0
  -29.7040  -19.9250   20.0390 C   0  0  0  0  0  3  0  0  0  0  0  0
  -28.5430  -23.6820   20.2780 C   0  0  0  0  0  3  0  0  0  0  0  0
  -27.6620  -23.1040   19.0990 C   0  0  1  0  0  0  0  0  0  0  0  0
  -24.9420  -22.3010   17.7960 C   0  0  2  0  0  0  0  0  0  0  0  0
  -24.3250  -21.6010   16.5690 C   0  0  0  0  0  1  0  0  0  0  0  0
  -23.7680  -22.8070   18.6690 C   0  0  0  0  0  1  0  0  0  0  0  0
  -30.4500  -18.5060   20.2710 C   0  0  0  0  0  2  0  0  0  0  0  0
  -29.9030  -17.3590   21.2300 C   0  0  0  0  0  2  0  0  0  0  0  0
  -30.7110  -14.8380   20.6590 C   0  0  0  0  0  0  0  0  0  0  0  0
  -30.6130  -12.5370   19.6740 C   0  0  0  0  0  2  0  0  0  0  0  0
  -29.7220  -12.5550   18.4120 C   0  0  0  0  0  2  0  0  0  0  0  0
  -28.2330  -12.3910   18.7760 C   0  0  0  0  0  2  0  0  0  0  0  0
  -27.7940  -13.3160   19.9410 C   0  0  0  0  0  3  0  0  0  0  0  0
  -28.7970  -13.2490   21.1140 C   0  0  0  0  0  2  0  0  0  0  0  0
  -30.1220  -13.5990   20.5760 N   0  0  0  0  0  0  0  0  0  0  0  0
  -31.9080  -14.9980   20.4090 O   0  0  0  0  0  0  0  0  0  0  0  0
  -29.8410  -15.8880   20.8420 N   0  0  0  0  0  0  0  0  0  0  0  0
  -28.8950  -15.5400   20.8810 H   0  0  0  0  0  0  0  0  0  0  0  0
  -25.3820  -13.9330   20.5750 C   0  0  0  0  0  0  0  0  0  0  0  0
  -24.2910  -13.1700   20.8830 C   0  0  0  0  0  0  0  0  0  0  0  0
  -24.7350  -11.8120   20.8430 C   0  0  0  0  0  0  0  0  0  0  0  0
  -26.4240  -13.0430   20.3660 N   0  0  0  0  0  0  0  0  0  0  0  0
  -26.0370  -11.7600   20.5880 N   0  0  0  0  0  0  0  0  0  0  0  0
  -23.9830  -10.5570   20.9740 C   0  0  0  0  0  0  0  0  0  0  0  0
  -24.3510   -9.5680   21.9130 C   0  0  0  0  0  3  0  0  0  0  0  0
  -23.6010   -8.3790   22.0320 C   0  0  0  0  0  3  0  0  0  0  0  0
  -22.4680   -8.1690   21.2100 C   0  0  0  0  0  0  0  0  0  0  0  0
  -22.1170   -9.1460   20.2620 C   0  0  0  0  0  3  0  0  0  0  0  0
  -22.8690  -10.3280   20.1400 C   0  0  0  0  0  3  0  0  0  0  0  0
  -21.6940   -7.0330   21.2380 O   0  0  0  0  0  0  0  0  0  0  0  0
  -21.5570   -6.2840   22.3790 C   0  0  0  0  0  0  0  0  0  0  0  0
  -21.0460   -6.8350   23.5740 C   0  0  0  0  0  3  0  0  0  0  0  0
  -20.8560   -6.0120   24.7030 C   0  0  0  0  0  3  0  0  0  0  0  0
  -21.1680   -4.6410   24.6370 C   0  0  0  0  0  0  0  0  0  0  0  0
  -21.6740   -4.0900   23.4460 C   0  0  0  0  0  3  0  0  0  0  0  0
  -21.8650   -4.9090   22.3200 C   0  0  0  0  0  0  0  0  0  0  0  0
  -22.3310   -4.3700   21.1680 F   0  0  0  0  0  0  0  0  0  0  0  0
  -20.9790   -3.8490   25.7180 F   0  0  0  0  0  0  0  0  0  0  0  0
  -22.8900  -13.6620   21.1040 C   0  0  0  0  0  0  0  0  0  0  0  0
  -22.1220  -12.9700   21.9380 N   0  0  0  0  0  0  0  0  0  0  0  0
  -22.4850  -14.6970   20.5770 O   0  0  0  0  0  0  0  0  0  0  0  0
  -22.4590  -12.1280   22.3820 H   0  0  0  0  0  0  0  0  0  0  0  0
  -21.1820  -13.2860   22.1330 H   0  0  0  0  0  0  0  0  0  0  0  0
  -25.5700  -15.3060   20.4300 N   0  0  0  0  0  0  0  0  0  0  0  0
  -24.7980  -15.9580   20.5070 H   0  0  0  0  0  0  0  0  0  0  0  0
  -26.4210  -15.7410   20.1020 H   0  0  0  0  0  0  0  0  0  0  0  0
  -29.0050  -25.2920   20.4110 C   0  0  0  0  0  3  0  0  0  0  0  0
  -29.9770  -27.0250   22.1400 C   0  0  0  0  0  1  0  0  0  0  0  0
  -30.1600  -24.6040   22.6520 C   0  0  0  0  0  1  0  0  0  0  0  0
  -29.2980  -25.6540   21.9170 C   0  0  0  0  0  3  0  0  0  0  0  0
  -28.5820  -26.5530   19.6500 O   0  0  0  0  0  0  0  0  0  0  0  0
  -24.7420  -31.7840   23.0770 C   0  0  0  0  0  0  0  0  0  0  0  0
  -27.4290  -27.3680   19.8310 C   0  0  0  0  0  0  0  0  0  0  0  0
  -23.5540  -30.4140   21.4100 C   0  0  0  0  0  3  0  0  0  0  0  0
  -25.0230  -28.9690   19.9140 C   0  0  0  0  0  0  0  0  0  0  0  0
  -26.0890  -30.8070   21.2000 C   0  0  0  0  0  2  0  0  0  0  0  0
  -26.2010  -29.4540   20.4990 C   0  0  0  0  0  0  0  0  0  0  0  0
  -27.4080  -28.6790   20.4260 C   0  0  0  0  0  3  0  0  0  0  0  0
  -26.2170  -26.9790   19.2310 C   0  0  0  0  0  3  0  0  0  0  0  0
  -25.0370  -27.7350   19.2660 C   0  0  0  0  0  3  0  0  0  0  0  0
  -23.7690  -29.8090   20.0010 C   0  0  0  0  0  2  0  0  0  0  0  0
  -24.8160  -31.0160   21.9520 N   0  0  0  0  0  0  0  0  0  0  0  0
  -23.6580  -32.0090   23.6360 O   0  0  0  0  0  0  0  0  0  0  0  0
  -22.9420  -29.3360   22.3350 C   0  0  0  0  0  0  0  0  0  0  0  0
  -21.6200  -29.1170   22.2200 N   0  0  0  0  0  0  0  0  0  0  0  0
  -23.6520  -28.7020   23.1200 O   0  0  0  0  0  0  0  0  0  0  0  0
  -21.1040  -29.6820   21.5610 H   0  0  0  0  0  0  0  0  0  0  0  0
  -18.2970  -27.7670   22.7170 C   0  0  0  0  0  0  0  0  0  0  0  0
  -20.8450  -28.1230   22.9680 C   0  0  0  0  0  3  0  0  0  0  0  0
  -21.0000  -26.7150   22.3450 C   0  0  0  0  0  2  0  0  0  0  0  0
  -19.9010  -26.3790   21.3340 C   0  0  0  0  0  2  0  0  0  0  0  0
  -18.5210  -26.4490   21.9960 C   0  0  0  0  0  2  0  0  0  0  0  0
  -19.3890  -28.5620   23.1580 C   0  0  0  0  0  0  0  0  0  0  0  0
  -19.1260  -29.7960   23.7920 C   0  0  0  0  0  3  0  0  0  0  0  0
  -17.8040  -30.2360   23.9900 C   0  0  0  0  0  3  0  0  0  0  0  0
  -16.7280  -29.4400   23.5660 C   0  0  0  0  0  3  0  0  0  0  0  0
  -16.9730  -28.2090   22.9320 C   0  0  0  0  0  3  0  0  0  0  0  0
  -26.0120  -32.4350   23.7020 C   0  0  0  0  0  3  0  0  0  0  0  0
  -26.5650  -31.6420   24.9490 C   0  0  1  0  0  0  0  0  0  0  0  0
  -25.4920  -31.3500   26.0260 C   0  0  0  0  0  1  0  0  0  0  0  0
  -27.1740  -30.2890   24.5150 C   0  0  0  0  0  1  0  0  0  0  0  0
  -27.7080  -32.4470   25.6120 C   0  0  0  0  0  1  0  0  0  0  0  0
  -25.6610  -33.8130   24.0800 N   0  0  0  0  0  0  0  0  0  0  0  0
  -25.9510  -34.8990   23.3530 C   0  0  0  0  0  0  0  0  0  0  0  0
  -26.6120  -34.8510   22.3110 O   0  0  0  0  0  0  0  0  0  0  0  0
  -25.0670  -33.9230   24.8890 H   0  0  0  0  0  0  0  0  0  0  0  0
  -24.1630  -36.6500   23.0790 C   0  0  0  0  0  1  0  0  0  0  0  0
  -25.4280  -36.2550   23.8600 C   0  0  0  0  0  3  0  0  0  0  0  0
  -27.5440  -37.1830   24.6970 C   0  0  0  0  0  1  0  0  0  0  0  0
  -26.4260  -37.3430   23.7710 N   0  0  0  0  0  0  0  0  0  0  0  0
  -25.9910  -38.2430   23.9530 H   0  0  0  0  0  0  0  0  0  0  0  0
 12  1  1  6
  3 13  1  0
  3  1  1  0
  4  2  1  0
  5  8  1  0
  5 10  1  0
  7 12  1  0
  8  7  1  0
  8  9  1  0
  9 11  1  0
  9  6  1  0
 10 16  1  0
 10  6  1  0
 11 56  1  0
 12  2  1  0
 12 11  1  0
 13  4  1  0
 13 15  1  1
 14 13  1  0
 16 17  1  0
 18 26  1  0
 19 24  1  0
 20 21  1  0
 20 19  1  0
 22 21  1  0
 22 31  1  0
 22 23  1  0
 24 18  1  0
 24 23  1  0
 25 18  2  0
 26 27  1  0
 26 17  1  0
 28 29  2  0
 29 48  1  0
 30 29  1  0
 30 33  1  0
 31 28  1  0
 31 32  1  0
 32 30  2  0
 33 34  1  0
 34 35  2  0
 36 39  1  0
 36 35  1  0
 37 36  2  0
 38 37  1  0
 38 33  2  0
 39 40  1  0
 40 41  1  0
 41 42  2  0
 43 42  1  0
 43 47  1  0
 44 43  2  0
 45 40  2  0
 45 44  1  0
 46 45  1  0
 48 49  1  0
 49 52  1  0
 49 51  1  0
 50 48  2  0
 53 54  1  0
 53 28  1  0
 55 53  1  0
 56 60  1  0
 56 59  1  0
 59 57  1  0
 59 58  1  0
 60 62  1  0
 61 72  2  0
 62 67  1  0
 63 71  1  0
 63 73  1  0
 64 70  1  0
 64 66  1  0
 65 71  1  0
 66 65  1  0
 67 66  2  0
 68 69  1  0
 68 62  2  0
 69 64  2  0
 70 63  1  0
 71 61  1  0
 73 75  2  0
 74 73  1  0
 76 74  1  0
 77 86  2  0
 77 82  1  0
 78 74  1  0
 78 82  1  0
 79 78  1  0
 80 81  1  0
 80 79  1  0
 81 77  1  0
 82 83  2  0
 83 84  1  0
 85 84  2  0
 86 85  1  0
 87 61  1  0
 87 92  1  0
 87 88  1  0
 88 91  1  1
 88 89  1  0
 90 88  1  0
 92 95  1  0
 93 97  1  0
 93 92  1  0
 94 93  2  0
 97 96  1  0
 99 97  1  0
 99100  1  0
 99 98  1  0
M  ISO  4  18 100  26 100  56 101  60 101
M  END
>  <TORSDO>  (31) 
F 20

>  <SCORE>  (31) 
-13.163

>  <name>  (31) 
31

>  <ligand_id>  (31) 
31

>  <original_smiles>  (31) 
[H]c1c([H])c([H])c2c(c1[H])C([H])([H])C([H])([H])C([H])([H])C2([H])N([H])C(=O)C1([H])N(C(=O)C([H])(N([H])C(=O)C([H])(N([H])C([H])([H])[H])C([H])([H])[H])C(C([H])([H])[H])(C([H])([H])[H])C([H])([H])[H])C([H])([H])c2c([H])c(OC([H])(C([H])(C([H])([H])[H])C([H])([H])[H])C3([H])C4([H])C([H])([H])C([H])(C([H])([H])C([H])([H])N([H])C(=O)N5C([H])([H])C([H])([H])C([H])([H])C([H])(n6nc(-c7c([H])c([H])c(Oc8c([H])c([H])c(F)c([H])c8F)c([H])c7[H])c(C(=O)N([H])[H])c6N([H])[H])C5([H])[H])C([H])([H])C4([H])C([H])([H])C34C([H])([H])C([H])([H])C(C([H])([H])[H])(C([H])([H])[H])C([H])([H])C4([H])[H])c([H])c([H])c2C1([H])[H]

>  <smiles>  (31) 
[H]c1c([H])c([H])c2c(c1[H])C([H])([H])C([H])([H])C([H])([H])C2([H])N([H])C(=O)C1([H])N(C(=O)C([H])(N([H])C(=O)C([H])(N([H])C([H])([H])[H])C([H])([H])[H])C(C([H])([H])[H])(C([H])([H])[H])C([H])([H])[H])C([H])([H])c2c([H])c(OC([H])(C([H])(C([H])([H])[H])C([H])([H])[H])C3([H])C4([H])C([H])([H])C([H])(C([H])([H])C([H])([H])N([H])C(=O)N5C([H])([H])C([H])([H])C([H])([H])C([H])(n6nc(-c7c([H])c([H])c(Oc8c([H])c([H])c(F)c([H])c8F)c([H])c7[H])c(C(=O)N([H])[H])c6N([H])[H])C5([H])[H])C([H])([H])C4([H])C([H])([H])C34C([H])([H])C([H])([H])C(C([H])([H])[H])(C([H])([H])[H])C([H])([H])C4([H])[H])c([H])c([H])c2C1([H])[H]

$$$$
32:0:0
     RDKit          3D

 93102  0  0  1  0  0  0  0  0999 V2000
  -28.7530  -22.2270   21.1750 C   0  0  0  0  0  3  0  0  0  0  0  0
  -28.6030  -23.5990   20.8110 C   0  0  0  0  0  3  0  0  0  0  0  0
  -28.6280  -22.9430   18.5070 C   0  0  0  0  0  3  0  0  0  0  0  0
  -28.8650  -21.1640   20.2280 C   0  0  0  0  0  0  0  0  0  0  0  0
  -28.5320  -23.9990   19.4610 C   0  0  0  0  0  0  0  0  0  0  0  0
  -28.7970  -21.5640   18.8650 C   0  0  0  0  0  0  0  0  0  0  0  0
  -28.8770  -20.5380   17.7430 C   0  0  0  0  0  1  0  0  0  0  0  0
  -30.1580  -19.5370   21.6260 C   0  0  0  0  0  2  0  0  0  0  0  0
  -28.9560  -19.6950   20.7690 C   0  0  0  0  0  3  0  0  0  0  0  0
  -29.9620  -18.4600   20.5820 C   0  0  0  0  0  3  0  0  0  0  0  0
  -29.9680  -17.0140   21.2590 C   0  0  0  0  0  0  0  0  0  0  0  0
  -30.5110  -14.7170   20.0360 C   0  0  0  0  0  0  0  0  0  0  0  0
  -30.2970  -12.5020   18.9040 C   0  0  0  0  0  2  0  0  0  0  0  0
  -29.2690  -12.6050   17.7560 C   0  0  0  0  0  2  0  0  0  0  0  0
  -27.8310  -12.4060   18.2780 C   0  0  0  0  0  2  0  0  0  0  0  0
  -27.5320  -13.2420   19.5510 C   0  0  0  0  0  3  0  0  0  0  0  0
  -28.6630  -13.0980   20.5910 C   0  0  0  0  0  2  0  0  0  0  0  0
  -29.9170  -13.4900   19.9320 N   0  0  0  0  0  0  0  0  0  0  0  0
  -31.6540  -14.9220   19.6140 O   0  0  0  0  0  0  0  0  0  0  0  0
  -29.7090  -15.7220   20.5170 N   0  0  0  0  0  4  0  0  0  0  0  0
  -28.7650  -15.3960   20.6500 H   0  0  0  0  0  0  0  0  0  0  0  0
  -25.1770  -13.7820   20.4330 C   0  0  0  0  0  0  0  0  0  0  0  0
  -24.1450  -12.9800   20.8460 C   0  0  0  0  0  0  0  0  0  0  0  0
  -24.6290  -11.6420   20.7550 C   0  0  0  0  0  0  0  0  0  0  0  0
  -26.2190  -12.9260   20.1140 N   0  0  0  0  0  0  0  0  0  0  0  0
  -25.9000  -11.6340   20.3730 N   0  0  0  0  0  0  0  0  0  0  0  0
  -23.9380  -10.3610   20.9650 C   0  0  0  0  0  0  0  0  0  0  0  0
  -24.3830   -9.4290   21.9270 C   0  0  0  0  0  3  0  0  0  0  0  0
  -23.6850   -8.2140   22.1210 C   0  0  0  0  0  3  0  0  0  0  0  0
  -22.5320   -7.9280   21.3530 C   0  0  0  0  0  0  0  0  0  0  0  0
  -22.1100   -8.8500   20.3800 C   0  0  0  0  0  3  0  0  0  0  0  0
  -22.8070  -10.0550   20.1850 C   0  0  0  0  0  3  0  0  0  0  0  0
  -21.8090   -6.7640   21.4490 O   0  0  0  0  0  0  0  0  0  0  0  0
  -21.6980   -6.0870   22.6350 C   0  0  0  0  0  0  0  0  0  0  0  0
  -21.1390   -6.6840   23.7860 C   0  0  0  0  0  3  0  0  0  0  0  0
  -20.9830   -5.9300   24.9660 C   0  0  0  0  0  3  0  0  0  0  0  0
  -21.3730   -4.5770   24.9930 C   0  0  0  0  0  0  0  0  0  0  0  0
  -21.9240   -3.9780   23.8440 C   0  0  0  0  0  3  0  0  0  0  0  0
  -22.0840   -4.7320   22.6690 C   0  0  0  0  0  0  0  0  0  0  0  0
  -22.5960   -4.1470   21.5600 F   0  0  0  0  0  0  0  0  0  0  0  0
  -21.2160   -3.8450   26.1210 F   0  0  0  0  0  0  0  0  0  0  0  0
  -22.7580  -13.4270   21.2120 C   0  0  0  0  0  0  0  0  0  0  0  0
  -22.0910  -12.6890   22.0920 N   0  0  0  0  0  0  0  0  0  0  0  0
  -22.2740  -14.4600   20.7520 O   0  0  0  0  0  0  0  0  0  0  0  0
  -22.4940  -11.8530   22.4900 H   0  0  0  0  0  0  0  0  0  0  0  0
  -21.1650  -12.9710   22.3820 H   0  0  0  0  0  0  0  0  0  0  0  0
  -25.3060  -15.1590   20.2860 N   0  0  0  0  0  0  0  0  0  0  0  0
  -24.5560  -15.8010   20.5210 H   0  0  0  0  0  0  0  0  0  0  0  0
  -26.1490  -15.6290   19.9880 H   0  0  0  0  0  0  0  0  0  0  0  0
  -31.0400  -17.4830   23.6140 C   0  0  0  0  0  1  0  0  0  0  0  0
  -31.1630  -16.7960   22.2420 C   0  0  0  0  0  2  0  0  0  0  0  0
  -28.3710  -25.4890   18.9810 C   0  0  0  0  0  2  0  0  0  0  0  0
  -28.2500  -26.6100   19.9380 O   0  0  0  0  0  0  0  0  0  0  0  0
  -24.6220  -31.9660   23.1810 C   0  0  0  0  0  0  0  0  0  0  0  0
  -27.1100  -27.4300   19.9670 C   0  0  0  0  0  0  0  0  0  0  0  0
  -23.3560  -30.5820   21.5800 C   0  0  0  0  0  3  0  0  0  0  0  0
  -24.7430  -29.0370   20.0970 C   0  0  0  0  0  0  0  0  0  0  0  0
  -25.8880  -30.8950   21.3030 C   0  0  0  0  0  2  0  0  0  0  0  0
  -25.9380  -29.5210   20.6430 C   0  0  0  0  0  0  0  0  0  0  0  0
  -27.1220  -28.7260   20.5710 C   0  0  0  0  0  3  0  0  0  0  0  0
  -25.8760  -26.9790   19.4490 C   0  0  0  0  0  3  0  0  0  0  0  0
  -24.7130  -27.7680   19.5030 C   0  0  0  0  0  3  0  0  0  0  0  0
  -23.5120  -29.9140   20.1900 C   0  0  0  0  0  2  0  0  0  0  0  0
  -24.6430  -31.1660   22.0770 N   0  0  0  0  0  0  0  0  0  0  0  0
  -23.5590  -32.2460   23.7550 O   0  0  0  0  0  0  0  0  0  0  0  0
  -22.7240  -29.5610   22.5570 C   0  0  0  0  0  0  0  0  0  0  0  0
  -21.4020  -29.3440   22.4370 N   0  0  0  0  0  0  0  0  0  0  0  0
  -23.4200  -28.9630   23.3820 O   0  0  0  0  0  0  0  0  0  0  0  0
  -20.8970  -29.8770   21.7420 H   0  0  0  0  0  0  0  0  0  0  0  0
  -18.0750  -28.0170   22.9330 C   0  0  0  0  0  0  0  0  0  0  0  0
  -20.6150  -28.3930   23.2240 C   0  0  0  0  0  3  0  0  0  0  0  0
  -20.7870  -26.9510   22.6910 C   0  0  0  0  0  2  0  0  0  0  0  0
  -19.7090  -26.5470   21.6810 C   0  0  0  0  0  2  0  0  0  0  0  0
  -18.3160  -26.6530   22.3090 C   0  0  0  0  0  2  0  0  0  0  0  0
  -19.1550  -28.8390   23.3510 C   0  0  0  0  0  0  0  0  0  0  0  0
  -18.8780  -30.1090   23.8980 C   0  0  0  0  0  3  0  0  0  0  0  0
  -17.5520  -30.5590   24.0380 C   0  0  0  0  0  3  0  0  0  0  0  0
  -16.4850  -29.7380   23.6340 C   0  0  0  0  0  3  0  0  0  0  0  0
  -16.7480  -28.4690   23.0890 C   0  0  0  0  0  3  0  0  0  0  0  0
  -25.9280  -32.5920   23.7610 C   0  0  0  0  0  3  0  0  0  0  0  0
  -26.4820  -31.8180   25.0200 C   0  0  1  0  0  0  0  0  0  0  0  0
  -25.4190  -31.5820   26.1190 C   0  0  0  0  0  1  0  0  0  0  0  0
  -27.0540  -30.4390   24.6140 C   0  0  0  0  0  1  0  0  0  0  0  0
  -27.6500  -32.6120   25.6520 C   0  0  0  0  0  1  0  0  0  0  0  0
  -25.6360  -33.9920   24.1030 N   0  0  0  0  0  0  0  0  0  0  0  0
  -25.9470  -35.0460   23.3350 C   0  0  0  0  0  0  0  0  0  0  0  0
  -26.5840  -34.9400   22.2830 O   0  0  0  0  0  0  0  0  0  0  0  0
  -25.0660  -34.1450   24.9220 H   0  0  0  0  0  0  0  0  0  0  0  0
  -24.2200  -36.8510   23.0320 C   0  0  0  0  0  1  0  0  0  0  0  0
  -25.4800  -36.4360   23.8110 C   0  0  0  0  0  3  0  0  0  0  0  0
  -27.6370  -37.3120   24.5950 C   0  0  0  0  0  1  0  0  0  0  0  0
  -26.5160  -37.4830   23.6740 N   0  0  0  0  0  0  0  0  0  0  0  0
  -26.1180  -38.4060   23.8250 H   0  0  0  0  0  0  0  0  0  0  0  0
  2  1  1  0
  3  6  2  0
  3  5  1  0
  4  1  2  0
  5  2  2  0
  6  4  1  0
  7  6  1  0
  9  4  1  0
  9  8  1  0
 10  9  1  0
 10 11  1  0
 10  8  1  0
 11 51  1  0
 12 20  1  0
 13 18  1  0
 14 15  1  0
 14 13  1  0
 16 15  1  0
 16 25  1  0
 16 17  1  0
 18 12  1  0
 18 17  1  0
 19 12  2  0
 20 21  1  0
 20 11  2  3
 22 23  2  0
 23 42  1  0
 24 23  1  0
 24 27  1  0
 25 26  1  0
 25 22  1  0
 26 24  2  0
 27 28  1  0
 28 29  2  0
 30 33  1  0
 30 29  1  0
 31 30  2  0
 32 31  1  0
 32 27  2  0
 33 34  1  0
 34 39  2  0
 34 35  1  0
 35 36  2  0
 36 37  1  0
 37 41  1  0
 38 37  2  0
 39 38  1  0
 40 39  1  0
 42 43  1  0
 43 46  1  0
 43 45  1  0
 44 42  2  0
 47 22  1  0
 47 48  1  0
 49 47  1  0
 51 50  1  0
 52  5  1  0
 52 53  1  0
 53 55  1  0
 54 65  2  0
 55 60  1  0
 56 64  1  0
 56 66  1  0
 57 63  1  0
 57 59  1  0
 58 64  1  0
 59 58  1  0
 60 59  2  0
 61 62  1  0
 61 55  2  0
 62 57  2  0
 63 56  1  0
 64 54  1  0
 66 68  2  0
 67 66  1  0
 69 67  1  0
 70 79  2  0
 70 75  1  0
 71 67  1  0
 71 75  1  0
 72 71  1  0
 73 74  1  0
 73 72  1  0
 74 70  1  0
 75 76  2  0
 76 77  1  0
 78 77  2  0
 79 78  1  0
 80 54  1  0
 80 85  1  0
 80 81  1  0
 81 84  1  1
 81 82  1  0
 83 81  1  0
 85 88  1  0
 86 90  1  0
 86 85  1  0
 87 86  2  0
 90 89  1  0
 92 90  1  0
 92 93  1  0
 92 91  1  0
M  ISO  4  12 100  20 100  52 101  53 101
M  END
>  <TORSDO>  (32) 
F 20

>  <SCORE>  (32) 
-12.767

>  <name>  (32) 
32

>  <ligand_id>  (32) 
32

>  <original_smiles>  (32) 
[H]c1c([H])c([H])c2c(c1[H])C([H])([H])C([H])([H])C([H])([H])C2([H])N([H])C(=O)C1([H])N(C(=O)C([H])(N([H])C(=O)C([H])(N([H])C([H])([H])[H])C([H])([H])[H])C(C([H])([H])[H])(C([H])([H])[H])C([H])([H])[H])C([H])([H])c2c([H])c(OC([H])([H])c3c([H])c([H])c(C4([H])C([H])([H])C4([H])C([H])(N([H])C(=O)N4C([H])([H])C([H])([H])C([H])([H])C([H])(n5nc(-c6c([H])c([H])c(Oc7c([H])c([H])c(F)c([H])c7F)c([H])c6[H])c(C(=O)N([H])[H])c5N([H])[H])C4([H])[H])C([H])([H])C([H])([H])[H])c(C([H])([H])[H])c3[H])c([H])c([H])c2C1([H])[H]

>  <smiles>  (32) 
[H]c1c([H])c([H])c2c(c1[H])C([H])([H])C([H])([H])C([H])([H])C2([H])N([H])C(=O)C1([H])N(C(=O)C([H])(N([H])C(=O)C([H])(N([H])C([H])([H])[H])C([H])([H])[H])C(C([H])([H])[H])(C([H])([H])[H])C([H])([H])[H])C([H])([H])c2c([H])c(OC([H])([H])c3c([H])c([H])c(C4([H])C([H])([H])C4([H])C([H])(N([H])C(=O)N4C([H])([H])C([H])([H])C([H])([H])C([H])(n5nc(-c6c([H])c([H])c(Oc7c([H])c([H])c(F)c([H])c7F)c([H])c6[H])c(C(=O)N([H])[H])c5N([H])[H])C4([H])[H])C([H])([H])C([H])([H])[H])c(C([H])([H])[H])c3[H])c([H])c([H])c2C1([H])[H]

$$$$
33:0:0
     RDKit          3D

 91 99  0  0  1  0  0  0  0  0999 V2000
  -29.1880  -21.2630   20.6380 C   0  0  0  0  0  3  0  0  0  0  0  0
  -27.4640  -19.6930   18.4490 C   0  0  0  0  0  2  0  0  0  0  0  0
  -27.5410  -19.2250   19.8950 C   0  0  0  0  0  2  0  0  0  0  0  0
  -28.9870  -19.6520   18.4340 C   0  0  0  0  0  2  0  0  0  0  0  0
  -29.0420  -19.6000   19.9790 C   0  0  1  0  0  0  0  0  0  0  0  0
  -29.9670  -18.1520   20.4740 C   0  0  0  0  0  2  0  0  0  0  0  0
  -30.4570  -15.2780   20.1650 C   0  0  0  0  0  0  0  0  0  0  0  0
  -30.4090  -12.8620   19.2390 C   0  0  0  0  0  2  0  0  0  0  0  0
  -29.4550  -12.6850   18.0310 C   0  0  0  0  0  2  0  0  0  0  0  0
  -28.0180  -12.4090   18.5080 C   0  0  0  0  0  2  0  0  0  0  0  0
  -27.5930  -13.3580   19.6570 C   0  0  0  0  0  3  0  0  0  0  0  0
  -28.6690  -13.4860   20.7550 C   0  0  0  0  0  2  0  0  0  0  0  0
  -29.8850  -13.9840   20.0940 N   0  0  0  0  0  0  0  0  0  0  0  0
  -31.6780  -15.2890   19.9550 O   0  0  0  0  0  0  0  0  0  0  0  0
  -29.6840  -16.5280   20.2730 N   0  0  0  0  0  0  0  0  0  0  0  0
  -28.6970  -16.3220   20.3050 H   0  0  0  0  0  0  0  0  0  0  0  0
  -25.2400  -13.9050   20.4720 C   0  0  0  0  0  0  0  0  0  0  0  0
  -24.1900  -13.1240   20.8590 C   0  0  0  0  0  0  0  0  0  0  0  0
  -24.6600  -11.7750   20.8100 C   0  0  0  0  0  0  0  0  0  0  0  0
  -26.2800  -13.0350   20.1960 N   0  0  0  0  0  0  0  0  0  0  0  0
  -25.9460  -11.7480   20.4690 N   0  0  0  0  0  0  0  0  0  0  0  0
  -23.9420  -10.5090   21.0060 C   0  0  0  0  0  0  0  0  0  0  0  0
  -24.3890   -9.5410   21.9310 C   0  0  0  0  0  3  0  0  0  0  0  0
  -23.6690   -8.3410   22.1170 C   0  0  0  0  0  3  0  0  0  0  0  0
  -22.4870   -8.1000   21.3750 C   0  0  0  0  0  0  0  0  0  0  0  0
  -22.0590   -9.0580   20.4400 C   0  0  0  0  0  3  0  0  0  0  0  0
  -22.7800  -10.2490   20.2530 C   0  0  0  0  0  3  0  0  0  0  0  0
  -21.7360   -6.9540   21.4710 O   0  0  0  0  0  0  0  0  0  0  0  0
  -21.6950   -6.2140   22.6260 C   0  0  0  0  0  0  0  0  0  0  0  0
  -21.2520   -6.7650   23.8480 C   0  0  0  0  0  3  0  0  0  0  0  0
  -21.1620   -5.9510   24.9960 C   0  0  0  0  0  3  0  0  0  0  0  0
  -21.5010   -4.5870   24.9200 C   0  0  0  0  0  0  0  0  0  0  0  0
  -21.9350   -4.0350   23.7020 C   0  0  0  0  0  3  0  0  0  0  0  0
  -22.0290   -4.8460   22.5580 C   0  0  0  0  0  0  0  0  0  0  0  0
  -22.4280   -4.3050   21.3820 F   0  0  0  0  0  0  0  0  0  0  0  0
  -21.4060   -3.8020   26.0190 F   0  0  0  0  0  0  0  0  0  0  0  0
  -22.7970  -13.5930   21.1570 C   0  0  0  0  0  0  0  0  0  0  0  0
  -22.0820  -12.8890   22.0270 N   0  0  0  0  0  0  0  0  0  0  0  0
  -22.3510  -14.6250   20.6520 O   0  0  0  0  0  0  0  0  0  0  0  0
  -22.4540  -12.0540   22.4560 H   0  0  0  0  0  0  0  0  0  0  0  0
  -21.1470  -13.1900   22.2660 H   0  0  0  0  0  0  0  0  0  0  0  0
  -25.3960  -15.2780   20.2980 N   0  0  0  0  0  0  0  0  0  0  0  0
  -24.6240  -15.9260   20.4100 H   0  0  0  0  0  0  0  0  0  0  0  0
  -26.2210  -15.7130   19.9090 H   0  0  0  0  0  0  0  0  0  0  0  0
  -30.9600  -21.1750   22.4150 C   0  0  0  0  0  1  0  0  0  0  0  0
  -30.6100  -21.4530   21.0050 N   0  0  0  0  0  4  0  0  0  0  0  0
  -31.1840  -20.8910   20.3980 H   0  0  0  0  0  0  0  0  0  0  0  0
  -30.8570  -22.4120   20.8280 H   0  0  0  0  0  0  0  0  0  0  0  0
  -28.6460  -22.8370   19.9700 C   0  0  0  0  0  2  0  0  0  0  0  0
  -28.1940  -24.4020   20.6960 C   0  0  0  0  0  2  0  0  0  0  0  0
  -28.3010  -25.9850   20.3040 O   0  0  0  0  0  0  0  0  0  0  0  0
  -24.6240  -31.8740   23.2460 C   0  0  0  0  0  0  0  0  0  0  0  0
  -27.2480  -27.0250   20.3110 C   0  0  0  0  0  0  0  0  0  0  0  0
  -23.4590  -30.4640   21.5990 C   0  0  0  0  0  3  0  0  0  0  0  0
  -24.9360  -28.8610   20.2150 C   0  0  0  0  0  0  0  0  0  0  0  0
  -26.0240  -30.7060   21.4760 C   0  0  0  0  0  2  0  0  0  0  0  0
  -26.1140  -29.2920   20.8380 C   0  0  0  0  0  0  0  0  0  0  0  0
  -27.2710  -28.3970   20.8510 C   0  0  0  0  0  3  0  0  0  0  0  0
  -26.0380  -26.7270   19.6520 C   0  0  0  0  0  3  0  0  0  0  0  0
  -24.9190  -27.5970   19.6040 C   0  0  0  0  0  3  0  0  0  0  0  0
  -23.7130  -29.7750   20.2290 C   0  0  0  0  0  2  0  0  0  0  0  0
  -24.7230  -31.0400   22.1610 N   0  0  0  0  0  0  0  0  0  0  0  0
  -23.5260  -32.1570   23.7530 O   0  0  0  0  0  0  0  0  0  0  0  0
  -22.7590  -29.4640   22.5570 C   0  0  0  0  0  0  0  0  0  0  0  0
  -21.4290  -29.2990   22.4240 N   0  0  0  0  0  0  0  0  0  0  0  0
  -23.4190  -28.8390   23.3890 O   0  0  0  0  0  0  0  0  0  0  0  0
  -20.9450  -29.8630   21.7400 H   0  0  0  0  0  0  0  0  0  0  0  0
  -18.0440  -28.0920   22.9010 C   0  0  0  0  0  0  0  0  0  0  0  0
  -20.6000  -28.3620   23.1910 C   0  0  0  0  0  3  0  0  0  0  0  0
  -20.7090  -26.9270   22.6220 C   0  0  0  0  0  2  0  0  0  0  0  0
  -19.6190  -26.6000   21.5980 C   0  0  0  0  0  2  0  0  0  0  0  0
  -18.2300  -26.7430   22.2280 C   0  0  0  0  0  2  0  0  0  0  0  0
  -19.1570  -28.8600   23.3390 C   0  0  0  0  0  0  0  0  0  0  0  0
  -18.9250  -30.1210   23.9310 C   0  0  0  0  0  3  0  0  0  0  0  0
  -17.6160  -30.6170   24.0840 C   0  0  0  0  0  3  0  0  0  0  0  0
  -16.5190  -29.8470   23.6610 C   0  0  0  0  0  3  0  0  0  0  0  0
  -16.7340  -28.5850   23.0790 C   0  0  0  0  0  3  0  0  0  0  0  0
  -25.8830  -32.5280   23.8920 C   0  0  0  0  0  3  0  0  0  0  0  0
  -25.5620  -33.9350   24.1930 N   0  0  0  0  0  0  0  0  0  0  0  0
  -25.9120  -34.9810   23.4340 C   0  0  0  0  0  0  0  0  0  0  0  0
  -26.6000  -34.8640   22.4160 O   0  0  0  0  0  0  0  0  0  0  0  0
  -24.9530  -34.0980   24.9820 H   0  0  0  0  0  0  0  0  0  0  0  0
  -24.1990  -36.7830   23.0320 C   0  0  0  0  0  1  0  0  0  0  0  0
  -25.4220  -36.3790   23.8680 C   0  0  0  0  0  3  0  0  0  0  0  0
  -27.5420  -37.2700   24.7330 C   0  0  0  0  0  1  0  0  0  0  0  0
  -26.4620  -37.4260   23.7640 N   0  0  0  0  0  0  0  0  0  0  0  0
  -26.0550  -38.3490   23.8960 H   0  0  0  0  0  0  0  0  0  0  0  0
  -26.3620  -31.7890   25.2010 C   0  0  1  0  0  0  0  0  0  0  0  0
  -25.2410  -31.5780   26.2450 C   0  0  0  0  0  1  0  0  0  0  0  0
  -26.9510  -30.4010   24.8600 C   0  0  0  0  0  1  0  0  0  0  0  0
  -27.4960  -32.5970   25.8740 C   0  0  0  0  0  1  0  0  0  0  0  0
  1 49  1  0
  1 46  1  0
  2  3  1  0
  3  5  1  0
  4  2  1  0
  4  5  1  0
  5  6  1  6
  5  1  1  0
  7 15  1  0
  8 13  1  0
  9 10  1  0
  9  8  1  0
 11 10  1  0
 11 20  1  0
 11 12  1  0
 13  7  1  0
 13 12  1  0
 14  7  2  0
 15 16  1  0
 15  6  1  0
 17 18  2  0
 18 37  1  0
 19 18  1  0
 19 22  1  0
 20 21  1  0
 20 17  1  0
 21 19  2  0
 22 23  1  0
 23 24  2  0
 25 28  1  0
 25 24  1  0
 26 25  2  0
 27 26  1  0
 27 22  2  0
 28 29  1  0
 29 30  1  0
 30 31  2  0
 32 31  1  0
 32 36  1  0
 33 32  2  0
 34 29  2  0
 34 33  1  0
 35 34  1  0
 37 38  1  0
 38 41  1  0
 38 40  1  0
 39 37  2  0
 42 43  1  0
 42 17  1  0
 44 42  1  0
 46 45  1  0
 47 46  1  0
 48 46  1  0
 49 50  1  0
 51 53  1  0
 51 50  1  0
 52 63  2  0
 53 58  1  0
 54 62  1  0
 54 64  1  0
 55 61  1  0
 55 57  1  0
 56 62  1  0
 57 58  2  0
 57 56  1  0
 59 53  2  0
 60 59  1  0
 60 55  2  0
 61 54  1  0
 62 52  1  0
 64 66  2  0
 65 64  1  0
 67 65  1  0
 68 77  2  0
 68 73  1  0
 69 65  1  0
 69 73  1  0
 70 69  1  0
 71 72  1  0
 71 70  1  0
 72 68  1  0
 73 74  2  0
 74 75  1  0
 76 75  2  0
 77 76  1  0
 78 52  1  0
 78 79  1  0
 78 88  1  0
 79 82  1  0
 80 84  1  0
 80 79  1  0
 81 80  2  0
 84 83  1  0
 86 84  1  0
 86 87  1  0
 86 85  1  0
 88 91  1  1
 88 89  1  0
 90 88  1  0
M  ISO  4   7 100  15 100  50 101  51 101
M  END
>  <TORSDO>  (33) 
F 21

>  <SCORE>  (33) 
-15.897

>  <name>  (33) 
33

>  <ligand_id>  (33) 
33

>  <original_smiles>  (33) 
[H]c1c([H])c([H])c2c(c1[H])C([H])([H])C([H])([H])C([H])([H])C2([H])N([H])C(=O)C1([H])N(C(=O)C([H])(N([H])C(=O)C([H])(N([H])C([H])([H])[H])C([H])([H])[H])C(C([H])([H])[H])(C([H])([H])[H])C([H])([H])[H])C([H])([H])c2c([H])c(OC([H])([H])C([H])([H])C([H])(C3(C([H])([H])N([H])C(=O)N4C([H])([H])C([H])([H])C([H])([H])C([H])(n5nc(-c6c([H])c([H])c(Oc7c([H])c([H])c(F)c([H])c7F)c([H])c6[H])c(C(=O)N([H])[H])c5N([H])[H])C4([H])[H])C([H])([H])C([H])([H])C3([H])[H])[N+]([H])([H])C([H])([H])[H])c([H])c([H])c2C1([H])[H]

>  <smiles>  (33) 
[H]c1c([H])c([H])c2c(c1[H])C([H])([H])C([H])([H])C([H])([H])C2([H])N([H])C(=O)C1([H])N(C(=O)C([H])(N([H])C(=O)C([H])(N([H])C([H])([H])[H])C([H])([H])[H])C(C([H])([H])[H])(C([H])([H])[H])C([H])([H])[H])C([H])([H])c2c([H])c(OC([H])([H])C([H])([H])C([H])(C3(C([H])([H])N([H])C(=O)N4C([H])([H])C([H])([H])C([H])([H])C([H])(n5nc(-c6c([H])c([H])c(Oc7c([H])c([H])c(F)c([H])c7F)c([H])c6[H])c(C(=O)N([H])[H])c5N([H])[H])C4([H])[H])C([H])([H])C([H])([H])C3([H])[H])[N+]([H])([H])C([H])([H])[H])c([H])c([H])c2C1([H])[H]

$$$$
34:0:0
     RDKit          3D

 89 97  0  0  1  0  0  0  0  0999 V2000
  -29.1620  -21.0630   20.6200 C   0  0  0  0  0  3  0  0  0  0  0  0
  -29.1040  -19.7370   19.7320 C   0  0  0  0  0  2  0  0  0  0  0  0
  -28.9650  -18.2470   20.3210 C   0  0  0  0  0  2  0  0  0  0  0  0
  -32.2620  -17.4210   21.3530 C   0  0  0  0  0  2  0  0  0  0  0  0
  -30.8780  -17.5350   21.9890 C   0  0  0  0  0  2  0  0  0  0  0  0
  -31.5900  -17.7240   20.0120 C   0  0  0  0  0  2  0  0  0  0  0  0
  -30.2170  -17.3100   20.6090 C   0  0  2  0  0  0  0  0  0  0  0  0
  -30.5960  -14.6900   20.1020 C   0  0  0  0  0  0  0  0  0  0  0  0
  -30.2820  -12.4650   19.0310 C   0  0  0  0  0  2  0  0  0  0  0  0
  -29.2910  -12.5970   17.8550 C   0  0  0  0  0  2  0  0  0  0  0  0
  -27.8420  -12.4320   18.3530 C   0  0  0  0  0  2  0  0  0  0  0  0
  -27.5380  -13.2930   19.6080 C   0  0  0  0  0  3  0  0  0  0  0  0
  -28.6480  -13.1620   20.6740 C   0  0  0  0  0  2  0  0  0  0  0  0
  -29.9240  -13.4960   20.0300 N   0  0  0  0  0  0  0  0  0  0  0  0
  -31.7500  -14.7620   19.6750 O   0  0  0  0  0  0  0  0  0  0  0  0
  -29.8860  -15.8130   20.4850 N   0  0  0  0  0  0  0  0  0  0  0  0
  -28.9410  -15.5850   20.7540 H   0  0  0  0  0  0  0  0  0  0  0  0
  -25.1850  -13.8770   20.4520 C   0  0  0  0  0  0  0  0  0  0  0  0
  -24.1370  -13.0980   20.8600 C   0  0  0  0  0  0  0  0  0  0  0  0
  -24.5960  -11.7470   20.7880 C   0  0  0  0  0  0  0  0  0  0  0  0
  -26.2170  -13.0010   20.1540 N   0  0  0  0  0  0  0  0  0  0  0  0
  -25.8710  -11.7140   20.4190 N   0  0  0  0  0  0  0  0  0  0  0  0
  -23.8780  -10.4820   20.9900 C   0  0  0  0  0  0  0  0  0  0  0  0
  -24.3400   -9.5090   21.9040 C   0  0  0  0  0  3  0  0  0  0  0  0
  -23.6210   -8.3100   22.0970 C   0  0  0  0  0  3  0  0  0  0  0  0
  -22.4270   -8.0740   21.3750 C   0  0  0  0  0  0  0  0  0  0  0  0
  -21.9830   -9.0360   20.4500 C   0  0  0  0  0  3  0  0  0  0  0  0
  -22.7030  -10.2260   20.2560 C   0  0  0  0  0  3  0  0  0  0  0  0
  -21.6760   -6.9280   21.4790 O   0  0  0  0  0  0  0  0  0  0  0  0
  -21.6540   -6.1830   22.6310 C   0  0  0  0  0  0  0  0  0  0  0  0
  -21.2510   -6.7350   23.8670 C   0  0  0  0  0  3  0  0  0  0  0  0
  -21.1770   -5.9160   25.0120 C   0  0  0  0  0  3  0  0  0  0  0  0
  -21.4940   -4.5480   24.9220 C   0  0  0  0  0  0  0  0  0  0  0  0
  -21.8900   -3.9960   23.6910 C   0  0  0  0  0  3  0  0  0  0  0  0
  -21.9660   -4.8120   22.5480 C   0  0  0  0  0  0  0  0  0  0  0  0
  -22.3270   -4.2700   21.3600 F   0  0  0  0  0  0  0  0  0  0  0  0
  -21.4150   -3.7600   26.0200 F   0  0  0  0  0  0  0  0  0  0  0  0
  -22.7550  -13.5710   21.2020 C   0  0  0  0  0  0  0  0  0  0  0  0
  -22.0640  -12.8600   22.0870 N   0  0  0  0  0  0  0  0  0  0  0  0
  -22.2950  -14.6060   20.7210 O   0  0  0  0  0  0  0  0  0  0  0  0
  -22.4490  -12.0230   22.4990 H   0  0  0  0  0  0  0  0  0  0  0  0
  -21.1380  -13.1590   22.3570 H   0  0  0  0  0  0  0  0  0  0  0  0
  -25.3440  -15.2490   20.2860 N   0  0  0  0  0  0  0  0  0  0  0  0
  -24.5800  -15.9020   20.4360 H   0  0  0  0  0  0  0  0  0  0  0  0
  -26.1670  -15.6900   19.8980 H   0  0  0  0  0  0  0  0  0  0  0  0
  -28.6780  -22.4130   19.9050 C   0  0  0  0  0  3  0  0  0  0  0  0
  -28.8640  -23.8540   20.5800 C   0  0  0  0  0  3  0  0  0  0  0  0
  -27.9940  -25.0400   19.9610 C   0  0  0  0  0  3  0  0  0  0  0  0
  -28.1910  -26.4650   20.3440 O   0  0  0  0  0  0  0  0  0  0  0  0
  -24.5380  -31.9440   23.3070 C   0  0  0  0  0  0  0  0  0  0  0  0
  -27.0950  -27.3460   20.2560 C   0  0  0  0  0  0  0  0  0  0  0  0
  -23.3190  -30.5550   21.6730 C   0  0  0  0  0  3  0  0  0  0  0  0
  -24.7510  -28.9950   20.2420 C   0  0  0  0  0  0  0  0  0  0  0  0
  -25.8630  -30.8450   21.4880 C   0  0  0  0  0  2  0  0  0  0  0  0
  -25.9260  -29.4650   20.8440 C   0  0  0  0  0  0  0  0  0  0  0  0
  -27.0990  -28.6500   20.8460 C   0  0  0  0  0  3  0  0  0  0  0  0
  -25.9030  -26.9510   19.6020 C   0  0  0  0  0  3  0  0  0  0  0  0
  -24.7430  -27.7440   19.6120 C   0  0  0  0  0  3  0  0  0  0  0  0
  -23.5240  -29.8810   20.2920 C   0  0  0  0  0  2  0  0  0  0  0  0
  -24.5930  -31.1320   22.2120 N   0  0  0  0  0  0  0  0  0  0  0  0
  -23.4580  -32.2340   23.8410 O   0  0  0  0  0  0  0  0  0  0  0  0
  -22.6490  -29.5440   22.6340 C   0  0  0  0  0  0  0  0  0  0  0  0
  -21.3260  -29.3580   22.4920 N   0  0  0  0  0  0  0  0  0  0  0  0
  -23.3190  -28.9310   23.4700 O   0  0  0  0  0  0  0  0  0  0  0  0
  -20.8440  -29.9050   21.7930 H   0  0  0  0  0  0  0  0  0  0  0  0
  -17.9520  -28.1330   22.9420 C   0  0  0  0  0  0  0  0  0  0  0  0
  -20.5010  -28.4270   23.2630 C   0  0  0  0  0  3  0  0  0  0  0  0
  -20.6310  -26.9850   22.7200 C   0  0  0  0  0  2  0  0  0  0  0  0
  -19.5560  -26.6290   21.6880 C   0  0  0  0  0  2  0  0  0  0  0  0
  -18.1580  -26.7720   22.2990 C   0  0  0  0  0  2  0  0  0  0  0  0
  -19.0520  -28.9160   23.3800 C   0  0  0  0  0  0  0  0  0  0  0  0
  -18.8070  -30.1890   23.9410 C   0  0  0  0  0  3  0  0  0  0  0  0
  -17.4940  -30.6780   24.0680 C   0  0  0  0  0  3  0  0  0  0  0  0
  -16.4070  -29.8930   23.6460 C   0  0  0  0  0  3  0  0  0  0  0  0
  -16.6360  -28.6220   23.0890 C   0  0  0  0  0  3  0  0  0  0  0  0
  -25.8280  -32.5670   23.9240 C   0  0  0  0  0  3  0  0  0  0  0  0
  -25.5340  -33.9720   24.2440 N   0  0  0  0  0  0  0  0  0  0  0  0
  -25.8630  -35.0140   23.4700 C   0  0  0  0  0  0  0  0  0  0  0  0
  -26.5170  -34.8950   22.4300 O   0  0  0  0  0  0  0  0  0  0  0  0
  -24.9530  -34.1380   25.0530 H   0  0  0  0  0  0  0  0  0  0  0  0
  -24.1340  -36.8100   23.1360 C   0  0  0  0  0  1  0  0  0  0  0  0
  -25.3930  -36.4110   23.9200 C   0  0  0  0  0  3  0  0  0  0  0  0
  -27.5520  -37.2990   24.6830 C   0  0  0  0  0  1  0  0  0  0  0  0
  -26.4270  -37.4570   23.7650 N   0  0  0  0  0  0  0  0  0  0  0  0
  -26.0290  -38.3810   23.9090 H   0  0  0  0  0  0  0  0  0  0  0  0
  -26.3340  -31.7990   25.2080 C   0  0  1  0  0  0  0  0  0  0  0  0
  -25.2360  -31.5790   26.2740 C   0  0  0  0  0  1  0  0  0  0  0  0
  -26.9050  -30.4140   24.8270 C   0  0  0  0  0  1  0  0  0  0  0  0
  -27.4900  -32.5880   25.8660 C   0  0  0  0  0  1  0  0  0  0  0  0
  2  3  1  0
  2  1  1  0
  7  3  1  6
  4  5  1  0
  6  7  1  0
  6  4  1  0
  7  5  1  0
  8 16  1  0
  9 14  1  0
 10 11  1  0
 10  9  1  0
 12 11  1  0
 12 21  1  0
 12 13  1  0
 14  8  1  0
 14 13  1  0
 15  8  2  0
 16  7  1  0
 16 17  1  0
 18 19  2  0
 19 38  1  0
 20 19  1  0
 20 23  1  0
 21 22  1  0
 21 18  1  0
 22 20  2  0
 23 24  1  0
 24 25  2  0
 26 29  1  0
 26 25  1  0
 27 26  2  0
 28 27  1  0
 28 23  2  0
 29 30  1  0
 30 31  1  0
 31 32  2  0
 33 32  1  0
 33 37  1  0
 34 33  2  0
 35 30  2  0
 35 34  1  0
 36 35  1  0
 38 39  1  0
 39 42  1  0
 39 41  1  0
 40 38  2  0
 43 44  1  0
 43 18  1  0
 45 43  1  0
 46 47  1  0
 46  1  2  0
 48 49  1  0
 48 47  2  0
 50 61  2  0
 51 49  1  0
 51 56  1  0
 52 60  1  0
 52 62  1  0
 53 59  1  0
 53 55  1  0
 54 60  1  0
 55 56  2  0
 55 54  1  0
 57 58  1  0
 57 51  2  0
 58 53  2  0
 59 52  1  0
 60 50  1  0
 62 64  2  0
 63 62  1  0
 65 63  1  0
 66 75  2  0
 66 71  1  0
 67 63  1  0
 67 71  1  0
 68 67  1  0
 69 70  1  0
 69 68  1  0
 70 66  1  0
 71 72  2  0
 72 73  1  0
 74 73  2  0
 75 74  1  0
 76 50  1  0
 76 77  1  0
 76 86  1  0
 77 80  1  0
 78 82  1  0
 78 77  1  0
 79 78  2  0
 82 81  1  0
 84 85  1  0
 84 82  1  0
 84 83  1  0
 86 89  1  1
 86 87  1  0
 88 86  1  0
M  ISO  4   8 100  16 100  48 101  49 101
M  END
>  <TORSDO>  (34) 
F 22

>  <SCORE>  (34) 
-12.639

>  <name>  (34) 
34

>  <ligand_id>  (34) 
34

>  <original_smiles>  (34) 
[H]c1c([H])c([H])c2c(c1[H])C([H])([H])C([H])([H])C([H])([H])C2([H])N([H])C(=O)C1([H])N(C(=O)C([H])(N([H])C(=O)C([H])(N([H])C([H])([H])[H])C([H])([H])[H])C(C([H])([H])[H])(C([H])([H])[H])C([H])([H])[H])C([H])([H])c2c([H])c(OC([H])([H])C([H])([H])C([H])([H])C([H])([H])C([H])([H])C([H])([H])C3(N([H])C(=O)N4C([H])([H])C([H])([H])C([H])([H])C([H])(n5nc(-c6c([H])c([H])c(Oc7c([H])c([H])c(F)c([H])c7F)c([H])c6[H])c(C(=O)N([H])[H])c5N([H])[H])C4([H])[H])C([H])([H])C([H])([H])C3([H])[H])c([H])c([H])c2C1([H])[H]

>  <smiles>  (34) 
[H]c1c([H])c([H])c2c(c1[H])C([H])([H])C([H])([H])C([H])([H])C2([H])N([H])C(=O)C1([H])N(C(=O)C([H])(N([H])C(=O)C([H])(N([H])C([H])([H])[H])C([H])([H])[H])C(C([H])([H])[H])(C([H])([H])[H])C([H])([H])[H])C([H])([H])c2c([H])c(OC([H])([H])C([H])([H])C([H])([H])C([H])([H])C([H])([H])C([H])([H])C3(N([H])C(=O)N4C([H])([H])C([H])([H])C([H])([H])C([H])(n5nc(-c6c([H])c([H])c(Oc7c([H])c([H])c(F)c([H])c7F)c([H])c6[H])c(C(=O)N([H])[H])c5N([H])[H])C4([H])[H])C([H])([H])C([H])([H])C3([H])[H])c([H])c([H])c2C1([H])[H]

$$$$
35:0:0
     RDKit          3D

 92100  0  0  1  0  0  0  0  0999 V2000
  -28.7270  -21.4450   21.8710 C   0  0  0  0  0  2  0  0  0  0  0  0
  -29.2120  -19.9370   21.9960 C   0  0  0  0  0  2  0  0  0  0  0  0
  -30.0500  -20.8200   20.0270 C   0  0  0  0  0  2  0  0  0  0  0  0
  -29.0500  -22.0330   20.4670 C   0  0  0  0  0  3  0  0  0  0  0  0
  -29.6180  -19.3470   20.6130 C   0  0  2  0  0  0  0  0  0  0  0  0
  -29.3870  -23.6910   20.3490 C   0  0  0  0  0  3  0  0  0  0  0  0
  -28.2780  -24.9540   20.2350 C   0  0  0  0  0  3  0  0  0  0  0  0
  -28.5540  -26.4890   20.2590 O   0  0  0  0  0  0  0  0  0  0  0  0
  -24.7090  -31.9810   23.3150 C   0  0  0  0  0  0  0  0  0  0  0  0
  -27.4800  -27.4520   20.1980 C   0  0  0  0  0  0  0  0  0  0  0  0
  -23.5950  -30.6350   21.5780 C   0  0  0  0  0  3  0  0  0  0  0  0
  -25.1220  -29.1530   20.1440 C   0  0  0  0  0  0  0  0  0  0  0  0
  -26.1460  -30.9580   21.5130 C   0  0  0  0  0  2  0  0  0  0  0  0
  -26.2710  -29.5950   20.8130 C   0  0  0  0  0  0  0  0  0  0  0  0
  -27.4520  -28.7650   20.8200 C   0  0  0  0  0  3  0  0  0  0  0  0
  -26.3070  -27.1150   19.4870 C   0  0  0  0  0  3  0  0  0  0  0  0
  -25.1540  -27.9270   19.4630 C   0  0  0  0  0  3  0  0  0  0  0  0
  -23.8780  -30.0250   20.1810 C   0  0  0  0  0  2  0  0  0  0  0  0
  -24.8340  -31.2110   22.1910 N   0  0  0  0  0  0  0  0  0  0  0  0
  -23.6000  -32.2210   23.8170 O   0  0  0  0  0  0  0  0  0  0  0  0
  -22.9060  -29.5720   22.4710 C   0  0  0  0  0  0  0  0  0  0  0  0
  -21.5820  -29.4050   22.3150 N   0  0  0  0  0  0  0  0  0  0  0  0
  -23.5680  -28.9040   23.2700 O   0  0  0  0  0  0  0  0  0  0  0  0
  -21.1020  -30.0000   21.6530 H   0  0  0  0  0  0  0  0  0  0  0  0
  -18.1840  -28.2340   22.7720 C   0  0  0  0  0  0  0  0  0  0  0  0
  -20.7510  -28.4270   23.0230 C   0  0  0  0  0  3  0  0  0  0  0  0
  -20.8170  -27.0410   22.3390 C   0  0  0  0  0  2  0  0  0  0  0  0
  -19.6970  -26.8180   21.3180 C   0  0  0  0  0  2  0  0  0  0  0  0
  -18.3260  -26.9390   21.9900 C   0  0  0  0  0  2  0  0  0  0  0  0
  -19.3230  -28.9410   23.2440 C   0  0  0  0  0  0  0  0  0  0  0  0
  -19.1340  -30.1560   23.9370 C   0  0  0  0  0  3  0  0  0  0  0  0
  -17.8410  -30.6660   24.1600 C   0  0  0  0  0  3  0  0  0  0  0  0
  -16.7180  -29.9560   23.7010 C   0  0  0  0  0  3  0  0  0  0  0  0
  -16.8910  -28.7410   23.0140 C   0  0  0  0  0  3  0  0  0  0  0  0
  -25.9520  -32.6160   24.0100 C   0  0  0  0  0  3  0  0  0  0  0  0
  -25.6190  -34.0100   24.3380 N   0  0  0  0  0  0  0  0  0  0  0  0
  -25.9510  -35.0720   23.5910 C   0  0  0  0  0  0  0  0  0  0  0  0
  -26.6370  -34.9810   22.5710 O   0  0  0  0  0  0  0  0  0  0  0  0
  -25.0160  -34.1540   25.1350 H   0  0  0  0  0  0  0  0  0  0  0  0
  -24.1980  -36.8410   23.2310 C   0  0  0  0  0  1  0  0  0  0  0  0
  -25.4420  -36.4540   24.0470 C   0  0  0  0  0  3  0  0  0  0  0  0
  -27.5500  -37.3790   24.8990 C   0  0  0  0  0  1  0  0  0  0  0  0
  -26.4580  -37.5230   23.9400 N   0  0  0  0  0  0  0  0  0  0  0  0
  -26.0350  -38.4370   24.0760 H   0  0  0  0  0  0  0  0  0  0  0  0
  -26.3950  -31.8380   25.3100 C   0  0  1  0  0  0  0  0  0  0  0  0
  -25.2440  -31.5900   26.3130 C   0  0  0  0  0  1  0  0  0  0  0  0
  -27.0080  -30.4670   24.9490 C   0  0  0  0  0  1  0  0  0  0  0  0
  -27.5000  -32.6340   26.0460 C   0  0  0  0  0  1  0  0  0  0  0  0
  -28.3420  -18.8490   19.8880 C   0  0  0  0  0  2  0  0  0  0  0  0
  -28.1220  -16.9140   18.2380 C   0  0  0  0  0  1  0  0  0  0  0  0
  -28.5600  -18.3730   18.4280 C   0  0  0  0  0  3  0  0  0  0  0  0
  -28.1940  -19.0650   15.9610 C   0  0  0  0  0  1  0  0  0  0  0  0
  -27.8500  -19.3180   17.4350 C   0  0  0  0  0  2  0  0  0  0  0  0
  -30.6920  -18.0370   20.6740 C   0  0  0  0  0  2  0  0  0  0  0  0
  -31.0960  -15.3320   20.6310 C   0  0  0  0  0  0  0  0  0  0  0  0
  -31.0020  -13.0230   19.6030 C   0  0  0  0  0  2  0  0  0  0  0  0
  -30.0920  -13.0270   18.3520 C   0  0  0  0  0  2  0  0  0  0  0  0
  -28.6280  -12.7720   18.7530 C   0  0  0  0  0  2  0  0  0  0  0  0
  -28.1850  -13.6470   19.9540 C   0  0  0  0  0  3  0  0  0  0  0  0
  -29.2220  -13.6340   21.1000 C   0  0  0  0  0  2  0  0  0  0  0  0
  -30.5000  -14.0770   20.5300 N   0  0  0  0  0  0  0  0  0  0  0  0
  -32.2930  -15.4140   20.3390 O   0  0  0  0  0  0  0  0  0  0  0  0
  -30.3280  -16.5090   20.8460 N   0  0  0  0  0  0  0  0  0  0  0  0
  -29.3620  -16.3310   21.0710 H   0  0  0  0  0  0  0  0  0  0  0  0
  -25.7780  -14.1680   20.6510 C   0  0  0  0  0  0  0  0  0  0  0  0
  -24.7180  -13.3670   20.9750 C   0  0  0  0  0  0  0  0  0  0  0  0
  -25.2080  -12.0260   20.9200 C   0  0  0  0  0  0  0  0  0  0  0  0
  -26.8410  -13.3140   20.4110 N   0  0  0  0  0  0  0  0  0  0  0  0
  -26.5070  -12.0190   20.6410 N   0  0  0  0  0  0  0  0  0  0  0  0
  -24.5010  -10.7480   21.0620 C   0  0  0  0  0  0  0  0  0  0  0  0
  -24.8910   -9.7900   22.0230 C   0  0  0  0  0  3  0  0  0  0  0  0
  -24.1800   -8.5760   22.1520 C   0  0  0  0  0  3  0  0  0  0  0  0
  -23.0660   -8.3150   21.3190 C   0  0  0  0  0  0  0  0  0  0  0  0
  -22.6970   -9.2630   20.3480 C   0  0  0  0  0  3  0  0  0  0  0  0
  -23.4100  -10.4650   20.2170 C   0  0  0  0  0  3  0  0  0  0  0  0
  -22.3300   -7.1560   21.3610 O   0  0  0  0  0  0  0  0  0  0  0  0
  -22.1100   -6.4840   22.5370 C   0  0  0  0  0  0  0  0  0  0  0  0
  -21.4400   -7.0850   23.6250 C   0  0  0  0  0  3  0  0  0  0  0  0
  -21.1680   -6.3340   24.7860 C   0  0  0  0  0  3  0  0  0  0  0  0
  -21.5600   -4.9840   24.8610 C   0  0  0  0  0  0  0  0  0  0  0  0
  -22.2250   -4.3830   23.7770 C   0  0  0  0  0  3  0  0  0  0  0  0
  -22.4960   -5.1310   22.6170 C   0  0  0  0  0  0  0  0  0  0  0  0
  -23.1160   -4.5400   21.5680 F   0  0  0  0  0  0  0  0  0  0  0  0
  -21.2950   -4.2610   25.9730 F   0  0  0  0  0  0  0  0  0  0  0  0
  -23.3070  -13.8130   21.2210 C   0  0  0  0  0  0  0  0  0  0  0  0
  -22.5800  -13.0950   22.0710 N   0  0  0  0  0  0  0  0  0  0  0  0
  -22.8550  -14.8280   20.6950 O   0  0  0  0  0  0  0  0  0  0  0  0
  -22.9650  -12.2770   22.5210 H   0  0  0  0  0  0  0  0  0  0  0  0
  -21.6280  -13.3650   22.2740 H   0  0  0  0  0  0  0  0  0  0  0  0
  -25.9180  -15.5460   20.5160 N   0  0  0  0  0  0  0  0  0  0  0  0
  -25.1310  -16.1760   20.6270 H   0  0  0  0  0  0  0  0  0  0  0  0
  -26.7530  -16.0080   20.1880 H   0  0  0  0  0  0  0  0  0  0  0  0
  1  2  1  0
  3  4  1  0
  3  5  1  0
  4  6  1  0
  4  1  1  0
  5 49  1  6
  5 54  1  0
  5  2  1  0
  7  8  1  0
  7  6  2  0
  9 20  2  0
 10  8  1  0
 10 15  1  0
 11 19  1  0
 11 21  1  0
 12 18  1  0
 12 14  1  0
 13 19  1  0
 14 15  2  0
 14 13  1  0
 16 10  2  0
 17 16  1  0
 17 12  2  0
 18 11  1  0
 19  9  1  0
 21 23  2  0
 22 21  1  0
 24 22  1  0
 25 34  2  0
 25 30  1  0
 26 22  1  0
 26 30  1  0
 27 26  1  0
 28 29  1  0
 28 27  1  0
 29 25  1  0
 30 31  2  0
 31 32  1  0
 33 32  2  0
 34 33  1  0
 35  9  1  0
 35 36  1  0
 35 45  1  0
 36 39  1  0
 37 41  1  0
 37 36  1  0
 38 37  2  0
 41 40  1  0
 43 41  1  0
 43 44  1  0
 43 42  1  0
 45 48  1  1
 45 46  1  0
 47 45  1  0
 51 50  1  0
 51 49  1  0
 52 53  1  0
 53 51  1  0
 54 63  1  0
 55 63  1  0
 56 61  1  0
 57 58  1  0
 57 56  1  0
 59 58  1  0
 59 68  1  0
 59 60  1  0
 61 55  1  0
 61 60  1  0
 62 55  2  0
 63 64  1  0
 65 66  2  0
 66 85  1  0
 67 66  1  0
 67 70  1  0
 68 69  1  0
 68 65  1  0
 69 67  2  0
 70 71  1  0
 71 72  2  0
 73 76  1  0
 73 72  1  0
 74 73  2  0
 75 74  1  0
 75 70  2  0
 76 77  1  0
 77 82  2  0
 77 78  1  0
 78 79  2  0
 79 80  1  0
 80 84  1  0
 81 80  2  0
 82 81  1  0
 83 82  1  0
 85 86  1  0
 86 89  1  0
 86 88  1  0
 87 85  2  0
 90 91  1  0
 90 65  1  0
 92 90  1  0
M  ISO  4   7 101   8 101  55 100  63 100
M  END
>  <TORSDO>  (35) 
F 22

>  <SCORE>  (35) 
-12.602

>  <name>  (35) 
35

>  <ligand_id>  (35) 
35

>  <original_smiles>  (35) 
[H]c1c([H])c([H])c2c(c1[H])C([H])([H])C([H])([H])C([H])([H])C2([H])N([H])C(=O)C1([H])N(C(=O)C([H])(N([H])C(=O)C([H])(N([H])C([H])([H])[H])C([H])([H])[H])C(C([H])([H])[H])(C([H])([H])[H])C([H])([H])[H])C([H])([H])c2c([H])c(OC([H])([H])C([H])([H])C3([H])C([H])([H])C([H])([H])C(C([H])([H])N([H])C(=O)N4C([H])([H])C([H])([H])C([H])([H])C([H])(n5nc(-c6c([H])c([H])c(Oc7c([H])c([H])c(F)c([H])c7F)c([H])c6[H])c(C(=O)N([H])[H])c5N([H])[H])C4([H])[H])(C([H])([H])C([H])(C([H])([H])[H])C([H])([H])C([H])([H])[H])C3([H])[H])c([H])c([H])c2C1([H])[H]

>  <smiles>  (35) 
[H]c1c([H])c([H])c2c(c1[H])C([H])([H])C([H])([H])C([H])([H])C2([H])N([H])C(=O)C1([H])N(C(=O)C([H])(N([H])C(=O)C([H])(N([H])C([H])([H])[H])C([H])([H])[H])C(C([H])([H])[H])(C([H])([H])[H])C([H])([H])[H])C([H])([H])c2c([H])c(OC([H])([H])C([H])([H])C3([H])C([H])([H])C([H])([H])C(C([H])([H])N([H])C(=O)N4C([H])([H])C([H])([H])C([H])([H])C([H])(n5nc(-c6c([H])c([H])c(Oc7c([H])c([H])c(F)c([H])c7F)c([H])c6[H])c(C(=O)N([H])[H])c5N([H])[H])C4([H])[H])(C([H])([H])C([H])(C([H])([H])[H])C([H])([H])C([H])([H])[H])C3([H])[H])c([H])c([H])c2C1([H])[H]

$$$$
36:0:0
     RDKit          3D

 90 91  0  0  1  0  0  0  0  0999 V2000
  -21.6620  -24.6450   22.3660 C   0  0  0  0  0  1  0  0  0  0  0  0
  -23.1560  -23.8910   21.6960 N   0  0  0  0  0  4  0  0  0  0  0  0
  -23.1740  -24.2120   20.7410 H   0  0  0  0  0  0  0  0  0  0  0  0
  -23.8820  -24.4120   22.1610 H   0  0  0  0  0  0  0  0  0  0  0  0
  -23.9080  -22.2660   21.5770 C   0  0  0  0  0  1  0  0  0  0  0  0
  -25.4220  -21.3730   20.6650 C   0  0  0  0  0 15  0  0  0  0  0  0
  -26.3260  -19.6240   20.4340 C   0  0  0  0  0 15  0  0  0  0  0  0
  -27.9400  -18.7740   19.6710 C   0  0  0  0  0  1  0  0  0  0  0  0
  -30.1290  -16.3800   19.2340 C   0  0  0  0  0  0  0  0  0  0  0  0
  -31.0140  -13.9240   18.5400 C   0  0  0  0  0  2  0  0  0  0  0  0
  -30.0990  -13.2360   17.4720 C   0  0  0  0  0  2  0  0  0  0  0  0
  -28.7670  -12.7740   18.0920 C   0  0  0  0  0  2  0  0  0  0  0  0
  -28.2570  -13.8390   19.0850 C   0  0  0  0  0  3  0  0  0  0  0  0
  -29.3030  -14.2010   20.1370 C   0  0  0  0  0  2  0  0  0  0  0  0
  -30.2320  -14.9580   19.3610 N   0  0  0  0  0  0  0  0  0  0  0  0
  -31.1880  -16.7450   18.6490 O   0  0  0  0  0  0  0  0  0  0  0  0
  -28.8540  -17.2180   19.6710 N   0  0  0  0  0  0  0  0  0  0  0  0
  -28.2720  -16.5580   20.1720 H   0  0  0  0  0  0  0  0  0  0  0  0
  -26.1990  -14.3730   20.4200 C   0  0  0  0  0  0  0  0  0  0  0  0
  -25.2080  -13.5810   20.9100 C   0  0  0  0  0  0  0  0  0  0  0  0
  -25.5520  -12.2410   20.5420 C   0  0  0  0  0  0  0  0  0  0  0  0
  -27.0500  -13.5080   19.7640 N   0  0  0  0  0  0  0  0  0  0  0  0
  -26.7110  -12.2120   19.9100 N   0  0  0  0  0  0  0  0  0  0  0  0
  -24.8150  -10.9870   20.6850 C   0  0  0  0  0  0  0  0  0  0  0  0
  -25.2580   -9.9680   21.5560 C   0  0  0  0  0  3  0  0  0  0  0  0
  -24.5200   -8.7740   21.6880 C   0  0  0  0  0  3  0  0  0  0  0  0
  -23.3290   -8.5930   20.9450 C   0  0  0  0  0  0  0  0  0  0  0  0
  -22.9100   -9.6010   20.0590 C   0  0  0  0  0  3  0  0  0  0  0  0
  -23.6470  -10.7870   19.9250 C   0  0  0  0  0  3  0  0  0  0  0  0
  -22.5550   -7.4610   20.9910 O   0  0  0  0  0  0  0  0  0  0  0  0
  -22.2670   -6.8330   22.1750 C   0  0  0  0  0  0  0  0  0  0  0  0
  -21.6430   -7.5100   23.2450 C   0  0  0  0  0  3  0  0  0  0  0  0
  -21.3050   -6.8090   24.4190 C   0  0  0  0  0  3  0  0  0  0  0  0
  -21.5790   -5.4320   24.5210 C   0  0  0  0  0  0  0  0  0  0  0  0
  -22.1930   -4.7550   23.4540 C   0  0  0  0  0  3  0  0  0  0  0  0
  -22.5360   -5.4530   22.2840 C   0  0  0  0  0  0  0  0  0  0  0  0
  -23.1110   -4.7930   21.2490 F   0  0  0  0  0  0  0  0  0  0  0  0
  -21.2450   -4.7560   25.6450 F   0  0  0  0  0  0  0  0  0  0  0  0
  -23.9540  -14.0470   21.5810 C   0  0  0  0  0  0  0  0  0  0  0  0
  -23.4150  -13.2380   22.4820 N   0  0  0  0  0  0  0  0  0  0  0  0
  -23.4710  -15.1530   21.3360 O   0  0  0  0  0  0  0  0  0  0  0  0
  -23.8200  -12.3360   22.6920 H   0  0  0  0  0  0  0  0  0  0  0  0
  -22.5690  -13.5170   22.9570 H   0  0  0  0  0  0  0  0  0  0  0  0
  -26.4520  -15.7440   20.4460 N   0  0  0  0  0  0  0  0  0  0  0  0
  -25.9050  -16.4020   20.9860 H   0  0  0  0  0  0  0  0  0  0  0  0
  -27.0920  -16.2000   19.8060 H   0  0  0  0  0  0  0  0  0  0  0  0
  -20.5040  -26.3340   22.0910 C   0  0  0  0  0  1  0  0  0  0  0  0
  -21.1480  -27.8990   19.7410 C   0  0  0  0  0  2  0  0  0  0  0  0
  -23.1090  -27.9210   19.1340 C   0  0  0  0  0  1  0  0  0  0  0  0
  -24.8660  -27.8690   19.6680 O   0  0  0  0  0  0  0  0  0  0  0  0
  -24.6970  -32.0800   23.1770 C   0  0  0  0  0  0  0  0  0  0  0  0
  -26.1720  -28.2900   19.1790 C   0  0  0  0  0  3  0  0  0  0  0  0
  -23.4820  -31.1980   21.2570 C   0  0  0  0  0  3  0  0  0  0  0  0
  -24.8750  -30.4910   19.1800 C   0  0  0  0  0  3  0  0  0  0  0  0
  -26.0110  -31.4960   21.1450 C   0  0  0  0  0  2  0  0  0  0  0  0
  -25.9460  -30.4400   20.0720 C   0  0  0  0  0  3  0  0  0  0  0  0
  -26.7860  -29.3190   19.9630 C   0  0  0  0  0  2  0  0  0  0  0  0
  -25.8980  -28.6780   17.9000 C   0  0  0  0  0  2  0  0  0  0  0  0
  -24.9910  -29.7500   17.9650 C   0  0  0  0  0  2  0  0  0  0  0  0
  -23.6220  -31.1810   19.6860 C   0  0  0  0  0  2  0  0  0  0  0  0
  -24.7430  -31.6480   21.8920 N   0  0  0  0  0  0  0  0  0  0  0  0
  -23.6190  -32.1960   23.7830 O   0  0  0  0  0  0  0  0  0  0  0  0
  -23.1100  -29.8610   21.9600 C   0  0  0  0  0  0  0  0  0  0  0  0
  -21.9220  -29.6790   22.4710 N   0  0  0  0  0  0  0  0  0  0  0  0
  -23.9230  -28.9680   22.1510 O   0  0  0  0  0  0  0  0  0  0  0  0
  -21.2520  -30.4350   22.4330 H   0  0  0  0  0  0  0  0  0  0  0  0
  -18.4810  -28.6130   22.2150 C   0  0  0  0  0  0  0  0  0  0  0  0
  -21.3630  -28.3130   22.6690 C   0  0  0  0  0  2  0  0  0  0  0  0
  -21.8670  -26.9110   21.2060 C   0  0  0  0  0  2  0  0  0  0  0  0
  -19.9400  -26.6140   19.8670 C   0  0  0  0  0  1  0  0  0  0  0  0
  -18.4060  -27.6400   20.7230 C   0  0  0  0  0  1  0  0  0  0  0  0
  -19.7430  -28.9180   22.9850 C   0  0  0  0  0  0  0  0  0  0  0  0
  -19.6160  -29.9290   24.0400 C   0  0  0  0  0  3  0  0  0  0  0  0
  -18.4150  -30.5390   24.4940 C   0  0  0  0  0  3  0  0  0  0  0  0
  -17.2140  -30.1170   23.9170 C   0  0  0  0  0  3  0  0  0  0  0  0
  -17.2650  -29.1920   22.8210 C   0  0  0  0  0  3  0  0  0  0  0  0
  -25.9960  -32.4650   23.9270 C   0  0  0  0  0  3  0  0  0  0  0  0
  -26.4520  -31.3830   24.9780 C   0  0  1  0  0  0  0  0  0  0  0  0
  -25.3290  -30.9280   25.9380 C   0  0  0  0  0  1  0  0  0  0  0  0
  -27.0040  -30.1200   24.2780 C   0  0  0  0  0  1  0  0  0  0  0  0
  -27.6090  -31.9560   25.8270 C   0  0  0  0  0  1  0  0  0  0  0  0
  -25.7260  -33.7490   24.5770 N   0  0  0  0  0  0  0  0  0  0  0  0
  -26.0920  -34.9370   24.0800 C   0  0  0  0  0  0  0  0  0  0  0  0
  -26.7820  -35.0530   23.0630 O   0  0  0  0  0  0  0  0  0  0  0  0
  -25.1200  -33.7320   25.3840 H   0  0  0  0  0  0  0  0  0  0  0  0
  -24.4320  -36.8260   24.1090 C   0  0  0  0  0  1  0  0  0  0  0  0
  -25.6270  -36.1920   24.8400 C   0  0  0  0  0  3  0  0  0  0  0  0
  -27.7580  -36.7540   25.9190 C   0  0  0  0  0  1  0  0  0  0  0  0
  -26.6950  -37.1960   25.0190 N   0  0  0  0  0  0  0  0  0  0  0  0
  -26.3130  -38.0640   25.3840 H   0  0  0  0  0  0  0  0  0  0  0  0
  2  4  1  0
  2  1  1  0
  3  2  1  0
  5  2  1  0
  8 17  1  0
  9 15  1  0
  9 17  1  0
 10 15  1  0
 11 12  1  0
 11 10  1  0
 13 12  1  0
 13 22  1  0
 13 14  1  0
 15 14  1  0
 16  9  2  0
 17 18  1  0
 19 44  1  0
 19 20  2  0
 20 39  1  0
 21 24  1  0
 21 20  1  0
 22 23  1  0
 22 19  1  0
 23 21  2  0
 24 25  1  0
 25 26  2  0
 27 30  1  0
 27 26  1  0
 28 27  2  0
 29 28  1  0
 29 24  2  0
 30 31  1  0
 31 36  2  0
 31 32  1  0
 32 33  2  0
 33 34  1  0
 34 38  1  0
 35 34  2  0
 36 35  1  0
 37 36  1  0
 39 40  1  0
 40 42  1  0
 40 43  1  0
 41 39  2  0
 44 45  1  0
 46 44  1  0
 48 70  1  0
 48 69  1  0
 49 50  1  0
 51 62  2  0
 52 50  1  0
 52 57  1  0
 53 61  1  0
 53 63  1  0
 54 59  1  0
 54 60  1  0
 54 56  1  0
 55 61  1  0
 56 57  1  0
 56 55  1  0
 58 59  1  0
 58 52  1  0
 60 53  1  0
 61 51  1  0
 63 65  2  0
 63 64  1  0
 64 68  1  0
 66 64  1  0
 67 76  2  0
 67 72  1  0
 68 72  1  0
 69 47  1  0
 71 67  1  0
 72 73  2  0
 73 74  1  0
 75 74  2  0
 76 75  1  0
 77 51  1  0
 77 82  1  0
 77 78  1  0
 78 81  1  1
 78 79  1  0
 80 78  1  0
 82 85  1  0
 83 82  1  0
 83 87  1  0
 84 83  2  0
 87 86  1  0
 87 89  1  0
 89 90  1  0
 89 88  1  0
M  ISO  4   9 100  17 100  49 101  50 101
M  END
>  <TORSDO>  (36) 
F 24

>  <SCORE>  (36) 
1.555

>  <name>  (36) 
36

>  <ligand_id>  (36) 
36

>  <original_smiles>  (36) 
[H]c1c([H])c([H])c2c(c1[H])C([H])([H])C([H])([H])C([H])([H])C2([H])N([H])C(=O)C1([H])N(C(=O)C([H])(N([H])C(=O)C([H])(N([H])C([H])([H])[H])C([H])([H])[H])C(C([H])([H])[H])(C([H])([H])[H])C([H])([H])[H])C([H])([H])c2c([H])c(OC([H])([H])C([H])([H])C([H])([H])C([H])([H])[N+]([H])([H])C([H])([H])C([H])([H])C([H])([H])C([H])([H])N([H])C(=O)N3C([H])([H])C([H])([H])C([H])([H])C([H])(n4nc(-c5c([H])c([H])c(Oc6c([H])c([H])c(F)c([H])c6F)c([H])c5[H])c(C(=O)N([H])[H])c4N([H])[H])C3([H])[H])c([H])c([H])c2C1([H])[H]

>  <smiles>  (36) 
[H]c1c([H])c([H])c2c(c1[H])C([H])([H])C([H])([H])C([H])([H])C2([H])N([H])C(=O)C1([H])N(C(=O)C([H])(N([H])C(=O)C([H])(N([H])C([H])([H])[H])C([H])([H])[H])C(C([H])([H])[H])(C([H])([H])[H])C([H])([H])[H])C([H])([H])c2c([H])c(OC([H])([H])C([H])([H])C([H])([H])C([H])([H])[N+]([H])([H])C([H])([H])C([H])([H])C([H])([H])C([H])([H])N([H])C(=O)N3C([H])([H])C([H])([H])C([H])([H])C([H])(n4nc(-c5c([H])c([H])c(Oc6c([H])c([H])c(F)c([H])c6F)c([H])c5[H])c(C(=O)N([H])[H])c4N([H])[H])C3([H])[H])c([H])c([H])c2C1([H])[H]

$$$$
37:0:0
     RDKit          3D

 88 97  0  0  1  0  0  0  0  0999 V2000
  -30.9730  -15.1880   19.8710 C   0  0  0  0  0  0  0  0  0  0  0  0
  -31.0530  -12.5840   19.7970 C   0  0  0  0  0  2  0  0  0  0  0  0
  -30.2910  -11.9880   18.5880 C   0  0  0  0  0  2  0  0  0  0  0  0
  -28.7950  -11.8030   18.9110 C   0  0  0  0  0  2  0  0  0  0  0  0
  -28.2180  -13.0360   19.6460 C   0  0  0  0  0  3  0  0  0  0  0  0
  -29.1240  -13.5410   20.7910 C   0  0  0  0  0  2  0  0  0  0  0  0
  -30.4220  -13.9050   20.1860 N   0  0  0  0  0  0  0  0  0  0  0  0
  -32.1710  -15.1110   19.5570 O   0  0  0  0  0  0  0  0  0  0  0  0
  -28.4350  -17.9320   20.7380 C   0  0  0  0  0  3  0  0  0  0  0  0
  -29.3510  -16.9050   20.7060 C   0  0  0  0  0  3  0  0  0  0  0  0
  -28.0400  -18.9230   19.6810 C   0  0  0  0  0  0  0  0  0  0  0  0
  -30.3850  -17.6560   18.5720 C   0  0  0  0  0  2  0  0  0  0  0  0
  -29.0210  -20.0070   19.2740 C   0  0  0  0  0  3  0  0  0  0  0  0
  -30.1980  -19.3870   18.6170 C   0  0  0  0  0  3  0  0  0  0  0  0
  -29.2130  -20.5950   17.8260 C   0  0  0  0  0  3  0  0  0  0  0  0
  -30.2310  -16.4760   19.6800 N   0  0  0  0  0  0  0  0  0  0  0  0
  -26.9020  -18.9350   19.2040 O   0  0  0  0  0  0  0  0  0  0  0  0
  -25.8650  -13.7940   20.2650 C   0  0  0  0  0  0  0  0  0  0  0  0
  -24.7340  -13.1130   20.6270 C   0  0  0  0  0  0  0  0  0  0  0  0
  -25.1000  -11.7320   20.6630 C   0  0  0  0  0  0  0  0  0  0  0  0
  -26.8460  -12.8340   20.0940 N   0  0  0  0  0  0  0  0  0  0  0  0
  -26.3980  -11.5890   20.4020 N   0  0  0  0  0  0  0  0  0  0  0  0
  -24.2680  -10.5380   20.8830 C   0  0  0  0  0  0  0  0  0  0  0  0
  -24.6360   -9.5380   21.8090 C   0  0  0  0  0  3  0  0  0  0  0  0
  -23.8110   -8.4100   22.0070 C   0  0  0  0  0  3  0  0  0  0  0  0
  -22.6040   -8.2690   21.2820 C   0  0  0  0  0  0  0  0  0  0  0  0
  -22.2590   -9.2550   20.3410 C   0  0  0  0  0  3  0  0  0  0  0  0
  -23.0830  -10.3750   20.1380 C   0  0  0  0  0  3  0  0  0  0  0  0
  -21.7520   -7.1990   21.3950 O   0  0  0  0  0  0  0  0  0  0  0  0
  -21.7140   -6.4250   22.5270 C   0  0  0  0  0  0  0  0  0  0  0  0
  -21.4070   -6.9720   23.7930 C   0  0  0  0  0  3  0  0  0  0  0  0
  -21.3050   -6.1300   24.9170 C   0  0  0  0  0  3  0  0  0  0  0  0
  -21.5040   -4.7430   24.7830 C   0  0  0  0  0  0  0  0  0  0  0  0
  -21.8000   -4.1950   23.5220 C   0  0  0  0  0  3  0  0  0  0  0  0
  -21.9030   -5.0340   22.3980 C   0  0  0  0  0  0  0  0  0  0  0  0
  -22.1700   -4.5000   21.1820 F   0  0  0  0  0  0  0  0  0  0  0  0
  -21.3980   -3.9320   25.8600 F   0  0  0  0  0  0  0  0  0  0  0  0
  -23.3690  -13.7050   20.8310 C   0  0  0  0  0  0  0  0  0  0  0  0
  -22.5730  -13.1340   21.7270 N   0  0  0  0  0  0  0  0  0  0  0  0
  -23.0200  -14.7120   20.2270 O   0  0  0  0  0  0  0  0  0  0  0  0
  -22.8630  -12.3140   22.2440 H   0  0  0  0  0  0  0  0  0  0  0  0
  -21.6540  -13.5200   21.8960 H   0  0  0  0  0  0  0  0  0  0  0  0
  -26.1460  -15.1360   20.0500 N   0  0  0  0  0  0  0  0  0  0  0  0
  -25.4440  -15.8650   20.1220 H   0  0  0  0  0  0  0  0  0  0  0  0
  -27.0470  -15.4890   19.7540 H   0  0  0  0  0  0  0  0  0  0  0  0
  -29.3860  -22.3350   17.4970 C   0  0  0  0  0  3  0  0  0  0  0  0
  -28.2230  -23.6750   17.2180 C   0  0  0  0  0  3  0  0  0  0  0  0
  -28.3460  -25.3160   17.2520 O   0  0  0  0  0  0  0  0  0  0  0  0
  -25.1080  -29.8520   22.2770 C   0  0  0  0  0  0  0  0  0  0  0  0
  -27.2970  -26.3020   17.6240 C   0  0  0  0  0  0  0  0  0  0  0  0
  -23.7060  -28.8850   20.4960 C   0  0  0  0  0  3  0  0  0  0  0  0
  -24.9470  -27.9070   18.4500 C   0  0  0  0  0  0  0  0  0  0  0  0
  -26.1880  -29.3700   20.0290 C   0  0  0  0  0  2  0  0  0  0  0  0
  -26.2010  -28.2200   18.9860 C   0  0  0  0  0  0  0  0  0  0  0  0
  -27.3640  -27.4460   18.5580 C   0  0  0  0  0  3  0  0  0  0  0  0
  -26.0040  -26.1490   17.0810 C   0  0  0  0  0  3  0  0  0  0  0  0
  -24.8660  -26.8970   17.4750 C   0  0  0  0  0  3  0  0  0  0  0  0
  -23.7220  -28.6570   18.9550 C   0  0  0  0  0  2  0  0  0  0  0  0
  -25.0300  -29.3870   20.9880 N   0  0  0  0  0  0  0  0  0  0  0  0
  -24.1200  -29.8710   23.0270 O   0  0  0  0  0  0  0  0  0  0  0  0
  -23.2310  -27.5950   21.2080 C   0  0  0  0  0  0  0  0  0  0  0  0
  -21.9120  -27.3260   21.1940 N   0  0  0  0  0  0  0  0  0  0  0  0
  -24.0480  -26.8440   21.7450 O   0  0  0  0  0  0  0  0  0  0  0  0
  -21.2920  -27.9930   20.7570 H   0  0  0  0  0  0  0  0  0  0  0  0
  -18.7490  -25.5920   21.5960 C   0  0  0  0  0  0  0  0  0  0  0  0
  -21.2780  -26.1270   21.7560 C   0  0  0  0  0  3  0  0  0  0  0  0
  -21.4850  -24.9050   20.8310 C   0  0  0  0  0  2  0  0  0  0  0  0
  -20.3350  -24.6950   19.8420 C   0  0  0  0  0  2  0  0  0  0  0  0
  -19.0150  -24.4870   20.5870 C   0  0  0  0  0  2  0  0  0  0  0  0
  -19.8080  -26.3750   22.1320 C   0  0  0  0  0  0  0  0  0  0  0  0
  -19.5020  -27.4090   23.0430 C   0  0  0  0  0  3  0  0  0  0  0  0
  -18.1720  -27.6690   23.4200 C   0  0  0  0  0  3  0  0  0  0  0  0
  -17.1290  -26.8830   22.8960 C   0  0  0  0  0  3  0  0  0  0  0  0
  -17.4180  -25.8450   21.9910 C   0  0  0  0  0  3  0  0  0  0  0  0
  -26.4490  -30.3850   22.8690 C   0  0  0  0  0  3  0  0  0  0  0  0
  -26.1390  -31.5620   23.6990 N   0  0  0  0  0  0  0  0  0  0  0  0
  -26.4240  -32.8280   23.3760 C   0  0  0  0  0  0  0  0  0  0  0  0
  -27.0420  -33.1310   22.3490 O   0  0  0  0  0  0  0  0  0  0  0  0
  -25.5830  -31.3920   24.5260 H   0  0  0  0  0  0  0  0  0  0  0  0
  -24.7260  -34.6530   23.7440 C   0  0  0  0  0  1  0  0  0  0  0  0
  -25.9530  -33.9390   24.3360 C   0  0  0  0  0  3  0  0  0  0  0  0
  -28.0830  -34.4040   25.4650 C   0  0  0  0  0  1  0  0  0  0  0  0
  -27.0000  -34.9390   24.6440 N   0  0  0  0  0  0  0  0  0  0  0  0
  -26.6040  -35.7390   25.1320 H   0  0  0  0  0  0  0  0  0  0  0  0
  -27.2290  -29.3080   23.7240 C   0  0  1  0  0  0  0  0  0  0  0  0
  -26.3640  -28.6430   24.8210 C   0  0  0  0  0  1  0  0  0  0  0  0
  -27.7880  -28.1850   22.8210 C   0  0  0  0  0  1  0  0  0  0  0  0
  -28.4470  -29.9660   24.4120 C   0  0  0  0  0  1  0  0  0  0  0  0
  1  7  1  0
  2  7  1  0
  3  4  1  0
  3  2  1  0
  5  4  1  0
  5 21  1  0
  5  6  1  0
  7  6  1  0
  8  1  2  0
 10  9  2  0
 11  9  1  0
 12 16  1  0
 13 11  1  0
 14 12  1  0
 14 13  1  0
 15 46  1  0
 15 14  1  0
 15 13  1  0
 16  1  1  0
 16 10  1  0
 17 11  2  0
 18 19  2  0
 19 20  1  0
 19 38  1  0
 20 23  1  0
 21 18  1  0
 21 22  1  0
 22 20  2  0
 23 24  1  0
 24 25  2  0
 26 29  1  0
 26 25  1  0
 27 26  2  0
 28 27  1  0
 28 23  2  0
 29 30  1  0
 30 31  1  0
 31 32  2  0
 33 32  1  0
 33 37  1  0
 34 33  2  0
 35 30  2  0
 35 34  1  0
 36 35  1  0
 38 39  1  0
 39 42  1  0
 39 41  1  0
 40 38  2  0
 43 44  1  0
 43 18  1  0
 45 43  1  0
 47 48  1  0
 47 46  2  0
 48 50  1  0
 49 60  2  0
 50 55  1  0
 51 59  1  0
 51 61  1  0
 52 58  1  0
 52 54  1  0
 53 59  1  0
 54 53  1  0
 55 54  2  0
 56 57  1  0
 56 50  2  0
 57 52  2  0
 58 51  1  0
 59 49  1  0
 61 63  2  0
 62 61  1  0
 64 62  1  0
 65 74  2  0
 65 70  1  0
 66 62  1  0
 66 70  1  0
 67 66  1  0
 68 69  1  0
 68 67  1  0
 69 65  1  0
 70 71  2  0
 71 72  1  0
 73 72  2  0
 74 73  1  0
 75 49  1  0
 75 76  1  0
 75 85  1  0
 76 79  1  0
 77 76  1  0
 77 81  1  0
 78 77  2  0
 81 80  1  0
 81 83  1  0
 83 84  1  0
 83 82  1  0
 85 88  1  1
 85 86  1  0
 87 85  1  0
M  ISO  4   1 100  16 100  47 101  48 101
M  END
>  <TORSDO>  (37) 
F 17

>  <SCORE>  (37) 
-11.405

>  <name>  (37) 
37

>  <ligand_id>  (37) 
37

>  <original_smiles>  (37) 
[H]C1=C([H])N(C(=O)N2C([H])([H])C([H])([H])C([H])([H])C([H])(n3nc(-c4c([H])c([H])c(Oc5c([H])c([H])c(F)c([H])c5F)c([H])c4[H])c(C(=O)N([H])[H])c3N([H])[H])C2([H])[H])C([H])([H])C2([H])C([H])(C1=O)C2([H])C([H])([H])C([H])([H])Oc1c([H])c([H])c2c(c1[H])C([H])([H])N(C(=O)C([H])(N([H])C(=O)C([H])(N([H])C([H])([H])[H])C([H])([H])[H])C(C([H])([H])[H])(C([H])([H])[H])C([H])([H])[H])C([H])(C(=O)N([H])C1([H])c3c([H])c([H])c([H])c([H])c3C([H])([H])C([H])([H])C1([H])[H])C2([H])[H]

>  <smiles>  (37) 
[H]C1=C([H])N(C(=O)N2C([H])([H])C([H])([H])C([H])([H])C([H])(n3nc(-c4c([H])c([H])c(Oc5c([H])c([H])c(F)c([H])c5F)c([H])c4[H])c(C(=O)N([H])[H])c3N([H])[H])C2([H])[H])C([H])([H])C2([H])C([H])(C1=O)C2([H])C([H])([H])C([H])([H])Oc1c([H])c([H])c2c(c1[H])C([H])([H])N(C(=O)C([H])(N([H])C(=O)C([H])(N([H])C([H])([H])[H])C([H])([H])[H])C(C([H])([H])[H])(C([H])([H])[H])C([H])([H])[H])C([H])(C(=O)N([H])C1([H])c3c([H])c([H])c([H])c([H])c3C([H])([H])C([H])([H])C1([H])[H])C2([H])[H]

$$$$
38:0:0
     RDKit          3D

 94103  0  0  1  0  0  0  0  0999 V2000
  -29.5710  -20.6400   19.2600 C   0  0  0  0  0  3  0  0  0  0  0  0
  -29.5000  -21.9500   18.9540 C   0  0  0  0  0  0  0  0  0  0  0  0
  -27.8880  -20.8460   21.0330 C   0  0  0  0  0  2  0  0  0  0  0  0
  -30.2920  -21.0670   21.5750 C   0  0  0  0  0  2  0  0  0  0  0  0
  -27.8130  -22.3720   20.7040 C   0  0  0  0  0  2  0  0  0  0  0  0
  -30.2220  -22.5880   21.2390 C   0  0  0  0  0  2  0  0  0  0  0  0
  -29.2910  -20.2560   20.7060 C   0  0  2  0  0  0  0  0  0  0  0  0
  -29.1640  -22.8910   20.1350 C   0  0  1  0  0  0  0  0  0  0  0  0
  -28.3660  -22.6510   16.7900 C   0  0  0  0  0  1  0  0  0  0  0  0
  -29.6960  -22.4650   17.5360 C   0  0  0  0  0  2  0  0  0  0  0  0
  -29.3290  -18.7150   20.9790 C   0  0  0  0  0  2  0  0  0  0  0  0
  -30.6310  -17.9590   20.5950 C   0  0  0  0  0  2  0  0  0  0  0  0
  -30.9310  -16.6790   21.4250 C   0  0  0  0  0  2  0  0  0  0  0  0
  -30.8350  -14.5010   20.1810 C   0  0  0  0  0  0  0  0  0  0  0  0
  -30.4280  -12.4090   18.9320 C   0  0  0  0  0  2  0  0  0  0  0  0
  -29.4190  -12.6600   17.7930 C   0  0  0  0  0  2  0  0  0  0  0  0
  -27.9720  -12.5170   18.3050 C   0  0  0  0  0  2  0  0  0  0  0  0
  -27.7190  -13.3110   19.6140 C   0  0  0  0  0  3  0  0  0  0  0  0
  -28.8310  -13.0390   20.6490 C   0  0  0  0  0  2  0  0  0  0  0  0
  -30.1230  -13.3540   20.0180 N   0  0  0  0  0  0  0  0  0  0  0  0
  -31.9070  -14.7080   19.6040 O   0  0  0  0  0  0  0  0  0  0  0  0
  -30.2750  -15.4430   20.9650 N   0  0  0  0  0  0  0  0  0  0  0  0
  -29.3790  -15.2170   21.3690 H   0  0  0  0  0  0  0  0  0  0  0  0
  -25.3680  -13.9140   20.4710 C   0  0  0  0  0  0  0  0  0  0  0  0
  -24.3160  -13.1380   20.8770 C   0  0  0  0  0  0  0  0  0  0  0  0
  -24.7620  -11.7850   20.7820 C   0  0  0  0  0  0  0  0  0  0  0  0
  -26.3910  -13.0330   20.1590 N   0  0  0  0  0  0  0  0  0  0  0  0
  -26.0330  -11.7450   20.4020 N   0  0  0  0  0  0  0  0  0  0  0  0
  -24.0370  -10.5220   20.9760 C   0  0  0  0  0  0  0  0  0  0  0  0
  -24.4760   -9.5550   21.9070 C   0  0  0  0  0  3  0  0  0  0  0  0
  -23.7510   -8.3570   22.0880 C   0  0  0  0  0  3  0  0  0  0  0  0
  -22.5750   -8.1190   21.3390 C   0  0  0  0  0  0  0  0  0  0  0  0
  -22.1560   -9.0750   20.3970 C   0  0  0  0  0  3  0  0  0  0  0  0
  -22.8800  -10.2640   20.2140 C   0  0  0  0  0  3  0  0  0  0  0  0
  -21.8220   -6.9730   21.4300 O   0  0  0  0  0  0  0  0  0  0  0  0
  -21.7430   -6.2540   22.5960 C   0  0  0  0  0  0  0  0  0  0  0  0
  -21.2320   -6.8170   23.7850 C   0  0  0  0  0  3  0  0  0  0  0  0
  -21.1050   -6.0220   24.9410 C   0  0  0  0  0  3  0  0  0  0  0  0
  -21.4770   -4.6640   24.9090 C   0  0  0  0  0  0  0  0  0  0  0  0
  -21.9810   -4.1010   23.7230 C   0  0  0  0  0  3  0  0  0  0  0  0
  -22.1100   -4.8930   22.5690 C   0  0  0  0  0  0  0  0  0  0  0  0
  -22.5760   -4.3400   21.4230 F   0  0  0  0  0  0  0  0  0  0  0  0
  -21.3480   -3.8980   26.0170 F   0  0  0  0  0  0  0  0  0  0  0  0
  -22.9390  -13.6170   21.2400 C   0  0  0  0  0  0  0  0  0  0  0  0
  -22.2520  -12.8960   22.1190 N   0  0  0  0  0  0  0  0  0  0  0  0
  -22.4850  -14.6650   20.7820 O   0  0  0  0  0  0  0  0  0  0  0  0
  -22.6340  -12.0470   22.5110 H   0  0  0  0  0  0  0  0  0  0  0  0
  -21.3310  -13.1960   22.4050 H   0  0  0  0  0  0  0  0  0  0  0  0
  -25.5360  -15.2870   20.3240 N   0  0  0  0  0  0  0  0  0  0  0  0
  -24.7840  -15.9470   20.4940 H   0  0  0  0  0  0  0  0  0  0  0  0
  -26.3770  -15.7280   19.9700 H   0  0  0  0  0  0  0  0  0  0  0  0
  -29.1320  -24.4170   19.7550 C   0  0  0  0  0  2  0  0  0  0  0  0
  -28.6740  -25.4210   20.8450 C   0  0  0  0  0  2  0  0  0  0  0  0
  -28.7570  -26.7920   20.4070 O   0  0  0  0  0  0  0  0  0  0  0  0
  -24.6010  -31.8570   23.2130 C   0  0  0  0  0  0  0  0  0  0  0  0
  -27.5680  -27.4870   20.3310 C   0  0  0  0  0  0  0  0  0  0  0  0
  -23.5420  -30.4070   21.5110 C   0  0  0  0  0  3  0  0  0  0  0  0
  -25.1280  -28.9120   20.1830 C   0  0  0  0  0  0  0  0  0  0  0  0
  -26.0610  -30.8520   21.4580 C   0  0  0  0  0  2  0  0  0  0  0  0
  -26.2320  -29.4820   20.8320 C   0  0  0  0  0  0  0  0  0  0  0  0
  -27.4580  -28.7790   20.8960 C   0  0  0  0  0  3  0  0  0  0  0  0
  -26.4490  -26.9310   19.6740 C   0  0  0  0  0  3  0  0  0  0  0  0
  -25.2330  -27.6370   19.6000 C   0  0  0  0  0  3  0  0  0  0  0  0
  -23.8550  -29.7280   20.1500 C   0  0  0  0  0  2  0  0  0  0  0  0
  -24.7490  -31.0550   22.1200 N   0  0  0  0  0  0  0  0  0  0  0  0
  -23.4810  -32.0940   23.6870 O   0  0  0  0  0  0  0  0  0  0  0  0
  -22.8690  -29.3700   22.4380 C   0  0  0  0  0  0  0  0  0  0  0  0
  -21.5510  -29.1790   22.2660 N   0  0  0  0  0  0  0  0  0  0  0  0
  -23.5310  -28.7390   23.2660 O   0  0  0  0  0  0  0  0  0  0  0  0
  -21.0780  -29.7410   21.5700 H   0  0  0  0  0  0  0  0  0  0  0  0
  -18.1600  -28.0070   22.6920 C   0  0  0  0  0  0  0  0  0  0  0  0
  -20.7170  -28.2260   22.9970 C   0  0  0  0  0  3  0  0  0  0  0  0
  -20.8100  -26.8140   22.3730 C   0  0  0  0  0  2  0  0  0  0  0  0
  -19.7130  -26.5390   21.3380 C   0  0  0  0  0  2  0  0  0  0  0  0
  -18.3280  -26.6790   21.9740 C   0  0  0  0  0  2  0  0  0  0  0  0
  -19.2820  -28.7410   23.1580 C   0  0  0  0  0  0  0  0  0  0  0  0
  -19.0730  -29.9870   23.7900 C   0  0  0  0  0  3  0  0  0  0  0  0
  -17.7730  -30.4990   23.9590 C   0  0  0  0  0  3  0  0  0  0  0  0
  -16.6640  -29.7600   23.5100 C   0  0  0  0  0  3  0  0  0  0  0  0
  -16.8580  -28.5170   22.8830 C   0  0  0  0  0  3  0  0  0  0  0  0
  -25.8260  -32.5330   23.9040 C   0  0  0  0  0  3  0  0  0  0  0  0
  -25.4560  -33.9220   24.2010 N   0  0  0  0  0  0  0  0  0  0  0  0
  -25.7880  -34.9760   23.4420 C   0  0  0  0  0  0  0  0  0  0  0  0
  -26.5080  -34.8830   22.4450 O   0  0  0  0  0  0  0  0  0  0  0  0
  -24.8200  -34.0660   24.9720 H   0  0  0  0  0  0  0  0  0  0  0  0
  -24.0160  -36.7000   22.9830 C   0  0  0  0  0  1  0  0  0  0  0  0
  -25.2310  -36.3520   23.8570 C   0  0  0  0  0  3  0  0  0  0  0  0
  -27.2860  -37.3280   24.7810 C   0  0  0  0  0  1  0  0  0  0  0  0
  -26.2300  -37.4390   23.7770 N   0  0  0  0  0  0  0  0  0  0  0  0
  -25.7850  -38.3460   23.8860 H   0  0  0  0  0  0  0  0  0  0  0  0
  -26.2900  -31.7870   25.2150 C   0  0  1  0  0  0  0  0  0  0  0  0
  -25.1430  -31.5140   26.2150 C   0  0  0  0  0  1  0  0  0  0  0  0
  -26.9470  -30.4310   24.8680 C   0  0  0  0  0  1  0  0  0  0  0  0
  -27.3680  -32.6260   25.9430 C   0  0  0  0  0  1  0  0  0  0  0  0
  1  7  1  0
  2  1  2  0
  2  8  1  0
  5  3  1  0
  6  4  1  0
  7 11  1  6
  7  3  1  0
  7  4  1  0
  8 52  1  6
  8  5  1  0
  8  6  1  0
  9 10  1  0
 10  2  1  0
 12 11  1  0
 12 13  1  0
 14 22  1  0
 15 20  1  0
 16 17  1  0
 16 15  1  0
 18 17  1  0
 18 27  1  0
 18 19  1  0
 20 14  1  0
 20 19  1  0
 21 14  2  0
 22 23  1  0
 22 13  1  0
 24 25  2  0
 25 44  1  0
 26 25  1  0
 26 29  1  0
 27 28  1  0
 27 24  1  0
 28 26  2  0
 29 30  1  0
 30 31  2  0
 32 35  1  0
 32 31  1  0
 33 32  2  0
 34 33  1  0
 34 29  2  0
 35 36  1  0
 36 37  1  0
 37 38  2  0
 39 38  1  0
 39 43  1  0
 40 39  2  0
 41 36  2  0
 41 40  1  0
 42 41  1  0
 44 45  1  0
 45 48  1  0
 45 47  1  0
 46 44  2  0
 49 24  1  0
 49 50  1  0
 51 49  1  0
 52 53  1  0
 54 53  1  0
 55 66  2  0
 56 54  1  0
 56 61  1  0
 57 65  1  0
 57 67  1  0
 58 60  1  0
 59 65  1  0
 60 61  2  0
 60 59  1  0
 62 56  2  0
 63 62  1  0
 63 58  2  0
 64 58  1  0
 64 57  1  0
 65 55  1  0
 67 69  2  0
 68 67  1  0
 70 68  1  0
 71 80  2  0
 71 76  1  0
 72 68  1  0
 72 76  1  0
 73 72  1  0
 74 75  1  0
 74 73  1  0
 75 71  1  0
 76 77  2  0
 77 78  1  0
 79 78  2  0
 80 79  1  0
 81 55  1  0
 81 82  1  0
 81 91  1  0
 82 85  1  0
 83 87  1  0
 83 82  1  0
 84 83  2  0
 87 86  1  0
 89 87  1  0
 89 90  1  0
 89 88  1  0
 91 94  1  1
 91 92  1  0
 93 91  1  0
M  ISO  4  14 100  22 100  53 101  54 101
M  END
>  <TORSDO>  (38) 
F 22

>  <SCORE>  (38) 
-12.509

>  <name>  (38) 
38

>  <ligand_id>  (38) 
38

>  <original_smiles>  (38) 
[H]C1=C(C([H])([H])C([H])([H])[H])C2(C([H])([H])C([H])([H])Oc3c([H])c([H])c4c(c3[H])C([H])([H])N(C(=O)C([H])(N([H])C(=O)C([H])(N([H])C([H])([H])[H])C([H])([H])[H])C(C([H])([H])[H])(C([H])([H])[H])C([H])([H])[H])C([H])(C(=O)N([H])C3([H])c5c([H])c([H])c([H])c([H])c5C([H])([H])C([H])([H])C3([H])[H])C4([H])[H])C([H])([H])C([H])([H])C1(C([H])([H])C([H])([H])C([H])([H])N([H])C(=O)N1C([H])([H])C([H])([H])C([H])([H])C([H])(n3nc(-c4c([H])c([H])c(Oc5c([H])c([H])c(F)c([H])c5F)c([H])c4[H])c(C(=O)N([H])[H])c3N([H])[H])C1([H])[H])C([H])([H])C2([H])[H]

>  <smiles>  (38) 
[H]C1=C(C([H])([H])C([H])([H])[H])C2(C([H])([H])C([H])([H])Oc3c([H])c([H])c4c(c3[H])C([H])([H])N(C(=O)C([H])(N([H])C(=O)C([H])(N([H])C([H])([H])[H])C([H])([H])[H])C(C([H])([H])[H])(C([H])([H])[H])C([H])([H])[H])C([H])(C(=O)N([H])C3([H])c5c([H])c([H])c([H])c([H])c5C([H])([H])C([H])([H])C3([H])[H])C4([H])[H])C([H])([H])C([H])([H])C1(C([H])([H])C([H])([H])C([H])([H])N([H])C(=O)N1C([H])([H])C([H])([H])C([H])([H])C([H])(n3nc(-c4c([H])c([H])c(Oc5c([H])c([H])c(F)c([H])c5F)c([H])c4[H])c(C(=O)N([H])[H])c3N([H])[H])C1([H])[H])C([H])([H])C2([H])[H]

$$$$
39:0:0
     RDKit          3D

 93102  0  0  1  0  0  0  0  0999 V2000
  -28.2780  -20.1160   20.9840 C   0  0  0  0  0  3  0  0  0  0  0  0
  -28.8800  -18.8310   20.8560 C   0  0  0  0  0  3  0  0  0  0  0  0
  -30.4100  -21.1780   20.7080 C   0  0  0  0  0  3  0  0  0  0  0  0
  -29.0170  -21.3230   20.8800 C   0  0  0  0  0  0  0  0  0  0  0  0
  -30.2730  -18.6830   20.6480 C   0  0  0  0  0  0  0  0  0  0  0  0
  -31.0360  -19.9000   20.6200 C   0  0  0  0  0  0  0  0  0  0  0  0
  -32.5530  -19.8920   20.4660 C   0  0  0  0  0  1  0  0  0  0  0  0
  -27.3800  -23.1760   19.9500 C   0  0  0  0  0  2  0  0  0  0  0  0
  -28.3170  -22.6950   21.0300 C   0  0  0  0  0  3  0  0  0  0  0  0
  -28.5760  -24.0470   20.2870 C   0  0  0  0  0  3  0  0  0  0  0  0
  -28.3650  -25.4220   20.9950 C   0  0  0  0  0  2  0  0  0  0  0  0
  -28.4190  -26.6630   20.2230 O   0  0  0  0  0  0  0  0  0  0  0  0
  -24.5970  -31.9390   23.2550 C   0  0  0  0  0  0  0  0  0  0  0  0
  -27.2750  -27.4500   20.2260 C   0  0  0  0  0  0  0  0  0  0  0  0
  -23.4100  -30.5190   21.6150 C   0  0  0  0  0  3  0  0  0  0  0  0
  -24.8820  -28.9820   20.2010 C   0  0  0  0  0  0  0  0  0  0  0  0
  -25.9380  -30.8860   21.4260 C   0  0  0  0  0  2  0  0  0  0  0  0
  -26.0390  -29.5090   20.7920 C   0  0  0  0  0  0  0  0  0  0  0  0
  -27.2430  -28.7540   20.7920 C   0  0  0  0  0  3  0  0  0  0  0  0
  -26.1000  -26.9500   19.6270 C   0  0  0  0  0  3  0  0  0  0  0  0
  -24.9110  -27.7040   19.6120 C   0  0  0  0  0  3  0  0  0  0  0  0
  -23.6330  -29.8380   20.2400 C   0  0  0  0  0  2  0  0  0  0  0  0
  -24.6660  -31.1310   22.1560 N   0  0  0  0  0  0  0  0  0  0  0  0
  -23.5110  -32.2020   23.7940 O   0  0  0  0  0  0  0  0  0  0  0  0
  -22.7640  -29.4980   22.5800 C   0  0  0  0  0  0  0  0  0  0  0  0
  -21.4460  -29.2820   22.4350 N   0  0  0  0  0  0  0  0  0  0  0  0
  -23.4460  -28.9000   23.4160 O   0  0  0  0  0  0  0  0  0  0  0  0
  -20.9540  -29.8180   21.7340 H   0  0  0  0  0  0  0  0  0  0  0  0
  -18.0940  -27.9980   22.8780 C   0  0  0  0  0  0  0  0  0  0  0  0
  -20.6370  -28.3310   23.1990 C   0  0  0  0  0  3  0  0  0  0  0  0
  -20.7920  -26.8950   22.6480 C   0  0  0  0  0  2  0  0  0  0  0  0
  -19.7220  -26.5260   21.6150 C   0  0  0  0  0  2  0  0  0  0  0  0
  -18.3220  -26.6430   22.2260 C   0  0  0  0  0  2  0  0  0  0  0  0
  -19.1820  -28.7970   23.3200 C   0  0  0  0  0  0  0  0  0  0  0  0
  -18.9180  -30.0630   23.8840 C   0  0  0  0  0  3  0  0  0  0  0  0
  -17.5970  -30.5320   24.0160 C   0  0  0  0  0  3  0  0  0  0  0  0
  -16.5220  -29.7300   23.5920 C   0  0  0  0  0  3  0  0  0  0  0  0
  -16.7710  -28.4660   23.0280 C   0  0  0  0  0  3  0  0  0  0  0  0
  -25.8740  -32.5860   23.8740 C   0  0  0  0  0  3  0  0  0  0  0  0
  -26.3860  -31.8370   25.1650 C   0  0  1  0  0  0  0  0  0  0  0  0
  -25.2850  -31.6020   26.2260 C   0  0  0  0  0  1  0  0  0  0  0  0
  -26.9860  -30.4620   24.7930 C   0  0  0  0  0  1  0  0  0  0  0  0
  -27.5210  -32.6530   25.8290 C   0  0  0  0  0  1  0  0  0  0  0  0
  -25.5550  -33.9860   24.1830 N   0  0  0  0  0  0  0  0  0  0  0  0
  -25.9010  -35.0300   23.4200 C   0  0  0  0  0  0  0  0  0  0  0  0
  -26.5930  -34.9190   22.4030 O   0  0  0  0  0  0  0  0  0  0  0  0
  -24.9440  -34.1470   24.9710 H   0  0  0  0  0  0  0  0  0  0  0  0
  -24.1890  -36.8260   22.9980 C   0  0  0  0  0  1  0  0  0  0  0  0
  -25.4010  -36.4230   23.8520 C   0  0  0  0  0  3  0  0  0  0  0  0
  -27.5060  -37.3190   24.7450 C   0  0  0  0  0  1  0  0  0  0  0  0
  -26.4360  -37.4750   23.7630 N   0  0  0  0  0  0  0  0  0  0  0  0
  -26.0240  -38.3970   23.8910 H   0  0  0  0  0  0  0  0  0  0  0  0
  -30.9180  -17.3100   20.2240 C   0  0  0  0  0  3  0  0  0  0  0  0
  -31.1030  -14.7900   20.6760 C   0  0  0  0  0  0  0  0  0  0  0  0
  -30.7920  -12.6040   19.5500 C   0  0  0  0  0  2  0  0  0  0  0  0
  -29.9070  -12.7560   18.2950 C   0  0  0  0  0  2  0  0  0  0  0  0
  -28.4080  -12.7260   18.6560 C   0  0  0  0  0  2  0  0  0  0  0  0
  -28.0420  -13.5600   19.9150 C   0  0  0  0  0  3  0  0  0  0  0  0
  -29.0530  -13.3380   21.0620 C   0  0  0  0  0  2  0  0  0  0  0  0
  -30.3870  -13.6320   20.5300 N   0  0  0  0  0  0  0  0  0  0  0  0
  -32.3160  -14.8060   20.4670 O   0  0  0  0  0  0  0  0  0  0  0  0
  -30.4070  -15.9780   20.7330 N   0  0  0  0  0  0  0  0  0  0  0  0
  -29.4130  -15.9070   20.8870 H   0  0  0  0  0  0  0  0  0  0  0  0
  -25.6280  -14.2070   20.5240 C   0  0  0  0  0  0  0  0  0  0  0  0
  -24.5310  -13.4550   20.8460 C   0  0  0  0  0  0  0  0  0  0  0  0
  -24.9700  -12.0950   20.8490 C   0  0  0  0  0  0  0  0  0  0  0  0
  -26.6670  -13.3070   20.3450 N   0  0  0  0  0  0  0  0  0  0  0  0
  -26.2730  -12.0340   20.6090 N   0  0  0  0  0  0  0  0  0  0  0  0
  -24.2130  -10.8450   21.0020 C   0  0  0  0  0  0  0  0  0  0  0  0
  -24.5950   -9.8640   21.9430 C   0  0  0  0  0  3  0  0  0  0  0  0
  -23.8420   -8.6790   22.0870 C   0  0  0  0  0  3  0  0  0  0  0  0
  -22.6920   -8.4690   21.2890 C   0  0  0  0  0  0  0  0  0  0  0  0
  -22.3310   -9.4380   20.3380 C   0  0  0  0  0  3  0  0  0  0  0  0
  -23.0840  -10.6130   20.1920 C   0  0  0  0  0  3  0  0  0  0  0  0
  -21.9130   -7.3380   21.3430 O   0  0  0  0  0  0  0  0  0  0  0  0
  -21.7890   -6.6020   22.4940 C   0  0  0  0  0  0  0  0  0  0  0  0
  -21.3130   -7.1710   23.6950 C   0  0  0  0  0  3  0  0  0  0  0  0
  -21.1340   -6.3620   24.8340 C   0  0  0  0  0  3  0  0  0  0  0  0
  -21.4230   -4.9860   24.7750 C   0  0  0  0  0  0  0  0  0  0  0  0
  -21.8950   -4.4160   23.5790 C   0  0  0  0  0  3  0  0  0  0  0  0
  -22.0730   -5.2220   22.4400 C   0  0  0  0  0  0  0  0  0  0  0  0
  -22.5050   -4.6650   21.2850 F   0  0  0  0  0  0  0  0  0  0  0  0
  -21.2460   -4.2060   25.8670 F   0  0  0  0  0  0  0  0  0  0  0  0
  -23.1290  -13.9560   21.0420 C   0  0  0  0  0  0  0  0  0  0  0  0
  -22.3590  -13.2970   21.8990 N   0  0  0  0  0  0  0  0  0  0  0  0
  -22.7260  -14.9690   20.4690 O   0  0  0  0  0  0  0  0  0  0  0  0
  -22.7000  -12.4780   22.3800 H   0  0  0  0  0  0  0  0  0  0  0  0
  -21.4150  -13.6130   22.0770 H   0  0  0  0  0  0  0  0  0  0  0  0
  -25.8230  -15.5700   20.3390 N   0  0  0  0  0  0  0  0  0  0  0  0
  -25.0460  -16.2190   20.3610 H   0  0  0  0  0  0  0  0  0  0  0  0
  -26.6690  -15.9800   19.9640 H   0  0  0  0  0  0  0  0  0  0  0  0
  -31.5590  -16.2310   17.8910 C   0  0  0  0  0  1  0  0  0  0  0  0
  -30.8920  -17.3590   18.6700 C   0  0  0  0  0  2  0  0  0  0  0  0
  2  1  2  0
  3  4  2  0
  4  1  1  0
  5  2  1  0
  6  5  2  0
  6  3  1  0
  7  6  1  0
  8 10  1  0
  8  9  1  0
  9  4  1  0
 10 11  1  0
 10  9  1  0
 12 14  1  0
 12 11  1  0
 13 24  2  0
 14 19  1  0
 15 23  1  0
 15 25  1  0
 16 22  1  0
 16 18  1  0
 17 23  1  0
 18 17  1  0
 19 18  2  0
 20 14  2  0
 21 20  1  0
 21 16  2  0
 22 15  1  0
 23 13  1  0
 25 27  2  0
 26 25  1  0
 28 26  1  0
 29 38  2  0
 29 34  1  0
 30 26  1  0
 30 34  1  0
 31 30  1  0
 32 33  1  0
 32 31  1  0
 33 29  1  0
 34 35  2  0
 35 36  1  0
 37 36  2  0
 38 37  1  0
 39 13  1  0
 39 44  1  0
 39 40  1  0
 40 43  1  1
 40 41  1  0
 42 40  1  0
 44 47  1  0
 45 49  1  0
 45 44  1  0
 46 45  2  0
 49 48  1  0
 51 49  1  0
 51 52  1  0
 51 50  1  0
 53 93  1  0
 53  5  1  0
 53 62  1  0
 54 62  1  0
 55 60  1  0
 56 57  1  0
 56 55  1  0
 58 57  1  0
 58 67  1  0
 58 59  1  0
 60 54  1  0
 60 59  1  0
 61 54  2  0
 62 63  1  0
 64 65  2  0
 65 66  1  0
 65 84  1  0
 66 69  1  0
 67 64  1  0
 67 68  1  0
 68 66  2  0
 69 70  1  0
 70 71  2  0
 72 75  1  0
 72 71  1  0
 73 72  2  0
 74 73  1  0
 74 69  2  0
 75 76  1  0
 76 77  1  0
 77 78  2  0
 79 78  1  0
 79 83  1  0
 80 79  2  0
 81 76  2  0
 81 80  1  0
 82 81  1  0
 84 85  1  0
 85 88  1  0
 85 87  1  0
 86 84  2  0
 89 90  1  0
 89 64  1  0
 91 89  1  0
 92 93  1  0
M  ISO  4  11 101  12 101  54 100  62 100
M  END
>  <TORSDO>  (39) 
F 20

>  <SCORE>  (39) 
-13.361

>  <name>  (39) 
39

>  <ligand_id>  (39) 
39

>  <original_smiles>  (39) 
[H]c1c([H])c([H])c2c(c1[H])C([H])([H])C([H])([H])C([H])([H])C2([H])N([H])C(=O)C1([H])N(C(=O)C([H])(N([H])C(=O)C([H])(N([H])C([H])([H])[H])C([H])([H])[H])C(C([H])([H])[H])(C([H])([H])[H])C([H])([H])[H])C([H])([H])c2c([H])c(OC([H])([H])C3([H])C([H])([H])C3([H])c3c([H])c([H])c(C([H])(N([H])C(=O)N4C([H])([H])C([H])([H])C([H])([H])C([H])(n5nc(-c6c([H])c([H])c(Oc7c([H])c([H])c(F)c([H])c7F)c([H])c6[H])c(C(=O)N([H])[H])c5N([H])[H])C4([H])[H])C([H])([H])C([H])([H])[H])c(C([H])([H])[H])c3[H])c([H])c([H])c2C1([H])[H]

>  <smiles>  (39) 
[H]c1c([H])c([H])c2c(c1[H])C([H])([H])C([H])([H])C([H])([H])C2([H])N([H])C(=O)C1([H])N(C(=O)C([H])(N([H])C(=O)C([H])(N([H])C([H])([H])[H])C([H])([H])[H])C(C([H])([H])[H])(C([H])([H])[H])C([H])([H])[H])C([H])([H])c2c([H])c(OC([H])([H])C3([H])C([H])([H])C3([H])c3c([H])c([H])c(C([H])(N([H])C(=O)N4C([H])([H])C([H])([H])C([H])([H])C([H])(n5nc(-c6c([H])c([H])c(Oc7c([H])c([H])c(F)c([H])c7F)c([H])c6[H])c(C(=O)N([H])[H])c5N([H])[H])C4([H])[H])C([H])([H])C([H])([H])[H])c(C([H])([H])[H])c3[H])c([H])c([H])c2C1([H])[H]

$$$$
40:0:0
     RDKit          3D

 89 98  0  0  1  0  0  0  0  0999 V2000
  -30.7140  -20.8060   20.7820 C   0  0  0  0  0  2  0  0  0  0  0  0
  -28.4310  -21.1880   21.1760 C   0  0  0  0  0  2  0  0  0  0  0  0
  -29.6070  -19.7750   18.9740 C   0  0  0  0  0  2  0  0  0  0  0  0
  -29.5080  -20.0180   21.2780 C   0  0  0  0  0  3  0  0  0  0  0  0
  -30.0240  -21.2190   19.4870 C   0  0  0  0  0  3  0  0  0  0  0  0
  -28.8150  -22.1200   19.9630 C   0  0  0  0  0  3  0  0  0  0  0  0
  -29.3600  -18.8380   20.2240 C   0  0  0  0  0  3  0  0  0  0  0  0
  -29.1100  -23.7210   20.2310 C   0  0  0  0  0  3  0  0  0  0  0  0
  -28.0070  -24.8990   19.9860 C   0  0  0  0  0  3  0  0  0  0  0  0
  -28.2840  -26.3820   20.1740 O   0  0  0  0  0  0  0  0  0  0  0  0
  -24.6380  -31.8960   23.2610 C   0  0  0  0  0  0  0  0  0  0  0  0
  -27.2050  -27.3060   20.1290 C   0  0  0  0  0  0  0  0  0  0  0  0
  -23.4250  -30.5220   21.6110 C   0  0  0  0  0  3  0  0  0  0  0  0
  -24.8630  -28.9890   20.1510 C   0  0  0  0  0  0  0  0  0  0  0  0
  -25.9720  -30.8170   21.4230 C   0  0  0  0  0  2  0  0  0  0  0  0
  -26.0430  -29.4440   20.7520 C   0  0  0  0  0  0  0  0  0  0  0  0
  -27.2150  -28.6170   20.7300 C   0  0  0  0  0  3  0  0  0  0  0  0
  -25.9980  -26.9300   19.4960 C   0  0  0  0  0  3  0  0  0  0  0  0
  -24.8490  -27.7430   19.5100 C   0  0  0  0  0  3  0  0  0  0  0  0
  -23.6310  -29.8700   20.2190 C   0  0  0  0  0  2  0  0  0  0  0  0
  -24.7000  -31.0960   22.1550 N   0  0  0  0  0  0  0  0  0  0  0  0
  -23.5550  -32.1650   23.8020 O   0  0  0  0  0  0  0  0  0  0  0  0
  -22.7670  -29.4920   22.5610 C   0  0  0  0  0  0  0  0  0  0  0  0
  -21.4400  -29.3100   22.4370 N   0  0  0  0  0  0  0  0  0  0  0  0
  -23.4500  -28.8610   23.3740 O   0  0  0  0  0  0  0  0  0  0  0  0
  -20.9500  -29.8730   21.7540 H   0  0  0  0  0  0  0  0  0  0  0  0
  -18.0670  -28.0880   22.9300 C   0  0  0  0  0  0  0  0  0  0  0  0
  -20.6250  -28.3610   23.1970 C   0  0  0  0  0  3  0  0  0  0  0  0
  -20.7340  -26.9350   22.6090 C   0  0  0  0  0  2  0  0  0  0  0  0
  -19.6300  -26.6130   21.5970 C   0  0  0  0  0  2  0  0  0  0  0  0
  -18.2480  -26.7470   22.2400 C   0  0  0  0  0  2  0  0  0  0  0  0
  -19.1830  -28.8530   23.3660 C   0  0  0  0  0  0  0  0  0  0  0  0
  -18.9570  -30.1090   23.9700 C   0  0  0  0  0  3  0  0  0  0  0  0
  -17.6500  -30.5990   24.1450 C   0  0  0  0  0  3  0  0  0  0  0  0
  -16.5490  -29.8320   23.7260 C   0  0  0  0  0  3  0  0  0  0  0  0
  -16.7570  -28.5780   23.1240 C   0  0  0  0  0  3  0  0  0  0  0  0
  -25.9210  -32.5250   23.8860 C   0  0  0  0  0  3  0  0  0  0  0  0
  -26.4290  -31.7520   25.1640 C   0  0  1  0  0  0  0  0  0  0  0  0
  -25.3310  -31.5150   26.2300 C   0  0  0  0  0  1  0  0  0  0  0  0
  -27.0160  -30.3760   24.7710 C   0  0  0  0  0  1  0  0  0  0  0  0
  -27.5820  -32.5450   25.8280 C   0  0  0  0  0  1  0  0  0  0  0  0
  -25.6150  -33.9240   24.2200 N   0  0  0  0  0  0  0  0  0  0  0  0
  -25.9210  -34.9770   23.4500 C   0  0  0  0  0  0  0  0  0  0  0  0
  -26.5610  -34.8730   22.4010 O   0  0  0  0  0  0  0  0  0  0  0  0
  -25.0540  -34.0810   25.0450 H   0  0  0  0  0  0  0  0  0  0  0  0
  -24.1650  -36.7530   23.1590 C   0  0  0  0  0  1  0  0  0  0  0  0
  -25.4400  -36.3640   23.9210 C   0  0  0  0  0  3  0  0  0  0  0  0
  -27.6000  -37.2700   24.6600 C   0  0  0  0  0  1  0  0  0  0  0  0
  -26.4600  -37.4260   23.7620 N   0  0  0  0  0  0  0  0  0  0  0  0
  -26.0520  -38.3430   23.9210 H   0  0  0  0  0  0  0  0  0  0  0  0
  -30.3550  -17.5290   20.3780 C   0  0  0  0  0  2  0  0  0  0  0  0
  -30.6240  -14.8930   20.2400 C   0  0  0  0  0  0  0  0  0  0  0  0
  -30.4220  -12.5940   19.2630 C   0  0  0  0  0  2  0  0  0  0  0  0
  -29.4680  -12.6230   18.0490 C   0  0  0  0  0  2  0  0  0  0  0  0
  -28.0080  -12.4360   18.5040 C   0  0  0  0  0  2  0  0  0  0  0  0
  -27.6410  -13.3430   19.7090 C   0  0  0  0  0  3  0  0  0  0  0  0
  -28.7150  -13.3050   20.8190 C   0  0  0  0  0  2  0  0  0  0  0  0
  -29.9920  -13.6670   20.1930 N   0  0  0  0  0  0  0  0  0  0  0  0
  -31.8160  -14.9650   19.9290 O   0  0  0  0  0  0  0  0  0  0  0  0
  -29.8750  -16.0610   20.4210 N   0  0  0  0  0  0  0  0  0  0  0  0
  -28.8950  -15.9230   20.6180 H   0  0  0  0  0  0  0  0  0  0  0  0
  -25.2620  -13.9240   20.4650 C   0  0  0  0  0  0  0  0  0  0  0  0
  -24.2020  -13.1450   20.8420 C   0  0  0  0  0  0  0  0  0  0  0  0
  -24.6710  -11.7950   20.8090 C   0  0  0  0  0  0  0  0  0  0  0  0
  -26.3070  -13.0490   20.2210 N   0  0  0  0  0  0  0  0  0  0  0  0
  -25.9590  -11.7630   20.4900 N   0  0  0  0  0  0  0  0  0  0  0  0
  -23.9500  -10.5310   21.0020 C   0  0  0  0  0  0  0  0  0  0  0  0
  -24.3860   -9.5680   21.9370 C   0  0  0  0  0  3  0  0  0  0  0  0
  -23.6660   -8.3680   22.1180 C   0  0  0  0  0  3  0  0  0  0  0  0
  -22.4930   -8.1240   21.3650 C   0  0  0  0  0  0  0  0  0  0  0  0
  -22.0770   -9.0750   20.4170 C   0  0  0  0  0  3  0  0  0  0  0  0
  -22.7980  -10.2660   20.2340 C   0  0  0  0  0  3  0  0  0  0  0  0
  -21.7430   -6.9770   21.4560 O   0  0  0  0  0  0  0  0  0  0  0  0
  -21.6860   -6.2430   22.6140 C   0  0  0  0  0  0  0  0  0  0  0  0
  -21.2230   -6.7980   23.8280 C   0  0  0  0  0  3  0  0  0  0  0  0
  -21.1180   -5.9900   24.9770 C   0  0  0  0  0  3  0  0  0  0  0  0
  -21.4660   -4.6280   24.9150 C   0  0  0  0  0  0  0  0  0  0  0  0
  -21.9220   -4.0720   23.7070 C   0  0  0  0  0  3  0  0  0  0  0  0
  -22.0280   -4.8770   22.5600 C   0  0  0  0  0  0  0  0  0  0  0  0
  -22.4480   -4.3300   21.3930 F   0  0  0  0  0  0  0  0  0  0  0  0
  -21.3580   -3.8500   26.0170 F   0  0  0  0  0  0  0  0  0  0  0  0
  -22.8070  -13.6170   21.1260 C   0  0  0  0  0  0  0  0  0  0  0  0
  -22.0910  -12.9140   21.9980 N   0  0  0  0  0  0  0  0  0  0  0  0
  -22.3600  -14.6440   20.6140 O   0  0  0  0  0  0  0  0  0  0  0  0
  -22.4660  -12.0800   22.4240 H   0  0  0  0  0  0  0  0  0  0  0  0
  -21.1560  -13.2100   22.2390 H   0  0  0  0  0  0  0  0  0  0  0  0
  -25.4190  -15.2960   20.2830 N   0  0  0  0  0  0  0  0  0  0  0  0
  -24.6470  -15.9470   20.3860 H   0  0  0  0  0  0  0  0  0  0  0  0
  -26.2600  -15.7390   19.9340 H   0  0  0  0  0  0  0  0  0  0  0  0
  2  4  1  0
  3  7  1  0
  4  1  1  0
  5  3  1  0
  5  6  1  0
  5  1  1  0
  6  8  1  0
  6  2  1  0
  7 51  1  0
  7  4  1  0
  9 10  1  0
  9  8  2  0
 11 22  2  0
 12 10  1  0
 12 17  1  0
 13 21  1  0
 13 23  1  0
 14 20  1  0
 14 16  1  0
 15 21  1  0
 16 15  1  0
 17 16  2  0
 18 19  1  0
 18 12  2  0
 19 14  2  0
 20 13  1  0
 21 11  1  0
 23 25  2  0
 24 23  1  0
 26 24  1  0
 27 36  2  0
 27 32  1  0
 28 24  1  0
 28 32  1  0
 29 28  1  0
 30 31  1  0
 30 29  1  0
 31 27  1  0
 32 33  2  0
 33 34  1  0
 35 34  2  0
 36 35  1  0
 37 11  1  0
 37 42  1  0
 37 38  1  0
 38 41  1  1
 38 39  1  0
 40 38  1  0
 42 45  1  0
 43 47  1  0
 43 42  1  0
 44 43  2  0
 47 46  1  0
 49 50  1  0
 49 47  1  0
 49 48  1  0
 51 60  1  0
 52 60  1  0
 53 58  1  0
 54 55  1  0
 54 53  1  0
 56 55  1  0
 56 65  1  0
 56 57  1  0
 58 52  1  0
 58 57  1  0
 59 52  2  0
 60 61  1  0
 62 63  2  0
 63 82  1  0
 64 63  1  0
 64 67  1  0
 65 62  1  0
 65 66  1  0
 66 64  2  0
 67 68  1  0
 68 69  2  0
 70 73  1  0
 70 69  1  0
 71 70  2  0
 72 71  1  0
 72 67  2  0
 73 74  1  0
 74 75  1  0
 75 76  2  0
 77 76  1  0
 77 81  1  0
 78 77  2  0
 79 74  2  0
 79 78  1  0
 80 79  1  0
 82 83  1  0
 83 86  1  0
 83 85  1  0
 84 82  2  0
 87 88  1  0
 87 62  1  0
 89 87  1  0
M  ISO  4   9 101  10 101  52 100  60 100
M  END
>  <TORSDO>  (40) 
F 19

>  <SCORE>  (40) 
-14.132

>  <name>  (40) 
40

>  <ligand_id>  (40) 
40

>  <original_smiles>  (40) 
[H]c1c([H])c([H])c2c(c1[H])C([H])([H])C([H])([H])C([H])([H])C2([H])N([H])C(=O)C1([H])N(C(=O)C([H])(N([H])C(=O)C([H])(N([H])C([H])([H])[H])C([H])([H])[H])C(C([H])([H])[H])(C([H])([H])[H])C([H])([H])[H])C([H])([H])c2c([H])c(OC([H])([H])C([H])([H])C3([H])C([H])([H])C4([H])C([H])([H])C3([H])C([H])([H])C4([H])C([H])([H])N([H])C(=O)N3C([H])([H])C([H])([H])C([H])([H])C([H])(n4nc(-c5c([H])c([H])c(Oc6c([H])c([H])c(F)c([H])c6F)c([H])c5[H])c(C(=O)N([H])[H])c4N([H])[H])C3([H])[H])c([H])c([H])c2C1([H])[H]

>  <smiles>  (40) 
[H]c1c([H])c([H])c2c(c1[H])C([H])([H])C([H])([H])C([H])([H])C2([H])N([H])C(=O)C1([H])N(C(=O)C([H])(N([H])C(=O)C([H])(N([H])C([H])([H])[H])C([H])([H])[H])C(C([H])([H])[H])(C([H])([H])[H])C([H])([H])[H])C([H])([H])c2c([H])c(OC([H])([H])C([H])([H])C3([H])C([H])([H])C4([H])C([H])([H])C3([H])C([H])([H])C4([H])C([H])([H])N([H])C(=O)N3C([H])([H])C([H])([H])C([H])([H])C([H])(n4nc(-c5c([H])c([H])c(Oc6c([H])c([H])c(F)c([H])c6F)c([H])c5[H])c(C(=O)N([H])[H])c4N([H])[H])C3([H])[H])c([H])c([H])c2C1([H])[H]

$$$$
41:0:0
     RDKit          3D

 91100  0  0  1  0  0  0  0  0999 V2000
  -29.8550  -21.8460   22.0610 C   0  0  0  0  0  1  0  0  0  0  0  0
  -31.5980  -22.1000   20.3690 C   0  0  0  0  0  1  0  0  0  0  0  0
  -30.1460  -21.5770   20.5700 C   0  0  1  0  0  0  0  0  0  0  0  0
  -28.8640  -16.8920   21.0340 C   0  0  0  0  0  2  0  0  0  0  0  0
  -29.0410  -18.1330   21.9740 C   0  0  0  0  0  2  0  0  0  0  0  0
  -30.0400  -18.4290   19.3740 C   0  0  0  0  0  2  0  0  0  0  0  0
  -31.1100  -17.3760   21.1380 C   0  0  0  0  0  2  0  0  0  0  0  0
  -30.3520  -19.7360   20.4380 C   0  0  0  0  0  3  0  0  0  0  0  0
  -30.1150  -16.8780   20.1140 C   0  0  1  0  0  0  0  0  0  0  0  0
  -30.4570  -18.7000   21.6790 C   0  0  1  0  0  0  0  0  0  0  0  0
  -30.7080  -15.3320   19.5520 C   0  0  0  0  0  0  0  0  0  0  0  0
  -30.5440  -12.9370   18.5960 C   0  0  0  0  0  2  0  0  0  0  0  0
  -29.4870  -12.8700   17.4650 C   0  0  0  0  0  2  0  0  0  0  0  0
  -28.0780  -12.6230   18.0300 C   0  0  0  0  0  2  0  0  0  0  0  0
  -27.7950  -13.5000   19.2790 C   0  0  0  0  0  3  0  0  0  0  0  0
  -28.9720  -13.5030   20.2730 C   0  0  0  0  0  2  0  0  0  0  0  0
  -30.1480  -14.0270   19.5650 N   0  0  0  0  0  0  0  0  0  0  0  0
  -31.8320  -15.3410   19.0320 O   0  0  0  0  0  0  0  0  0  0  0  0
  -25.5380  -14.0350   20.3490 C   0  0  0  0  0  0  0  0  0  0  0  0
  -24.5200  -13.2480   20.8130 C   0  0  0  0  0  0  0  0  0  0  0  0
  -24.9550  -11.9000   20.6470 C   0  0  0  0  0  0  0  0  0  0  0  0
  -26.5290  -13.1670   19.9260 N   0  0  0  0  0  0  0  0  0  0  0  0
  -26.1960  -11.8720   20.1710 N   0  0  0  0  0  0  0  0  0  0  0  0
  -24.2370  -10.6350   20.8640 C   0  0  0  0  0  0  0  0  0  0  0  0
  -24.6760   -9.6920   21.8180 C   0  0  0  0  0  3  0  0  0  0  0  0
  -23.9640   -8.4910   22.0140 C   0  0  0  0  0  3  0  0  0  0  0  0
  -22.7960   -8.2220   21.2600 C   0  0  0  0  0  0  0  0  0  0  0  0
  -22.3740   -9.1520   20.2960 C   0  0  0  0  0  3  0  0  0  0  0  0
  -23.0910  -10.3490   20.0960 C   0  0  0  0  0  3  0  0  0  0  0  0
  -22.0580   -7.0660   21.3630 O   0  0  0  0  0  0  0  0  0  0  0  0
  -21.8570   -6.4420   22.5670 C   0  0  0  0  0  0  0  0  0  0  0  0
  -21.2660   -7.1140   23.6600 C   0  0  0  0  0  3  0  0  0  0  0  0
  -21.0120   -6.4180   24.8620 C   0  0  0  0  0  3  0  0  0  0  0  0
  -21.3410   -5.0510   24.9680 C   0  0  0  0  0  0  0  0  0  0  0  0
  -21.9240   -4.3830   23.8780 C   0  0  0  0  0  3  0  0  0  0  0  0
  -22.1750   -5.0740   22.6810 C   0  0  0  0  0  0  0  0  0  0  0  0
  -22.7180   -4.4190   21.6270 F   0  0  0  0  0  0  0  0  0  0  0  0
  -21.0940   -4.3820   26.1180 F   0  0  0  0  0  0  0  0  0  0  0  0
  -23.1760  -13.7210   21.2860 C   0  0  0  0  0  0  0  0  0  0  0  0
  -22.5600  -12.9990   22.2220 N   0  0  0  0  0  0  0  0  0  0  0  0
  -22.6730  -14.7530   20.8500 O   0  0  0  0  0  0  0  0  0  0  0  0
  -22.9770  -12.1680   22.6090 H   0  0  0  0  0  0  0  0  0  0  0  0
  -21.6510  -13.2940   22.5520 H   0  0  0  0  0  0  0  0  0  0  0  0
  -25.6960  -15.4110   20.2340 N   0  0  0  0  0  0  0  0  0  0  0  0
  -24.9790  -16.0660   20.5240 H   0  0  0  0  0  0  0  0  0  0  0  0
  -26.4940  -15.8650   19.8070 H   0  0  0  0  0  0  0  0  0  0  0  0
  -32.7040  -19.5780   22.7730 C   0  0  0  0  0  1  0  0  0  0  0  0
  -31.2790  -19.0080   22.9810 C   0  0  0  0  0  2  0  0  0  0  0  0
  -29.2720  -22.9280   19.7780 C   0  0  0  0  0  2  0  0  0  0  0  0
  -28.6300  -24.5310   20.3250 C   0  0  0  0  0  2  0  0  0  0  0  0
  -28.6760  -26.1230   19.9290 O   0  0  0  0  0  0  0  0  0  0  0  0
  -24.5570  -31.7140   22.8930 C   0  0  0  0  0  0  0  0  0  0  0  0
  -27.5610  -27.1080   19.9130 C   0  0  0  0  0  0  0  0  0  0  0  0
  -23.5240  -30.2970   21.1660 C   0  0  0  0  0  3  0  0  0  0  0  0
  -25.1370  -28.8140   19.7850 C   0  0  0  0  0  0  0  0  0  0  0  0
  -26.0750  -30.6780   21.1390 C   0  0  0  0  0  2  0  0  0  0  0  0
  -26.2670  -29.2930   20.4590 C   0  0  0  0  0  0  0  0  0  0  0  0
  -27.4750  -28.4650   20.4910 C   0  0  0  0  0  3  0  0  0  0  0  0
  -26.3930  -26.7700   19.1900 C   0  0  0  0  0  3  0  0  0  0  0  0
  -25.2240  -27.5720   19.1280 C   0  0  0  0  0  3  0  0  0  0  0  0
  -23.8590  -29.6520   19.7920 C   0  0  0  0  0  2  0  0  0  0  0  0
  -24.7360  -30.9200   21.7900 N   0  0  0  0  0  0  0  0  0  0  0  0
  -23.4300  -31.9300   23.3650 O   0  0  0  0  0  0  0  0  0  0  0  0
  -22.8400  -29.2440   22.0780 C   0  0  0  0  0  0  0  0  0  0  0  0
  -21.5240  -29.0250   21.8940 N   0  0  0  0  0  0  0  0  0  0  0  0
  -23.5020  -28.6210   22.9120 O   0  0  0  0  0  0  0  0  0  0  0  0
  -21.0460  -29.5760   21.1940 H   0  0  0  0  0  0  0  0  0  0  0  0
  -18.1720  -27.6730   22.2490 C   0  0  0  0  0  0  0  0  0  0  0  0
  -20.7120  -28.0260   22.5970 C   0  0  0  0  0  3  0  0  0  0  0  0
  -20.8880  -26.6260   21.9650 C   0  0  0  0  0  2  0  0  0  0  0  0
  -19.8270  -26.3070   20.9090 C   0  0  0  0  0  2  0  0  0  0  0  0
  -18.4210  -26.3670   21.5170 C   0  0  0  0  0  2  0  0  0  0  0  0
  -19.2470  -28.4610   22.7420 C   0  0  0  0  0  0  0  0  0  0  0  0
  -18.9580  -29.6840   23.3880 C   0  0  0  0  0  3  0  0  0  0  0  0
  -17.6290  -30.1210   23.5410 C   0  0  0  0  0  3  0  0  0  0  0  0
  -16.5700  -29.3310   23.0640 C   0  0  0  0  0  3  0  0  0  0  0  0
  -16.8420  -28.1060   22.4260 C   0  0  0  0  0  3  0  0  0  0  0  0
  -25.7600  -32.4070   23.6070 C   0  0  0  0  0  3  0  0  0  0  0  0
  -26.2350  -31.6380   24.9000 C   0  0  1  0  0  0  0  0  0  0  0  0
  -25.0850  -31.2990   25.8790 C   0  0  0  0  0  1  0  0  0  0  0  0
  -26.9340  -30.3110   24.5250 C   0  0  0  0  0  1  0  0  0  0  0  0
  -27.2840  -32.4850   25.6600 C   0  0  0  0  0  1  0  0  0  0  0  0
  -25.3560  -33.7820   23.9510 N   0  0  0  0  0  0  0  0  0  0  0  0
  -25.6730  -34.8740   23.2410 C   0  0  0  0  0  0  0  0  0  0  0  0
  -26.3970  -34.8310   22.2410 O   0  0  0  0  0  0  0  0  0  0  0  0
  -24.7120  -33.8880   24.7200 H   0  0  0  0  0  0  0  0  0  0  0  0
  -23.8770  -36.5950   22.8570 C   0  0  0  0  0  1  0  0  0  0  0  0
  -25.1030  -36.2280   23.7100 C   0  0  0  0  0  3  0  0  0  0  0  0
  -27.1490  -37.1930   24.6660 C   0  0  0  0  0  1  0  0  0  0  0  0
  -26.0900  -37.3300   23.6690 N   0  0  0  0  0  0  0  0  0  0  0  0
  -25.6370  -38.2290   23.8110 H   0  0  0  0  0  0  0  0  0  0  0  0
  3  2  1  1
  3  1  1  0
  4  5  1  0
  6  9  1  0
  6  8  1  0
  7 10  1  0
  8  3  1  0
  8 10  1  0
  9 11  1  6
  9  4  1  0
  9  7  1  0
 10  5  1  0
 10 48  1  1
 11 17  1  0
 12 17  1  0
 13 14  1  0
 13 12  1  0
 15 14  1  0
 15 22  1  0
 15 16  1  0
 17 16  1  0
 18 11  2  0
 19 20  2  0
 20 39  1  0
 21 20  1  0
 21 24  1  0
 22 23  1  0
 22 19  1  0
 23 21  2  0
 24 25  1  0
 25 26  2  0
 27 30  1  0
 27 26  1  0
 28 27  2  0
 29 28  1  0
 29 24  2  0
 30 31  1  0
 31 36  2  0
 31 32  1  0
 32 33  2  0
 33 34  1  0
 34 38  1  0
 35 34  2  0
 36 35  1  0
 37 36  1  0
 39 40  1  0
 40 43  1  0
 40 42  1  0
 41 39  2  0
 44 19  1  0
 44 45  1  0
 46 44  1  0
 47 48  1  0
 49 50  1  0
 49  3  1  0
 51 50  1  0
 52 63  2  0
 53 51  1  0
 53 58  1  0
 54 62  1  0
 54 64  1  0
 55 61  1  0
 55 57  1  0
 56 62  1  0
 57 58  2  0
 57 56  1  0
 59 53  2  0
 60 59  1  0
 60 55  2  0
 61 54  1  0
 62 52  1  0
 64 66  2  0
 65 64  1  0
 67 65  1  0
 68 77  2  0
 68 73  1  0
 69 65  1  0
 69 73  1  0
 70 69  1  0
 71 72  1  0
 71 70  1  0
 72 68  1  0
 73 74  2  0
 74 75  1  0
 76 75  2  0
 77 76  1  0
 78 52  1  0
 78 83  1  0
 78 79  1  0
 79 82  1  1
 79 80  1  0
 81 79  1  0
 83 86  1  0
 84 88  1  0
 84 83  1  0
 85 84  2  0
 88 87  1  0
 90 88  1  0
 90 91  1  0
 90 89  1  0
M  ISO  4   9 100  11 100  50 101  51 101
M  END
>  <TORSDO>  (41) 
F 20

>  <SCORE>  (41) 
-11.884

>  <name>  (41) 
41

>  <ligand_id>  (41) 
41

>  <original_smiles>  (41) 
[H]c1c([H])c([H])c2c(c1[H])C([H])([H])C([H])([H])C([H])([H])C2([H])N([H])C(=O)C1([H])N(C(=O)C([H])(N([H])C(=O)C([H])(N([H])C([H])([H])[H])C([H])([H])[H])C(C([H])([H])[H])(C([H])([H])[H])C([H])([H])[H])C([H])([H])c2c([H])c(OC([H])([H])C([H])([H])C(C([H])([H])[H])(C([H])([H])[H])C3([H])C([H])([H])C4(C(=O)N5C([H])([H])C([H])([H])C([H])([H])C([H])(n6nc(-c7c([H])c([H])c(Oc8c([H])c([H])c(F)c([H])c8F)c([H])c7[H])c(C(=O)N([H])[H])c6N([H])[H])C5([H])[H])C([H])([H])C([H])([H])C3(C([H])([H])C([H])([H])[H])C4([H])[H])c([H])c([H])c2C1([H])[H]

>  <smiles>  (41) 
[H]c1c([H])c([H])c2c(c1[H])C([H])([H])C([H])([H])C([H])([H])C2([H])N([H])C(=O)C1([H])N(C(=O)C([H])(N([H])C(=O)C([H])(N([H])C([H])([H])[H])C([H])([H])[H])C(C([H])([H])[H])(C([H])([H])[H])C([H])([H])[H])C([H])([H])c2c([H])c(OC([H])([H])C([H])([H])C(C([H])([H])[H])(C([H])([H])[H])C3([H])C([H])([H])C4(C(=O)N5C([H])([H])C([H])([H])C([H])([H])C([H])(n6nc(-c7c([H])c([H])c(Oc8c([H])c([H])c(F)c([H])c8F)c([H])c7[H])c(C(=O)N([H])[H])c6N([H])[H])C5([H])[H])C([H])([H])C([H])([H])C3(C([H])([H])C([H])([H])[H])C4([H])[H])c([H])c([H])c2C1([H])[H]

$$$$
42:0:0
     RDKit          3D

 96105  0  0  1  0  0  0  0  0999 V2000
  -28.1560  -22.0420   20.2270 C   0  0  0  0  0  2  0  0  0  0  0  0
  -29.4210  -22.7840   22.3030 C   0  0  0  0  0  2  0  0  0  0  0  0
  -27.2880  -23.2600   20.6170 C   0  0  0  0  0  2  0  0  0  0  0  0
  -29.3060  -24.2560   21.8510 C   0  0  0  0  0  2  0  0  0  0  0  0
  -29.4290  -21.8270   21.0920 C   0  0  0  0  0  3  0  0  0  0  0  0
  -28.0610  -24.5530   20.9700 C   0  0  0  0  0  3  0  0  0  0  0  0
  -29.7150  -20.3530   21.5250 C   0  0  0  0  0  2  0  0  0  0  0  0
  -30.3080  -19.4060   20.4340 C   0  0  0  0  0  3  0  0  0  0  0  0
  -27.5150  -18.8080   17.1430 C   0  0  0  0  0  3  0  0  0  0  0  0
  -28.8310  -19.2360   16.8890 C   0  0  0  0  0  3  0  0  0  0  0  0
  -27.1100  -18.5350   18.4640 C   0  0  0  0  0  3  0  0  0  0  0  0
  -29.7370  -19.4020   17.9550 C   0  0  0  0  0  3  0  0  0  0  0  0
  -28.0220  -18.6840   19.5270 C   0  0  0  0  0  3  0  0  0  0  0  0
  -29.3380  -19.1370   19.2830 C   0  0  0  0  0  0  0  0  0  0  0  0
  -31.0070  -18.1180   20.9880 C   0  0  0  0  0  2  0  0  0  0  0  0
  -30.1780  -16.8140   21.1590 C   0  0  0  0  0  2  0  0  0  0  0  0
  -31.5170  -14.7460   20.8400 C   0  0  0  0  0  0  0  0  0  0  0  0
  -31.1820  -12.6050   19.6550 C   0  0  0  0  0  2  0  0  0  0  0  0
  -30.3390  -12.8150   18.3820 C   0  0  0  0  0  2  0  0  0  0  0  0
  -28.8350  -12.7400   18.7060 C   0  0  0  0  0  2  0  0  0  0  0  0
  -28.4430  -13.6250   19.9200 C   0  0  0  0  0  3  0  0  0  0  0  0
  -29.4010  -13.3950   21.1080 C   0  0  0  0  0  2  0  0  0  0  0  0
  -30.7770  -13.6230   20.6380 N   0  0  0  0  0  0  0  0  0  0  0  0
  -32.6430  -14.9020   20.3630 O   0  0  0  0  0  0  0  0  0  0  0  0
  -30.9960  -15.6850   21.6440 N   0  0  0  0  0  0  0  0  0  0  0  0
  -31.7050  -16.0270   22.2760 H   0  0  0  0  0  0  0  0  0  0  0  0
  -26.0410  -14.3560   20.4760 C   0  0  0  0  0  0  0  0  0  0  0  0
  -24.9100  -13.6430   20.7670 C   0  0  0  0  0  0  0  0  0  0  0  0
  -25.2980  -12.2690   20.7510 C   0  0  0  0  0  0  0  0  0  0  0  0
  -27.0500  -13.4210   20.3050 N   0  0  0  0  0  0  0  0  0  0  0  0
  -26.6010  -12.1600   20.5260 N   0  0  0  0  0  0  0  0  0  0  0  0
  -24.4930  -11.0480   20.8760 C   0  0  0  0  0  0  0  0  0  0  0  0
  -24.7970  -10.0590   21.8360 C   0  0  0  0  0  3  0  0  0  0  0  0
  -23.9970   -8.9020   21.9500 C   0  0  0  0  0  3  0  0  0  0  0  0
  -22.8770   -8.7270   21.1030 C   0  0  0  0  0  0  0  0  0  0  0  0
  -22.5920   -9.7060   20.1340 C   0  0  0  0  0  3  0  0  0  0  0  0
  -23.3930  -10.8530   20.0180 C   0  0  0  0  0  3  0  0  0  0  0  0
  -22.0590   -7.6240   21.1250 O   0  0  0  0  0  0  0  0  0  0  0  0
  -21.8430   -6.9120   22.2770 C   0  0  0  0  0  0  0  0  0  0  0  0
  -21.2920   -7.5120   23.4320 C   0  0  0  0  0  3  0  0  0  0  0  0
  -21.0210   -6.7270   24.5710 C   0  0  0  0  0  3  0  0  0  0  0  0
  -21.2890   -5.3450   24.5550 C   0  0  0  0  0  0  0  0  0  0  0  0
  -21.8300   -4.7460   23.4040 C   0  0  0  0  0  3  0  0  0  0  0  0
  -22.1030   -5.5270   22.2670 C   0  0  0  0  0  0  0  0  0  0  0  0
  -22.6050   -4.9400   21.1540 F   0  0  0  0  0  0  0  0  0  0  0  0
  -21.0210   -4.5910   25.6470 F   0  0  0  0  0  0  0  0  0  0  0  0
  -23.5250  -14.1970   20.9500 C   0  0  0  0  0  0  0  0  0  0  0  0
  -22.7070  -13.5470   21.7690 N   0  0  0  0  0  0  0  0  0  0  0  0
  -23.1780  -15.2400   20.3990 O   0  0  0  0  0  0  0  0  0  0  0  0
  -22.9980  -12.7020   22.2400 H   0  0  0  0  0  0  0  0  0  0  0  0
  -21.7760  -13.9030   21.9320 H   0  0  0  0  0  0  0  0  0  0  0  0
  -26.2860  -15.7120   20.3230 N   0  0  0  0  0  0  0  0  0  0  0  0
  -25.5330  -16.3890   20.3410 H   0  0  0  0  0  0  0  0  0  0  0  0
  -27.1630  -16.1170   20.0190 H   0  0  0  0  0  0  0  0  0  0  0  0
  -28.3720  -25.4590   19.7440 C   0  0  0  0  0  2  0  0  0  0  0  0
  -28.3390  -26.8580   20.0730 O   0  0  0  0  0  0  0  0  0  0  0  0
  -24.5230  -31.9720   23.2170 C   0  0  0  0  0  0  0  0  0  0  0  0
  -27.1380  -27.5450   20.0810 C   0  0  0  0  0  0  0  0  0  0  0  0
  -23.2990  -30.5830   21.5770 C   0  0  0  0  0  3  0  0  0  0  0  0
  -24.7370  -29.0530   20.1310 C   0  0  0  0  0  0  0  0  0  0  0  0
  -25.8230  -30.9430   21.3550 C   0  0  0  0  0  2  0  0  0  0  0  0
  -25.9010  -29.5760   20.7050 C   0  0  0  0  0  0  0  0  0  0  0  0
  -27.1030  -28.8320   20.6710 C   0  0  0  0  0  3  0  0  0  0  0  0
  -25.9450  -27.0320   19.5180 C   0  0  0  0  0  3  0  0  0  0  0  0
  -24.7530  -27.7820   19.5360 C   0  0  0  0  0  3  0  0  0  0  0  0
  -23.4950  -29.9120   20.1920 C   0  0  0  0  0  2  0  0  0  0  0  0
  -24.5670  -31.1800   22.1080 N   0  0  0  0  0  0  0  0  0  0  0  0
  -23.4470  -32.2400   23.7700 O   0  0  0  0  0  0  0  0  0  0  0  0
  -22.6560  -29.5550   22.5370 C   0  0  0  0  0  0  0  0  0  0  0  0
  -21.3390  -29.3390   22.3900 N   0  0  0  0  0  0  0  0  0  0  0  0
  -23.3420  -28.9540   23.3700 O   0  0  0  0  0  0  0  0  0  0  0  0
  -20.8450  -29.8810   21.6950 H   0  0  0  0  0  0  0  0  0  0  0  0
  -18.0000  -28.0210   22.8000 C   0  0  0  0  0  0  0  0  0  0  0  0
  -20.5350  -28.3860   23.1540 C   0  0  0  0  0  3  0  0  0  0  0  0
  -20.7110  -26.9470   22.6200 C   0  0  0  0  0  2  0  0  0  0  0  0
  -19.6620  -26.5560   21.5750 C   0  0  0  0  0  2  0  0  0  0  0  0
  -18.2540  -26.6630   22.1670 C   0  0  0  0  0  2  0  0  0  0  0  0
  -19.0730  -28.8360   23.2490 C   0  0  0  0  0  0  0  0  0  0  0  0
  -18.7860  -30.1050   23.7970 C   0  0  0  0  0  3  0  0  0  0  0  0
  -17.4580  -30.5600   23.9010 C   0  0  0  0  0  3  0  0  0  0  0  0
  -16.4000  -29.7430   23.4700 C   0  0  0  0  0  3  0  0  0  0  0  0
  -16.6720  -28.4740   22.9260 C   0  0  0  0  0  3  0  0  0  0  0  0
  -25.8170  -32.5970   23.8280 C   0  0  0  0  0  3  0  0  0  0  0  0
  -25.5160  -33.9960   24.1630 N   0  0  0  0  0  0  0  0  0  0  0  0
  -25.8320  -35.0460   23.3940 C   0  0  0  0  0  0  0  0  0  0  0  0
  -26.4800  -34.9400   22.3480 O   0  0  0  0  0  0  0  0  0  0  0  0
  -24.9400  -34.1520   24.9770 H   0  0  0  0  0  0  0  0  0  0  0  0
  -24.0850  -36.8290   23.0820 C   0  0  0  0  0  1  0  0  0  0  0  0
  -25.3520  -36.4340   23.8580 C   0  0  0  0  0  3  0  0  0  0  0  0
  -27.5050  -37.3370   24.6230 C   0  0  0  0  0  1  0  0  0  0  0  0
  -26.3770  -37.4910   23.7080 N   0  0  0  0  0  0  0  0  0  0  0  0
  -25.9700  -38.4100   23.8590 H   0  0  0  0  0  0  0  0  0  0  0  0
  -26.3450  -31.8210   25.0950 C   0  0  1  0  0  0  0  0  0  0  0  0
  -25.2570  -31.5570   26.1620 C   0  0  0  0  0  1  0  0  0  0  0  0
  -26.9490  -30.4560   24.6880 C   0  0  0  0  0  1  0  0  0  0  0  0
  -27.4860  -32.6240   25.7660 C   0  0  0  0  0  1  0  0  0  0  0  0
  1  3  1  0
  1  5  1  0
  3  6  1  0
  4  2  1  0
  5  7  1  0
  5  2  1  0
  6 55  1  0
  6  4  1  0
  8 15  1  0
  8  7  1  0
  9 11  1  0
 10  9  2  0
 10 12  1  0
 11 13  2  0
 12 14  2  0
 14 13  1  0
 14  8  1  0
 15 16  1  0
 16 25  1  0
 17 25  1  0
 18 23  1  0
 19 20  1  0
 19 18  1  0
 21 20  1  0
 21 30  1  0
 21 22  1  0
 23 17  1  0
 23 22  1  0
 24 17  2  0
 25 26  1  0
 27 28  2  0
 28 47  1  0
 29 28  1  0
 29 32  1  0
 30 27  1  0
 30 31  1  0
 31 29  2  0
 32 33  1  0
 33 34  2  0
 35 38  1  0
 35 34  1  0
 36 35  2  0
 37 36  1  0
 37 32  2  0
 38 39  1  0
 39 40  1  0
 40 41  2  0
 42 41  1  0
 42 46  1  0
 43 42  2  0
 44 39  2  0
 44 43  1  0
 45 44  1  0
 47 48  1  0
 48 51  1  0
 48 50  1  0
 49 47  2  0
 52 53  1  0
 52 27  1  0
 54 52  1  0
 55 56  1  0
 56 58  1  0
 57 68  2  0
 58 63  1  0
 59 67  1  0
 59 69  1  0
 60 66  1  0
 60 62  1  0
 61 67  1  0
 62 61  1  0
 63 62  2  0
 64 65  1  0
 64 58  2  0
 65 60  2  0
 66 59  1  0
 67 57  1  0
 69 71  2  0
 70 69  1  0
 72 70  1  0
 73 82  2  0
 73 78  1  0
 74 70  1  0
 74 78  1  0
 75 74  1  0
 76 77  1  0
 76 75  1  0
 77 73  1  0
 78 79  2  0
 79 80  1  0
 81 80  2  0
 82 81  1  0
 83 57  1  0
 83 84  1  0
 83 93  1  0
 84 87  1  0
 85 89  1  0
 85 84  1  0
 86 85  2  0
 89 88  1  0
 91 89  1  0
 91 92  1  0
 91 90  1  0
 93 96  1  1
 93 94  1  0
 95 93  1  0
M  ISO  4  17 100  25 100  55 101  56 101
M  END
>  <TORSDO>  (42) 
F 22

>  <SCORE>  (42) 
-12.588

>  <name>  (42) 
42

>  <ligand_id>  (42) 
42

>  <original_smiles>  (42) 
[H]c1c([H])c([H])c(C([H])(C([H])([H])C([H])([H])N([H])C(=O)N2C([H])([H])C([H])([H])C([H])([H])C([H])(n3nc(-c4c([H])c([H])c(Oc5c([H])c([H])c(F)c([H])c5F)c([H])c4[H])c(C(=O)N([H])[H])c3N([H])[H])C2([H])[H])C([H])([H])C2([H])C([H])([H])C([H])([H])C([H])(C([H])([H])Oc3c([H])c([H])c4c(c3[H])C([H])([H])N(C(=O)C([H])(N([H])C(=O)C([H])(N([H])C([H])([H])[H])C([H])([H])[H])C(C([H])([H])[H])(C([H])([H])[H])C([H])([H])[H])C([H])(C(=O)N([H])C3([H])c5c([H])c([H])c([H])c([H])c5C([H])([H])C([H])([H])C3([H])[H])C4([H])[H])C([H])([H])C2([H])[H])c([H])c1[H]

>  <smiles>  (42) 
[H]c1c([H])c([H])c(C([H])(C([H])([H])C([H])([H])N([H])C(=O)N2C([H])([H])C([H])([H])C([H])([H])C([H])(n3nc(-c4c([H])c([H])c(Oc5c([H])c([H])c(F)c([H])c5F)c([H])c4[H])c(C(=O)N([H])[H])c3N([H])[H])C2([H])[H])C([H])([H])C2([H])C([H])([H])C([H])([H])C([H])(C([H])([H])Oc3c([H])c([H])c4c(c3[H])C([H])([H])N(C(=O)C([H])(N([H])C(=O)C([H])(N([H])C([H])([H])[H])C([H])([H])[H])C(C([H])([H])[H])(C([H])([H])[H])C([H])([H])[H])C([H])(C(=O)N([H])C3([H])c5c([H])c([H])c([H])c([H])c5C([H])([H])C([H])([H])C3([H])[H])C4([H])[H])C([H])([H])C2([H])[H])c([H])c1[H]

$$$$
43:0:0
     RDKit          3D

 89 97  0  0  1  0  0  0  0  0999 V2000
  -29.7980  -19.2580   22.2420 C   0  0  0  0  0  2  0  0  0  0  0  0
  -28.9210  -20.3450   21.5700 C   0  0  0  0  0  2  0  0  0  0  0  0
  -30.9660  -18.8760   21.3030 C   0  0  0  0  0  2  0  0  0  0  0  0
  -29.5160  -20.5830   20.1820 C   0  0  0  0  0  0  0  0  0  0  0  0
  -30.3520  -18.8680   19.8770 C   0  0  2  0  0  0  0  0  0  0  0  0
  -30.7230  -15.7790   19.7600 C   0  0  0  0  0  0  0  0  0  0  0  0
  -30.7180  -13.2680   18.9090 C   0  0  0  0  0  2  0  0  0  0  0  0
  -29.7500  -12.8990   17.7490 C   0  0  0  0  0  2  0  0  0  0  0  0
  -28.3490  -12.5690   18.2830 C   0  0  0  0  0  2  0  0  0  0  0  0
  -27.9140  -13.5600   19.3860 C   0  0  0  0  0  3  0  0  0  0  0  0
  -29.0140  -13.8470   20.4380 C   0  0  0  0  0  2  0  0  0  0  0  0
  -30.1570  -14.4400   19.7110 N   0  0  0  0  0  0  0  0  0  0  0  0
  -31.9460  -15.7000   19.5510 O   0  0  0  0  0  0  0  0  0  0  0  0
  -30.0080  -17.1460   19.8480 N   0  0  0  0  0  0  0  0  0  0  0  0
  -29.0110  -17.0000   19.9010 H   0  0  0  0  0  0  0  0  0  0  0  0
  -25.6010  -14.0860   20.3000 C   0  0  0  0  0  0  0  0  0  0  0  0
  -24.5600  -13.3010   20.7050 C   0  0  0  0  0  0  0  0  0  0  0  0
  -25.0210  -11.9510   20.6160 C   0  0  0  0  0  0  0  0  0  0  0  0
  -26.6270  -13.2190   19.9770 N   0  0  0  0  0  0  0  0  0  0  0  0
  -26.2970  -11.9250   20.2360 N   0  0  0  0  0  0  0  0  0  0  0  0
  -24.3010  -10.6870   20.8120 C   0  0  0  0  0  0  0  0  0  0  0  0
  -24.7170   -9.7350   21.7690 C   0  0  0  0  0  3  0  0  0  0  0  0
  -23.9900   -8.5400   21.9570 C   0  0  0  0  0  3  0  0  0  0  0  0
  -22.8290   -8.2860   21.1870 C   0  0  0  0  0  0  0  0  0  0  0  0
  -22.4300   -9.2270   20.2210 C   0  0  0  0  0  3  0  0  0  0  0  0
  -23.1580  -10.4130   20.0320 C   0  0  0  0  0  3  0  0  0  0  0  0
  -22.0760   -7.1400   21.2820 O   0  0  0  0  0  0  0  0  0  0  0  0
  -21.9410   -6.4620   22.4660 C   0  0  0  0  0  0  0  0  0  0  0  0
  -21.3630   -7.0630   23.6060 C   0  0  0  0  0  3  0  0  0  0  0  0
  -21.1810   -6.3110   24.7820 C   0  0  0  0  0  3  0  0  0  0  0  0
  -21.5620   -4.9590   24.8210 C   0  0  0  0  0  0  0  0  0  0  0  0
  -22.1340   -4.3540   23.6860 C   0  0  0  0  0  3  0  0  0  0  0  0
  -22.3180   -5.1060   22.5110 C   0  0  0  0  0  0  0  0  0  0  0  0
  -22.8480   -4.5130   21.4130 F   0  0  0  0  0  0  0  0  0  0  0  0
  -21.3800   -4.2330   25.9480 F   0  0  0  0  0  0  0  0  0  0  0  0
  -23.1810  -13.7770   21.0530 C   0  0  0  0  0  0  0  0  0  0  0  0
  -22.4970  -13.0700   21.9450 N   0  0  0  0  0  0  0  0  0  0  0  0
  -22.7200  -14.8100   20.5700 O   0  0  0  0  0  0  0  0  0  0  0  0
  -22.8830  -12.2320   22.3550 H   0  0  0  0  0  0  0  0  0  0  0  0
  -21.5740  -13.3710   22.2240 H   0  0  0  0  0  0  0  0  0  0  0  0
  -25.7540  -15.4610   20.1470 N   0  0  0  0  0  0  0  0  0  0  0  0
  -24.9980  -16.1130   20.3280 H   0  0  0  0  0  0  0  0  0  0  0  0
  -26.5770  -15.9090   19.7630 H   0  0  0  0  0  0  0  0  0  0  0  0
  -31.3860  -19.0780   18.7560 C   0  0  0  0  0  0  0  0  0  0  0  0
  -30.8450  -19.1730   17.3370 C   0  0  0  0  0  1  0  0  0  0  0  0
  -32.5990  -19.1440   18.9730 O   0  0  0  0  0  0  0  0  0  0  0  0
  -29.3200  -22.4050   19.5810 C   0  0  0  0  0  3  0  0  0  0  0  0
  -28.4070  -24.0480   19.9840 C   0  0  0  0  0  2  0  0  0  0  0  0
  -28.4860  -25.7790   19.7770 O   0  0  0  0  0  0  0  0  0  0  0  0
  -24.7800  -31.7890   22.9950 C   0  0  0  0  0  0  0  0  0  0  0  0
  -27.4450  -26.9190   19.8320 C   0  0  0  0  0  0  0  0  0  0  0  0
  -23.6200  -30.4050   21.3290 C   0  0  0  0  0  3  0  0  0  0  0  0
  -25.1030  -28.8460   19.8620 C   0  0  0  0  0  0  0  0  0  0  0  0
  -26.1920  -30.6400   21.1860 C   0  0  0  0  0  2  0  0  0  0  0  0
  -26.2950  -29.2330   20.4870 C   0  0  0  0  0  0  0  0  0  0  0  0
  -27.4520  -28.3000   20.4380 C   0  0  0  0  0  3  0  0  0  0  0  0
  -26.2080  -26.7250   19.1680 C   0  0  0  0  0  3  0  0  0  0  0  0
  -25.0910  -27.6130   19.1890 C   0  0  0  0  0  3  0  0  0  0  0  0
  -23.8670  -29.7530   19.9400 C   0  0  0  0  0  2  0  0  0  0  0  0
  -24.8870  -30.9760   21.8910 N   0  0  0  0  0  0  0  0  0  0  0  0
  -23.6840  -32.0400   23.5260 O   0  0  0  0  0  0  0  0  0  0  0  0
  -22.9420  -29.3760   22.2770 C   0  0  0  0  0  0  0  0  0  0  0  0
  -21.6130  -29.1990   22.1670 N   0  0  0  0  0  0  0  0  0  0  0  0
  -23.6250  -28.7360   23.0810 O   0  0  0  0  0  0  0  0  0  0  0  0
  -21.1120  -29.7660   21.4970 H   0  0  0  0  0  0  0  0  0  0  0  0
  -18.2520  -27.9320   22.7240 C   0  0  0  0  0  0  0  0  0  0  0  0
  -20.8170  -28.2200   22.9210 C   0  0  0  0  0  3  0  0  0  0  0  0
  -20.9160  -26.8160   22.2780 C   0  0  0  0  0  2  0  0  0  0  0  0
  -19.7870  -26.5280   21.2830 C   0  0  0  0  0  2  0  0  0  0  0  0
  -18.4250  -26.6210   21.9750 C   0  0  0  0  0  2  0  0  0  0  0  0
  -19.3760  -28.6900   23.1540 C   0  0  0  0  0  0  0  0  0  0  0  0
  -19.1580  -29.9140   23.8220 C   0  0  0  0  0  3  0  0  0  0  0  0
  -17.8530  -30.3820   24.0620 C   0  0  0  0  0  3  0  0  0  0  0  0
  -16.7450  -29.6220   23.6490 C   0  0  0  0  0  3  0  0  0  0  0  0
  -16.9460  -28.3970   22.9850 C   0  0  0  0  0  3  0  0  0  0  0  0
  -26.0290  -32.4570   23.6470 C   0  0  0  0  0  3  0  0  0  0  0  0
  -26.5570  -31.6790   24.9170 C   0  0  1  0  0  0  0  0  0  0  0  0
  -25.4600  -31.3840   25.9700 C   0  0  0  0  0  1  0  0  0  0  0  0
  -27.1840  -30.3260   24.5140 C   0  0  0  0  0  1  0  0  0  0  0  0
  -27.6800  -32.4940   25.6020 C   0  0  0  0  0  1  0  0  0  0  0  0
  -25.6670  -33.8380   24.0220 N   0  0  0  0  0  0  0  0  0  0  0  0
  -25.9760  -34.9360   23.3190 C   0  0  0  0  0  0  0  0  0  0  0  0
  -26.6490  -34.8950   22.2870 O   0  0  0  0  0  0  0  0  0  0  0  0
  -25.0630  -33.9420   24.8250 H   0  0  0  0  0  0  0  0  0  0  0  0
  -24.2020  -36.7100   23.0530 C   0  0  0  0  0  1  0  0  0  0  0  0
  -25.4560  -36.2940   23.8400 C   0  0  0  0  0  3  0  0  0  0  0  0
  -27.5630  -37.2040   24.7130 C   0  0  0  0  0  1  0  0  0  0  0  0
  -26.4610  -37.3770   23.7730 N   0  0  0  0  0  0  0  0  0  0  0  0
  -26.0280  -38.2790   23.9560 H   0  0  0  0  0  0  0  0  0  0  0  0
  2  1  1  0
  3  1  1  0
  4  2  1  0
  5 44  1  0
  5  4  1  0
  5  3  1  0
  6 14  1  0
  7 12  1  0
  8  9  1  0
  8  7  1  0
 10  9  1  0
 10 19  1  0
 10 11  1  0
 12  6  1  0
 12 11  1  0
 13  6  2  0
  5 14  1  6
 14 15  1  0
 16 17  2  0
 17 36  1  0
 18 17  1  0
 18 21  1  0
 19 20  1  0
 19 16  1  0
 20 18  2  0
 21 22  1  0
 22 23  2  0
 24 27  1  0
 24 23  1  0
 25 24  2  0
 26 25  1  0
 26 21  2  0
 27 28  1  0
 28 33  2  0
 28 29  1  0
 29 30  2  0
 30 31  1  0
 31 35  1  0
 32 31  2  0
 33 32  1  0
 34 33  1  0
 36 37  1  0
 37 40  1  0
 37 39  1  0
 38 36  2  0
 41 16  1  0
 41 42  1  0
 43 41  1  0
 44 46  2  0
 45 44  1  0
 47 48  1  0
 47  4  2  0
 49 51  1  0
 49 48  1  0
 50 61  2  0
 51 56  1  0
 52 60  1  0
 52 62  1  0
 53 59  1  0
 53 55  1  0
 54 60  1  0
 55 54  1  0
 56 55  2  0
 57 58  1  0
 57 51  2  0
 58 53  2  0
 59 52  1  0
 60 50  1  0
 62 64  2  0
 63 62  1  0
 65 63  1  0
 66 75  2  0
 66 71  1  0
 67 63  1  0
 67 71  1  0
 68 67  1  0
 69 70  1  0
 69 68  1  0
 70 66  1  0
 71 72  2  0
 72 73  1  0
 74 73  2  0
 75 74  1  0
 76 50  1  0
 76 81  1  0
 76 77  1  0
 77 80  1  1
 77 78  1  0
 79 77  1  0
 81 84  1  0
 82 86  1  0
 82 81  1  0
 83 82  2  0
 86 85  1  0
 88 86  1  0
 88 89  1  0
 88 87  1  0
M  ISO  4   6 100  14 100  48 101  49 101
M  END
>  <TORSDO>  (43) 
F 19

>  <SCORE>  (43) 
-13.892

>  <name>  (43) 
43

>  <ligand_id>  (43) 
43

>  <original_smiles>  (43) 
[H]c1c([H])c([H])c2c(c1[H])C([H])([H])C([H])([H])C([H])([H])C2([H])N([H])C(=O)C1([H])N(C(=O)C([H])(N([H])C(=O)C([H])(N([H])C([H])([H])[H])C([H])([H])[H])C(C([H])([H])[H])(C([H])([H])[H])C([H])([H])[H])C([H])([H])c2c([H])c(OC([H])([H])C([H])([H])C3([H])C([H])([H])C([H])([H])C([H])([H])C3(C(=O)C([H])([H])[H])N([H])C(=O)N3C([H])([H])C([H])([H])C([H])([H])C([H])(n4nc(-c5c([H])c([H])c(Oc6c([H])c([H])c(F)c([H])c6F)c([H])c5[H])c(C(=O)N([H])[H])c4N([H])[H])C3([H])[H])c([H])c([H])c2C1([H])[H]

>  <smiles>  (43) 
[H]c1c([H])c([H])c2c(c1[H])C([H])([H])C([H])([H])C([H])([H])C2([H])N([H])C(=O)C1([H])N(C(=O)C([H])(N([H])C(=O)C([H])(N([H])C([H])([H])[H])C([H])([H])[H])C(C([H])([H])[H])(C([H])([H])[H])C([H])([H])[H])C([H])([H])c2c([H])c(OC([H])([H])C([H])([H])C3([H])C([H])([H])C([H])([H])C([H])([H])C3(C(=O)C([H])([H])[H])N([H])C(=O)N3C([H])([H])C([H])([H])C([H])([H])C([H])(n4nc(-c5c([H])c([H])c(Oc6c([H])c([H])c(F)c([H])c6F)c([H])c5[H])c(C(=O)N([H])[H])c4N([H])[H])C3([H])[H])c([H])c([H])c2C1([H])[H]

$$$$
44:0:0
     RDKit          3D

 89 96  0  0  1  0  0  0  0  0999 V2000
  -28.8830  -22.4380   20.7420 C   0  0  0  0  0  3  0  0  0  0  0  0
  -30.0240  -24.1440   19.1790 C   0  0  0  0  0  1  0  0  0  0  0  0
  -28.7140  -23.8140   19.9130 C   0  0  0  0  0  3  0  0  0  0  0  0
  -28.2180  -25.1050   20.7320 C   0  0  0  0  0  2  0  0  0  0  0  0
  -28.3400  -26.4760   20.1660 O   0  0  0  0  0  0  0  0  0  0  0  0
  -24.6250  -31.8770   23.2280 C   0  0  0  0  0  0  0  0  0  0  0  0
  -27.2170  -27.3140   20.1760 C   0  0  0  0  0  0  0  0  0  0  0  0
  -23.4100  -30.4740   21.5990 C   0  0  0  0  0  3  0  0  0  0  0  0
  -24.8520  -28.9170   20.1700 C   0  0  0  0  0  0  0  0  0  0  0  0
  -25.9460  -30.7970   21.3950 C   0  0  0  0  0  2  0  0  0  0  0  0
  -26.0250  -29.4150   20.7530 C   0  0  0  0  0  0  0  0  0  0  0  0
  -27.2140  -28.6270   20.7420 C   0  0  0  0  0  3  0  0  0  0  0  0
  -26.0250  -26.8630   19.5740 C   0  0  0  0  0  3  0  0  0  0  0  0
  -24.8540  -27.6470   19.5690 C   0  0  0  0  0  3  0  0  0  0  0  0
  -23.6160  -29.7920   20.2200 C   0  0  0  0  0  2  0  0  0  0  0  0
  -24.6800  -31.0670   22.1320 N   0  0  0  0  0  0  0  0  0  0  0  0
  -23.5450  -32.1570   23.7700 O   0  0  0  0  0  0  0  0  0  0  0  0
  -22.7540  -29.4610   22.5670 C   0  0  0  0  0  0  0  0  0  0  0  0
  -21.4270  -29.2830   22.4490 N   0  0  0  0  0  0  0  0  0  0  0  0
  -23.4370  -28.8370   23.3830 O   0  0  0  0  0  0  0  0  0  0  0  0
  -20.9350  -29.8390   21.7630 H   0  0  0  0  0  0  0  0  0  0  0  0
  -18.0550  -28.0820   22.9590 C   0  0  0  0  0  0  0  0  0  0  0  0
  -20.6120  -28.3500   23.2260 C   0  0  0  0  0  3  0  0  0  0  0  0
  -20.7190  -26.9140   22.6600 C   0  0  0  0  0  2  0  0  0  0  0  0
  -19.6160  -26.5830   21.6480 C   0  0  0  0  0  2  0  0  0  0  0  0
  -18.2340  -26.7280   22.2920 C   0  0  0  0  0  2  0  0  0  0  0  0
  -19.1710  -28.8490   23.3830 C   0  0  0  0  0  0  0  0  0  0  0  0
  -18.9480  -30.1150   23.9670 C   0  0  0  0  0  3  0  0  0  0  0  0
  -17.6420  -30.6130   24.1320 C   0  0  0  0  0  3  0  0  0  0  0  0
  -16.5400  -29.8420   23.7230 C   0  0  0  0  0  3  0  0  0  0  0  0
  -16.7460  -28.5780   23.1430 C   0  0  0  0  0  3  0  0  0  0  0  0
  -25.9120  -32.5110   23.8420 C   0  0  0  0  0  3  0  0  0  0  0  0
  -26.4430  -31.7350   25.1100 C   0  0  1  0  0  0  0  0  0  0  0  0
  -25.3610  -31.4940   26.1890 C   0  0  0  0  0  1  0  0  0  0  0  0
  -27.0200  -30.3590   24.7060 C   0  0  0  0  0  1  0  0  0  0  0  0
  -27.6020  -32.5260   25.7620 C   0  0  0  0  0  1  0  0  0  0  0  0
  -25.6030  -33.9060   24.1810 N   0  0  0  0  0  0  0  0  0  0  0  0
  -25.9250  -34.9640   23.4250 C   0  0  0  0  0  0  0  0  0  0  0  0
  -26.5840  -34.8680   22.3870 O   0  0  0  0  0  0  0  0  0  0  0  0
  -25.0170  -34.0550   24.9900 H   0  0  0  0  0  0  0  0  0  0  0  0
  -24.1860  -36.7530   23.1050 C   0  0  0  0  0  1  0  0  0  0  0  0
  -25.4400  -36.3490   23.8960 C   0  0  0  0  0  3  0  0  0  0  0  0
  -27.5850  -37.2360   24.6980 C   0  0  0  0  0  1  0  0  0  0  0  0
  -26.4670  -37.4060   23.7730 N   0  0  0  0  0  0  0  0  0  0  0  0
  -26.0610  -38.3230   23.9330 H   0  0  0  0  0  0  0  0  0  0  0  0
  -29.0520  -21.0180   19.9940 C   0  0  0  0  0  3  0  0  0  0  0  0
  -29.4720  -19.8120   20.8360 N   0  0  0  0  0  4  0  0  0  0  0  0
  -28.9630  -19.8520   21.7040 H   0  0  0  0  0  0  0  0  0  0  0  0
  -30.4440  -19.9360   21.0680 H   0  0  0  0  0  0  0  0  0  0  0  0
  -29.2930  -18.3940   20.2880 C   0  0  0  0  0  3  0  0  0  0  0  0
  -30.1180  -17.2150   21.0110 C   0  0  0  0  0  3  0  0  0  0  0  0
  -30.5470  -14.6810   20.4260 C   0  0  0  0  0  0  0  0  0  0  0  0
  -30.3400  -12.4360   19.3600 C   0  0  0  0  0  2  0  0  0  0  0  0
  -29.3860  -12.5360   18.1490 C   0  0  0  0  0  2  0  0  0  0  0  0
  -27.9170  -12.3700   18.5920 C   0  0  0  0  0  2  0  0  0  0  0  0
  -27.5610  -13.2430   19.8250 C   0  0  0  0  0  3  0  0  0  0  0  0
  -28.6290  -13.1130   20.9330 C   0  0  0  0  0  2  0  0  0  0  0  0
  -29.9240  -13.4640   20.3350 N   0  0  0  0  0  0  0  0  0  0  0  0
  -31.7230  -14.8210   20.0810 O   0  0  0  0  0  0  0  0  0  0  0  0
  -29.7580  -15.7640   20.7380 N   0  0  0  0  0  0  0  0  0  0  0  0
  -28.7970  -15.5230   20.9270 H   0  0  0  0  0  0  0  0  0  0  0  0
  -25.1770  -13.8420   20.5700 C   0  0  0  0  0  0  0  0  0  0  0  0
  -24.1130  -13.0700   20.9480 C   0  0  0  0  0  0  0  0  0  0  0  0
  -24.5730  -11.7170   20.9120 C   0  0  0  0  0  0  0  0  0  0  0  0
  -26.2180  -12.9610   20.3240 N   0  0  0  0  0  0  0  0  0  0  0  0
  -25.8620  -11.6780   20.5920 N   0  0  0  0  0  0  0  0  0  0  0  0
  -23.8480  -10.4550   21.1040 C   0  0  0  0  0  0  0  0  0  0  0  0
  -24.3020   -9.4710   22.0080 C   0  0  0  0  0  3  0  0  0  0  0  0
  -23.5750   -8.2750   22.1880 C   0  0  0  0  0  3  0  0  0  0  0  0
  -22.3790   -8.0550   21.4660 C   0  0  0  0  0  0  0  0  0  0  0  0
  -21.9430   -9.0290   20.5490 C   0  0  0  0  0  3  0  0  0  0  0  0
  -22.6710  -10.2160   20.3670 C   0  0  0  0  0  3  0  0  0  0  0  0
  -21.6210   -6.9130   21.5570 O   0  0  0  0  0  0  0  0  0  0  0  0
  -21.6240   -6.1370   22.6890 C   0  0  0  0  0  0  0  0  0  0  0  0
  -21.2820   -6.6620   23.9540 C   0  0  0  0  0  3  0  0  0  0  0  0
  -21.2280   -5.8130   25.0770 C   0  0  0  0  0  3  0  0  0  0  0  0
  -21.5090   -4.4410   24.9380 C   0  0  0  0  0  0  0  0  0  0  0  0
  -21.8440   -3.9150   23.6780 C   0  0  0  0  0  3  0  0  0  0  0  0
  -21.8980   -4.7600   22.5560 C   0  0  0  0  0  0  0  0  0  0  0  0
  -22.2000   -4.2440   21.3400 F   0  0  0  0  0  0  0  0  0  0  0  0
  -21.4500   -3.6230   26.0160 F   0  0  0  0  0  0  0  0  0  0  0  0
  -22.7190  -13.5480   21.2300 C   0  0  0  0  0  0  0  0  0  0  0  0
  -21.9960  -12.8540   22.1020 N   0  0  0  0  0  0  0  0  0  0  0  0
  -22.2780  -14.5740   20.7130 O   0  0  0  0  0  0  0  0  0  0  0  0
  -22.3660  -12.0250   22.5440 H   0  0  0  0  0  0  0  0  0  0  0  0
  -21.0600  -13.1580   22.3330 H   0  0  0  0  0  0  0  0  0  0  0  0
  -25.3410  -15.2130   20.3930 N   0  0  0  0  0  0  0  0  0  0  0  0
  -24.5680  -15.8610   20.4990 H   0  0  0  0  0  0  0  0  0  0  0  0
  -26.1710  -15.6490   20.0120 H   0  0  0  0  0  0  0  0  0  0  0  0
  3  2  1  0
  3  4  1  0
  3  1  1  0
  5  7  1  0
  5  4  1  0
  6 17  2  0
  7 12  1  0
  8 16  1  0
  8 18  1  0
  9 15  1  0
  9 11  1  0
 10 16  1  0
 11 10  1  0
 12 11  2  0
 13  7  2  0
 14 13  1  0
 14  9  2  0
 15  8  1  0
 16  6  1  0
 18 20  2  0
 19 18  1  0
 21 19  1  0
 22 31  2  0
 22 27  1  0
 23 19  1  0
 23 27  1  0
 24 23  1  0
 25 26  1  0
 25 24  1  0
 26 22  1  0
 27 28  2  0
 28 29  1  0
 30 29  2  0
 31 30  1  0
 32  6  1  0
 32 37  1  0
 32 33  1  0
 33 36  1  1
 33 34  1  0
 35 33  1  0
 37 40  1  0
 38 42  1  0
 38 37  1  0
 39 38  2  0
 42 41  1  0
 44 42  1  0
 44 45  1  0
 44 43  1  0
 46  1  2  0
 46 47  1  0
 47 49  1  0
 47 48  1  0
 50 47  1  0
 50 51  2  0
 52 60  1  0
 53 58  1  0
 54 55  1  0
 54 53  1  0
 56 55  1  0
 56 65  1  0
 56 57  1  0
 58 52  1  0
 58 57  1  0
 59 52  2  0
 60 61  1  0
 60 51  1  0
 62 63  2  0
 63 82  1  0
 64 63  1  0
 64 67  1  0
 65 62  1  0
 65 66  1  0
 66 64  2  0
 67 68  1  0
 68 69  2  0
 70 73  1  0
 70 69  1  0
 71 70  2  0
 72 71  1  0
 72 67  2  0
 73 74  1  0
 74 75  1  0
 75 76  2  0
 77 76  1  0
 77 81  1  0
 78 77  2  0
 79 74  2  0
 79 78  1  0
 80 79  1  0
 82 83  1  0
 83 86  1  0
 83 85  1  0
 84 82  2  0
 87 88  1  0
 87 62  1  0
 89 87  1  0
M  ISO  4   4 101   5 101  52 100  60 100
M  END
>  <TORSDO>  (44) 
F 22

>  <SCORE>  (44) 
-12.982

>  <name>  (44) 
44

>  <ligand_id>  (44) 
44

>  <original_smiles>  (44) 
[H]c1c([H])c([H])c2c(c1[H])C([H])([H])C([H])([H])C([H])([H])C2([H])N([H])C(=O)C1([H])N(C(=O)C([H])(N([H])C(=O)C([H])(N([H])C([H])([H])[H])C([H])([H])[H])C(C([H])([H])[H])(C([H])([H])[H])C([H])([H])[H])C([H])([H])c2c([H])c(OC([H])([H])C([H])(C([H])([H])[H])C([H])([H])C([H])([H])[N+]([H])([H])C([H])([H])C([H])([H])N([H])C(=O)N3C([H])([H])C([H])([H])C([H])([H])C([H])(n4nc(-c5c([H])c([H])c(Oc6c([H])c([H])c(F)c([H])c6F)c([H])c5[H])c(C(=O)N([H])[H])c4N([H])[H])C3([H])[H])c([H])c([H])c2C1([H])[H]

>  <smiles>  (44) 
[H]c1c([H])c([H])c2c(c1[H])C([H])([H])C([H])([H])C([H])([H])C2([H])N([H])C(=O)C1([H])N(C(=O)C([H])(N([H])C(=O)C([H])(N([H])C([H])([H])[H])C([H])([H])[H])C(C([H])([H])[H])(C([H])([H])[H])C([H])([H])[H])C([H])([H])c2c([H])c(OC([H])([H])C([H])(C([H])([H])[H])C([H])([H])C([H])([H])[N+]([H])([H])C([H])([H])C([H])([H])N([H])C(=O)N3C([H])([H])C([H])([H])C([H])([H])C([H])(n4nc(-c5c([H])c([H])c(Oc6c([H])c([H])c(F)c([H])c6F)c([H])c5[H])c(C(=O)N([H])[H])c4N([H])[H])C3([H])[H])c([H])c([H])c2C1([H])[H]

$$$$
45:0:0
     RDKit          3D

 89 98  0  0  1  0  0  0  0  0999 V2000
  -30.1870  -23.2770   20.8410 C   0  0  0  0  0  2  0  0  0  0  0  0
  -29.3070  -23.5530   19.8770 C   0  0  0  0  0  3  0  0  0  0  0  0
  -28.7670  -22.0970   19.3880 C   0  0  0  0  0  2  0  0  0  0  0  0
  -28.0270  -23.8410   21.7940 C   0  0  0  0  0  2  0  0  0  0  0  0
  -29.1740  -21.2820   21.8340 C   0  0  0  0  0  2  0  0  0  0  0  0
  -29.3000  -22.8610   21.9820 C   0  0  0  0  0  3  0  0  0  0  0  0
  -28.3250  -24.6800   20.4950 C   0  0  0  0  0  3  0  0  0  0  0  0
  -28.8560  -20.7510   20.3860 C   0  0  0  0  0  0  0  0  0  0  0  0
  -28.3110  -26.2310   20.1910 O   0  0  0  0  0  0  0  0  0  0  0  0
  -24.6270  -31.8980   23.2350 C   0  0  0  0  0  0  0  0  0  0  0  0
  -27.2060  -27.1620   20.2210 C   0  0  0  0  0  0  0  0  0  0  0  0
  -23.4260  -30.4960   21.6010 C   0  0  0  0  0  3  0  0  0  0  0  0
  -24.8710  -28.9060   20.1840 C   0  0  0  0  0  0  0  0  0  0  0  0
  -25.9770  -30.7630   21.4260 C   0  0  0  0  0  2  0  0  0  0  0  0
  -26.0530  -29.3640   20.7810 C   0  0  0  0  0  0  0  0  0  0  0  0
  -27.2210  -28.5110   20.7700 C   0  0  0  0  0  3  0  0  0  0  0  0
  -25.9940  -26.7970   19.6020 C   0  0  0  0  0  3  0  0  0  0  0  0
  -24.8560  -27.6370   19.5780 C   0  0  0  0  0  3  0  0  0  0  0  0
  -23.6440  -29.8070   20.2260 C   0  0  0  0  0  2  0  0  0  0  0  0
  -24.6970  -31.0750   22.1420 N   0  0  0  0  0  0  0  0  0  0  0  0
  -23.5430  -32.1800   23.7660 O   0  0  0  0  0  0  0  0  0  0  0  0
  -22.7500  -29.4930   22.5690 C   0  0  0  0  0  0  0  0  0  0  0  0
  -21.4230  -29.3150   22.4420 N   0  0  0  0  0  0  0  0  0  0  0  0
  -23.4240  -28.8740   23.3980 O   0  0  0  0  0  0  0  0  0  0  0  0
  -20.9360  -29.8650   21.7470 H   0  0  0  0  0  0  0  0  0  0  0  0
  -18.0460  -28.1040   22.9510 C   0  0  0  0  0  0  0  0  0  0  0  0
  -20.6040  -28.3770   23.2140 C   0  0  0  0  0  3  0  0  0  0  0  0
  -20.7110  -26.9440   22.6420 C   0  0  0  0  0  2  0  0  0  0  0  0
  -19.6100  -26.6150   21.6290 C   0  0  0  0  0  2  0  0  0  0  0  0
  -18.2280  -26.7560   22.2740 C   0  0  0  0  0  2  0  0  0  0  0  0
  -19.1620  -28.8720   23.3780 C   0  0  0  0  0  0  0  0  0  0  0  0
  -18.9380  -30.1340   23.9710 C   0  0  0  0  0  3  0  0  0  0  0  0
  -17.6300  -30.6270   24.1410 C   0  0  0  0  0  3  0  0  0  0  0  0
  -16.5290  -29.8560   23.7280 C   0  0  0  0  0  3  0  0  0  0  0  0
  -16.7380  -28.5960   23.1390 C   0  0  0  0  0  3  0  0  0  0  0  0
  -25.9050  -32.5360   23.8600 C   0  0  0  0  0  3  0  0  0  0  0  0
  -25.5920  -33.9380   24.1870 N   0  0  0  0  0  0  0  0  0  0  0  0
  -25.9160  -34.9910   23.4270 C   0  0  0  0  0  0  0  0  0  0  0  0
  -26.5750  -34.8880   22.3890 O   0  0  0  0  0  0  0  0  0  0  0  0
  -25.0030  -34.0910   24.9920 H   0  0  0  0  0  0  0  0  0  0  0  0
  -24.1830  -36.7870   23.0950 C   0  0  0  0  0  1  0  0  0  0  0  0
  -25.4340  -36.3810   23.8900 C   0  0  0  0  0  3  0  0  0  0  0  0
  -27.5760  -37.2730   24.6970 C   0  0  0  0  0  1  0  0  0  0  0  0
  -26.4650  -37.4350   23.7630 N   0  0  0  0  0  0  0  0  0  0  0  0
  -26.0590  -38.3550   23.9100 H   0  0  0  0  0  0  0  0  0  0  0  0
  -26.4150  -31.7740   25.1460 C   0  0  1  0  0  0  0  0  0  0  0  0
  -25.3170  -31.5450   26.2120 C   0  0  0  0  0  1  0  0  0  0  0  0
  -26.9990  -30.3920   24.7710 C   0  0  0  0  0  1  0  0  0  0  0  0
  -27.5620  -32.5740   25.8080 C   0  0  0  0  0  1  0  0  0  0  0  0
  -29.3350  -19.1700   19.8810 C   0  0  0  0  0  3  0  0  0  0  0  0
  -29.9080  -17.8090   20.7380 C   0  0  0  0  0  2  0  0  0  0  0  0
  -30.5050  -15.0720   20.3130 C   0  0  0  0  0  0  0  0  0  0  0  0
  -30.4130  -12.7000   19.3780 C   0  0  0  0  0  2  0  0  0  0  0  0
  -29.4760  -12.6170   18.1520 C   0  0  0  0  0  2  0  0  0  0  0  0
  -28.0140  -12.4030   18.5920 C   0  0  0  0  0  2  0  0  0  0  0  0
  -27.6030  -13.3430   19.7560 C   0  0  0  0  0  3  0  0  0  0  0  0
  -28.6610  -13.3770   20.8760 C   0  0  0  0  0  2  0  0  0  0  0  0
  -29.9180  -13.8040   20.2500 N   0  0  0  0  0  0  0  0  0  0  0  0
  -31.7230  -15.1280   20.1100 O   0  0  0  0  0  0  0  0  0  0  0  0
  -29.6980  -16.2540   20.4020 N   0  0  0  0  0  0  0  0  0  0  0  0
  -28.7210  -16.0050   20.4050 H   0  0  0  0  0  0  0  0  0  0  0  0
  -25.2330  -13.9280   20.5180 C   0  0  0  0  0  0  0  0  0  0  0  0
  -24.1660  -13.1570   20.8870 C   0  0  0  0  0  0  0  0  0  0  0  0
  -24.6230  -11.8040   20.8450 C   0  0  0  0  0  0  0  0  0  0  0  0
  -26.2690  -13.0470   20.2630 N   0  0  0  0  0  0  0  0  0  0  0  0
  -25.9130  -11.7620   20.5280 N   0  0  0  0  0  0  0  0  0  0  0  0
  -23.8890  -10.5450   21.0290 C   0  0  0  0  0  0  0  0  0  0  0  0
  -24.3020   -9.5800   21.9730 C   0  0  0  0  0  3  0  0  0  0  0  0
  -23.5660   -8.3870   22.1440 C   0  0  0  0  0  3  0  0  0  0  0  0
  -22.4050   -8.1520   21.3710 C   0  0  0  0  0  0  0  0  0  0  0  0
  -22.0110   -9.1070   20.4180 C   0  0  0  0  0  3  0  0  0  0  0  0
  -22.7470  -10.2900   20.2430 C   0  0  0  0  0  3  0  0  0  0  0  0
  -21.6430   -7.0120   21.4520 O   0  0  0  0  0  0  0  0  0  0  0  0
  -21.5540   -6.2850   22.6130 C   0  0  0  0  0  0  0  0  0  0  0  0
  -21.0750   -6.8550   23.8130 C   0  0  0  0  0  3  0  0  0  0  0  0
  -20.9350   -6.0550   24.9640 C   0  0  0  0  0  3  0  0  0  0  0  0
  -21.2630   -4.6860   24.9160 C   0  0  0  0  0  0  0  0  0  0  0  0
  -21.7350   -4.1170   23.7200 C   0  0  0  0  0  3  0  0  0  0  0  0
  -21.8780   -4.9140   22.5710 C   0  0  0  0  0  0  0  0  0  0  0  0
  -22.3130   -4.3550   21.4160 F   0  0  0  0  0  0  0  0  0  0  0  0
  -21.1210   -3.9150   26.0190 F   0  0  0  0  0  0  0  0  0  0  0  0
  -22.7720  -13.6420   21.1620 C   0  0  0  0  0  0  0  0  0  0  0  0
  -22.0370  -12.9430   22.0170 N   0  0  0  0  0  0  0  0  0  0  0  0
  -22.3460  -14.6780   20.6530 O   0  0  0  0  0  0  0  0  0  0  0  0
  -22.3950  -12.1050   22.4540 H   0  0  0  0  0  0  0  0  0  0  0  0
  -21.1010  -13.2510   22.2410 H   0  0  0  0  0  0  0  0  0  0  0  0
  -25.3980  -15.3000   20.3490 N   0  0  0  0  0  0  0  0  0  0  0  0
  -24.6260  -15.9480   20.4660 H   0  0  0  0  0  0  0  0  0  0  0  0
  -26.2270  -15.7420   19.9730 H   0  0  0  0  0  0  0  0  0  0  0  0
  2  3  1  0
  2  7  1  0
  2  1  1  0
  3  8  1  0
  4  6  1  0
  5  6  1  0
  6  1  1  0
  7  9  1  0
  7  4  1  0
  8  5  1  0
  9 11  1  0
 10 21  2  0
 11 16  1  0
 12 20  1  0
 12 22  1  0
 13 19  1  0
 13 15  1  0
 14 20  1  0
 15 14  1  0
 16 15  2  0
 17 11  2  0
 18 17  1  0
 18 13  2  0
 19 12  1  0
 20 10  1  0
 22 24  2  0
 23 22  1  0
 25 23  1  0
 26 35  2  0
 26 31  1  0
 27 23  1  0
 27 31  1  0
 28 27  1  0
 29 30  1  0
 29 28  1  0
 30 26  1  0
 31 32  2  0
 32 33  1  0
 34 33  2  0
 35 34  1  0
 36 10  1  0
 36 37  1  0
 36 46  1  0
 37 40  1  0
 38 42  1  0
 38 37  1  0
 39 38  2  0
 42 41  1  0
 44 42  1  0
 44 45  1  0
 44 43  1  0
 46 49  1  1
 46 47  1  0
 48 46  1  0
 50  8  2  0
 50 51  1  0
 52 60  1  0
 53 58  1  0
 54 55  1  0
 54 53  1  0
 56 55  1  0
 56 65  1  0
 56 57  1  0
 58 52  1  0
 58 57  1  0
 59 52  2  0
 60 61  1  0
 60 51  1  0
 62 63  2  0
 63 82  1  0
 64 63  1  0
 64 67  1  0
 65 62  1  0
 65 66  1  0
 66 64  2  0
 67 68  1  0
 68 69  2  0
 70 73  1  0
 70 69  1  0
 71 70  2  0
 72 71  1  0
 72 67  2  0
 73 74  1  0
 74 75  1  0
 75 76  2  0
 77 76  1  0
 77 81  1  0
 78 77  2  0
 79 74  2  0
 79 78  1  0
 80 79  1  0
 82 83  1  0
 83 86  1  0
 83 85  1  0
 84 82  2  0
 87 88  1  0
 87 62  1  0
 89 87  1  0
M  ISO  4   7 101   9 101  52 100  60 100
M  END
>  <TORSDO>  (45) 
F 18

>  <SCORE>  (45) 
-15.710

>  <name>  (45) 
45

>  <ligand_id>  (45) 
45

>  <original_smiles>  (45) 
[H]C1=C2C([H])([H])C([H])(C([H])([H])C([H])([H])N([H])C(=O)N3C([H])([H])C([H])([H])C([H])([H])C([H])(n4nc(-c5c([H])c([H])c(Oc6c([H])c([H])c(F)c([H])c6F)c([H])c5[H])c(C(=O)N([H])[H])c4N([H])[H])C3([H])[H])C([H])([H])C1([H])C([H])([H])C2([H])Oc1c([H])c([H])c2c(c1[H])C([H])([H])N(C(=O)C([H])(N([H])C(=O)C([H])(N([H])C([H])([H])[H])C([H])([H])[H])C(C([H])([H])[H])(C([H])([H])[H])C([H])([H])[H])C([H])(C(=O)N([H])C1([H])c3c([H])c([H])c([H])c([H])c3C([H])([H])C([H])([H])C1([H])[H])C2([H])[H]

>  <smiles>  (45) 
[H]C1=C2C([H])([H])C([H])(C([H])([H])C([H])([H])N([H])C(=O)N3C([H])([H])C([H])([H])C([H])([H])C([H])(n4nc(-c5c([H])c([H])c(Oc6c([H])c([H])c(F)c([H])c6F)c([H])c5[H])c(C(=O)N([H])[H])c4N([H])[H])C3([H])[H])C([H])([H])C1([H])C([H])([H])C2([H])Oc1c([H])c([H])c2c(c1[H])C([H])([H])N(C(=O)C([H])(N([H])C(=O)C([H])(N([H])C([H])([H])[H])C([H])([H])[H])C(C([H])([H])[H])(C([H])([H])[H])C([H])([H])[H])C([H])(C(=O)N([H])C1([H])c3c([H])c([H])c([H])c([H])c3C([H])([H])C([H])([H])C1([H])[H])C2([H])[H]

$$$$
46:0:0
     RDKit          3D

 92101  0  0  1  0  0  0  0  0999 V2000
  -27.2090  -21.7530   21.0550 C   0  0  0  0  0  2  0  0  0  0  0  0
  -26.9580  -21.5330   19.5510 C   0  0  0  0  0  2  0  0  0  0  0  0
  -29.5850  -20.7690   21.2400 C   0  0  0  0  0  2  0  0  0  0  0  0
  -29.1660  -20.4910   18.8080 C   0  0  0  0  0  2  0  0  0  0  0  0
  -29.2570  -19.6920   20.1450 C   0  0  0  0  0  3  0  0  0  0  0  0
  -28.7100  -22.0980   21.1320 C   0  0  0  0  0  3  0  0  0  0  0  0
  -28.3330  -21.8160   18.9060 C   0  0  0  0  0  3  0  0  0  0  0  0
  -28.9620  -22.7970   19.8390 N   0  0  1  0  0  4  0  0  0  0  0  0
  -29.9600  -22.8200   19.6790 H   0  0  0  0  0  0  0  0  0  0  0  0
  -30.1470  -18.3730   19.9940 C   0  0  0  0  0  2  0  0  0  0  0  0
  -30.2770  -17.3220   21.1710 C   0  0  0  0  0  2  0  0  0  0  0  0
  -30.8520  -14.8360   20.5250 C   0  0  0  0  0  0  0  0  0  0  0  0
  -30.6710  -12.6240   19.4010 C   0  0  0  0  0  2  0  0  0  0  0  0
  -29.7300  -12.7670   18.1840 C   0  0  0  0  0  2  0  0  0  0  0  0
  -28.2540  -12.5980   18.6010 C   0  0  0  0  0  2  0  0  0  0  0  0
  -27.8850  -13.4400   19.8510 C   0  0  0  0  0  3  0  0  0  0  0  0
  -28.9340  -13.2570   20.9690 C   0  0  0  0  0  2  0  0  0  0  0  0
  -30.2440  -13.6170   20.4050 N   0  0  0  0  0  0  0  0  0  0  0  0
  -32.0240  -15.0190   20.1870 O   0  0  0  0  0  0  0  0  0  0  0  0
  -30.0260  -15.8710   20.8680 N   0  0  0  0  0  0  0  0  0  0  0  0
  -29.0780  -15.5710   21.0460 H   0  0  0  0  0  0  0  0  0  0  0  0
  -25.4830  -14.0300   20.5500 C   0  0  0  0  0  0  0  0  0  0  0  0
  -24.4150  -13.2510   20.9020 C   0  0  0  0  0  0  0  0  0  0  0  0
  -24.8820  -11.9010   20.8640 C   0  0  0  0  0  0  0  0  0  0  0  0
  -26.5320  -13.1530   20.3190 N   0  0  0  0  0  0  0  0  0  0  0  0
  -26.1750  -11.8690   20.5690 N   0  0  0  0  0  0  0  0  0  0  0  0
  -24.1580  -10.6350   21.0350 C   0  0  0  0  0  0  0  0  0  0  0  0
  -24.5630   -9.6740   21.9880 C   0  0  0  0  0  3  0  0  0  0  0  0
  -23.8400   -8.4730   22.1450 C   0  0  0  0  0  3  0  0  0  0  0  0
  -22.6970   -8.2240   21.3490 C   0  0  0  0  0  0  0  0  0  0  0  0
  -22.3110   -9.1730   20.3860 C   0  0  0  0  0  3  0  0  0  0  0  0
  -23.0350  -10.3660   20.2280 C   0  0  0  0  0  3  0  0  0  0  0  0
  -21.9470   -7.0740   21.4150 O   0  0  0  0  0  0  0  0  0  0  0  0
  -21.8370   -6.3520   22.5760 C   0  0  0  0  0  0  0  0  0  0  0  0
  -21.3020   -6.9160   23.7560 C   0  0  0  0  0  3  0  0  0  0  0  0
  -21.1420   -6.1180   24.9070 C   0  0  0  0  0  3  0  0  0  0  0  0
  -21.5080   -4.7600   24.8790 C   0  0  0  0  0  0  0  0  0  0  0  0
  -22.0350   -4.1960   23.7050 C   0  0  0  0  0  3  0  0  0  0  0  0
  -22.1970   -4.9890   22.5560 C   0  0  0  0  0  0  0  0  0  0  0  0
  -22.6870   -4.4360   21.4200 F   0  0  0  0  0  0  0  0  0  0  0  0
  -21.3470   -3.9910   25.9830 F   0  0  0  0  0  0  0  0  0  0  0  0
  -23.0130  -13.7210   21.1640 C   0  0  0  0  0  0  0  0  0  0  0  0
  -22.2820  -13.0220   22.0250 N   0  0  0  0  0  0  0  0  0  0  0  0
  -22.5740  -14.7440   20.6380 O   0  0  0  0  0  0  0  0  0  0  0  0
  -22.6510  -12.1940   22.4700 H   0  0  0  0  0  0  0  0  0  0  0  0
  -21.3420  -13.3180   22.2430 H   0  0  0  0  0  0  0  0  0  0  0  0
  -25.6450  -15.4030   20.3850 N   0  0  0  0  0  0  0  0  0  0  0  0
  -24.8710  -16.0510   20.4850 H   0  0  0  0  0  0  0  0  0  0  0  0
  -26.4860  -15.8470   20.0390 H   0  0  0  0  0  0  0  0  0  0  0  0
  -28.4370  -24.2240   19.6140 C   0  0  0  0  0  2  0  0  0  0  0  0
  -28.6700  -25.3570   20.6900 C   0  0  0  0  0  2  0  0  0  0  0  0
  -28.6450  -26.7710   20.2670 O   0  0  0  0  0  0  0  0  0  0  0  0
  -24.6510  -31.9640   23.2760 C   0  0  0  0  0  0  0  0  0  0  0  0
  -27.4630  -27.5120   20.2750 C   0  0  0  0  0  0  0  0  0  0  0  0
  -23.5240  -30.5460   21.5940 C   0  0  0  0  0  3  0  0  0  0  0  0
  -25.0500  -29.0320   20.2100 C   0  0  0  0  0  0  0  0  0  0  0  0
  -26.0540  -30.9370   21.4760 C   0  0  0  0  0  2  0  0  0  0  0  0
  -26.1860  -29.5620   20.8330 C   0  0  0  0  0  0  0  0  0  0  0  0
  -27.3960  -28.8150   20.8510 C   0  0  0  0  0  3  0  0  0  0  0  0
  -26.3050  -27.0170   19.6420 C   0  0  0  0  0  3  0  0  0  0  0  0
  -25.1100  -27.7630   19.6070 C   0  0  0  0  0  3  0  0  0  0  0  0
  -23.7910  -29.8760   20.2200 C   0  0  0  0  0  2  0  0  0  0  0  0
  -24.7600  -31.1670   22.1730 N   0  0  0  0  0  0  0  0  0  0  0  0
  -23.5480  -32.2120   23.7840 O   0  0  0  0  0  0  0  0  0  0  0  0
  -22.8610  -29.5110   22.5330 C   0  0  0  0  0  0  0  0  0  0  0  0
  -21.5420  -29.3110   22.3730 N   0  0  0  0  0  0  0  0  0  0  0  0
  -23.5330  -28.8890   23.3600 O   0  0  0  0  0  0  0  0  0  0  0  0
  -21.0600  -29.8650   21.6790 H   0  0  0  0  0  0  0  0  0  0  0  0
  -18.1690  -28.0850   22.8130 C   0  0  0  0  0  0  0  0  0  0  0  0
  -20.7210  -28.3520   23.1150 C   0  0  0  0  0  3  0  0  0  0  0  0
  -20.8390  -26.9340   22.5110 C   0  0  0  0  0  2  0  0  0  0  0  0
  -19.7490  -26.6270   21.4780 C   0  0  0  0  0  2  0  0  0  0  0  0
  -18.3590  -26.7510   22.1110 C   0  0  0  0  0  2  0  0  0  0  0  0
  -19.2780  -28.8440   23.2700 C   0  0  0  0  0  0  0  0  0  0  0  0
  -19.0470  -30.0930   23.8860 C   0  0  0  0  0  3  0  0  0  0  0  0
  -17.7370  -30.5840   24.0480 C   0  0  0  0  0  3  0  0  0  0  0  0
  -16.6420  -29.8220   23.6070 C   0  0  0  0  0  3  0  0  0  0  0  0
  -16.8580  -28.5740   22.9960 C   0  0  0  0  0  3  0  0  0  0  0  0
  -25.9030  -32.6210   23.9360 C   0  0  0  0  0  3  0  0  0  0  0  0
  -26.3790  -31.8740   25.2440 C   0  0  1  0  0  0  0  0  0  0  0  0
  -25.2440  -31.6250   26.2660 C   0  0  0  0  0  1  0  0  0  0  0  0
  -27.0070  -30.5070   24.8940 C   0  0  0  0  0  1  0  0  0  0  0  0
  -27.4820  -32.7000   25.9460 C   0  0  0  0  0  1  0  0  0  0  0  0
  -25.5650  -34.0200   24.2340 N   0  0  0  0  0  0  0  0  0  0  0  0
  -25.9130  -35.0660   23.4720 C   0  0  0  0  0  0  0  0  0  0  0  0
  -26.6210  -34.9540   22.4660 O   0  0  0  0  0  0  0  0  0  0  0  0
  -24.9440  -34.1800   25.0120 H   0  0  0  0  0  0  0  0  0  0  0  0
  -24.1830  -36.8340   23.0230 C   0  0  0  0  0  1  0  0  0  0  0  0
  -25.3930  -36.4540   23.8890 C   0  0  0  0  0  3  0  0  0  0  0  0
  -27.4770  -37.3790   24.8000 C   0  0  0  0  0  1  0  0  0  0  0  0
  -26.4190  -37.5170   23.8030 N   0  0  0  0  0  0  0  0  0  0  0  0
  -25.9970  -38.4350   23.9140 H   0  0  0  0  0  0  0  0  0  0  0  0
  2  1  1  0
  4  5  1  0
  5 10  1  0
  5  3  1  0
  6  1  1  0
  6  3  1  0
  7  4  1  0
  7  2  1  0
  7  8  1  0
  8  6  1  0
  8  9  1  6
 10 11  1  0
 12 20  1  0
 13 18  1  0
 14 15  1  0
 14 13  1  0
 16 15  1  0
 16 25  1  0
 16 17  1  0
 18 12  1  0
 18 17  1  0
 19 12  2  0
 20 21  1  0
 20 11  1  0
 22 23  2  0
 23 42  1  0
 24 23  1  0
 24 27  1  0
 25 22  1  0
 25 26  1  0
 26 24  2  0
 27 28  1  0
 28 29  2  0
 30 33  1  0
 30 29  1  0
 31 30  2  0
 32 31  1  0
 32 27  2  0
 33 34  1  0
 34 35  1  0
 35 36  2  0
 37 36  1  0
 37 41  1  0
 38 37  2  0
 39 34  2  0
 39 38  1  0
 40 39  1  0
 42 43  1  0
 43 46  1  0
 43 45  1  0
 44 42  2  0
 47 48  1  0
 47 22  1  0
 49 47  1  0
 50  8  1  0
 50 51  1  0
 52 54  1  0
 52 51  1  0
 53 64  2  0
 54 59  1  0
 55 63  1  0
 55 65  1  0
 56 62  1  0
 56 58  1  0
 57 63  1  0
 58 59  2  0
 58 57  1  0
 60 54  2  0
 61 60  1  0
 61 56  2  0
 62 55  1  0
 63 53  1  0
 65 67  2  0
 66 65  1  0
 68 66  1  0
 69 78  2  0
 69 74  1  0
 70 66  1  0
 70 74  1  0
 71 70  1  0
 72 73  1  0
 72 71  1  0
 73 69  1  0
 74 75  2  0
 75 76  1  0
 77 76  2  0
 78 77  1  0
 79 53  1  0
 79 84  1  0
 79 80  1  0
 80 83  1  1
 80 81  1  0
 82 80  1  0
 84 87  1  0
 85 89  1  0
 85 84  1  0
 86 85  2  0
 89 88  1  0
 91 89  1  0
 91 92  1  0
 91 90  1  0
M  ISO  4  12 100  20 100  51 101  52 101
M  END
>  <TORSDO>  (46) 
F 20

>  <SCORE>  (46) 
-13.317

>  <name>  (46) 
46

>  <ligand_id>  (46) 
46

>  <original_smiles>  (46) 
[H]c1c([H])c([H])c2c(c1[H])C([H])([H])C([H])([H])C([H])([H])C2([H])N([H])C(=O)C1([H])N(C(=O)C([H])(N([H])C(=O)C([H])(N([H])C([H])([H])[H])C([H])([H])[H])C(C([H])([H])[H])(C([H])([H])[H])C([H])([H])[H])C([H])([H])c2c([H])c(OC([H])([H])C([H])([H])[N+]3([H])C4([H])C([H])([H])C([H])([H])C3([H])C([H])([H])C([H])(C([H])([H])C([H])([H])N([H])C(=O)N3C([H])([H])C([H])([H])C([H])([H])C([H])(n5nc(-c6c([H])c([H])c(Oc7c([H])c([H])c(F)c([H])c7F)c([H])c6[H])c(C(=O)N([H])[H])c5N([H])[H])C3([H])[H])C4([H])[H])c([H])c([H])c2C1([H])[H]

>  <smiles>  (46) 
[H]c1c([H])c([H])c2c(c1[H])C([H])([H])C([H])([H])C([H])([H])C2([H])N([H])C(=O)C1([H])N(C(=O)C([H])(N([H])C(=O)C([H])(N([H])C([H])([H])[H])C([H])([H])[H])C(C([H])([H])[H])(C([H])([H])[H])C([H])([H])[H])C([H])([H])c2c([H])c(OC([H])([H])C([H])([H])[N+]3([H])C4([H])C([H])([H])C([H])([H])C3([H])C([H])([H])C([H])(C([H])([H])C([H])([H])N([H])C(=O)N3C([H])([H])C([H])([H])C([H])([H])C([H])(n5nc(-c6c([H])c([H])c(Oc7c([H])c([H])c(F)c([H])c7F)c([H])c6[H])c(C(=O)N([H])[H])c5N([H])[H])C3([H])[H])C4([H])[H])c([H])c([H])c2C1([H])[H]

$$$$
47:0:0
     RDKit          3D

 87 96  0  0  1  0  0  0  0  0999 V2000
  -28.6440  -21.7210   19.9040 C   0  0  0  0  0  2  0  0  0  0  0  0
  -30.5950  -15.0070   20.3030 C   0  0  0  0  0  0  0  0  0  0  0  0
  -30.3600  -12.6640   19.3690 C   0  0  0  0  0  2  0  0  0  0  0  0
  -29.4350  -12.6130   18.1350 C   0  0  0  0  0  2  0  0  0  0  0  0
  -27.9800  -12.4020   18.5820 C   0  0  0  0  0  2  0  0  0  0  0  0
  -27.5780  -13.3420   19.7490 C   0  0  0  0  0  3  0  0  0  0  0  0
  -28.6380  -13.4040   20.8700 C   0  0  0  0  0  2  0  0  0  0  0  0
  -29.9030  -13.7940   20.2390 N   0  0  0  0  0  0  0  0  0  0  0  0
  -31.7930  -14.9330   20.0040 O   0  0  0  0  0  0  0  0  0  0  0  0
  -30.2870  -20.0120   21.4280 C   0  0  0  0  0  2  0  0  0  0  0  0
  -30.9620  -17.3440   21.2480 C   0  0  0  0  0  2  0  0  0  0  0  0
  -28.9230  -17.2000   20.1550 C   0  0  0  0  0  2  0  0  0  0  0  0
  -30.6960  -18.7520   20.6140 C   0  0  0  0  0  3  0  0  0  0  0  0
  -29.3650  -18.7590   19.9130 C   0  0  0  0  0  3  0  0  0  0  0  0
  -28.9840  -20.2230   20.6260 C   0  0  0  0  0  3  0  0  0  0  0  0
  -30.0620  -16.2940   20.6650 N   0  0  0  0  0  0  0  0  0  0  0  0
  -25.2080  -13.9070   20.5140 C   0  0  0  0  0  0  0  0  0  0  0  0
  -24.1480  -13.1300   20.8880 C   0  0  0  0  0  0  0  0  0  0  0  0
  -24.6150  -11.7800   20.8530 C   0  0  0  0  0  0  0  0  0  0  0  0
  -26.2500  -13.0330   20.2640 N   0  0  0  0  0  0  0  0  0  0  0  0
  -25.9060  -11.7470   20.5360 N   0  0  0  0  0  0  0  0  0  0  0  0
  -23.8920  -10.5160   21.0440 C   0  0  0  0  0  0  0  0  0  0  0  0
  -24.3310   -9.5430   21.9700 C   0  0  0  0  0  3  0  0  0  0  0  0
  -23.6040   -8.3470   22.1520 C   0  0  0  0  0  3  0  0  0  0  0  0
  -22.4240   -8.1130   21.4060 C   0  0  0  0  0  0  0  0  0  0  0  0
  -22.0050   -9.0720   20.4680 C   0  0  0  0  0  3  0  0  0  0  0  0
  -22.7320  -10.2600   20.2840 C   0  0  0  0  0  3  0  0  0  0  0  0
  -21.6680   -6.9680   21.4960 O   0  0  0  0  0  0  0  0  0  0  0  0
  -21.6320   -6.2190   22.6450 C   0  0  0  0  0  0  0  0  0  0  0  0
  -21.2050   -6.7630   23.8750 C   0  0  0  0  0  3  0  0  0  0  0  0
  -21.1150   -5.9390   25.0160 C   0  0  0  0  0  3  0  0  0  0  0  0
  -21.4430   -4.5740   24.9260 C   0  0  0  0  0  0  0  0  0  0  0  0
  -21.8640   -4.0290   23.7000 C   0  0  0  0  0  3  0  0  0  0  0  0
  -21.9550   -4.8500   22.5620 C   0  0  0  0  0  0  0  0  0  0  0  0
  -22.3390   -4.3160   21.3780 F   0  0  0  0  0  0  0  0  0  0  0  0
  -21.3500   -3.7810   26.0190 F   0  0  0  0  0  0  0  0  0  0  0  0
  -22.7510  -13.6040   21.1630 C   0  0  0  0  0  0  0  0  0  0  0  0
  -22.0280  -12.9080   22.0330 N   0  0  0  0  0  0  0  0  0  0  0  0
  -22.3120  -14.6290   20.6430 O   0  0  0  0  0  0  0  0  0  0  0  0
  -22.3970  -12.0780   22.4740 H   0  0  0  0  0  0  0  0  0  0  0  0
  -21.0910  -13.2080   22.2610 H   0  0  0  0  0  0  0  0  0  0  0  0
  -25.3690  -15.2780   20.3380 N   0  0  0  0  0  0  0  0  0  0  0  0
  -24.6040  -15.9330   20.4530 H   0  0  0  0  0  0  0  0  0  0  0  0
  -26.2190  -15.7170   20.0100 H   0  0  0  0  0  0  0  0  0  0  0  0
  -28.7580  -23.2740   20.5740 C   0  0  0  0  0  3  0  0  0  0  0  0
  -27.9890  -24.6650   19.9790 C   0  0  0  0  0  3  0  0  0  0  0  0
  -28.2150  -26.1750   20.3240 O   0  0  0  0  0  0  0  0  0  0  0  0
  -24.6180  -31.9070   23.2450 C   0  0  0  0  0  0  0  0  0  0  0  0
  -27.1780  -27.1780   20.2180 C   0  0  0  0  0  0  0  0  0  0  0  0
  -23.4160  -30.5130   21.6060 C   0  0  0  0  0  3  0  0  0  0  0  0
  -24.8610  -28.9400   20.1760 C   0  0  0  0  0  0  0  0  0  0  0  0
  -25.9700  -30.7710   21.4430 C   0  0  0  0  0  2  0  0  0  0  0  0
  -26.0400  -29.3780   20.7930 C   0  0  0  0  0  0  0  0  0  0  0  0
  -27.1980  -28.5110   20.8010 C   0  0  0  0  0  3  0  0  0  0  0  0
  -25.9830  -26.8560   19.5390 C   0  0  0  0  0  3  0  0  0  0  0  0
  -24.8470  -27.6940   19.5320 C   0  0  0  0  0  3  0  0  0  0  0  0
  -23.6340  -29.8380   20.2260 C   0  0  0  0  0  2  0  0  0  0  0  0
  -24.6880  -31.0850   22.1530 N   0  0  0  0  0  0  0  0  0  0  0  0
  -23.5320  -32.1930   23.7730 O   0  0  0  0  0  0  0  0  0  0  0  0
  -22.7360  -29.5060   22.5680 C   0  0  0  0  0  0  0  0  0  0  0  0
  -21.4090  -29.3320   22.4370 N   0  0  0  0  0  0  0  0  0  0  0  0
  -23.4060  -28.8820   23.3960 O   0  0  0  0  0  0  0  0  0  0  0  0
  -20.9250  -29.8850   21.7430 H   0  0  0  0  0  0  0  0  0  0  0  0
  -18.0300  -28.1260   22.9290 C   0  0  0  0  0  0  0  0  0  0  0  0
  -20.5860  -28.3970   23.2090 C   0  0  0  0  0  3  0  0  0  0  0  0
  -20.6940  -26.9620   22.6410 C   0  0  0  0  0  2  0  0  0  0  0  0
  -19.5990  -26.6320   21.6220 C   0  0  0  0  0  2  0  0  0  0  0  0
  -18.2130  -26.7750   22.2580 C   0  0  0  0  0  2  0  0  0  0  0  0
  -19.1440  -28.8940   23.3620 C   0  0  0  0  0  0  0  0  0  0  0  0
  -18.9160  -30.1570   23.9500 C   0  0  0  0  0  3  0  0  0  0  0  0
  -17.6070  -30.6520   24.1080 C   0  0  0  0  0  3  0  0  0  0  0  0
  -16.5090  -29.8810   23.6920 C   0  0  0  0  0  3  0  0  0  0  0  0
  -16.7200  -28.6200   23.1080 C   0  0  0  0  0  3  0  0  0  0  0  0
  -25.8970  -32.5410   23.8710 C   0  0  0  0  0  3  0  0  0  0  0  0
  -25.5880  -33.9420   24.1990 N   0  0  0  0  0  0  0  0  0  0  0  0
  -25.9140  -34.9950   23.4360 C   0  0  0  0  0  0  0  0  0  0  0  0
  -26.5720  -34.8880   22.3980 O   0  0  0  0  0  0  0  0  0  0  0  0
  -25.0010  -34.0970   25.0040 H   0  0  0  0  0  0  0  0  0  0  0  0
  -24.1800  -36.7890   23.1040 C   0  0  0  0  0  1  0  0  0  0  0  0
  -25.4340  -36.3860   23.8960 C   0  0  0  0  0  3  0  0  0  0  0  0
  -27.5810  -37.2780   24.6910 C   0  0  0  0  0  1  0  0  0  0  0  0
  -26.4650  -37.4390   23.7610 N   0  0  0  0  0  0  0  0  0  0  0  0
  -26.0610  -38.3600   23.9090 H   0  0  0  0  0  0  0  0  0  0  0  0
  -26.4020  -31.7760   25.1570 C   0  0  1  0  0  0  0  0  0  0  0  0
  -25.3020  -31.5490   26.2210 C   0  0  0  0  0  1  0  0  0  0  0  0
  -26.9810  -30.3920   24.7810 C   0  0  0  0  0  1  0  0  0  0  0  0
  -27.5520  -32.5690   25.8210 C   0  0  0  0  0  1  0  0  0  0  0  0
  1 45  1  0
  2 16  1  0
  3  8  1  0
  4  5  1  0
  4  3  1  0
  6  5  1  0
  6 20  1  0
  6  7  1  0
  8  2  1  0
  8  7  1  0
  9  2  2  0
 12 16  1  0
 13 11  1  0
 13 10  1  0
 14 12  1  0
 14 13  1  0
 14 15  1  0
 15  1  1  0
 15 10  1  0
 16 11  1  0
 17 18  2  0
 18 37  1  0
 19 18  1  0
 19 22  1  0
 20 17  1  0
 20 21  1  0
 21 19  2  0
 22 23  1  0
 23 24  2  0
 25 28  1  0
 25 24  1  0
 26 25  2  0
 27 26  1  0
 27 22  2  0
 28 29  1  0
 29 30  1  0
 30 31  2  0
 32 31  1  0
 32 36  1  0
 33 32  2  0
 34 29  2  0
 34 33  1  0
 35 34  1  0
 37 38  1  0
 38 41  1  0
 38 40  1  0
 39 37  2  0
 42 43  1  0
 42 17  1  0
 44 42  1  0
 46 47  1  0
 46 45  2  0
 48 59  2  0
 49 47  1  0
 49 54  1  0
 50 58  1  0
 50 60  1  0
 51 57  1  0
 51 53  1  0
 52 58  1  0
 53 54  2  0
 53 52  1  0
 55 49  2  0
 56 55  1  0
 56 51  2  0
 57 50  1  0
 58 48  1  0
 60 62  2  0
 61 60  1  0
 63 61  1  0
 64 73  2  0
 64 69  1  0
 65 61  1  0
 65 69  1  0
 66 65  1  0
 67 68  1  0
 67 66  1  0
 68 64  1  0
 69 70  2  0
 70 71  1  0
 72 71  2  0
 73 72  1  0
 74 48  1  0
 74 75  1  0
 74 84  1  0
 75 78  1  0
 76 80  1  0
 76 75  1  0
 77 76  2  0
 80 79  1  0
 82 80  1  0
 82 83  1  0
 82 81  1  0
 84 87  1  1
 84 85  1  0
 86 84  1  0
M  ISO  4   2 100  16 100  46 101  47 101
M  END
>  <TORSDO>  (47) 
F 18

>  <SCORE>  (47) 
-16.370

>  <name>  (47) 
47

>  <ligand_id>  (47) 
47

>  <original_smiles>  (47) 
[H]c1c([H])c([H])c2c(c1[H])C([H])([H])C([H])([H])C([H])([H])C2([H])N([H])C(=O)C1([H])N(C(=O)C([H])(N([H])C(=O)C([H])(N([H])C([H])([H])[H])C([H])([H])[H])C(C([H])([H])[H])(C([H])([H])[H])C([H])([H])[H])C([H])([H])c2c([H])c(OC([H])([H])C([H])([H])C([H])([H])C3([H])C([H])([H])C4([H])C([H])([H])N(C(=O)N5C([H])([H])C([H])([H])C([H])([H])C([H])(n6nc(-c7c([H])c([H])c(Oc8c([H])c([H])c(F)c([H])c8F)c([H])c7[H])c(C(=O)N([H])[H])c6N([H])[H])C5([H])[H])C([H])([H])C43[H])c([H])c([H])c2C1([H])[H]

>  <smiles>  (47) 
[H]c1c([H])c([H])c2c(c1[H])C([H])([H])C([H])([H])C([H])([H])C2([H])N([H])C(=O)C1([H])N(C(=O)C([H])(N([H])C(=O)C([H])(N([H])C([H])([H])[H])C([H])([H])[H])C(C([H])([H])[H])(C([H])([H])[H])C([H])([H])[H])C([H])([H])c2c([H])c(OC([H])([H])C([H])([H])C([H])([H])C3([H])C([H])([H])C4([H])C([H])([H])N(C(=O)N5C([H])([H])C([H])([H])C([H])([H])C([H])(n6nc(-c7c([H])c([H])c(Oc8c([H])c([H])c(F)c([H])c8F)c([H])c7[H])c(C(=O)N([H])[H])c6N([H])[H])C5([H])[H])C([H])([H])C43[H])c([H])c([H])c2C1([H])[H]

$$$$
48:0:0
     RDKit          3D

 95104  0  0  1  0  0  0  0  0999 V2000
  -26.8690  -21.4350   18.5410 C   0  0  0  0  0  2  0  0  0  0  0  0
  -26.8600  -21.5810   20.0570 C   0  0  0  0  0  2  0  0  0  0  0  0
  -28.7390  -19.5170   18.7410 C   0  0  0  0  0  2  0  0  0  0  0  0
  -29.2120  -20.6100   20.8170 C   0  0  0  0  0  2  0  0  0  0  0  0
  -28.3420  -21.0440   18.6550 C   0  0  0  0  0  3  0  0  0  0  0  0
  -28.9380  -19.0900   20.2250 C   0  0  0  0  0  3  0  0  0  0  0  0
  -28.3940  -21.7750   20.0290 C   0  0  1  0  0  0  0  0  0  0  0  0
  -28.8370  -23.4090   20.1710 C   0  0  0  0  0  3  0  0  0  0  0  0
  -27.8630  -24.7520   19.8400 C   0  0  0  0  0  3  0  0  0  0  0  0
  -28.1610  -26.2630   20.0890 O   0  0  0  0  0  0  0  0  0  0  0  0
  -24.6470  -31.8340   23.4030 C   0  0  0  0  0  0  0  0  0  0  0  0
  -27.1170  -27.2600   20.0860 C   0  0  0  0  0  0  0  0  0  0  0  0
  -23.4040  -30.5420   21.7130 C   0  0  0  0  0  3  0  0  0  0  0  0
  -24.8100  -29.0300   20.1830 C   0  0  0  0  0  0  0  0  0  0  0  0
  -25.9590  -30.7870   21.5200 C   0  0  0  0  0  2  0  0  0  0  0  0
  -26.0050  -29.4310   20.7930 C   0  0  0  0  0  0  0  0  0  0  0  0
  -27.1590  -28.5640   20.7280 C   0  0  0  0  0  3  0  0  0  0  0  0
  -25.8960  -26.9630   19.4420 C   0  0  0  0  0  3  0  0  0  0  0  0
  -24.7680  -27.8100   19.4910 C   0  0  0  0  0  3  0  0  0  0  0  0
  -23.5950  -29.9370   20.2960 C   0  0  0  0  0  2  0  0  0  0  0  0
  -24.6910  -31.0740   22.2670 N   0  0  0  0  0  0  0  0  0  0  0  0
  -23.5720  -32.1030   23.9630 O   0  0  0  0  0  0  0  0  0  0  0  0
  -22.7280  -29.4920   22.6310 C   0  0  0  0  0  0  0  0  0  0  0  0
  -21.4060  -29.3050   22.4770 N   0  0  0  0  0  0  0  0  0  0  0  0
  -23.3980  -28.8510   23.4450 O   0  0  0  0  0  0  0  0  0  0  0  0
  -20.9220  -29.8750   21.7980 H   0  0  0  0  0  0  0  0  0  0  0  0
  -18.0450  -28.0050   22.8530 C   0  0  0  0  0  0  0  0  0  0  0  0
  -20.5870  -28.3310   23.2050 C   0  0  0  0  0  3  0  0  0  0  0  0
  -20.7450  -26.9130   22.6080 C   0  0  0  0  0  2  0  0  0  0  0  0
  -19.6830  -26.5810   21.5540 C   0  0  0  0  0  2  0  0  0  0  0  0
  -18.2790  -26.6750   22.1570 C   0  0  0  0  0  2  0  0  0  0  0  0
  -19.1280  -28.7890   23.3310 C   0  0  0  0  0  0  0  0  0  0  0  0
  -18.8550  -30.0330   23.9420 C   0  0  0  0  0  3  0  0  0  0  0  0
  -17.5320  -30.4930   24.0800 C   0  0  0  0  0  3  0  0  0  0  0  0
  -16.4630  -29.7050   23.6180 C   0  0  0  0  0  3  0  0  0  0  0  0
  -16.7200  -28.4640   23.0090 C   0  0  0  0  0  3  0  0  0  0  0  0
  -25.9430  -32.4200   24.0430 C   0  0  0  0  0  3  0  0  0  0  0  0
  -25.6640  -33.8160   24.4180 N   0  0  0  0  0  0  0  0  0  0  0  0
  -26.0070  -34.8870   23.6900 C   0  0  0  0  0  0  0  0  0  0  0  0
  -26.6580  -34.8030   22.6450 O   0  0  0  0  0  0  0  0  0  0  0  0
  -25.0860  -33.9560   25.2330 H   0  0  0  0  0  0  0  0  0  0  0  0
  -24.3080  -36.7260   23.4330 C   0  0  0  0  0  1  0  0  0  0  0  0
  -25.5600  -36.2710   24.2010 C   0  0  0  0  0  3  0  0  0  0  0  0
  -27.7290  -37.0940   25.0090 C   0  0  0  0  0  1  0  0  0  0  0  0
  -26.6100  -37.3070   24.0930 N   0  0  0  0  0  0  0  0  0  0  0  0
  -26.2260  -38.2310   24.2720 H   0  0  0  0  0  0  0  0  0  0  0  0
  -26.4390  -31.6030   25.2980 C   0  0  1  0  0  0  0  0  0  0  0  0
  -25.3390  -31.3600   26.3590 C   0  0  0  0  0  1  0  0  0  0  0  0
  -26.9930  -30.2230   24.8720 C   0  0  0  0  0  1  0  0  0  0  0  0
  -27.6060  -32.3530   25.9830 C   0  0  0  0  0  1  0  0  0  0  0  0
  -29.8920  -17.7230   20.5650 C   0  0  0  0  0  3  0  0  0  0  0  0
  -30.1920  -15.0470   19.9250 C   0  0  0  0  0  0  0  0  0  0  0  0
  -29.9760  -12.7850   18.8030 C   0  0  0  0  0  2  0  0  0  0  0  0
  -28.9220  -12.8250   17.6720 C   0  0  0  0  0  2  0  0  0  0  0  0
  -27.5130  -12.5590   18.2340 C   0  0  0  0  0  2  0  0  0  0  0  0
  -27.2220  -13.3800   19.5170 C   0  0  0  0  0  3  0  0  0  0  0  0
  -28.3870  -13.3230   20.5280 C   0  0  0  0  0  2  0  0  0  0  0  0
  -29.5840  -13.7990   19.8230 N   0  0  0  0  0  0  0  0  0  0  0  0
  -31.3600  -15.1370   19.5360 O   0  0  0  0  0  0  0  0  0  0  0  0
  -29.4670  -16.2130   20.3050 N   0  0  0  0  0  0  0  0  0  0  0  0
  -28.4970  -16.0230   20.5060 H   0  0  0  0  0  0  0  0  0  0  0  0
  -24.9010  -13.8500   20.4860 C   0  0  0  0  0  0  0  0  0  0  0  0
  -23.9000  -13.0260   20.9210 C   0  0  0  0  0  0  0  0  0  0  0  0
  -24.4040  -11.6940   20.8020 C   0  0  0  0  0  0  0  0  0  0  0  0
  -25.9470  -13.0180   20.1240 N   0  0  0  0  0  0  0  0  0  0  0  0
  -25.6630  -11.7140   20.3790 N   0  0  0  0  0  0  0  0  0  0  0  0
  -23.7390  -10.4010   21.0090 C   0  0  0  0  0  0  0  0  0  0  0  0
  -24.2270   -9.4580   21.9390 C   0  0  0  0  0  3  0  0  0  0  0  0
  -23.5570   -8.2300   22.1330 C   0  0  0  0  0  3  0  0  0  0  0  0
  -22.3830   -7.9380   21.3990 C   0  0  0  0  0  0  0  0  0  0  0  0
  -21.9140   -8.8710   20.4580 C   0  0  0  0  0  3  0  0  0  0  0  0
  -22.5850  -10.0890   20.2610 C   0  0  0  0  0  3  0  0  0  0  0  0
  -21.6800   -6.7620   21.5040 O   0  0  0  0  0  0  0  0  0  0  0  0
  -21.6240   -6.0610   22.6820 C   0  0  0  0  0  0  0  0  0  0  0  0
  -21.1060   -6.6320   23.8650 C   0  0  0  0  0  3  0  0  0  0  0  0
  -21.0020   -5.8540   25.0350 C   0  0  0  0  0  3  0  0  0  0  0  0
  -21.4040   -4.5050   25.0230 C   0  0  0  0  0  0  0  0  0  0  0  0
  -21.9130   -3.9330   23.8430 C   0  0  0  0  0  3  0  0  0  0  0  0
  -22.0190   -4.7080   22.6760 C   0  0  0  0  0  0  0  0  0  0  0  0
  -22.4910   -4.1460   21.5370 F   0  0  0  0  0  0  0  0  0  0  0  0
  -21.2960   -3.7540   26.1440 F   0  0  0  0  0  0  0  0  0  0  0  0
  -22.5170  -13.4440   21.3280 C   0  0  0  0  0  0  0  0  0  0  0  0
  -21.9000  -12.7090   22.2460 N   0  0  0  0  0  0  0  0  0  0  0  0
  -21.9950  -14.4580   20.8660 O   0  0  0  0  0  0  0  0  0  0  0  0
  -22.3370  -11.8890   22.6400 H   0  0  0  0  0  0  0  0  0  0  0  0
  -20.9770  -12.9710   22.5610 H   0  0  0  0  0  0  0  0  0  0  0  0
  -25.0010  -15.2310   20.3420 N   0  0  0  0  0  0  0  0  0  0  0  0
  -24.2190  -15.8470   20.5350 H   0  0  0  0  0  0  0  0  0  0  0  0
  -25.7830  -15.7100   19.9160 H   0  0  0  0  0  0  0  0  0  0  0  0
  -30.3040  -17.8670   22.0580 C   0  0  0  0  0  2  0  0  0  0  0  0
  -31.2790  -16.8140   22.6310 C   0  0  0  0  0  2  0  0  0  0  0  0
  -31.6210  -17.0740   24.0410 N   0  0  0  0  0  4  0  0  0  0  0  0
  -32.0840  -17.9600   24.1450 H   0  0  0  0  0  0  0  0  0  0  0  0
  -32.2440  -16.3610   24.3790 H   0  0  0  0  0  0  0  0  0  0  0  0
  -30.8010  -17.0680   24.6200 H   0  0  0  0  0  0  0  0  0  0  0  0
  1  2  1  0
  3  6  1  0
  5  1  1  0
  5  3  1  0
  5  7  1  0
  6 51  1  0
  6  4  1  0
  7  2  1  0
  7  8  1  6
  7  4  1  0
  9 10  1  0
  9  8  2  0
 11 22  2  0
 12 10  1  0
 12 17  1  0
 13 21  1  0
 13 23  1  0
 14 20  1  0
 14 16  1  0
 15 21  1  0
 16 15  1  0
 17 16  2  0
 18 19  1  0
 18 12  2  0
 19 14  2  0
 20 13  1  0
 21 11  1  0
 23 25  2  0
 24 23  1  0
 26 24  1  0
 27 36  2  0
 27 32  1  0
 28 24  1  0
 28 32  1  0
 29 28  1  0
 30 31  1  0
 30 29  1  0
 31 27  1  0
 32 33  2  0
 33 34  1  0
 35 34  2  0
 36 35  1  0
 37 11  1  0
 37 38  1  0
 37 47  1  0
 38 41  1  0
 39 43  1  0
 39 38  1  0
 40 39  2  0
 43 42  1  0
 45 43  1  0
 45 46  1  0
 45 44  1  0
 47 50  1  1
 47 48  1  0
 49 47  1  0
 51 90  1  0
 52 60  1  0
 53 58  1  0
 54 55  1  0
 54 53  1  0
 56 55  1  0
 56 65  1  0
 56 57  1  0
 58 52  1  0
 58 57  1  0
 59 52  2  0
 60 61  1  0
 60 51  1  0
 62 63  2  0
 63 82  1  0
 64 63  1  0
 64 67  1  0
 65 66  1  0
 65 62  1  0
 66 64  2  0
 67 68  1  0
 68 69  2  0
 70 73  1  0
 70 69  1  0
 71 70  2  0
 72 71  1  0
 72 67  2  0
 73 74  1  0
 74 75  1  0
 75 76  2  0
 77 76  1  0
 77 81  1  0
 78 77  2  0
 79 74  2  0
 79 78  1  0
 80 79  1  0
 82 83  1  0
 83 86  1  0
 83 85  1  0
 84 82  2  0
 87 62  1  0
 87 88  1  0
 89 87  1  0
 90 91  1  0
 91 92  1  0
 92 93  1  0
 92 94  1  0
 92 95  1  0
M  ISO  4   9 101  10 101  52 100  60 100
M  END
>  <TORSDO>  (48) 
F 22

>  <SCORE>  (48) 
-11.195

>  <name>  (48) 
48

>  <ligand_id>  (48) 
48

>  <original_smiles>  (48) 
[H]c1c([H])c([H])c2c(c1[H])C([H])([H])C([H])([H])C([H])([H])C2([H])N([H])C(=O)C1([H])N(C(=O)C([H])(N([H])C(=O)C([H])(N([H])C([H])([H])[H])C([H])([H])[H])C(C([H])([H])[H])(C([H])([H])[H])C([H])([H])[H])C([H])([H])c2c([H])c(OC([H])([H])C([H])([H])C34C([H])([H])C([H])([H])C3([H])C([H])([H])C([H])(C([H])(N([H])C(=O)N3C([H])([H])C([H])([H])C([H])([H])C([H])(n5nc(-c6c([H])c([H])c(Oc7c([H])c([H])c(F)c([H])c7F)c([H])c6[H])c(C(=O)N([H])[H])c5N([H])[H])C3([H])[H])C([H])([H])C([H])([H])[N+]([H])([H])[H])C4([H])[H])c([H])c([H])c2C1([H])[H]

>  <smiles>  (48) 
[H]c1c([H])c([H])c2c(c1[H])C([H])([H])C([H])([H])C([H])([H])C2([H])N([H])C(=O)C1([H])N(C(=O)C([H])(N([H])C(=O)C([H])(N([H])C([H])([H])[H])C([H])([H])[H])C(C([H])([H])[H])(C([H])([H])[H])C([H])([H])[H])C([H])([H])c2c([H])c(OC([H])([H])C([H])([H])C34C([H])([H])C([H])([H])C3([H])C([H])([H])C([H])(C([H])(N([H])C(=O)N3C([H])([H])C([H])([H])C([H])([H])C([H])(n5nc(-c6c([H])c([H])c(Oc7c([H])c([H])c(F)c([H])c7F)c([H])c6[H])c(C(=O)N([H])[H])c5N([H])[H])C3([H])[H])C([H])([H])C([H])([H])[N+]([H])([H])[H])C4([H])[H])c([H])c([H])c2C1([H])[H]

$$$$
49:0:0
     RDKit          3D

 91100  0  0  1  0  0  0  0  0999 V2000
  -28.1040  -22.0110   21.6680 C   0  0  0  0  0  2  0  0  0  0  0  0
  -29.4040  -21.8970   22.4720 C   0  0  0  0  0  2  0  0  0  0  0  0
  -31.0970  -21.1600   20.4770 C   0  0  0  0  0  2  0  0  0  0  0  0
  -28.5730  -21.9720   20.2160 C   0  0  0  0  0  3  0  0  0  0  0  0
  -30.2930  -20.9070   21.7270 C   0  0  2  0  0  0  0  0  0  0  0  0
  -29.6620  -20.7200   20.3290 C   0  0  2  0  0  0  0  0  0  0  0  0
  -31.7710  -20.3990   23.7450 C   0  0  0  0  0  1  0  0  0  0  0  0
  -30.8200  -19.8360   22.6790 C   0  0  0  0  0  2  0  0  0  0  0  0
  -28.9680  -23.5790   19.8620 C   0  0  0  0  0  3  0  0  0  0  0  0
  -27.8830  -24.8610   19.8630 C   0  0  0  0  0  3  0  0  0  0  0  0
  -28.1750  -26.3840   19.8550 O   0  0  0  0  0  0  0  0  0  0  0  0
  -24.6120  -31.9440   23.1020 C   0  0  0  0  0  0  0  0  0  0  0  0
  -27.1010  -27.3420   19.8630 C   0  0  0  0  0  0  0  0  0  0  0  0
  -23.3540  -30.5700   21.4900 C   0  0  0  0  0  3  0  0  0  0  0  0
  -24.7520  -29.0460   19.9710 C   0  0  0  0  0  0  0  0  0  0  0  0
  -25.8940  -30.8740   21.2150 C   0  0  0  0  0  2  0  0  0  0  0  0
  -25.9530  -29.4980   20.5320 C   0  0  0  0  0  0  0  0  0  0  0  0
  -27.1290  -28.6640   20.4590 C   0  0  0  0  0  3  0  0  0  0  0  0
  -25.8660  -26.9850   19.2730 C   0  0  0  0  0  3  0  0  0  0  0  0
  -24.7190  -27.8020   19.3270 C   0  0  0  0  0  3  0  0  0  0  0  0
  -23.5190  -29.9250   20.0890 C   0  0  0  0  0  2  0  0  0  0  0  0
  -24.6420  -31.1490   21.9910 N   0  0  0  0  0  0  0  0  0  0  0  0
  -23.5470  -32.2070   23.6820 O   0  0  0  0  0  0  0  0  0  0  0  0
  -22.7310  -29.5340   22.4580 C   0  0  0  0  0  0  0  0  0  0  0  0
  -21.4110  -29.3030   22.3400 N   0  0  0  0  0  0  0  0  0  0  0  0
  -23.4360  -28.9400   23.2780 O   0  0  0  0  0  0  0  0  0  0  0  0
  -20.8970  -29.8370   21.6540 H   0  0  0  0  0  0  0  0  0  0  0  0
  -18.1100  -27.8820   22.7960 C   0  0  0  0  0  0  0  0  0  0  0  0
  -20.6360  -28.3340   23.1190 C   0  0  0  0  0  3  0  0  0  0  0  0
  -20.8540  -26.8950   22.5950 C   0  0  0  0  0  2  0  0  0  0  0  0
  -19.8060  -26.4640   21.5630 C   0  0  0  0  0  2  0  0  0  0  0  0
  -18.4010  -26.5290   22.1670 C   0  0  0  0  0  2  0  0  0  0  0  0
  -19.1600  -28.7360   23.2280 C   0  0  0  0  0  0  0  0  0  0  0  0
  -18.8350  -29.9950   23.7760 C   0  0  0  0  0  3  0  0  0  0  0  0
  -17.4940  -30.4060   23.8930 C   0  0  0  0  0  3  0  0  0  0  0  0
  -16.4590  -29.5510   23.4760 C   0  0  0  0  0  3  0  0  0  0  0  0
  -16.7670  -28.2920   22.9340 C   0  0  0  0  0  3  0  0  0  0  0  0
  -25.9090  -32.5800   23.6870 C   0  0  0  0  0  3  0  0  0  0  0  0
  -25.5990  -33.9690   24.0600 N   0  0  0  0  0  0  0  0  0  0  0  0
  -25.9200  -35.0460   23.3320 C   0  0  0  0  0  0  0  0  0  0  0  0
  -26.5770  -34.9760   22.2900 O   0  0  0  0  0  0  0  0  0  0  0  0
  -25.0120  -34.0970   24.8720 H   0  0  0  0  0  0  0  0  0  0  0  0
  -24.1910  -36.8540   23.0530 C   0  0  0  0  0  1  0  0  0  0  0  0
  -25.4380  -36.4200   23.8390 C   0  0  0  0  0  3  0  0  0  0  0  0
  -27.5820  -37.2770   24.6780 C   0  0  0  0  0  1  0  0  0  0  0  0
  -26.4720  -37.4750   23.7510 N   0  0  0  0  0  0  0  0  0  0  0  0
  -26.0680  -38.3900   23.9290 H   0  0  0  0  0  0  0  0  0  0  0  0
  -26.4810  -31.7910   24.9290 C   0  0  1  0  0  0  0  0  0  0  0  0
  -25.4320  -31.5280   26.0350 C   0  0  0  0  0  1  0  0  0  0  0  0
  -27.0590  -30.4250   24.4950 C   0  0  0  0  0  1  0  0  0  0  0  0
  -27.6500  -32.5830   25.5600 C   0  0  0  0  0  1  0  0  0  0  0  0
  -29.2360  -19.1280   20.0680 C   0  0  0  0  0  3  0  0  0  0  0  0
  -30.2890  -17.8200   19.9130 C   0  0  0  0  0  3  0  0  0  0  0  0
  -30.6570  -15.1230   19.9140 C   0  0  0  0  0  0  0  0  0  0  0  0
  -30.4930  -12.7600   19.0420 C   0  0  0  0  0  2  0  0  0  0  0  0
  -29.5020  -12.6950   17.8590 C   0  0  0  0  0  2  0  0  0  0  0  0
  -28.0620  -12.4870   18.3690 C   0  0  0  0  0  2  0  0  0  0  0  0
  -27.7070  -13.4330   19.5460 C   0  0  0  0  0  3  0  0  0  0  0  0
  -28.8190  -13.4780   20.6180 C   0  0  0  0  0  2  0  0  0  0  0  0
  -30.0580  -13.8700   19.9330 N   0  0  0  0  0  0  0  0  0  0  0  0
  -31.8390  -15.1890   19.5640 O   0  0  0  0  0  0  0  0  0  0  0  0
  -29.8940  -16.3050   20.0740 N   0  0  0  0  0  0  0  0  0  0  0  0
  -28.9290  -16.1390   20.3180 H   0  0  0  0  0  0  0  0  0  0  0  0
  -25.3820  -14.0090   20.4500 C   0  0  0  0  0  0  0  0  0  0  0  0
  -24.3360  -13.2310   20.8630 C   0  0  0  0  0  0  0  0  0  0  0  0
  -24.7840  -11.8780   20.7630 C   0  0  0  0  0  0  0  0  0  0  0  0
  -26.4000  -13.1300   20.1180 N   0  0  0  0  0  0  0  0  0  0  0  0
  -26.0530  -11.8420   20.3710 N   0  0  0  0  0  0  0  0  0  0  0  0
  -24.0580  -10.6160   20.9590 C   0  0  0  0  0  0  0  0  0  0  0  0
  -24.5040   -9.6420   21.8790 C   0  0  0  0  0  3  0  0  0  0  0  0
  -23.7770   -8.4470   22.0650 C   0  0  0  0  0  3  0  0  0  0  0  0
  -22.5890   -8.2160   21.3300 C   0  0  0  0  0  0  0  0  0  0  0  0
  -22.1620   -9.1790   20.4000 C   0  0  0  0  0  3  0  0  0  0  0  0
  -22.8900  -10.3670   20.2120 C   0  0  0  0  0  3  0  0  0  0  0  0
  -21.8320   -7.0740   21.4270 O   0  0  0  0  0  0  0  0  0  0  0  0
  -21.7660   -6.3500   22.5900 C   0  0  0  0  0  0  0  0  0  0  0  0
  -21.3040   -6.9190   23.7970 C   0  0  0  0  0  3  0  0  0  0  0  0
  -21.1860   -6.1210   24.9520 C   0  0  0  0  0  3  0  0  0  0  0  0
  -21.5200   -4.7540   24.9020 C   0  0  0  0  0  0  0  0  0  0  0  0
  -21.9740   -4.1840   23.6990 C   0  0  0  0  0  3  0  0  0  0  0  0
  -22.0940   -4.9800   22.5470 C   0  0  0  0  0  0  0  0  0  0  0  0
  -22.5120   -4.4200   21.3860 F   0  0  0  0  0  0  0  0  0  0  0  0
  -21.3990   -3.9850   26.0090 F   0  0  0  0  0  0  0  0  0  0  0  0
  -22.9620  -13.7110   21.2320 C   0  0  0  0  0  0  0  0  0  0  0  0
  -22.2790  -12.9950   22.1180 N   0  0  0  0  0  0  0  0  0  0  0  0
  -22.5060  -14.7570   20.7720 O   0  0  0  0  0  0  0  0  0  0  0  0
  -22.6630  -12.1490   22.5140 H   0  0  0  0  0  0  0  0  0  0  0  0
  -21.3600  -13.2990   22.4070 H   0  0  0  0  0  0  0  0  0  0  0  0
  -25.5460  -15.3830   20.3010 N   0  0  0  0  0  0  0  0  0  0  0  0
  -24.7880  -16.0350   20.4780 H   0  0  0  0  0  0  0  0  0  0  0  0
  -26.3630  -15.8270   19.9020 H   0  0  0  0  0  0  0  0  0  0  0  0
  1  2  1  0
  3  5  1  0
  4  9  1  0
  4  6  1  0
  4  1  1  0
  5  2  1  0
  5  8  1  1
  6 52  1  6
  6  3  1  0
  6  5  1  0
  8  7  1  0
  9 10  2  0
 11 10  1  0
 11 13  1  0
 12 23  2  0
 13 18  1  0
 14 22  1  0
 14 24  1  0
 15 21  1  0
 15 17  1  0
 16 22  1  0
 17 16  1  0
 18 17  2  0
 19 20  1  0
 19 13  2  0
 20 15  2  0
 21 14  1  0
 22 12  1  0
 24 26  2  0
 25 24  1  0
 27 25  1  0
 28 37  2  0
 28 33  1  0
 29 25  1  0
 29 33  1  0
 30 29  1  0
 31 32  1  0
 31 30  1  0
 32 28  1  0
 33 34  2  0
 34 35  1  0
 36 35  2  0
 37 36  1  0
 38 12  1  0
 38 39  1  0
 38 48  1  0
 39 42  1  0
 40 44  1  0
 40 39  1  0
 41 40  2  0
 44 43  1  0
 46 44  1  0
 46 47  1  0
 46 45  1  0
 48 51  1  1
 48 49  1  0
 50 48  1  0
 53 52  2  0
 53 62  1  0
 54 60  1  0
 54 62  1  0
 55 60  1  0
 56 57  1  0
 56 55  1  0
 58 57  1  0
 58 67  1  0
 58 59  1  0
 60 59  1  0
 61 54  2  0
 62 63  1  0
 64 65  2  0
 65 84  1  0
 66 65  1  0
 66 69  1  0
 67 68  1  0
 67 64  1  0
 68 66  2  0
 69 70  1  0
 70 71  2  0
 72 75  1  0
 72 71  1  0
 73 72  2  0
 74 73  1  0
 74 69  2  0
 75 76  1  0
 76 77  1  0
 77 78  2  0
 79 78  1  0
 79 83  1  0
 80 79  2  0
 81 76  2  0
 81 80  1  0
 82 81  1  0
 84 85  1  0
 85 88  1  0
 85 87  1  0
 86 84  2  0
 89 64  1  0
 89 90  1  0
 91 89  1  0
M  ISO  4  10 101  11 101  54 100  62 100
M  END
>  <TORSDO>  (49) 
F 21

>  <SCORE>  (49) 
-13.548

>  <name>  (49) 
49

>  <ligand_id>  (49) 
49

>  <original_smiles>  (49) 
[H]c1c([H])c([H])c2c(c1[H])C([H])([H])C([H])([H])C([H])([H])C2([H])N([H])C(=O)C1([H])N(C(=O)C([H])(N([H])C(=O)C([H])(N([H])C([H])([H])[H])C([H])([H])[H])C(C([H])([H])[H])(C([H])([H])[H])C([H])([H])[H])C([H])([H])c2c([H])c(OC([H])([H])C([H])([H])C3([H])C([H])([H])C([H])([H])C4(C([H])([H])C([H])([H])[H])C([H])([H])C34C([H])([H])C([H])([H])N([H])C(=O)N3C([H])([H])C([H])([H])C([H])([H])C([H])(n4nc(-c5c([H])c([H])c(Oc6c([H])c([H])c(F)c([H])c6F)c([H])c5[H])c(C(=O)N([H])[H])c4N([H])[H])C3([H])[H])c([H])c([H])c2C1([H])[H]

>  <smiles>  (49) 
[H]c1c([H])c([H])c2c(c1[H])C([H])([H])C([H])([H])C([H])([H])C2([H])N([H])C(=O)C1([H])N(C(=O)C([H])(N([H])C(=O)C([H])(N([H])C([H])([H])[H])C([H])([H])[H])C(C([H])([H])[H])(C([H])([H])[H])C([H])([H])[H])C([H])([H])c2c([H])c(OC([H])([H])C([H])([H])C3([H])C([H])([H])C([H])([H])C4(C([H])([H])C([H])([H])[H])C([H])([H])C34C([H])([H])C([H])([H])N([H])C(=O)N3C([H])([H])C([H])([H])C([H])([H])C([H])(n4nc(-c5c([H])c([H])c(Oc6c([H])c([H])c(F)c([H])c6F)c([H])c5[H])c(C(=O)N([H])[H])c4N([H])[H])C3([H])[H])c([H])c([H])c2C1([H])[H]

$$$$
50:0:0
     RDKit          3D

 95104  0  0  1  0  0  0  0  0999 V2000
  -30.4250  -20.6760   21.5690 C   0  0  0  0  0  2  0  0  0  0  0  0
  -29.2880  -21.5940   21.2080 N   0  0  0  0  0  4  0  0  0  0  0  0
  -29.1790  -21.5380   20.2090 H   0  0  0  0  0  0  0  0  0  0  0  0
  -28.4310  -21.2670   21.6260 H   0  0  0  0  0  0  0  0  0  0  0  0
  -29.4510  -23.0440   21.5830 C   0  0  0  0  0  3  0  0  0  0  0  0
  -28.6930  -24.0830   20.6750 C   0  0  0  0  0  3  0  0  0  0  0  0
  -28.5180  -25.5330   21.2560 C   0  0  0  0  0  2  0  0  0  0  0  0
  -28.4350  -26.6010   20.2750 O   0  0  0  0  0  0  0  0  0  0  0  0
  -24.5930  -31.8520   23.2600 C   0  0  0  0  0  0  0  0  0  0  0  0
  -27.2800  -27.3650   20.2710 C   0  0  0  0  0  0  0  0  0  0  0  0
  -23.4130  -30.4430   21.6060 C   0  0  0  0  0  3  0  0  0  0  0  0
  -24.8910  -28.8990   20.2040 C   0  0  0  0  0  0  0  0  0  0  0  0
  -25.9430  -30.8000   21.4470 C   0  0  0  0  0  2  0  0  0  0  0  0
  -26.0420  -29.4240   20.8080 C   0  0  0  0  0  0  0  0  0  0  0  0
  -27.2410  -28.6700   20.8280 C   0  0  0  0  0  3  0  0  0  0  0  0
  -26.1170  -26.8660   19.6530 C   0  0  0  0  0  3  0  0  0  0  0  0
  -24.9260  -27.6230   19.6160 C   0  0  0  0  0  3  0  0  0  0  0  0
  -23.6460  -29.7590   20.2320 C   0  0  0  0  0  2  0  0  0  0  0  0
  -24.6660  -31.0500   22.1600 N   0  0  0  0  0  0  0  0  0  0  0  0
  -23.5030  -32.1260   23.7830 O   0  0  0  0  0  0  0  0  0  0  0  0
  -22.7460  -29.4270   22.5610 C   0  0  0  0  0  0  0  0  0  0  0  0
  -21.4320  -29.2140   22.3880 N   0  0  0  0  0  0  0  0  0  0  0  0
  -23.4100  -28.8290   23.4120 O   0  0  0  0  0  0  0  0  0  0  0  0
  -20.9600  -29.7390   21.6670 H   0  0  0  0  0  0  0  0  0  0  0  0
  -18.0700  -27.9360   22.7650 C   0  0  0  0  0  0  0  0  0  0  0  0
  -20.6040  -28.2760   23.1460 C   0  0  0  0  0  3  0  0  0  0  0  0
  -20.7760  -26.8360   22.6130 C   0  0  0  0  0  2  0  0  0  0  0  0
  -19.7310  -26.4550   21.5610 C   0  0  0  0  0  2  0  0  0  0  0  0
  -18.3150  -26.5750   22.1350 C   0  0  0  0  0  2  0  0  0  0  0  0
  -19.1450  -28.7420   23.2240 C   0  0  0  0  0  0  0  0  0  0  0  0
  -18.8630  -30.0130   23.7710 C   0  0  0  0  0  3  0  0  0  0  0  0
  -17.5380  -30.4780   23.8650 C   0  0  0  0  0  3  0  0  0  0  0  0
  -16.4760  -29.6710   23.4230 C   0  0  0  0  0  3  0  0  0  0  0  0
  -16.7430  -28.4010   22.8780 C   0  0  0  0  0  3  0  0  0  0  0  0
  -25.8680  -32.4870   23.8960 C   0  0  0  0  0  3  0  0  0  0  0  0
  -25.5630  -33.8900   24.2010 N   0  0  0  0  0  0  0  0  0  0  0  0
  -25.9200  -34.9290   23.4340 C   0  0  0  0  0  0  0  0  0  0  0  0
  -26.6110  -34.8050   22.4190 O   0  0  0  0  0  0  0  0  0  0  0  0
  -24.9550  -34.0600   24.9880 H   0  0  0  0  0  0  0  0  0  0  0  0
  -24.2130  -36.7240   23.0160 C   0  0  0  0  0  1  0  0  0  0  0  0
  -25.4330  -36.3260   23.8630 C   0  0  0  0  0  3  0  0  0  0  0  0
  -27.5480  -37.2080   24.7400 C   0  0  0  0  0  1  0  0  0  0  0  0
  -26.4760  -37.3700   23.7610 N   0  0  0  0  0  0  0  0  0  0  0  0
  -26.0740  -38.2950   23.8820 H   0  0  0  0  0  0  0  0  0  0  0  0
  -26.3600  -31.7280   25.1900 C   0  0  1  0  0  0  0  0  0  0  0  0
  -25.2440  -31.5040   26.2380 C   0  0  0  0  0  1  0  0  0  0  0  0
  -26.9490  -30.3460   24.8250 C   0  0  0  0  0  1  0  0  0  0  0  0
  -27.5010  -32.5300   25.8610 C   0  0  0  0  0  1  0  0  0  0  0  0
  -31.1440  -18.7880   23.1410 C   0  0  0  0  0  1  0  0  0  0  0  0
  -30.0520  -19.2560   22.1660 C   0  0  0  0  0  3  0  0  0  0  0  0
  -29.2240  -19.2850   18.8880 C   0  0  0  0  0  2  0  0  0  0  0  0
  -28.2680  -17.5080   19.0680 C   0  0  0  0  0  2  0  0  0  0  0  0
  -30.9360  -17.4190   19.1370 C   0  0  0  0  0  2  0  0  0  0  0  0
  -29.6390  -17.8850   18.4530 C   0  0  0  0  0  3  0  0  0  0  0  0
  -28.6360  -18.5570   20.1230 C   0  0  0  0  0  3  0  0  0  0  0  0
  -29.5890  -18.0540   21.2330 C   0  0  0  0  0  3  0  0  0  0  0  0
  -30.6830  -17.0420   20.6280 C   0  0  0  0  0  3  0  0  0  0  0  0
  -30.9700  -14.5310   20.1740 C   0  0  0  0  0  0  0  0  0  0  0  0
  -30.6180  -12.4090   18.9530 C   0  0  0  0  0  2  0  0  0  0  0  0
  -29.6530  -12.6670   17.7780 C   0  0  0  0  0  2  0  0  0  0  0  0
  -28.1890  -12.5260   18.2280 C   0  0  0  0  0  2  0  0  0  0  0  0
  -27.8880  -13.3100   19.5330 C   0  0  0  0  0  3  0  0  0  0  0  0
  -28.9650  -13.0610   20.6130 C   0  0  0  0  0  2  0  0  0  0  0  0
  -30.2750  -13.3710   20.0200 N   0  0  0  0  0  0  0  0  0  0  0  0
  -32.1060  -14.6620   19.7040 O   0  0  0  0  0  0  0  0  0  0  0  0
  -30.2990  -15.5910   20.7090 N   0  0  0  0  0  0  0  0  0  0  0  0
  -29.3890  -15.3810   21.1010 H   0  0  0  0  0  0  0  0  0  0  0  0
  -25.5090  -13.9410   20.2710 C   0  0  0  0  0  0  0  0  0  0  0  0
  -24.4410  -13.1860   20.6770 C   0  0  0  0  0  0  0  0  0  0  0  0
  -24.8890  -11.8290   20.6520 C   0  0  0  0  0  0  0  0  0  0  0  0
  -26.5360  -13.0460   20.0260 N   0  0  0  0  0  0  0  0  0  0  0  0
  -26.1690  -11.7700   20.3080 N   0  0  0  0  0  0  0  0  0  0  0  0
  -24.1540  -10.5810   20.8740 C   0  0  0  0  0  0  0  0  0  0  0  0
  -24.5530   -9.6580   21.8690 C   0  0  0  0  0  3  0  0  0  0  0  0
  -23.8220   -8.4700   22.0750 C   0  0  0  0  0  3  0  0  0  0  0  0
  -22.6770   -8.1970   21.2850 C   0  0  0  0  0  0  0  0  0  0  0  0
  -22.3020   -9.1060   20.2810 C   0  0  0  0  0  3  0  0  0  0  0  0
  -23.0310  -10.2880   20.0770 C   0  0  0  0  0  3  0  0  0  0  0  0
  -21.9180   -7.0580   21.3930 O   0  0  0  0  0  0  0  0  0  0  0  0
  -21.7760   -6.4050   22.5930 C   0  0  0  0  0  0  0  0  0  0  0  0
  -21.2120   -7.0350   23.7260 C   0  0  0  0  0  3  0  0  0  0  0  0
  -21.0390   -6.3120   24.9230 C   0  0  0  0  0  3  0  0  0  0  0  0
  -21.3940   -4.9520   24.9790 C   0  0  0  0  0  0  0  0  0  0  0  0
  -21.9320   -4.3130   23.8470 C   0  0  0  0  0  3  0  0  0  0  0  0
  -22.1250   -5.0400   22.6590 C   0  0  0  0  0  0  0  0  0  0  0  0
  -22.6320   -4.4200   21.5680 F   0  0  0  0  0  0  0  0  0  0  0  0
  -21.2090   -4.2520   26.1220 F   0  0  0  0  0  0  0  0  0  0  0  0
  -23.0520  -13.6780   20.9830 C   0  0  0  0  0  0  0  0  0  0  0  0
  -22.3430  -13.0000   21.8740 N   0  0  0  0  0  0  0  0  0  0  0  0
  -22.6150  -14.7040   20.4660 O   0  0  0  0  0  0  0  0  0  0  0  0
  -22.7280  -12.1810   22.3200 H   0  0  0  0  0  0  0  0  0  0  0  0
  -21.4300  -13.3220   22.1690 H   0  0  0  0  0  0  0  0  0  0  0  0
  -25.6910  -15.3060   20.0710 N   0  0  0  0  0  0  0  0  0  0  0  0
  -24.9790  -15.9870   20.3140 H   0  0  0  0  0  0  0  0  0  0  0  0
  -26.5100  -15.7170   19.6310 H   0  0  0  0  0  0  0  0  0  0  0  0
  1 50  1  0
  2  1  1  0
  2  5  1  0
  2  4  1  0
  3  2  1  0
  6  7  1  0
  6  5  2  0
  8  7  1  0
  9 20  2  0
 10  8  1  0
 10 15  1  0
 11 19  1  0
 11 21  1  0
 12 18  1  0
 12 14  1  0
 13 19  1  0
 14 15  2  0
 14 13  1  0
 16 10  2  0
 17 16  1  0
 17 12  2  0
 18 11  1  0
 19  9  1  0
 21 23  2  0
 22 21  1  0
 24 22  1  0
 25 34  2  0
 25 30  1  0
 26 22  1  0
 26 30  1  0
 27 26  1  0
 28 29  1  0
 28 27  1  0
 29 25  1  0
 30 31  2  0
 31 32  1  0
 33 32  2  0
 34 33  1  0
 35  9  1  0
 35 36  1  0
 35 45  1  0
 36 39  1  0
 37 41  1  0
 37 36  1  0
 38 37  2  0
 41 40  1  0
 43 41  1  0
 43 44  1  0
 43 42  1  0
 45 48  1  1
 45 46  1  0
 47 45  1  0
 50 49  1  0
 52 55  1  0
 53 57  1  0
 54 51  1  0
 54 52  1  0
 54 53  1  0
 55 51  1  0
 55 56  1  0
 56 50  1  0
 57 66  1  0
 57 56  1  0
 58 66  1  0
 59 64  1  0
 60 61  1  0
 60 59  1  0
 62 61  1  0
 62 71  1  0
 62 63  1  0
 64 58  1  0
 64 63  1  0
 65 58  2  0
 66 67  1  0
 68 69  2  0
 69 88  1  0
 70 69  1  0
 70 73  1  0
 71 68  1  0
 71 72  1  0
 72 70  2  0
 73 74  1  0
 74 75  2  0
 76 79  1  0
 76 75  1  0
 77 76  2  0
 78 77  1  0
 78 73  2  0
 79 80  1  0
 80 85  2  0
 80 81  1  0
 81 82  2  0
 82 83  1  0
 83 87  1  0
 84 83  2  0
 85 84  1  0
 86 85  1  0
 88 89  1  0
 89 92  1  0
 89 91  1  0
 90 88  2  0
 93 68  1  0
 93 94  1  0
 95 93  1  0
M  ISO  4   7 101   8 101  58 100  66 100
M  END
>  <TORSDO>  (50) 
F 22

>  <SCORE>  (50) 
-12.376

>  <name>  (50) 
50

>  <ligand_id>  (50) 
50

>  <original_smiles>  (50) 
[H]c1c([H])c([H])c2c(c1[H])C([H])([H])C([H])([H])C([H])([H])C2([H])N([H])C(=O)C1([H])N(C(=O)C([H])(N([H])C(=O)C([H])(N([H])C([H])([H])[H])C([H])([H])[H])C(C([H])([H])[H])(C([H])([H])[H])C([H])([H])[H])C([H])([H])c2c([H])c(OC([H])([H])C([H])([H])C([H])([H])[N+]([H])([H])C([H])([H])C([H])(C([H])([H])[H])C3([H])C([H])(N([H])C(=O)N4C([H])([H])C([H])([H])C([H])([H])C([H])(n5nc(-c6c([H])c([H])c(Oc7c([H])c([H])c(F)c([H])c7F)c([H])c6[H])c(C(=O)N([H])[H])c5N([H])[H])C4([H])[H])C([H])([H])C4([H])C([H])([H])C3([H])C4([H])[H])c([H])c([H])c2C1([H])[H]

>  <smiles>  (50) 
[H]c1c([H])c([H])c2c(c1[H])C([H])([H])C([H])([H])C([H])([H])C2([H])N([H])C(=O)C1([H])N(C(=O)C([H])(N([H])C(=O)C([H])(N([H])C([H])([H])[H])C([H])([H])[H])C(C([H])([H])[H])(C([H])([H])[H])C([H])([H])[H])C([H])([H])c2c([H])c(OC([H])([H])C([H])([H])C([H])([H])[N+]([H])([H])C([H])([H])C([H])(C([H])([H])[H])C3([H])C([H])(N([H])C(=O)N4C([H])([H])C([H])([H])C([H])([H])C([H])(n5nc(-c6c([H])c([H])c(Oc7c([H])c([H])c(F)c([H])c7F)c([H])c6[H])c(C(=O)N([H])[H])c5N([H])[H])C4([H])[H])C([H])([H])C4([H])C([H])([H])C3([H])C4([H])[H])c([H])c([H])c2C1([H])[H]

$$$$
51:0:0
     RDKit          3D

 90 99  0  0  1  0  0  0  0  0999 V2000
  -30.3960  -21.7890   20.8930 C   0  0  0  0  0  2  0  0  0  0  0  0
  -28.2820  -22.6500   21.5260 C   0  0  0  0  0  2  0  0  0  0  0  0
  -28.8210  -20.0500   21.5070 C   0  0  0  0  0  2  0  0  0  0  0  0
  -29.2790  -21.5050   21.8840 C   0  0  0  0  0  3  0  0  0  0  0  0
  -29.5000  -21.5220   19.6960 C   0  0  0  0  0  3  0  0  0  0  0  0
  -28.4550  -22.9020   20.0100 C   0  0  0  0  0  3  0  0  0  0  0  0
  -29.1890  -19.8120   20.0160 C   0  0  0  0  0  3  0  0  0  0  0  0
  -28.5820  -24.6270   19.5340 C   0  0  0  0  0  2  0  0  0  0  0  0
  -28.4020  -26.1240   20.1570 O   0  0  0  0  0  0  0  0  0  0  0  0
  -24.6680  -31.8780   23.1330 C   0  0  0  0  0  0  0  0  0  0  0  0
  -27.3600  -27.1650   20.0170 C   0  0  0  0  0  0  0  0  0  0  0  0
  -23.5230  -30.4930   21.4480 C   0  0  0  0  0  3  0  0  0  0  0  0
  -25.0170  -28.9670   19.9890 C   0  0  0  0  0  0  0  0  0  0  0  0
  -26.0780  -30.7730   21.3340 C   0  0  0  0  0  2  0  0  0  0  0  0
  -26.1850  -29.3900   20.6360 C   0  0  0  0  0  0  0  0  0  0  0  0
  -27.3430  -28.5030   20.6380 C   0  0  0  0  0  3  0  0  0  0  0  0
  -26.1700  -26.8870   19.3090 C   0  0  0  0  0  3  0  0  0  0  0  0
  -25.0320  -27.7360   19.3080 C   0  0  0  0  0  3  0  0  0  0  0  0
  -23.7780  -29.8570   20.0540 C   0  0  0  0  0  2  0  0  0  0  0  0
  -24.7780  -31.0720   22.0260 N   0  0  0  0  0  0  0  0  0  0  0  0
  -23.5680  -32.1310   23.6500 O   0  0  0  0  0  0  0  0  0  0  0  0
  -22.8480  -29.4560   22.3830 C   0  0  0  0  0  0  0  0  0  0  0  0
  -21.5180  -29.2920   22.2660 N   0  0  0  0  0  0  0  0  0  0  0  0
  -23.5260  -28.8030   23.1800 O   0  0  0  0  0  0  0  0  0  0  0  0
  -21.0280  -29.8720   21.6000 H   0  0  0  0  0  0  0  0  0  0  0  0
  -18.1360  -28.1040   22.8110 C   0  0  0  0  0  0  0  0  0  0  0  0
  -20.7060  -28.3260   23.0150 C   0  0  0  0  0  3  0  0  0  0  0  0
  -20.7730  -26.9260   22.3620 C   0  0  0  0  0  2  0  0  0  0  0  0
  -19.6360  -26.6700   21.3660 C   0  0  0  0  0  2  0  0  0  0  0  0
  -18.2760  -26.7920   22.0590 C   0  0  0  0  0  2  0  0  0  0  0  0
  -19.2760  -28.8320   23.2440 C   0  0  0  0  0  0  0  0  0  0  0  0
  -19.0880  -30.0600   23.9140 C   0  0  0  0  0  3  0  0  0  0  0  0
  -17.7940  -30.5580   24.1550 C   0  0  0  0  0  3  0  0  0  0  0  0
  -16.6690  -29.8260   23.7380 C   0  0  0  0  0  3  0  0  0  0  0  0
  -16.8410  -28.6020   23.0680 C   0  0  0  0  0  3  0  0  0  0  0  0
  -25.9170  -32.5350   23.7910 C   0  0  0  0  0  3  0  0  0  0  0  0
  -26.4130  -31.7700   25.0790 C   0  0  1  0  0  0  0  0  0  0  0  0
  -25.2970  -31.5030   26.1170 C   0  0  0  0  0  1  0  0  0  0  0  0
  -27.0410  -30.4090   24.7040 C   0  0  0  0  0  1  0  0  0  0  0  0
  -27.5300  -32.5870   25.7720 C   0  0  0  0  0  1  0  0  0  0  0  0
  -25.5700  -33.9250   24.1350 N   0  0  0  0  0  0  0  0  0  0  0  0
  -25.8950  -35.0010   23.4050 C   0  0  0  0  0  0  0  0  0  0  0  0
  -26.5790  -34.9280   22.3820 O   0  0  0  0  0  0  0  0  0  0  0  0
  -24.9630  -34.0540   24.9310 H   0  0  0  0  0  0  0  0  0  0  0  0
  -24.1360  -36.7680   23.0650 C   0  0  0  0  0  1  0  0  0  0  0  0
  -25.3770  -36.3730   23.8830 C   0  0  0  0  0  3  0  0  0  0  0  0
  -27.4780  -37.2810   24.7670 C   0  0  0  0  0  1  0  0  0  0  0  0
  -26.3920  -37.4480   23.8040 N   0  0  0  0  0  0  0  0  0  0  0  0
  -25.9680  -38.3570   23.9670 H   0  0  0  0  0  0  0  0  0  0  0  0
  -30.1930  -18.3330   19.7380 C   0  0  0  0  0  0  0  0  0  0  0  0
  -30.6740  -15.4490   19.8530 C   0  0  0  0  0  0  0  0  0  0  0  0
  -30.5950  -13.0210   18.9930 C   0  0  0  0  0  2  0  0  0  0  0  0
  -29.6110  -12.8300   17.8130 C   0  0  0  0  0  2  0  0  0  0  0  0
  -28.1900  -12.5640   18.3390 C   0  0  0  0  0  2  0  0  0  0  0  0
  -27.8120  -13.5170   19.5010 C   0  0  0  0  0  3  0  0  0  0  0  0
  -28.9210  -13.6530   20.5650 C   0  0  0  0  0  2  0  0  0  0  0  0
  -30.1110  -14.1490   19.8640 N   0  0  0  0  0  0  0  0  0  0  0  0
  -31.8580  -15.4420   19.4830 O   0  0  0  0  0  0  0  0  0  0  0  0
  -29.9380  -16.7180   20.0510 N   0  0  0  0  0  4  0  0  0  0  0  0
  -29.0040  -16.5480   20.3940 H   0  0  0  0  0  0  0  0  0  0  0  0
  -25.5080  -14.0650   20.4340 C   0  0  0  0  0  0  0  0  0  0  0  0
  -24.4630  -13.2820   20.8390 C   0  0  0  0  0  0  0  0  0  0  0  0
  -24.9090  -11.9300   20.7100 C   0  0  0  0  0  0  0  0  0  0  0  0
  -26.5180  -13.1920   20.0800 N   0  0  0  0  0  0  0  0  0  0  0  0
  -26.1760  -11.8980   20.3110 N   0  0  0  0  0  0  0  0  0  0  0  0
  -24.1810  -10.6660   20.8840 C   0  0  0  0  0  0  0  0  0  0  0  0
  -24.6280   -9.6710   21.7820 C   0  0  0  0  0  3  0  0  0  0  0  0
  -23.8960   -8.4770   21.9480 C   0  0  0  0  0  3  0  0  0  0  0  0
  -22.7040   -8.2660   21.2160 C   0  0  0  0  0  0  0  0  0  0  0  0
  -22.2760   -9.2500   20.3040 C   0  0  0  0  0  3  0  0  0  0  0  0
  -23.0090  -10.4360   20.1370 C   0  0  0  0  0  3  0  0  0  0  0  0
  -21.9420   -7.1250   21.2930 O   0  0  0  0  0  0  0  0  0  0  0  0
  -21.8750   -6.3800   22.4420 C   0  0  0  0  0  0  0  0  0  0  0  0
  -21.3970   -6.9210   23.6550 C   0  0  0  0  0  3  0  0  0  0  0  0
  -21.2840   -6.1020   24.7950 C   0  0  0  0  0  3  0  0  0  0  0  0
  -21.6380   -4.7420   24.7230 C   0  0  0  0  0  0  0  0  0  0  0  0
  -22.1100   -4.2000   23.5150 C   0  0  0  0  0  3  0  0  0  0  0  0
  -22.2250   -5.0160   22.3780 C   0  0  0  0  0  0  0  0  0  0  0  0
  -22.6590   -4.4840   21.2100 F   0  0  0  0  0  0  0  0  0  0  0  0
  -21.5220   -3.9510   25.8170 F   0  0  0  0  0  0  0  0  0  0  0  0
  -23.0960  -13.7580   21.2270 C   0  0  0  0  0  0  0  0  0  0  0  0
  -22.4270  -13.0340   22.1150 N   0  0  0  0  0  0  0  0  0  0  0  0
  -22.6340  -14.8070   20.7770 O   0  0  0  0  0  0  0  0  0  0  0  0
  -22.8220  -12.1860   22.4950 H   0  0  0  0  0  0  0  0  0  0  0  0
  -21.5110  -13.3300   22.4230 H   0  0  0  0  0  0  0  0  0  0  0  0
  -25.6780  -15.4420   20.3120 N   0  0  0  0  0  0  0  0  0  0  0  0
  -24.9250  -16.0980   20.4870 H   0  0  0  0  0  0  0  0  0  0  0  0
  -26.4970  -15.8780   19.9100 H   0  0  0  0  0  0  0  0  0  0  0  0
  -32.4900  -19.2380   18.9780 C   0  0  0  0  0  1  0  0  0  0  0  0
  -31.6630  -18.6300   20.1240 C   0  0  0  0  0  2  0  0  0  0  0  0
  2  4  1  0
  3  4  1  0
  4  1  1  0
  5  6  1  0
  5  7  1  0
  5  1  1  0
  6  8  1  0
  6  2  1  0
  7 50  1  0
  7  3  1  0
  8  9  1  0
 10 21  2  0
 11  9  1  0
 11 16  1  0
 12 20  1  0
 12 22  1  0
 13 19  1  0
 13 15  1  0
 14 20  1  0
 15 16  2  0
 15 14  1  0
 17 11  2  0
 18 17  1  0
 18 13  2  0
 19 12  1  0
 20 10  1  0
 22 24  2  0
 23 22  1  0
 25 23  1  0
 26 35  2  0
 26 31  1  0
 27 23  1  0
 27 31  1  0
 28 27  1  0
 29 30  1  0
 29 28  1  0
 30 26  1  0
 31 32  2  0
 32 33  1  0
 34 33  2  0
 35 34  1  0
 36 10  1  0
 36 41  1  0
 36 37  1  0
 37 40  1  1
 37 38  1  0
 39 37  1  0
 41 44  1  0
 42 46  1  0
 42 41  1  0
 43 42  2  0
 46 45  1  0
 48 46  1  0
 48 49  1  0
 48 47  1  0
 50 59  2  0
 50 90  1  0
 51 57  1  0
 51 59  1  0
 52 57  1  0
 53 54  1  0
 53 52  1  0
 55 54  1  0
 55 64  1  0
 55 56  1  0
 57 56  1  0
 58 51  2  0
 59 60  1  0
 61 62  2  0
 62 81  1  0
 63 62  1  0
 63 66  1  0
 64 65  1  0
 64 61  1  0
 65 63  2  0
 66 67  1  0
 67 68  2  0
 69 72  1  0
 69 68  1  0
 70 69  2  0
 71 70  1  0
 71 66  2  0
 72 73  1  0
 73 74  1  0
 74 75  2  0
 76 75  1  0
 76 80  1  0
 77 76  2  0
 78 73  2  0
 78 77  1  0
 79 78  1  0
 81 82  1  0
 82 85  1  0
 82 84  1  0
 83 81  2  0
 86 61  1  0
 86 87  1  0
 88 86  1  0
 89 90  1  0
M  ISO  4   8 101   9 101  51 100  59 100
M  END
>  <TORSDO>  (51) 
F 19

>  <SCORE>  (51) 
-14.464

>  <name>  (51) 
51

>  <ligand_id>  (51) 
51

>  <original_smiles>  (51) 
[H]c1c([H])c([H])c2c(c1[H])C([H])([H])C([H])([H])C([H])([H])C2([H])N([H])C(=O)C1([H])N(C(=O)C([H])(N([H])C(=O)C([H])(N([H])C([H])([H])[H])C([H])([H])[H])C(C([H])([H])[H])(C([H])([H])[H])C([H])([H])[H])C([H])([H])c2c([H])c(OC([H])([H])C3([H])C([H])([H])C4([H])C([H])([H])C([H])(C([H])(N([H])C(=O)N5C([H])([H])C([H])([H])C([H])([H])C([H])(n6nc(-c7c([H])c([H])c(Oc8c([H])c([H])c(F)c([H])c8F)c([H])c7[H])c(C(=O)N([H])[H])c6N([H])[H])C5([H])[H])C([H])([H])C([H])([H])[H])C3([H])C4([H])[H])c([H])c([H])c2C1([H])[H]

>  <smiles>  (51) 
[H]c1c([H])c([H])c2c(c1[H])C([H])([H])C([H])([H])C([H])([H])C2([H])N([H])C(=O)C1([H])N(C(=O)C([H])(N([H])C(=O)C([H])(N([H])C([H])([H])[H])C([H])([H])[H])C(C([H])([H])[H])(C([H])([H])[H])C([H])([H])[H])C([H])([H])c2c([H])c(OC([H])([H])C3([H])C([H])([H])C4([H])C([H])([H])C([H])(C([H])(N([H])C(=O)N5C([H])([H])C([H])([H])C([H])([H])C([H])(n6nc(-c7c([H])c([H])c(Oc8c([H])c([H])c(F)c([H])c8F)c([H])c7[H])c(C(=O)N([H])[H])c6N([H])[H])C5([H])[H])C([H])([H])C([H])([H])[H])C3([H])C4([H])[H])c([H])c([H])c2C1([H])[H]

$$$$
52:0:0
     RDKit          3D

 90 98  0  0  1  0  0  0  0  0999 V2000
  -28.9840  -22.4160   20.2710 C   0  0  0  0  0  0  0  0  0  0  0  0
  -27.8540  -22.1790   20.7090 O   0  0  0  0  0  0  0  0  0  0  0  0
  -29.9250  -21.1910   19.8940 C   0  0  0  0  0  3  0  0  0  0  0  0
  -29.3100  -19.7070   19.9330 C   0  0  0  0  0  3  0  0  0  0  0  0
  -31.6290  -18.5810   20.0090 C   0  0  0  0  0  1  0  0  0  0  0  0
  -30.1840  -18.4180   19.5040 C   0  0  0  0  0  3  0  0  0  0  0  0
  -31.0310  -14.7720   19.4970 C   0  0  0  0  0  0  0  0  0  0  0  0
  -30.7750  -12.4620   18.5660 C   0  0  0  0  0  2  0  0  0  0  0  0
  -29.6900  -12.4310   17.4670 C   0  0  0  0  0  2  0  0  0  0  0  0
  -28.2930  -12.2290   18.0830 C   0  0  0  0  0  2  0  0  0  0  0  0
  -28.0310  -13.1820   19.2780 C   0  0  0  0  0  3  0  0  0  0  0  0
  -29.2120  -13.1570   20.2670 C   0  0  0  0  0  2  0  0  0  0  0  0
  -30.4350  -13.5300   19.5340 N   0  0  0  0  0  0  0  0  0  0  0  0
  -32.0090  -14.9750   18.7690 O   0  0  0  0  0  0  0  0  0  0  0  0
  -29.4600  -16.6900   22.2290 C   0  0  0  0  0  2  0  0  0  0  0  0
  -28.6000  -16.9670   21.0050 C   0  0  0  0  0  2  0  0  0  0  0  0
  -30.6090  -15.8240   21.7000 C   0  0  0  0  0  2  0  0  0  0  0  0
  -29.5730  -16.9500   19.8210 C   0  0  0  0  0  3  0  0  0  0  0  0
  -30.4720  -15.7990   20.2350 N   0  0  0  0  0  0  0  0  0  0  0  0
  -25.8020  -13.7520   20.4310 C   0  0  0  0  0  0  0  0  0  0  0  0
  -24.7890  -12.9630   20.9070 C   0  0  0  0  0  0  0  0  0  0  0  0
  -25.1910  -11.6160   20.6650 C   0  0  0  0  0  0  0  0  0  0  0  0
  -26.7660  -12.8810   19.9470 N   0  0  0  0  0  0  0  0  0  0  0  0
  -26.4100  -11.5850   20.1410 N   0  0  0  0  0  0  0  0  0  0  0  0
  -24.4590  -10.3560   20.8430 C   0  0  0  0  0  0  0  0  0  0  0  0
  -24.9030   -9.3620   21.7440 C   0  0  0  0  0  3  0  0  0  0  0  0
  -24.1700   -8.1670   21.9130 C   0  0  0  0  0  3  0  0  0  0  0  0
  -22.9760   -7.9590   21.1840 C   0  0  0  0  0  0  0  0  0  0  0  0
  -22.5510   -8.9390   20.2690 C   0  0  0  0  0  3  0  0  0  0  0  0
  -23.2850  -10.1250   20.0990 C   0  0  0  0  0  3  0  0  0  0  0  0
  -22.2120   -6.8190   21.2660 O   0  0  0  0  0  0  0  0  0  0  0  0
  -22.0720   -6.1280   22.4420 C   0  0  0  0  0  0  0  0  0  0  0  0
  -21.5630   -6.7390   23.6100 C   0  0  0  0  0  3  0  0  0  0  0  0
  -21.3730   -5.9730   24.7780 C   0  0  0  0  0  3  0  0  0  0  0  0
  -21.6820   -4.6000   24.7790 C   0  0  0  0  0  0  0  0  0  0  0  0
  -22.1840   -3.9890   23.6160 C   0  0  0  0  0  3  0  0  0  0  0  0
  -22.3780   -4.7520   22.4510 C   0  0  0  0  0  0  0  0  0  0  0  0
  -22.8410   -4.1550   21.3260 F   0  0  0  0  0  0  0  0  0  0  0  0
  -21.4920   -3.8630   25.8980 F   0  0  0  0  0  0  0  0  0  0  0  0
  -23.4780  -13.4370   21.4610 C   0  0  0  0  0  0  0  0  0  0  0  0
  -22.9090  -12.6900   22.4020 N   0  0  0  0  0  0  0  0  0  0  0  0
  -22.9720  -14.4960   21.0950 O   0  0  0  0  0  0  0  0  0  0  0  0
  -23.3320  -11.8280   22.7090 H   0  0  0  0  0  0  0  0  0  0  0  0
  -22.0370  -12.9840   22.8200 H   0  0  0  0  0  0  0  0  0  0  0  0
  -25.9610  -15.1290   20.3400 N   0  0  0  0  0  0  0  0  0  0  0  0
  -25.2260  -15.7770   20.6080 H   0  0  0  0  0  0  0  0  0  0  0  0
  -26.7420  -15.5850   19.8860 H   0  0  0  0  0  0  0  0  0  0  0  0
  -29.4480  -23.9270   20.1020 C   0  0  0  0  0  3  0  0  0  0  0  0
  -28.4210  -25.0890   20.5260 C   0  0  0  0  0  3  0  0  0  0  0  0
  -28.7240  -26.5390   20.3250 O   0  0  0  0  0  0  0  0  0  0  0  0
  -24.9990  -31.8280   23.5640 C   0  0  0  0  0  0  0  0  0  0  0  0
  -27.6320  -27.4270   20.3070 C   0  0  0  0  0  0  0  0  0  0  0  0
  -23.8230  -30.5570   21.8050 C   0  0  0  0  0  3  0  0  0  0  0  0
  -25.2900  -29.0740   20.3250 C   0  0  0  0  0  0  0  0  0  0  0  0
  -26.3700  -30.8450   21.7120 C   0  0  0  0  0  2  0  0  0  0  0  0
  -26.4480  -29.5080   20.9830 C   0  0  0  0  0  0  0  0  0  0  0  0
  -27.6250  -28.6990   20.9630 C   0  0  0  0  0  3  0  0  0  0  0  0
  -26.4600  -27.0620   19.6070 C   0  0  0  0  0  3  0  0  0  0  0  0
  -25.2970  -27.8560   19.6300 C   0  0  0  0  0  3  0  0  0  0  0  0
  -24.0650  -29.9640   20.3930 C   0  0  0  0  0  2  0  0  0  0  0  0
  -25.0820  -31.0910   22.4190 N   0  0  0  0  0  0  0  0  0  0  0  0
  -23.9070  -32.0880   24.0870 O   0  0  0  0  0  0  0  0  0  0  0  0
  -23.1180  -29.4950   22.6820 C   0  0  0  0  0  0  0  0  0  0  0  0
  -21.7920  -29.3540   22.5130 N   0  0  0  0  0  0  0  0  0  0  0  0
  -23.7650  -28.8030   23.4730 O   0  0  0  0  0  0  0  0  0  0  0  0
  -21.3340  -29.9670   21.8530 H   0  0  0  0  0  0  0  0  0  0  0  0
  -18.3870  -28.1720   22.8250 C   0  0  0  0  0  0  0  0  0  0  0  0
  -20.9370  -28.3820   23.1960 C   0  0  0  0  0  3  0  0  0  0  0  0
  -21.0440  -26.9870   22.5360 C   0  0  0  0  0  2  0  0  0  0  0  0
  -19.9740  -26.7410   21.4670 C   0  0  0  0  0  2  0  0  0  0  0  0
  -18.5730  -26.8640   22.0750 C   0  0  0  0  0  2  0  0  0  0  0  0
  -19.4980  -28.8910   23.3400 C   0  0  0  0  0  0  0  0  0  0  0  0
  -19.2710  -30.1190   24.0000 C   0  0  0  0  0  3  0  0  0  0  0  0
  -17.9670  -30.6280   24.1480 C   0  0  0  0  0  3  0  0  0  0  0  0
  -16.8700  -29.9020   23.6550 C   0  0  0  0  0  3  0  0  0  0  0  0
  -17.0800  -28.6750   22.9990 C   0  0  0  0  0  3  0  0  0  0  0  0
  -26.2740  -32.3980   24.2590 C   0  0  0  0  0  3  0  0  0  0  0  0
  -25.9690  -33.7710   24.6870 N   0  0  0  0  0  0  0  0  0  0  0  0
  -26.3450  -34.8760   24.0280 C   0  0  0  0  0  0  0  0  0  0  0  0
  -27.0520  -34.8450   23.0190 O   0  0  0  0  0  0  0  0  0  0  0  0
  -25.3460  -33.8720   25.4740 H   0  0  0  0  0  0  0  0  0  0  0  0
  -24.6590  -36.7240   23.7550 C   0  0  0  0  0  1  0  0  0  0  0  0
  -25.8590  -36.2310   24.5780 C   0  0  0  0  0  3  0  0  0  0  0  0
  -27.9690  -37.0100   25.5650 C   0  0  0  0  0  1  0  0  0  0  0  0
  -26.9100  -37.2720   24.5930 N   0  0  0  0  0  0  0  0  0  0  0  0
  -26.5120  -38.1840   24.7960 H   0  0  0  0  0  0  0  0  0  0  0  0
  -26.7530  -31.5290   25.4870 C   0  0  1  0  0  0  0  0  0  0  0  0
  -25.6310  -31.2180   26.5040 C   0  0  0  0  0  1  0  0  0  0  0  0
  -27.3400  -30.1820   25.0090 C   0  0  0  0  0  1  0  0  0  0  0  0
  -27.8880  -32.2640   26.2400 C   0  0  0  0  0  1  0  0  0  0  0  0
  1  2  2  0
  3  4  2  0
  3  1  1  0
  6  4  1  0
  6  5  1  0
  7 13  1  0
  7 19  1  0
  8 13  1  0
  9 10  1  0
  9  8  1  0
 11 10  1  0
 11 23  1  0
 11 12  1  0
 13 12  1  0
 14  7  2  0
 16 15  1  0
 17 15  1  0
 18  6  1  0
 18 19  1  0
 18 16  1  0
 19 17  1  0
 20 21  2  0
 21 40  1  0
 22 25  1  0
 22 21  1  0
 23 24  1  0
 23 20  1  0
 24 22  2  0
 25 26  1  0
 26 27  2  0
 28 31  1  0
 28 27  1  0
 29 28  2  0
 30 29  1  0
 30 25  2  0
 31 32  1  0
 32 37  2  0
 32 33  1  0
 33 34  2  0
 34 35  1  0
 35 39  1  0
 36 35  2  0
 37 36  1  0
 38 37  1  0
 40 41  1  0
 41 43  1  0
 41 44  1  0
 42 40  2  0
 45 20  1  0
 45 46  1  0
 47 45  1  0
 48  1  1  0
 48 49  2  0
 50 49  1  0
 51 62  2  0
 52 50  1  0
 52 57  1  0
 53 61  1  0
 53 63  1  0
 54 60  1  0
 54 56  1  0
 55 61  1  0
 56 55  1  0
 57 56  2  0
 58 59  1  0
 58 52  2  0
 59 54  2  0
 60 53  1  0
 61 51  1  0
 63 65  2  0
 64 63  1  0
 66 64  1  0
 67 76  2  0
 67 72  1  0
 68 64  1  0
 68 72  1  0
 69 68  1  0
 70 71  1  0
 70 69  1  0
 71 67  1  0
 72 73  2  0
 73 74  1  0
 75 74  2  0
 76 75  1  0
 77 51  1  0
 77 78  1  0
 77 87  1  0
 78 81  1  0
 79 83  1  0
 79 78  1  0
 80 79  2  0
 83 82  1  0
 83 85  1  0
 85 86  1  0
 85 84  1  0
 87 90  1  1
 87 88  1  0
 89 87  1  0
M  ISO  4   7 100  19 100  49 101  50 101
M  END
>  <TORSDO>  (52) 
F 21

>  <SCORE>  (52) 
-10.647

>  <name>  (52) 
52

>  <ligand_id>  (52) 
52

>  <original_smiles>  (52) 
[H]c1c([H])c([H])c2c(c1[H])C([H])([H])C([H])([H])C([H])([H])C2([H])N([H])C(=O)C1([H])N(C(=O)C([H])(N([H])C(=O)C([H])(N([H])C([H])([H])[H])C([H])([H])[H])C(C([H])([H])[H])(C([H])([H])[H])C([H])([H])[H])C([H])([H])c2c([H])c(OC([H])([H])C([H])([H])C(=O)C([H])([H])C([H])([H])C([H])(C([H])([H])[H])C3([H])N(C(=O)N4C([H])([H])C([H])([H])C([H])([H])C([H])(n5nc(-c6c([H])c([H])c(Oc7c([H])c([H])c(F)c([H])c7F)c([H])c6[H])c(C(=O)N([H])[H])c5N([H])[H])C4([H])[H])C([H])([H])C([H])([H])C3([H])[H])c([H])c([H])c2C1([H])[H]

>  <smiles>  (52) 
[H]c1c([H])c([H])c2c(c1[H])C([H])([H])C([H])([H])C([H])([H])C2([H])N([H])C(=O)C1([H])N(C(=O)C([H])(N([H])C(=O)C([H])(N([H])C([H])([H])[H])C([H])([H])[H])C(C([H])([H])[H])(C([H])([H])[H])C([H])([H])[H])C([H])([H])c2c([H])c(OC([H])([H])C([H])([H])C(=O)C([H])([H])C([H])([H])C([H])(C([H])([H])[H])C3([H])N(C(=O)N4C([H])([H])C([H])([H])C([H])([H])C([H])(n5nc(-c6c([H])c([H])c(Oc7c([H])c([H])c(F)c([H])c7F)c([H])c6[H])c(C(=O)N([H])[H])c5N([H])[H])C4([H])[H])C([H])([H])C([H])([H])C3([H])[H])c([H])c([H])c2C1([H])[H]

$$$$
53:0:0
     RDKit          3D

 98103  0  0  1  0  0  0  0  0999 V2000
  -24.5570  -13.2810   22.3540 C   0  0  0  0  0  2  0  0  0  0  0  0
  -22.3080  -12.3280   23.5830 C   0  0  0  0  0  2  0  0  0  0  0  0
  -21.8510  -12.1930   22.2220 C   0  0  0  0  0  2  0  0  0  0  0  0
  -23.3170  -11.7900   22.5180 C   0  0  1  0  0  0  0  0  0  0  0  0
  -25.8230   -9.5740   24.6210 C   0  0  0  0  0  3  0  0  0  0  0  0
  -24.2870  -10.1650   24.2550 C   0  0  0  0  0  2  0  0  0  0  0  0
  -26.8700   -8.6190   23.7140 C   0  0  0  0  0  3  0  0  0  0  0  0
  -25.1950   -8.0790   21.3450 C   0  0  0  0  0  2  0  0  0  0  0  0
  -23.4840   -9.8560   22.7350 C   0  0  0  0  0  2  0  0  0  0  0  0
  -26.7830   -8.0600   22.1410 C   0  0  0  0  0  3  0  0  0  0  0  0
  -28.2780   -8.6080   21.3240 C   0  0  0  0  0  2  0  0  0  0  0  0
  -30.5070  -11.1080   21.2660 C   0  0  2  0  0  0  0  0  0  0  0  0
  -31.4480   -9.8950   21.1340 C   0  0  0  0  0  1  0  0  0  0  0  0
  -30.9610   -9.8970   19.3120 C   0  0  0  0  0  1  0  0  0  0  0  0
  -29.6180  -10.9050   18.8440 C   0  0  0  0  0  2  0  0  0  0  0  0
  -28.9640  -12.2030   19.8720 C   0  0  0  0  0  2  0  0  0  0  0  0
  -29.4990  -12.2750   21.7000 C   0  0  0  0  0  1  0  0  0  0  0  0
  -30.7280  -11.1080   22.2130 N   0  0  0  0  0  1  0  0  0  0  0  0
  -31.4280  -12.0390   20.6440 O   0  0  0  0  0  1  0  0  0  0  0  0
  -29.1280  -10.0760   21.2990 N   0  0  0  0  0  2  0  0  0  0  0  0
  -28.4510  -10.6230   20.7720 H   0  0  0  0  0  0  0  0  0  0  0  0
  -26.6310  -13.1350   19.4370 C   0  0  0  0  0  0  0  0  0  0  0  0
  -25.3970  -12.5840   19.4110 C   0  0  0  0  0  0  0  0  0  0  0  0
  -25.7410  -11.3240   19.7660 C   0  0  0  0  0  0  0  0  0  0  0  0
  -27.5440  -12.1610   19.7590 N   0  0  0  0  0  0  0  0  0  0  0  0
  -26.9750  -11.0000   19.9080 N   0  0  0  0  0  0  0  0  0  0  0  0
  -24.9610  -10.5700   20.3280 C   0  0  0  0  0  0  0  0  0  0  0  0
  -25.5910   -9.9970   21.8230 C   0  0  0  0  0  1  0  0  0  0  0  0
  -24.2010   -7.9560   22.3740 C   0  0  0  0  0  2  0  0  0  0  0  0
  -22.9680   -7.7210   21.2150 C   0  0  0  0  0  0  0  0  0  0  0  0
  -22.8100   -8.6710   19.9570 C   0  0  0  0  0  3  0  0  0  0  0  0
  -23.6810   -9.9190   19.5340 C   0  0  0  0  0  3  0  0  0  0  0  0
  -22.0610   -6.6750   21.0430 O   0  0  0  0  0  0  0  0  0  0  0  0
  -21.3820   -6.0970   22.0740 C   0  0  0  0  0  0  0  0  0  0  0  0
  -20.6900   -6.8710   23.0270 C   0  0  0  0  0  3  0  0  0  0  0  0
  -20.1200   -6.2430   24.1480 C   0  0  0  0  0  3  0  0  0  0  0  0
  -20.2240   -4.8490   24.3060 C   0  0  0  0  0  0  0  0  0  0  0  0
  -20.8320   -4.0680   23.3080 C   0  0  0  0  0  3  0  0  0  0  0  0
  -21.3910   -4.6900   22.1780 C   0  0  0  0  0  0  0  0  0  0  0  0
  -21.9620   -3.9310   21.2110 F   0  0  0  0  0  0  0  0  0  0  0  0
  -19.7420   -4.2580   25.4230 F   0  0  0  0  0  0  0  0  0  0  0  0
  -24.0190  -13.1640   19.1850 C   0  0  0  0  0  0  0  0  0  0  0  0
  -22.9010  -12.5500   19.5220 N   0  0  0  0  0  0  0  0  0  0  0  0
  -23.9170  -14.2850   18.7470 O   0  0  0  0  0  0  0  0  0  0  0  0
  -22.9150  -11.5940   19.8590 H   0  0  0  0  0  0  0  0  0  0  0  0
  -22.0190  -13.0020   19.3540 H   0  0  0  0  0  0  0  0  0  0  0  0
  -27.0580  -14.4150   19.2470 N   0  0  0  0  0  0  0  0  0  0  0  0
  -26.5830  -14.9510   18.5300 H   0  0  0  0  0  0  0  0  0  0  0  0
  -28.0600  -14.5620   19.1860 H   0  0  0  0  0  0  0  0  0  0  0  0
  -24.7720  -14.7020   21.3120 N   0  0  0  0  0  4  0  0  0  0  0  0
  -23.9410  -15.2490   21.4630 H   0  0  0  0  0  0  0  0  0  0  0  0
  -24.6660  -14.3030   20.3870 H   0  0  0  0  0  0  0  0  0  0  0  0
  -25.9950  -15.9180   20.9470 C   0  0  0  0  0  2  0  0  0  0  0  0
  -26.2480  -17.3380   19.6570 C   0  0  0  0  0  3  0  0  0  0  0  0
  -26.8710  -19.1620   19.5040 C   0  0  0  0  0  3  0  0  0  0  0  0
  -26.9170  -20.6610   18.2910 C   0  0  0  0  0  3  0  0  0  0  0  0
  -26.9220  -22.5910   18.2840 C   0  0  0  0  0  3  0  0  0  0  0  0
  -27.1490  -24.0250   17.2990 O   0  0  0  0  0  0  0  0  0  0  0  0
  -25.3390  -29.5440   22.0110 C   0  0  0  0  0  0  0  0  0  0  0  0
  -26.6090  -25.4160   17.5350 C   0  0  0  0  0  0  0  0  0  0  0  0
  -23.7610  -28.7210   20.3160 C   0  0  0  0  0  3  0  0  0  0  0  0
  -24.7650  -27.5930   18.2270 C   0  0  0  0  0  0  0  0  0  0  0  0
  -26.2690  -28.8430   19.7440 C   0  0  0  0  0  2  0  0  0  0  0  0
  -26.0650  -27.6600   18.7420 C   0  0  0  0  0  0  0  0  0  0  0  0
  -27.0080  -26.5910   18.3690 C   0  0  0  0  0  3  0  0  0  0  0  0
  -25.3930  -25.6350   16.8830 C   0  0  0  0  0  3  0  0  0  0  0  0
  -24.4770  -26.6400   17.2450 C   0  0  0  0  0  3  0  0  0  0  0  0
  -23.6830  -28.5150   18.7790 C   0  0  0  0  0  2  0  0  0  0  0  0
  -25.1570  -29.0570   20.7410 N   0  0  0  0  0  0  0  0  0  0  0  0
  -24.3870  -29.6850   22.7970 O   0  0  0  0  0  0  0  0  0  0  0  0
  -23.2010  -27.4760   21.0560 C   0  0  0  0  0  0  0  0  0  0  0  0
  -21.8680  -27.2860   21.0370 N   0  0  0  0  0  0  0  0  0  0  0  0
  -23.9660  -26.6950   21.6300 O   0  0  0  0  0  0  0  0  0  0  0  0
  -21.2980  -27.9720   20.5620 H   0  0  0  0  0  0  0  0  0  0  0  0
  -18.5950  -25.8000   21.5280 C   0  0  0  0  0  0  0  0  0  0  0  0
  -21.1560  -26.1530   21.6420 C   0  0  0  0  0  3  0  0  0  0  0  0
  -21.2600  -24.8920   20.7530 C   0  0  0  0  0  2  0  0  0  0  0  0
  -20.0860  -24.7380   19.7810 C   0  0  0  0  0  2  0  0  0  0  0  0
  -18.7630  -24.6520   20.5480 C   0  0  0  0  0  2  0  0  0  0  0  0
  -19.7170  -26.5140   22.0310 C   0  0  0  0  0  0  0  0  0  0  0  0
  -19.5000  -27.5920   22.9170 C   0  0  0  0  0  3  0  0  0  0  0  0
  -18.1970  -27.9600   23.3000 C   0  0  0  0  0  3  0  0  0  0  0  0
  -17.0920  -27.2420   22.8080 C   0  0  0  0  0  3  0  0  0  0  0  0
  -17.2920  -26.1630   21.9300 C   0  0  0  0  0  3  0  0  0  0  0  0
  -26.7440  -29.9650   22.5330 C   0  0  0  0  0  3  0  0  0  0  0  0
  -27.5710  -28.7590   23.1310 C   0  0  1  0  0  0  0  0  0  0  0  0
  -26.8010  -27.9390   24.1920 C   0  0  0  0  0  1  0  0  0  0  0  0
  -28.0120  -27.7800   22.0210 C   0  0  0  0  0  1  0  0  0  0  0  0
  -28.8650  -29.2900   23.7900 C   0  0  0  0  0  1  0  0  0  0  0  0
  -26.5480  -31.0020   23.5630 N   0  0  0  0  0  0  0  0  0  0  0  0
  -26.7180  -32.3170   23.3760 C   0  0  0  0  0  0  0  0  0  0  0  0
  -27.1210  -32.7890   22.3100 O   0  0  0  0  0  0  0  0  0  0  0  0
  -26.1640  -30.6910   24.4430 H   0  0  0  0  0  0  0  0  0  0  0  0
  -25.0100  -33.8950   24.3450 C   0  0  0  0  0  1  0  0  0  0  0  0
  -26.3920  -33.2560   24.5550 C   0  0  0  0  0  3  0  0  0  0  0  0
  -28.6840  -33.8150   25.2410 C   0  0  0  0  0  1  0  0  0  0  0  0
  -27.4000  -34.3200   24.7610 N   0  0  0  0  0  0  0  0  0  0  0  0
  -27.0630  -35.0100   25.4270 H   0  0  0  0  0  0  0  0  0  0  0  0
  4  1  1  6
  3  4  1  0
  3  2  1  0
  4  9  1  0
  4  2  1  0
  6  5  1  0
  7  5  2  0
  8 10  1  0
  8 29  1  0
  9  6  1  0
 10 11  1  0
 10  7  1  0
 12 17  1  1
 12 18  1  0
 13 12  1  0
 15 14  1  0
 15 16  1  0
 19 12  1  0
 20 11  1  0
 21 20  1  0
 22 25  1  0
 23 22  2  0
 23 24  1  0
 24 26  2  0
 24 27  1  0
 25 16  1  0
 25 26  1  0
 27 28  1  0
 30 29  1  0
 31 30  2  0
 32 31  1  0
 32 27  2  0
 33 30  1  0
 33 34  1  0
 34 39  2  0
 34 35  1  0
 35 36  2  0
 36 37  1  0
 37 41  1  0
 38 37  2  0
 39 38  1  0
 40 39  1  0
 42 23  1  0
 42 43  1  0
 43 45  1  0
 44 42  2  0
 46 43  1  0
 47 22  1  0
 48 47  1  0
 49 47  1  0
 50 51  1  0
 50  1  1  0
 52 50  1  0
 53 50  1  0
 54 53  1  0
 55 54  2  0
 56 55  1  0
 57 56  2  0
 58 60  1  0
 58 57  1  0
 59 70  2  0
 60 65  1  0
 61 69  1  0
 61 71  1  0
 62 64  1  0
 62 68  1  0
 63 69  1  0
 64 63  1  0
 65 64  2  0
 66 67  1  0
 66 60  2  0
 67 62  2  0
 68 61  1  0
 69 59  1  0
 71 73  2  0
 72 71  1  0
 74 72  1  0
 75 84  2  0
 75 80  1  0
 76 72  1  0
 76 80  1  0
 77 76  1  0
 78 79  1  0
 78 77  1  0
 79 75  1  0
 80 81  2  0
 81 82  1  0
 83 82  2  0
 84 83  1  0
 85 59  1  0
 85 86  1  0
 85 90  1  0
 86 89  1  1
 86 87  1  0
 88 86  1  0
 90 93  1  0
 91 90  1  0
 91 95  1  0
 92 91  2  0
 95 94  1  0
 95 97  1  0
 97 96  1  0
 97 98  1  0
M  ISO  4  12 100  20 100  57 101  58 101
M  END
>  <TORSDO>  (53) 
F 25

>  <SCORE>  (53) 
8.469

>  <name>  (53) 
53

>  <ligand_id>  (53) 
53

>  <original_smiles>  (53) 
[H]c1c([H])c([H])c2c(c1[H])C([H])([H])C([H])([H])C([H])([H])C2([H])N([H])C(=O)C1([H])N(C(=O)C([H])(N([H])C(=O)C([H])(N([H])C([H])([H])[H])C([H])([H])[H])C(C([H])([H])[H])(C([H])([H])[H])C([H])([H])[H])C([H])([H])c2c([H])c(OC([H])([H])C([H])([H])C([H])([H])C([H])([H])C([H])([H])[N+]([H])([H])C([H])([H])C3(c4c([H])c([H])c([H])c(C([H])([H])N([H])C(=O)N5C([H])([H])C([H])([H])C([H])([H])C([H])(n6nc(-c7c([H])c([H])c(Oc8c([H])c([H])c(F)c([H])c8F)c([H])c7[H])c(C(=O)N([H])[H])c6N([H])[H])C5([H])[H])c4[H])C([H])([H])C3([H])[H])c([H])c([H])c2C1([H])[H]

>  <smiles>  (53) 
[H]c1c([H])c([H])c2c(c1[H])C([H])([H])C([H])([H])C([H])([H])C2([H])N([H])C(=O)C1([H])N(C(=O)C([H])(N([H])C(=O)C([H])(N([H])C([H])([H])[H])C([H])([H])[H])C(C([H])([H])[H])(C([H])([H])[H])C([H])([H])[H])C([H])([H])c2c([H])c(OC([H])([H])C([H])([H])C([H])([H])C([H])([H])C([H])([H])[N+]([H])([H])C([H])([H])C3(c4c([H])c([H])c([H])c(C([H])([H])N([H])C(=O)N5C([H])([H])C([H])([H])C([H])([H])C([H])(n6nc(-c7c([H])c([H])c(Oc8c([H])c([H])c(F)c([H])c8F)c([H])c7[H])c(C(=O)N([H])[H])c6N([H])[H])C5([H])[H])c4[H])C([H])([H])C3([H])[H])c([H])c([H])c2C1([H])[H]

$$$$
54:0:0
     RDKit          3D

 95104  0  0  1  0  0  0  0  0999 V2000
  -28.4110  -20.7720   18.4810 C   0  0  0  0  0  3  0  0  0  0  0  0
  -27.7890  -19.6340   17.9490 C   0  0  0  0  0  3  0  0  0  0  0  0
  -28.9420  -18.2700   19.5750 C   0  0  0  0  0  3  0  0  0  0  0  0
  -29.3240  -20.7100   19.5630 C   0  0  0  0  0  0  0  0  0  0  0  0
  -28.0650  -18.3650   18.4760 C   0  0  0  0  0  0  0  0  0  0  0  0
  -29.5710  -19.4050   20.1470 C   0  0  0  0  0  0  0  0  0  0  0  0
  -29.1820  -23.1550   20.1180 C   0  0  0  0  0  3  0  0  0  0  0  0
  -29.9480  -22.0510   19.8630 C   0  0  0  0  0  0  0  0  0  0  0  0
  -31.4510  -22.1470   19.6520 C   0  0  0  0  0  1  0  0  0  0  0  0
  -29.5770  -24.6580   20.2110 C   0  0  0  0  0  2  0  0  0  0  0  0
  -28.4490  -25.6140   19.6870 C   0  0  0  0  0  2  0  0  0  0  0  0
  -28.6060  -27.0710   19.7830 O   0  0  0  0  0  0  0  0  0  0  0  0
  -24.5970  -31.9680   23.1910 C   0  0  0  0  0  0  0  0  0  0  0  0
  -27.4310  -27.8330   19.7880 C   0  0  0  0  0  0  0  0  0  0  0  0
  -23.4470  -30.5860   21.5000 C   0  0  0  0  0  3  0  0  0  0  0  0
  -24.9590  -29.2480   19.9410 C   0  0  0  0  0  0  0  0  0  0  0  0
  -25.9480  -31.1060   21.2740 C   0  0  0  0  0  2  0  0  0  0  0  0
  -26.1050  -29.7830   20.5440 C   0  0  0  0  0  0  0  0  0  0  0  0
  -27.3430  -29.0820   20.4680 C   0  0  0  0  0  3  0  0  0  0  0  0
  -26.2620  -27.3660   19.1380 C   0  0  0  0  0  3  0  0  0  0  0  0
  -25.0370  -28.0430   19.2330 C   0  0  0  0  0  3  0  0  0  0  0  0
  -23.6650  -30.0180   20.0760 C   0  0  0  0  0  2  0  0  0  0  0  0
  -24.6840  -31.2340   22.0460 N   0  0  0  0  0  0  0  0  0  0  0  0
  -23.5130  -32.1350   23.7680 O   0  0  0  0  0  0  0  0  0  0  0  0
  -22.8920  -29.4630   22.4080 C   0  0  0  0  0  0  0  0  0  0  0  0
  -21.5870  -29.1690   22.2720 N   0  0  0  0  0  0  0  0  0  0  0  0
  -23.6300  -28.8640   23.1930 O   0  0  0  0  0  0  0  0  0  0  0  0
  -21.0460  -29.7120   21.6140 H   0  0  0  0  0  0  0  0  0  0  0  0
  -18.3570  -27.5890   22.6450 C   0  0  0  0  0  0  0  0  0  0  0  0
  -20.8600  -28.1280   22.9980 C   0  0  0  0  0  3  0  0  0  0  0  0
  -21.1420  -26.7310   22.3960 C   0  0  0  0  0  2  0  0  0  0  0  0
  -20.1110  -26.3110   21.3430 C   0  0  0  0  0  2  0  0  0  0  0  0
  -18.7040  -26.2840   21.9480 C   0  0  0  0  0  2  0  0  0  0  0  0
  -19.3700  -28.4610   23.1240 C   0  0  0  0  0  0  0  0  0  0  0  0
  -18.9930  -29.6770   23.7340 C   0  0  0  0  0  3  0  0  0  0  0  0
  -17.6360  -30.0250   23.8690 C   0  0  0  0  0  3  0  0  0  0  0  0
  -16.6380  -29.1510   23.4070 C   0  0  0  0  0  3  0  0  0  0  0  0
  -16.9990  -27.9330   22.8000 C   0  0  0  0  0  3  0  0  0  0  0  0
  -25.8510  -32.6520   23.8180 C   0  0  0  0  0  3  0  0  0  0  0  0
  -25.4700  -34.0230   24.1860 N   0  0  0  0  0  0  0  0  0  0  0  0
  -25.8070  -35.1170   23.4910 C   0  0  0  0  0  0  0  0  0  0  0  0
  -26.5390  -35.0820   22.4980 O   0  0  0  0  0  0  0  0  0  0  0  0
  -24.8240  -34.1220   24.9550 H   0  0  0  0  0  0  0  0  0  0  0  0
  -24.0620  -36.8810   23.0770 C   0  0  0  0  0  1  0  0  0  0  0  0
  -25.2390  -36.4660   23.9740 C   0  0  0  0  0  3  0  0  0  0  0  0
  -27.2720  -37.3530   25.0260 C   0  0  0  0  0  1  0  0  0  0  0  0
  -26.2470  -37.5500   24.0050 N   0  0  0  0  0  0  0  0  0  0  0  0
  -25.8030  -38.4490   24.1690 H   0  0  0  0  0  0  0  0  0  0  0  0
  -26.4190  -31.8770   25.0690 C   0  0  1  0  0  0  0  0  0  0  0  0
  -25.3480  -31.5570   26.1380 C   0  0  0  0  0  1  0  0  0  0  0  0
  -27.0710  -30.5430   24.6380 C   0  0  0  0  0  1  0  0  0  0  0  0
  -27.5340  -32.7130   25.7400 C   0  0  0  0  0  1  0  0  0  0  0  0
  -26.0710  -16.6830   18.2640 C   0  0  0  0  0  2  0  0  0  0  0  0
  -27.2900  -15.8290   18.5140 C   0  0  0  0  0  2  0  0  0  0  0  0
  -27.4360  -17.1660   17.8290 C   0  0  0  0  0  3  0  0  0  0  0  0
  -30.4110  -19.1200   21.4140 C   0  0  0  0  0  2  0  0  0  0  0  0
  -31.4380  -17.9230   21.3610 C   0  0  0  0  0  2  0  0  0  0  0  0
  -31.6640  -15.4290   21.1040 C   0  0  0  0  0  0  0  0  0  0  0  0
  -31.4670  -13.2200   20.0230 C   0  0  0  0  0  2  0  0  0  0  0  0
  -30.5940  -13.3710   18.7620 C   0  0  0  0  0  2  0  0  0  0  0  0
  -29.1030  -13.2060   19.1160 C   0  0  0  0  0  2  0  0  0  0  0  0
  -28.6790  -14.0480   20.3510 C   0  0  0  0  0  3  0  0  0  0  0  0
  -29.6820  -13.9050   21.5160 C   0  0  0  0  0  2  0  0  0  0  0  0
  -31.0140  -14.2320   20.9930 N   0  0  0  0  0  0  0  0  0  0  0  0
  -32.8380  -15.5650   20.7580 O   0  0  0  0  0  0  0  0  0  0  0  0
  -30.9190  -16.5230   21.4130 N   0  0  0  0  0  0  0  0  0  0  0  0
  -29.9570  -16.3760   21.6780 H   0  0  0  0  0  0  0  0  0  0  0  0
  -26.2820  -14.6210   21.0880 C   0  0  0  0  0  0  0  0  0  0  0  0
  -25.1830  -13.8380   21.3160 C   0  0  0  0  0  0  0  0  0  0  0  0
  -25.6070  -12.4900   21.1060 C   0  0  0  0  0  0  0  0  0  0  0  0
  -27.3090  -13.7510   20.7570 N   0  0  0  0  0  0  0  0  0  0  0  0
  -26.9040  -12.4550   20.8240 N   0  0  0  0  0  0  0  0  0  0  0  0
  -24.8400  -11.2380   21.1020 C   0  0  0  0  0  0  0  0  0  0  0  0
  -25.2070  -10.1450   21.9180 C   0  0  0  0  0  3  0  0  0  0  0  0
  -24.4440   -8.9580   21.9110 C   0  0  0  0  0  3  0  0  0  0  0  0
  -23.2990   -8.8570   21.0860 C   0  0  0  0  0  0  0  0  0  0  0  0
  -22.9510   -9.9400   20.2580 C   0  0  0  0  0  3  0  0  0  0  0  0
  -23.7160  -11.1180   20.2630 C   0  0  0  0  0  3  0  0  0  0  0  0
  -22.5110   -7.7360   20.9950 O   0  0  0  0  0  0  0  0  0  0  0  0
  -22.3280   -6.8960   22.0650 C   0  0  0  0  0  0  0  0  0  0  0  0
  -21.8030   -7.3560   23.2920 C   0  0  0  0  0  3  0  0  0  0  0  0
  -21.5640   -6.4470   24.3410 C   0  0  0  0  0  3  0  0  0  0  0  0
  -21.8410   -5.0790   24.1640 C   0  0  0  0  0  0  0  0  0  0  0  0
  -22.3580   -4.6170   22.9400 C   0  0  0  0  0  3  0  0  0  0  0  0
  -22.5970   -5.5240   21.8930 C   0  0  0  0  0  0  0  0  0  0  0  0
  -23.0770   -5.0710   20.7090 F   0  0  0  0  0  0  0  0  0  0  0  0
  -21.6040   -4.2040   25.1690 F   0  0  0  0  0  0  0  0  0  0  0  0
  -23.7930  -14.3190   21.6220 C   0  0  0  0  0  0  0  0  0  0  0  0
  -23.0290  -13.5400   22.3810 N   0  0  0  0  0  0  0  0  0  0  0  0
  -23.3940  -15.4140   21.2300 O   0  0  0  0  0  0  0  0  0  0  0  0
  -23.3640  -12.6510   22.7220 H   0  0  0  0  0  0  0  0  0  0  0  0
  -22.0950  -13.8390   22.6250 H   0  0  0  0  0  0  0  0  0  0  0  0
  -26.4850  -15.9960   21.1170 N   0  0  0  0  0  0  0  0  0  0  0  0
  -25.7200  -16.6400   21.2840 H   0  0  0  0  0  0  0  0  0  0  0  0
  -27.3430  -16.4630   20.8580 H   0  0  0  0  0  0  0  0  0  0  0  0
  1  4  1  0
  2  5  1  0
  2  1  2  0
  3  6  1  0
  4  8  1  0
  4  6  2  0
  5  3  2  0
  6 56  1  0
  7 10  1  0
  8  7  2  0
  9  8  1  0
 11 12  1  0
 11 10  1  0
 12 14  1  0
 13 24  2  0
 14 19  1  0
 15 23  1  0
 15 25  1  0
 16 22  1  0
 16 18  1  0
 17 23  1  0
 18 17  1  0
 19 18  2  0
 20 21  1  0
 20 14  2  0
 21 16  2  0
 22 15  1  0
 23 13  1  0
 25 27  2  0
 26 25  1  0
 28 26  1  0
 29 38  2  0
 29 34  1  0
 30 26  1  0
 30 34  1  0
 31 30  1  0
 32 33  1  0
 32 31  1  0
 33 29  1  0
 34 35  2  0
 35 36  1  0
 37 36  2  0
 38 37  1  0
 39 13  1  0
 39 40  1  0
 39 49  1  0
 40 43  1  0
 41 45  1  0
 41 40  1  0
 42 41  2  0
 45 44  1  0
 45 47  1  0
 47 48  1  0
 47 46  1  0
 49 52  1  1
 49 50  1  0
 51 49  1  0
 53 54  1  0
 55 53  1  0
 55  5  1  0
 55 54  1  0
 57 66  1  0
 57 56  1  0
 58 66  1  0
 59 64  1  0
 60 61  1  0
 60 59  1  0
 62 61  1  0
 62 71  1  0
 62 63  1  0
 64 58  1  0
 64 63  1  0
 65 58  2  0
 66 67  1  0
 68 93  1  0
 68 69  2  0
 69 88  1  0
 70 69  1  0
 71 72  1  0
 71 68  1  0
 72 70  2  0
 73 70  1  0
 73 74  1  0
 75 74  2  0
 76 75  1  0
 77 78  1  0
 77 76  2  0
 78 73  2  0
 79 76  1  0
 79 80  1  0
 80 81  1  0
 81 82  2  0
 83 82  1  0
 83 87  1  0
 84 83  2  0
 85 80  2  0
 85 84  1  0
 86 85  1  0
 88 89  1  0
 89 92  1  0
 89 91  1  0
 90 88  2  0
 93 94  1  0
 95 93  1  0
M  ISO  4  11 101  12 101  58 100  66 100
M  END
>  <TORSDO>  (54) 
F 22

>  <SCORE>  (54) 
-4.340

>  <name>  (54) 
54

>  <ligand_id>  (54) 
54

>  <original_smiles>  (54) 
[H]C(=C(c1c([H])c([H])c(C2([H])C([H])([H])C2([H])[H])c([H])c1C([H])([H])C([H])([H])N([H])C(=O)N1C([H])([H])C([H])([H])C([H])([H])C([H])(n2nc(-c3c([H])c([H])c(Oc4c([H])c([H])c(F)c([H])c4F)c([H])c3[H])c(C(=O)N([H])[H])c2N([H])[H])C1([H])[H])C([H])([H])[H])C([H])([H])C([H])([H])Oc1c([H])c([H])c2c(c1[H])C([H])([H])N(C(=O)C([H])(N([H])C(=O)C([H])(N([H])C([H])([H])[H])C([H])([H])[H])C(C([H])([H])[H])(C([H])([H])[H])C([H])([H])[H])C([H])(C(=O)N([H])C1([H])c3c([H])c([H])c([H])c([H])c3C([H])([H])C([H])([H])C1([H])[H])C2([H])[H]

>  <smiles>  (54) 
[H]C(=C(c1c([H])c([H])c(C2([H])C([H])([H])C2([H])[H])c([H])c1C([H])([H])C([H])([H])N([H])C(=O)N1C([H])([H])C([H])([H])C([H])([H])C([H])(n2nc(-c3c([H])c([H])c(Oc4c([H])c([H])c(F)c([H])c4F)c([H])c3[H])c(C(=O)N([H])[H])c2N([H])[H])C1([H])[H])C([H])([H])[H])C([H])([H])C([H])([H])Oc1c([H])c([H])c2c(c1[H])C([H])([H])N(C(=O)C([H])(N([H])C(=O)C([H])(N([H])C([H])([H])[H])C([H])([H])[H])C(C([H])([H])[H])(C([H])([H])[H])C([H])([H])[H])C([H])(C(=O)N([H])C1([H])c3c([H])c([H])c([H])c([H])c3C([H])([H])C([H])([H])C1([H])[H])C2([H])[H]

$$$$
55:0:0
     RDKit          3D

 93102  0  0  1  0  0  0  0  0999 V2000
  -29.7570  -21.4550   22.9110 C   0  0  0  0  0  3  0  0  0  0  0  0
  -29.7940  -22.4210   19.3190 C   0  0  0  0  0  3  0  0  0  0  0  0
  -29.9380  -20.0600   22.8290 C   0  0  0  0  0  3  0  0  0  0  0  0
  -29.5490  -23.8160   19.4110 C   0  0  0  0  0  3  0  0  0  0  0  0
  -30.0910  -20.2080   20.4070 C   0  0  0  0  0  3  0  0  0  0  0  0
  -29.4770  -23.6340   21.8270 C   0  0  0  0  0  3  0  0  0  0  0  0
  -29.8730  -21.6140   20.4810 C   0  0  0  0  0  0  0  0  0  0  0  0
  -29.7080  -22.2390   21.7410 C   0  0  0  0  0  0  0  0  0  0  0  0
  -30.1150  -19.4110   21.5840 C   0  0  0  0  0  0  0  0  0  0  0  0
  -29.3830  -24.4410   20.6690 C   0  0  0  0  0  0  0  0  0  0  0  0
  -30.1810  -17.9030   21.5930 C   0  0  0  0  0  0  0  0  0  0  0  0
  -29.6380  -17.2460   22.4880 O   0  0  0  0  0  0  0  0  0  0  0  0
  -30.9900  -17.1350   20.5240 C   0  0  0  0  0  2  0  0  0  0  0  0
  -31.2800  -14.6920   19.9100 C   0  0  0  0  0  0  0  0  0  0  0  0
  -30.8230  -12.5990   18.6810 C   0  0  0  0  0  2  0  0  0  0  0  0
  -29.7820  -12.8920   17.5810 C   0  0  0  0  0  2  0  0  0  0  0  0
  -28.3490  -12.7740   18.1370 C   0  0  0  0  0  2  0  0  0  0  0  0
  -28.1550  -13.5500   19.4650 C   0  0  0  0  0  3  0  0  0  0  0  0
  -29.2960  -13.2330   20.4600 C   0  0  0  0  0  2  0  0  0  0  0  0
  -30.5760  -13.5330   19.7920 N   0  0  0  0  0  0  0  0  0  0  0  0
  -32.3570  -14.8830   19.3410 O   0  0  0  0  0  0  0  0  0  0  0  0
  -30.6450  -15.6940   20.5440 N   0  0  0  0  0  0  0  0  0  0  0  0
  -29.7860  -15.4680   21.0260 H   0  0  0  0  0  0  0  0  0  0  0  0
  -25.8540  -14.1970   20.4170 C   0  0  0  0  0  0  0  0  0  0  0  0
  -24.7930  -13.4420   20.8400 C   0  0  0  0  0  0  0  0  0  0  0  0
  -25.1980  -12.0800   20.6970 C   0  0  0  0  0  0  0  0  0  0  0  0
  -26.8400  -13.2960   20.0490 N   0  0  0  0  0  0  0  0  0  0  0  0
  -26.4530  -12.0130   20.2730 N   0  0  0  0  0  0  0  0  0  0  0  0
  -24.4440  -10.8330   20.8850 C   0  0  0  0  0  0  0  0  0  0  0  0
  -24.8470   -9.8610   21.8260 C   0  0  0  0  0  3  0  0  0  0  0  0
  -24.0940   -8.6800   22.0010 C   0  0  0  0  0  3  0  0  0  0  0  0
  -22.9240   -8.4640   21.2350 C   0  0  0  0  0  0  0  0  0  0  0  0
  -22.5400   -9.4250   20.2830 C   0  0  0  0  0  3  0  0  0  0  0  0
  -23.2940  -10.5980   20.1060 C   0  0  0  0  0  3  0  0  0  0  0  0
  -22.1450   -7.3360   21.3190 O   0  0  0  0  0  0  0  0  0  0  0  0
  -21.9500   -6.6830   22.5100 C   0  0  0  0  0  0  0  0  0  0  0  0
  -21.4160   -7.3380   23.6410 C   0  0  0  0  0  3  0  0  0  0  0  0
  -21.1680   -6.6130   24.8230 C   0  0  0  0  0  3  0  0  0  0  0  0
  -21.4430   -5.2330   24.8740 C   0  0  0  0  0  0  0  0  0  0  0  0
  -21.9690   -4.5780   23.7480 C   0  0  0  0  0  3  0  0  0  0  0  0
  -22.2190   -5.3010   22.5680 C   0  0  0  0  0  0  0  0  0  0  0  0
  -22.7070   -4.6590   21.4780 F   0  0  0  0  0  0  0  0  0  0  0  0
  -21.1970   -4.5340   26.0060 F   0  0  0  0  0  0  0  0  0  0  0  0
  -23.4440  -13.9510   21.2630 C   0  0  0  0  0  0  0  0  0  0  0  0
  -22.7900  -13.2550   22.1880 N   0  0  0  0  0  0  0  0  0  0  0  0
  -22.9840  -14.9980   20.8100 O   0  0  0  0  0  0  0  0  0  0  0  0
  -23.1760  -12.4060   22.5730 H   0  0  0  0  0  0  0  0  0  0  0  0
  -21.8890  -13.5750   22.5130 H   0  0  0  0  0  0  0  0  0  0  0  0
  -26.0540  -15.5690   20.2940 N   0  0  0  0  0  0  0  0  0  0  0  0
  -25.3270  -16.2430   20.5040 H   0  0  0  0  0  0  0  0  0  0  0  0
  -26.8890  -15.9950   19.9110 H   0  0  0  0  0  0  0  0  0  0  0  0
  -29.1270  -25.9530   20.8320 C   0  0  0  0  0  2  0  0  0  0  0  0
  -28.7850  -26.6840   19.6390 O   0  0  0  0  0  0  0  0  0  0  0  0
  -24.6940  -31.5160   22.9880 C   0  0  0  0  0  0  0  0  0  0  0  0
  -27.6000  -27.3870   19.7050 C   0  0  0  0  0  0  0  0  0  0  0  0
  -23.5710  -30.1170   21.2840 C   0  0  0  0  0  3  0  0  0  0  0  0
  -25.1160  -28.7420   19.7850 C   0  0  0  0  0  0  0  0  0  0  0  0
  -26.0690  -30.6430   21.1000 C   0  0  0  0  0  2  0  0  0  0  0  0
  -26.2400  -29.3080   20.4000 C   0  0  0  0  0  0  0  0  0  0  0  0
  -27.4880  -28.6370   20.3610 C   0  0  0  0  0  3  0  0  0  0  0  0
  -26.4630  -26.8390   19.0810 C   0  0  0  0  0  3  0  0  0  0  0  0
  -25.2230  -27.5070   19.1200 C   0  0  0  0  0  3  0  0  0  0  0  0
  -23.8180  -29.5140   19.8730 C   0  0  0  0  0  2  0  0  0  0  0  0
  -24.7950  -30.7740   21.8480 N   0  0  0  0  0  0  0  0  0  0  0  0
  -23.6010  -31.6930   23.5430 O   0  0  0  0  0  0  0  0  0  0  0  0
  -22.9900  -29.0150   22.1980 C   0  0  0  0  0  0  0  0  0  0  0  0
  -21.6730  -28.7760   22.0900 N   0  0  0  0  0  0  0  0  0  0  0  0
  -23.7220  -28.3780   22.9630 O   0  0  0  0  0  0  0  0  0  0  0  0
  -21.1420  -29.3460   21.4460 H   0  0  0  0  0  0  0  0  0  0  0  0
  -18.3640  -27.4260   22.6240 C   0  0  0  0  0  0  0  0  0  0  0  0
  -20.9210  -27.7580   22.8210 C   0  0  0  0  0  3  0  0  0  0  0  0
  -21.0510  -26.3750   22.1420 C   0  0  0  0  0  2  0  0  0  0  0  0
  -19.9230  -26.0840   21.1470 C   0  0  0  0  0  2  0  0  0  0  0  0
  -18.5610  -26.1350   21.8470 C   0  0  0  0  0  2  0  0  0  0  0  0
  -19.4710  -28.1960   23.0670 C   0  0  0  0  0  0  0  0  0  0  0  0
  -19.2330  -29.4060   23.7530 C   0  0  0  0  0  3  0  0  0  0  0  0
  -17.9190  -29.8470   24.0010 C   0  0  0  0  0  3  0  0  0  0  0  0
  -16.8260  -29.0720   23.5750 C   0  0  0  0  0  3  0  0  0  0  0  0
  -17.0510  -27.8630   22.8910 C   0  0  0  0  0  3  0  0  0  0  0  0
  -25.9400  -32.1990   23.6330 C   0  0  0  0  0  3  0  0  0  0  0  0
  -26.5160  -31.4010   24.8680 C   0  0  1  0  0  0  0  0  0  0  0  0
  -25.4470  -31.0250   25.9200 C   0  0  0  0  0  1  0  0  0  0  0  0
  -27.2000  -30.0940   24.4030 C   0  0  0  0  0  1  0  0  0  0  0  0
  -27.6070  -32.2410   25.5730 C   0  0  0  0  0  1  0  0  0  0  0  0
  -25.5470  -33.5560   24.0310 N   0  0  0  0  0  0  0  0  0  0  0  0
  -25.8140  -34.6640   23.3260 C   0  0  0  0  0  0  0  0  0  0  0  0
  -26.4910  -34.6530   22.2940 O   0  0  0  0  0  0  0  0  0  0  0  0
  -24.9460  -33.6360   24.8390 H   0  0  0  0  0  0  0  0  0  0  0  0
  -23.9790  -36.3590   23.0500 C   0  0  0  0  0  1  0  0  0  0  0  0
  -25.2410  -35.9950   23.8490 C   0  0  0  0  0  3  0  0  0  0  0  0
  -27.3140  -36.9680   24.7350 C   0  0  0  0  0  1  0  0  0  0  0  0
  -26.2060  -37.1150   23.7940 N   0  0  0  0  0  0  0  0  0  0  0  0
  -25.7430  -37.9990   23.9880 H   0  0  0  0  0  0  0  0  0  0  0  0
  2  4  2  0
  2  7  1  0
  3  1  1  0
  4 10  1  0
  5  7  2  0
  5  9  1  0
  7  8  1  0
  8  6  1  0
  8  1  2  0
  9 11  1  0
  9  3  2  0
 10 52  1  0
 10  6  2  0
 11 12  2  0
 13 22  1  0
 13 11  1  0
 14 22  1  0
 15 20  1  0
 16 17  1  0
 16 15  1  0
 18 17  1  0
 18 27  1  0
 18 19  1  0
 20 14  1  0
 20 19  1  0
 21 14  2  0
 22 23  1  0
 24 25  2  0
 25 44  1  0
 26 25  1  0
 26 29  1  0
 27 28  1  0
 27 24  1  0
 28 26  2  0
 29 30  1  0
 30 31  2  0
 32 35  1  0
 32 31  1  0
 33 32  2  0
 34 33  1  0
 34 29  2  0
 35 36  1  0
 36 41  2  0
 36 37  1  0
 37 38  2  0
 38 39  1  0
 39 43  1  0
 40 39  2  0
 41 40  1  0
 42 41  1  0
 44 45  1  0
 45 48  1  0
 45 47  1  0
 46 44  2  0
 49 24  1  0
 49 50  1  0
 51 49  1  0
 53 55  1  0
 53 52  1  0
 54 65  2  0
 55 60  1  0
 56 64  1  0
 56 66  1  0
 57 63  1  0
 57 59  1  0
 58 64  1  0
 59 58  1  0
 60 59  2  0
 61 62  1  0
 61 55  2  0
 62 57  2  0
 63 56  1  0
 64 54  1  0
 66 68  2  0
 67 66  1  0
 69 67  1  0
 70 79  2  0
 70 75  1  0
 71 67  1  0
 71 75  1  0
 72 71  1  0
 73 74  1  0
 73 72  1  0
 74 70  1  0
 75 76  2  0
 76 77  1  0
 78 77  2  0
 79 78  1  0
 80 54  1  0
 80 85  1  0
 80 81  1  0
 81 84  1  1
 81 82  1  0
 83 81  1  0
 85 88  1  0
 86 90  1  0
 86 85  1  0
 87 86  2  0
 90 89  1  0
 92 90  1  0
 92 93  1  0
 92 91  1  0
M  ISO  4  14 100  22 100  52 101  53 101
M  END
>  <TORSDO>  (55) 
F 19

>  <SCORE>  (55) 
-11.017

>  <name>  (55) 
55

>  <ligand_id>  (55) 
55

>  <original_smiles>  (55) 
[H]c1c([H])c([H])c2c(c1[H])C([H])([H])C([H])([H])C([H])([H])C2([H])N([H])C(=O)C1([H])N(C(=O)C([H])(N([H])C(=O)C([H])(N([H])C([H])([H])[H])C([H])([H])[H])C(C([H])([H])[H])(C([H])([H])[H])C([H])([H])[H])C([H])([H])c2c([H])c(OC([H])([H])c3c([H])c([H])c4c([H])c(C(=O)C([H])([H])N([H])C(=O)N5C([H])([H])C([H])([H])C([H])([H])C([H])(n6nc(-c7c([H])c([H])c(Oc8c([H])c([H])c(F)c([H])c8F)c([H])c7[H])c(C(=O)N([H])[H])c6N([H])[H])C5([H])[H])c([H])c([H])c4c3[H])c([H])c([H])c2C1([H])[H]

>  <smiles>  (55) 
[H]c1c([H])c([H])c2c(c1[H])C([H])([H])C([H])([H])C([H])([H])C2([H])N([H])C(=O)C1([H])N(C(=O)C([H])(N([H])C(=O)C([H])(N([H])C([H])([H])[H])C([H])([H])[H])C(C([H])([H])[H])(C([H])([H])[H])C([H])([H])[H])C([H])([H])c2c([H])c(OC([H])([H])c3c([H])c([H])c4c([H])c(C(=O)C([H])([H])N([H])C(=O)N5C([H])([H])C([H])([H])C([H])([H])C([H])(n6nc(-c7c([H])c([H])c(Oc8c([H])c([H])c(F)c([H])c8F)c([H])c7[H])c(C(=O)N([H])[H])c6N([H])[H])C5([H])[H])c([H])c([H])c4c3[H])c([H])c([H])c2C1([H])[H]

$$$$
56:0:0
     RDKit          3D

 89 99  0  0  1  0  0  0  0  0999 V2000
  -28.9730  -21.3460   22.0920 C   0  0  0  0  0  2  0  0  0  0  0  0
  -29.8210  -20.3140   21.3240 C   0  0  0  0  0  3  0  0  0  0  0  0
  -28.2900  -22.3390   21.1320 C   0  0  0  0  0  3  0  0  0  0  0  0
  -29.6660  -20.6380   19.8860 C   0  0  0  0  0  3  0  0  0  0  0  0
  -28.7580  -21.9910   19.7610 C   0  0  0  0  0  3  0  0  0  0  0  0
  -29.3360  -19.1340   20.4370 C   0  0  0  0  0  3  0  0  0  0  0  0
  -28.9340  -23.5110   20.3420 C   0  0  2  0  0  0  0  0  0  0  0  0
  -30.3340  -23.9850   20.6730 C   0  0  0  0  0  1  0  0  0  0  0  0
  -30.2650  -17.7580   20.3050 C   0  0  0  0  0  2  0  0  0  0  0  0
  -30.5700  -15.0570   20.2290 C   0  0  0  0  0  0  0  0  0  0  0  0
  -30.3920  -12.7280   19.2620 C   0  0  0  0  0  2  0  0  0  0  0  0
  -29.4330  -12.7130   18.0500 C   0  0  0  0  0  2  0  0  0  0  0  0
  -27.9800  -12.5070   18.5120 C   0  0  0  0  0  2  0  0  0  0  0  0
  -27.6030  -13.4250   19.7050 C   0  0  0  0  0  3  0  0  0  0  0  0
  -28.6820  -13.4200   20.8100 C   0  0  0  0  0  2  0  0  0  0  0  0
  -29.9460  -13.8140   20.1780 N   0  0  0  0  0  0  0  0  0  0  0  0
  -31.7620  -15.1140   19.9140 O   0  0  0  0  0  0  0  0  0  0  0  0
  -29.8290  -16.2500   20.4200 N   0  0  0  0  0  0  0  0  0  0  0  0
  -28.8510  -16.1010   20.6210 H   0  0  0  0  0  0  0  0  0  0  0  0
  -25.2410  -13.9970   20.5110 C   0  0  0  0  0  0  0  0  0  0  0  0
  -24.1830  -13.2180   20.8910 C   0  0  0  0  0  0  0  0  0  0  0  0
  -24.6440  -11.8670   20.8230 C   0  0  0  0  0  0  0  0  0  0  0  0
  -26.2770  -13.1220   20.2300 N   0  0  0  0  0  0  0  0  0  0  0  0
  -25.9280  -11.8350   20.4850 N   0  0  0  0  0  0  0  0  0  0  0  0
  -23.9180  -10.6030   21.0050 C   0  0  0  0  0  0  0  0  0  0  0  0
  -24.3430   -9.6330   21.9400 C   0  0  0  0  0  3  0  0  0  0  0  0
  -23.6160   -8.4350   22.1090 C   0  0  0  0  0  3  0  0  0  0  0  0
  -22.4490   -8.1980   21.3440 C   0  0  0  0  0  0  0  0  0  0  0  0
  -22.0450   -9.1560   20.3960 C   0  0  0  0  0  3  0  0  0  0  0  0
  -22.7730  -10.3460   20.2250 C   0  0  0  0  0  3  0  0  0  0  0  0
  -21.6930   -7.0540   21.4230 O   0  0  0  0  0  0  0  0  0  0  0  0
  -21.5980   -6.3340   22.5870 C   0  0  0  0  0  0  0  0  0  0  0  0
  -21.0860   -6.9000   23.7750 C   0  0  0  0  0  3  0  0  0  0  0  0
  -20.9420   -6.1060   24.9290 C   0  0  0  0  0  3  0  0  0  0  0  0
  -21.2980   -4.7440   24.8970 C   0  0  0  0  0  0  0  0  0  0  0  0
  -21.8010   -4.1760   23.7130 C   0  0  0  0  0  3  0  0  0  0  0  0
  -21.9480   -4.9690   22.5610 C   0  0  0  0  0  0  0  0  0  0  0  0
  -22.4140   -4.4120   21.4170 F   0  0  0  0  0  0  0  0  0  0  0  0
  -21.1510   -3.9780   26.0020 F   0  0  0  0  0  0  0  0  0  0  0  0
  -22.7940  -13.6930   21.2020 C   0  0  0  0  0  0  0  0  0  0  0  0
  -22.0810  -12.9810   22.0680 N   0  0  0  0  0  0  0  0  0  0  0  0
  -22.3490  -14.7310   20.7140 O   0  0  0  0  0  0  0  0  0  0  0  0
  -22.4520  -12.1390   22.4840 H   0  0  0  0  0  0  0  0  0  0  0  0
  -21.1500  -13.2800   22.3210 H   0  0  0  0  0  0  0  0  0  0  0  0
  -25.4020  -15.3720   20.3550 N   0  0  0  0  0  0  0  0  0  0  0  0
  -24.6340  -16.0210   20.4900 H   0  0  0  0  0  0  0  0  0  0  0  0
  -26.2340  -15.8170   19.9920 H   0  0  0  0  0  0  0  0  0  0  0  0
  -28.0260  -24.8420   19.9440 C   0  0  0  0  0  2  0  0  0  0  0  0
  -28.2770  -26.3410   20.2460 O   0  0  0  0  0  0  0  0  0  0  0  0
  -24.6360  -31.9550   23.2830 C   0  0  0  0  0  0  0  0  0  0  0  0
  -27.2140  -27.3090   20.1780 C   0  0  0  0  0  0  0  0  0  0  0  0
  -23.4300  -30.5740   21.6330 C   0  0  0  0  0  3  0  0  0  0  0  0
  -24.8770  -29.0290   20.1780 C   0  0  0  0  0  0  0  0  0  0  0  0
  -25.9800  -30.8550   21.4580 C   0  0  0  0  0  2  0  0  0  0  0  0
  -26.0550  -29.4750   20.7880 C   0  0  0  0  0  0  0  0  0  0  0  0
  -27.2230  -28.6290   20.7750 C   0  0  0  0  0  3  0  0  0  0  0  0
  -26.0140  -26.9640   19.5180 C   0  0  0  0  0  3  0  0  0  0  0  0
  -24.8680  -27.7870   19.5250 C   0  0  0  0  0  3  0  0  0  0  0  0
  -23.6450  -29.9150   20.2440 C   0  0  0  0  0  2  0  0  0  0  0  0
  -24.7010  -31.1490   22.1790 N   0  0  0  0  0  0  0  0  0  0  0  0
  -23.5520  -32.2290   23.8190 O   0  0  0  0  0  0  0  0  0  0  0  0
  -22.7630  -29.5510   22.5880 C   0  0  0  0  0  0  0  0  0  0  0  0
  -21.4370  -29.3650   22.4570 N   0  0  0  0  0  0  0  0  0  0  0  0
  -23.4400  -28.9310   23.4110 O   0  0  0  0  0  0  0  0  0  0  0  0
  -20.9470  -29.9190   21.7670 H   0  0  0  0  0  0  0  0  0  0  0  0
  -18.0700  -28.1240   22.9370 C   0  0  0  0  0  0  0  0  0  0  0  0
  -20.6240  -28.4140   23.2190 C   0  0  0  0  0  3  0  0  0  0  0  0
  -20.7460  -26.9850   22.6390 C   0  0  0  0  0  2  0  0  0  0  0  0
  -19.6530  -26.6540   21.6180 C   0  0  0  0  0  2  0  0  0  0  0  0
  -18.2670  -26.7800   22.2550 C   0  0  0  0  0  2  0  0  0  0  0  0
  -19.1770  -28.8980   23.3760 C   0  0  0  0  0  0  0  0  0  0  0  0
  -18.9400  -30.1550   23.9740 C   0  0  0  0  0  3  0  0  0  0  0  0
  -17.6280  -30.6370   24.1400 C   0  0  0  0  0  3  0  0  0  0  0  0
  -16.5350  -29.8600   23.7180 C   0  0  0  0  0  3  0  0  0  0  0  0
  -16.7560  -28.6050   23.1220 C   0  0  0  0  0  3  0  0  0  0  0  0
  -25.9180  -32.5870   23.9070 C   0  0  0  0  0  3  0  0  0  0  0  0
  -25.6130  -33.9880   24.2340 N   0  0  0  0  0  0  0  0  0  0  0  0
  -25.9250  -35.0370   23.4620 C   0  0  0  0  0  0  0  0  0  0  0  0
  -26.5660  -34.9290   22.4130 O   0  0  0  0  0  0  0  0  0  0  0  0
  -25.0440  -34.1480   25.0510 H   0  0  0  0  0  0  0  0  0  0  0  0
  -24.1770  -36.8220   23.1610 C   0  0  0  0  0  1  0  0  0  0  0  0
  -25.4490  -36.4280   23.9260 C   0  0  0  0  0  3  0  0  0  0  0  0
  -27.6080  -37.3340   24.6700 C   0  0  0  0  0  1  0  0  0  0  0  0
  -26.4690  -37.4870   23.7670 N   0  0  0  0  0  0  0  0  0  0  0  0
  -26.0620  -38.4050   23.9260 H   0  0  0  0  0  0  0  0  0  0  0  0
  -26.4230  -31.8210   25.1930 C   0  0  1  0  0  0  0  0  0  0  0  0
  -25.3210  -31.5910   26.2540 C   0  0  0  0  0  1  0  0  0  0  0  0
  -27.0100  -30.4400   24.8190 C   0  0  0  0  0  1  0  0  0  0  0  0
  -27.5690  -32.6190   25.8590 C   0  0  0  0  0  1  0  0  0  0  0  0
  2  1  1  0
  3  1  1  0
  4  6  1  0
  4  2  1  0
  5  4  1  0
  5  7  1  0
  5  3  1  0
  6  2  1  0
  7  8  1  1
  7  3  1  0
  9 18  1  0
  9  6  1  0
 10 18  1  0
 11 16  1  0
 12 13  1  0
 12 11  1  0
 13 14  1  0
 14 23  1  0
 14 15  1  0
 16 10  1  0
 16 15  1  0
 17 10  2  0
 18 19  1  0
 20 21  2  0
 21 40  1  0
 22 21  1  0
 22 25  1  0
 23 24  1  0
 23 20  1  0
 24 22  2  0
 25 26  1  0
 26 27  2  0
 28 31  1  0
 28 27  1  0
 29 28  2  0
 30 29  1  0
 30 25  2  0
 31 32  1  0
 32 33  1  0
 33 34  2  0
 35 34  1  0
 35 39  1  0
 36 35  2  0
 37 32  2  0
 37 36  1  0
 38 37  1  0
 40 41  1  0
 41 44  1  0
 41 43  1  0
 42 40  2  0
 45 46  1  0
 45 20  1  0
 47 45  1  0
 48 49  1  0
 48  7  1  0
 50 61  2  0
 50 76  1  0
 51 49  1  0
 51 56  1  0
 52 60  1  0
 52 62  1  0
 53 59  1  0
 53 55  1  0
 54 60  1  0
 55 54  1  0
 56 55  2  0
 57 58  1  0
 57 51  2  0
 58 53  2  0
 59 52  1  0
 60 50  1  0
 62 64  2  0
 63 62  1  0
 63 67  1  0
 65 63  1  0
 66 75  2  0
 66 71  1  0
 67 71  1  0
 68 67  1  0
 69 70  1  0
 69 68  1  0
 70 66  1  0
 71 72  2  0
 72 73  1  0
 74 73  2  0
 75 74  1  0
 76 77  1  0
 76 86  1  0
 77 80  1  0
 78 82  1  0
 78 77  1  0
 79 78  2  0
 81 82  1  0
 84 82  1  0
 84 85  1  0
 84 83  1  0
 86 89  1  1
 86 87  1  0
 88 86  1  0
M  ISO  4  10 100  18 100  48 101  49 101
M  END
>  <TORSDO>  (56) 
F 18

>  <SCORE>  (56) 
-14.475

>  <name>  (56) 
56

>  <ligand_id>  (56) 
56

>  <original_smiles>  (56) 
[H]c1c([H])c([H])c2c(c1[H])C([H])([H])C([H])([H])C([H])([H])C2([H])N([H])C(=O)C1([H])N(C(=O)C([H])(N([H])C(=O)C([H])(N([H])C([H])([H])[H])C([H])([H])[H])C(C([H])([H])[H])(C([H])([H])[H])C([H])([H])[H])C([H])([H])c2c([H])c(OC([H])([H])C3(C([H])([H])[H])C4([H])C([H])([H])C5([H])C([H])(C([H])([H])N([H])C(=O)N6C([H])([H])C([H])([H])C([H])([H])C([H])(n7nc(-c8c([H])c([H])c(Oc9c([H])c([H])c(F)c([H])c9F)c([H])c8[H])c(C(=O)N([H])[H])c7N([H])[H])C6([H])[H])C5([H])C43[H])c([H])c([H])c2C1([H])[H]

>  <smiles>  (56) 
[H]c1c([H])c([H])c2c(c1[H])C([H])([H])C([H])([H])C([H])([H])C2([H])N([H])C(=O)C1([H])N(C(=O)C([H])(N([H])C(=O)C([H])(N([H])C([H])([H])[H])C([H])([H])[H])C(C([H])([H])[H])(C([H])([H])[H])C([H])([H])[H])C([H])([H])c2c([H])c(OC([H])([H])C3(C([H])([H])[H])C4([H])C([H])([H])C5([H])C([H])(C([H])([H])N([H])C(=O)N6C([H])([H])C([H])([H])C([H])([H])C([H])(n7nc(-c8c([H])c([H])c(Oc9c([H])c([H])c(F)c([H])c9F)c([H])c8[H])c(C(=O)N([H])[H])c7N([H])[H])C6([H])[H])C5([H])C43[H])c([H])c([H])c2C1([H])[H]

$$$$
57:0:0
     RDKit          3D

 91100  0  0  1  0  0  0  0  0999 V2000
  -30.5570  -22.1630   20.4790 C   0  0  0  0  0  2  0  0  0  0  0  0
  -30.2360  -17.9080   21.8360 C   0  0  0  0  0  2  0  0  0  0  0  0
  -30.8660  -20.6430   20.3500 C   0  0  0  0  0  2  0  0  0  0  0  0
  -29.3850  -19.2130   21.8320 C   0  0  0  0  0  2  0  0  0  0  0  0
  -28.4720  -21.0290   20.1160 C   0  0  0  0  0  2  0  0  0  0  0  0
  -29.5100  -18.4870   19.6070 C   0  0  0  0  0  2  0  0  0  0  0  0
  -29.2520  -22.3520   19.7110 C   0  0  0  0  0  3  0  0  0  0  0  0
  -30.3380  -17.3690   20.3880 C   0  0  0  0  0  3  0  0  0  0  0  0
  -29.5270  -19.8560   20.4350 C   0  0  1  0  0  0  0  0  0  0  0  0
  -30.7530  -14.7840   20.0060 C   0  0  0  0  0  0  0  0  0  0  0  0
  -30.5160  -12.5370   18.9440 C   0  0  0  0  0  2  0  0  0  0  0  0
  -29.5040  -12.6330   17.7820 C   0  0  0  0  0  2  0  0  0  0  0  0
  -28.0630  -12.4390   18.2970 C   0  0  0  0  0  2  0  0  0  0  0  0
  -27.7590  -13.2940   19.5560 C   0  0  0  0  0  3  0  0  0  0  0  0
  -28.8830  -13.1850   20.6090 C   0  0  0  0  0  2  0  0  0  0  0  0
  -30.1380  -13.5560   19.9450 N   0  0  0  0  0  0  0  0  0  0  0  0
  -31.9250  -14.9090   19.6370 O   0  0  0  0  0  0  0  0  0  0  0  0
  -29.9670  -15.8900   20.2860 N   0  0  0  0  0  0  0  0  0  0  0  0
  -29.0030  -15.6730   20.4900 H   0  0  0  0  0  0  0  0  0  0  0  0
  -25.4250  -13.8530   20.4570 C   0  0  0  0  0  0  0  0  0  0  0  0
  -24.3860  -13.0630   20.8650 C   0  0  0  0  0  0  0  0  0  0  0  0
  -24.8470  -11.7150   20.7560 C   0  0  0  0  0  0  0  0  0  0  0  0
  -26.4510  -12.9850   20.1220 N   0  0  0  0  0  0  0  0  0  0  0  0
  -26.1160  -11.6920   20.3680 N   0  0  0  0  0  0  0  0  0  0  0  0
  -24.1380  -10.4440   20.9460 C   0  0  0  0  0  0  0  0  0  0  0  0
  -24.5800   -9.4820   21.8810 C   0  0  0  0  0  3  0  0  0  0  0  0
  -23.8670   -8.2760   22.0570 C   0  0  0  0  0  3  0  0  0  0  0  0
  -22.6990   -8.0250   21.2980 C   0  0  0  0  0  0  0  0  0  0  0  0
  -22.2760   -8.9760   20.3530 C   0  0  0  0  0  3  0  0  0  0  0  0
  -22.9900  -10.1740   20.1750 C   0  0  0  0  0  3  0  0  0  0  0  0
  -21.9580   -6.8720   21.3850 O   0  0  0  0  0  0  0  0  0  0  0  0
  -21.8420   -6.1780   22.5620 C   0  0  0  0  0  0  0  0  0  0  0  0
  -21.2950   -6.7640   23.7240 C   0  0  0  0  0  3  0  0  0  0  0  0
  -21.1290   -5.9930   24.8920 C   0  0  0  0  0  3  0  0  0  0  0  0
  -21.5000   -4.6350   24.8980 C   0  0  0  0  0  0  0  0  0  0  0  0
  -22.0400   -4.0470   23.7410 C   0  0  0  0  0  3  0  0  0  0  0  0
  -22.2060   -4.8150   22.5750 C   0  0  0  0  0  0  0  0  0  0  0  0
  -22.7080   -4.2380   21.4560 F   0  0  0  0  0  0  0  0  0  0  0  0
  -21.3350   -3.8910   26.0170 F   0  0  0  0  0  0  0  0  0  0  0  0
  -23.0070  -13.5250   21.2380 C   0  0  0  0  0  0  0  0  0  0  0  0
  -22.3330  -12.7920   22.1170 N   0  0  0  0  0  0  0  0  0  0  0  0
  -22.5360  -14.5680   20.7860 O   0  0  0  0  0  0  0  0  0  0  0  0
  -22.7270  -11.9460   22.5010 H   0  0  0  0  0  0  0  0  0  0  0  0
  -21.4130  -13.0850   22.4130 H   0  0  0  0  0  0  0  0  0  0  0  0
  -25.5740  -15.2320   20.3180 N   0  0  0  0  0  0  0  0  0  0  0  0
  -24.8100  -15.8720   20.4980 H   0  0  0  0  0  0  0  0  0  0  0  0
  -26.3850  -15.6880   19.9200 H   0  0  0  0  0  0  0  0  0  0  0  0
  -27.5170  -23.7990   18.4480 C   0  0  0  0  0  1  0  0  0  0  0  0
  -28.6630  -23.8640   19.4700 C   0  0  0  0  0  3  0  0  0  0  0  0
  -28.3310  -24.9810   20.5900 C   0  0  0  0  0  2  0  0  0  0  0  0
  -28.4600  -26.4460   20.2610 O   0  0  0  0  0  0  0  0  0  0  0  0
  -24.7020  -31.9010   23.2380 C   0  0  0  0  0  0  0  0  0  0  0  0
  -27.3340  -27.2960   20.2510 C   0  0  0  0  0  0  0  0  0  0  0  0
  -23.5080  -30.4800   21.6120 C   0  0  0  0  0  3  0  0  0  0  0  0
  -24.9670  -28.9210   20.2050 C   0  0  0  0  0  0  0  0  0  0  0  0
  -26.0440  -30.8130   21.4180 C   0  0  0  0  0  2  0  0  0  0  0  0
  -26.1370  -29.4210   20.7910 C   0  0  0  0  0  0  0  0  0  0  0  0
  -27.3270  -28.6260   20.7920 C   0  0  0  0  0  3  0  0  0  0  0  0
  -26.1360  -26.8490   19.6580 C   0  0  0  0  0  3  0  0  0  0  0  0
  -24.9710  -27.6430   19.6260 C   0  0  0  0  0  3  0  0  0  0  0  0
  -23.7260  -29.7930   20.2390 C   0  0  0  0  0  2  0  0  0  0  0  0
  -24.7710  -31.0820   22.1470 N   0  0  0  0  0  0  0  0  0  0  0  0
  -23.6160  -32.1740   23.7720 O   0  0  0  0  0  0  0  0  0  0  0  0
  -22.8490  -29.4680   22.5810 C   0  0  0  0  0  0  0  0  0  0  0  0
  -21.5260  -29.2770   22.4540 N   0  0  0  0  0  0  0  0  0  0  0  0
  -23.5320  -28.8590   23.4090 O   0  0  0  0  0  0  0  0  0  0  0  0
  -21.0320  -29.8170   21.7560 H   0  0  0  0  0  0  0  0  0  0  0  0
  -18.1620  -28.0460   22.9540 C   0  0  0  0  0  0  0  0  0  0  0  0
  -20.7150  -28.3410   23.2350 C   0  0  0  0  0  3  0  0  0  0  0  0
  -20.8390  -26.9020   22.6800 C   0  0  0  0  0  2  0  0  0  0  0  0
  -19.7460  -26.5530   21.6650 C   0  0  0  0  0  2  0  0  0  0  0  0
  -18.3590  -26.6890   22.2980 C   0  0  0  0  0  2  0  0  0  0  0  0
  -19.2680  -28.8280   23.3790 C   0  0  0  0  0  0  0  0  0  0  0  0
  -19.0300  -30.0970   23.9520 C   0  0  0  0  0  3  0  0  0  0  0  0
  -17.7170  -30.5810   24.1060 C   0  0  0  0  0  3  0  0  0  0  0  0
  -16.6250  -29.7980   23.6950 C   0  0  0  0  0  3  0  0  0  0  0  0
  -16.8480  -28.5320   23.1240 C   0  0  0  0  0  3  0  0  0  0  0  0
  -25.9770  -32.5490   23.8550 C   0  0  0  0  0  3  0  0  0  0  0  0
  -25.6520  -33.9450   24.1850 N   0  0  0  0  0  0  0  0  0  0  0  0
  -25.9660  -35.0000   23.4210 C   0  0  0  0  0  0  0  0  0  0  0  0
  -26.6260  -34.9010   22.3830 O   0  0  0  0  0  0  0  0  0  0  0  0
  -25.0590  -34.0980   24.9870 H   0  0  0  0  0  0  0  0  0  0  0  0
  -24.2180  -36.7770   23.0710 C   0  0  0  0  0  1  0  0  0  0  0  0
  -25.4660  -36.3840   23.8780 C   0  0  0  0  0  3  0  0  0  0  0  0
  -27.5910  -37.2990   24.6980 C   0  0  0  0  0  1  0  0  0  0  0  0
  -26.4870  -37.4480   23.7560 N   0  0  0  0  0  0  0  0  0  0  0  0
  -26.0710  -38.3660   23.8960 H   0  0  0  0  0  0  0  0  0  0  0  0
  -26.5040  -31.7850   25.1320 C   0  0  1  0  0  0  0  0  0  0  0  0
  -25.4140  -31.5340   26.2010 C   0  0  0  0  0  1  0  0  0  0  0  0
  -27.1030  -30.4140   24.7420 C   0  0  0  0  0  1  0  0  0  0  0  0
  -27.6450  -32.5940   25.7930 C   0  0  0  0  0  1  0  0  0  0  0  0
  9  3  1  1
  3  1  1  0
  4  2  1  0
  5  9  1  0
  6  8  1  0
  7 49  1  0
  7  5  1  0
  7  1  1  0
  8 18  1  0
  8  2  1  0
  9  6  1  0
  9  4  1  0
 10 18  1  0
 11 16  1  0
 12 13  1  0
 12 11  1  0
 14 13  1  0
 14 23  1  0
 14 15  1  0
 16 10  1  0
 16 15  1  0
 17 10  2  0
 18 19  1  0
 20 21  2  0
 21 40  1  0
 22 21  1  0
 22 25  1  0
 23 24  1  0
 23 20  1  0
 24 22  2  0
 25 26  1  0
 26 27  2  0
 28 31  1  0
 28 27  1  0
 29 28  2  0
 30 29  1  0
 30 25  2  0
 31 32  1  0
 32 37  2  0
 32 33  1  0
 33 34  2  0
 34 35  1  0
 35 39  1  0
 36 35  2  0
 37 36  1  0
 38 37  1  0
 40 41  1  0
 41 44  1  0
 41 43  1  0
 42 40  2  0
 45 20  1  0
 45 46  1  0
 47 45  1  0
 49 48  1  0
 49 50  1  0
 51 50  1  0
 52 63  2  0
 53 51  1  0
 53 58  1  0
 54 62  1  0
 54 64  1  0
 55 61  1  0
 55 57  1  0
 56 62  1  0
 57 58  2  0
 57 56  1  0
 59 53  2  0
 60 59  1  0
 60 55  2  0
 61 54  1  0
 62 52  1  0
 64 66  2  0
 65 64  1  0
 67 65  1  0
 68 77  2  0
 68 73  1  0
 69 65  1  0
 69 73  1  0
 70 69  1  0
 71 72  1  0
 71 70  1  0
 72 68  1  0
 73 74  2  0
 74 75  1  0
 76 75  2  0
 77 76  1  0
 78 52  1  0
 78 79  1  0
 78 88  1  0
 79 82  1  0
 80 84  1  0
 80 79  1  0
 81 80  2  0
 84 83  1  0
 86 84  1  0
 86 87  1  0
 86 85  1  0
 88 91  1  1
 88 89  1  0
 90 88  1  0
M  ISO  4  10 100  18 100  50 101  51 101
M  END
>  <TORSDO>  (57) 
F 18

>  <SCORE>  (57) 
-13.386

>  <name>  (57) 
57

>  <ligand_id>  (57) 
57

>  <original_smiles>  (57) 
[H]c1c([H])c([H])c2c(c1[H])C([H])([H])C([H])([H])C([H])([H])C2([H])N([H])C(=O)C1([H])N(C(=O)C([H])(N([H])C(=O)C([H])(N([H])C([H])([H])[H])C([H])([H])[H])C(C([H])([H])[H])(C([H])([H])[H])C([H])([H])[H])C([H])([H])c2c([H])c(OC([H])([H])C([H])(C([H])([H])[H])C3([H])C([H])([H])C([H])([H])C4(C([H])([H])C([H])([H])C([H])(N([H])C(=O)N5C([H])([H])C([H])([H])C([H])([H])C([H])(n6nc(-c7c([H])c([H])c(Oc8c([H])c([H])c(F)c([H])c8F)c([H])c7[H])c(C(=O)N([H])[H])c6N([H])[H])C5([H])[H])C4([H])[H])C3([H])[H])c([H])c([H])c2C1([H])[H]

>  <smiles>  (57) 
[H]c1c([H])c([H])c2c(c1[H])C([H])([H])C([H])([H])C([H])([H])C2([H])N([H])C(=O)C1([H])N(C(=O)C([H])(N([H])C(=O)C([H])(N([H])C([H])([H])[H])C([H])([H])[H])C(C([H])([H])[H])(C([H])([H])[H])C([H])([H])[H])C([H])([H])c2c([H])c(OC([H])([H])C([H])(C([H])([H])[H])C3([H])C([H])([H])C([H])([H])C4(C([H])([H])C([H])([H])C([H])(N([H])C(=O)N5C([H])([H])C([H])([H])C([H])([H])C([H])(n6nc(-c7c([H])c([H])c(Oc8c([H])c([H])c(F)c([H])c8F)c([H])c7[H])c(C(=O)N([H])[H])c6N([H])[H])C5([H])[H])C4([H])[H])C3([H])[H])c([H])c([H])c2C1([H])[H]

$$$$
58:0:0
     RDKit          3D

 96105  0  0  1  0  0  0  0  0999 V2000
  -31.0390  -14.7320   20.6300 C   0  0  0  0  0  0  0  0  0  0  0  0
  -30.7530  -12.4660   19.6750 C   0  0  0  0  0  2  0  0  0  0  0  0
  -29.8970  -12.5140   18.3950 C   0  0  0  0  0  2  0  0  0  0  0  0
  -28.3920  -12.4860   18.7220 C   0  0  0  0  0  2  0  0  0  0  0  0
  -27.9850  -13.4310   19.8830 C   0  0  0  0  0  3  0  0  0  0  0  0
  -28.9700  -13.3120   21.0700 C   0  0  0  0  0  2  0  0  0  0  0  0
  -30.3110  -13.5760   20.5390 N   0  0  0  0  0  0  0  0  0  0  0  0
  -32.2610  -14.7040   20.4780 O   0  0  0  0  0  0  0  0  0  0  0  0
  -28.9880  -19.2490   21.2290 C   0  0  0  0  0  2  0  0  0  0  0  0
  -30.5080  -19.5760   19.4450 C   0  0  0  0  0  2  0  0  0  0  0  0
  -29.2690  -16.5490   21.0830 C   0  0  0  0  0  2  0  0  0  0  0  0
  -29.3840  -20.3320   20.1860 C   0  0  0  0  0  3  0  0  0  0  0  0
  -31.0180  -16.9580   19.4840 C   0  0  0  0  0  3  0  0  0  0  0  0
  -28.9730  -17.9230   20.4230 C   0  0  0  0  0  3  0  0  0  0  0  0
  -29.9990  -18.1150   19.3270 C   0  0  0  0  0  3  0  0  0  0  0  0
  -30.3990  -15.9220   20.3590 N   0  0  0  0  0  0  0  0  0  0  0  0
  -25.5840  -14.1390   20.4700 C   0  0  0  0  0  0  0  0  0  0  0  0
  -24.4640  -13.4120   20.7710 C   0  0  0  0  0  0  0  0  0  0  0  0
  -24.8670  -12.0420   20.7600 C   0  0  0  0  0  0  0  0  0  0  0  0
  -26.6010  -13.2140   20.2940 N   0  0  0  0  0  0  0  0  0  0  0  0
  -26.1710  -11.9480   20.5340 N   0  0  0  0  0  0  0  0  0  0  0  0
  -24.0740  -10.8140   20.8900 C   0  0  0  0  0  0  0  0  0  0  0  0
  -24.3990   -9.8220   21.8410 C   0  0  0  0  0  3  0  0  0  0  0  0
  -23.6090   -8.6580   21.9590 C   0  0  0  0  0  3  0  0  0  0  0  0
  -22.4790   -8.4780   21.1260 C   0  0  0  0  0  0  0  0  0  0  0  0
  -22.1740   -9.4570   20.1640 C   0  0  0  0  0  3  0  0  0  0  0  0
  -22.9650  -10.6140   20.0430 C   0  0  0  0  0  3  0  0  0  0  0  0
  -21.6710   -7.3670   21.1520 O   0  0  0  0  0  0  0  0  0  0  0  0
  -21.5020   -6.6280   22.2950 C   0  0  0  0  0  0  0  0  0  0  0  0
  -20.9930   -7.1970   23.4830 C   0  0  0  0  0  3  0  0  0  0  0  0
  -20.7700   -6.3870   24.6140 C   0  0  0  0  0  3  0  0  0  0  0  0
  -21.0490   -5.0070   24.5570 C   0  0  0  0  0  0  0  0  0  0  0  0
  -21.5540   -4.4380   23.3740 C   0  0  0  0  0  3  0  0  0  0  0  0
  -21.7790   -5.2460   22.2460 C   0  0  0  0  0  0  0  0  0  0  0  0
  -22.2430   -4.6880   21.1030 F   0  0  0  0  0  0  0  0  0  0  0  0
  -20.8270   -4.2260   25.6400 F   0  0  0  0  0  0  0  0  0  0  0  0
  -23.0750  -13.9500   20.9550 C   0  0  0  0  0  0  0  0  0  0  0  0
  -22.2670  -13.2920   21.7800 N   0  0  0  0  0  0  0  0  0  0  0  0
  -22.7120  -14.9880   20.4050 O   0  0  0  0  0  0  0  0  0  0  0  0
  -22.5690  -12.4490   22.2470 H   0  0  0  0  0  0  0  0  0  0  0  0
  -21.3310  -13.6360   21.9440 H   0  0  0  0  0  0  0  0  0  0  0  0
  -25.8130  -15.5000   20.3050 N   0  0  0  0  0  0  0  0  0  0  0  0
  -25.0610  -16.1780   20.3580 H   0  0  0  0  0  0  0  0  0  0  0  0
  -26.6870  -15.9020   19.9940 H   0  0  0  0  0  0  0  0  0  0  0  0
  -31.4580  -16.4570   18.0960 C   0  0  0  0  0  0  0  0  0  0  0  0
  -30.5830  -15.7480   17.3970 N   0  0  0  0  0  0  0  0  0  0  0  0
  -32.5790  -16.7000   17.6580 O   0  0  0  0  0  0  0  0  0  0  0  0
  -29.6590  -15.5840   17.7680 H   0  0  0  0  0  0  0  0  0  0  0  0
  -30.8210  -15.4020   16.4800 H   0  0  0  0  0  0  0  0  0  0  0  0
  -29.7890  -21.7350   20.7410 C   0  0  0  0  0  0  0  0  0  0  0  0
  -29.2720  -22.8450   20.1610 N   0  0  0  0  0  0  0  0  0  0  0  0
  -30.5620  -21.8130   21.6960 O   0  0  0  0  0  0  0  0  0  0  0  0
  -28.6560  -22.6950   19.3710 H   0  0  0  0  0  0  0  0  0  0  0  0
  -29.5760  -24.2660   20.4920 C   0  0  0  0  0  2  0  0  0  0  0  0
  -28.4890  -25.2650   19.9840 C   0  0  0  0  0  2  0  0  0  0  0  0
  -28.6620  -26.6950   20.2530 O   0  0  0  0  0  0  0  0  0  0  0  0
  -24.5420  -31.7480   23.2280 C   0  0  0  0  0  0  0  0  0  0  0  0
  -27.5230  -27.4920   20.1360 C   0  0  0  0  0  0  0  0  0  0  0  0
  -23.5030  -30.3970   21.4420 C   0  0  0  0  0  3  0  0  0  0  0  0
  -25.1020  -28.9940   20.0380 C   0  0  0  0  0  0  0  0  0  0  0  0
  -26.0330  -30.8270   21.4490 C   0  0  0  0  0  2  0  0  0  0  0  0
  -26.2070  -29.4940   20.7420 C   0  0  0  0  0  0  0  0  0  0  0  0
  -27.4220  -28.7560   20.7820 C   0  0  0  0  0  3  0  0  0  0  0  0
  -26.4000  -27.0450   19.3970 C   0  0  0  0  0  3  0  0  0  0  0  0
  -25.2030  -27.7740   19.3560 C   0  0  0  0  0  3  0  0  0  0  0  0
  -23.8310  -29.8120   20.0450 C   0  0  0  0  0  2  0  0  0  0  0  0
  -24.7070  -31.0040   22.0980 N   0  0  0  0  0  0  0  0  0  0  0  0
  -23.4160  -31.9610   23.6990 O   0  0  0  0  0  0  0  0  0  0  0  0
  -22.8250  -29.3040   22.2990 C   0  0  0  0  0  0  0  0  0  0  0  0
  -21.4980  -29.1560   22.1460 N   0  0  0  0  0  0  0  0  0  0  0  0
  -23.4910  -28.5970   23.0610 O   0  0  0  0  0  0  0  0  0  0  0  0
  -21.0220  -29.7750   21.5050 H   0  0  0  0  0  0  0  0  0  0  0  0
  -18.0820  -28.0820   22.6360 C   0  0  0  0  0  0  0  0  0  0  0  0
  -20.6590  -28.1680   22.8260 C   0  0  0  0  0  3  0  0  0  0  0  0
  -20.6580  -26.8230   22.0640 C   0  0  0  0  0  2  0  0  0  0  0  0
  -19.5020  -26.6940   21.0670 C   0  0  0  0  0  2  0  0  0  0  0  0
  -18.1560  -26.8250   21.7850 C   0  0  0  0  0  2  0  0  0  0  0  0
  -19.2580  -28.7210   23.1120 C   0  0  0  0  0  0  0  0  0  0  0  0
  -19.1320  -29.9070   23.8680 C   0  0  0  0  0  3  0  0  0  0  0  0
  -17.8660  -30.4520   24.1520 C   0  0  0  0  0  3  0  0  0  0  0  0
  -16.7050  -29.8040   23.6940 C   0  0  0  0  0  3  0  0  0  0  0  0
  -16.8150  -28.6210   22.9420 C   0  0  0  0  0  3  0  0  0  0  0  0
  -25.7580  -32.3900   23.9650 C   0  0  0  0  0  3  0  0  0  0  0  0
  -26.1490  -31.6330   25.2950 C   0  0  1  0  0  0  0  0  0  0  0  0
  -24.9570  -31.4050   26.2540 C   0  0  0  0  0  1  0  0  0  0  0  0
  -26.7680  -30.2500   24.9790 C   0  0  0  0  0  1  0  0  0  0  0  0
  -27.2290  -32.4380   26.0550 C   0  0  0  0  0  1  0  0  0  0  0  0
  -25.4130  -33.7900   24.2440 N   0  0  0  0  0  0  0  0  0  0  0  0
  -25.7910  -34.8310   23.4910 C   0  0  0  0  0  0  0  0  0  0  0  0
  -26.5380  -34.7150   22.5170 O   0  0  0  0  0  0  0  0  0  0  0  0
  -24.7540  -33.9550   24.9910 H   0  0  0  0  0  0  0  0  0  0  0  0
  -24.0760  -36.5990   22.9810 C   0  0  0  0  0  1  0  0  0  0  0  0
  -25.2600  -36.2230   23.8850 C   0  0  0  0  0  3  0  0  0  0  0  0
  -27.3170  -37.1570   24.8500 C   0  0  0  0  0  1  0  0  0  0  0  0
  -26.2880  -37.2840   23.8220 N   0  0  0  0  0  0  0  0  0  0  0  0
  -25.8630  -38.2040   23.9050 H   0  0  0  0  0  0  0  0  0  0  0  0
  2  7  1  0
  3  4  1  0
  3  2  1  0
  5  4  1  0
  5 20  1  0
  5  6  1  0
  7  1  1  0
  7  6  1  0
  8  1  2  0
 10 12  1  0
 12 50  1  0
 12  9  1  0
 13 45  1  0
 13 16  1  0
 14 11  1  0
 14  9  1  0
 15 10  1  0
 15 13  1  0
 15 14  1  0
 16  1  1  0
 16 11  1  0
 17 18  2  0
 18 37  1  0
 19 18  1  0
 19 22  1  0
 20 17  1  0
 20 21  1  0
 21 19  2  0
 22 23  1  0
 23 24  2  0
 25 28  1  0
 25 24  1  0
 26 25  2  0
 27 26  1  0
 27 22  2  0
 28 29  1  0
 29 30  1  0
 30 31  2  0
 32 31  1  0
 32 36  1  0
 33 32  2  0
 34 29  2  0
 34 33  1  0
 35 34  1  0
 37 38  1  0
 38 41  1  0
 38 40  1  0
 39 37  2  0
 42 43  1  0
 42 17  1  0
 44 42  1  0
 46 48  1  0
 46 45  1  0
 47 45  2  0
 49 46  1  0
 50 52  2  0
 51 54  1  0
 51 50  1  0
 53 51  1  0
 55 56  1  0
 55 54  1  0
 57 68  2  0
 58 56  1  0
 58 63  1  0
 59 67  1  0
 59 69  1  0
 60 66  1  0
 60 62  1  0
 61 67  1  0
 62 63  2  0
 62 61  1  0
 64 58  2  0
 65 64  1  0
 65 60  2  0
 66 59  1  0
 67 57  1  0
 69 71  2  0
 70 69  1  0
 72 70  1  0
 73 82  2  0
 73 78  1  0
 74 70  1  0
 74 78  1  0
 75 74  1  0
 76 77  1  0
 76 75  1  0
 77 73  1  0
 78 79  2  0
 79 80  1  0
 81 80  2  0
 82 81  1  0
 83 57  1  0
 83 88  1  0
 83 84  1  0
 84 87  1  1
 84 85  1  0
 86 84  1  0
 88 91  1  0
 89 93  1  0
 89 88  1  0
 90 89  2  0
 93 92  1  0
 95 93  1  0
 95 96  1  0
 95 94  1  0
M  ISO  4   1 100  16 100  55 101  56 101
M  END
>  <TORSDO>  (58) 
F 19

>  <SCORE>  (58) 
-12.753

>  <name>  (58) 
58

>  <ligand_id>  (58) 
58

>  <original_smiles>  (58) 
[H]c1c([H])c([H])c2c(c1[H])C([H])([H])C([H])([H])C([H])([H])C2([H])N([H])C(=O)C1([H])N(C(=O)C([H])(N([H])C(=O)C([H])(N([H])C([H])([H])[H])C([H])([H])[H])C(C([H])([H])[H])(C([H])([H])[H])C([H])([H])[H])C([H])([H])c2c([H])c(OC([H])([H])C([H])([H])N([H])C(=O)C3([H])C([H])([H])C4([H])C([H])([H])N(C(=O)N5C([H])([H])C([H])([H])C([H])([H])C([H])(n6nc(-c7c([H])c([H])c(Oc8c([H])c([H])c(F)c([H])c8F)c([H])c7[H])c(C(=O)N([H])[H])c6N([H])[H])C5([H])[H])C([H])(C(=O)N([H])[H])C4([H])C3([H])[H])c([H])c([H])c2C1([H])[H]

>  <smiles>  (58) 
[H]c1c([H])c([H])c2c(c1[H])C([H])([H])C([H])([H])C([H])([H])C2([H])N([H])C(=O)C1([H])N(C(=O)C([H])(N([H])C(=O)C([H])(N([H])C([H])([H])[H])C([H])([H])[H])C(C([H])([H])[H])(C([H])([H])[H])C([H])([H])[H])C([H])([H])c2c([H])c(OC([H])([H])C([H])([H])N([H])C(=O)C3([H])C([H])([H])C4([H])C([H])([H])N(C(=O)N5C([H])([H])C([H])([H])C([H])([H])C([H])(n6nc(-c7c([H])c([H])c(Oc8c([H])c([H])c(F)c([H])c8F)c([H])c7[H])c(C(=O)N([H])[H])c6N([H])[H])C5([H])[H])C([H])(C(=O)N([H])[H])C4([H])C3([H])[H])c([H])c([H])c2C1([H])[H]

$$$$
59:0:0
     RDKit          3D

 91100  0  0  1  0  0  0  0  0999 V2000
  -31.1240  -21.6420   21.0630 C   0  0  0  0  0  2  0  0  0  0  0  0
  -31.9130  -21.2320   19.8140 C   0  0  0  0  0  2  0  0  0  0  0  0
  -30.0180  -19.9160   18.4770 C   0  0  0  0  0  2  0  0  0  0  0  0
  -29.6700  -21.1960   20.8030 C   0  0  0  0  0  3  0  0  0  0  0  0
  -31.2550  -19.9630   19.3300 C   0  0  0  0  0  3  0  0  0  0  0  0
  -29.8830  -19.8490   19.9880 C   0  0  2  0  0  0  0  0  0  0  0  0
  -28.8140  -22.3830   20.1660 C   0  0  0  0  0  0  0  0  0  0  0  0
  -27.8620  -22.1050   19.4330 O   0  0  0  0  0  0  0  0  0  0  0  0
  -29.1160  -23.9090   20.4840 C   0  0  0  0  0  3  0  0  0  0  0  0
  -28.0620  -24.9990   19.9910 C   0  0  0  0  0  3  0  0  0  0  0  0
  -28.2930  -26.4500   20.2200 O   0  0  0  0  0  0  0  0  0  0  0  0
  -24.6020  -31.8770   23.2310 C   0  0  0  0  0  0  0  0  0  0  0  0
  -27.1820  -27.3110   20.1580 C   0  0  0  0  0  0  0  0  0  0  0  0
  -23.3850  -30.4800   21.6010 C   0  0  0  0  0  3  0  0  0  0  0  0
  -24.8220  -28.9320   20.1630 C   0  0  0  0  0  0  0  0  0  0  0  0
  -25.9250  -30.7920   21.4030 C   0  0  0  0  0  2  0  0  0  0  0  0
  -25.9960  -29.4150   20.7540 C   0  0  0  0  0  0  0  0  0  0  0  0
  -27.1790  -28.6160   20.7430 C   0  0  0  0  0  3  0  0  0  0  0  0
  -25.9860  -26.8900   19.5300 C   0  0  0  0  0  3  0  0  0  0  0  0
  -24.8190  -27.6760   19.5430 C   0  0  0  0  0  3  0  0  0  0  0  0
  -23.5880  -29.8070   20.2190 C   0  0  0  0  0  2  0  0  0  0  0  0
  -24.6570  -31.0670   22.1350 N   0  0  0  0  0  0  0  0  0  0  0  0
  -23.5230  -32.1580   23.7720 O   0  0  0  0  0  0  0  0  0  0  0  0
  -22.7270  -29.4630   22.5650 C   0  0  0  0  0  0  0  0  0  0  0  0
  -21.4000  -29.2890   22.4470 N   0  0  0  0  0  0  0  0  0  0  0  0
  -23.4110  -28.8350   23.3770 O   0  0  0  0  0  0  0  0  0  0  0  0
  -20.9080  -29.8470   21.7610 H   0  0  0  0  0  0  0  0  0  0  0  0
  -18.0240  -28.1020   22.9660 C   0  0  0  0  0  0  0  0  0  0  0  0
  -20.5840  -28.3560   23.2240 C   0  0  0  0  0  3  0  0  0  0  0  0
  -20.6810  -26.9220   22.6520 C   0  0  0  0  0  2  0  0  0  0  0  0
  -19.5740  -26.5980   21.6440 C   0  0  0  0  0  2  0  0  0  0  0  0
  -18.1940  -26.7490   22.2930 C   0  0  0  0  0  2  0  0  0  0  0  0
  -19.1460  -28.8620   23.3880 C   0  0  0  0  0  0  0  0  0  0  0  0
  -18.9310  -30.1280   23.9760 C   0  0  0  0  0  3  0  0  0  0  0  0
  -17.6280  -30.6320   24.1460 C   0  0  0  0  0  3  0  0  0  0  0  0
  -16.5210  -29.8670   23.7410 C   0  0  0  0  0  3  0  0  0  0  0  0
  -16.7190  -28.6040   23.1550 C   0  0  0  0  0  3  0  0  0  0  0  0
  -25.8900  -32.5070   23.8440 C   0  0  0  0  0  3  0  0  0  0  0  0
  -25.5820  -33.9030   24.1850 N   0  0  0  0  0  0  0  0  0  0  0  0
  -25.9000  -34.9610   23.4260 C   0  0  0  0  0  0  0  0  0  0  0  0
  -26.5550  -34.8640   22.3850 O   0  0  0  0  0  0  0  0  0  0  0  0
  -25.0000  -34.0520   24.9960 H   0  0  0  0  0  0  0  0  0  0  0  0
  -24.1580  -36.7480   23.1140 C   0  0  0  0  0  1  0  0  0  0  0  0
  -25.4170  -36.3450   23.8990 C   0  0  0  0  0  3  0  0  0  0  0  0
  -27.5660  -37.2340   24.6870 C   0  0  0  0  0  1  0  0  0  0  0  0
  -26.4430  -37.4030   23.7690 N   0  0  0  0  0  0  0  0  0  0  0  0
  -26.0360  -38.3210   23.9290 H   0  0  0  0  0  0  0  0  0  0  0  0
  -26.4200  -31.7300   25.1110 C   0  0  1  0  0  0  0  0  0  0  0  0
  -25.3380  -31.4880   26.1890 C   0  0  0  0  0  1  0  0  0  0  0  0
  -26.9990  -30.3540   24.7080 C   0  0  0  0  0  1  0  0  0  0  0  0
  -27.5780  -32.5210   25.7640 C   0  0  0  0  0  1  0  0  0  0  0  0
  -29.5040  -18.4670   20.6760 C   0  0  0  0  0  3  0  0  0  0  0  0
  -30.3480  -17.1700   20.2560 C   0  0  0  0  0  3  0  0  0  0  0  0
  -30.6230  -14.6410   20.4110 C   0  0  0  0  0  0  0  0  0  0  0  0
  -30.3520  -12.4070   19.3710 C   0  0  0  0  0  2  0  0  0  0  0  0
  -29.4210  -12.5450   18.1480 C   0  0  0  0  0  2  0  0  0  0  0  0
  -27.9470  -12.3980   18.5720 C   0  0  0  0  0  2  0  0  0  0  0  0
  -27.5910  -13.2690   19.8070 C   0  0  0  0  0  3  0  0  0  0  0  0
  -28.6450  -13.1360   20.9290 C   0  0  0  0  0  2  0  0  0  0  0  0
  -29.9560  -13.4460   20.3450 N   0  0  0  0  0  0  0  0  0  0  0  0
  -31.7970  -14.7290   20.0480 O   0  0  0  0  0  0  0  0  0  0  0  0
  -29.8980  -15.7830   20.6470 N   0  0  0  0  0  0  0  0  0  0  0  0
  -28.9340  -15.6630   20.9210 H   0  0  0  0  0  0  0  0  0  0  0  0
  -25.1970  -13.8730   20.5130 C   0  0  0  0  0  0  0  0  0  0  0  0
  -24.1270  -13.1030   20.8830 C   0  0  0  0  0  0  0  0  0  0  0  0
  -24.5880  -11.7510   20.8640 C   0  0  0  0  0  0  0  0  0  0  0  0
  -26.2410  -12.9900   20.2900 N   0  0  0  0  0  0  0  0  0  0  0  0
  -25.8800  -11.7100   20.5630 N   0  0  0  0  0  0  0  0  0  0  0  0
  -23.8580  -10.4910   21.0590 C   0  0  0  0  0  0  0  0  0  0  0  0
  -24.2970   -9.5180   21.9850 C   0  0  0  0  0  3  0  0  0  0  0  0
  -23.5680   -8.3240   22.1680 C   0  0  0  0  0  3  0  0  0  0  0  0
  -22.3850   -8.0930   21.4250 C   0  0  0  0  0  0  0  0  0  0  0  0
  -21.9650   -9.0530   20.4900 C   0  0  0  0  0  3  0  0  0  0  0  0
  -22.6950  -10.2410   20.3040 C   0  0  0  0  0  3  0  0  0  0  0  0
  -21.6270   -6.9500   21.5190 O   0  0  0  0  0  0  0  0  0  0  0  0
  -21.6040   -6.1930   22.6620 C   0  0  0  0  0  0  0  0  0  0  0  0
  -21.2260   -6.7390   23.9090 C   0  0  0  0  0  3  0  0  0  0  0  0
  -21.1470   -5.9090   25.0450 C   0  0  0  0  0  3  0  0  0  0  0  0
  -21.4360   -4.5360   24.9370 C   0  0  0  0  0  0  0  0  0  0  0  0
  -21.8080   -3.9900   23.6950 C   0  0  0  0  0  3  0  0  0  0  0  0
  -21.8890   -4.8170   22.5610 C   0  0  0  0  0  0  0  0  0  0  0  0
  -22.2250   -4.2830   21.3630 F   0  0  0  0  0  0  0  0  0  0  0  0
  -21.3550   -3.7360   26.0260 F   0  0  0  0  0  0  0  0  0  0  0  0
  -22.7290  -13.5850   21.1440 C   0  0  0  0  0  0  0  0  0  0  0  0
  -21.9970  -12.8990   22.0140 N   0  0  0  0  0  0  0  0  0  0  0  0
  -22.2950  -14.6060   20.6110 O   0  0  0  0  0  0  0  0  0  0  0  0
  -22.3600  -12.0740   22.4680 H   0  0  0  0  0  0  0  0  0  0  0  0
  -21.0580  -13.2040   22.2300 H   0  0  0  0  0  0  0  0  0  0  0  0
  -25.3620  -15.2410   20.3260 N   0  0  0  0  0  0  0  0  0  0  0  0
  -24.5910  -15.8930   20.4250 H   0  0  0  0  0  0  0  0  0  0  0  0
  -26.2060  -15.6770   19.9760 H   0  0  0  0  0  0  0  0  0  0  0  0
  2  1  1  0
  3  6  1  0
  4  7  1  0
  4  1  1  0
  5  3  1  0
  5  2  1  0
  5  6  1  0
  6 52  1  6
  6  4  1  0
  7  9  1  0
  8  7  2  0
 10 11  1  0
 10  9  2  0
 12 23  2  0
 13 11  1  0
 13 18  1  0
 14 22  1  0
 14 24  1  0
 15 21  1  0
 15 17  1  0
 16 22  1  0
 17 16  1  0
 18 17  2  0
 19 20  1  0
 19 13  2  0
 20 15  2  0
 21 14  1  0
 22 12  1  0
 24 26  2  0
 25 24  1  0
 27 25  1  0
 28 37  2  0
 28 33  1  0
 29 25  1  0
 29 33  1  0
 30 29  1  0
 31 32  1  0
 31 30  1  0
 32 28  1  0
 33 34  2  0
 34 35  1  0
 36 35  2  0
 37 36  1  0
 38 12  1  0
 38 39  1  0
 38 48  1  0
 39 42  1  0
 40 44  1  0
 40 39  1  0
 41 40  2  0
 44 43  1  0
 46 44  1  0
 46 47  1  0
 46 45  1  0
 48 51  1  1
 48 49  1  0
 50 48  1  0
 53 62  1  0
 53 52  2  0
 54 62  1  0
 55 60  1  0
 56 57  1  0
 56 55  1  0
 58 57  1  0
 58 67  1  0
 58 59  1  0
 60 54  1  0
 60 59  1  0
 61 54  2  0
 62 63  1  0
 64 65  2  0
 65 84  1  0
 66 65  1  0
 66 69  1  0
 67 64  1  0
 67 68  1  0
 68 66  2  0
 69 70  1  0
 70 71  2  0
 72 75  1  0
 72 71  1  0
 73 72  2  0
 74 73  1  0
 74 69  2  0
 75 76  1  0
 76 77  1  0
 77 78  2  0
 79 78  1  0
 79 83  1  0
 80 79  2  0
 81 76  2  0
 81 80  1  0
 82 81  1  0
 84 85  1  0
 85 88  1  0
 85 87  1  0
 86 84  2  0
 89 90  1  0
 89 64  1  0
 91 89  1  0
M  ISO  4  10 101  11 101  54 100  62 100
M  END
>  <TORSDO>  (59) 
F 21

>  <SCORE>  (59) 
-13.511

>  <name>  (59) 
59

>  <ligand_id>  (59) 
59

>  <original_smiles>  (59) 
[H]c1c([H])c([H])c2c(c1[H])C([H])([H])C([H])([H])C([H])([H])C2([H])N([H])C(=O)C1([H])N(C(=O)C([H])(N([H])C(=O)C([H])(N([H])C([H])([H])[H])C([H])([H])[H])C(C([H])([H])[H])(C([H])([H])[H])C([H])([H])[H])C([H])([H])c2c([H])c(OC([H])([H])C([H])([H])C(=O)C3([H])C([H])([H])C([H])([H])C4([H])C([H])([H])C34C([H])([H])C([H])([H])N([H])C(=O)N3C([H])([H])C([H])([H])C([H])([H])C([H])(n4nc(-c5c([H])c([H])c(Oc6c([H])c([H])c(F)c([H])c6F)c([H])c5[H])c(C(=O)N([H])[H])c4N([H])[H])C3([H])[H])c([H])c([H])c2C1([H])[H]

>  <smiles>  (59) 
[H]c1c([H])c([H])c2c(c1[H])C([H])([H])C([H])([H])C([H])([H])C2([H])N([H])C(=O)C1([H])N(C(=O)C([H])(N([H])C(=O)C([H])(N([H])C([H])([H])[H])C([H])([H])[H])C(C([H])([H])[H])(C([H])([H])[H])C([H])([H])[H])C([H])([H])c2c([H])c(OC([H])([H])C([H])([H])C(=O)C3([H])C([H])([H])C([H])([H])C4([H])C([H])([H])C34C([H])([H])C([H])([H])N([H])C(=O)N3C([H])([H])C([H])([H])C([H])([H])C([H])(n4nc(-c5c([H])c([H])c(Oc6c([H])c([H])c(F)c([H])c6F)c([H])c5[H])c(C(=O)N([H])[H])c4N([H])[H])C3([H])[H])c([H])c([H])c2C1([H])[H]

$$$$
60:0:0
     RDKit          3D

 89 97  0  0  1  0  0  0  0  0999 V2000
  -30.6110  -22.2390   19.5690 C   0  0  0  0  0  2  0  0  0  0  0  0
  -30.4370  -22.1070   21.0440 C   0  0  0  0  0  3  0  0  0  0  0  0
  -29.2230  -21.9340   20.1260 C   0  0  2  0  0  0  0  0  0  0  0  0
  -29.9510  -23.1480   23.3030 C   0  0  0  0  0  1  0  0  0  0  0  0
  -30.6580  -23.3050   21.9520 C   0  0  0  0  0  2  0  0  0  0  0  0
  -28.7620  -20.3590   19.8210 C   0  0  0  0  0  2  0  0  0  0  0  0
  -29.4350  -18.9370   20.4550 C   0  0  0  0  0  2  0  0  0  0  0  0
  -29.6440  -17.4820   19.6380 C   0  0  0  0  0  2  0  0  0  0  0  0
  -30.4360  -14.8630   19.9750 C   0  0  0  0  0  0  0  0  0  0  0  0
  -30.2680  -12.5210   19.0350 C   0  0  0  0  0  2  0  0  0  0  0  0
  -29.2760  -12.5210   17.8470 C   0  0  0  0  0  2  0  0  0  0  0  0
  -27.8330  -12.3170   18.3430 C   0  0  0  0  0  2  0  0  0  0  0  0
  -27.4950  -13.2190   19.5600 C   0  0  0  0  0  3  0  0  0  0  0  0
  -28.6030  -13.1950   20.6360 C   0  0  0  0  0  2  0  0  0  0  0  0
  -29.8540  -13.5980   19.9810 N   0  0  0  0  0  0  0  0  0  0  0  0
  -31.5910  -14.9580   19.5460 O   0  0  0  0  0  0  0  0  0  0  0  0
  -29.6590  -16.0210   20.2410 N   0  0  0  0  0  0  0  0  0  0  0  0
  -28.7830  -15.7780   20.6820 H   0  0  0  0  0  0  0  0  0  0  0  0
  -25.1480  -13.7940   20.4030 C   0  0  0  0  0  0  0  0  0  0  0  0
  -24.1040  -13.0160   20.8220 C   0  0  0  0  0  0  0  0  0  0  0  0
  -24.5690  -11.6670   20.7690 C   0  0  0  0  0  0  0  0  0  0  0  0
  -26.1810  -12.9180   20.1150 N   0  0  0  0  0  0  0  0  0  0  0  0
  -25.8440  -11.6330   20.3980 N   0  0  0  0  0  0  0  0  0  0  0  0
  -23.8540  -10.4030   20.9920 C   0  0  0  0  0  0  0  0  0  0  0  0
  -24.3270   -9.4370   21.9070 C   0  0  0  0  0  3  0  0  0  0  0  0
  -23.6110   -8.2400   22.1190 C   0  0  0  0  0  3  0  0  0  0  0  0
  -22.4070   -7.9990   21.4150 C   0  0  0  0  0  0  0  0  0  0  0  0
  -21.9530   -8.9520   20.4860 C   0  0  0  0  0  3  0  0  0  0  0  0
  -22.6700  -10.1420   20.2730 C   0  0  0  0  0  3  0  0  0  0  0  0
  -21.6590   -6.8520   21.5370 O   0  0  0  0  0  0  0  0  0  0  0  0
  -21.6620   -6.1100   22.6900 C   0  0  0  0  0  0  0  0  0  0  0  0
  -21.2920   -6.6640   23.9360 C   0  0  0  0  0  3  0  0  0  0  0  0
  -21.2420   -5.8470   25.0830 C   0  0  0  0  0  3  0  0  0  0  0  0
  -21.5520   -4.4780   24.9870 C   0  0  0  0  0  0  0  0  0  0  0  0
  -21.9160   -3.9230   23.7480 C   0  0  0  0  0  3  0  0  0  0  0  0
  -21.9680   -4.7370   22.6030 C   0  0  0  0  0  0  0  0  0  0  0  0
  -22.2970   -4.1920   21.4070 F   0  0  0  0  0  0  0  0  0  0  0  0
  -21.4980   -3.6910   26.0870 F   0  0  0  0  0  0  0  0  0  0  0  0
  -22.7200  -13.4900   21.1570 C   0  0  0  0  0  0  0  0  0  0  0  0
  -22.0360  -12.7930   22.0580 N   0  0  0  0  0  0  0  0  0  0  0  0
  -22.2560  -14.5140   20.6570 O   0  0  0  0  0  0  0  0  0  0  0  0
  -22.4270  -11.9660   22.4830 H   0  0  0  0  0  0  0  0  0  0  0  0
  -21.1080  -13.0900   22.3250 H   0  0  0  0  0  0  0  0  0  0  0  0
  -25.3000  -15.1660   20.2190 N   0  0  0  0  0  0  0  0  0  0  0  0
  -24.5360  -15.8150   20.3670 H   0  0  0  0  0  0  0  0  0  0  0  0
  -26.1240  -15.6070   19.8310 H   0  0  0  0  0  0  0  0  0  0  0  0
  -28.1240  -23.1990   20.1520 C   0  0  0  0  0  2  0  0  0  0  0  0
  -28.3170  -24.7440   19.4900 C   0  0  0  0  0  2  0  0  0  0  0  0
  -28.1890  -26.1540   20.1200 O   0  0  0  0  0  0  0  0  0  0  0  0
  -24.5690  -31.7670   23.1220 C   0  0  0  0  0  0  0  0  0  0  0  0
  -27.1090  -27.0960   20.0140 C   0  0  0  0  0  0  0  0  0  0  0  0
  -23.3520  -30.4040   21.4650 C   0  0  0  0  0  3  0  0  0  0  0  0
  -24.7820  -28.8370   20.0100 C   0  0  0  0  0  0  0  0  0  0  0  0
  -25.9030  -30.6580   21.2950 C   0  0  0  0  0  2  0  0  0  0  0  0
  -25.9630  -29.2760   20.6230 C   0  0  0  0  0  0  0  0  0  0  0  0
  -27.1210  -28.4190   20.6120 C   0  0  0  0  0  3  0  0  0  0  0  0
  -25.9040  -26.7480   19.3660 C   0  0  0  0  0  3  0  0  0  0  0  0
  -24.7650  -27.5870   19.3670 C   0  0  0  0  0  3  0  0  0  0  0  0
  -23.5610  -29.7400   20.0770 C   0  0  0  0  0  2  0  0  0  0  0  0
  -24.6280  -30.9640   22.0160 N   0  0  0  0  0  0  0  0  0  0  0  0
  -23.4870  -32.0530   23.6580 O   0  0  0  0  0  0  0  0  0  0  0  0
  -22.6680  -29.3900   22.4170 C   0  0  0  0  0  0  0  0  0  0  0  0
  -21.3350  -29.2520   22.3080 N   0  0  0  0  0  0  0  0  0  0  0  0
  -23.3390  -28.7320   23.2150 O   0  0  0  0  0  0  0  0  0  0  0  0
  -20.8500  -29.8340   21.6390 H   0  0  0  0  0  0  0  0  0  0  0  0
  -17.9340  -28.1290   22.8510 C   0  0  0  0  0  0  0  0  0  0  0  0
  -20.5050  -28.3160   23.0710 C   0  0  0  0  0  3  0  0  0  0  0  0
  -20.5550  -26.8980   22.4560 C   0  0  0  0  0  2  0  0  0  0  0  0
  -19.4250  -26.6330   21.4560 C   0  0  0  0  0  2  0  0  0  0  0  0
  -18.0610  -26.7950   22.1330 C   0  0  0  0  0  2  0  0  0  0  0  0
  -19.0820  -28.8500   23.2770 C   0  0  0  0  0  0  0  0  0  0  0  0
  -18.9070  -30.1000   23.9110 C   0  0  0  0  0  3  0  0  0  0  0  0
  -17.6200  -30.6280   24.1210 C   0  0  0  0  0  3  0  0  0  0  0  0
  -16.4870  -29.9040   23.7100 C   0  0  0  0  0  3  0  0  0  0  0  0
  -16.6450  -28.6560   23.0800 C   0  0  0  0  0  3  0  0  0  0  0  0
  -25.8540  -32.3830   23.7550 C   0  0  0  0  0  3  0  0  0  0  0  0
  -25.5530  -33.7780   24.1140 N   0  0  0  0  0  0  0  0  0  0  0  0
  -25.8990  -34.8470   23.3860 C   0  0  0  0  0  0  0  0  0  0  0  0
  -26.5730  -34.7620   22.3550 O   0  0  0  0  0  0  0  0  0  0  0  0
  -24.9540  -33.9180   24.9140 H   0  0  0  0  0  0  0  0  0  0  0  0
  -24.1940  -36.6710   23.0720 C   0  0  0  0  0  1  0  0  0  0  0  0
  -25.4280  -36.2310   23.8760 C   0  0  0  0  0  3  0  0  0  0  0  0
  -27.5700  -37.0720   24.7340 C   0  0  0  0  0  1  0  0  0  0  0  0
  -26.4730  -37.2750   23.7910 N   0  0  0  0  0  0  0  0  0  0  0  0
  -26.0780  -38.1960   23.9570 H   0  0  0  0  0  0  0  0  0  0  0  0
  -26.3640  -31.5870   25.0200 C   0  0  1  0  0  0  0  0  0  0  0  0
  -25.2700  -31.3450   26.0860 C   0  0  0  0  0  1  0  0  0  0  0  0
  -26.9330  -30.2090   24.6110 C   0  0  0  0  0  1  0  0  0  0  0  0
  -27.5250  -32.3600   25.6900 C   0  0  0  0  0  1  0  0  0  0  0  0
  1  3  1  0
  1  2  1  0
  2  5  1  0
  3  6  1  6
  3 47  1  0
  3  2  1  0
  5  4  1  0
  6  7  1  0
  8 17  1  0
  8  7  1  0
  9 15  1  0
  9 17  1  0
 10 15  1  0
 11 12  1  0
 11 10  1  0
 13 12  1  0
 13 22  1  0
 13 14  1  0
 15 14  1  0
 16  9  2  0
 17 18  1  0
 19 20  2  0
 20 39  1  0
 21 20  1  0
 21 24  1  0
 22 23  1  0
 22 19  1  0
 23 21  2  0
 24 25  1  0
 25 26  2  0
 27 30  1  0
 27 26  1  0
 28 27  2  0
 29 28  1  0
 29 24  2  0
 30 31  1  0
 31 32  1  0
 32 33  2  0
 34 33  1  0
 34 38  1  0
 35 34  2  0
 36 31  2  0
 36 35  1  0
 37 36  1  0
 39 40  1  0
 40 43  1  0
 40 42  1  0
 41 39  2  0
 44 45  1  0
 44 19  1  0
 46 44  1  0
 48 49  1  0
 48 47  1  0
 50 61  2  0
 51 49  1  0
 51 56  1  0
 52 60  1  0
 52 62  1  0
 53 59  1  0
 53 55  1  0
 54 60  1  0
 55 54  1  0
 56 55  2  0
 57 58  1  0
 57 51  2  0
 58 53  2  0
 59 52  1  0
 60 50  1  0
 62 64  2  0
 63 62  1  0
 65 63  1  0
 66 75  2  0
 66 71  1  0
 67 63  1  0
 67 71  1  0
 68 67  1  0
 69 70  1  0
 69 68  1  0
 70 66  1  0
 71 72  2  0
 72 73  1  0
 74 73  2  0
 75 74  1  0
 76 50  1  0
 76 77  1  0
 76 86  1  0
 77 80  1  0
 78 82  1  0
 78 77  1  0
 79 78  2  0
 82 81  1  0
 84 82  1  0
 84 85  1  0
 84 83  1  0
 86 89  1  1
 86 87  1  0
 88 86  1  0
M  ISO  4   9 100  17 100  48 101  49 101
M  END
>  <TORSDO>  (60) 
F 22

>  <SCORE>  (60) 
-13.474

>  <name>  (60) 
60

>  <ligand_id>  (60) 
60

>  <original_smiles>  (60) 
[H]c1c([H])c([H])c2c(c1[H])C([H])([H])C([H])([H])C([H])([H])C2([H])N([H])C(=O)C1([H])N(C(=O)C([H])(N([H])C(=O)C([H])(N([H])C([H])([H])[H])C([H])([H])[H])C(C([H])([H])[H])(C([H])([H])[H])C([H])([H])[H])C([H])([H])c2c([H])c(OC([H])([H])C([H])([H])C3(C([H])([H])C([H])([H])C([H])([H])N([H])C(=O)N4C([H])([H])C([H])([H])C([H])([H])C([H])(n5nc(-c6c([H])c([H])c(Oc7c([H])c([H])c(F)c([H])c7F)c([H])c6[H])c(C(=O)N([H])[H])c5N([H])[H])C4([H])[H])C([H])([H])C3([H])C([H])([H])C([H])([H])[H])c([H])c([H])c2C1([H])[H]

>  <smiles>  (60) 
[H]c1c([H])c([H])c2c(c1[H])C([H])([H])C([H])([H])C([H])([H])C2([H])N([H])C(=O)C1([H])N(C(=O)C([H])(N([H])C(=O)C([H])(N([H])C([H])([H])[H])C([H])([H])[H])C(C([H])([H])[H])(C([H])([H])[H])C([H])([H])[H])C([H])([H])c2c([H])c(OC([H])([H])C([H])([H])C3(C([H])([H])C([H])([H])C([H])([H])N([H])C(=O)N4C([H])([H])C([H])([H])C([H])([H])C([H])(n5nc(-c6c([H])c([H])c(Oc7c([H])c([H])c(F)c([H])c7F)c([H])c6[H])c(C(=O)N([H])[H])c5N([H])[H])C4([H])[H])C([H])([H])C3([H])C([H])([H])C([H])([H])[H])c([H])c([H])c2C1([H])[H]

$$$$
61:0:0
     RDKit          3D

 97104  0  0  1  0  0  0  0  0999 V2000
  -31.4680  -23.1170   18.9150 C   0  0  0  0  0  1  0  0  0  0  0  0
  -30.9600  -22.5780   20.2640 C   0  0  0  0  0  3  0  0  0  0  0  0
  -29.8800  -23.4470   20.7940 N   0  0  0  0  0  4  0  0  0  0  0  0
  -29.4070  -23.8840   20.0190 H   0  0  0  0  0  0  0  0  0  0  0  0
  -29.2070  -22.8730   21.2760 H   0  0  0  0  0  0  0  0  0  0  0  0
  -30.3610  -24.4790   21.7410 C   0  0  0  0  0  2  0  0  0  0  0  0
  -29.3410  -25.6020   22.0250 C   0  0  0  0  0  2  0  0  0  0  0  0
  -29.3990  -26.7870   21.0380 C   0  0  0  0  0  2  0  0  0  0  0  0
  -28.3720  -26.6600   20.0540 O   0  0  0  0  0  0  0  0  0  0  0  0
  -24.5720  -31.8520   23.2240 C   0  0  0  0  0  0  0  0  0  0  0  0
  -27.2300  -27.4310   20.1460 C   0  0  0  0  0  0  0  0  0  0  0  0
  -23.3570  -30.4420   21.5900 C   0  0  0  0  0  3  0  0  0  0  0  0
  -24.8070  -28.8980   20.1690 C   0  0  0  0  0  0  0  0  0  0  0  0
  -25.8740  -30.8140   21.3750 C   0  0  0  0  0  2  0  0  0  0  0  0
  -25.9590  -29.4390   20.7470 C   0  0  0  0  0  0  0  0  0  0  0  0
  -27.1700  -28.7200   20.7350 C   0  0  0  0  0  3  0  0  0  0  0  0
  -26.0600  -26.9050   19.5610 C   0  0  0  0  0  3  0  0  0  0  0  0
  -24.8490  -27.6260   19.5740 C   0  0  0  0  0  3  0  0  0  0  0  0
  -23.5590  -29.7510   20.2130 C   0  0  0  0  0  2  0  0  0  0  0  0
  -24.6190  -31.0500   22.1230 N   0  0  0  0  0  0  0  0  0  0  0  0
  -23.4950  -32.1240   23.7710 O   0  0  0  0  0  0  0  0  0  0  0  0
  -22.7150  -29.4250   22.5590 C   0  0  0  0  0  0  0  0  0  0  0  0
  -21.3890  -29.2430   22.4380 N   0  0  0  0  0  0  0  0  0  0  0  0
  -23.4030  -28.8010   23.3700 O   0  0  0  0  0  0  0  0  0  0  0  0
  -20.8960  -29.8020   21.7550 H   0  0  0  0  0  0  0  0  0  0  0  0
  -18.0150  -28.0690   22.9550 C   0  0  0  0  0  0  0  0  0  0  0  0
  -20.5750  -28.3080   23.2120 C   0  0  0  0  0  3  0  0  0  0  0  0
  -20.6650  -26.8790   22.6310 C   0  0  0  0  0  2  0  0  0  0  0  0
  -19.5550  -26.5630   21.6240 C   0  0  0  0  0  2  0  0  0  0  0  0
  -18.1780  -26.7190   22.2780 C   0  0  0  0  0  2  0  0  0  0  0  0
  -19.1410  -28.8210   23.3800 C   0  0  0  0  0  0  0  0  0  0  0  0
  -18.9360  -30.0860   23.9740 C   0  0  0  0  0  3  0  0  0  0  0  0
  -17.6360  -30.5980   24.1470 C   0  0  0  0  0  3  0  0  0  0  0  0
  -16.5230  -29.8390   23.7410 C   0  0  0  0  0  3  0  0  0  0  0  0
  -16.7140  -28.5760   23.1510 C   0  0  0  0  0  3  0  0  0  0  0  0
  -25.8640  -32.4810   23.8360 C   0  0  0  0  0  3  0  0  0  0  0  0
  -25.5610  -33.8790   24.1650 N   0  0  0  0  0  0  0  0  0  0  0  0
  -25.8990  -34.9290   23.4020 C   0  0  0  0  0  0  0  0  0  0  0  0
  -26.5700  -34.8200   22.3740 O   0  0  0  0  0  0  0  0  0  0  0  0
  -24.9610  -34.0390   24.9610 H   0  0  0  0  0  0  0  0  0  0  0  0
  -24.1810  -36.7260   23.0340 C   0  0  0  0  0  1  0  0  0  0  0  0
  -25.4140  -36.3180   23.8560 C   0  0  0  0  0  3  0  0  0  0  0  0
  -27.5480  -37.1910   24.7010 C   0  0  0  0  0  1  0  0  0  0  0  0
  -26.4530  -37.3660   23.7500 N   0  0  0  0  0  0  0  0  0  0  0  0
  -26.0500  -38.2890   23.8950 H   0  0  0  0  0  0  0  0  0  0  0  0
  -26.3920  -31.7080   25.1080 C   0  0  1  0  0  0  0  0  0  0  0  0
  -25.3050  -31.4700   26.1820 C   0  0  0  0  0  1  0  0  0  0  0  0
  -26.9700  -30.3310   24.7060 C   0  0  0  0  0  1  0  0  0  0  0  0
  -27.5480  -32.4990   25.7620 C   0  0  0  0  0  1  0  0  0  0  0  0
  -30.5090  -21.1090   20.1260 C   0  0  0  0  0  2  0  0  0  0  0  0
  -30.6260  -20.2640   21.4140 C   0  0  0  0  0  2  0  0  0  0  0  0
  -30.6160  -18.7690   21.0680 C   0  0  0  0  0  3  0  0  0  0  0  0
  -30.6010  -17.8170   22.2820 C   0  0  0  0  0  3  0  0  0  0  0  0
  -30.9270  -16.3280   21.9640 C   0  0  0  0  0  2  0  0  0  0  0  0
  -30.6280  -14.5130   20.3440 C   0  0  0  0  0  0  0  0  0  0  0  0
  -30.2970  -12.3820   19.1250 C   0  0  0  0  0  2  0  0  0  0  0  0
  -29.3120  -12.5650   17.9530 C   0  0  0  0  0  2  0  0  0  0  0  0
  -27.8560  -12.3750   18.4270 C   0  0  0  0  0  2  0  0  0  0  0  0
  -27.5430  -13.1810   19.7110 C   0  0  0  0  0  3  0  0  0  0  0  0
  -28.6440  -12.9710   20.7830 C   0  0  0  0  0  2  0  0  0  0  0  0
  -29.9290  -13.3490   20.1750 N   0  0  0  0  0  0  0  0  0  0  0  0
  -31.7610  -14.6410   19.8710 O   0  0  0  0  0  0  0  0  0  0  0  0
  -30.0550  -15.5490   21.0380 N   0  0  0  0  0  0  0  0  0  0  0  0
  -25.1720  -13.8260   20.4630 C   0  0  0  0  0  0  0  0  0  0  0  0
  -24.1090  -13.0580   20.8470 C   0  0  0  0  0  0  0  0  0  0  0  0
  -24.5700  -11.7050   20.8170 C   0  0  0  0  0  0  0  0  0  0  0  0
  -26.2080  -12.9320   20.2240 N   0  0  0  0  0  0  0  0  0  0  0  0
  -25.8520  -11.6580   20.4930 N   0  0  0  0  0  0  0  0  0  0  0  0
  -23.8580  -10.4440   21.0220 C   0  0  0  0  0  0  0  0  0  0  0  0
  -24.3150   -9.4830   21.9500 C   0  0  0  0  0  3  0  0  0  0  0  0
  -23.6050   -8.2790   22.1390 C   0  0  0  0  0  3  0  0  0  0  0  0
  -22.4260   -8.0300   21.4000 C   0  0  0  0  0  0  0  0  0  0  0  0
  -21.9890   -8.9790   20.4590 C   0  0  0  0  0  3  0  0  0  0  0  0
  -22.6990  -10.1740   20.2680 C   0  0  0  0  0  3  0  0  0  0  0  0
  -21.6860   -6.8770   21.4970 O   0  0  0  0  0  0  0  0  0  0  0  0
  -21.6560   -6.1390   22.6530 C   0  0  0  0  0  0  0  0  0  0  0  0
  -21.2350   -6.6920   23.8810 C   0  0  0  0  0  3  0  0  0  0  0  0
  -21.1560   -5.8790   25.0290 C   0  0  0  0  0  3  0  0  0  0  0  0
  -21.4850   -4.5120   24.9470 C   0  0  0  0  0  0  0  0  0  0  0  0
  -21.8990   -3.9580   23.7230 C   0  0  0  0  0  3  0  0  0  0  0  0
  -21.9810   -4.7690   22.5780 C   0  0  0  0  0  0  0  0  0  0  0  0
  -22.3600   -4.2290   21.3950 F   0  0  0  0  0  0  0  0  0  0  0  0
  -21.4010   -3.7260   26.0470 F   0  0  0  0  0  0  0  0  0  0  0  0
  -22.7180  -13.5340   21.1500 C   0  0  0  0  0  0  0  0  0  0  0  0
  -22.0070  -12.8350   22.0260 N   0  0  0  0  0  0  0  0  0  0  0  0
  -22.2780  -14.5680   20.6480 O   0  0  0  0  0  0  0  0  0  0  0  0
  -22.3820  -12.0020   22.4550 H   0  0  0  0  0  0  0  0  0  0  0  0
  -21.0740  -13.1350   22.2730 H   0  0  0  0  0  0  0  0  0  0  0  0
  -25.3490  -15.2010   20.2920 N   0  0  0  0  0  0  0  0  0  0  0  0
  -24.4310  -15.6290   20.3730 H   0  0  0  0  0  0  0  0  0  0  0  0
  -25.8570  -15.5080   21.1150 H   0  0  0  0  0  0  0  0  0  0  0  0
  -28.7320  -16.1260   20.6830 C   0  0  0  0  0  2  0  0  0  0  0  0
  -28.5850  -16.5810   19.1960 C   0  0  0  0  0  2  0  0  0  0  0  0
  -27.2220  -17.0700   18.8980 N   0  0  0  0  0  4  0  0  0  0  0  0
  -26.5130  -16.4050   19.1950 H   0  0  0  0  0  0  0  0  0  0  0  0
  -27.1140  -17.2220   17.9100 H   0  0  0  0  0  0  0  0  0  0  0  0
  -27.0350  -17.9400   19.3640 H   0  0  0  0  0  0  0  0  0  0  0  0
  2  1  1  0
  2  3  1  0
  3  5  1  0
  3  6  1  0
  4  3  1  0
  6  7  1  0
  8  7  1  0
  9 11  1  0
  9  8  1  0
 10 21  2  0
 11 16  1  0
 12 20  1  0
 12 22  1  0
 13 19  1  0
 13 15  1  0
 14 20  1  0
 15 14  1  0
 16 15  2  0
 17 18  1  0
 17 11  2  0
 18 13  2  0
 19 12  1  0
 20 10  1  0
 22 24  2  0
 23 22  1  0
 25 23  1  0
 26 35  2  0
 26 31  1  0
 27 23  1  0
 27 31  1  0
 28 27  1  0
 29 30  1  0
 29 28  1  0
 30 26  1  0
 31 32  2  0
 32 33  1  0
 34 33  2  0
 35 34  1  0
 36 10  1  0
 36 37  1  0
 36 46  1  0
 37 40  1  0
 38 42  1  0
 38 37  1  0
 39 38  2  0
 42 41  1  0
 44 42  1  0
 44 45  1  0
 44 43  1  0
 46 49  1  1
 46 47  1  0
 48 46  1  0
 50  2  1  0
 50 51  1  0
 52 51  1  0
 52 53  2  0
 54 53  1  0
 55 63  1  0
 56 61  1  0
 57 58  1  0
 57 56  1  0
 59 58  1  0
 59 67  1  0
 59 60  1  0
 61 55  1  0
 61 60  1  0
 62 55  2  0
 63 54  1  0
 64 65  2  0
 65 84  1  0
 66 65  1  0
 66 69  1  0
 67 64  1  0
 67 68  1  0
 68 66  2  0
 69 70  1  0
 70 71  2  0
 72 75  1  0
 72 71  1  0
 73 72  2  0
 74 73  1  0
 74 69  2  0
 75 76  1  0
 76 77  1  0
 77 78  2  0
 79 78  1  0
 79 83  1  0
 80 79  2  0
 81 76  2  0
 81 80  1  0
 82 81  1  0
 84 85  1  0
 85 88  1  0
 85 87  1  0
 86 84  2  0
 89 90  1  0
 89 64  1  0
 89 91  1  0
 92 63  1  0
 93 92  1  0
 94 95  1  0
 94 93  1  0
 94 97  1  0
 96 94  1  0
M  ISO  4   8 101   9 101  55 100  63 100
M  END
>  <TORSDO>  (61) 
F 28

>  <SCORE>  (61) 
-11.529

>  <name>  (61) 
61

>  <ligand_id>  (61) 
61

>  <original_smiles>  (61) 
[H]c1c([H])c([H])c2c(c1[H])C([H])([H])C([H])([H])C([H])([H])C2([H])N([H])C(=O)C1([H])N(C(=O)C([H])(N([H])C(=O)C([H])(N([H])C([H])([H])[H])C([H])([H])[H])C(C([H])([H])[H])(C([H])([H])[H])C([H])([H])[H])C([H])([H])c2c([H])c(OC([H])([H])C([H])([H])C([H])([H])[N+]([H])([H])C([H])(C([H])([H])[H])C([H])([H])C([H])([H])C([H])([H])C([H])([H])C([H])([H])N(C(=O)N3C([H])([H])C([H])([H])C([H])([H])C([H])(n4nc(-c5c([H])c([H])c(Oc6c([H])c([H])c(F)c([H])c6F)c([H])c5[H])c(C(=O)N([H])[H])c4N([H])[H])C3([H])[H])C([H])([H])C([H])([H])[N+]([H])([H])[H])c([H])c([H])c2C1([H])[H]

>  <smiles>  (61) 
[H]c1c([H])c([H])c2c(c1[H])C([H])([H])C([H])([H])C([H])([H])C2([H])N([H])C(=O)C1([H])N(C(=O)C([H])(N([H])C(=O)C([H])(N([H])C([H])([H])[H])C([H])([H])[H])C(C([H])([H])[H])(C([H])([H])[H])C([H])([H])[H])C([H])([H])c2c([H])c(OC([H])([H])C([H])([H])C([H])([H])[N+]([H])([H])C([H])(C([H])([H])[H])C([H])([H])C([H])([H])C([H])([H])C([H])([H])C([H])([H])N(C(=O)N3C([H])([H])C([H])([H])C([H])([H])C([H])(n4nc(-c5c([H])c([H])c(Oc6c([H])c([H])c(F)c([H])c6F)c([H])c5[H])c(C(=O)N([H])[H])c4N([H])[H])C3([H])[H])C([H])([H])C([H])([H])[N+]([H])([H])[H])c([H])c([H])c2C1([H])[H]

$$$$
62:0:0
     RDKit          3D

 92101  0  0  1  0  0  0  0  0999 V2000
  -30.9000  -18.4110   19.5960 C   0  0  0  0  0  2  0  0  0  0  0  0
  -30.4390  -19.7810   20.1410 C   0  0  0  0  0  3  0  0  0  0  0  0
  -29.3910  -19.0340   20.9930 C   0  0  0  0  0  3  0  0  0  0  0  0
  -29.0660  -20.4000   20.1370 C   0  0  0  0  0  3  0  0  0  0  0  0
  -30.2870  -17.6670   20.7800 C   0  0  1  0  0  0  0  0  0  0  0  0
  -30.4880  -14.9930   20.2460 C   0  0  0  0  0  0  0  0  0  0  0  0
  -30.3000  -12.6880   19.2190 C   0  0  0  0  0  2  0  0  0  0  0  0
  -29.3330  -12.6900   18.0130 C   0  0  0  0  0  2  0  0  0  0  0  0
  -27.8820  -12.4750   18.4830 C   0  0  0  0  0  2  0  0  0  0  0  0
  -27.5140  -13.3650   19.6980 C   0  0  0  0  0  3  0  0  0  0  0  0
  -28.6010  -13.3410   20.7920 C   0  0  0  0  0  2  0  0  0  0  0  0
  -29.8550  -13.7580   20.1540 N   0  0  0  0  0  0  0  0  0  0  0  0
  -31.6840  -15.0370   19.9460 O   0  0  0  0  0  0  0  0  0  0  0  0
  -29.7730  -16.1940   20.5170 N   0  0  0  0  0  0  0  0  0  0  0  0
  -28.7760  -16.0690   20.6210 H   0  0  0  0  0  0  0  0  0  0  0  0
  -25.1460  -13.9180   20.4970 C   0  0  0  0  0  0  0  0  0  0  0  0
  -24.0970  -13.1310   20.8850 C   0  0  0  0  0  0  0  0  0  0  0  0
  -24.5740  -11.7840   20.8350 C   0  0  0  0  0  0  0  0  0  0  0  0
  -26.1920  -13.0510   20.2260 N   0  0  0  0  0  0  0  0  0  0  0  0
  -25.8580  -11.7630   20.4970 N   0  0  0  0  0  0  0  0  0  0  0  0
  -23.8630  -10.5140   21.0310 C   0  0  0  0  0  0  0  0  0  0  0  0
  -24.3200   -9.5450   21.9500 C   0  0  0  0  0  3  0  0  0  0  0  0
  -23.6060   -8.3400   22.1340 C   0  0  0  0  0  3  0  0  0  0  0  0
  -22.4200   -8.0980   21.4010 C   0  0  0  0  0  0  0  0  0  0  0  0
  -21.9820   -9.0580   20.4700 C   0  0  0  0  0  3  0  0  0  0  0  0
  -22.6970  -10.2520   20.2840 C   0  0  0  0  0  3  0  0  0  0  0  0
  -21.6760   -6.9480   21.4960 O   0  0  0  0  0  0  0  0  0  0  0  0
  -21.6540   -6.1970   22.6440 C   0  0  0  0  0  0  0  0  0  0  0  0
  -21.2450   -6.7390   23.8810 C   0  0  0  0  0  3  0  0  0  0  0  0
  -21.1730   -5.9140   25.0210 C   0  0  0  0  0  3  0  0  0  0  0  0
  -21.4980   -4.5490   24.9260 C   0  0  0  0  0  0  0  0  0  0  0  0
  -21.9010   -4.0060   23.6940 C   0  0  0  0  0  3  0  0  0  0  0  0
  -21.9760   -4.8270   22.5550 C   0  0  0  0  0  0  0  0  0  0  0  0
  -22.3440   -4.2940   21.3650 F   0  0  0  0  0  0  0  0  0  0  0  0
  -21.4210   -3.7540   26.0190 F   0  0  0  0  0  0  0  0  0  0  0  0
  -22.7020  -13.5940   21.1860 C   0  0  0  0  0  0  0  0  0  0  0  0
  -21.9960  -12.8850   22.0590 N   0  0  0  0  0  0  0  0  0  0  0  0
  -22.2480  -14.6210   20.6820 O   0  0  0  0  0  0  0  0  0  0  0  0
  -22.3780  -12.0550   22.4870 H   0  0  0  0  0  0  0  0  0  0  0  0
  -21.0610  -13.1770   22.3030 H   0  0  0  0  0  0  0  0  0  0  0  0
  -25.2920  -15.2910   20.3230 N   0  0  0  0  0  0  0  0  0  0  0  0
  -24.5140  -15.9310   20.4450 H   0  0  0  0  0  0  0  0  0  0  0  0
  -26.1110  -15.7390   19.9310 H   0  0  0  0  0  0  0  0  0  0  0  0
  -28.7010  -21.9020   20.7620 C   0  0  0  0  0  2  0  0  0  0  0  0
  -28.7800  -23.4000   20.0000 C   0  0  0  0  0  3  0  0  0  0  0  0
  -28.0500  -24.7980   20.5930 C   0  0  0  0  0  3  0  0  0  0  0  0
  -28.2730  -26.2780   20.1820 O   0  0  0  0  0  0  0  0  0  0  0  0
  -24.6190  -31.9120   23.2280 C   0  0  0  0  0  0  0  0  0  0  0  0
  -27.2010  -27.2350   20.1780 C   0  0  0  0  0  0  0  0  0  0  0  0
  -23.4160  -30.5160   21.5890 C   0  0  0  0  0  3  0  0  0  0  0  0
  -24.8630  -28.9520   20.1570 C   0  0  0  0  0  0  0  0  0  0  0  0
  -25.9660  -30.7990   21.4100 C   0  0  0  0  0  2  0  0  0  0  0  0
  -26.0430  -29.4100   20.7580 C   0  0  0  0  0  0  0  0  0  0  0  0
  -27.2160  -28.5680   20.7480 C   0  0  0  0  0  3  0  0  0  0  0  0
  -25.9970  -26.8710   19.5400 C   0  0  0  0  0  3  0  0  0  0  0  0
  -24.8510  -27.6950   19.5320 C   0  0  0  0  0  3  0  0  0  0  0  0
  -23.6320  -29.8430   20.2090 C   0  0  0  0  0  2  0  0  0  0  0  0
  -24.6870  -31.0970   22.1310 N   0  0  0  0  0  0  0  0  0  0  0  0
  -23.5340  -32.1900   23.7630 O   0  0  0  0  0  0  0  0  0  0  0  0
  -22.7470  -29.5030   22.5520 C   0  0  0  0  0  0  0  0  0  0  0  0
  -21.4210  -29.3200   22.4230 N   0  0  0  0  0  0  0  0  0  0  0  0
  -23.4240  -28.8840   23.3770 O   0  0  0  0  0  0  0  0  0  0  0  0
  -20.9310  -29.8710   21.7310 H   0  0  0  0  0  0  0  0  0  0  0  0
  -18.0520  -28.0780   22.9080 C   0  0  0  0  0  0  0  0  0  0  0  0
  -20.6050  -28.3770   23.1930 C   0  0  0  0  0  3  0  0  0  0  0  0
  -20.7310  -26.9420   22.6290 C   0  0  0  0  0  2  0  0  0  0  0  0
  -19.6410  -26.5980   21.6080 C   0  0  0  0  0  2  0  0  0  0  0  0
  -18.2520  -26.7280   22.2400 C   0  0  0  0  0  2  0  0  0  0  0  0
  -19.1580  -28.8590   23.3410 C   0  0  0  0  0  0  0  0  0  0  0  0
  -18.9160  -30.1210   23.9260 C   0  0  0  0  0  3  0  0  0  0  0  0
  -17.6020  -30.6040   24.0810 C   0  0  0  0  0  3  0  0  0  0  0  0
  -16.5120  -29.8220   23.6640 C   0  0  0  0  0  3  0  0  0  0  0  0
  -16.7380  -28.5600   23.0830 C   0  0  0  0  0  3  0  0  0  0  0  0
  -25.8980  -32.5490   23.8520 C   0  0  0  0  0  3  0  0  0  0  0  0
  -25.5860  -33.9500   24.1770 N   0  0  0  0  0  0  0  0  0  0  0  0
  -25.9200  -35.0040   23.4210 C   0  0  0  0  0  0  0  0  0  0  0  0
  -26.5910  -34.9000   22.3910 O   0  0  0  0  0  0  0  0  0  0  0  0
  -24.9900  -34.1040   24.9770 H   0  0  0  0  0  0  0  0  0  0  0  0
  -24.1990  -36.8060   23.0660 C   0  0  0  0  0  1  0  0  0  0  0  0
  -25.4370  -36.3950   23.8800 C   0  0  0  0  0  3  0  0  0  0  0  0
  -27.5720  -37.2740   24.7190 C   0  0  0  0  0  1  0  0  0  0  0  0
  -26.4740  -37.4450   23.7710 N   0  0  0  0  0  0  0  0  0  0  0  0
  -26.0690  -38.3660   23.9160 H   0  0  0  0  0  0  0  0  0  0  0  0
  -26.4080  -31.7870   25.1350 C   0  0  1  0  0  0  0  0  0  0  0  0
  -25.3120  -31.5600   26.2030 C   0  0  0  0  0  1  0  0  0  0  0  0
  -26.9880  -30.4040   24.7590 C   0  0  0  0  0  1  0  0  0  0  0  0
  -27.5590  -32.5820   25.7940 C   0  0  0  0  0  1  0  0  0  0  0  0
  -31.2270  -17.5640   22.0100 C   0  0  0  0  0  2  0  0  0  0  0  0
  -30.5540  -17.0210   23.2040 N   0  0  0  0  0  4  0  0  0  0  0  0
  -29.7930  -17.6130   23.4820 H   0  0  0  0  0  0  0  0  0  0  0  0
  -31.2060  -16.9710   23.9680 H   0  0  0  0  0  0  0  0  0  0  0  0
  -30.1980  -16.1000   23.0320 H   0  0  0  0  0  0  0  0  0  0  0  0
  1  5  1  0
  2  1  1  0
  2  3  1  0
  4  2  1  0
  4 44  1  0
  4  3  1  0
  5  3  1  0
  5 88  1  1
  6 14  1  0
  7 12  1  0
  8  9  1  0
  8  7  1  0
  9 10  1  0
 10 19  1  0
 10 11  1  0
 12  6  1  0
 12 11  1  0
 13  6  2  0
 14 15  1  0
 14  5  1  0
 16 17  2  0
 17 36  1  0
 18 17  1  0
 18 21  1  0
 19 20  1  0
 19 16  1  0
 20 18  2  0
 21 22  1  0
 22 23  2  0
 24 27  1  0
 24 23  1  0
 25 24  2  0
 26 25  1  0
 26 21  2  0
 27 28  1  0
 28 29  1  0
 29 30  2  0
 31 30  1  0
 31 35  1  0
 32 31  2  0
 33 28  2  0
 33 32  1  0
 34 33  1  0
 36 37  1  0
 37 40  1  0
 37 39  1  0
 38 36  2  0
 41 42  1  0
 41 16  1  0
 43 41  1  0
 45 46  2  0
 45 44  1  0
 47 46  1  0
 48 59  2  0
 48 74  1  0
 49 47  1  0
 49 54  1  0
 50 58  1  0
 50 60  1  0
 51 57  1  0
 51 53  1  0
 52 58  1  0
 53 52  1  0
 54 53  2  0
 55 49  2  0
 56 55  1  0
 56 51  2  0
 57 50  1  0
 58 48  1  0
 60 62  2  0
 61 60  1  0
 61 65  1  0
 63 61  1  0
 64 73  2  0
 64 69  1  0
 65 69  1  0
 66 65  1  0
 67 68  1  0
 67 66  1  0
 68 64  1  0
 69 70  2  0
 70 71  1  0
 72 71  2  0
 73 72  1  0
 74 75  1  0
 74 84  1  0
 75 78  1  0
 76 80  1  0
 76 75  1  0
 77 76  2  0
 79 80  1  0
 82 80  1  0
 82 83  1  0
 82 81  1  0
 84 87  1  1
 84 85  1  0
 86 84  1  0
 88 89  1  0
 89 90  1  0
 89 91  1  0
 92 89  1  0
M  ISO  4   6 100  14 100  46 101  47 101
M  END
>  <TORSDO>  (62) 
F 21

>  <SCORE>  (62) 
-13.534

>  <name>  (62) 
62

>  <ligand_id>  (62) 
62

>  <original_smiles>  (62) 
[H]c1c([H])c([H])c2c(c1[H])C([H])([H])C([H])([H])C([H])([H])C2([H])N([H])C(=O)C1([H])N(C(=O)C([H])(N([H])C(=O)C([H])(N([H])C([H])([H])[H])C([H])([H])[H])C(C([H])([H])[H])(C([H])([H])[H])C([H])([H])[H])C([H])([H])c2c([H])c(OC([H])([H])C([H])([H])C([H])([H])C3([H])C4([H])C([H])([H])C(N([H])C(=O)N5C([H])([H])C([H])([H])C([H])([H])C([H])(n6nc(-c7c([H])c([H])c(Oc8c([H])c([H])c(F)c([H])c8F)c([H])c7[H])c(C(=O)N([H])[H])c6N([H])[H])C5([H])[H])(C([H])([H])[N+]([H])([H])[H])C34[H])c([H])c([H])c2C1([H])[H]

>  <smiles>  (62) 
[H]c1c([H])c([H])c2c(c1[H])C([H])([H])C([H])([H])C([H])([H])C2([H])N([H])C(=O)C1([H])N(C(=O)C([H])(N([H])C(=O)C([H])(N([H])C([H])([H])[H])C([H])([H])[H])C(C([H])([H])[H])(C([H])([H])[H])C([H])([H])[H])C([H])([H])c2c([H])c(OC([H])([H])C([H])([H])C([H])([H])C3([H])C4([H])C([H])([H])C(N([H])C(=O)N5C([H])([H])C([H])([H])C([H])([H])C([H])(n6nc(-c7c([H])c([H])c(Oc8c([H])c([H])c(F)c([H])c8F)c([H])c7[H])c(C(=O)N([H])[H])c6N([H])[H])C5([H])[H])(C([H])([H])[N+]([H])([H])[H])C34[H])c([H])c([H])c2C1([H])[H]

$$$$
63:0:0
     RDKit          3D

 97106  0  0  1  0  0  0  0  0999 V2000
  -26.7080  -22.5770   20.9210 C   0  0  0  0  0  2  0  0  0  0  0  0
  -27.1840  -20.2650   19.7040 C   0  0  0  0  0  2  0  0  0  0  0  0
  -29.1540  -22.6100   20.8040 C   0  0  0  0  0  2  0  0  0  0  0  0
  -27.1980  -21.1340   20.9690 C   0  0  0  0  0  3  0  0  0  0  0  0
  -28.7210  -21.1480   20.9250 C   0  0  0  0  0  3  0  0  0  0  0  0
  -27.8980  -23.3990   20.3840 C   0  0  0  0  0  3  0  0  0  0  0  0
  -28.7180  -20.2320   19.6800 C   0  0  0  0  0  3  0  0  0  0  0  0
  -27.8910  -24.8860   20.8000 C   0  0  0  0  0  2  0  0  0  0  0  0
  -28.7830  -25.7870   19.9050 C   0  0  0  0  0  2  0  0  0  0  0  0
  -28.7700  -27.1690   20.2860 O   0  0  0  0  0  0  0  0  0  0  0  0
  -24.7310  -32.0170   23.5100 C   0  0  0  0  0  0  0  0  0  0  0  0
  -27.5740  -27.8550   20.2400 C   0  0  0  0  0  0  0  0  0  0  0  0
  -23.6070  -30.6800   21.7610 C   0  0  0  0  0  3  0  0  0  0  0  0
  -25.1340  -29.2850   20.2800 C   0  0  0  0  0  0  0  0  0  0  0  0
  -26.1210  -31.1340   21.6380 C   0  0  0  0  0  2  0  0  0  0  0  0
  -26.2620  -29.8060   20.9260 C   0  0  0  0  0  0  0  0  0  0  0  0
  -27.4830  -29.0980   20.9060 C   0  0  0  0  0  3  0  0  0  0  0  0
  -26.4310  -27.3610   19.5670 C   0  0  0  0  0  3  0  0  0  0  0  0
  -25.2130  -28.0610   19.5990 C   0  0  0  0  0  3  0  0  0  0  0  0
  -23.8640  -30.0990   20.3480 C   0  0  0  0  0  2  0  0  0  0  0  0
  -24.8370  -31.2880   22.3650 N   0  0  0  0  0  0  0  0  0  0  0  0
  -23.6290  -32.2210   24.0400 O   0  0  0  0  0  0  0  0  0  0  0  0
  -22.9710  -29.5790   22.6400 C   0  0  0  0  0  0  0  0  0  0  0  0
  -21.6680  -29.3290   22.4350 N   0  0  0  0  0  0  0  0  0  0  0  0
  -23.6470  -28.9560   23.4620 O   0  0  0  0  0  0  0  0  0  0  0  0
  -21.1790  -29.8930   21.7540 H   0  0  0  0  0  0  0  0  0  0  0  0
  -18.3570  -27.9050   22.6730 C   0  0  0  0  0  0  0  0  0  0  0  0
  -20.8690  -28.3150   23.1230 C   0  0  0  0  0  3  0  0  0  0  0  0
  -21.1010  -26.9100   22.5180 C   0  0  0  0  0  2  0  0  0  0  0  0
  -20.0930  -26.5480   21.4240 C   0  0  0  0  0  2  0  0  0  0  0  0
  -18.6640  -26.5920   21.9730 C   0  0  0  0  0  2  0  0  0  0  0  0
  -19.3940  -28.7210   23.2000 C   0  0  0  0  0  0  0  0  0  0  0  0
  -19.0560  -29.9460   23.8120 C   0  0  0  0  0  3  0  0  0  0  0  0
  -17.7140  -30.3600   23.9050 C   0  0  0  0  0  3  0  0  0  0  0  0
  -16.6900  -29.5420   23.3950 C   0  0  0  0  0  3  0  0  0  0  0  0
  -17.0130  -28.3180   22.7850 C   0  0  0  0  0  3  0  0  0  0  0  0
  -25.9800  -32.6520   24.1940 C   0  0  0  0  0  3  0  0  0  0  0  0
  -26.4240  -31.8920   25.5030 C   0  0  1  0  0  0  0  0  0  0  0  0
  -25.2680  -31.6330   26.4970 C   0  0  0  0  0  1  0  0  0  0  0  0
  -27.0560  -30.5260   25.1480 C   0  0  0  0  0  1  0  0  0  0  0  0
  -27.5170  -32.7060   26.2350 C   0  0  0  0  0  1  0  0  0  0  0  0
  -25.6580  -34.0550   24.4900 N   0  0  0  0  0  0  0  0  0  0  0  0
  -26.0320  -35.0960   23.7330 C   0  0  0  0  0  0  0  0  0  0  0  0
  -26.7570  -34.9760   22.7420 O   0  0  0  0  0  0  0  0  0  0  0  0
  -25.0270  -34.2250   25.2590 H   0  0  0  0  0  0  0  0  0  0  0  0
  -24.3250  -36.8810   23.2560 C   0  0  0  0  0  1  0  0  0  0  0  0
  -25.5210  -36.4920   24.1410 C   0  0  0  0  0  3  0  0  0  0  0  0
  -27.6070  -37.3910   25.0720 C   0  0  0  0  0  1  0  0  0  0  0  0
  -26.5580  -37.5450   24.0680 N   0  0  0  0  0  0  0  0  0  0  0  0
  -26.1450  -38.4660   24.1790 H   0  0  0  0  0  0  0  0  0  0  0  0
  -29.4350  -18.8590   19.6480 C   0  0  0  0  0  2  0  0  0  0  0  0
  -30.8930  -18.8150   20.1890 C   0  0  0  0  0  3  0  0  0  0  0  0
  -31.8330  -19.9130   19.6050 C   0  0  0  0  0  2  0  0  0  0  0  0
  -32.1260  -19.8380   18.0850 C   0  0  0  0  0  2  0  0  0  0  0  0
  -32.9940  -20.9360   17.6230 N   0  0  0  0  0  4  0  0  0  0  0  0
  -32.5630  -21.8320   17.7610 H   0  0  0  0  0  0  0  0  0  0  0  0
  -33.1800  -20.8290   16.6410 H   0  0  0  0  0  0  0  0  0  0  0  0
  -33.8770  -20.9230   18.1020 H   0  0  0  0  0  0  0  0  0  0  0  0
  -31.6120  -17.4440   20.0510 C   0  0  0  0  0  2  0  0  0  0  0  0
  -31.6390  -15.0370   20.3640 C   0  0  0  0  0  0  0  0  0  0  0  0
  -31.3160  -12.7580   19.5120 C   0  0  0  0  0  2  0  0  0  0  0  0
  -30.4390  -12.8310   18.2480 C   0  0  0  0  0  2  0  0  0  0  0  0
  -28.9490  -12.7550   18.6290 C   0  0  0  0  0  2  0  0  0  0  0  0
  -28.5670  -13.7440   19.7660 C   0  0  0  0  0  3  0  0  0  0  0  0
  -29.5800  -13.6900   20.9350 C   0  0  0  0  0  2  0  0  0  0  0  0
  -30.9220  -13.8830   20.3770 N   0  0  0  0  0  0  0  0  0  0  0  0
  -32.8150  -15.0690   19.9970 O   0  0  0  0  0  0  0  0  0  0  0  0
  -30.9680  -16.2000   20.5180 N   0  0  0  0  0  0  0  0  0  0  0  0
  -29.9890  -16.1880   20.7620 H   0  0  0  0  0  0  0  0  0  0  0  0
  -26.1920  -14.4570   20.4390 C   0  0  0  0  0  0  0  0  0  0  0  0
  -25.0840  -13.7330   20.7850 C   0  0  0  0  0  0  0  0  0  0  0  0
  -25.4810  -12.3590   20.7500 C   0  0  0  0  0  0  0  0  0  0  0  0
  -27.1980  -13.5280   20.2240 N   0  0  0  0  0  0  0  0  0  0  0  0
  -26.7720  -12.2620   20.4680 N   0  0  0  0  0  0  0  0  0  0  0  0
  -24.6910  -11.1330   20.9160 C   0  0  0  0  0  0  0  0  0  0  0  0
  -25.0200  -10.1710   21.8960 C   0  0  0  0  0  3  0  0  0  0  0  0
  -24.2340   -9.0080   22.0480 C   0  0  0  0  0  3  0  0  0  0  0  0
  -23.1070   -8.8000   21.2200 C   0  0  0  0  0  0  0  0  0  0  0  0
  -22.7970   -9.7490   20.2320 C   0  0  0  0  0  3  0  0  0  0  0  0
  -23.5820  -10.9040   20.0780 C   0  0  0  0  0  3  0  0  0  0  0  0
  -22.3010   -7.6880   21.2810 O   0  0  0  0  0  0  0  0  0  0  0  0
  -22.0880   -7.0160   22.4580 C   0  0  0  0  0  0  0  0  0  0  0  0
  -21.5280   -7.6510   23.5890 C   0  0  0  0  0  3  0  0  0  0  0  0
  -21.2610   -6.9040   24.7540 C   0  0  0  0  0  3  0  0  0  0  0  0
  -21.5440   -5.5250   24.7890 C   0  0  0  0  0  0  0  0  0  0  0  0
  -22.0960   -4.8910   23.6620 C   0  0  0  0  0  3  0  0  0  0  0  0
  -22.3640   -5.6350   22.4990 C   0  0  0  0  0  0  0  0  0  0  0  0
  -22.8760   -5.0150   21.4100 F   0  0  0  0  0  0  0  0  0  0  0  0
  -21.2820   -4.8070   25.9060 F   0  0  0  0  0  0  0  0  0  0  0  0
  -23.7060  -14.2740   21.0310 C   0  0  0  0  0  0  0  0  0  0  0  0
  -22.9360  -13.6190   21.8930 N   0  0  0  0  0  0  0  0  0  0  0  0
  -23.3210  -15.3140   20.4980 O   0  0  0  0  0  0  0  0  0  0  0  0
  -23.2590  -12.7770   22.3480 H   0  0  0  0  0  0  0  0  0  0  0  0
  -22.0100  -13.9640   22.1010 H   0  0  0  0  0  0  0  0  0  0  0  0
  -26.4230  -15.8190   20.2670 N   0  0  0  0  0  0  0  0  0  0  0  0
  -25.6800  -16.5050   20.3520 H   0  0  0  0  0  0  0  0  0  0  0  0
  -27.2820  -16.2130   19.9040 H   0  0  0  0  0  0  0  0  0  0  0  0
  1  4  1  0
  4  2  1  0
  5  3  1  0
  5  4  1  0
  6  8  1  0
  6  3  1  0
  6  1  1  0
  7 51  1  0
  7  2  1  0
  7  5  1  0
  9 10  1  0
  9  8  1  0
 11 22  2  0
 12 10  1  0
 12 17  1  0
 13 21  1  0
 13 23  1  0
 14 20  1  0
 14 16  1  0
 15 21  1  0
 16 15  1  0
 17 16  2  0
 18 19  1  0
 18 12  2  0
 19 14  2  0
 20 13  1  0
 21 11  1  0
 23 25  2  0
 24 23  1  0
 26 24  1  0
 27 36  2  0
 27 32  1  0
 28 24  1  0
 28 32  1  0
 29 28  1  0
 30 31  1  0
 30 29  1  0
 31 27  1  0
 32 33  2  0
 33 34  1  0
 35 34  2  0
 36 35  1  0
 37 11  1  0
 37 42  1  0
 37 38  1  0
 38 41  1  1
 38 39  1  0
 40 38  1  0
 42 45  1  0
 43 47  1  0
 43 42  1  0
 44 43  2  0
 47 46  1  0
 49 47  1  0
 49 50  1  0
 49 48  1  0
 51 52  1  0
 52 53  1  0
 54 53  1  0
 55 56  1  0
 55 54  1  0
 55 58  1  0
 57 55  1  0
 59 52  1  0
 59 68  1  0
 60 66  1  0
 60 68  1  0
 61 66  1  0
 62 63  1  0
 62 61  1  0
 64 63  1  0
 64 73  1  0
 64 65  1  0
 66 65  1  0
 67 60  2  0
 68 69  1  0
 70 71  2  0
 71 90  1  0
 72 71  1  0
 72 75  1  0
 73 70  1  0
 73 74  1  0
 74 72  2  0
 75 76  1  0
 76 77  2  0
 78 81  1  0
 78 77  1  0
 79 78  2  0
 80 79  1  0
 80 75  2  0
 81 82  1  0
 82 87  2  0
 82 83  1  0
 83 84  2  0
 84 85  1  0
 85 89  1  0
 86 85  2  0
 87 86  1  0
 88 87  1  0
 90 91  1  0
 91 94  1  0
 91 93  1  0
 92 90  2  0
 95 96  1  0
 95 70  1  0
 97 95  1  0
M  ISO  4   9 101  10 101  60 100  68 100
M  END
>  <TORSDO>  (63) 
F 24

>  <SCORE>  (63) 
-10.202

>  <name>  (63) 
63

>  <ligand_id>  (63) 
63

>  <original_smiles>  (63) 
[H]c1c([H])c([H])c2c(c1[H])C([H])([H])C([H])([H])C([H])([H])C2([H])N([H])C(=O)C1([H])N(C(=O)C([H])(N([H])C(=O)C([H])(N([H])C([H])([H])[H])C([H])([H])[H])C(C([H])([H])[H])(C([H])([H])[H])C([H])([H])[H])C([H])([H])c2c([H])c(OC([H])([H])C([H])([H])C3([H])C([H])([H])C4([H])C([H])([H])C([H])(C([H])([H])C([H])(C([H])([H])N([H])C(=O)N5C([H])([H])C([H])([H])C([H])([H])C([H])(n6nc(-c7c([H])c([H])c(Oc8c([H])c([H])c(F)c([H])c8F)c([H])c7[H])c(C(=O)N([H])[H])c6N([H])[H])C5([H])[H])C([H])([H])C([H])([H])[N+]([H])([H])[H])C4([H])C3([H])[H])c([H])c([H])c2C1([H])[H]

>  <smiles>  (63) 
[H]c1c([H])c([H])c2c(c1[H])C([H])([H])C([H])([H])C([H])([H])C2([H])N([H])C(=O)C1([H])N(C(=O)C([H])(N([H])C(=O)C([H])(N([H])C([H])([H])[H])C([H])([H])[H])C(C([H])([H])[H])(C([H])([H])[H])C([H])([H])[H])C([H])([H])c2c([H])c(OC([H])([H])C([H])([H])C3([H])C([H])([H])C4([H])C([H])([H])C([H])(C([H])([H])C([H])(C([H])([H])N([H])C(=O)N5C([H])([H])C([H])([H])C([H])([H])C([H])(n6nc(-c7c([H])c([H])c(Oc8c([H])c([H])c(F)c([H])c8F)c([H])c7[H])c(C(=O)N([H])[H])c6N([H])[H])C5([H])[H])C([H])([H])C([H])([H])[N+]([H])([H])[H])C4([H])C3([H])[H])c([H])c([H])c2C1([H])[H]

$$$$
64:0:0
     RDKit          3D

 94103  0  0  1  0  0  0  0  0999 V2000
  -26.9350  -19.4080   19.7000 C   0  0  0  0  0  2  0  0  0  0  0  0
  -27.7390  -20.0050   18.5500 C   0  0  0  0  0  2  0  0  0  0  0  0
  -30.1120  -21.4690   21.0040 C   0  0  0  0  0  2  0  0  0  0  0  0
  -27.9510  -18.5610   20.4640 C   0  0  0  0  0  2  0  0  0  0  0  0
  -29.8030  -20.0420   21.4820 C   0  0  0  0  0  2  0  0  0  0  0  0
  -29.1130  -20.3210   19.1590 C   0  0  0  0  0  3  0  0  0  0  0  0
  -29.1710  -21.7410   19.8250 C   0  0  0  0  0  3  0  0  0  0  0  0
  -29.3400  -19.2200   20.2530 C   0  0  2  0  0  0  0  0  0  0  0  0
  -30.3660  -18.1060   19.8210 C   0  0  0  0  0  2  0  0  0  0  0  0
  -30.6910  -16.9730   20.8570 C   0  0  0  0  0  2  0  0  0  0  0  0
  -30.8920  -14.5700   20.0200 C   0  0  0  0  0  0  0  0  0  0  0  0
  -30.5560  -12.3720   18.9340 C   0  0  0  0  0  2  0  0  0  0  0  0
  -29.5530  -12.5290   17.7720 C   0  0  0  0  0  2  0  0  0  0  0  0
  -28.1010  -12.4010   18.2780 C   0  0  0  0  0  2  0  0  0  0  0  0
  -27.8220  -13.2720   19.5330 C   0  0  0  0  0  3  0  0  0  0  0  0
  -28.9320  -13.0850   20.5910 C   0  0  0  0  0  2  0  0  0  0  0  0
  -30.2190  -13.3880   19.9450 N   0  0  0  0  0  0  0  0  0  0  0  0
  -32.0140  -14.7290   19.5310 O   0  0  0  0  0  0  0  0  0  0  0  0
  -30.2020  -15.6080   20.5460 N   0  0  0  0  0  0  0  0  0  0  0  0
  -29.2690  -15.3880   20.8610 H   0  0  0  0  0  0  0  0  0  0  0  0
  -25.4810  -13.9090   20.3860 C   0  0  0  0  0  0  0  0  0  0  0  0
  -24.4200  -13.1500   20.8010 C   0  0  0  0  0  0  0  0  0  0  0  0
  -24.8520  -11.7910   20.7200 C   0  0  0  0  0  0  0  0  0  0  0  0
  -26.4940  -13.0120   20.0830 N   0  0  0  0  0  0  0  0  0  0  0  0
  -26.1220  -11.7330   20.3410 N   0  0  0  0  0  0  0  0  0  0  0  0
  -24.1120  -10.5400   20.9270 C   0  0  0  0  0  0  0  0  0  0  0  0
  -24.5450   -9.5710   21.8580 C   0  0  0  0  0  3  0  0  0  0  0  0
  -23.8060   -8.3830   22.0510 C   0  0  0  0  0  3  0  0  0  0  0  0
  -22.6190   -8.1580   21.3150 C   0  0  0  0  0  0  0  0  0  0  0  0
  -22.2040   -9.1160   20.3730 C   0  0  0  0  0  3  0  0  0  0  0  0
  -22.9440  -10.2940   20.1780 C   0  0  0  0  0  3  0  0  0  0  0  0
  -21.8510   -7.0230   21.4190 O   0  0  0  0  0  0  0  0  0  0  0  0
  -21.7680   -6.3160   22.5900 C   0  0  0  0  0  0  0  0  0  0  0  0
  -21.2990   -6.9030   23.7850 C   0  0  0  0  0  3  0  0  0  0  0  0
  -21.1650   -6.1200   24.9500 C   0  0  0  0  0  3  0  0  0  0  0  0
  -21.4900   -4.7510   24.9200 C   0  0  0  0  0  0  0  0  0  0  0  0
  -21.9510   -4.1630   23.7290 C   0  0  0  0  0  3  0  0  0  0  0  0
  -22.0870   -4.9420   22.5670 C   0  0  0  0  0  0  0  0  0  0  0  0
  -22.5120   -4.3660   21.4170 F   0  0  0  0  0  0  0  0  0  0  0  0
  -21.3540   -3.9960   26.0350 F   0  0  0  0  0  0  0  0  0  0  0  0
  -23.0490  -13.6500   21.1570 C   0  0  0  0  0  0  0  0  0  0  0  0
  -22.3590  -12.9540   22.0550 N   0  0  0  0  0  0  0  0  0  0  0  0
  -22.6020  -14.6890   20.6760 O   0  0  0  0  0  0  0  0  0  0  0  0
  -22.7330  -12.1110   22.4650 H   0  0  0  0  0  0  0  0  0  0  0  0
  -21.4400  -13.2700   22.3350 H   0  0  0  0  0  0  0  0  0  0  0  0
  -25.6620  -15.2790   20.2220 N   0  0  0  0  0  0  0  0  0  0  0  0
  -24.9130  -15.9440   20.3810 H   0  0  0  0  0  0  0  0  0  0  0  0
  -26.4930  -15.7060   19.8340 H   0  0  0  0  0  0  0  0  0  0  0  0
  -29.6350  -22.9560   18.9270 C   0  0  0  0  0  3  0  0  0  0  0  0
  -29.7360  -23.8950   16.5140 C   0  0  0  0  0  1  0  0  0  0  0  0
  -29.0530  -22.9230   17.4920 C   0  0  0  0  0  2  0  0  0  0  0  0
  -29.5370  -24.3950   19.5780 C   0  0  0  0  0  2  0  0  0  0  0  0
  -28.2120  -25.2100   19.4250 C   0  0  0  0  0  2  0  0  0  0  0  0
  -28.3170  -26.6140   19.7910 O   0  0  0  0  0  0  0  0  0  0  0  0
  -24.5100  -31.7480   23.0250 C   0  0  0  0  0  0  0  0  0  0  0  0
  -27.1530  -27.3800   19.7850 C   0  0  0  0  0  0  0  0  0  0  0  0
  -23.3060  -30.4020   21.3400 C   0  0  0  0  0  3  0  0  0  0  0  0
  -24.7610  -28.9210   19.8550 C   0  0  0  0  0  0  0  0  0  0  0  0
  -25.8370  -30.7620   21.1530 C   0  0  0  0  0  2  0  0  0  0  0  0
  -25.9240  -29.4130   20.4600 C   0  0  0  0  0  0  0  0  0  0  0  0
  -27.1220  -28.6520   20.4190 C   0  0  0  0  0  3  0  0  0  0  0  0
  -25.9620  -26.9220   19.1720 C   0  0  0  0  0  3  0  0  0  0  0  0
  -24.7770  -27.6770   19.2070 C   0  0  0  0  0  3  0  0  0  0  0  0
  -23.5170  -29.7780   19.9350 C   0  0  0  0  0  2  0  0  0  0  0  0
  -24.5700  -30.9840   21.8970 N   0  0  0  0  0  0  0  0  0  0  0  0
  -23.4270  -31.9980   23.5750 O   0  0  0  0  0  0  0  0  0  0  0  0
  -22.6590  -29.3440   22.2620 C   0  0  0  0  0  0  0  0  0  0  0  0
  -21.3300  -29.1810   22.1500 N   0  0  0  0  0  0  0  0  0  0  0  0
  -23.3470  -28.6760   23.0380 O   0  0  0  0  0  0  0  0  0  0  0  0
  -20.8340  -29.7730   21.4980 H   0  0  0  0  0  0  0  0  0  0  0  0
  -17.9490  -28.0110   22.6660 C   0  0  0  0  0  0  0  0  0  0  0  0
  -20.5150  -28.2170   22.8910 C   0  0  0  0  0  3  0  0  0  0  0  0
  -20.5820  -26.8160   22.2410 C   0  0  0  0  0  2  0  0  0  0  0  0
  -19.4530  -26.5620   21.2380 C   0  0  0  0  0  2  0  0  0  0  0  0
  -18.0880  -26.6950   21.9200 C   0  0  0  0  0  2  0  0  0  0  0  0
  -19.0890  -28.7340   23.1090 C   0  0  0  0  0  0  0  0  0  0  0  0
  -18.9030  -29.9690   23.7660 C   0  0  0  0  0  3  0  0  0  0  0  0
  -17.6110  -30.4820   23.9870 C   0  0  0  0  0  3  0  0  0  0  0  0
  -16.4860  -29.7550   23.5610 C   0  0  0  0  0  3  0  0  0  0  0  0
  -16.6560  -28.5210   22.9070 C   0  0  0  0  0  3  0  0  0  0  0  0
  -25.7930  -32.3630   23.6660 C   0  0  0  0  0  3  0  0  0  0  0  0
  -25.4770  -33.7450   24.0520 N   0  0  0  0  0  0  0  0  0  0  0  0
  -25.7960  -34.8280   23.3300 C   0  0  0  0  0  0  0  0  0  0  0  0
  -26.4590  -34.7680   22.2910 O   0  0  0  0  0  0  0  0  0  0  0  0
  -24.8880  -33.8630   24.8620 H   0  0  0  0  0  0  0  0  0  0  0  0
  -24.0570  -36.6220   23.0510 C   0  0  0  0  0  1  0  0  0  0  0  0
  -25.3020  -36.1930   23.8430 C   0  0  0  0  0  3  0  0  0  0  0  0
  -27.4300  -37.0600   24.7090 C   0  0  0  0  0  1  0  0  0  0  0  0
  -26.3290  -37.2560   23.7700 N   0  0  0  0  0  0  0  0  0  0  0  0
  -25.9170  -38.1680   23.9500 H   0  0  0  0  0  0  0  0  0  0  0  0
  -26.3210  -31.5440   24.9070 C   0  0  1  0  0  0  0  0  0  0  0  0
  -25.2370  -31.2590   25.9710 C   0  0  0  0  0  1  0  0  0  0  0  0
  -26.9080  -30.1850   24.4550 C   0  0  0  0  0  1  0  0  0  0  0  0
  -27.4740  -32.3170   25.5910 C   0  0  0  0  0  1  0  0  0  0  0  0
  1  4  1  0
  2  1  1  0
  3  5  1  0
  6  2  1  0
  6  7  1  0
  6  8  1  0
  7 49  1  0
  7  3  1  0
  8  9  1  6
  8  4  1  0
  8  5  1  0
  9 10  1  0
 11 19  1  0
 12 17  1  0
 13 14  1  0
 13 12  1  0
 15 14  1  0
 15 24  1  0
 15 16  1  0
 17 11  1  0
 17 16  1  0
 18 11  2  0
 19 10  1  0
 19 20  1  0
 21 22  2  0
 22 41  1  0
 23 22  1  0
 23 26  1  0
 24 25  1  0
 24 21  1  0
 25 23  2  0
 26 27  1  0
 27 28  2  0
 29 32  1  0
 29 28  1  0
 30 29  2  0
 31 30  1  0
 31 26  2  0
 32 33  1  0
 33 34  1  0
 34 35  2  0
 36 35  1  0
 36 40  1  0
 37 36  2  0
 38 33  2  0
 38 37  1  0
 39 38  1  0
 41 42  1  0
 42 45  1  0
 42 44  1  0
 43 41  2  0
 46 47  1  0
 46 21  1  0
 48 46  1  0
 49 51  1  0
 49 52  1  0
 50 51  1  0
 53 52  1  0
 53 54  1  0
 55 66  2  0
 56 54  1  0
 56 61  1  0
 57 65  1  0
 57 67  1  0
 58 64  1  0
 58 60  1  0
 59 65  1  0
 60 59  1  0
 61 60  2  0
 62 63  1  0
 62 56  2  0
 63 58  2  0
 64 57  1  0
 65 55  1  0
 67 69  2  0
 68 67  1  0
 70 68  1  0
 71 80  2  0
 71 76  1  0
 72 68  1  0
 72 76  1  0
 73 72  1  0
 74 75  1  0
 74 73  1  0
 75 71  1  0
 76 77  2  0
 77 78  1  0
 79 78  2  0
 80 79  1  0
 81 55  1  0
 81 82  1  0
 81 91  1  0
 82 85  1  0
 83 87  1  0
 83 82  1  0
 84 83  2  0
 87 86  1  0
 89 87  1  0
 89 90  1  0
 89 88  1  0
 91 94  1  1
 91 92  1  0
 93 91  1  0
M  ISO  4  11 100  19 100  53 101  54 101
M  END
>  <TORSDO>  (64) 
F 22

>  <SCORE>  (64) 
-12.574

>  <name>  (64) 
64

>  <ligand_id>  (64) 
64

>  <original_smiles>  (64) 
[H]c1c([H])c([H])c2c(c1[H])C([H])([H])C([H])([H])C([H])([H])C2([H])N([H])C(=O)C1([H])N(C(=O)C([H])(N([H])C(=O)C([H])(N([H])C([H])([H])[H])C([H])([H])[H])C(C([H])([H])[H])(C([H])([H])[H])C([H])([H])[H])C([H])([H])c2c([H])c(OC([H])([H])C([H])([H])C([H])(C([H])([H])C([H])([H])[H])C3([H])C([H])([H])C([H])([H])C4(C([H])([H])C([H])([H])N([H])C(=O)N5C([H])([H])C([H])([H])C([H])([H])C([H])(n6nc(-c7c([H])c([H])c(Oc8c([H])c([H])c(F)c([H])c8F)c([H])c7[H])c(C(=O)N([H])[H])c6N([H])[H])C5([H])[H])C([H])([H])C([H])([H])C([H])([H])C34[H])c([H])c([H])c2C1([H])[H]

>  <smiles>  (64) 
[H]c1c([H])c([H])c2c(c1[H])C([H])([H])C([H])([H])C([H])([H])C2([H])N([H])C(=O)C1([H])N(C(=O)C([H])(N([H])C(=O)C([H])(N([H])C([H])([H])[H])C([H])([H])[H])C(C([H])([H])[H])(C([H])([H])[H])C([H])([H])[H])C([H])([H])c2c([H])c(OC([H])([H])C([H])([H])C([H])(C([H])([H])C([H])([H])[H])C3([H])C([H])([H])C([H])([H])C4(C([H])([H])C([H])([H])N([H])C(=O)N5C([H])([H])C([H])([H])C([H])([H])C([H])(n6nc(-c7c([H])c([H])c(Oc8c([H])c([H])c(F)c([H])c8F)c([H])c7[H])c(C(=O)N([H])[H])c6N([H])[H])C5([H])[H])C([H])([H])C([H])([H])C([H])([H])C34[H])c([H])c([H])c2C1([H])[H]

$$$$
65:0:0
     RDKit          3D

 88 96  0  0  1  0  0  0  0  0999 V2000
  -28.9460  -22.4990   20.2460 C   0  0  0  0  0  0  0  0  0  0  0  0
  -30.1400  -22.8120   20.2250 O   0  0  0  0  0  0  0  0  0  0  0  0
  -30.3670  -15.5140   19.8780 C   0  0  0  0  0  0  0  0  0  0  0  0
  -30.3320  -13.0440   18.9470 C   0  0  0  0  0  2  0  0  0  0  0  0
  -29.3440  -12.7670   17.7830 C   0  0  0  0  0  2  0  0  0  0  0  0
  -27.9510  -12.4230   18.3290 C   0  0  0  0  0  2  0  0  0  0  0  0
  -27.5450  -13.3680   19.4860 C   0  0  0  0  0  3  0  0  0  0  0  0
  -28.6620  -13.5860   20.5300 C   0  0  0  0  0  2  0  0  0  0  0  0
  -29.8010  -14.1860   19.8060 N   0  0  0  0  0  0  0  0  0  0  0  0
  -31.5710  -15.4580   19.5590 O   0  0  0  0  0  0  0  0  0  0  0  0
  -29.7150  -19.6130   21.1470 C   0  0  0  0  0  2  0  0  0  0  0  0
  -29.5830  -17.8910   21.2030 C   0  0  0  0  0  2  0  0  0  0  0  0
  -29.5980  -18.0590   18.9690 C   0  0  0  0  0  2  0  0  0  0  0  0
  -28.7360  -20.6760   20.3240 C   0  0  0  0  0  3  0  0  0  0  0  0
  -28.6870  -19.5280   19.0970 C   0  0  0  0  0  3  0  0  0  0  0  0
  -29.6670  -16.8790   20.0030 N   0  0  0  0  0  0  0  0  0  0  0  0
  -25.2500  -13.8630   20.4540 C   0  0  0  0  0  0  0  0  0  0  0  0
  -24.2240  -13.0620   20.8700 C   0  0  0  0  0  0  0  0  0  0  0  0
  -24.6930  -11.7180   20.7460 C   0  0  0  0  0  0  0  0  0  0  0  0
  -26.2720  -13.0070   20.0890 N   0  0  0  0  0  0  0  0  0  0  0  0
  -25.9570  -11.7070   20.3310 N   0  0  0  0  0  0  0  0  0  0  0  0
  -23.9870  -10.4440   20.9400 C   0  0  0  0  0  0  0  0  0  0  0  0
  -24.4440   -9.4770   21.8620 C   0  0  0  0  0  3  0  0  0  0  0  0
  -23.7350   -8.2710   22.0450 C   0  0  0  0  0  3  0  0  0  0  0  0
  -22.5550   -8.0210   21.3060 C   0  0  0  0  0  0  0  0  0  0  0  0
  -22.1170   -8.9770   20.3710 C   0  0  0  0  0  3  0  0  0  0  0  0
  -22.8280  -10.1750   20.1870 C   0  0  0  0  0  3  0  0  0  0  0  0
  -21.8140   -6.8670   21.3980 O   0  0  0  0  0  0  0  0  0  0  0  0
  -21.7220   -6.1640   22.5730 C   0  0  0  0  0  0  0  0  0  0  0  0
  -21.2130   -6.7470   23.7530 C   0  0  0  0  0  3  0  0  0  0  0  0
  -21.0720   -5.9680   24.9200 C   0  0  0  0  0  3  0  0  0  0  0  0
  -21.4290   -4.6070   24.9050 C   0  0  0  0  0  0  0  0  0  0  0  0
  -21.9310   -4.0220   23.7290 C   0  0  0  0  0  3  0  0  0  0  0  0
  -22.0740   -4.7990   22.5650 C   0  0  0  0  0  0  0  0  0  0  0  0
  -22.5390   -4.2260   21.4290 F   0  0  0  0  0  0  0  0  0  0  0  0
  -21.2860   -3.8560   26.0220 F   0  0  0  0  0  0  0  0  0  0  0  0
  -22.8500  -13.5180   21.2630 C   0  0  0  0  0  0  0  0  0  0  0  0
  -22.1950  -12.7890   22.1600 N   0  0  0  0  0  0  0  0  0  0  0  0
  -22.3690  -14.5570   20.8120 O   0  0  0  0  0  0  0  0  0  0  0  0
  -22.6000  -11.9500   22.5480 H   0  0  0  0  0  0  0  0  0  0  0  0
  -21.2770  -13.0750   22.4650 H   0  0  0  0  0  0  0  0  0  0  0  0
  -25.3940  -15.2420   20.3250 N   0  0  0  0  0  0  0  0  0  0  0  0
  -24.6430  -15.8900   20.5310 H   0  0  0  0  0  0  0  0  0  0  0  0
  -26.2230  -15.6990   19.9670 H   0  0  0  0  0  0  0  0  0  0  0  0
  -27.3710  -20.9600   17.4170 C   0  0  0  0  0  1  0  0  0  0  0  0
  -28.6960  -20.2490   17.7370 C   0  0  0  0  0  2  0  0  0  0  0  0
  -27.8630  -23.9630   20.2030 C   0  0  0  0  0  2  0  0  0  0  0  0
  -28.1670  -25.6510   20.2950 O   0  0  0  0  0  0  0  0  0  0  0  0
  -24.6770  -31.8330   23.2270 C   0  0  0  0  0  0  0  0  0  0  0  0
  -27.1990  -26.8310   20.2360 C   0  0  0  0  0  0  0  0  0  0  0  0
  -23.4880  -30.4450   21.5830 C   0  0  0  0  0  3  0  0  0  0  0  0
  -24.9340  -28.8150   20.1670 C   0  0  0  0  0  0  0  0  0  0  0  0
  -26.0630  -30.6060   21.4630 C   0  0  0  0  0  2  0  0  0  0  0  0
  -26.1260  -29.1840   20.8030 C   0  0  0  0  0  0  0  0  0  0  0  0
  -27.2500  -28.2180   20.8060 C   0  0  0  0  0  3  0  0  0  0  0  0
  -25.9780  -26.6500   19.5440 C   0  0  0  0  0  3  0  0  0  0  0  0
  -24.8940  -27.5730   19.5130 C   0  0  0  0  0  3  0  0  0  0  0  0
  -23.7260  -29.7590   20.2090 C   0  0  0  0  0  2  0  0  0  0  0  0
  -24.7660  -30.9920   22.1440 N   0  0  0  0  0  0  0  0  0  0  0  0
  -23.5840  -32.1330   23.7380 O   0  0  0  0  0  0  0  0  0  0  0  0
  -22.7720  -29.4590   22.5450 C   0  0  0  0  0  0  0  0  0  0  0  0
  -21.4430  -29.2980   22.4060 N   0  0  0  0  0  0  0  0  0  0  0  0
  -23.4240  -28.8390   23.3890 O   0  0  0  0  0  0  0  0  0  0  0  0
  -20.9680  -29.8510   21.7050 H   0  0  0  0  0  0  0  0  0  0  0  0
  -18.0540  -28.0820   22.8800 C   0  0  0  0  0  0  0  0  0  0  0  0
  -20.6100  -28.3630   23.1700 C   0  0  0  0  0  3  0  0  0  0  0  0
  -20.7240  -26.9270   22.6040 C   0  0  0  0  0  2  0  0  0  0  0  0
  -19.6350  -26.5970   21.5780 C   0  0  0  0  0  2  0  0  0  0  0  0
  -18.2450  -26.7350   22.2040 C   0  0  0  0  0  2  0  0  0  0  0  0
  -19.1630  -28.8540   23.3180 C   0  0  0  0  0  0  0  0  0  0  0  0
  -18.9270  -30.1120   23.9140 C   0  0  0  0  0  3  0  0  0  0  0  0
  -17.6160  -30.6000   24.0710 C   0  0  0  0  0  3  0  0  0  0  0  0
  -16.5220  -29.8280   23.6460 C   0  0  0  0  0  3  0  0  0  0  0  0
  -16.7420  -28.5700   23.0570 C   0  0  0  0  0  3  0  0  0  0  0  0
  -25.9420  -32.4740   23.8740 C   0  0  0  0  0  3  0  0  0  0  0  0
  -25.6260  -33.8750   24.2080 N   0  0  0  0  0  0  0  0  0  0  0  0
  -25.9410  -34.9380   23.4560 C   0  0  0  0  0  0  0  0  0  0  0  0
  -26.5880  -34.8410   22.4110 O   0  0  0  0  0  0  0  0  0  0  0  0
  -25.0480  -34.0230   25.0230 H   0  0  0  0  0  0  0  0  0  0  0  0
  -24.1860  -36.7260   23.1820 C   0  0  0  0  0  1  0  0  0  0  0  0
  -25.4660  -36.3260   23.9350 C   0  0  0  0  0  3  0  0  0  0  0  0
  -27.6300  -37.2320   24.6690 C   0  0  0  0  0  1  0  0  0  0  0  0
  -26.4830  -37.3890   23.7760 N   0  0  0  0  0  0  0  0  0  0  0  0
  -26.0770  -38.3050   23.9420 H   0  0  0  0  0  0  0  0  0  0  0  0
  -26.4290  -31.7090   25.1670 C   0  0  1  0  0  0  0  0  0  0  0  0
  -25.3170  -31.4910   26.2200 C   0  0  0  0  0  1  0  0  0  0  0  0
  -27.0090  -30.3230   24.8070 C   0  0  0  0  0  1  0  0  0  0  0  0
  -27.5760  -32.5000   25.8410 C   0  0  0  0  0  1  0  0  0  0  0  0
  2  1  2  0
  3 16  1  0
  4  9  1  0
  5  6  1  0
  5  4  1  0
  7  6  1  0
  7 20  1  0
  7  8  1  0
  9  3  1  0
  9  8  1  0
 10  3  2  0
 11 12  1  0
 13 15  1  0
 13 16  1  0
 14  1  1  0
 14 11  1  0
 15 46  1  0
 15 14  1  0
 16 12  1  0
 17 18  2  0
 18 37  1  0
 19 18  1  0
 19 22  1  0
 20 21  1  0
 20 17  1  0
 21 19  2  0
 22 23  1  0
 23 24  2  0
 25 28  1  0
 25 24  1  0
 26 25  2  0
 27 26  1  0
 27 22  2  0
 28 29  1  0
 29 30  1  0
 30 31  2  0
 32 31  1  0
 32 36  1  0
 33 32  2  0
 34 29  2  0
 34 33  1  0
 35 34  1  0
 37 38  1  0
 38 41  1  0
 38 40  1  0
 39 37  2  0
 42 17  1  0
 42 43  1  0
 44 42  1  0
 45 46  1  0
 47  1  1  0
 47 48  1  0
 49 60  2  0
 50 48  1  0
 50 55  1  0
 51 59  1  0
 51 61  1  0
 52 58  1  0
 52 54  1  0
 53 59  1  0
 54 55  2  0
 54 53  1  0
 56 50  2  0
 57 56  1  0
 57 52  2  0
 58 51  1  0
 59 49  1  0
 61 63  2  0
 62 61  1  0
 64 62  1  0
 65 74  2  0
 65 70  1  0
 66 62  1  0
 66 70  1  0
 67 66  1  0
 68 69  1  0
 68 67  1  0
 69 65  1  0
 70 71  2  0
 71 72  1  0
 73 72  2  0
 74 73  1  0
 75 49  1  0
 75 76  1  0
 75 85  1  0
 76 79  1  0
 77 81  1  0
 77 76  1  0
 78 77  2  0
 81 80  1  0
 83 81  1  0
 83 84  1  0
 83 82  1  0
 85 88  1  1
 85 86  1  0
 87 85  1  0
M  ISO  4   3 100  16 100  47 101  48 101
M  END
>  <TORSDO>  (65) 
F 18

>  <SCORE>  (65) 
-15.761

>  <name>  (65) 
65

>  <ligand_id>  (65) 
65

>  <original_smiles>  (65) 
[H]c1c([H])c([H])c2c(c1[H])C([H])([H])C([H])([H])C([H])([H])C2([H])N([H])C(=O)C1([H])N(C(=O)C([H])(N([H])C(=O)C([H])(N([H])C([H])([H])[H])C([H])([H])[H])C(C([H])([H])[H])(C([H])([H])[H])C([H])([H])[H])C([H])([H])c2c([H])c(OC([H])([H])C(=O)C3([H])C([H])([H])C([H])([H])N(C(=O)N4C([H])([H])C([H])([H])C([H])([H])C([H])(n5nc(-c6c([H])c([H])c(Oc7c([H])c([H])c(F)c([H])c7F)c([H])c6[H])c(C(=O)N([H])[H])c5N([H])[H])C4([H])[H])C([H])([H])C3([H])C([H])([H])C([H])([H])[H])c([H])c([H])c2C1([H])[H]

>  <smiles>  (65) 
[H]c1c([H])c([H])c2c(c1[H])C([H])([H])C([H])([H])C([H])([H])C2([H])N([H])C(=O)C1([H])N(C(=O)C([H])(N([H])C(=O)C([H])(N([H])C([H])([H])[H])C([H])([H])[H])C(C([H])([H])[H])(C([H])([H])[H])C([H])([H])[H])C([H])([H])c2c([H])c(OC([H])([H])C(=O)C3([H])C([H])([H])C([H])([H])N(C(=O)N4C([H])([H])C([H])([H])C([H])([H])C([H])(n5nc(-c6c([H])c([H])c(Oc7c([H])c([H])c(F)c([H])c7F)c([H])c6[H])c(C(=O)N([H])[H])c5N([H])[H])C4([H])[H])C([H])([H])C3([H])C([H])([H])C([H])([H])[H])c([H])c([H])c2C1([H])[H]

$$$$
66:0:0
     RDKit          3D

 87 96  0  0  1  0  0  0  0  0999 V2000
  -28.2810  -20.3400   20.9420 C   0  0  0  0  0  2  0  0  0  0  0  0
  -29.6390  -18.9120   18.8870 C   0  0  0  0  0  2  0  0  0  0  0  0
  -29.5890  -19.4030   20.9260 C   0  0  0  0  0  3  0  0  0  0  0  0
  -29.8800  -20.2980   19.6660 C   0  0  0  0  0  3  0  0  0  0  0  0
  -28.7690  -21.4910   19.9460 C   0  0  0  0  0  3  0  0  0  0  0  0
  -30.1500  -18.0570   20.0970 C   0  0  0  0  0  3  0  0  0  0  0  0
  -30.5380  -15.2510   20.1010 C   0  0  0  0  0  0  0  0  0  0  0  0
  -30.4350  -12.8590   19.1840 C   0  0  0  0  0  2  0  0  0  0  0  0
  -29.4620  -12.7410   17.9870 C   0  0  0  0  0  2  0  0  0  0  0  0
  -28.0250  -12.4900   18.4780 C   0  0  0  0  0  2  0  0  0  0  0  0
  -27.6360  -13.4230   19.6530 C   0  0  0  0  0  3  0  0  0  0  0  0
  -28.7310  -13.5040   20.7380 C   0  0  0  0  0  2  0  0  0  0  0  0
  -29.9540  -13.9700   20.0710 N   0  0  0  0  0  0  0  0  0  0  0  0
  -31.7370  -15.2820   19.7940 O   0  0  0  0  0  0  0  0  0  0  0  0
  -29.7850  -16.4830   20.2640 N   0  0  0  0  0  0  0  0  0  0  0  0
  -28.8150  -16.3160   20.4870 H   0  0  0  0  0  0  0  0  0  0  0  0
  -25.2940  -13.9660   20.5160 C   0  0  0  0  0  0  0  0  0  0  0  0
  -24.2500  -13.1780   20.9110 C   0  0  0  0  0  0  0  0  0  0  0  0
  -24.7160  -11.8300   20.8260 C   0  0  0  0  0  0  0  0  0  0  0  0
  -26.3280  -13.0980   20.2060 N   0  0  0  0  0  0  0  0  0  0  0  0
  -25.9940  -11.8060   20.4600 N   0  0  0  0  0  0  0  0  0  0  0  0
  -23.9990  -10.5610   21.0130 C   0  0  0  0  0  0  0  0  0  0  0  0
  -24.4460   -9.5880   21.9330 C   0  0  0  0  0  3  0  0  0  0  0  0
  -23.7260   -8.3860   22.1100 C   0  0  0  0  0  3  0  0  0  0  0  0
  -22.5460   -8.1490   21.3660 C   0  0  0  0  0  0  0  0  0  0  0  0
  -22.1190   -9.1100   20.4330 C   0  0  0  0  0  3  0  0  0  0  0  0
  -22.8390  -10.3040   20.2550 C   0  0  0  0  0  3  0  0  0  0  0  0
  -21.7980   -7.0000   21.4530 O   0  0  0  0  0  0  0  0  0  0  0  0
  -21.7300   -6.2720   22.6130 C   0  0  0  0  0  0  0  0  0  0  0  0
  -21.2310   -6.8250   23.8120 C   0  0  0  0  0  3  0  0  0  0  0  0
  -21.1140   -6.0200   24.9630 C   0  0  0  0  0  3  0  0  0  0  0  0
  -21.4840   -4.6640   24.9170 C   0  0  0  0  0  0  0  0  0  0  0  0
  -21.9750   -4.1090   23.7210 C   0  0  0  0  0  3  0  0  0  0  0  0
  -22.0940   -4.9100   22.5720 C   0  0  0  0  0  0  0  0  0  0  0  0
  -22.5480   -4.3660   21.4180 F   0  0  0  0  0  0  0  0  0  0  0  0
  -21.3640   -3.8880   26.0190 F   0  0  0  0  0  0  0  0  0  0  0  0
  -22.8650  -13.6450   21.2490 C   0  0  0  0  0  0  0  0  0  0  0  0
  -22.1740  -12.9290   22.1300 N   0  0  0  0  0  0  0  0  0  0  0  0
  -22.4050  -14.6790   20.7690 O   0  0  0  0  0  0  0  0  0  0  0  0
  -22.5620  -12.0930   22.5410 H   0  0  0  0  0  0  0  0  0  0  0  0
  -21.2460  -13.2220   22.3990 H   0  0  0  0  0  0  0  0  0  0  0  0
  -25.4460  -15.3410   20.3660 N   0  0  0  0  0  0  0  0  0  0  0  0
  -24.6770  -15.9850   20.5230 H   0  0  0  0  0  0  0  0  0  0  0  0
  -26.2640  -15.7910   19.9760 H   0  0  0  0  0  0  0  0  0  0  0  0
  -29.0110  -23.1870   20.2990 C   0  0  0  0  0  3  0  0  0  0  0  0
  -27.9840  -24.5680   20.0070 C   0  0  0  0  0  3  0  0  0  0  0  0
  -28.2180  -26.1380   20.2440 O   0  0  0  0  0  0  0  0  0  0  0  0
  -24.6220  -31.9360   23.2500 C   0  0  0  0  0  0  0  0  0  0  0  0
  -27.1790  -27.1710   20.1820 C   0  0  0  0  0  0  0  0  0  0  0  0
  -23.4160  -30.5460   21.6120 C   0  0  0  0  0  3  0  0  0  0  0  0
  -24.8570  -28.9700   20.1670 C   0  0  0  0  0  0  0  0  0  0  0  0
  -25.9730  -30.7960   21.4360 C   0  0  0  0  0  2  0  0  0  0  0  0
  -26.0450  -29.4000   20.7740 C   0  0  0  0  0  0  0  0  0  0  0  0
  -27.2030  -28.5180   20.7600 C   0  0  0  0  0  3  0  0  0  0  0  0
  -25.9630  -26.8660   19.5320 C   0  0  0  0  0  3  0  0  0  0  0  0
  -24.8350  -27.7210   19.5280 C   0  0  0  0  0  3  0  0  0  0  0  0
  -23.6310  -29.8740   20.2290 C   0  0  0  0  0  2  0  0  0  0  0  0
  -24.6910  -31.1170   22.1540 N   0  0  0  0  0  0  0  0  0  0  0  0
  -23.5370  -32.2170   23.7850 O   0  0  0  0  0  0  0  0  0  0  0  0
  -22.7410  -29.5370   22.5770 C   0  0  0  0  0  0  0  0  0  0  0  0
  -21.4160  -29.3470   22.4430 N   0  0  0  0  0  0  0  0  0  0  0  0
  -23.4140  -28.9260   23.4100 O   0  0  0  0  0  0  0  0  0  0  0  0
  -20.9260  -29.8920   21.7470 H   0  0  0  0  0  0  0  0  0  0  0  0
  -18.0520  -28.0850   22.9280 C   0  0  0  0  0  0  0  0  0  0  0  0
  -20.6030  -28.4010   23.2140 C   0  0  0  0  0  3  0  0  0  0  0  0
  -20.7370  -26.9660   22.6500 C   0  0  0  0  0  2  0  0  0  0  0  0
  -19.6500  -26.6160   21.6290 C   0  0  0  0  0  2  0  0  0  0  0  0
  -18.2600  -26.7370   22.2610 C   0  0  0  0  0  2  0  0  0  0  0  0
  -19.1510  -28.8730   23.3610 C   0  0  0  0  0  0  0  0  0  0  0  0
  -18.9010  -30.1320   23.9480 C   0  0  0  0  0  3  0  0  0  0  0  0
  -17.5840  -30.6060   24.1050 C   0  0  0  0  0  3  0  0  0  0  0  0
  -16.4990  -29.8160   23.6860 C   0  0  0  0  0  3  0  0  0  0  0  0
  -16.7340  -28.5580   23.1040 C   0  0  0  0  0  3  0  0  0  0  0  0
  -25.8990  -32.5760   23.8730 C   0  0  0  0  0  3  0  0  0  0  0  0
  -25.5910  -33.9800   24.1930 N   0  0  0  0  0  0  0  0  0  0  0  0
  -25.8930  -35.0270   23.4130 C   0  0  0  0  0  0  0  0  0  0  0  0
  -26.5260  -34.9140   22.3600 O   0  0  0  0  0  0  0  0  0  0  0  0
  -25.0250  -34.1410   25.0130 H   0  0  0  0  0  0  0  0  0  0  0  0
  -24.1320  -36.8050   23.1290 C   0  0  0  0  0  1  0  0  0  0  0  0
  -25.4210  -36.4220   23.8740 C   0  0  0  0  0  3  0  0  0  0  0  0
  -27.5850  -37.3470   24.5760 C   0  0  0  0  0  1  0  0  0  0  0  0
  -26.4360  -37.4810   23.6840 N   0  0  0  0  0  0  0  0  0  0  0  0
  -26.0290  -38.4010   23.8270 H   0  0  0  0  0  0  0  0  0  0  0  0
  -26.4030  -31.8210   25.1650 C   0  0  1  0  0  0  0  0  0  0  0  0
  -25.3000  -31.5990   26.2270 C   0  0  0  0  0  1  0  0  0  0  0  0
  -26.9880  -30.4360   24.8020 C   0  0  0  0  0  1  0  0  0  0  0  0
  -27.5490  -32.6220   25.8270 C   0  0  0  0  0  1  0  0  0  0  0  0
  2  6  1  0
  3  1  1  0
  4  2  1  0
  4  5  1  0
  4  3  1  0
  5 45  1  0
  5  1  1  0
  6 15  1  0
  6  3  1  0
  7 15  1  0
  8 13  1  0
  9 10  1  0
  9  8  1  0
 11 10  1  0
 11 20  1  0
 11 12  1  0
 13  7  1  0
 13 12  1  0
 14  7  2  0
 15 16  1  0
 17 18  2  0
 18 37  1  0
 19 18  1  0
 19 22  1  0
 20 21  1  0
 20 17  1  0
 21 19  2  0
 22 23  1  0
 23 24  2  0
 25 28  1  0
 25 24  1  0
 26 25  2  0
 27 26  1  0
 27 22  2  0
 28 29  1  0
 29 30  1  0
 30 31  2  0
 32 31  1  0
 32 36  1  0
 33 32  2  0
 34 29  2  0
 34 33  1  0
 35 34  1  0
 37 38  1  0
 38 41  1  0
 38 40  1  0
 39 37  2  0
 42 17  1  0
 42 43  1  0
 44 42  1  0
 46 47  1  0
 46 45  2  0
 48 59  2  0
 49 47  1  0
 49 54  1  0
 50 58  1  0
 50 60  1  0
 51 57  1  0
 51 53  1  0
 52 58  1  0
 53 52  1  0
 54 53  2  0
 55 49  2  0
 56 55  1  0
 56 51  2  0
 57 50  1  0
 58 48  1  0
 60 62  2  0
 61 60  1  0
 63 61  1  0
 64 73  2  0
 64 69  1  0
 65 61  1  0
 65 69  1  0
 66 65  1  0
 67 68  1  0
 67 66  1  0
 68 64  1  0
 69 70  2  0
 70 71  1  0
 72 71  2  0
 73 72  1  0
 74 48  1  0
 74 75  1  0
 74 84  1  0
 75 78  1  0
 76 80  1  0
 76 75  1  0
 77 76  2  0
 80 79  1  0
 82 83  1  0
 82 80  1  0
 82 81  1  0
 84 87  1  1
 84 85  1  0
 86 84  1  0
M  ISO  4   7 100  15 100  46 101  47 101
M  END
>  <TORSDO>  (66) 
F 18

>  <SCORE>  (66) 
-15.316

>  <name>  (66) 
66

>  <ligand_id>  (66) 
66

>  <original_smiles>  (66) 
[H]c1c([H])c([H])c2c(c1[H])C([H])([H])C([H])([H])C([H])([H])C2([H])N([H])C(=O)C1([H])N(C(=O)C([H])(N([H])C(=O)C([H])(N([H])C([H])([H])[H])C([H])([H])[H])C(C([H])([H])[H])(C([H])([H])[H])C([H])([H])[H])C([H])([H])c2c([H])c(OC([H])([H])C([H])([H])C3([H])C([H])([H])C4([H])C([H])(N([H])C(=O)N5C([H])([H])C([H])([H])C([H])([H])C([H])(n6nc(-c7c([H])c([H])c(Oc8c([H])c([H])c(F)c([H])c8F)c([H])c7[H])c(C(=O)N([H])[H])c6N([H])[H])C5([H])[H])C([H])([H])C34[H])c([H])c([H])c2C1([H])[H]

>  <smiles>  (66) 
[H]c1c([H])c([H])c2c(c1[H])C([H])([H])C([H])([H])C([H])([H])C2([H])N([H])C(=O)C1([H])N(C(=O)C([H])(N([H])C(=O)C([H])(N([H])C([H])([H])[H])C([H])([H])[H])C(C([H])([H])[H])(C([H])([H])[H])C([H])([H])[H])C([H])([H])c2c([H])c(OC([H])([H])C([H])([H])C3([H])C([H])([H])C4([H])C([H])(N([H])C(=O)N5C([H])([H])C([H])([H])C([H])([H])C([H])(n6nc(-c7c([H])c([H])c(Oc8c([H])c([H])c(F)c([H])c8F)c([H])c7[H])c(C(=O)N([H])[H])c6N([H])[H])C5([H])[H])C([H])([H])C34[H])c([H])c([H])c2C1([H])[H]

$$$$
67:0:0
     RDKit          3D

 89 98  0  0  1  0  0  0  0  0999 V2000
  -28.6590  -20.7290   22.0390 C   0  0  0  0  0  2  0  0  0  0  0  0
  -29.6690  -23.0840   21.5630 C   0  0  0  0  0  2  0  0  0  0  0  0
  -28.5980  -21.9700   19.6800 C   0  0  0  0  0  2  0  0  0  0  0  0
  -29.8660  -21.5400   21.6640 C   0  0  0  0  0  3  0  0  0  0  0  0
  -29.1260  -20.7470   20.5920 C   0  0  1  0  0  0  0  0  0  0  0  0
  -29.0810  -23.4830   20.1630 C   0  0  2  0  0  0  0  0  0  0  0  0
  -30.2630  -23.9130   19.2730 C   0  0  0  0  0  1  0  0  0  0  0  0
  -29.3330  -19.1880   19.9800 C   0  0  0  0  0  2  0  0  0  0  0  0
  -30.0860  -17.8600   20.7170 C   0  0  0  0  0  2  0  0  0  0  0  0
  -30.6530  -15.1650   20.2320 C   0  0  0  0  0  0  0  0  0  0  0  0
  -30.5880  -12.8140   19.2750 C   0  0  0  0  0  2  0  0  0  0  0  0
  -29.6540  -12.7520   18.0450 C   0  0  0  0  0  2  0  0  0  0  0  0
  -28.1910  -12.5220   18.4700 C   0  0  0  0  0  2  0  0  0  0  0  0
  -27.7720  -13.4430   19.6490 C   0  0  0  0  0  3  0  0  0  0  0  0
  -28.8260  -13.4520   20.7770 C   0  0  0  0  0  2  0  0  0  0  0  0
  -30.0860  -13.8930   20.1710 N   0  0  0  0  0  0  0  0  0  0  0  0
  -31.8570  -15.2650   19.9570 O   0  0  0  0  0  0  0  0  0  0  0  0
  -29.8330  -16.3160   20.4210 N   0  0  0  0  0  0  0  0  0  0  0  0
  -28.8670  -16.0470   20.5520 H   0  0  0  0  0  0  0  0  0  0  0  0
  -25.3910  -14.0110   20.3930 C   0  0  0  0  0  0  0  0  0  0  0  0
  -24.3350  -13.2290   20.7680 C   0  0  0  0  0  0  0  0  0  0  0  0
  -24.8080  -11.8830   20.7440 C   0  0  0  0  0  0  0  0  0  0  0  0
  -26.4360  -13.1350   20.1490 N   0  0  0  0  0  0  0  0  0  0  0  0
  -26.0960  -11.8510   20.4270 N   0  0  0  0  0  0  0  0  0  0  0  0
  -24.0870  -10.6190   20.9450 C   0  0  0  0  0  0  0  0  0  0  0  0
  -24.4920   -9.6860   21.9260 C   0  0  0  0  0  3  0  0  0  0  0  0
  -23.7730   -8.4850   22.1110 C   0  0  0  0  0  3  0  0  0  0  0  0
  -22.6380   -8.2070   21.3100 C   0  0  0  0  0  0  0  0  0  0  0  0
  -22.2520   -9.1280   20.3200 C   0  0  0  0  0  3  0  0  0  0  0  0
  -22.9730  -10.3210   20.1350 C   0  0  0  0  0  3  0  0  0  0  0  0
  -21.8960   -7.0530   21.4000 O   0  0  0  0  0  0  0  0  0  0  0  0
  -21.7600   -6.3770   22.5840 C   0  0  0  0  0  0  0  0  0  0  0  0
  -21.1580   -6.9690   23.7160 C   0  0  0  0  0  3  0  0  0  0  0  0
  -20.9700   -6.2150   24.8920 C   0  0  0  0  0  3  0  0  0  0  0  0
  -21.3750   -4.8670   24.9370 C   0  0  0  0  0  0  0  0  0  0  0  0
  -21.9690   -4.2730   23.8100 C   0  0  0  0  0  3  0  0  0  0  0  0
  -22.1570   -5.0250   22.6380 C   0  0  0  0  0  0  0  0  0  0  0  0
  -22.7120   -4.4410   21.5470 F   0  0  0  0  0  0  0  0  0  0  0  0
  -21.1880   -4.1420   26.0650 F   0  0  0  0  0  0  0  0  0  0  0  0
  -22.9350  -13.7010   21.0390 C   0  0  0  0  0  0  0  0  0  0  0  0
  -22.2140  -13.0100   21.9140 N   0  0  0  0  0  0  0  0  0  0  0  0
  -22.4930  -14.7220   20.5150 O   0  0  0  0  0  0  0  0  0  0  0  0
  -22.5850  -12.1860   22.3630 H   0  0  0  0  0  0  0  0  0  0  0  0
  -21.2780  -13.3120   22.1380 H   0  0  0  0  0  0  0  0  0  0  0  0
  -25.5360  -15.3850   20.2140 N   0  0  0  0  0  0  0  0  0  0  0  0
  -24.7440  -16.0090   20.3260 H   0  0  0  0  0  0  0  0  0  0  0  0
  -26.3550  -15.8510   19.8460 H   0  0  0  0  0  0  0  0  0  0  0  0
  -28.0220  -24.8050   20.0940 C   0  0  0  0  0  2  0  0  0  0  0  0
  -28.3120  -26.3400   20.0770 O   0  0  0  0  0  0  0  0  0  0  0  0
  -24.6880  -31.9510   23.1780 C   0  0  0  0  0  0  0  0  0  0  0  0
  -27.2450  -27.3140   20.0360 C   0  0  0  0  0  0  0  0  0  0  0  0
  -23.4680  -30.5780   21.5370 C   0  0  0  0  0  3  0  0  0  0  0  0
  -24.8980  -29.0430   20.0580 C   0  0  0  0  0  0  0  0  0  0  0  0
  -26.0130  -30.8680   21.3270 C   0  0  0  0  0  2  0  0  0  0  0  0
  -26.0860  -29.4890   20.6510 C   0  0  0  0  0  0  0  0  0  0  0  0
  -27.2600  -28.6430   20.6210 C   0  0  0  0  0  3  0  0  0  0  0  0
  -26.0270  -26.9680   19.4090 C   0  0  0  0  0  3  0  0  0  0  0  0
  -24.8810  -27.7940   19.4200 C   0  0  0  0  0  3  0  0  0  0  0  0
  -23.6680  -29.9330   20.1420 C   0  0  0  0  0  2  0  0  0  0  0  0
  -24.7430  -31.1540   22.0690 N   0  0  0  0  0  0  0  0  0  0  0  0
  -23.6100  -32.2180   23.7280 O   0  0  0  0  0  0  0  0  0  0  0  0
  -22.8180  -29.5450   22.4930 C   0  0  0  0  0  0  0  0  0  0  0  0
  -21.5000  -29.3250   22.3460 N   0  0  0  0  0  0  0  0  0  0  0  0
  -23.5000  -28.9460   23.3290 O   0  0  0  0  0  0  0  0  0  0  0  0
  -21.0080  -29.8670   21.6500 H   0  0  0  0  0  0  0  0  0  0  0  0
  -18.1560  -27.9960   22.7930 C   0  0  0  0  0  0  0  0  0  0  0  0
  -20.6970  -28.3620   23.1070 C   0  0  0  0  0  3  0  0  0  0  0  0
  -20.8670  -26.9330   22.5440 C   0  0  0  0  0  2  0  0  0  0  0  0
  -19.7980  -26.5600   21.5110 C   0  0  0  0  0  2  0  0  0  0  0  0
  -18.3990  -26.6510   22.1290 C   0  0  0  0  0  2  0  0  0  0  0  0
  -19.2360  -28.8060   23.2380 C   0  0  0  0  0  0  0  0  0  0  0  0
  -18.9540  -30.0600   23.8220 C   0  0  0  0  0  3  0  0  0  0  0  0
  -17.6280  -30.5060   23.9640 C   0  0  0  0  0  3  0  0  0  0  0  0
  -16.5640  -29.6950   23.5350 C   0  0  0  0  0  3  0  0  0  0  0  0
  -16.8280  -28.4420   22.9550 C   0  0  0  0  0  3  0  0  0  0  0  0
  -25.9730  -32.5810   23.7970 C   0  0  0  0  0  3  0  0  0  0  0  0
  -26.4960  -31.8020   25.0670 C   0  0  1  0  0  0  0  0  0  0  0  0
  -25.4030  -31.5330   26.1270 C   0  0  0  0  0  1  0  0  0  0  0  0
  -27.1050  -30.4390   24.6620 C   0  0  0  0  0  1  0  0  0  0  0  0
  -27.6310  -32.6090   25.7430 C   0  0  0  0  0  1  0  0  0  0  0  0
  -25.6590  -33.9760   24.1450 N   0  0  0  0  0  0  0  0  0  0  0  0
  -25.9820  -35.0420   23.4000 C   0  0  0  0  0  0  0  0  0  0  0  0
  -26.6420  -34.9540   22.3610 O   0  0  0  0  0  0  0  0  0  0  0  0
  -25.0710  -34.1150   24.9540 H   0  0  0  0  0  0  0  0  0  0  0  0
  -24.2570  -36.8450   23.0830 C   0  0  0  0  0  1  0  0  0  0  0  0
  -25.5000  -36.4240   23.8820 C   0  0  0  0  0  3  0  0  0  0  0  0
  -27.6310  -37.3000   24.7320 C   0  0  0  0  0  1  0  0  0  0  0  0
  -26.5360  -37.4760   23.7830 N   0  0  0  0  0  0  0  0  0  0  0  0
  -26.1310  -38.3980   23.9310 H   0  0  0  0  0  0  0  0  0  0  0  0
  3  6  1  0
  3  5  1  0
  4  2  1  0
  4  1  1  0
  5  8  1  6
  5  4  1  0
  5  1  1  0
  6  7  1  6
  6  2  1  0
  8  9  1  0
 10 18  1  0
 11 16  1  0
 12 13  1  0
 12 11  1  0
 14 13  1  0
 14 23  1  0
 14 15  1  0
 16 10  1  0
 16 15  1  0
 17 10  2  0
 18 19  1  0
 18  9  1  0
 20 21  2  0
 21 40  1  0
 22 21  1  0
 22 25  1  0
 23 20  1  0
 23 24  1  0
 24 22  2  0
 25 26  1  0
 26 27  2  0
 28 31  1  0
 28 27  1  0
 29 28  2  0
 30 29  1  0
 30 25  2  0
 31 32  1  0
 32 37  2  0
 32 33  1  0
 33 34  2  0
 34 35  1  0
 35 39  1  0
 36 35  2  0
 37 36  1  0
 38 37  1  0
 40 41  1  0
 41 44  1  0
 41 43  1  0
 42 40  2  0
 45 46  1  0
 45 20  1  0
 47 45  1  0
 48  6  1  0
 49 48  1  0
 50 61  2  0
 51 49  1  0
 51 56  1  0
 52 60  1  0
 52 62  1  0
 53 59  1  0
 53 55  1  0
 54 60  1  0
 55 54  1  0
 56 55  2  0
 57 58  1  0
 57 51  2  0
 58 53  2  0
 59 52  1  0
 60 50  1  0
 62 64  2  0
 63 62  1  0
 65 63  1  0
 66 75  2  0
 66 71  1  0
 67 63  1  0
 67 71  1  0
 68 67  1  0
 69 70  1  0
 69 68  1  0
 70 66  1  0
 71 72  2  0
 72 73  1  0
 74 73  2  0
 75 74  1  0
 76 50  1  0
 76 81  1  0
 76 77  1  0
 77 80  1  1
 77 78  1  0
 79 77  1  0
 81 84  1  0
 82 86  1  0
 82 81  1  0
 83 82  2  0
 86 85  1  0
 88 86  1  0
 88 89  1  0
 88 87  1  0
M  ISO  4  10 100  18 100  48 101  49 101
M  END
>  <TORSDO>  (67) 
F 19

>  <SCORE>  (67) 
-14.665

>  <name>  (67) 
67

>  <ligand_id>  (67) 
67

>  <original_smiles>  (67) 
[H]c1c([H])c([H])c2c(c1[H])C([H])([H])C([H])([H])C([H])([H])C2([H])N([H])C(=O)C1([H])N(C(=O)C([H])(N([H])C(=O)C([H])(N([H])C([H])([H])[H])C([H])([H])[H])C(C([H])([H])[H])(C([H])([H])[H])C([H])([H])[H])C([H])([H])c2c([H])c(OC([H])([H])C3(C([H])([H])[H])C([H])([H])C4([H])C([H])([H])C4(C([H])([H])C([H])([H])N([H])C(=O)N4C([H])([H])C([H])([H])C([H])([H])C([H])(n5nc(-c6c([H])c([H])c(Oc7c([H])c([H])c(F)c([H])c7F)c([H])c6[H])c(C(=O)N([H])[H])c5N([H])[H])C4([H])[H])C3([H])[H])c([H])c([H])c2C1([H])[H]

>  <smiles>  (67) 
[H]c1c([H])c([H])c2c(c1[H])C([H])([H])C([H])([H])C([H])([H])C2([H])N([H])C(=O)C1([H])N(C(=O)C([H])(N([H])C(=O)C([H])(N([H])C([H])([H])[H])C([H])([H])[H])C(C([H])([H])[H])(C([H])([H])[H])C([H])([H])[H])C([H])([H])c2c([H])c(OC([H])([H])C3(C([H])([H])[H])C([H])([H])C4([H])C([H])([H])C4(C([H])([H])C([H])([H])N([H])C(=O)N4C([H])([H])C([H])([H])C([H])([H])C([H])(n5nc(-c6c([H])c([H])c(Oc7c([H])c([H])c(F)c([H])c7F)c([H])c6[H])c(C(=O)N([H])[H])c5N([H])[H])C4([H])[H])C3([H])[H])c([H])c([H])c2C1([H])[H]

$$$$
68:0:0
     RDKit          3D

 90 98  0  0  1  0  0  0  0  0999 V2000
  -30.1490  -19.0890   19.0230 C   0  0  0  0  0  3  0  0  0  0  0  0
  -29.9340  -20.4810   18.9520 C   0  0  0  0  0  0  0  0  0  0  0  0
  -29.1030  -18.9370   21.2390 C   0  0  0  0  0  2  0  0  0  0  0  0
  -28.5250  -20.4470   20.8970 C   0  0  0  0  0  2  0  0  0  0  0  0
  -30.0280  -18.0780   20.2320 C   0  0  0  0  0  3  0  0  0  0  0  0
  -29.4100  -21.5000   20.0840 C   0  0  0  0  0  3  0  0  0  0  0  0
  -30.5950  -15.2460   19.9100 C   0  0  0  0  0  0  0  0  0  0  0  0
  -30.4740  -12.8640   18.9540 C   0  0  0  0  0  2  0  0  0  0  0  0
  -29.4660  -12.7480   17.7860 C   0  0  0  0  0  2  0  0  0  0  0  0
  -28.0410  -12.4990   18.3170 C   0  0  0  0  0  2  0  0  0  0  0  0
  -27.6860  -13.4290   19.5040 C   0  0  0  0  0  3  0  0  0  0  0  0
  -28.8090  -13.4930   20.5610 C   0  0  0  0  0  2  0  0  0  0  0  0
  -30.0120  -13.9660   19.8600 N   0  0  0  0  0  0  0  0  0  0  0  0
  -31.7980  -15.2830   19.6250 O   0  0  0  0  0  0  0  0  0  0  0  0
  -29.8130  -16.4640   20.0810 N   0  0  0  0  0  0  0  0  0  0  0  0
  -28.8420  -16.2200   20.2090 H   0  0  0  0  0  0  0  0  0  0  0  0
  -25.3660  -13.9910   20.4080 C   0  0  0  0  0  0  0  0  0  0  0  0
  -24.3260  -13.2110   20.8310 C   0  0  0  0  0  0  0  0  0  0  0  0
  -24.7840  -11.8610   20.7480 C   0  0  0  0  0  0  0  0  0  0  0  0
  -26.3890  -13.1170   20.0880 N   0  0  0  0  0  0  0  0  0  0  0  0
  -26.0540  -11.8280   20.3580 N   0  0  0  0  0  0  0  0  0  0  0  0
  -24.0650  -10.5970   20.9580 C   0  0  0  0  0  0  0  0  0  0  0  0
  -24.5180   -9.6360   21.8910 C   0  0  0  0  0  3  0  0  0  0  0  0
  -23.7990   -8.4370   22.0880 C   0  0  0  0  0  3  0  0  0  0  0  0
  -22.6130   -8.1910   21.3550 C   0  0  0  0  0  0  0  0  0  0  0  0
  -22.1810   -9.1410   20.4130 C   0  0  0  0  0  3  0  0  0  0  0  0
  -22.9000  -10.3300   20.2130 C   0  0  0  0  0  3  0  0  0  0  0  0
  -21.8610   -7.0460   21.4640 O   0  0  0  0  0  0  0  0  0  0  0  0
  -21.8010   -6.3340   22.6360 C   0  0  0  0  0  0  0  0  0  0  0  0
  -21.3060   -6.9050   23.8290 C   0  0  0  0  0  3  0  0  0  0  0  0
  -21.1940   -6.1170   24.9930 C   0  0  0  0  0  3  0  0  0  0  0  0
  -21.5690   -4.7610   24.9630 C   0  0  0  0  0  0  0  0  0  0  0  0
  -22.0570   -4.1890   23.7750 C   0  0  0  0  0  3  0  0  0  0  0  0
  -22.1700   -4.9740   22.6130 C   0  0  0  0  0  0  0  0  0  0  0  0
  -22.6210   -4.4140   21.4650 F   0  0  0  0  0  0  0  0  0  0  0  0
  -21.4560   -4.0010   26.0790 F   0  0  0  0  0  0  0  0  0  0  0  0
  -22.9480  -13.6860   21.1900 C   0  0  0  0  0  0  0  0  0  0  0  0
  -22.2650  -12.9750   22.0800 N   0  0  0  0  0  0  0  0  0  0  0  0
  -22.4890  -14.7250   20.7180 O   0  0  0  0  0  0  0  0  0  0  0  0
  -22.6550  -12.1360   22.4860 H   0  0  0  0  0  0  0  0  0  0  0  0
  -21.3440  -13.2780   22.3620 H   0  0  0  0  0  0  0  0  0  0  0  0
  -25.5200  -15.3640   20.2370 N   0  0  0  0  0  0  0  0  0  0  0  0
  -24.7480  -16.0080   20.3750 H   0  0  0  0  0  0  0  0  0  0  0  0
  -26.3150  -15.7920   19.7800 H   0  0  0  0  0  0  0  0  0  0  0  0
  -30.1740  -21.1400   17.5660 C   0  0  0  0  0  0  0  0  0  0  0  0
  -29.2190  -21.1300   16.7620 O   0  0  0  0  0  0  0  0  0  0  0  0
  -31.3030  -21.6270   17.3620 O   0  0  0  0  0  1  0  0  0  0  0  0
  -28.9230  -23.1450   19.6310 C   0  0  0  0  0  2  0  0  0  0  0  0
  -28.3760  -24.5890   20.4490 C   0  0  0  0  0  2  0  0  0  0  0  0
  -28.4640  -26.1530   20.0840 O   0  0  0  0  0  0  0  0  0  0  0  0
  -24.6760  -31.8340   23.1450 C   0  0  0  0  0  0  0  0  0  0  0  0
  -27.3800  -27.1400   20.0990 C   0  0  0  0  0  0  0  0  0  0  0  0
  -23.5310  -30.4520   21.4570 C   0  0  0  0  0  3  0  0  0  0  0  0
  -25.0310  -28.9040   20.0380 C   0  0  0  0  0  0  0  0  0  0  0  0
  -26.0880  -30.7360   21.3500 C   0  0  0  0  0  2  0  0  0  0  0  0
  -26.1960  -29.3460   20.6780 C   0  0  0  0  0  0  0  0  0  0  0  0
  -27.3700  -28.4860   20.6810 C   0  0  0  0  0  3  0  0  0  0  0  0
  -26.1820  -26.8140   19.4290 C   0  0  0  0  0  3  0  0  0  0  0  0
  -25.0420  -27.6540   19.3980 C   0  0  0  0  0  3  0  0  0  0  0  0
  -23.7920  -29.7930   20.0740 C   0  0  0  0  0  2  0  0  0  0  0  0
  -24.7840  -31.0330   22.0390 N   0  0  0  0  0  0  0  0  0  0  0  0
  -23.5740  -32.0930   23.6560 O   0  0  0  0  0  0  0  0  0  0  0  0
  -22.8450  -29.4220   22.3910 C   0  0  0  0  0  0  0  0  0  0  0  0
  -21.5130  -29.2670   22.2690 N   0  0  0  0  0  0  0  0  0  0  0  0
  -23.5140  -28.7660   23.1920 O   0  0  0  0  0  0  0  0  0  0  0  0
  -21.0260  -29.8460   21.6000 H   0  0  0  0  0  0  0  0  0  0  0  0
  -18.1220  -28.1080   22.8040 C   0  0  0  0  0  0  0  0  0  0  0  0
  -20.6930  -28.3060   23.0120 C   0  0  0  0  0  3  0  0  0  0  0  0
  -20.7480  -26.9040   22.3620 C   0  0  0  0  0  2  0  0  0  0  0  0
  -19.6120  -26.6580   21.3620 C   0  0  0  0  0  2  0  0  0  0  0  0
  -18.2510  -26.7960   22.0510 C   0  0  0  0  0  2  0  0  0  0  0  0
  -19.2690  -28.8260   23.2420 C   0  0  0  0  0  0  0  0  0  0  0  0
  -19.0890  -30.0560   23.9090 C   0  0  0  0  0  3  0  0  0  0  0  0
  -17.7990  -30.5690   24.1430 C   0  0  0  0  0  3  0  0  0  0  0  0
  -16.6690  -29.8480   23.7200 C   0  0  0  0  0  3  0  0  0  0  0  0
  -16.8310  -28.6210   23.0540 C   0  0  0  0  0  3  0  0  0  0  0  0
  -25.9280  -32.4840   23.8100 C   0  0  0  0  0  3  0  0  0  0  0  0
  -26.4020  -31.7240   25.1090 C   0  0  1  0  0  0  0  0  0  0  0  0
  -25.2740  -31.4880   26.1410 C   0  0  0  0  0  1  0  0  0  0  0  0
  -27.0050  -30.3460   24.7540 C   0  0  0  0  0  1  0  0  0  0  0  0
  -27.5250  -32.5280   25.8050 C   0  0  0  0  0  1  0  0  0  0  0  0
  -25.5940  -33.8820   24.1300 N   0  0  0  0  0  0  0  0  0  0  0  0
  -25.9400  -34.9430   23.3900 C   0  0  0  0  0  0  0  0  0  0  0  0
  -26.6360  -34.8480   22.3760 O   0  0  0  0  0  0  0  0  0  0  0  0
  -24.9800  -34.0280   24.9190 H   0  0  0  0  0  0  0  0  0  0  0  0
  -24.2200  -36.7390   22.9970 C   0  0  0  0  0  1  0  0  0  0  0  0
  -25.4360  -36.3270   23.8430 C   0  0  0  0  0  3  0  0  0  0  0  0
  -27.5330  -37.2220   24.7540 C   0  0  0  0  0  1  0  0  0  0  0  0
  -26.4670  -37.3850   23.7680 N   0  0  0  0  0  0  0  0  0  0  0  0
  -26.0520  -38.3020   23.8980 H   0  0  0  0  0  0  0  0  0  0  0  0
  1  5  1  0
  2  1  2  0
  2  6  1  0
  4  3  1  0
  5 15  1  0
  5  3  1  0
  6 48  1  0
  6  4  1  0
  7 15  1  0
  8 13  1  0
  9 10  1  0
  9  8  1  0
 11 10  1  0
 11 20  1  0
 11 12  1  0
 13  7  1  0
 13 12  1  0
 14  7  2  0
 15 16  1  0
 17 18  2  0
 18 37  1  0
 19 18  1  0
 19 22  1  0
 20 21  1  0
 20 17  1  0
 21 19  2  0
 22 23  1  0
 23 24  2  0
 25 28  1  0
 25 24  1  0
 26 25  2  0
 27 26  1  0
 27 22  2  0
 28 29  1  0
 29 30  1  0
 30 31  2  0
 32 31  1  0
 32 36  1  0
 33 32  2  0
 34 29  2  0
 34 33  1  0
 35 34  1  0
 37 38  1  0
 38 41  1  0
 38 40  1  0
 39 37  2  0
 42 43  1  0
 42 17  1  0
 44 42  1  0
 45  2  1  0
 46 45  2  0
 47 45  1  0
 48 49  1  0
 50 52  1  0
 50 49  1  0
 51 62  2  0
 52 57  1  0
 53 61  1  0
 53 63  1  0
 54 60  1  0
 54 56  1  0
 55 61  1  0
 56 57  2  0
 56 55  1  0
 58 52  2  0
 59 58  1  0
 59 54  2  0
 60 53  1  0
 61 51  1  0
 63 65  2  0
 64 63  1  0
 66 64  1  0
 67 76  2  0
 67 72  1  0
 68 64  1  0
 68 72  1  0
 69 68  1  0
 70 71  1  0
 70 69  1  0
 71 67  1  0
 72 73  2  0
 73 74  1  0
 75 74  2  0
 76 75  1  0
 77 51  1  0
 77 82  1  0
 77 78  1  0
 78 81  1  1
 78 79  1  0
 80 78  1  0
 82 85  1  0
 83 87  1  0
 83 82  1  0
 84 83  2  0
 87 86  1  0
 89 87  1  0
 89 90  1  0
 89 88  1  0
M  ISO  4   7 100  15 100  49 101  50 101
M  END
>  <TORSDO>  (68) 
F 19

>  <SCORE>  (68) 
-14.642

>  <name>  (68) 
68

>  <ligand_id>  (68) 
68

>  <original_smiles>  (68) 
[H]C1=C(C(=O)[O-])C([H])(C([H])([H])C([H])([H])Oc2c([H])c([H])c3c(c2[H])C([H])([H])N(C(=O)C([H])(N([H])C(=O)C([H])(N([H])C([H])([H])[H])C([H])([H])[H])C(C([H])([H])[H])(C([H])([H])[H])C([H])([H])[H])C([H])(C(=O)N([H])C2([H])c4c([H])c([H])c([H])c([H])c4C([H])([H])C([H])([H])C2([H])[H])C3([H])[H])C([H])([H])C([H])([H])C1([H])N([H])C(=O)N1C([H])([H])C([H])([H])C([H])([H])C([H])(n2nc(-c3c([H])c([H])c(Oc4c([H])c([H])c(F)c([H])c4F)c([H])c3[H])c(C(=O)N([H])[H])c2N([H])[H])C1([H])[H]

>  <smiles>  (68) 
[H]C1=C(C(=O)[O-])C([H])(C([H])([H])C([H])([H])Oc2c([H])c([H])c3c(c2[H])C([H])([H])N(C(=O)C([H])(N([H])C(=O)C([H])(N([H])C([H])([H])[H])C([H])([H])[H])C(C([H])([H])[H])(C([H])([H])[H])C([H])([H])[H])C([H])(C(=O)N([H])C2([H])c4c([H])c([H])c([H])c([H])c4C([H])([H])C([H])([H])C2([H])[H])C3([H])[H])C([H])([H])C([H])([H])C1([H])N([H])C(=O)N1C([H])([H])C([H])([H])C([H])([H])C([H])(n2nc(-c3c([H])c([H])c(Oc4c([H])c([H])c(F)c([H])c4F)c([H])c3[H])c(C(=O)N([H])[H])c2N([H])[H])C1([H])[H]

$$$$
69:0:0
     RDKit          3D

 87 96  0  0  1  0  0  0  0  0999 V2000
  -29.7100  -17.6980   20.4140 C   0  0  0  0  0  0  0  0  0  0  0  0
  -30.9760  -18.5060   20.1340 C   0  0  0  0  0  3  0  0  0  0  0  0
  -28.6540  -18.9590   20.5650 C   0  0  0  0  0  2  0  0  0  0  0  0
  -30.6590  -20.0610   19.9240 C   0  0  0  0  0  3  0  0  0  0  0  0
  -28.4790  -21.6350   19.3830 C   0  0  0  0  0  2  0  0  0  0  0  0
  -28.9680  -21.7980   21.2950 C   0  0  0  0  0  2  0  0  0  0  0  0
  -28.8380  -22.9870   20.1990 C   0  0  0  0  0  3  0  0  0  0  0  0
  -29.2120  -20.5160   20.3090 C   0  0  1  0  0  0  0  0  0  0  0  0
  -29.5150  -16.3320   20.5320 N   0  0  0  0  0  0  0  0  0  0  0  0
  -30.4260  -15.1450   20.3480 C   0  0  0  0  0  0  0  0  0  0  0  0
  -30.4260  -12.7390   19.4520 C   0  0  0  0  0  2  0  0  0  0  0  0
  -29.5170  -12.6360   18.2010 C   0  0  0  0  0  2  0  0  0  0  0  0
  -28.0520  -12.3870   18.6050 C   0  0  0  0  0  2  0  0  0  0  0  0
  -27.5990  -13.3180   19.7580 C   0  0  0  0  0  3  0  0  0  0  0  0
  -28.6290  -13.3780   20.9010 C   0  0  0  0  0  2  0  0  0  0  0  0
  -29.9020  -13.8390   20.3260 N   0  0  0  0  0  0  0  0  0  0  0  0
  -31.6300  -15.2100   20.0780 O   0  0  0  0  0  0  0  0  0  0  0  0
  -25.2000  -13.8630   20.4500 C   0  0  0  0  0  0  0  0  0  0  0  0
  -24.1390  -13.0770   20.8090 C   0  0  0  0  0  0  0  0  0  0  0  0
  -24.6250  -11.7330   20.8080 C   0  0  0  0  0  0  0  0  0  0  0  0
  -26.2600  -12.9980   20.2390 N   0  0  0  0  0  0  0  0  0  0  0  0
  -25.9220  -11.7120   20.5220 N   0  0  0  0  0  0  0  0  0  0  0  0
  -23.9120  -10.4640   21.0030 C   0  0  0  0  0  0  0  0  0  0  0  0
  -24.3420   -9.5110   21.9540 C   0  0  0  0  0  3  0  0  0  0  0  0
  -23.6270   -8.3080   22.1360 C   0  0  0  0  0  3  0  0  0  0  0  0
  -22.4670   -8.0480   21.3680 C   0  0  0  0  0  0  0  0  0  0  0  0
  -22.0560   -8.9890   20.4080 C   0  0  0  0  0  3  0  0  0  0  0  0
  -22.7720  -10.1840   20.2230 C   0  0  0  0  0  3  0  0  0  0  0  0
  -21.7230   -6.8960   21.4590 O   0  0  0  0  0  0  0  0  0  0  0  0
  -21.6710   -6.1620   22.6170 C   0  0  0  0  0  0  0  0  0  0  0  0
  -21.2260   -6.7230   23.8350 C   0  0  0  0  0  3  0  0  0  0  0  0
  -21.1210   -5.9150   24.9850 C   0  0  0  0  0  3  0  0  0  0  0  0
  -21.4510   -4.5490   24.9190 C   0  0  0  0  0  0  0  0  0  0  0  0
  -21.8890   -3.9890   23.7060 C   0  0  0  0  0  3  0  0  0  0  0  0
  -21.9960   -4.7920   22.5580 C   0  0  0  0  0  0  0  0  0  0  0  0
  -22.3980   -4.2420   21.3870 F   0  0  0  0  0  0  0  0  0  0  0  0
  -21.3440   -3.7710   26.0210 F   0  0  0  0  0  0  0  0  0  0  0  0
  -22.7320  -13.5390   21.0420 C   0  0  0  0  0  0  0  0  0  0  0  0
  -21.9960  -12.8520   21.9100 N   0  0  0  0  0  0  0  0  0  0  0  0
  -22.2880  -14.5450   20.4900 O   0  0  0  0  0  0  0  0  0  0  0  0
  -22.3650  -12.0380   22.3810 H   0  0  0  0  0  0  0  0  0  0  0  0
  -21.0520  -13.1460   22.1100 H   0  0  0  0  0  0  0  0  0  0  0  0
  -25.3490  -15.2350   20.2610 N   0  0  0  0  0  0  0  0  0  0  0  0
  -24.5820  -15.8890   20.3680 H   0  0  0  0  0  0  0  0  0  0  0  0
  -26.2210  -15.6790   20.0000 H   0  0  0  0  0  0  0  0  0  0  0  0
  -27.8830  -24.4560   20.2100 C   0  0  0  0  0  2  0  0  0  0  0  0
  -28.1960  -26.0290   20.3000 O   0  0  0  0  0  0  0  0  0  0  0  0
  -24.6420  -31.9060   23.2480 C   0  0  0  0  0  0  0  0  0  0  0  0
  -27.1710  -27.0810   20.2410 C   0  0  0  0  0  0  0  0  0  0  0  0
  -23.4330  -30.5130   21.6180 C   0  0  0  0  0  3  0  0  0  0  0  0
  -24.8690  -28.9110   20.1980 C   0  0  0  0  0  0  0  0  0  0  0  0
  -25.9970  -30.7340   21.4560 C   0  0  0  0  0  2  0  0  0  0  0  0
  -26.0590  -29.3300   20.8070 C   0  0  0  0  0  0  0  0  0  0  0  0
  -27.2090  -28.4350   20.8050 C   0  0  0  0  0  3  0  0  0  0  0  0
  -25.9510  -26.7910   19.5900 C   0  0  0  0  0  3  0  0  0  0  0  0
  -24.8350  -27.6580   19.5700 C   0  0  0  0  0  3  0  0  0  0  0  0
  -23.6520  -29.8270   20.2430 C   0  0  0  0  0  2  0  0  0  0  0  0
  -24.7120  -31.0760   22.1610 N   0  0  0  0  0  0  0  0  0  0  0  0
  -23.5580  -32.2030   23.7740 O   0  0  0  0  0  0  0  0  0  0  0  0
  -22.7440  -29.5170   22.5880 C   0  0  0  0  0  0  0  0  0  0  0  0
  -21.4140  -29.3540   22.4640 N   0  0  0  0  0  0  0  0  0  0  0  0
  -23.4110  -28.8930   23.4170 O   0  0  0  0  0  0  0  0  0  0  0  0
  -20.9310  -29.9090   21.7710 H   0  0  0  0  0  0  0  0  0  0  0  0
  -18.0290  -28.1580   22.9690 C   0  0  0  0  0  0  0  0  0  0  0  0
  -20.5880  -28.4260   23.2420 C   0  0  0  0  0  3  0  0  0  0  0  0
  -20.6910  -26.9870   22.6830 C   0  0  0  0  0  2  0  0  0  0  0  0
  -19.5930  -26.6540   21.6680 C   0  0  0  0  0  2  0  0  0  0  0  0
  -18.2090  -26.8040   22.3050 C   0  0  0  0  0  2  0  0  0  0  0  0
  -19.1460  -28.9270   23.3940 C   0  0  0  0  0  0  0  0  0  0  0  0
  -18.9220  -30.1920   23.9780 C   0  0  0  0  0  3  0  0  0  0  0  0
  -17.6140  -30.6910   24.1380 C   0  0  0  0  0  3  0  0  0  0  0  0
  -16.5130  -29.9200   23.7270 C   0  0  0  0  0  3  0  0  0  0  0  0
  -16.7210  -28.6560   23.1480 C   0  0  0  0  0  3  0  0  0  0  0  0
  -25.9220  -32.5420   23.8720 C   0  0  0  0  0  3  0  0  0  0  0  0
  -25.6130  -33.9410   24.2060 N   0  0  0  0  0  0  0  0  0  0  0  0
  -25.9300  -34.9990   23.4460 C   0  0  0  0  0  0  0  0  0  0  0  0
  -26.5770  -34.8980   22.4010 O   0  0  0  0  0  0  0  0  0  0  0  0
  -25.0360  -34.0930   25.0200 H   0  0  0  0  0  0  0  0  0  0  0  0
  -24.1850  -36.7900   23.1540 C   0  0  0  0  0  1  0  0  0  0  0  0
  -25.4560  -36.3880   23.9200 C   0  0  0  0  0  3  0  0  0  0  0  0
  -27.6170  -37.2830   24.6720 C   0  0  0  0  0  1  0  0  0  0  0  0
  -26.4800  -37.4450   23.7680 N   0  0  0  0  0  0  0  0  0  0  0  0
  -26.0770  -38.3640   23.9270 H   0  0  0  0  0  0  0  0  0  0  0  0
  -26.4310  -31.7730   25.1540 C   0  0  1  0  0  0  0  0  0  0  0  0
  -25.3360  -31.5490   26.2220 C   0  0  0  0  0  1  0  0  0  0  0  0
  -27.0060  -30.3890   24.7770 C   0  0  0  0  0  1  0  0  0  0  0  0
  -27.5860  -32.5640   25.8130 C   0  0  0  0  0  1  0  0  0  0  0  0
  1  9  2  0
  1  3  1  0
  2  1  1  0
  4  2  2  0
  4  8  1  0
  5  7  1  0
  7 46  1  0
  7  6  1  0
  8  5  1  6
  8  3  1  0
  8  6  1  0
 10  9  1  0
 11 16  1  0
 12 13  1  0
 12 11  1  0
 14 13  1  0
 14 21  1  0
 14 15  1  0
 16 10  1  0
 16 15  1  0
 17 10  2  0
 18 19  2  0
 19 38  1  0
 20 19  1  0
 20 23  1  0
 21 18  1  0
 21 22  1  0
 22 20  2  0
 23 24  1  0
 24 25  2  0
 26 29  1  0
 26 25  1  0
 27 26  2  0
 28 27  1  0
 28 23  2  0
 29 30  1  0
 30 31  1  0
 31 32  2  0
 33 32  1  0
 33 37  1  0
 34 33  2  0
 35 30  2  0
 35 34  1  0
 36 35  1  0
 38 39  1  0
 39 42  1  0
 39 41  1  0
 40 38  2  0
 43 44  1  0
 43 18  1  0
 45 43  1  0
 46 47  1  0
 48 59  2  0
 49 47  1  0
 49 54  1  0
 50 58  1  0
 50 60  1  0
 51 57  1  0
 51 53  1  0
 52 58  1  0
 53 52  1  0
 54 53  2  0
 55 49  2  0
 56 55  1  0
 56 51  2  0
 57 50  1  0
 58 48  1  0
 60 62  2  0
 61 60  1  0
 63 61  1  0
 64 73  2  0
 64 69  1  0
 65 61  1  0
 65 69  1  0
 66 65  1  0
 67 68  1  0
 67 66  1  0
 68 64  1  0
 69 70  2  0
 70 71  1  0
 72 71  2  0
 73 72  1  0
 74 48  1  0
 74 75  1  0
 74 84  1  0
 75 78  1  0
 76 80  1  0
 76 75  1  0
 77 76  2  0
 80 79  1  0
 82 80  1  0
 82 83  1  0
 82 81  1  0
 84 87  1  1
 84 85  1  0
 86 84  1  0
M  ISO  4   9 100  10 100  46 101  47 101
M  END
>  <TORSDO>  (69) 
F 17

>  <SCORE>  (69) 
-15.633

>  <name>  (69) 
69

>  <ligand_id>  (69) 
69

>  <original_smiles>  (69) 
[H]c1c([H])c([H])c2c(c1[H])C([H])([H])C([H])([H])C([H])([H])C2([H])N([H])C(=O)C1([H])N(C(=O)C([H])(N([H])C(=O)C([H])(N([H])C([H])([H])[H])C([H])([H])[H])C(C([H])([H])[H])(C([H])([H])[H])C([H])([H])[H])C([H])([H])c2c([H])c(OC([H])([H])C3([H])C([H])([H])C4(C([H])([H])C(=NC(=O)N5C([H])([H])C([H])([H])C([H])([H])C([H])(n6nc(-c7c([H])c([H])c(Oc8c([H])c([H])c(F)c([H])c8F)c([H])c7[H])c(C(=O)N([H])[H])c6N([H])[H])C5([H])[H])C([H])([H])C4([H])[H])C3([H])[H])c([H])c([H])c2C1([H])[H]

>  <smiles>  (69) 
[H]c1c([H])c([H])c2c(c1[H])C([H])([H])C([H])([H])C([H])([H])C2([H])N([H])C(=O)C1([H])N(C(=O)C([H])(N([H])C(=O)C([H])(N([H])C([H])([H])[H])C([H])([H])[H])C(C([H])([H])[H])(C([H])([H])[H])C([H])([H])[H])C([H])([H])c2c([H])c(OC([H])([H])C3([H])C([H])([H])C4(C([H])([H])C(=NC(=O)N5C([H])([H])C([H])([H])C([H])([H])C([H])(n6nc(-c7c([H])c([H])c(Oc8c([H])c([H])c(F)c([H])c8F)c([H])c7[H])c(C(=O)N([H])[H])c6N([H])[H])C5([H])[H])C([H])([H])C4([H])[H])C3([H])[H])c([H])c([H])c2C1([H])[H]

$$$$
70:0:0
     RDKit          3D

 90 99  0  0  1  0  0  0  0  0999 V2000
  -30.2150  -20.7210   20.4420 C   0  0  0  0  0  2  0  0  0  0  0  0
  -28.0040  -20.4470   19.6490 C   0  0  0  0  0  2  0  0  0  0  0  0
  -30.0010  -23.4360   20.0530 C   0  0  0  0  0  2  0  0  0  0  0  0
  -27.7680  -23.1320   19.2560 C   0  0  0  0  0  2  0  0  0  0  0  0
  -29.9340  -21.9610   19.5360 C   0  0  0  0  0  3  0  0  0  0  0  0
  -28.5000  -21.7740   19.0180 C   0  0  0  0  0  3  0  0  0  0  0  0
  -29.2980  -19.6130   19.8500 C   0  0  0  0  0  3  0  0  0  0  0  0
  -28.9350  -24.1430   19.1750 C   0  0  0  0  0  3  0  0  0  0  0  0
  -29.1360  -18.2160   20.5840 C   0  0  0  0  0  3  0  0  0  0  0  0
  -30.2470  -17.1200   20.3370 C   0  0  0  0  0  3  0  0  0  0  0  0
  -30.6260  -14.6020   20.3450 C   0  0  0  0  0  0  0  0  0  0  0  0
  -30.3480  -12.3940   19.2660 C   0  0  0  0  0  2  0  0  0  0  0  0
  -29.4000  -12.5650   18.0590 C   0  0  0  0  0  2  0  0  0  0  0  0
  -27.9300  -12.4230   18.5000 C   0  0  0  0  0  2  0  0  0  0  0  0
  -27.5940  -13.2740   19.7540 C   0  0  0  0  0  3  0  0  0  0  0  0
  -28.6600  -13.0970   20.8590 C   0  0  0  0  0  2  0  0  0  0  0  0
  -29.9690  -13.4070   20.2690 N   0  0  0  0  0  0  0  0  0  0  0  0
  -31.7870  -14.7310   19.9520 O   0  0  0  0  0  0  0  0  0  0  0  0
  -29.8740  -15.7020   20.6400 N   0  0  0  0  0  0  0  0  0  0  0  0
  -28.9250  -15.5260   20.9350 H   0  0  0  0  0  0  0  0  0  0  0  0
  -25.2060  -13.8810   20.4830 C   0  0  0  0  0  0  0  0  0  0  0  0
  -24.1380  -13.1120   20.8610 C   0  0  0  0  0  0  0  0  0  0  0  0
  -24.5970  -11.7590   20.8310 C   0  0  0  0  0  0  0  0  0  0  0  0
  -26.2470  -12.9980   20.2460 N   0  0  0  0  0  0  0  0  0  0  0  0
  -25.8860  -11.7170   20.5150 N   0  0  0  0  0  0  0  0  0  0  0  0
  -23.8690  -10.4990   21.0260 C   0  0  0  0  0  0  0  0  0  0  0  0
  -24.3080   -9.5280   21.9540 C   0  0  0  0  0  3  0  0  0  0  0  0
  -23.5800   -8.3330   22.1380 C   0  0  0  0  0  3  0  0  0  0  0  0
  -22.3990   -8.0980   21.3940 C   0  0  0  0  0  0  0  0  0  0  0  0
  -21.9800   -9.0580   20.4550 C   0  0  0  0  0  3  0  0  0  0  0  0
  -22.7080  -10.2450   20.2700 C   0  0  0  0  0  3  0  0  0  0  0  0
  -21.6430   -6.9560   21.4870 O   0  0  0  0  0  0  0  0  0  0  0  0
  -21.6080   -6.2060   22.6360 C   0  0  0  0  0  0  0  0  0  0  0  0
  -21.2050   -6.7570   23.8720 C   0  0  0  0  0  3  0  0  0  0  0  0
  -21.1180   -5.9350   25.0130 C   0  0  0  0  0  3  0  0  0  0  0  0
  -21.4240   -4.5650   24.9200 C   0  0  0  0  0  0  0  0  0  0  0  0
  -21.8200   -4.0130   23.6890 C   0  0  0  0  0  3  0  0  0  0  0  0
  -21.9090   -4.8320   22.5490 C   0  0  0  0  0  0  0  0  0  0  0  0
  -22.2710   -4.2920   21.3600 F   0  0  0  0  0  0  0  0  0  0  0  0
  -21.3320   -3.7720   26.0140 F   0  0  0  0  0  0  0  0  0  0  0  0
  -22.7430  -13.5920   21.1390 C   0  0  0  0  0  0  0  0  0  0  0  0
  -22.0170  -12.8980   22.0080 N   0  0  0  0  0  0  0  0  0  0  0  0
  -22.3060  -14.6180   20.6200 O   0  0  0  0  0  0  0  0  0  0  0  0
  -22.3830  -12.0680   22.4490 H   0  0  0  0  0  0  0  0  0  0  0  0
  -21.0810  -13.2040   22.2370 H   0  0  0  0  0  0  0  0  0  0  0  0
  -25.3720  -15.2510   20.3010 N   0  0  0  0  0  0  0  0  0  0  0  0
  -24.6060  -15.9060   20.4120 H   0  0  0  0  0  0  0  0  0  0  0  0
  -26.2140  -15.6850   19.9450 H   0  0  0  0  0  0  0  0  0  0  0  0
  -28.7300  -25.7180   19.1080 C   0  0  0  0  0  2  0  0  0  0  0  0
  -28.3820  -26.5780   20.2270 O   0  0  0  0  0  0  0  0  0  0  0  0
  -24.5940  -31.8820   23.2350 C   0  0  0  0  0  0  0  0  0  0  0  0
  -27.2400  -27.3770   20.1620 C   0  0  0  0  0  0  0  0  0  0  0  0
  -23.3960  -30.4800   21.5900 C   0  0  0  0  0  3  0  0  0  0  0  0
  -24.8530  -28.9370   20.1650 C   0  0  0  0  0  0  0  0  0  0  0  0
  -25.9290  -30.8170   21.4090 C   0  0  0  0  0  2  0  0  0  0  0  0
  -26.0140  -29.4410   20.7660 C   0  0  0  0  0  0  0  0  0  0  0  0
  -27.2040  -28.6650   20.7680 C   0  0  0  0  0  3  0  0  0  0  0  0
  -26.0530  -26.9020   19.5620 C   0  0  0  0  0  3  0  0  0  0  0  0
  -24.8710  -27.6680   19.5610 C   0  0  0  0  0  3  0  0  0  0  0  0
  -23.6120  -29.8030   20.2100 C   0  0  0  0  0  2  0  0  0  0  0  0
  -24.6580  -31.0760   22.1360 N   0  0  0  0  0  0  0  0  0  0  0  0
  -23.5090  -32.1560   23.7700 O   0  0  0  0  0  0  0  0  0  0  0  0
  -22.7370  -29.4610   22.5490 C   0  0  0  0  0  0  0  0  0  0  0  0
  -21.4110  -29.2830   22.4210 N   0  0  0  0  0  0  0  0  0  0  0  0
  -23.4160  -28.8330   23.3660 O   0  0  0  0  0  0  0  0  0  0  0  0
  -20.9230  -29.8410   21.7340 H   0  0  0  0  0  0  0  0  0  0  0  0
  -18.0320  -28.0960   22.9180 C   0  0  0  0  0  0  0  0  0  0  0  0
  -20.5920  -28.3460   23.1890 C   0  0  0  0  0  3  0  0  0  0  0  0
  -20.6890  -26.9160   22.6080 C   0  0  0  0  0  2  0  0  0  0  0  0
  -19.5860  -26.6010   21.5920 C   0  0  0  0  0  2  0  0  0  0  0  0
  -18.2040  -26.7490   22.2380 C   0  0  0  0  0  2  0  0  0  0  0  0
  -19.1530  -28.8530   23.3500 C   0  0  0  0  0  0  0  0  0  0  0  0
  -18.9390  -30.1150   23.9450 C   0  0  0  0  0  3  0  0  0  0  0  0
  -17.6360  -30.6210   24.1120 C   0  0  0  0  0  3  0  0  0  0  0  0
  -16.5290  -29.8610   23.6970 C   0  0  0  0  0  3  0  0  0  0  0  0
  -16.7280  -28.6010   23.1050 C   0  0  0  0  0  3  0  0  0  0  0  0
  -25.8750  -32.5150   23.8600 C   0  0  0  0  0  3  0  0  0  0  0  0
  -26.3880  -31.7460   25.1400 C   0  0  1  0  0  0  0  0  0  0  0  0
  -25.2920  -31.5110   26.2050 C   0  0  0  0  0  1  0  0  0  0  0  0
  -26.9720  -30.3670   24.7520 C   0  0  0  0  0  1  0  0  0  0  0  0
  -27.5370  -32.5410   25.8040 C   0  0  0  0  0  1  0  0  0  0  0  0
  -25.5650  -33.9140   24.1860 N   0  0  0  0  0  0  0  0  0  0  0  0
  -25.9040  -34.9650   23.4270 C   0  0  0  0  0  0  0  0  0  0  0  0
  -26.5810  -34.8590   22.4010 O   0  0  0  0  0  0  0  0  0  0  0  0
  -24.9660  -34.0700   24.9820 H   0  0  0  0  0  0  0  0  0  0  0  0
  -24.1840  -36.7610   23.0550 C   0  0  0  0  0  1  0  0  0  0  0  0
  -25.4150  -36.3550   23.8790 C   0  0  0  0  0  3  0  0  0  0  0  0
  -27.5430  -37.2360   24.7310 C   0  0  0  0  0  1  0  0  0  0  0  0
  -26.4510  -37.4050   23.7760 N   0  0  0  0  0  0  0  0  0  0  0  0
  -26.0460  -38.3270   23.9190 H   0  0  0  0  0  0  0  0  0  0  0  0
  2  7  1  0
  5  3  1  0
  5  1  1  0
  6  4  1  0
  6  5  1  0
  6  2  1  0
  7  1  1  0
  7  9  1  0
  8 49  1  0
  8  4  1  0
  8  3  1  0
 10  9  2  0
 10 19  1  0
 11 19  1  0
 12 17  1  0
 13 14  1  0
 13 12  1  0
 15 14  1  0
 15 24  1  0
 15 16  1  0
 17 11  1  0
 17 16  1  0
 18 11  2  0
 19 20  1  0
 21 22  2  0
 22 41  1  0
 23 22  1  0
 23 26  1  0
 24 21  1  0
 24 25  1  0
 25 23  2  0
 26 27  1  0
 27 28  2  0
 29 32  1  0
 29 28  1  0
 30 29  2  0
 31 30  1  0
 31 26  2  0
 32 33  1  0
 33 34  1  0
 34 35  2  0
 36 35  1  0
 36 40  1  0
 37 36  2  0
 38 33  2  0
 38 37  1  0
 39 38  1  0
 41 42  1  0
 42 45  1  0
 42 44  1  0
 43 41  2  0
 46 47  1  0
 46 21  1  0
 48 46  1  0
 49 50  1  0
 51 62  2  0
 52 50  1  0
 52 57  1  0
 53 61  1  0
 53 63  1  0
 54 60  1  0
 54 56  1  0
 55 61  1  0
 56 57  2  0
 56 55  1  0
 58 52  2  0
 59 58  1  0
 59 54  2  0
 60 53  1  0
 61 51  1  0
 63 65  2  0
 64 63  1  0
 66 64  1  0
 67 76  2  0
 67 72  1  0
 68 64  1  0
 68 72  1  0
 69 68  1  0
 70 71  1  0
 70 69  1  0
 71 67  1  0
 72 73  2  0
 73 74  1  0
 75 74  2  0
 76 75  1  0
 77 51  1  0
 77 82  1  0
 77 78  1  0
 78 81  1  1
 78 79  1  0
 80 78  1  0
 82 85  1  0
 83 87  1  0
 83 82  1  0
 84 83  2  0
 87 86  1  0
 89 87  1  0
 89 90  1  0
 89 88  1  0
M  ISO  4  11 100  19 100  49 101  50 101
M  END
>  <TORSDO>  (70) 
F 19

>  <SCORE>  (70) 
-14.179

>  <name>  (70) 
70

>  <ligand_id>  (70) 
70

>  <original_smiles>  (70) 
[H]c1c([H])c([H])c2c(c1[H])C([H])([H])C([H])([H])C([H])([H])C2([H])N([H])C(=O)C1([H])N(C(=O)C([H])(N([H])C(=O)C([H])(N([H])C([H])([H])[H])C([H])([H])[H])C(C([H])([H])[H])(C([H])([H])[H])C([H])([H])[H])C([H])([H])c2c([H])c(OC([H])([H])C3([H])C([H])([H])C4([H])C([H])([H])C([H])(C([H])([H])C([H])([H])N([H])C(=O)N5C([H])([H])C([H])([H])C([H])([H])C([H])(n6nc(-c7c([H])c([H])c(Oc8c([H])c([H])c(F)c([H])c8F)c([H])c7[H])c(C(=O)N([H])[H])c6N([H])[H])C5([H])[H])C([H])([H])C4([H])C3([H])[H])c([H])c([H])c2C1([H])[H]

>  <smiles>  (70) 
[H]c1c([H])c([H])c2c(c1[H])C([H])([H])C([H])([H])C([H])([H])C2([H])N([H])C(=O)C1([H])N(C(=O)C([H])(N([H])C(=O)C([H])(N([H])C([H])([H])[H])C([H])([H])[H])C(C([H])([H])[H])(C([H])([H])[H])C([H])([H])[H])C([H])([H])c2c([H])c(OC([H])([H])C3([H])C([H])([H])C4([H])C([H])([H])C([H])(C([H])([H])C([H])([H])N([H])C(=O)N5C([H])([H])C([H])([H])C([H])([H])C([H])(n6nc(-c7c([H])c([H])c(Oc8c([H])c([H])c(F)c([H])c8F)c([H])c7[H])c(C(=O)N([H])[H])c6N([H])[H])C5([H])[H])C([H])([H])C4([H])C3([H])[H])c([H])c([H])c2C1([H])[H]

$$$$
71:0:0
     RDKit          3D

 94103  0  0  1  0  0  0  0  0999 V2000
  -28.5560  -20.5690   21.2290 C   0  0  0  0  0  3  0  0  0  0  0  0
  -28.6580  -21.7550   21.9840 C   0  0  0  0  0  3  0  0  0  0  0  0
  -27.0410  -21.6520   19.6250 C   0  0  0  0  0  3  0  0  0  0  0  0
  -27.8030  -20.5310   20.0240 C   0  0  0  0  0  0  0  0  0  0  0  0
  -27.9870  -22.8880   21.5030 C   0  0  0  0  0  0  0  0  0  0  0  0
  -27.1680  -22.8240   20.3840 C   0  0  0  0  0  0  0  0  0  0  0  0
  -28.1590  -24.3030   21.9740 C   0  0  0  0  0  2  0  0  0  0  0  0
  -26.6470  -24.1750   20.0190 C   0  0  0  0  0  2  0  0  0  0  0  0
  -27.5870  -25.1350   20.7950 C   0  0  0  0  0  3  0  0  0  0  0  0
  -27.8690  -19.3550   19.1320 C   0  0  0  0  0  0  0  0  0  0  0  0
  -26.9360  -18.9490   18.4340 O   0  0  0  0  0  0  0  0  0  0  0  0
  -29.2370  -18.6840   19.0500 C   0  0  0  0  0  2  0  0  0  0  0  0
  -29.2650  -17.3810   19.8510 C   0  0  0  0  0  2  0  0  0  0  0  0
  -30.6380  -17.0420   20.4510 C   0  0  0  0  0  2  0  0  0  0  0  0
  -31.3290  -14.6680   20.3890 C   0  0  0  0  0  0  0  0  0  0  0  0
  -30.9900  -12.5260   19.2410 C   0  0  0  0  0  2  0  0  0  0  0  0
  -30.0790  -12.7790   18.0210 C   0  0  0  0  0  2  0  0  0  0  0  0
  -28.5900  -12.7040   18.4150 C   0  0  0  0  0  2  0  0  0  0  0  0
  -28.2670  -13.5650   19.6630 C   0  0  0  0  0  3  0  0  0  0  0  0
  -29.2800  -13.2720   20.7960 C   0  0  0  0  0  2  0  0  0  0  0  0
  -30.6400  -13.5090   20.2710 N   0  0  0  0  0  0  0  0  0  0  0  0
  -32.4480  -14.8630   19.8990 O   0  0  0  0  0  0  0  0  0  0  0  0
  -30.5980  -15.6590   20.9030 N   0  0  0  0  0  0  0  0  0  0  0  0
  -29.7340  -15.3620   21.3360 H   0  0  0  0  0  0  0  0  0  0  0  0
  -25.8920  -14.3190   20.3340 C   0  0  0  0  0  0  0  0  0  0  0  0
  -24.7760  -13.6050   20.6790 C   0  0  0  0  0  0  0  0  0  0  0  0
  -25.1610  -12.2310   20.6400 C   0  0  0  0  0  0  0  0  0  0  0  0
  -26.8900  -13.3800   20.1120 N   0  0  0  0  0  0  0  0  0  0  0  0
  -26.4510  -12.1200   20.3510 N   0  0  0  0  0  0  0  0  0  0  0  0
  -24.3650  -11.0090   20.8030 C   0  0  0  0  0  0  0  0  0  0  0  0
  -24.7170  -10.0230   21.7520 C   0  0  0  0  0  3  0  0  0  0  0  0
  -23.9300   -8.8620   21.9020 C   0  0  0  0  0  3  0  0  0  0  0  0
  -22.7760   -8.6790   21.1030 C   0  0  0  0  0  0  0  0  0  0  0  0
  -22.4430   -9.6520   20.1430 C   0  0  0  0  0  3  0  0  0  0  0  0
  -23.2320  -10.8040   19.9910 C   0  0  0  0  0  3  0  0  0  0  0  0
  -21.9640   -7.5730   21.1620 O   0  0  0  0  0  0  0  0  0  0  0  0
  -21.8050   -6.8590   22.3230 C   0  0  0  0  0  0  0  0  0  0  0  0
  -21.3120   -7.4540   23.5050 C   0  0  0  0  0  3  0  0  0  0  0  0
  -21.0990   -6.6660   24.6530 C   0  0  0  0  0  3  0  0  0  0  0  0
  -21.3710   -5.2860   24.6200 C   0  0  0  0  0  0  0  0  0  0  0  0
  -21.8600   -4.6910   23.4440 C   0  0  0  0  0  3  0  0  0  0  0  0
  -22.0740   -5.4760   22.2970 C   0  0  0  0  0  0  0  0  0  0  0  0
  -22.5240   -4.8930   21.1600 F   0  0  0  0  0  0  0  0  0  0  0  0
  -21.1600   -4.5270   25.7210 F   0  0  0  0  0  0  0  0  0  0  0  0
  -23.4010  -14.1550   20.9360 C   0  0  0  0  0  0  0  0  0  0  0  0
  -22.6260  -13.4920   21.7880 N   0  0  0  0  0  0  0  0  0  0  0  0
  -23.0250  -15.2050   20.4170 O   0  0  0  0  0  0  0  0  0  0  0  0
  -22.9400  -12.6410   22.2300 H   0  0  0  0  0  0  0  0  0  0  0  0
  -21.7010  -13.8410   22.0010 H   0  0  0  0  0  0  0  0  0  0  0  0
  -26.1370  -15.6790   20.1760 N   0  0  0  0  0  0  0  0  0  0  0  0
  -25.4060  -16.3770   20.2670 H   0  0  0  0  0  0  0  0  0  0  0  0
  -27.0080  -16.0650   19.8380 H   0  0  0  0  0  0  0  0  0  0  0  0
  -28.7150  -25.6560   19.8400 C   0  0  0  0  0  2  0  0  0  0  0  0
  -28.7680  -27.0760   19.7230 O   0  0  0  0  0  0  0  0  0  0  0  0
  -24.6130  -31.7140   23.0470 C   0  0  0  0  0  0  0  0  0  0  0  0
  -27.5630  -27.7310   19.6680 C   0  0  0  0  0  0  0  0  0  0  0  0
  -23.5080  -30.3590   21.2950 C   0  0  0  0  0  3  0  0  0  0  0  0
  -25.0700  -29.0370   19.7730 C   0  0  0  0  0  0  0  0  0  0  0  0
  -26.0000  -30.9040   21.1480 C   0  0  0  0  0  2  0  0  0  0  0  0
  -26.1810  -29.5960   20.4130 C   0  0  0  0  0  0  0  0  0  0  0  0
  -27.4290  -28.9450   20.3680 C   0  0  0  0  0  3  0  0  0  0  0  0
  -26.4450  -27.2020   18.9810 C   0  0  0  0  0  3  0  0  0  0  0  0
  -25.1920  -27.8340   19.0590 C   0  0  0  0  0  3  0  0  0  0  0  0
  -23.7700  -29.7970   19.8710 C   0  0  0  0  0  2  0  0  0  0  0  0
  -24.7230  -31.0000   21.8910 N   0  0  0  0  0  0  0  0  0  0  0  0
  -23.5140  -31.8800   23.5930 O   0  0  0  0  0  0  0  0  0  0  0  0
  -22.9200  -29.2300   22.1720 C   0  0  0  0  0  0  0  0  0  0  0  0
  -21.6010  -29.0040   22.0570 N   0  0  0  0  0  0  0  0  0  0  0  0
  -23.6460  -28.5640   22.9140 O   0  0  0  0  0  0  0  0  0  0  0  0
  -21.0710  -29.5990   21.4350 H   0  0  0  0  0  0  0  0  0  0  0  0
  -18.2790  -27.6960   22.5840 C   0  0  0  0  0  0  0  0  0  0  0  0
  -20.8440  -27.9690   22.7590 C   0  0  0  0  0  3  0  0  0  0  0  0
  -20.9330  -26.6100   22.0250 C   0  0  0  0  0  2  0  0  0  0  0  0
  -19.7880  -26.3870   21.0320 C   0  0  0  0  0  2  0  0  0  0  0  0
  -18.4390  -26.4320   21.7550 C   0  0  0  0  0  2  0  0  0  0  0  0
  -19.4080  -28.4250   23.0430 C   0  0  0  0  0  0  0  0  0  0  0  0
  -19.2050  -29.6140   23.7770 C   0  0  0  0  0  3  0  0  0  0  0  0
  -17.9040  -30.0720   24.0580 C   0  0  0  0  0  3  0  0  0  0  0  0
  -16.7900  -29.3370   23.6150 C   0  0  0  0  0  3  0  0  0  0  0  0
  -16.9790  -28.1510   22.8840 C   0  0  0  0  0  3  0  0  0  0  0  0
  -25.8530  -32.3790   23.7210 C   0  0  0  0  0  3  0  0  0  0  0  0
  -25.4760  -33.7510   24.0840 N   0  0  0  0  0  0  0  0  0  0  0  0
  -25.7690  -34.8370   23.3560 C   0  0  0  0  0  0  0  0  0  0  0  0
  -26.4560  -34.7920   22.3330 O   0  0  0  0  0  0  0  0  0  0  0  0
  -24.8640  -33.8560   24.8800 H   0  0  0  0  0  0  0  0  0  0  0  0
  -23.9580  -36.5500   23.0250 C   0  0  0  0  0  1  0  0  0  0  0  0
  -25.2080  -36.1860   23.8410 C   0  0  0  0  0  3  0  0  0  0  0  0
  -27.2820  -37.1620   24.7200 C   0  0  0  0  0  1  0  0  0  0  0  0
  -26.1870  -37.2910   23.7630 N   0  0  0  0  0  0  0  0  0  0  0  0
  -25.7320  -38.1860   23.9220 H   0  0  0  0  0  0  0  0  0  0  0  0
  -26.3750  -31.5870   24.9820 C   0  0  1  0  0  0  0  0  0  0  0  0
  -25.2710  -31.2700   26.0160 C   0  0  0  0  0  1  0  0  0  0  0  0
  -27.0270  -30.2500   24.5570 C   0  0  0  0  0  1  0  0  0  0  0  0
  -27.4720  -32.4070   25.6990 C   0  0  0  0  0  1  0  0  0  0  0  0
  1  2  1  0
  3  4  1  0
  3  6  2  0
  4  1  2  0
  5  7  1  0
  5  2  2  0
  6  5  1  0
  8  6  1  0
  8  9  1  0
  9 53  1  0
  9  7  1  0
 10  4  1  0
 11 10  2  0
 12 10  1  0
 12 13  1  0
 13 14  1  0
 14 23  1  0
 15 23  1  0
 16 21  1  0
 17 18  1  0
 17 16  1  0
 19 18  1  0
 19 28  1  0
 19 20  1  0
 21 15  1  0
 21 20  1  0
 22 15  2  0
 23 24  1  0
 25 26  2  0
 26 45  1  0
 27 26  1  0
 27 30  1  0
 28 25  1  0
 28 29  1  0
 29 27  2  0
 30 31  1  0
 31 32  2  0
 33 36  1  0
 33 32  1  0
 34 33  2  0
 35 34  1  0
 35 30  2  0
 36 37  1  0
 37 38  1  0
 38 39  2  0
 40 39  1  0
 40 44  1  0
 41 40  2  0
 42 37  2  0
 42 41  1  0
 43 42  1  0
 45 46  1  0
 46 49  1  0
 46 48  1  0
 47 45  2  0
 50 51  1  0
 50 25  1  0
 52 50  1  0
 54 53  1  0
 55 66  2  0
 56 54  1  0
 56 61  1  0
 57 65  1  0
 57 67  1  0
 58 64  1  0
 58 60  1  0
 59 65  1  0
 60 59  1  0
 61 60  2  0
 62 63  1  0
 62 56  2  0
 63 58  2  0
 64 57  1  0
 65 55  1  0
 67 69  2  0
 68 67  1  0
 70 68  1  0
 71 80  2  0
 71 76  1  0
 72 68  1  0
 72 76  1  0
 73 72  1  0
 74 75  1  0
 74 73  1  0
 75 71  1  0
 76 77  2  0
 77 78  1  0
 79 78  2  0
 80 79  1  0
 81 55  1  0
 81 82  1  0
 81 91  1  0
 82 85  1  0
 83 87  1  0
 83 82  1  0
 84 83  2  0
 87 86  1  0
 89 87  1  0
 89 90  1  0
 89 88  1  0
 91 94  1  1
 91 92  1  0
 93 91  1  0
M  ISO  4  15 100  23 100  53 101  54 101
M  END
>  <TORSDO>  (71) 
F 21

>  <SCORE>  (71) 
-11.971

>  <name>  (71) 
71

>  <ligand_id>  (71) 
71

>  <original_smiles>  (71) 
[H]c1c([H])c([H])c2c(c1[H])C([H])([H])C([H])([H])C([H])([H])C2([H])N([H])C(=O)C1([H])N(C(=O)C([H])(N([H])C(=O)C([H])(N([H])C([H])([H])[H])C([H])([H])[H])C(C([H])([H])[H])(C([H])([H])[H])C([H])([H])[H])C([H])([H])c2c([H])c(OC([H])([H])C3([H])C([H])([H])c4c([H])c([H])c(C(=O)C([H])([H])C([H])([H])C([H])([H])N([H])C(=O)N5C([H])([H])C([H])([H])C([H])([H])C([H])(n6nc(-c7c([H])c([H])c(Oc8c([H])c([H])c(F)c([H])c8F)c([H])c7[H])c(C(=O)N([H])[H])c6N([H])[H])C5([H])[H])c([H])c4C3([H])[H])c([H])c([H])c2C1([H])[H]

>  <smiles>  (71) 
[H]c1c([H])c([H])c2c(c1[H])C([H])([H])C([H])([H])C([H])([H])C2([H])N([H])C(=O)C1([H])N(C(=O)C([H])(N([H])C(=O)C([H])(N([H])C([H])([H])[H])C([H])([H])[H])C(C([H])([H])[H])(C([H])([H])[H])C([H])([H])[H])C([H])([H])c2c([H])c(OC([H])([H])C3([H])C([H])([H])c4c([H])c([H])c(C(=O)C([H])([H])C([H])([H])C([H])([H])N([H])C(=O)N5C([H])([H])C([H])([H])C([H])([H])C([H])(n6nc(-c7c([H])c([H])c(Oc8c([H])c([H])c(F)c([H])c8F)c([H])c7[H])c(C(=O)N([H])[H])c6N([H])[H])C5([H])[H])c([H])c4C3([H])[H])c([H])c([H])c2C1([H])[H]

$$$$
72:0:0
     RDKit          3D

 92101  0  0  1  0  0  0  0  0999 V2000
  -29.3320  -18.9200   20.2810 C   0  0  0  0  0  3  0  0  0  0  0  0
  -29.7670  -20.5420   20.3510 C   0  0  0  0  0  3  0  0  0  0  0  0
  -28.7400  -21.8480   20.1240 C   0  0  0  0  0  2  0  0  0  0  0  0
  -29.0550  -23.4570   20.4920 C   0  0  0  0  0  3  0  0  0  0  0  0
  -28.0990  -24.7590   20.0240 C   0  0  0  0  0  3  0  0  0  0  0  0
  -28.2880  -26.2630   20.3550 O   0  0  0  0  0  0  0  0  0  0  0  0
  -24.6130  -31.9140   23.3020 C   0  0  0  0  0  0  0  0  0  0  0  0
  -27.2150  -27.2200   20.2750 C   0  0  0  0  0  0  0  0  0  0  0  0
  -23.4180  -30.5210   21.6560 C   0  0  0  0  0  3  0  0  0  0  0  0
  -24.8730  -28.9460   20.2420 C   0  0  0  0  0  0  0  0  0  0  0  0
  -25.9720  -30.7880   21.5050 C   0  0  0  0  0  2  0  0  0  0  0  0
  -26.0510  -29.4000   20.8500 C   0  0  0  0  0  0  0  0  0  0  0  0
  -27.2190  -28.5520   20.8530 C   0  0  0  0  0  3  0  0  0  0  0  0
  -26.0070  -26.8610   19.6330 C   0  0  0  0  0  3  0  0  0  0  0  0
  -24.8600  -27.6850   19.6240 C   0  0  0  0  0  3  0  0  0  0  0  0
  -23.6460  -29.8420   20.2810 C   0  0  0  0  0  2  0  0  0  0  0  0
  -24.6860  -31.0960   22.2110 N   0  0  0  0  0  0  0  0  0  0  0  0
  -23.5260  -32.2040   23.8250 O   0  0  0  0  0  0  0  0  0  0  0  0
  -22.7320  -29.5170   22.6150 C   0  0  0  0  0  0  0  0  0  0  0  0
  -21.4060  -29.3400   22.4720 N   0  0  0  0  0  0  0  0  0  0  0  0
  -23.3940  -28.8960   23.4520 O   0  0  0  0  0  0  0  0  0  0  0  0
  -20.9310  -29.8890   21.7710 H   0  0  0  0  0  0  0  0  0  0  0  0
  -18.0240  -28.1280   22.9420 C   0  0  0  0  0  0  0  0  0  0  0  0
  -20.5790  -28.4070   23.2410 C   0  0  0  0  0  3  0  0  0  0  0  0
  -20.6940  -26.9720   22.6800 C   0  0  0  0  0  2  0  0  0  0  0  0
  -19.6080  -26.6340   21.6520 C   0  0  0  0  0  2  0  0  0  0  0  0
  -18.2170  -26.7750   22.2770 C   0  0  0  0  0  2  0  0  0  0  0  0
  -19.1330  -28.9000   23.3800 C   0  0  0  0  0  0  0  0  0  0  0  0
  -18.8980  -30.1630   23.9670 C   0  0  0  0  0  3  0  0  0  0  0  0
  -17.5870  -30.6570   24.1140 C   0  0  0  0  0  3  0  0  0  0  0  0
  -16.4940  -29.8820   23.6890 C   0  0  0  0  0  3  0  0  0  0  0  0
  -16.7120  -28.6180   23.1120 C   0  0  0  0  0  3  0  0  0  0  0  0
  -25.8900  -32.5460   23.9390 C   0  0  0  0  0  3  0  0  0  0  0  0
  -25.5890  -33.9520   24.2510 N   0  0  0  0  0  0  0  0  0  0  0  0
  -25.9180  -34.9940   23.4780 C   0  0  0  0  0  0  0  0  0  0  0  0
  -26.5780  -34.8740   22.4420 O   0  0  0  0  0  0  0  0  0  0  0  0
  -24.9980  -34.1170   25.0540 H   0  0  0  0  0  0  0  0  0  0  0  0
  -24.1870  -36.7910   23.1340 C   0  0  0  0  0  1  0  0  0  0  0  0
  -25.4440  -36.3920   23.9250 C   0  0  0  0  0  3  0  0  0  0  0  0
  -27.5940  -37.2870   24.7010 C   0  0  0  0  0  1  0  0  0  0  0  0
  -26.4760  -37.4410   23.7750 N   0  0  0  0  0  0  0  0  0  0  0  0
  -26.0750  -38.3640   23.9200 H   0  0  0  0  0  0  0  0  0  0  0  0
  -26.3800  -31.7890   25.2360 C   0  0  1  0  0  0  0  0  0  0  0  0
  -25.2660  -31.5780   26.2900 C   0  0  0  0  0  1  0  0  0  0  0  0
  -26.9580  -30.4000   24.8810 C   0  0  0  0  0  1  0  0  0  0  0  0
  -27.5320  -32.5840   25.9010 C   0  0  0  0  0  1  0  0  0  0  0  0
  -30.3500  -17.6030   20.0440 C   0  0  0  0  0  3  0  0  0  0  0  0
  -30.6070  -14.9100   20.3470 C   0  0  0  0  0  0  0  0  0  0  0  0
  -30.3760  -12.6000   19.3720 C   0  0  0  0  0  2  0  0  0  0  0  0
  -29.4380  -12.6290   18.1440 C   0  0  0  0  0  2  0  0  0  0  0  0
  -27.9750  -12.4380   18.5830 C   0  0  0  0  0  2  0  0  0  0  0  0
  -27.5920  -13.3350   19.7910 C   0  0  0  0  0  3  0  0  0  0  0  0
  -28.6610  -13.3200   20.9060 C   0  0  0  0  0  2  0  0  0  0  0  0
  -29.9410  -13.6930   20.2850 N   0  0  0  0  0  0  0  0  0  0  0  0
  -31.8140  -14.9030   20.1040 O   0  0  0  0  0  0  0  0  0  0  0  0
  -29.9110  -16.1360   20.4280 N   0  0  0  0  0  0  0  0  0  0  0  0
  -28.9300  -16.0340   20.6440 H   0  0  0  0  0  0  0  0  0  0  0  0
  -25.2110  -13.8950   20.5460 C   0  0  0  0  0  0  0  0  0  0  0  0
  -24.1510  -13.1130   20.9170 C   0  0  0  0  0  0  0  0  0  0  0  0
  -24.6210  -11.7670   20.8720 C   0  0  0  0  0  0  0  0  0  0  0  0
  -26.2580  -13.0250   20.2970 N   0  0  0  0  0  0  0  0  0  0  0  0
  -25.9110  -11.7370   20.5550 N   0  0  0  0  0  0  0  0  0  0  0  0
  -23.9000  -10.5000   21.0560 C   0  0  0  0  0  0  0  0  0  0  0  0
  -24.3380   -9.5260   21.9800 C   0  0  0  0  0  3  0  0  0  0  0  0
  -23.6160   -8.3270   22.1550 C   0  0  0  0  0  3  0  0  0  0  0  0
  -22.4400   -8.0910   21.4040 C   0  0  0  0  0  0  0  0  0  0  0  0
  -22.0180   -9.0540   20.4710 C   0  0  0  0  0  3  0  0  0  0  0  0
  -22.7410  -10.2450   20.2950 C   0  0  0  0  0  3  0  0  0  0  0  0
  -21.6880   -6.9430   21.4880 O   0  0  0  0  0  0  0  0  0  0  0  0
  -21.6430   -6.1940   22.6340 C   0  0  0  0  0  0  0  0  0  0  0  0
  -21.1960   -6.7330   23.8610 C   0  0  0  0  0  3  0  0  0  0  0  0
  -21.1010   -5.9090   25.0000 C   0  0  0  0  0  3  0  0  0  0  0  0
  -21.4420   -4.5450   24.9140 C   0  0  0  0  0  0  0  0  0  0  0  0
  -21.8830   -4.0050   23.6920 C   0  0  0  0  0  3  0  0  0  0  0  0
  -21.9790   -4.8260   22.5560 C   0  0  0  0  0  0  0  0  0  0  0  0
  -22.3830   -4.2950   21.3770 F   0  0  0  0  0  0  0  0  0  0  0  0
  -21.3430   -3.7520   26.0060 F   0  0  0  0  0  0  0  0  0  0  0  0
  -22.7540  -13.5860   21.1960 C   0  0  0  0  0  0  0  0  0  0  0  0
  -22.0350  -12.8790   22.0600 N   0  0  0  0  0  0  0  0  0  0  0  0
  -22.3080  -14.6120   20.6860 O   0  0  0  0  0  0  0  0  0  0  0  0
  -22.4110  -12.0510   22.4990 H   0  0  0  0  0  0  0  0  0  0  0  0
  -21.0970  -13.1700   22.2910 H   0  0  0  0  0  0  0  0  0  0  0  0
  -25.3660  -15.2690   20.3780 N   0  0  0  0  0  0  0  0  0  0  0  0
  -24.5990  -15.9200   20.5100 H   0  0  0  0  0  0  0  0  0  0  0  0
  -26.2080  -15.7160   20.0410 H   0  0  0  0  0  0  0  0  0  0  0  0
  -31.3330  -18.3430   16.2810 C   0  0  0  0  0  2  0  0  0  0  0  0
  -32.0500  -19.5690   17.7120 C   0  0  0  0  0  2  0  0  0  0  0  0
  -32.2790  -17.1780   18.2650 C   0  0  0  0  0  2  0  0  0  0  0  0
  -30.7480  -18.7420   17.6490 C   0  0  0  0  0  3  0  0  0  0  0  0
  -30.7980  -17.5100   18.5440 C   0  0  0  0  0  3  0  0  0  0  0  0
  -32.5700  -18.2190   17.1910 C   0  0  1  0  0  0  0  0  0  0  0  0
  -33.9670  -18.1070   16.5880 C   0  0  0  0  0  1  0  0  0  0  0  0
  1  2  2  0
  3  2  1  0
  3  4  1  0
  5  6  1  0
  5  4  2  0
  7 18  2  0
  8  6  1  0
  8 13  1  0
  9 17  1  0
  9 19  1  0
 10 16  1  0
 10 12  1  0
 11 17  1  0
 12 13  2  0
 12 11  1  0
 14  8  2  0
 15 14  1  0
 15 10  2  0
 16  9  1  0
 17  7  1  0
 19 21  2  0
 20 19  1  0
 22 20  1  0
 23 32  2  0
 23 28  1  0
 24 20  1  0
 24 28  1  0
 25 24  1  0
 26 27  1  0
 26 25  1  0
 27 23  1  0
 28 29  2  0
 29 30  1  0
 31 30  2  0
 32 31  1  0
 33  7  1  0
 33 34  1  0
 33 43  1  0
 34 37  1  0
 35 39  1  0
 35 34  1  0
 36 35  2  0
 39 38  1  0
 41 42  1  0
 41 39  1  0
 41 40  1  0
 43 46  1  1
 43 44  1  0
 45 43  1  0
 47  1  1  0
 47 56  1  0
 48 56  1  0
 49 54  1  0
 50 51  1  0
 50 49  1  0
 52 51  1  0
 52 61  1  0
 52 53  1  0
 54 48  1  0
 54 53  1  0
 55 48  2  0
 56 57  1  0
 58 59  2  0
 59 78  1  0
 60 59  1  0
 60 63  1  0
 61 58  1  0
 61 62  1  0
 62 60  2  0
 63 64  1  0
 64 65  2  0
 66 69  1  0
 66 65  1  0
 67 66  2  0
 68 67  1  0
 68 63  2  0
 69 70  1  0
 70 71  1  0
 71 72  2  0
 73 72  1  0
 73 77  1  0
 74 73  2  0
 75 70  2  0
 75 74  1  0
 76 75  1  0
 78 79  1  0
 79 82  1  0
 79 81  1  0
 80 78  2  0
 83 84  1  0
 83 58  1  0
 85 83  1  0
 86 91  1  0
 88 90  1  0
 89 86  1  0
 89 87  1  0
 89 90  1  0
 90 47  1  0
 91 92  1  6
 91 87  1  0
 91 88  1  0
M  ISO  4   5 101   6 101  48 100  56 100
M  END
>  <TORSDO>  (72) 
F 22

>  <SCORE>  (72) 
-13.152

>  <name>  (72) 
72

>  <ligand_id>  (72) 
72

>  <original_smiles>  (72) 
[H]c1c([H])c([H])c2c(c1[H])C([H])([H])C([H])([H])C([H])([H])C2([H])N([H])C(=O)C1([H])N(C(=O)C([H])(N([H])C(=O)C([H])(N([H])C([H])([H])[H])C([H])([H])[H])C(C([H])([H])[H])(C([H])([H])[H])C([H])([H])[H])C([H])([H])c2c([H])c(OC([H])([H])C([H])([H])C([H])([H])C([H])([H])C([H])([H])C([H])(N([H])C(=O)N3C([H])([H])C([H])([H])C([H])([H])C([H])(n4nc(-c5c([H])c([H])c(Oc6c([H])c([H])c(F)c([H])c6F)c([H])c5[H])c(C(=O)N([H])[H])c4N([H])[H])C3([H])[H])C3([H])C([H])([H])C4(C([H])([H])[H])C([H])([H])C3([H])C4([H])[H])c([H])c([H])c2C1([H])[H]

>  <smiles>  (72) 
[H]c1c([H])c([H])c2c(c1[H])C([H])([H])C([H])([H])C([H])([H])C2([H])N([H])C(=O)C1([H])N(C(=O)C([H])(N([H])C(=O)C([H])(N([H])C([H])([H])[H])C([H])([H])[H])C(C([H])([H])[H])(C([H])([H])[H])C([H])([H])[H])C([H])([H])c2c([H])c(OC([H])([H])C([H])([H])C([H])([H])C([H])([H])C([H])([H])C([H])(N([H])C(=O)N3C([H])([H])C([H])([H])C([H])([H])C([H])(n4nc(-c5c([H])c([H])c(Oc6c([H])c([H])c(F)c([H])c6F)c([H])c5[H])c(C(=O)N([H])[H])c4N([H])[H])C3([H])[H])C3([H])C([H])([H])C4(C([H])([H])[H])C([H])([H])C3([H])C4([H])[H])c([H])c([H])c2C1([H])[H]

$$$$
73:0:0
     RDKit          3D

 92 99  0  0  1  0  0  0  0  0999 V2000
  -29.6660  -21.2650   20.0480 N   0  0  0  0  0  4  0  0  0  0  0  0
  -30.5000  -21.6490   19.6270 H   0  0  0  0  0  0  0  0  0  0  0  0
  -29.1880  -20.7340   19.3330 H   0  0  0  0  0  0  0  0  0  0  0  0
  -28.7190  -22.4390   20.3610 C   0  0  0  0  0  2  0  0  0  0  0  0
  -29.0640  -23.9220   19.8070 C   0  0  0  0  0  3  0  0  0  0  0  0
  -28.0380  -25.0930   20.1670 C   0  0  0  0  0  3  0  0  0  0  0  0
  -28.3280  -26.5280   19.8660 O   0  0  0  0  0  0  0  0  0  0  0  0
  -24.5880  -31.8020   23.1500 C   0  0  0  0  0  0  0  0  0  0  0  0
  -27.2230  -27.3980   19.8750 C   0  0  0  0  0  0  0  0  0  0  0  0
  -23.3850  -30.4360   21.4860 C   0  0  0  0  0  3  0  0  0  0  0  0
  -24.8430  -28.9780   19.9750 C   0  0  0  0  0  0  0  0  0  0  0  0
  -25.9200  -30.8040   21.2770 C   0  0  0  0  0  2  0  0  0  0  0  0
  -26.0110  -29.4520   20.5790 C   0  0  0  0  0  0  0  0  0  0  0  0
  -27.2060  -28.6690   20.5330 C   0  0  0  0  0  3  0  0  0  0  0  0
  -26.0460  -27.0130   19.2000 C   0  0  0  0  0  3  0  0  0  0  0  0
  -24.8600  -27.7660   19.2760 C   0  0  0  0  0  3  0  0  0  0  0  0
  -23.5870  -29.8200   20.0780 C   0  0  0  0  0  2  0  0  0  0  0  0
  -24.6490  -31.0310   22.0270 N   0  0  0  0  0  0  0  0  0  0  0  0
  -23.5070  -32.0400   23.7090 O   0  0  0  0  0  0  0  0  0  0  0  0
  -22.7700  -29.3650   22.4190 C   0  0  0  0  0  0  0  0  0  0  0  0
  -21.4520  -29.1420   22.2880 N   0  0  0  0  0  0  0  0  0  0  0  0
  -23.4770  -28.7440   23.2170 O   0  0  0  0  0  0  0  0  0  0  0  0
  -20.9420  -29.6940   21.6110 H   0  0  0  0  0  0  0  0  0  0  0  0
  -18.1270  -27.7780   22.7270 C   0  0  0  0  0  0  0  0  0  0  0  0
  -20.6640  -28.1580   23.0330 C   0  0  0  0  0  3  0  0  0  0  0  0
  -20.8460  -26.7400   22.4460 C   0  0  0  0  0  2  0  0  0  0  0  0
  -19.7750  -26.3700   21.4150 C   0  0  0  0  0  2  0  0  0  0  0  0
  -18.3780  -26.4450   22.0380 C   0  0  0  0  0  2  0  0  0  0  0  0
  -19.2020  -28.5900   23.1770 C   0  0  0  0  0  0  0  0  0  0  0  0
  -18.9150  -29.8350   23.7800 C   0  0  0  0  0  3  0  0  0  0  0  0
  -17.5840  -30.2690   23.9350 C   0  0  0  0  0  3  0  0  0  0  0  0
  -16.5240  -29.4570   23.4960 C   0  0  0  0  0  3  0  0  0  0  0  0
  -16.7950  -28.2120   22.8960 C   0  0  0  0  0  3  0  0  0  0  0  0
  -25.8660  -32.4420   23.7700 C   0  0  0  0  0  3  0  0  0  0  0  0
  -26.4020  -31.6650   25.0350 C   0  0  1  0  0  0  0  0  0  0  0  0
  -25.3150  -31.3970   26.1050 C   0  0  0  0  0  1  0  0  0  0  0  0
  -27.0040  -30.3020   24.6180 C   0  0  0  0  0  1  0  0  0  0  0  0
  -27.5520  -32.4660   25.6920 C   0  0  0  0  0  1  0  0  0  0  0  0
  -25.5420  -33.8340   24.1160 N   0  0  0  0  0  0  0  0  0  0  0  0
  -25.8860  -34.9020   23.3860 C   0  0  0  0  0  0  0  0  0  0  0  0
  -26.5870  -34.8260   22.3730 O   0  0  0  0  0  0  0  0  0  0  0  0
  -24.9250  -33.9750   24.9010 H   0  0  0  0  0  0  0  0  0  0  0  0
  -24.1620  -36.7000   23.0140 C   0  0  0  0  0  1  0  0  0  0  0  0
  -25.3750  -36.2790   23.8560 C   0  0  0  0  0  3  0  0  0  0  0  0
  -27.4780  -37.1490   24.7780 C   0  0  0  0  0  1  0  0  0  0  0  0
  -26.4090  -37.3350   23.8020 N   0  0  0  0  0  0  0  0  0  0  0  0
  -25.9970  -38.2510   23.9580 H   0  0  0  0  0  0  0  0  0  0  0  0
  -30.1040  -20.2540   21.1390 C   0  0  0  0  0  3  0  0  0  0  0  0
  -31.0560  -19.0210   20.6180 C   0  0  0  0  0  2  0  0  0  0  0  0
  -30.6800  -17.4510   20.4060 C   0  0  0  0  0  3  0  0  0  0  0  0
  -30.9650  -16.4430   21.2290 N   0  0  0  0  0  2  0  0  0  0  0  0
  -31.5130  -15.1880   20.7660 C   0  0  0  0  0  0  0  0  0  0  0  0
  -31.2340  -12.8560   19.8520 C   0  0  0  0  0  2  0  0  0  0  0  0
  -30.4530  -12.8480   18.5150 C   0  0  0  0  0  2  0  0  0  0  0  0
  -28.9320  -12.8180   18.7700 C   0  0  0  0  0  2  0  0  0  0  0  0
  -28.4640  -13.7690   19.9080 C   0  0  0  0  0  3  0  0  0  0  0  0
  -29.4070  -13.7650   21.1290 C   0  0  0  0  0  2  0  0  0  0  0  0
  -30.7740  -14.0210   20.6540 N   0  0  0  0  0  0  0  0  0  0  0  0
  -32.6870  -15.1420   20.4020 O   0  0  0  0  0  0  0  0  0  0  0  0
  -26.0640  -14.4220   20.4960 C   0  0  0  0  0  0  0  0  0  0  0  0
  -24.9490  -13.6860   20.7710 C   0  0  0  0  0  0  0  0  0  0  0  0
  -25.3550  -12.3140   20.7360 C   0  0  0  0  0  0  0  0  0  0  0  0
  -27.0850  -13.5090   20.3020 N   0  0  0  0  0  0  0  0  0  0  0  0
  -26.6630  -12.2310   20.5150 N   0  0  0  0  0  0  0  0  0  0  0  0
  -24.5640  -11.0780   20.8460 C   0  0  0  0  0  0  0  0  0  0  0  0
  -24.9030  -10.0720   21.7760 C   0  0  0  0  0  3  0  0  0  0  0  0
  -24.1200   -8.9000   21.8740 C   0  0  0  0  0  3  0  0  0  0  0  0
  -22.9840   -8.7310   21.0450 C   0  0  0  0  0  0  0  0  0  0  0  0
  -22.6690   -9.7250   20.1040 C   0  0  0  0  0  3  0  0  0  0  0  0
  -23.4500  -10.8890   20.0040 C   0  0  0  0  0  3  0  0  0  0  0  0
  -22.1820   -7.6170   21.0520 O   0  0  0  0  0  0  0  0  0  0  0  0
  -22.0150   -6.8590   22.1850 C   0  0  0  0  0  0  0  0  0  0  0  0
  -21.5220   -7.4090   23.3870 C   0  0  0  0  0  3  0  0  0  0  0  0
  -21.3040   -6.5750   24.5040 C   0  0  0  0  0  3  0  0  0  0  0  0
  -21.5670   -5.1920   24.4130 C   0  0  0  0  0  0  0  0  0  0  0  0
  -22.0510   -4.6420   23.2140 C   0  0  0  0  0  3  0  0  0  0  0  0
  -22.2760   -5.4750   22.1040 C   0  0  0  0  0  0  0  0  0  0  0  0
  -22.7300   -4.9390   20.9440 F   0  0  0  0  0  0  0  0  0  0  0  0
  -21.3500   -4.3920   25.4850 F   0  0  0  0  0  0  0  0  0  0  0  0
  -23.5550  -14.2130   20.9510 C   0  0  0  0  0  0  0  0  0  0  0  0
  -22.7490  -13.5420   21.7590 N   0  0  0  0  0  0  0  0  0  0  0  0
  -23.1940  -15.2540   20.4020 O   0  0  0  0  0  0  0  0  0  0  0  0
  -23.0550  -12.7040   22.2320 H   0  0  0  0  0  0  0  0  0  0  0  0
  -21.8040  -13.8640   21.9030 H   0  0  0  0  0  0  0  0  0  0  0  0
  -26.2910  -15.7920   20.3740 N   0  0  0  0  0  0  0  0  0  0  0  0
  -25.5370  -16.4650   20.4710 H   0  0  0  0  0  0  0  0  0  0  0  0
  -27.1720  -16.2180   20.1220 H   0  0  0  0  0  0  0  0  0  0  0  0
  -31.1280  -16.8570   17.9180 C   0  0  0  0  0  1  0  0  0  0  0  0
  -30.1050  -17.2370   19.0030 C   0  0  0  0  0  2  0  0  0  0  0  0
  -30.8830  -21.0560   22.2640 C   0  0  0  0  0  2  0  0  0  0  0  0
  -32.1420  -21.0260   24.5600 C   0  0  0  0  0  1  0  0  0  0  0  0
  -31.3560  -20.2170   23.4880 C   0  0  0  0  0  2  0  0  0  0  0  0
  1  4  1  0
  1 48  1  0
  2  1  1  0
  3  1  1  0
  5  6  2  0
  5  4  1  0
  7  9  1  0
  7  6  1  0
  8 19  2  0
  9 14  1  0
 10 18  1  0
 10 20  1  0
 11 17  1  0
 11 13  1  0
 12 18  1  0
 13 12  1  0
 14 13  2  0
 15 16  1  0
 15  9  2  0
 16 11  2  0
 17 10  1  0
 18  8  1  0
 20 22  2  0
 21 20  1  0
 23 21  1  0
 24 33  2  0
 24 29  1  0
 25 21  1  0
 25 29  1  0
 26 25  1  0
 27 28  1  0
 27 26  1  0
 28 24  1  0
 29 30  2  0
 30 31  1  0
 32 31  2  0
 33 32  1  0
 34  8  1  0
 34 39  1  0
 34 35  1  0
 35 38  1  1
 35 36  1  0
 37 35  1  0
 39 42  1  0
 40 44  1  0
 40 39  1  0
 41 40  2  0
 44 43  1  0
 46 44  1  0
 46 47  1  0
 46 45  1  0
 48 49  1  0
 48 90  1  0
 50 89  1  0
 50 49  1  0
 50 51  1  0
 52 51  1  0
 53 58  1  0
 54 55  1  0
 54 53  1  0
 56 55  1  0
 56 63  1  0
 56 57  1  0
 58 52  1  0
 58 57  1  0
 59 52  2  0
 60 61  2  0
 61 80  1  0
 62 61  1  0
 62 65  1  0
 63 60  1  0
 63 64  1  0
 64 62  2  0
 65 66  1  0
 66 67  2  0
 68 71  1  0
 68 67  1  0
 69 68  2  0
 70 69  1  0
 70 65  2  0
 71 72  1  0
 72 73  1  0
 73 74  2  0
 75 74  1  0
 75 79  1  0
 76 75  2  0
 77 72  2  0
 77 76  1  0
 78 77  1  0
 80 81  1  0
 81 84  1  0
 81 83  1  0
 82 80  2  0
 85 86  1  0
 85 60  1  0
 87 85  1  0
 88 89  1  0
 90 92  1  0
 92 91  1  0
M  ISO  4   6 101   7 101  51 100  52 100
M  END
>  <TORSDO>  (73) 
F 25

>  <SCORE>  (73) 
-11.060

>  <name>  (73) 
73

>  <ligand_id>  (73) 
73

>  <original_smiles>  (73) 
[H]c1c([H])c([H])c2c(c1[H])C([H])([H])C([H])([H])C([H])([H])C2([H])N([H])C(=O)C1([H])N(C(=O)C([H])(N([H])C(=O)C([H])(N([H])C([H])([H])[H])C([H])([H])[H])C(C([H])([H])[H])(C([H])([H])[H])C([H])([H])[H])C([H])([H])c2c([H])c(OC([H])([H])C([H])([H])C([H])([H])[N+]([H])([H])C([H])(C([H])([H])C(=NC(=O)N3C([H])([H])C([H])([H])C([H])([H])C([H])(n4nc(-c5c([H])c([H])c(Oc6c([H])c([H])c(F)c([H])c6F)c([H])c5[H])c(C(=O)N([H])[H])c4N([H])[H])C3([H])[H])C([H])([H])C([H])([H])[H])C([H])([H])C([H])([H])C([H])([H])[H])c([H])c([H])c2C1([H])[H]

>  <smiles>  (73) 
[H]c1c([H])c([H])c2c(c1[H])C([H])([H])C([H])([H])C([H])([H])C2([H])N([H])C(=O)C1([H])N(C(=O)C([H])(N([H])C(=O)C([H])(N([H])C([H])([H])[H])C([H])([H])[H])C(C([H])([H])[H])(C([H])([H])[H])C([H])([H])[H])C([H])([H])c2c([H])c(OC([H])([H])C([H])([H])C([H])([H])[N+]([H])([H])C([H])(C([H])([H])C(=NC(=O)N3C([H])([H])C([H])([H])C([H])([H])C([H])(n4nc(-c5c([H])c([H])c(Oc6c([H])c([H])c(F)c([H])c6F)c([H])c5[H])c(C(=O)N([H])[H])c4N([H])[H])C3([H])[H])C([H])([H])C([H])([H])[H])C([H])([H])C([H])([H])C([H])([H])[H])c([H])c([H])c2C1([H])[H]

$$$$
74:0:0
     RDKit          3D

 96104  0  0  1  0  0  0  0  0999 V2000
  -30.2860  -23.2360   19.7150 C   0  0  0  0  0  2  0  0  0  0  0  0
  -28.8370  -21.1430   19.7960 C   0  0  0  0  0  2  0  0  0  0  0  0
  -31.3160  -20.9420   19.2920 C   0  0  0  0  0  2  0  0  0  0  0  0
  -28.7820  -19.6470   20.1160 C   0  0  0  0  0  2  0  0  0  0  0  0
  -31.2590  -19.4440   19.6260 C   0  0  0  0  0  2  0  0  0  0  0  0
  -30.2390  -21.7330   20.0650 C   0  0  0  0  0  3  0  0  0  0  0  0
  -29.8590  -18.8830   19.3210 C   0  0  0  0  0  3  0  0  0  0  0  0
  -28.4330  -16.8440   18.8920 C   0  0  0  0  0  1  0  0  0  0  0  0
  -29.7650  -17.3530   19.4720 C   0  0  0  0  0  3  0  0  0  0  0  0
  -30.0490  -16.8450   20.9150 C   0  0  0  0  0  2  0  0  0  0  0  0
  -30.5810  -14.4510   20.5030 C   0  0  0  0  0  0  0  0  0  0  0  0
  -30.3010  -12.3320   19.2950 C   0  0  0  0  0  2  0  0  0  0  0  0
  -29.3420  -12.5760   18.1120 C   0  0  0  0  0  2  0  0  0  0  0  0
  -27.8690  -12.4260   18.5460 C   0  0  0  0  0  2  0  0  0  0  0  0
  -27.5430  -13.2140   19.8450 C   0  0  0  0  0  3  0  0  0  0  0  0
  -28.6120  -12.9430   20.9300 C   0  0  0  0  0  2  0  0  0  0  0  0
  -29.9340  -13.2680   20.3630 N   0  0  0  0  0  0  0  0  0  0  0  0
  -31.6860  -14.6970   20.0080 O   0  0  0  0  0  0  0  0  0  0  0  0
  -29.8340  -15.4100   21.0560 N   0  0  0  0  0  0  0  0  0  0  0  0
  -28.9440  -15.1170   21.4300 H   0  0  0  0  0  0  0  0  0  0  0  0
  -25.1410  -13.8050   20.5590 C   0  0  0  0  0  0  0  0  0  0  0  0
  -24.0820  -13.0200   20.9320 C   0  0  0  0  0  0  0  0  0  0  0  0
  -24.5560  -11.6730   20.8920 C   0  0  0  0  0  0  0  0  0  0  0  0
  -26.1930  -12.9320   20.3230 N   0  0  0  0  0  0  0  0  0  0  0  0
  -25.8440  -11.6470   20.5770 N   0  0  0  0  0  0  0  0  0  0  0  0
  -23.8460  -10.4020   21.0820 C   0  0  0  0  0  0  0  0  0  0  0  0
  -24.2950   -9.4390   22.0120 C   0  0  0  0  0  3  0  0  0  0  0  0
  -23.5880   -8.2290   22.1870 C   0  0  0  0  0  3  0  0  0  0  0  0
  -22.4200   -7.9760   21.4310 C   0  0  0  0  0  0  0  0  0  0  0  0
  -21.9900   -8.9280   20.4890 C   0  0  0  0  0  3  0  0  0  0  0  0
  -22.6990  -10.1290   20.3130 C   0  0  0  0  0  3  0  0  0  0  0  0
  -21.6820   -6.8200   21.5160 O   0  0  0  0  0  0  0  0  0  0  0  0
  -21.6450   -6.0750   22.6660 C   0  0  0  0  0  0  0  0  0  0  0  0
  -21.1820   -6.6120   23.8880 C   0  0  0  0  0  3  0  0  0  0  0  0
  -21.0950   -5.7920   25.0290 C   0  0  0  0  0  3  0  0  0  0  0  0
  -21.4600   -4.4350   24.9520 C   0  0  0  0  0  0  0  0  0  0  0  0
  -21.9170   -3.8960   23.7360 C   0  0  0  0  0  3  0  0  0  0  0  0
  -22.0060   -4.7140   22.5960 C   0  0  0  0  0  0  0  0  0  0  0  0
  -22.4280   -4.1860   21.4210 F   0  0  0  0  0  0  0  0  0  0  0  0
  -21.3680   -3.6430   26.0460 F   0  0  0  0  0  0  0  0  0  0  0  0
  -22.6810  -13.4820   21.2160 C   0  0  0  0  0  0  0  0  0  0  0  0
  -21.9630  -12.7690   22.0770 N   0  0  0  0  0  0  0  0  0  0  0  0
  -22.2280  -14.5090   20.7100 O   0  0  0  0  0  0  0  0  0  0  0  0
  -22.3390  -11.9370   22.5080 H   0  0  0  0  0  0  0  0  0  0  0  0
  -21.0260  -13.0610   22.3140 H   0  0  0  0  0  0  0  0  0  0  0  0
  -25.2960  -15.1760   20.3840 N   0  0  0  0  0  0  0  0  0  0  0  0
  -24.5300  -15.8330   20.4910 H   0  0  0  0  0  0  0  0  0  0  0  0
  -26.1500  -15.6090   20.0600 H   0  0  0  0  0  0  0  0  0  0  0  0
  -29.3040  -24.0380   20.4780 N   0  0  0  0  0  4  0  0  0  0  0  0
  -28.3780  -23.6900   20.2850 H   0  0  0  0  0  0  0  0  0  0  0  0
  -29.3320  -24.9880   20.1320 H   0  0  0  0  0  0  0  0  0  0  0  0
  -29.5210  -24.0840   21.9430 C   0  0  0  0  0  2  0  0  0  0  0  0
  -28.6800  -25.1870   22.6110 C   0  0  0  0  0  2  0  0  0  0  0  0
  -29.3290  -26.5860   22.5860 C   0  0  0  0  0  2  0  0  0  0  0  0
  -29.6980  -27.0900   21.1760 C   0  0  0  0  0  2  0  0  0  0  0  0
  -28.6560  -26.7980   20.2430 O   0  0  0  0  0  0  0  0  0  0  0  0
  -24.7030  -31.8940   23.3110 C   0  0  0  0  0  0  0  0  0  0  0  0
  -27.4960  -27.5390   20.2880 C   0  0  0  0  0  0  0  0  0  0  0  0
  -23.5410  -30.4730   21.6470 C   0  0  0  0  0  3  0  0  0  0  0  0
  -25.0480  -28.9570   20.2550 C   0  0  0  0  0  0  0  0  0  0  0  0
  -26.0530  -30.8890   21.4810 C   0  0  0  0  0  2  0  0  0  0  0  0
  -26.1770  -29.5170   20.8630 C   0  0  0  0  0  0  0  0  0  0  0  0
  -27.3960  -28.8150   20.8910 C   0  0  0  0  0  3  0  0  0  0  0  0
  -26.3500  -26.9850   19.6800 C   0  0  0  0  0  3  0  0  0  0  0  0
  -25.1260  -27.6830   19.6650 C   0  0  0  0  0  3  0  0  0  0  0  0
  -23.7830  -29.7840   20.2760 C   0  0  0  0  0  2  0  0  0  0  0  0
  -24.7820  -31.0990   22.2060 N   0  0  0  0  0  0  0  0  0  0  0  0
  -23.6100  -32.1490   23.8350 O   0  0  0  0  0  0  0  0  0  0  0  0
  -22.8930  -29.4430   22.5990 C   0  0  0  0  0  0  0  0  0  0  0  0
  -21.5750  -29.2380   22.4440 N   0  0  0  0  0  0  0  0  0  0  0  0
  -23.5700  -28.8300   23.4280 O   0  0  0  0  0  0  0  0  0  0  0  0
  -21.0870  -29.7860   21.7490 H   0  0  0  0  0  0  0  0  0  0  0  0
  -18.2090  -28.0110   22.8810 C   0  0  0  0  0  0  0  0  0  0  0  0
  -20.7580  -28.2900   23.1980 C   0  0  0  0  0  3  0  0  0  0  0  0
  -20.8840  -26.8610   22.6180 C   0  0  0  0  0  2  0  0  0  0  0  0
  -19.8020  -26.5320   21.5850 C   0  0  0  0  0  2  0  0  0  0  0  0
  -18.4090  -26.6640   22.2050 C   0  0  0  0  0  2  0  0  0  0  0  0
  -19.3130  -28.7810   23.3330 C   0  0  0  0  0  0  0  0  0  0  0  0
  -19.0730  -30.0430   23.9190 C   0  0  0  0  0  3  0  0  0  0  0  0
  -17.7620  -30.5340   24.0600 C   0  0  0  0  0  3  0  0  0  0  0  0
  -16.6720  -29.7600   23.6260 C   0  0  0  0  0  3  0  0  0  0  0  0
  -16.8960  -28.5000   23.0420 C   0  0  0  0  0  3  0  0  0  0  0  0
  -25.9720  -32.5410   23.9500 C   0  0  0  0  0  3  0  0  0  0  0  0
  -25.6540  -33.9450   24.2390 N   0  0  0  0  0  0  0  0  0  0  0  0
  -26.0050  -34.9790   23.4630 C   0  0  0  0  0  0  0  0  0  0  0  0
  -26.7020  -34.8520   22.4530 O   0  0  0  0  0  0  0  0  0  0  0  0
  -25.0410  -34.1190   25.0220 H   0  0  0  0  0  0  0  0  0  0  0  0
  -24.2900  -36.7590   23.0110 C   0  0  0  0  0  1  0  0  0  0  0  0
  -25.5020  -36.3740   23.8740 C   0  0  0  0  0  3  0  0  0  0  0  0
  -27.6040  -37.2810   24.7600 C   0  0  0  0  0  1  0  0  0  0  0  0
  -26.5370  -37.4260   23.7740 N   0  0  0  0  0  0  0  0  0  0  0  0
  -26.1250  -38.3470   23.8810 H   0  0  0  0  0  0  0  0  0  0  0  0
  -26.4610  -31.7980   25.2540 C   0  0  1  0  0  0  0  0  0  0  0  0
  -25.3440  -31.5780   26.3000 C   0  0  0  0  0  1  0  0  0  0  0  0
  -27.0620  -30.4170   24.9000 C   0  0  0  0  0  1  0  0  0  0  0  0
  -27.5890  -32.6130   25.9290 C   0  0  0  0  0  1  0  0  0  0  0  0
  1 49  1  0
  2  6  1  0
  2  4  1  0
  3  5  1  0
  3  6  1  0
  6  1  1  0
  7  9  1  0
  7  5  1  0
  7  4  1  0
  9  8  1  0
  9 10  1  0
 10 19  1  0
 11 19  1  0
 12 17  1  0
 13 14  1  0
 13 12  1  0
 15 14  1  0
 15 24  1  0
 15 16  1  0
 17 11  1  0
 17 16  1  0
 18 11  2  0
 19 20  1  0
 21 22  2  0
 22 41  1  0
 23 22  1  0
 23 26  1  0
 24 21  1  0
 24 25  1  0
 25 23  2  0
 26 27  1  0
 27 28  2  0
 29 32  1  0
 29 28  1  0
 30 29  2  0
 31 30  1  0
 31 26  2  0
 32 33  1  0
 33 34  1  0
 34 35  2  0
 36 35  1  0
 36 40  1  0
 37 36  2  0
 38 33  2  0
 38 37  1  0
 39 38  1  0
 41 42  1  0
 42 45  1  0
 42 44  1  0
 43 41  2  0
 46 47  1  0
 46 21  1  0
 48 46  1  0
 49 52  1  0
 50 49  1  0
 51 49  1  0
 52 53  1  0
 54 53  1  0
 55 54  1  0
 56 58  1  0
 56 55  1  0
 57 68  2  0
 58 63  1  0
 59 67  1  0
 59 69  1  0
 60 66  1  0
 60 62  1  0
 61 67  1  0
 62 63  2  0
 62 61  1  0
 64 58  2  0
 65 64  1  0
 65 60  2  0
 66 59  1  0
 67 57  1  0
 69 71  2  0
 70 69  1  0
 72 70  1  0
 73 82  2  0
 73 78  1  0
 74 70  1  0
 74 78  1  0
 75 74  1  0
 76 77  1  0
 76 75  1  0
 77 73  1  0
 78 79  2  0
 79 80  1  0
 81 80  2  0
 82 81  1  0
 83 57  1  0
 83 84  1  0
 83 93  1  0
 84 87  1  0
 85 89  1  0
 85 84  1  0
 86 85  2  0
 89 88  1  0
 91 89  1  0
 91 92  1  0
 91 90  1  0
 93 96  1  1
 93 94  1  0
 95 93  1  0
M  ISO  4  11 100  19 100  55 101  56 101
M  END
>  <TORSDO>  (74) 
F 24

>  <SCORE>  (74) 
-12.809

>  <name>  (74) 
74

>  <ligand_id>  (74) 
74

>  <original_smiles>  (74) 
[H]c1c([H])c([H])c2c(c1[H])C([H])([H])C([H])([H])C([H])([H])C2([H])N([H])C(=O)C1([H])N(C(=O)C([H])(N([H])C(=O)C([H])(N([H])C([H])([H])[H])C([H])([H])[H])C(C([H])([H])[H])(C([H])([H])[H])C([H])([H])[H])C([H])([H])c2c([H])c(OC([H])([H])C([H])([H])C([H])([H])C([H])([H])[N+]([H])([H])C([H])([H])C3([H])C([H])([H])C([H])([H])C([H])(C([H])(C([H])([H])[H])C([H])([H])N([H])C(=O)N4C([H])([H])C([H])([H])C([H])([H])C([H])(n5nc(-c6c([H])c([H])c(Oc7c([H])c([H])c(F)c([H])c7F)c([H])c6[H])c(C(=O)N([H])[H])c5N([H])[H])C4([H])[H])C([H])([H])C3([H])[H])c([H])c([H])c2C1([H])[H]

>  <smiles>  (74) 
[H]c1c([H])c([H])c2c(c1[H])C([H])([H])C([H])([H])C([H])([H])C2([H])N([H])C(=O)C1([H])N(C(=O)C([H])(N([H])C(=O)C([H])(N([H])C([H])([H])[H])C([H])([H])[H])C(C([H])([H])[H])(C([H])([H])[H])C([H])([H])[H])C([H])([H])c2c([H])c(OC([H])([H])C([H])([H])C([H])([H])C([H])([H])[N+]([H])([H])C([H])([H])C3([H])C([H])([H])C([H])([H])C([H])(C([H])(C([H])([H])[H])C([H])([H])N([H])C(=O)N4C([H])([H])C([H])([H])C([H])([H])C([H])(n5nc(-c6c([H])c([H])c(Oc7c([H])c([H])c(F)c([H])c7F)c([H])c6[H])c(C(=O)N([H])[H])c5N([H])[H])C4([H])[H])C([H])([H])C3([H])[H])c([H])c([H])c2C1([H])[H]

$$$$
75:0:0
     RDKit          3D

 87 95  0  0  1  0  0  0  0  0999 V2000
  -27.9940  -21.6510   21.9570 C   0  0  0  0  0  2  0  0  0  0  0  0
  -28.1410  -20.3930   21.0710 C   0  0  0  0  0  2  0  0  0  0  0  0
  -29.1500  -22.6360   21.6600 C   0  0  0  0  0  2  0  0  0  0  0  0
  -29.3990  -20.6120   20.2370 C   0  0  0  0  0  0  0  0  0  0  0  0
  -29.4430  -22.5450   20.1460 C   0  0  2  0  0  0  0  0  0  0  0  0
  -30.9170  -22.8790   19.8410 C   0  0  0  0  0  1  0  0  0  0  0  0
  -30.1820  -18.9580   19.6760 C   0  0  0  0  0  3  0  0  0  0  0  0
  -30.7810  -15.8780   19.8650 C   0  0  0  0  0  0  0  0  0  0  0  0
  -30.7790  -13.3470   19.0610 C   0  0  0  0  0  2  0  0  0  0  0  0
  -29.8230  -13.0020   17.8860 C   0  0  0  0  0  2  0  0  0  0  0  0
  -28.4120  -12.6820   18.4030 C   0  0  0  0  0  2  0  0  0  0  0  0
  -27.9780  -13.6760   19.5050 C   0  0  0  0  0  3  0  0  0  0  0  0
  -29.0670  -13.9550   20.5700 C   0  0  0  0  0  2  0  0  0  0  0  0
  -30.2320  -14.5310   19.8610 N   0  0  0  0  0  0  0  0  0  0  0  0
  -31.9870  -15.8170   19.5610 O   0  0  0  0  0  0  0  0  0  0  0  0
  -30.0540  -17.2330   20.0130 N   0  0  0  0  0  0  0  0  0  0  0  0
  -29.1070  -17.0300   20.3020 H   0  0  0  0  0  0  0  0  0  0  0  0
  -25.6780  -14.2260   20.4340 C   0  0  0  0  0  0  0  0  0  0  0  0
  -24.6250  -13.4520   20.8310 C   0  0  0  0  0  0  0  0  0  0  0  0
  -25.0590  -12.0970   20.7090 C   0  0  0  0  0  0  0  0  0  0  0  0
  -26.6850  -13.3460   20.0880 N   0  0  0  0  0  0  0  0  0  0  0  0
  -26.3300  -12.0520   20.3180 N   0  0  0  0  0  0  0  0  0  0  0  0
  -24.3130  -10.8420   20.8850 C   0  0  0  0  0  0  0  0  0  0  0  0
  -24.7160   -9.8650   21.8210 C   0  0  0  0  0  3  0  0  0  0  0  0
  -23.9660   -8.6810   21.9880 C   0  0  0  0  0  3  0  0  0  0  0  0
  -22.8000   -8.4630   21.2170 C   0  0  0  0  0  0  0  0  0  0  0  0
  -22.4160   -9.4290   20.2700 C   0  0  0  0  0  3  0  0  0  0  0  0
  -23.1660  -10.6040   20.1010 C   0  0  0  0  0  3  0  0  0  0  0  0
  -22.0250   -7.3310   21.2920 O   0  0  0  0  0  0  0  0  0  0  0  0
  -21.8530   -6.6530   22.4720 C   0  0  0  0  0  0  0  0  0  0  0  0
  -21.2790   -7.2670   23.6070 C   0  0  0  0  0  3  0  0  0  0  0  0
  -21.0560   -6.5140   24.7780 C   0  0  0  0  0  3  0  0  0  0  0  0
  -21.3970   -5.1500   24.8150 C   0  0  0  0  0  0  0  0  0  0  0  0
  -21.9630   -4.5340   23.6840 C   0  0  0  0  0  3  0  0  0  0  0  0
  -22.1860   -5.2830   22.5150 C   0  0  0  0  0  0  0  0  0  0  0  0
  -22.7130   -4.6820   21.4210 F   0  0  0  0  0  0  0  0  0  0  0  0
  -21.1760   -4.4240   25.9360 F   0  0  0  0  0  0  0  0  0  0  0  0
  -23.2580  -13.9460   21.2040 C   0  0  0  0  0  0  0  0  0  0  0  0
  -22.5730  -13.2380   22.0930 N   0  0  0  0  0  0  0  0  0  0  0  0
  -22.8120  -14.9960   20.7430 O   0  0  0  0  0  0  0  0  0  0  0  0
  -22.9490  -12.3870   22.4840 H   0  0  0  0  0  0  0  0  0  0  0  0
  -21.6600  -13.5520   22.3900 H   0  0  0  0  0  0  0  0  0  0  0  0
  -25.8580  -15.6000   20.3090 N   0  0  0  0  0  0  0  0  0  0  0  0
  -25.1090  -16.2620   20.4810 H   0  0  0  0  0  0  0  0  0  0  0  0
  -26.6930  -16.0380   19.9370 H   0  0  0  0  0  0  0  0  0  0  0  0
  -28.4640  -24.1320   19.6470 C   0  0  0  0  0  2  0  0  0  0  0  0
  -28.5040  -25.8600   19.8960 O   0  0  0  0  0  0  0  0  0  0  0  0
  -24.6850  -31.7770   23.0560 C   0  0  0  0  0  0  0  0  0  0  0  0
  -27.4550  -26.9930   19.8610 C   0  0  0  0  0  0  0  0  0  0  0  0
  -23.5570  -30.3830   21.3710 C   0  0  0  0  0  3  0  0  0  0  0  0
  -25.0770  -28.8780   19.8830 C   0  0  0  0  0  0  0  0  0  0  0  0
  -26.1200  -30.6780   21.2360 C   0  0  0  0  0  2  0  0  0  0  0  0
  -26.2550  -29.2820   20.5240 C   0  0  0  0  0  0  0  0  0  0  0  0
  -27.4270  -28.3680   20.4800 C   0  0  0  0  0  3  0  0  0  0  0  0
  -26.2330  -26.7860   19.1730 C   0  0  0  0  0  3  0  0  0  0  0  0
  -25.1010  -27.6570   19.1840 C   0  0  0  0  0  3  0  0  0  0  0  0
  -23.8220  -29.7580   19.9710 C   0  0  0  0  0  2  0  0  0  0  0  0
  -24.8100  -30.9770   21.9420 N   0  0  0  0  0  0  0  0  0  0  0  0
  -23.5830  -31.9990   23.5860 O   0  0  0  0  0  0  0  0  0  0  0  0
  -22.9010  -29.3320   22.3070 C   0  0  0  0  0  0  0  0  0  0  0  0
  -21.5790  -29.1100   22.1780 N   0  0  0  0  0  0  0  0  0  0  0  0
  -23.5930  -28.7170   23.1210 O   0  0  0  0  0  0  0  0  0  0  0  0
  -21.0690  -29.6670   21.5080 H   0  0  0  0  0  0  0  0  0  0  0  0
  -18.2620  -27.7000   22.6530 C   0  0  0  0  0  0  0  0  0  0  0  0
  -20.8060  -28.1020   22.9170 C   0  0  0  0  0  3  0  0  0  0  0  0
  -20.9830  -26.6980   22.2930 C   0  0  0  0  0  2  0  0  0  0  0  0
  -19.8960  -26.3510   21.2690 C   0  0  0  0  0  2  0  0  0  0  0  0
  -18.5110  -26.3910   21.9220 C   0  0  0  0  0  2  0  0  0  0  0  0
  -19.3390  -28.5100   23.1050 C   0  0  0  0  0  0  0  0  0  0  0  0
  -19.0500  -29.7290   23.7550 C   0  0  0  0  0  3  0  0  0  0  0  0
  -17.7190  -30.1430   23.9550 C   0  0  0  0  0  3  0  0  0  0  0  0
  -16.6580  -29.3320   23.5160 C   0  0  0  0  0  3  0  0  0  0  0  0
  -16.9300  -28.1130   22.8710 C   0  0  0  0  0  3  0  0  0  0  0  0
  -25.9210  -32.4620   23.7130 C   0  0  0  0  0  3  0  0  0  0  0  0
  -25.5470  -33.8470   24.0630 N   0  0  0  0  0  0  0  0  0  0  0  0
  -25.8320  -34.9320   23.3310 C   0  0  0  0  0  0  0  0  0  0  0  0
  -26.4960  -34.8760   22.2910 O   0  0  0  0  0  0  0  0  0  0  0  0
  -24.9520  -33.9630   24.8700 H   0  0  0  0  0  0  0  0  0  0  0  0
  -24.0250  -36.6670   23.0540 C   0  0  0  0  0  1  0  0  0  0  0  0
  -25.3020  -36.2950   23.8240 C   0  0  0  0  0  3  0  0  0  0  0  0
  -27.4120  -37.2660   24.6240 C   0  0  0  0  0  1  0  0  0  0  0  0
  -26.2870  -37.3940   23.7020 N   0  0  0  0  0  0  0  0  0  0  0  0
  -25.8460  -38.2940   23.8640 H   0  0  0  0  0  0  0  0  0  0  0  0
  -26.4340  -31.7080   25.0020 C   0  0  1  0  0  0  0  0  0  0  0  0
  -25.3250  -31.4240   26.0440 C   0  0  0  0  0  1  0  0  0  0  0  0
  -27.0810  -30.3540   24.6330 C   0  0  0  0  0  1  0  0  0  0  0  0
  -27.5360  -32.5450   25.6940 C   0  0  0  0  0  1  0  0  0  0  0  0
  2  1  1  0
  3  1  1  0
  4  2  1  0
  5  6  1  1
  5  4  1  0
  5  3  1  0
  7 16  1  0
  7  4  2  0
  8 16  1  0
  9 14  1  0
 10 11  1  0
 10  9  1  0
 12 11  1  0
 12 21  1  0
 12 13  1  0
 14  8  1  0
 14 13  1  0
 15  8  2  0
 16 17  1  0
 18 19  2  0
 19 38  1  0
 20 19  1  0
 20 23  1  0
 21 22  1  0
 21 18  1  0
 22 20  2  0
 23 24  1  0
 24 25  2  0
 26 29  1  0
 26 25  1  0
 27 26  2  0
 28 27  1  0
 28 23  2  0
 29 30  1  0
 30 35  2  0
 30 31  1  0
 31 32  2  0
 32 33  1  0
 33 37  1  0
 34 33  2  0
 35 34  1  0
 36 35  1  0
 38 39  1  0
 39 42  1  0
 39 41  1  0
 40 38  2  0
 43 18  1  0
 43 44  1  0
 45 43  1  0
 46 47  1  0
 46  5  1  0
 48 59  2  0
 49 47  1  0
 49 54  1  0
 50 58  1  0
 50 60  1  0
 51 57  1  0
 51 53  1  0
 52 58  1  0
 53 52  1  0
 54 53  2  0
 55 56  1  0
 55 49  2  0
 56 51  2  0
 57 50  1  0
 58 48  1  0
 60 62  2  0
 61 60  1  0
 63 61  1  0
 64 73  2  0
 64 69  1  0
 65 61  1  0
 65 69  1  0
 66 65  1  0
 67 68  1  0
 67 66  1  0
 68 64  1  0
 69 70  2  0
 70 71  1  0
 72 71  2  0
 73 72  1  0
 74 48  1  0
 74 75  1  0
 74 84  1  0
 75 78  1  0
 76 80  1  0
 76 75  1  0
 77 76  2  0
 80 79  1  0
 82 80  1  0
 82 83  1  0
 82 81  1  0
 84 87  1  1
 84 85  1  0
 86 84  1  0
M  ISO  4   8 100  16 100  46 101  47 101
M  END
>  <TORSDO>  (75) 
F 18

>  <SCORE>  (75) 
-14.876

>  <name>  (75) 
75

>  <ligand_id>  (75) 
75

>  <original_smiles>  (75) 
[H]c1c([H])c([H])c2c(c1[H])C([H])([H])C([H])([H])C([H])([H])C2([H])N([H])C(=O)C1([H])N(C(=O)C([H])(N([H])C(=O)C([H])(N([H])C([H])([H])[H])C([H])([H])[H])C(C([H])([H])[H])(C([H])([H])[H])C([H])([H])[H])C([H])([H])c2c([H])c(OC([H])([H])C3(C([H])([H])[H])C([H])([H])C([H])([H])C([H])([H])C3([H])C([H])([H])N([H])C(=O)N3C([H])([H])C([H])([H])C([H])([H])C([H])(n4nc(-c5c([H])c([H])c(Oc6c([H])c([H])c(F)c([H])c6F)c([H])c5[H])c(C(=O)N([H])[H])c4N([H])[H])C3([H])[H])c([H])c([H])c2C1([H])[H]

>  <smiles>  (75) 
[H]c1c([H])c([H])c2c(c1[H])C([H])([H])C([H])([H])C([H])([H])C2([H])N([H])C(=O)C1([H])N(C(=O)C([H])(N([H])C(=O)C([H])(N([H])C([H])([H])[H])C([H])([H])[H])C(C([H])([H])[H])(C([H])([H])[H])C([H])([H])[H])C([H])([H])c2c([H])c(OC([H])([H])C3(C([H])([H])[H])C([H])([H])C([H])([H])C([H])([H])C3([H])C([H])([H])N([H])C(=O)N3C([H])([H])C([H])([H])C([H])([H])C([H])(n4nc(-c5c([H])c([H])c(Oc6c([H])c([H])c(F)c([H])c6F)c([H])c5[H])c(C(=O)N([H])[H])c4N([H])[H])C3([H])[H])c([H])c([H])c2C1([H])[H]

$$$$
76:0:0
     RDKit          3D

 93102  0  0  1  0  0  0  0  0999 V2000
  -26.5760  -23.6210   22.4990 C   0  0  0  0  0  2  0  0  0  0  0  0
  -28.0720  -23.7850   22.2540 C   0  0  0  0  0  2  0  0  0  0  0  0
  -26.3750  -24.3940   21.2040 C   0  0  0  0  0  2  0  0  0  0  0  0
  -27.8310  -24.0810   20.7420 C   0  0  2  0  0  0  0  0  0  0  0  0
  -28.7260  -21.6300   18.1840 C   0  0  0  0  0  2  0  0  0  0  0  0
  -27.6110  -22.6580   18.4260 C   0  0  0  0  0  2  0  0  0  0  0  0
  -29.1040  -21.5970   19.6760 C   0  0  0  0  0  3  0  0  0  0  0  0
  -27.9000  -22.6590   19.9330 C   0  0  0  0  0  3  0  0  0  0  0  0
  -29.1700  -20.1320   20.3260 C   0  0  0  0  0  0  0  0  0  0  0  0
  -28.8840  -19.9360   21.5080 O   0  0  0  0  0  0  0  0  0  0  0  0
  -29.6060  -18.8310   19.4790 C   0  0  0  0  0  2  0  0  0  0  0  0
  -30.5680  -17.6710   20.0800 C   0  0  0  0  0  2  0  0  0  0  0  0
  -30.9850  -15.0750   19.8000 C   0  0  0  0  0  0  0  0  0  0  0  0
  -30.8050  -12.7220   18.9410 C   0  0  0  0  0  2  0  0  0  0  0  0
  -29.8290  -12.6820   17.7430 C   0  0  0  0  0  2  0  0  0  0  0  0
  -28.3750  -12.5510   18.2390 C   0  0  0  0  0  2  0  0  0  0  0  0
  -28.0400  -13.5240   19.4020 C   0  0  0  0  0  3  0  0  0  0  0  0
  -29.1280  -13.5000   20.4970 C   0  0  0  0  0  2  0  0  0  0  0  0
  -30.3960  -13.8340   19.8330 N   0  0  0  0  0  0  0  0  0  0  0  0
  -32.1560  -15.1890   19.4200 O   0  0  0  0  0  0  0  0  0  0  0  0
  -30.1900  -16.1890   20.0240 N   0  0  0  0  0  0  0  0  0  0  0  0
  -29.2280  -15.9770   20.2570 H   0  0  0  0  0  0  0  0  0  0  0  0
  -25.7240  -14.1750   20.2760 C   0  0  0  0  0  0  0  0  0  0  0  0
  -24.6590  -13.4330   20.6920 C   0  0  0  0  0  0  0  0  0  0  0  0
  -25.0660  -12.0670   20.5990 C   0  0  0  0  0  0  0  0  0  0  0  0
  -26.7190  -13.2700   19.9560 N   0  0  0  0  0  0  0  0  0  0  0  0
  -26.3340  -11.9910   20.2120 N   0  0  0  0  0  0  0  0  0  0  0  0
  -24.3120  -10.8320   20.8030 C   0  0  0  0  0  0  0  0  0  0  0  0
  -24.7010   -9.8830   21.7760 C   0  0  0  0  0  3  0  0  0  0  0  0
  -23.9520   -8.7020   21.9640 C   0  0  0  0  0  3  0  0  0  0  0  0
  -22.7970   -8.4630   21.1800 C   0  0  0  0  0  0  0  0  0  0  0  0
  -22.4280   -9.3970   20.1970 C   0  0  0  0  0  3  0  0  0  0  0  0
  -23.1750  -10.5700   20.0090 C   0  0  0  0  0  3  0  0  0  0  0  0
  -22.0150   -7.3350   21.2790 O   0  0  0  0  0  0  0  0  0  0  0  0
  -21.8330   -6.6880   22.4740 C   0  0  0  0  0  0  0  0  0  0  0  0
  -21.2740   -7.3430   23.5930 C   0  0  0  0  0  3  0  0  0  0  0  0
  -21.0370   -6.6240   24.7830 C   0  0  0  0  0  3  0  0  0  0  0  0
  -21.3480   -5.2530   24.8510 C   0  0  0  0  0  0  0  0  0  0  0  0
  -21.8980   -4.5990   23.7360 C   0  0  0  0  0  3  0  0  0  0  0  0
  -22.1370   -5.3160   22.5490 C   0  0  0  0  0  0  0  0  0  0  0  0
  -22.6500   -4.6770   21.4690 F   0  0  0  0  0  0  0  0  0  0  0  0
  -21.1120   -4.5590   25.9890 F   0  0  0  0  0  0  0  0  0  0  0  0
  -23.3020  -13.9550   21.0580 C   0  0  0  0  0  0  0  0  0  0  0  0
  -22.6110  -13.2710   21.9590 N   0  0  0  0  0  0  0  0  0  0  0  0
  -22.8690  -14.9960   20.5670 O   0  0  0  0  0  0  0  0  0  0  0  0
  -22.9770  -12.4220   22.3710 H   0  0  0  0  0  0  0  0  0  0  0  0
  -21.6970  -13.5950   22.2410 H   0  0  0  0  0  0  0  0  0  0  0  0
  -25.9260  -15.5450   20.1280 N   0  0  0  0  0  0  0  0  0  0  0  0
  -25.1820  -16.2140   20.2900 H   0  0  0  0  0  0  0  0  0  0  0  0
  -26.7500  -15.9630   19.7160 H   0  0  0  0  0  0  0  0  0  0  0  0
  -29.9210  -25.0700   19.5130 C   0  0  0  0  0  1  0  0  0  0  0  0
  -28.6250  -25.4340   20.2720 C   0  0  0  0  0  3  0  0  0  0  0  0
  -28.1470  -26.6390   19.5170 O   0  0  0  0  0  0  0  0  0  0  0  0
  -24.5560  -31.8740   23.1200 C   0  0  0  0  0  0  0  0  0  0  0  0
  -27.0240  -27.4430   19.7700 C   0  0  0  0  0  0  0  0  0  0  0  0
  -23.2850  -30.5600   21.4590 C   0  0  0  0  0  3  0  0  0  0  0  0
  -24.6770  -29.0740   19.9100 C   0  0  0  0  0  0  0  0  0  0  0  0
  -25.8140  -30.8820   21.1920 C   0  0  0  0  0  2  0  0  0  0  0  0
  -25.8680  -29.5260   20.4910 C   0  0  0  0  0  0  0  0  0  0  0  0
  -27.0500  -28.7250   20.4120 C   0  0  0  0  0  3  0  0  0  0  0  0
  -25.8150  -27.0500   19.1630 C   0  0  0  0  0  3  0  0  0  0  0  0
  -24.6550  -27.8420   19.2350 C   0  0  0  0  0  3  0  0  0  0  0  0
  -23.4480  -29.9550   20.0390 C   0  0  0  0  0  2  0  0  0  0  0  0
  -24.5740  -31.1240   21.9810 N   0  0  0  0  0  0  0  0  0  0  0  0
  -23.4980  -32.1200   23.7130 O   0  0  0  0  0  0  0  0  0  0  0  0
  -22.6630  -29.4950   22.3930 C   0  0  0  0  0  0  0  0  0  0  0  0
  -21.3420  -29.2840   22.2730 N   0  0  0  0  0  0  0  0  0  0  0  0
  -23.3690  -28.8630   23.1820 O   0  0  0  0  0  0  0  0  0  0  0  0
  -20.8280  -29.8450   21.6070 H   0  0  0  0  0  0  0  0  0  0  0  0
  -18.0180  -27.9210   22.7150 C   0  0  0  0  0  0  0  0  0  0  0  0
  -20.5570  -28.2940   23.0190 C   0  0  0  0  0  3  0  0  0  0  0  0
  -20.7330  -26.8800   22.4210 C   0  0  0  0  0  2  0  0  0  0  0  0
  -19.6580  -26.5240   21.3900 C   0  0  0  0  0  2  0  0  0  0  0  0
  -18.2630  -26.5930   22.0200 C   0  0  0  0  0  2  0  0  0  0  0  0
  -19.0940  -28.7260   23.1700 C   0  0  0  0  0  0  0  0  0  0  0  0
  -18.8120  -29.9680   23.7790 C   0  0  0  0  0  3  0  0  0  0  0  0
  -17.4810  -30.4040   23.9410 C   0  0  0  0  0  3  0  0  0  0  0  0
  -16.4190  -29.5950   23.5030 C   0  0  0  0  0  3  0  0  0  0  0  0
  -16.6860  -28.3560   22.8940 C   0  0  0  0  0  3  0  0  0  0  0  0
  -25.8640  -32.4730   23.7230 C   0  0  0  0  0  3  0  0  0  0  0  0
  -25.5810  -33.8670   24.1050 N   0  0  0  0  0  0  0  0  0  0  0  0
  -25.9170  -34.9400   23.3750 C   0  0  0  0  0  0  0  0  0  0  0  0
  -26.5690  -34.8610   22.3310 O   0  0  0  0  0  0  0  0  0  0  0  0
  -25.0020  -34.0070   24.9220 H   0  0  0  0  0  0  0  0  0  0  0  0
  -24.2290  -36.7820   23.0890 C   0  0  0  0  0  1  0  0  0  0  0  0
  -25.4580  -36.3190   23.8870 C   0  0  0  0  0  3  0  0  0  0  0  0
  -27.6060  -37.1270   24.7550 C   0  0  0  0  0  1  0  0  0  0  0  0
  -26.5110  -37.3560   23.8170 N   0  0  0  0  0  0  0  0  0  0  0  0
  -26.1240  -38.2790   23.9960 H   0  0  0  0  0  0  0  0  0  0  0  0
  -26.4070  -31.6600   24.9620 C   0  0  1  0  0  0  0  0  0  0  0  0
  -25.3410  -31.4050   26.0520 C   0  0  0  0  0  1  0  0  0  0  0  0
  -26.9610  -30.2880   24.5130 C   0  0  0  0  0  1  0  0  0  0  0  0
  -27.5840  -32.4230   25.6150 C   0  0  0  0  0  1  0  0  0  0  0  0
  2  1  1  0
  3  1  1  0
  4  3  1  0
  4  2  1  0
  5  6  1  0
  5  7  1  0
  7  8  1  0
  7  9  1  0
  8  6  1  0
  8  4  1  0
  9 10  2  0
 11 12  1  0
 11  9  1  0
 13 19  1  0
 13 21  1  0
 14 19  1  0
 15 16  1  0
 15 14  1  0
 17 16  1  0
 17 26  1  0
 17 18  1  0
 19 18  1  0
 20 13  2  0
 21 12  1  0
 21 22  1  0
 23 24  2  0
 24 43  1  0
 25 24  1  0
 25 28  1  0
 26 27  1  0
 26 23  1  0
 27 25  2  0
 28 29  1  0
 29 30  2  0
 31 34  1  0
 31 30  1  0
 32 31  2  0
 33 32  1  0
 33 28  2  0
 34 35  1  0
 35 40  2  0
 35 36  1  0
 36 37  2  0
 37 38  1  0
 38 42  1  0
 39 38  2  0
 40 39  1  0
 41 40  1  0
 43 44  1  0
 44 47  1  0
 44 46  1  0
 45 43  2  0
 48 23  1  0
 48 49  1  0
 50 48  1  0
 52 51  1  0
  4 52  1  6
 53 55  1  0
 53 52  1  0
 54 65  2  0
 55 60  1  0
 56 64  1  0
 56 66  1  0
 57 63  1  0
 57 59  1  0
 58 64  1  0
 59 58  1  0
 60 59  2  0
 61 62  1  0
 61 55  2  0
 62 57  2  0
 63 56  1  0
 64 54  1  0
 66 68  2  0
 67 66  1  0
 69 67  1  0
 70 79  2  0
 70 75  1  0
 71 67  1  0
 71 75  1  0
 72 71  1  0
 73 74  1  0
 73 72  1  0
 74 70  1  0
 75 76  2  0
 76 77  1  0
 78 77  2  0
 79 78  1  0
 80 54  1  0
 80 81  1  0
 80 90  1  0
 81 84  1  0
 82 86  1  0
 82 81  1  0
 83 82  2  0
 86 85  1  0
 88 86  1  0
 88 89  1  0
 88 87  1  0
 90 93  1  1
 90 91  1  0
 92 90  1  0
M  ISO  4  13 100  21 100  52 101  53 101
M  END
>  <TORSDO>  (76) 
F 21

>  <SCORE>  (76) 
-11.873

>  <name>  (76) 
76

>  <ligand_id>  (76) 
76

>  <original_smiles>  (76) 
[H]c1c([H])c([H])c2c(c1[H])C([H])([H])C([H])([H])C([H])([H])C2([H])N([H])C(=O)C1([H])N(C(=O)C([H])(N([H])C(=O)C([H])(N([H])C([H])([H])[H])C([H])([H])[H])C(C([H])([H])[H])(C([H])([H])[H])C([H])([H])[H])C([H])([H])c2c([H])c(OC([H])(C([H])([H])[H])C3(C4([H])C([H])([H])C([H])([H])C4([H])C(=O)C([H])([H])C([H])([H])N([H])C(=O)N4C([H])([H])C([H])([H])C([H])([H])C([H])(n5nc(-c6c([H])c([H])c(Oc7c([H])c([H])c(F)c([H])c7F)c([H])c6[H])c(C(=O)N([H])[H])c5N([H])[H])C4([H])[H])C([H])([H])C([H])([H])C3([H])[H])c([H])c([H])c2C1([H])[H]

>  <smiles>  (76) 
[H]c1c([H])c([H])c2c(c1[H])C([H])([H])C([H])([H])C([H])([H])C2([H])N([H])C(=O)C1([H])N(C(=O)C([H])(N([H])C(=O)C([H])(N([H])C([H])([H])[H])C([H])([H])[H])C(C([H])([H])[H])(C([H])([H])[H])C([H])([H])[H])C([H])([H])c2c([H])c(OC([H])(C([H])([H])[H])C3(C4([H])C([H])([H])C([H])([H])C4([H])C(=O)C([H])([H])C([H])([H])N([H])C(=O)N4C([H])([H])C([H])([H])C([H])([H])C([H])(n5nc(-c6c([H])c([H])c(Oc7c([H])c([H])c(F)c([H])c7F)c([H])c6[H])c(C(=O)N([H])[H])c5N([H])[H])C4([H])[H])C([H])([H])C([H])([H])C3([H])[H])c([H])c([H])c2C1([H])[H]

$$$$
77:0:0
     RDKit          3D

 93102  0  0  1  0  0  0  0  0999 V2000
  -30.4450  -20.2760   20.5400 C   0  0  0  0  0  2  0  0  0  0  0  0
  -29.2730  -21.1800   18.4120 C   0  0  0  0  0  2  0  0  0  0  0  0
  -28.1680  -19.6570   20.2190 C   0  0  0  0  0  2  0  0  0  0  0  0
  -30.0420  -21.5830   19.7020 C   0  0  0  0  0  3  0  0  0  0  0  0
  -29.6020  -18.9700   20.1870 C   0  0  0  0  0  3  0  0  0  0  0  0
  -28.7230  -22.4730   19.8970 C   0  0  0  0  0  3  0  0  0  0  0  0
  -28.0700  -21.0640   19.3990 C   0  0  1  0  0  0  0  0  0  0  0  0
  -26.6980  -23.5170   21.1610 C   0  0  0  0  0  1  0  0  0  0  0  0
  -28.2260  -23.5550   21.0210 C   0  0  0  0  0  3  0  0  0  0  0  0
  -28.7220  -25.1470   21.1390 C   0  0  0  0  0  2  0  0  0  0  0  0
  -28.5200  -26.4200   20.3200 O   0  0  0  0  0  0  0  0  0  0  0  0
  -24.6770  -31.9690   23.2750 C   0  0  0  0  0  0  0  0  0  0  0  0
  -27.4040  -27.2980   20.3910 C   0  0  0  0  0  0  0  0  0  0  0  0
  -23.5360  -30.5270   21.6280 C   0  0  0  0  0  3  0  0  0  0  0  0
  -25.0430  -28.9550   20.2710 C   0  0  0  0  0  0  0  0  0  0  0  0
  -26.0820  -30.8500   21.5130 C   0  0  0  0  0  2  0  0  0  0  0  0
  -26.1950  -29.4480   20.8990 C   0  0  0  0  0  0  0  0  0  0  0  0
  -27.3820  -28.6350   20.9400 C   0  0  0  0  0  3  0  0  0  0  0  0
  -26.2320  -26.8870   19.7290 C   0  0  0  0  0  3  0  0  0  0  0  0
  -25.0700  -27.6850   19.6730 C   0  0  0  0  0  3  0  0  0  0  0  0
  -23.8000  -29.8280   20.2670 C   0  0  0  0  0  2  0  0  0  0  0  0
  -24.7820  -31.1380   22.1940 N   0  0  0  0  0  0  0  0  0  0  0  0
  -23.5760  -32.2420   23.7750 O   0  0  0  0  0  0  0  0  0  0  0  0
  -22.8570  -29.5220   22.5910 C   0  0  0  0  0  0  0  0  0  0  0  0
  -21.5370  -29.3240   22.4350 N   0  0  0  0  0  0  0  0  0  0  0  0
  -23.5210  -28.9220   23.4400 O   0  0  0  0  0  0  0  0  0  0  0  0
  -21.0570  -29.8640   21.7280 H   0  0  0  0  0  0  0  0  0  0  0  0
  -18.1680  -28.0650   22.8640 C   0  0  0  0  0  0  0  0  0  0  0  0
  -20.7130  -28.3840   23.1990 C   0  0  0  0  0  3  0  0  0  0  0  0
  -20.8590  -26.9440   22.6550 C   0  0  0  0  0  2  0  0  0  0  0  0
  -19.7940  -26.5780   21.6170 C   0  0  0  0  0  2  0  0  0  0  0  0
  -18.3910  -26.7060   22.2200 C   0  0  0  0  0  2  0  0  0  0  0  0
  -19.2590  -28.8580   23.3100 C   0  0  0  0  0  0  0  0  0  0  0  0
  -18.9980  -30.1240   23.8750 C   0  0  0  0  0  3  0  0  0  0  0  0
  -17.6810  -30.6010   23.9990 C   0  0  0  0  0  3  0  0  0  0  0  0
  -16.6030  -29.8060   23.5710 C   0  0  0  0  0  3  0  0  0  0  0  0
  -16.8480  -28.5400   23.0090 C   0  0  0  0  0  3  0  0  0  0  0  0
  -25.9320  -32.6340   23.9200 C   0  0  0  0  0  3  0  0  0  0  0  0
  -25.5900  -34.0310   24.2270 N   0  0  0  0  0  0  0  0  0  0  0  0
  -25.9170  -35.0830   23.4640 C   0  0  0  0  0  0  0  0  0  0  0  0
  -26.6040  -34.9820   22.4450 O   0  0  0  0  0  0  0  0  0  0  0  0
  -24.9840  -34.1840   25.0180 H   0  0  0  0  0  0  0  0  0  0  0  0
  -24.1630  -36.8460   23.0670 C   0  0  0  0  0  1  0  0  0  0  0  0
  -25.3990  -36.4690   23.9000 C   0  0  0  0  0  3  0  0  0  0  0  0
  -27.5030  -37.4040   24.7530 C   0  0  0  0  0  1  0  0  0  0  0  0
  -26.4140  -37.5390   23.7890 N   0  0  0  0  0  0  0  0  0  0  0  0
  -25.9890  -38.4540   23.9200 H   0  0  0  0  0  0  0  0  0  0  0  0
  -26.4300  -31.8890   25.2200 C   0  0  1  0  0  0  0  0  0  0  0  0
  -25.3140  -31.6430   26.2630 C   0  0  0  0  0  1  0  0  0  0  0  0
  -27.0530  -30.5200   24.8640 C   0  0  0  0  0  1  0  0  0  0  0  0
  -27.5440  -32.7170   25.9020 C   0  0  0  0  0  1  0  0  0  0  0  0
  -30.0200  -17.5520   20.9500 C   0  0  0  0  0  2  0  0  0  0  0  0
  -30.4740  -14.9620   20.2590 C   0  0  0  0  0  0  0  0  0  0  0  0
  -30.3060  -12.6930   19.1680 C   0  0  0  0  0  2  0  0  0  0  0  0
  -29.3170  -12.7390   17.9800 C   0  0  0  0  0  2  0  0  0  0  0  0
  -27.8690  -12.5250   18.4620 C   0  0  0  0  0  2  0  0  0  0  0  0
  -27.5230  -13.3820   19.7090 C   0  0  0  0  0  3  0  0  0  0  0  0
  -28.6220  -13.2960   20.7860 C   0  0  0  0  0  2  0  0  0  0  0  0
  -29.8720  -13.7210   20.1470 N   0  0  0  0  0  0  0  0  0  0  0  0
  -31.6710  -15.0670   19.9750 O   0  0  0  0  0  0  0  0  0  0  0  0
  -29.6770  -16.0970   20.5050 N   0  0  0  0  0  0  0  0  0  0  0  0
  -28.6940  -15.8770   20.5670 H   0  0  0  0  0  0  0  0  0  0  0  0
  -25.1580  -13.9260   20.5270 C   0  0  0  0  0  0  0  0  0  0  0  0
  -24.1150  -13.1330   20.9190 C   0  0  0  0  0  0  0  0  0  0  0  0
  -24.5970  -11.7890   20.8550 C   0  0  0  0  0  0  0  0  0  0  0  0
  -26.2040  -13.0640   20.2440 N   0  0  0  0  0  0  0  0  0  0  0  0
  -25.8770  -11.7730   20.5070 N   0  0  0  0  0  0  0  0  0  0  0  0
  -23.8930  -10.5140   21.0480 C   0  0  0  0  0  0  0  0  0  0  0  0
  -24.3540   -9.5460   21.9680 C   0  0  0  0  0  3  0  0  0  0  0  0
  -23.6470   -8.3380   22.1480 C   0  0  0  0  0  3  0  0  0  0  0  0
  -22.4670   -8.0880   21.4100 C   0  0  0  0  0  0  0  0  0  0  0  0
  -22.0270   -9.0440   20.4780 C   0  0  0  0  0  3  0  0  0  0  0  0
  -22.7330  -10.2430   20.2940 C   0  0  0  0  0  3  0  0  0  0  0  0
  -21.7300   -6.9330   21.5010 O   0  0  0  0  0  0  0  0  0  0  0  0
  -21.7020   -6.1850   22.6510 C   0  0  0  0  0  0  0  0  0  0  0  0
  -21.2700   -6.7270   23.8810 C   0  0  0  0  0  3  0  0  0  0  0  0
  -21.1920   -5.9050   25.0240 C   0  0  0  0  0  3  0  0  0  0  0  0
  -21.5350   -4.5430   24.9370 C   0  0  0  0  0  0  0  0  0  0  0  0
  -21.9610   -4.0020   23.7110 C   0  0  0  0  0  3  0  0  0  0  0  0
  -22.0410   -4.8190   22.5720 C   0  0  0  0  0  0  0  0  0  0  0  0
  -22.4310   -4.2870   21.3890 F   0  0  0  0  0  0  0  0  0  0  0  0
  -21.4530   -3.7520   26.0320 F   0  0  0  0  0  0  0  0  0  0  0  0
  -22.7210  -13.5870   21.2360 C   0  0  0  0  0  0  0  0  0  0  0  0
  -22.0250  -12.8640   22.1060 N   0  0  0  0  0  0  0  0  0  0  0  0
  -22.2580  -14.6170   20.7470 O   0  0  0  0  0  0  0  0  0  0  0  0
  -22.4130  -12.0310   22.5230 H   0  0  0  0  0  0  0  0  0  0  0  0
  -21.0910  -13.1490   22.3630 H   0  0  0  0  0  0  0  0  0  0  0  0
  -25.2970  -15.3020   20.3620 N   0  0  0  0  0  0  0  0  0  0  0  0
  -24.5170  -15.9360   20.4960 H   0  0  0  0  0  0  0  0  0  0  0  0
  -26.1100  -15.7560   19.9680 H   0  0  0  0  0  0  0  0  0  0  0  0
  -26.6510  -21.1770   18.8160 C   0  0  0  0  0  2  0  0  0  0  0  0
  -24.9380  -20.4600   17.0690 C   0  0  0  0  0  1  0  0  0  0  0  0
  -26.3570  -20.2550   17.6160 C   0  0  0  0  0  2  0  0  0  0  0  0
  2  7  1  0
  4  2  1  0
  4  6  1  0
  4  1  1  0
  5  3  1  0
  5  1  1  0
  5 52  1  0
  6  9  1  0
  7 91  1  6
  7  6  1  0
  7  3  1  0
  9 10  1  0
  9  8  1  0
 11 13  1  0
 11 10  1  0
 12 23  2  0
 13 18  1  0
 14 22  1  0
 14 24  1  0
 15 17  1  0
 16 22  1  0
 17 18  2  0
 17 16  1  0
 19 13  2  0
 20 19  1  0
 20 15  2  0
 21 15  1  0
 21 14  1  0
 22 12  1  0
 24 26  2  0
 25 24  1  0
 27 25  1  0
 28 37  2  0
 28 33  1  0
 29 25  1  0
 29 33  1  0
 30 29  1  0
 31 32  1  0
 31 30  1  0
 32 28  1  0
 33 34  2  0
 34 35  1  0
 36 35  2  0
 37 36  1  0
 38 12  1  0
 38 39  1  0
 38 48  1  0
 39 42  1  0
 40 44  1  0
 40 39  1  0
 41 40  2  0
 44 43  1  0
 46 44  1  0
 46 47  1  0
 46 45  1  0
 48 51  1  1
 48 49  1  0
 50 48  1  0
 53 61  1  0
 54 59  1  0
 55 56  1  0
 55 54  1  0
 57 56  1  0
 57 66  1  0
 57 58  1  0
 59 53  1  0
 59 58  1  0
 60 53  2  0
 61 62  1  0
 61 52  1  0
 63 64  2  0
 64 83  1  0
 65 64  1  0
 65 68  1  0
 66 67  1  0
 66 63  1  0
 67 65  2  0
 68 69  1  0
 69 70  2  0
 71 74  1  0
 71 70  1  0
 72 71  2  0
 73 72  1  0
 73 68  2  0
 74 75  1  0
 75 76  1  0
 76 77  2  0
 78 77  1  0
 78 82  1  0
 79 78  2  0
 80 75  2  0
 80 79  1  0
 81 80  1  0
 83 84  1  0
 84 87  1  0
 84 86  1  0
 85 83  2  0
 88 89  1  0
 88 63  1  0
 90 88  1  0
 92 93  1  0
 93 91  1  0
M  ISO  4  10 101  11 101  53 100  61 100
M  END
>  <TORSDO>  (77) 
F 21

>  <SCORE>  (77) 
-13.696

>  <name>  (77) 
77

>  <ligand_id>  (77) 
77

>  <original_smiles>  (77) 
[H]c1c([H])c([H])c2c(c1[H])C([H])([H])C([H])([H])C([H])([H])C2([H])N([H])C(=O)C1([H])N(C(=O)C([H])(N([H])C(=O)C([H])(N([H])C([H])([H])[H])C([H])([H])[H])C(C([H])([H])[H])(C([H])([H])[H])C([H])([H])[H])C([H])([H])c2c([H])c(OC([H])([H])C([H])(C([H])([H])[H])C3([H])C4([H])C([H])([H])C([H])(C([H])([H])N([H])C(=O)N5C([H])([H])C([H])([H])C([H])([H])C([H])(n6nc(-c7c([H])c([H])c(Oc8c([H])c([H])c(F)c([H])c8F)c([H])c7[H])c(C(=O)N([H])[H])c6N([H])[H])C5([H])[H])C([H])([H])C3(C([H])([H])C([H])([H])C([H])([H])[H])C4([H])[H])c([H])c([H])c2C1([H])[H]

>  <smiles>  (77) 
[H]c1c([H])c([H])c2c(c1[H])C([H])([H])C([H])([H])C([H])([H])C2([H])N([H])C(=O)C1([H])N(C(=O)C([H])(N([H])C(=O)C([H])(N([H])C([H])([H])[H])C([H])([H])[H])C(C([H])([H])[H])(C([H])([H])[H])C([H])([H])[H])C([H])([H])c2c([H])c(OC([H])([H])C([H])(C([H])([H])[H])C3([H])C4([H])C([H])([H])C([H])(C([H])([H])N([H])C(=O)N5C([H])([H])C([H])([H])C([H])([H])C([H])(n6nc(-c7c([H])c([H])c(Oc8c([H])c([H])c(F)c([H])c8F)c([H])c7[H])c(C(=O)N([H])[H])c6N([H])[H])C5([H])[H])C([H])([H])C3(C([H])([H])C([H])([H])C([H])([H])[H])C4([H])[H])c([H])c([H])c2C1([H])[H]

$$$$
78:0:0
     RDKit          3D

 87 96  0  0  1  0  0  0  0  0999 V2000
  -30.0570  -19.8040   19.5510 C   0  0  0  0  0  0  0  0  0  0  0  0
  -28.3040  -19.4550   20.7480 C   0  0  0  0  0  2  0  0  0  0  0  0
  -29.7740  -21.3290   20.1510 C   0  0  0  0  0  3  0  0  0  0  0  0
  -29.6350  -18.5080   20.4880 C   0  0  0  0  0  3  0  0  0  0  0  0
  -28.5280  -21.1060   20.9040 C   0  0  0  0  0  3  0  0  0  0  0  0
  -28.5800  -22.4920   19.9480 C   0  0  0  0  0  3  0  0  0  0  0  0
  -30.5930  -19.6620   18.4490 O   0  0  0  0  0  0  0  0  0  0  0  0
  -30.3100  -15.5370   20.0280 C   0  0  0  0  0  0  0  0  0  0  0  0
  -30.3090  -13.0750   19.0990 C   0  0  0  0  0  2  0  0  0  0  0  0
  -29.3380  -12.7960   17.9220 C   0  0  0  0  0  2  0  0  0  0  0  0
  -27.9240  -12.4770   18.4380 C   0  0  0  0  0  2  0  0  0  0  0  0
  -27.4990  -13.4350   19.5760 C   0  0  0  0  0  3  0  0  0  0  0  0
  -28.5970  -13.6350   20.6420 C   0  0  0  0  0  2  0  0  0  0  0  0
  -29.7590  -14.2110   19.9390 N   0  0  0  0  0  0  0  0  0  0  0  0
  -31.5380  -15.5180   19.8460 O   0  0  0  0  0  0  0  0  0  0  0  0
  -29.5270  -16.8290   20.1230 N   0  0  0  0  0  0  0  0  0  0  0  0
  -28.5510  -16.5840   20.0600 H   0  0  0  0  0  0  0  0  0  0  0  0
  -25.1700  -13.9550   20.4620 C   0  0  0  0  0  0  0  0  0  0  0  0
  -24.1320  -13.1630   20.8650 C   0  0  0  0  0  0  0  0  0  0  0  0
  -24.6080  -11.8180   20.7890 C   0  0  0  0  0  0  0  0  0  0  0  0
  -26.2050  -13.0940   20.1510 N   0  0  0  0  0  0  0  0  0  0  0  0
  -25.8850  -11.7990   20.4170 N   0  0  0  0  0  0  0  0  0  0  0  0
  -23.8980  -10.5470   20.9870 C   0  0  0  0  0  0  0  0  0  0  0  0
  -24.3580   -9.5770   21.9040 C   0  0  0  0  0  3  0  0  0  0  0  0
  -23.6440   -8.3740   22.0930 C   0  0  0  0  0  3  0  0  0  0  0  0
  -22.4550   -8.1320   21.3640 C   0  0  0  0  0  0  0  0  0  0  0  0
  -22.0130   -9.0910   20.4360 C   0  0  0  0  0  3  0  0  0  0  0  0
  -22.7280  -10.2850   20.2450 C   0  0  0  0  0  3  0  0  0  0  0  0
  -21.7100   -6.9810   21.4640 O   0  0  0  0  0  0  0  0  0  0  0  0
  -21.6770   -6.2440   22.6200 C   0  0  0  0  0  0  0  0  0  0  0  0
  -21.2080   -6.7860   23.8360 C   0  0  0  0  0  3  0  0  0  0  0  0
  -21.1240   -5.9720   24.9840 C   0  0  0  0  0  3  0  0  0  0  0  0
  -21.4990   -4.6170   24.9150 C   0  0  0  0  0  0  0  0  0  0  0  0
  -21.9610   -4.0740   23.7030 C   0  0  0  0  0  3  0  0  0  0  0  0
  -22.0460   -4.8840   22.5580 C   0  0  0  0  0  0  0  0  0  0  0  0
  -22.4720   -4.3510   21.3880 F   0  0  0  0  0  0  0  0  0  0  0  0
  -21.4130   -3.8330   26.0160 F   0  0  0  0  0  0  0  0  0  0  0  0
  -22.7460  -13.6260   21.2030 C   0  0  0  0  0  0  0  0  0  0  0  0
  -22.0600  -12.9120   22.0880 N   0  0  0  0  0  0  0  0  0  0  0  0
  -22.2810  -14.6560   20.7150 O   0  0  0  0  0  0  0  0  0  0  0  0
  -22.4510  -12.0790   22.5020 H   0  0  0  0  0  0  0  0  0  0  0  0
  -21.1310  -13.2040   22.3560 H   0  0  0  0  0  0  0  0  0  0  0  0
  -25.3100  -15.3310   20.3000 N   0  0  0  0  0  0  0  0  0  0  0  0
  -24.5390  -15.9700   20.4540 H   0  0  0  0  0  0  0  0  0  0  0  0
  -26.1230  -15.7820   19.9020 H   0  0  0  0  0  0  0  0  0  0  0  0
  -28.2150  -24.2100   20.5190 C   0  0  0  0  0  2  0  0  0  0  0  0
  -28.2910  -25.8560   20.1110 O   0  0  0  0  0  0  0  0  0  0  0  0
  -24.6580  -31.8950   23.1450 C   0  0  0  0  0  0  0  0  0  0  0  0
  -27.2570  -26.9640   20.1510 C   0  0  0  0  0  0  0  0  0  0  0  0
  -23.4780  -30.4780   21.5170 C   0  0  0  0  0  3  0  0  0  0  0  0
  -24.9400  -28.8690   20.1040 C   0  0  0  0  0  0  0  0  0  0  0  0
  -26.0460  -30.6990   21.3660 C   0  0  0  0  0  2  0  0  0  0  0  0
  -26.1310  -29.2770   20.7180 C   0  0  0  0  0  0  0  0  0  0  0  0
  -27.2830  -28.3520   20.7050 C   0  0  0  0  0  3  0  0  0  0  0  0
  -26.0260  -26.7260   19.4960 C   0  0  0  0  0  3  0  0  0  0  0  0
  -24.9180  -27.6160   19.4710 C   0  0  0  0  0  3  0  0  0  0  0  0
  -23.7150  -29.7870   20.1470 C   0  0  0  0  0  2  0  0  0  0  0  0
  -24.7500  -31.0550   22.0620 N   0  0  0  0  0  0  0  0  0  0  0  0
  -23.5650  -32.1750   23.6670 O   0  0  0  0  0  0  0  0  0  0  0  0
  -22.7930  -29.4820   22.4910 C   0  0  0  0  0  0  0  0  0  0  0  0
  -21.4630  -29.3080   22.3770 N   0  0  0  0  0  0  0  0  0  0  0  0
  -23.4680  -28.8660   23.3200 O   0  0  0  0  0  0  0  0  0  0  0  0
  -20.9700  -29.8560   21.6870 H   0  0  0  0  0  0  0  0  0  0  0  0
  -18.0930  -28.0750   22.9300 C   0  0  0  0  0  0  0  0  0  0  0  0
  -20.6550  -28.3630   23.1560 C   0  0  0  0  0  3  0  0  0  0  0  0
  -20.7570  -26.9330   22.5740 C   0  0  0  0  0  2  0  0  0  0  0  0
  -19.6440  -26.6070   21.5740 C   0  0  0  0  0  2  0  0  0  0  0  0
  -18.2700  -26.7330   22.2400 C   0  0  0  0  0  2  0  0  0  0  0  0
  -19.2110  -28.8470   23.3460 C   0  0  0  0  0  0  0  0  0  0  0  0
  -18.9870  -30.1000   23.9560 C   0  0  0  0  0  3  0  0  0  0  0  0
  -17.6790  -30.5830   24.1520 C   0  0  0  0  0  3  0  0  0  0  0  0
  -16.5760  -29.8110   23.7500 C   0  0  0  0  0  3  0  0  0  0  0  0
  -16.7840  -28.5580   23.1440 C   0  0  0  0  0  3  0  0  0  0  0  0
  -25.9190  -32.5610   23.7740 C   0  0  0  0  0  3  0  0  0  0  0  0
  -25.5870  -33.9630   24.0880 N   0  0  0  0  0  0  0  0  0  0  0  0
  -25.9140  -35.0190   23.3310 C   0  0  0  0  0  0  0  0  0  0  0  0
  -26.5860  -34.9170   22.3030 O   0  0  0  0  0  0  0  0  0  0  0  0
  -24.9870  -34.1150   24.8860 H   0  0  0  0  0  0  0  0  0  0  0  0
  -24.1830  -36.8140   22.9670 C   0  0  0  0  0  1  0  0  0  0  0  0
  -25.4200  -36.4100   23.7860 C   0  0  0  0  0  3  0  0  0  0  0  0
  -27.5390  -37.3140   24.6400 C   0  0  0  0  0  1  0  0  0  0  0  0
  -26.4500  -37.4660   23.6780 N   0  0  0  0  0  0  0  0  0  0  0  0
  -26.0380  -38.3870   23.8090 H   0  0  0  0  0  0  0  0  0  0  0  0
  -26.4230  -31.8220   25.0760 C   0  0  1  0  0  0  0  0  0  0  0  0
  -25.3180  -31.6010   26.1360 C   0  0  0  0  0  1  0  0  0  0  0  0
  -27.0220  -30.4400   24.7330 C   0  0  0  0  0  1  0  0  0  0  0  0
  -27.5590  -32.6400   25.7350 C   0  0  0  0  0  1  0  0  0  0  0  0
  1  4  1  0
  3  1  1  0
  3  5  1  0
  4 16  1  0
  4  2  1  0
  5  2  1  0
  6  3  1  0
  6 46  1  0
  6  5  1  0
  7  1  2  0
  8 16  1  0
  9 14  1  0
 10 11  1  0
 10  9  1  0
 12 11  1  0
 12 21  1  0
 12 13  1  0
 14  8  1  0
 14 13  1  0
 15  8  2  0
 17 16  1  0
 18 19  2  0
 19 38  1  0
 20 19  1  0
 20 23  1  0
 21 22  1  0
 21 18  1  0
 22 20  2  0
 23 24  1  0
 24 25  2  0
 26 29  1  0
 26 25  1  0
 27 26  2  0
 28 27  1  0
 28 23  2  0
 29 30  1  0
 30 31  1  0
 31 32  2  0
 33 32  1  0
 33 37  1  0
 34 33  2  0
 35 30  2  0
 35 34  1  0
 36 35  1  0
 38 39  1  0
 39 42  1  0
 39 41  1  0
 40 38  2  0
 43 44  1  0
 43 18  1  0
 45 43  1  0
 47 49  1  0
 47 46  1  0
 48 59  2  0
 49 54  1  0
 50 58  1  0
 50 60  1  0
 51 57  1  0
 51 53  1  0
 52 58  1  0
 53 52  1  0
 54 53  2  0
 55 49  2  0
 56 55  1  0
 56 51  2  0
 57 50  1  0
 58 48  1  0
 60 62  2  0
 61 60  1  0
 63 61  1  0
 64 73  2  0
 64 69  1  0
 65 61  1  0
 65 69  1  0
 66 65  1  0
 67 68  1  0
 67 66  1  0
 68 64  1  0
 69 70  2  0
 70 71  1  0
 72 71  2  0
 73 72  1  0
 74 48  1  0
 74 75  1  0
 74 84  1  0
 75 78  1  0
 76 80  1  0
 76 75  1  0
 77 76  2  0
 80 79  1  0
 82 80  1  0
 82 83  1  0
 82 81  1  0
 84 87  1  1
 84 85  1  0
 86 84  1  0
M  ISO  4   8 100  16 100  46 101  47 101
M  END
>  <TORSDO>  (78) 
F 17

>  <SCORE>  (78) 
-16.488

>  <name>  (78) 
78

>  <ligand_id>  (78) 
78

>  <original_smiles>  (78) 
[H]c1c([H])c([H])c2c(c1[H])C([H])([H])C([H])([H])C([H])([H])C2([H])N([H])C(=O)C1([H])N(C(=O)C([H])(N([H])C(=O)C([H])(N([H])C([H])([H])[H])C([H])([H])[H])C(C([H])([H])[H])(C([H])([H])[H])C([H])([H])[H])C([H])([H])c2c([H])c(OC([H])([H])C3([H])C4([H])C(=O)C([H])(N([H])C(=O)N5C([H])([H])C([H])([H])C([H])([H])C([H])(n6nc(-c7c([H])c([H])c(Oc8c([H])c([H])c(F)c([H])c8F)c([H])c7[H])c(C(=O)N([H])[H])c6N([H])[H])C5([H])[H])C([H])([H])C43[H])c([H])c([H])c2C1([H])[H]

>  <smiles>  (78) 
[H]c1c([H])c([H])c2c(c1[H])C([H])([H])C([H])([H])C([H])([H])C2([H])N([H])C(=O)C1([H])N(C(=O)C([H])(N([H])C(=O)C([H])(N([H])C([H])([H])[H])C([H])([H])[H])C(C([H])([H])[H])(C([H])([H])[H])C([H])([H])[H])C([H])([H])c2c([H])c(OC([H])([H])C3([H])C4([H])C(=O)C([H])(N([H])C(=O)N5C([H])([H])C([H])([H])C([H])([H])C([H])(n6nc(-c7c([H])c([H])c(Oc8c([H])c([H])c(F)c([H])c8F)c([H])c7[H])c(C(=O)N([H])[H])c6N([H])[H])C5([H])[H])C([H])([H])C43[H])c([H])c([H])c2C1([H])[H]

$$$$
79:0:0
     RDKit          3D

 90 99  0  0  1  0  0  0  0  0999 V2000
  -30.6000  -14.9200   20.3800 C   0  0  0  0  0  0  0  0  0  0  0  0
  -30.4160  -12.5930   19.4400 C   0  0  0  0  0  2  0  0  0  0  0  0
  -29.5080  -12.5870   18.1920 C   0  0  0  0  0  2  0  0  0  0  0  0
  -28.0310  -12.4240   18.5990 C   0  0  0  0  0  2  0  0  0  0  0  0
  -27.6240  -13.3560   19.7740 C   0  0  0  0  0  3  0  0  0  0  0  0
  -28.6610  -13.3490   20.9140 C   0  0  0  0  0  2  0  0  0  0  0  0
  -29.9510  -13.6990   20.3130 N   0  0  0  0  0  0  0  0  0  0  0  0
  -31.8280  -14.9280   20.2320 O   0  0  0  0  0  0  0  0  0  0  0  0
  -30.8340  -17.7690   18.4550 C   0  0  0  0  0  2  0  0  0  0  0  0
  -27.8030  -20.8820   19.9120 C   0  0  0  0  0  2  0  0  0  0  0  0
  -29.7000  -21.5870   21.3010 C   0  0  0  0  0  2  0  0  0  0  0  0
  -30.8670  -18.8990   19.5170 C   0  0  0  0  0  2  0  0  0  0  0  0
  -28.3670  -19.4030   19.6780 C   0  0  0  0  0  2  0  0  0  0  0  0
  -29.8270  -20.0030   21.5930 C   0  0  0  0  0  2  0  0  0  0  0  0
  -29.8580  -16.5910   18.7400 C   0  0  0  0  0  2  0  0  0  0  0  0
  -29.6390  -17.3400   21.0390 C   0  0  0  0  0  2  0  0  0  0  0  0
  -28.8130  -22.0750   20.1010 C   0  0  0  0  0  3  0  0  0  0  0  0
  -29.6490  -18.8980   20.4590 C   0  0  2  0  0  0  0  0  0  0  0  0
  -29.8750  -16.1100   20.1340 N   0  0  0  0  0  0  0  0  0  0  0  0
  -25.2330  -13.9620   20.4550 C   0  0  0  0  0  0  0  0  0  0  0  0
  -24.1550  -13.1970   20.8100 C   0  0  0  0  0  0  0  0  0  0  0  0
  -24.6140  -11.8450   20.8170 C   0  0  0  0  0  0  0  0  0  0  0  0
  -26.2750  -13.0740   20.2530 N   0  0  0  0  0  0  0  0  0  0  0  0
  -25.9120  -11.7970   20.5400 N   0  0  0  0  0  0  0  0  0  0  0  0
  -23.8760  -10.5890   21.0120 C   0  0  0  0  0  0  0  0  0  0  0  0
  -24.2880   -9.6280   21.9610 C   0  0  0  0  0  3  0  0  0  0  0  0
  -23.5500   -8.4380   22.1420 C   0  0  0  0  0  3  0  0  0  0  0  0
  -22.3860   -8.2010   21.3750 C   0  0  0  0  0  0  0  0  0  0  0  0
  -21.9920   -9.1500   20.4150 C   0  0  0  0  0  3  0  0  0  0  0  0
  -22.7310  -10.3310   20.2320 C   0  0  0  0  0  3  0  0  0  0  0  0
  -21.6210   -7.0620   21.4650 O   0  0  0  0  0  0  0  0  0  0  0  0
  -21.5570   -6.3280   22.6220 C   0  0  0  0  0  0  0  0  0  0  0  0
  -21.1380   -6.8970   23.8440 C   0  0  0  0  0  3  0  0  0  0  0  0
  -21.0200   -6.0900   24.9930 C   0  0  0  0  0  3  0  0  0  0  0  0
  -21.3120   -4.7130   24.9210 C   0  0  0  0  0  0  0  0  0  0  0  0
  -21.7240   -4.1440   23.7040 C   0  0  0  0  0  3  0  0  0  0  0  0
  -21.8420   -4.9490   22.5570 C   0  0  0  0  0  0  0  0  0  0  0  0
  -22.2200   -4.3910   21.3810 F   0  0  0  0  0  0  0  0  0  0  0  0
  -21.1930   -3.9360   26.0220 F   0  0  0  0  0  0  0  0  0  0  0  0
  -22.7520  -13.6850   21.0340 C   0  0  0  0  0  0  0  0  0  0  0  0
  -22.0000  -13.0150   21.8980 N   0  0  0  0  0  0  0  0  0  0  0  0
  -22.3330  -14.6980   20.4760 O   0  0  0  0  0  0  0  0  0  0  0  0
  -22.3560  -12.1990   22.3760 H   0  0  0  0  0  0  0  0  0  0  0  0
  -21.0560  -13.3210   22.0860 H   0  0  0  0  0  0  0  0  0  0  0  0
  -25.4100  -15.3280   20.2620 N   0  0  0  0  0  0  0  0  0  0  0  0
  -24.6480  -15.9910   20.3550 H   0  0  0  0  0  0  0  0  0  0  0  0
  -26.2820  -15.7580   19.9820 H   0  0  0  0  0  0  0  0  0  0  0  0
  -28.1550  -23.6080   19.9720 C   0  0  0  0  0  2  0  0  0  0  0  0
  -28.5840  -25.0060   20.7170 C   0  0  0  0  0  2  0  0  0  0  0  0
  -28.4920  -26.4360   20.1830 O   0  0  0  0  0  0  0  0  0  0  0  0
  -24.6570  -31.8990   23.2060 C   0  0  0  0  0  0  0  0  0  0  0  0
  -27.3510  -27.2800   20.2300 C   0  0  0  0  0  0  0  0  0  0  0  0
  -23.4960  -30.4850   21.5490 C   0  0  0  0  0  3  0  0  0  0  0  0
  -24.9830  -28.9260   20.1570 C   0  0  0  0  0  0  0  0  0  0  0  0
  -26.0400  -30.8090   21.4080 C   0  0  0  0  0  2  0  0  0  0  0  0
  -26.1420  -29.4190   20.7710 C   0  0  0  0  0  0  0  0  0  0  0  0
  -27.3310  -28.6120   20.7820 C   0  0  0  0  0  3  0  0  0  0  0  0
  -26.1660  -26.8530   19.5980 C   0  0  0  0  0  3  0  0  0  0  0  0
  -25.0020  -27.6540   19.5580 C   0  0  0  0  0  3  0  0  0  0  0  0
  -23.7420  -29.8030   20.1760 C   0  0  0  0  0  2  0  0  0  0  0  0
  -24.7500  -31.0860   22.1090 N   0  0  0  0  0  0  0  0  0  0  0  0
  -23.5620  -32.1660   23.7210 O   0  0  0  0  0  0  0  0  0  0  0  0
  -22.8240  -29.4680   22.5040 C   0  0  0  0  0  0  0  0  0  0  0  0
  -21.4960  -29.3030   22.3810 N   0  0  0  0  0  0  0  0  0  0  0  0
  -23.4990  -28.8290   23.3150 O   0  0  0  0  0  0  0  0  0  0  0  0
  -21.0090  -29.8690   21.7010 H   0  0  0  0  0  0  0  0  0  0  0  0
  -18.1080  -28.1410   22.9000 C   0  0  0  0  0  0  0  0  0  0  0  0
  -20.6730  -28.3630   23.1430 C   0  0  0  0  0  3  0  0  0  0  0  0
  -20.7490  -26.9420   22.5380 C   0  0  0  0  0  2  0  0  0  0  0  0
  -19.6300  -26.6550   21.5320 C   0  0  0  0  0  2  0  0  0  0  0  0
  -18.2580  -26.8040   22.1950 C   0  0  0  0  0  2  0  0  0  0  0  0
  -19.2410  -28.8810   23.3320 C   0  0  0  0  0  0  0  0  0  0  0  0
  -19.0450  -30.1340   23.9520 C   0  0  0  0  0  3  0  0  0  0  0  0
  -17.7490  -30.6460   24.1460 C   0  0  0  0  0  3  0  0  0  0  0  0
  -16.6300  -29.9040   23.7300 C   0  0  0  0  0  3  0  0  0  0  0  0
  -16.8110  -28.6540   23.1130 C   0  0  0  0  0  3  0  0  0  0  0  0
  -25.9190  -32.5480   23.8510 C   0  0  0  0  0  3  0  0  0  0  0  0
  -25.5850  -33.9400   24.1850 N   0  0  0  0  0  0  0  0  0  0  0  0
  -25.9020  -35.0030   23.4320 C   0  0  0  0  0  0  0  0  0  0  0  0
  -26.5720  -34.9140   22.3990 O   0  0  0  0  0  0  0  0  0  0  0  0
  -24.9900  -34.0830   24.9870 H   0  0  0  0  0  0  0  0  0  0  0  0
  -24.1350  -36.7640   23.0980 C   0  0  0  0  0  1  0  0  0  0  0  0
  -25.3930  -36.3820   23.8950 C   0  0  0  0  0  3  0  0  0  0  0  0
  -27.5200  -37.3070   24.7020 C   0  0  0  0  0  1  0  0  0  0  0  0
  -26.4040  -37.4540   23.7710 N   0  0  0  0  0  0  0  0  0  0  0  0
  -25.9820  -38.3660   23.9230 H   0  0  0  0  0  0  0  0  0  0  0  0
  -26.4250  -31.7800   25.1350 C   0  0  1  0  0  0  0  0  0  0  0  0
  -25.3190  -31.5310   26.1870 C   0  0  0  0  0  1  0  0  0  0  0  0
  -27.0280  -30.4100   24.7500 C   0  0  0  0  0  1  0  0  0  0  0  0
  -27.5580  -32.5860   25.8140 C   0  0  0  0  0  1  0  0  0  0  0  0
  2  7  1  0
  3  4  1  0
  3  2  1  0
  5  4  1  0
  5 23  1  0
  5  6  1  0
  7  1  1  0
  7  6  1  0
  8  1  2  0
  9 15  1  0
  9 12  1  0
 10 17  1  0
 11 14  1  0
 13 10  1  0
 18 13  1  6
 15 19  1  0
 17 48  1  0
 17 11  1  0
 18 12  1  0
 18 16  1  0
 18 14  1  0
 19  1  1  0
 19 16  1  0
 20 21  2  0
 21 22  1  0
 21 40  1  0
 22 25  1  0
 23 20  1  0
 23 24  1  0
 24 22  2  0
 25 26  1  0
 26 27  2  0
 28 31  1  0
 28 27  1  0
 29 28  2  0
 30 29  1  0
 30 25  2  0
 31 32  1  0
 32 33  1  0
 33 34  2  0
 35 34  1  0
 35 39  1  0
 36 35  2  0
 37 32  2  0
 37 36  1  0
 38 37  1  0
 40 41  1  0
 41 44  1  0
 41 43  1  0
 42 40  2  0
 45 46  1  0
 45 20  1  0
 47 45  1  0
 48 49  1  0
 50 52  1  0
 50 49  1  0
 51 62  2  0
 52 57  1  0
 53 61  1  0
 53 63  1  0
 54 60  1  0
 54 56  1  0
 55 61  1  0
 56 57  2  0
 56 55  1  0
 58 52  2  0
 59 58  1  0
 59 54  2  0
 60 53  1  0
 61 51  1  0
 63 65  2  0
 64 63  1  0
 66 64  1  0
 67 76  2  0
 67 72  1  0
 68 64  1  0
 68 72  1  0
 69 68  1  0
 70 71  1  0
 70 69  1  0
 71 67  1  0
 72 73  2  0
 73 74  1  0
 75 74  2  0
 76 75  1  0
 77 51  1  0
 77 78  1  0
 77 87  1  0
 78 81  1  0
 79 83  1  0
 79 78  1  0
 80 79  2  0
 83 82  1  0
 85 83  1  0
 85 86  1  0
 85 84  1  0
 87 90  1  1
 87 88  1  0
 89 87  1  0
M  ISO  4   1 100  19 100  49 101  50 101
M  END
>  <TORSDO>  (79) 
F 17

>  <SCORE>  (79) 
-14.836

>  <name>  (79) 
79

>  <ligand_id>  (79) 
79

>  <original_smiles>  (79) 
[H]c1c([H])c([H])c2c(c1[H])C([H])([H])C([H])([H])C([H])([H])C2([H])N([H])C(=O)C1([H])N(C(=O)C([H])(N([H])C(=O)C([H])(N([H])C([H])([H])[H])C([H])([H])[H])C(C([H])([H])[H])(C([H])([H])[H])C([H])([H])[H])C([H])([H])c2c([H])c(OC([H])([H])C([H])([H])C3([H])C([H])([H])C([H])([H])C4(C([H])([H])N(C(=O)N5C([H])([H])C([H])([H])C([H])([H])C([H])(n6nc(-c7c([H])c([H])c(Oc8c([H])c([H])c(F)c([H])c8F)c([H])c7[H])c(C(=O)N([H])[H])c6N([H])[H])C5([H])[H])C([H])([H])C([H])([H])C4([H])[H])C([H])([H])C3([H])[H])c([H])c([H])c2C1([H])[H]

>  <smiles>  (79) 
[H]c1c([H])c([H])c2c(c1[H])C([H])([H])C([H])([H])C([H])([H])C2([H])N([H])C(=O)C1([H])N(C(=O)C([H])(N([H])C(=O)C([H])(N([H])C([H])([H])[H])C([H])([H])[H])C(C([H])([H])[H])(C([H])([H])[H])C([H])([H])[H])C([H])([H])c2c([H])c(OC([H])([H])C([H])([H])C3([H])C([H])([H])C([H])([H])C4(C([H])([H])N(C(=O)N5C([H])([H])C([H])([H])C([H])([H])C([H])(n6nc(-c7c([H])c([H])c(Oc8c([H])c([H])c(F)c([H])c8F)c([H])c7[H])c(C(=O)N([H])[H])c6N([H])[H])C5([H])[H])C([H])([H])C([H])([H])C4([H])[H])C([H])([H])C3([H])[H])c([H])c([H])c2C1([H])[H]

$$$$
80:0:0
     RDKit          3D

 88 97  0  0  1  0  0  0  0  0999 V2000
  -27.4690  -21.5980   20.5070 C   0  0  0  0  0  2  0  0  0  0  0  0
  -27.9880  -18.9950   20.4890 C   0  0  0  0  0  2  0  0  0  0  0  0
  -28.1230  -20.3830   21.1390 C   0  0  0  0  0  3  0  0  0  0  0  0
  -29.5140  -20.6200   20.4720 C   0  0  0  0  0  3  0  0  0  0  0  0
  -28.7620  -21.9660   19.7890 C   0  0  0  0  0  3  0  0  0  0  0  0
  -29.4990  -18.9240   20.5010 C   0  0  0  0  0  3  0  0  0  0  0  0
  -29.1680  -23.5770   19.9540 C   0  0  0  0  0  3  0  0  0  0  0  0
  -28.1300  -24.8370   19.6090 C   0  0  0  0  0  3  0  0  0  0  0  0
  -28.3700  -26.3410   19.8570 O   0  0  0  0  0  0  0  0  0  0  0  0
  -24.6610  -31.7320   23.1690 C   0  0  0  0  0  0  0  0  0  0  0  0
  -27.2840  -27.2780   19.8470 C   0  0  0  0  0  0  0  0  0  0  0  0
  -23.4580  -30.3990   21.4780 C   0  0  0  0  0  3  0  0  0  0  0  0
  -24.9120  -28.9440   19.9430 C   0  0  0  0  0  0  0  0  0  0  0  0
  -25.9980  -30.7410   21.2820 C   0  0  0  0  0  2  0  0  0  0  0  0
  -26.0900  -29.3900   20.5570 C   0  0  0  0  0  0  0  0  0  0  0  0
  -27.2750  -28.5720   20.4960 C   0  0  0  0  0  3  0  0  0  0  0  0
  -26.0790  -26.9290   19.1950 C   0  0  0  0  0  3  0  0  0  0  0  0
  -24.9190  -27.7280   19.2450 C   0  0  0  0  0  3  0  0  0  0  0  0
  -23.6650  -29.8040   20.0590 C   0  0  0  0  0  2  0  0  0  0  0  0
  -24.7250  -30.9760   22.0310 N   0  0  0  0  0  0  0  0  0  0  0  0
  -23.5800  -31.9610   23.7320 O   0  0  0  0  0  0  0  0  0  0  0  0
  -22.8220  -29.3270   22.3980 C   0  0  0  0  0  0  0  0  0  0  0  0
  -21.5020  -29.1030   22.2570 N   0  0  0  0  0  0  0  0  0  0  0  0
  -23.5170  -28.6990   23.2010 O   0  0  0  0  0  0  0  0  0  0  0  0
  -20.9940  -29.6560   21.5810 H   0  0  0  0  0  0  0  0  0  0  0  0
  -18.1860  -27.7120   22.6690 C   0  0  0  0  0  0  0  0  0  0  0  0
  -20.7210  -28.1050   22.9900 C   0  0  0  0  0  3  0  0  0  0  0  0
  -20.9120  -26.6950   22.3860 C   0  0  0  0  0  2  0  0  0  0  0  0
  -19.8450  -26.3350   21.3460 C   0  0  0  0  0  2  0  0  0  0  0  0
  -18.4470  -26.3920   21.9650 C   0  0  0  0  0  2  0  0  0  0  0  0
  -19.2530  -28.5220   23.1400 C   0  0  0  0  0  0  0  0  0  0  0  0
  -18.9530  -29.7520   23.7660 C   0  0  0  0  0  3  0  0  0  0  0  0
  -17.6200  -30.1740   23.9220 C   0  0  0  0  0  3  0  0  0  0  0  0
  -16.5670  -29.3640   23.4610 C   0  0  0  0  0  3  0  0  0  0  0  0
  -16.8510  -28.1340   22.8400 C   0  0  0  0  0  3  0  0  0  0  0  0
  -25.9390  -32.3590   23.8040 C   0  0  0  0  0  3  0  0  0  0  0  0
  -26.4720  -31.5530   25.0520 C   0  0  1  0  0  0  0  0  0  0  0  0
  -25.3880  -31.2690   26.1190 C   0  0  0  0  0  1  0  0  0  0  0  0
  -27.0680  -30.1940   24.6160 C   0  0  0  0  0  1  0  0  0  0  0  0
  -27.6230  -32.3360   25.7290 C   0  0  0  0  0  1  0  0  0  0  0  0
  -25.6130  -33.7420   24.1870 N   0  0  0  0  0  0  0  0  0  0  0  0
  -25.9220  -34.8270   23.4630 C   0  0  0  0  0  0  0  0  0  0  0  0
  -26.5780  -34.7690   22.4200 O   0  0  0  0  0  0  0  0  0  0  0  0
  -25.0290  -33.8590   25.0000 H   0  0  0  0  0  0  0  0  0  0  0  0
  -24.1650  -36.6100   23.2060 C   0  0  0  0  0  1  0  0  0  0  0  0
  -25.4260  -36.1930   23.9790 C   0  0  0  0  0  3  0  0  0  0  0  0
  -27.5600  -37.0830   24.8080 C   0  0  0  0  0  1  0  0  0  0  0  0
  -26.4440  -37.2620   23.8840 N   0  0  0  0  0  0  0  0  0  0  0  0
  -26.0290  -38.1730   24.0620 H   0  0  0  0  0  0  0  0  0  0  0  0
  -30.3190  -17.6920   19.7610 C   0  0  0  0  0  2  0  0  0  0  0  0
  -30.7810  -15.0180   19.8570 C   0  0  0  0  0  0  0  0  0  0  0  0
  -30.5750  -12.6860   18.9290 C   0  0  0  0  0  2  0  0  0  0  0  0
  -29.5720  -12.6700   17.7560 C   0  0  0  0  0  2  0  0  0  0  0  0
  -28.1380  -12.4680   18.2780 C   0  0  0  0  0  2  0  0  0  0  0  0
  -27.8080  -13.3960   19.4770 C   0  0  0  0  0  3  0  0  0  0  0  0
  -28.9260  -13.3950   20.5400 C   0  0  0  0  0  2  0  0  0  0  0  0
  -30.1700  -13.7740   19.8590 N   0  0  0  0  0  0  0  0  0  0  0  0
  -31.9510  -15.0940   19.4660 O   0  0  0  0  0  0  0  0  0  0  0  0
  -30.0210  -16.1850   20.0740 N   0  0  0  0  0  0  0  0  0  0  0  0
  -29.0720  -16.0020   20.3630 H   0  0  0  0  0  0  0  0  0  0  0  0
  -25.4900  -13.9860   20.3910 C   0  0  0  0  0  0  0  0  0  0  0  0
  -24.4390  -13.2150   20.8020 C   0  0  0  0  0  0  0  0  0  0  0  0
  -24.8780  -11.8590   20.6900 C   0  0  0  0  0  0  0  0  0  0  0  0
  -26.4990  -13.1030   20.0490 N   0  0  0  0  0  0  0  0  0  0  0  0
  -26.1440  -11.8150   20.2940 N   0  0  0  0  0  0  0  0  0  0  0  0
  -24.1450  -10.6010   20.8790 C   0  0  0  0  0  0  0  0  0  0  0  0
  -24.5610   -9.6350   21.8230 C   0  0  0  0  0  3  0  0  0  0  0  0
  -23.8270   -8.4430   22.0010 C   0  0  0  0  0  3  0  0  0  0  0  0
  -22.6590   -8.2080   21.2350 C   0  0  0  0  0  0  0  0  0  0  0  0
  -22.2620   -9.1600   20.2800 C   0  0  0  0  0  3  0  0  0  0  0  0
  -22.9980  -10.3450   20.1020 C   0  0  0  0  0  3  0  0  0  0  0  0
  -21.8980   -7.0680   21.3230 O   0  0  0  0  0  0  0  0  0  0  0  0
  -21.7520   -6.3870   22.5060 C   0  0  0  0  0  0  0  0  0  0  0  0
  -21.2100   -7.0010   23.6550 C   0  0  0  0  0  3  0  0  0  0  0  0
  -21.0120   -6.2460   24.8290 C   0  0  0  0  0  3  0  0  0  0  0  0
  -21.3470   -4.8790   24.8520 C   0  0  0  0  0  0  0  0  0  0  0  0
  -21.8860   -4.2660   23.7080 C   0  0  0  0  0  3  0  0  0  0  0  0
  -22.0850   -5.0180   22.5370 C   0  0  0  0  0  0  0  0  0  0  0  0
  -22.5810   -4.4160   21.4290 F   0  0  0  0  0  0  0  0  0  0  0  0
  -21.1520   -4.1520   25.9770 F   0  0  0  0  0  0  0  0  0  0  0  0
  -23.0700  -13.7000   21.1830 C   0  0  0  0  0  0  0  0  0  0  0  0
  -22.3940  -12.9850   22.0750 N   0  0  0  0  0  0  0  0  0  0  0  0
  -22.6140  -14.7460   20.7240 O   0  0  0  0  0  0  0  0  0  0  0  0
  -22.7780  -12.1360   22.4630 H   0  0  0  0  0  0  0  0  0  0  0  0
  -21.4770  -13.2890   22.3720 H   0  0  0  0  0  0  0  0  0  0  0  0
  -25.6660  -15.3610   20.2520 N   0  0  0  0  0  0  0  0  0  0  0  0
  -24.9200  -16.0230   20.4350 H   0  0  0  0  0  0  0  0  0  0  0  0
  -26.4880  -15.7980   19.8560 H   0  0  0  0  0  0  0  0  0  0  0  0
  1  3  1  0
  2  6  1  0
  3  2  1  0
  4  6  1  0
  4  3  1  0
  5  7  1  0
  5  4  1  0
  5  1  1  0
  8  9  1  0
  8  7  2  0
 10 21  2  0
 10 36  1  0
 11  9  1  0
 11 16  1  0
 12 20  1  0
 12 22  1  0
 13 19  1  0
 13 15  1  0
 14 20  1  0
 15 14  1  0
 16 15  2  0
 17 18  1  0
 17 11  2  0
 18 13  2  0
 19 12  1  0
 20 10  1  0
 22 24  2  0
 23 22  1  0
 23 27  1  0
 25 23  1  0
 26 35  2  0
 26 31  1  0
 27 31  1  0
 28 27  1  0
 29 30  1  0
 29 28  1  0
 30 26  1  0
 31 32  2  0
 32 33  1  0
 34 33  2  0
 35 34  1  0
 36 41  1  0
 36 37  1  0
 37 40  1  1
 37 38  1  0
 39 37  1  0
 41 44  1  0
 42 46  1  0
 42 41  1  0
 43 42  2  0
 45 46  1  0
 48 46  1  0
 48 49  1  0
 48 47  1  0
 50 59  1  0
 50  6  1  0
 51 57  1  0
 51 59  1  0
 52 57  1  0
 53 54  1  0
 53 52  1  0
 54 55  1  0
 55 64  1  0
 55 56  1  0
 57 56  1  0
 58 51  2  0
 59 60  1  0
 61 62  2  0
 62 81  1  0
 63 62  1  0
 63 66  1  0
 64 65  1  0
 64 61  1  0
 65 63  2  0
 66 67  1  0
 67 68  2  0
 69 72  1  0
 69 68  1  0
 70 69  2  0
 71 70  1  0
 71 66  2  0
 72 73  1  0
 73 78  2  0
 73 74  1  0
 74 75  2  0
 75 76  1  0
 76 80  1  0
 77 76  2  0
 78 77  1  0
 79 78  1  0
 81 82  1  0
 82 85  1  0
 82 84  1  0
 83 81  2  0
 86 61  1  0
 86 87  1  0
 88 86  1  0
M  ISO  4   8 101   9 101  51 100  59 100
M  END
>  <TORSDO>  (80) 
F 19

>  <SCORE>  (80) 
-12.918

>  <name>  (80) 
80

>  <ligand_id>  (80) 
80

>  <original_smiles>  (80) 
[H]c1c([H])c([H])c2c(c1[H])C([H])([H])C([H])([H])C([H])([H])C2([H])N([H])C(=O)C1([H])N(C(=O)C([H])(N([H])C(=O)C([H])(N([H])C([H])([H])[H])C([H])([H])[H])C(C([H])([H])[H])(C([H])([H])[H])C([H])([H])[H])C([H])([H])c2c([H])c(OC([H])([H])C([H])([H])C3([H])C([H])([H])C4([H])C([H])([H])C([H])(C([H])([H])N([H])C(=O)N5C([H])([H])C([H])([H])C([H])([H])C([H])(n6nc(-c7c([H])c([H])c(Oc8c([H])c([H])c(F)c([H])c8F)c([H])c7[H])c(C(=O)N([H])[H])c6N([H])[H])C5([H])[H])C34[H])c([H])c([H])c2C1([H])[H]

>  <smiles>  (80) 
[H]c1c([H])c([H])c2c(c1[H])C([H])([H])C([H])([H])C([H])([H])C2([H])N([H])C(=O)C1([H])N(C(=O)C([H])(N([H])C(=O)C([H])(N([H])C([H])([H])[H])C([H])([H])[H])C(C([H])([H])[H])(C([H])([H])[H])C([H])([H])[H])C([H])([H])c2c([H])c(OC([H])([H])C([H])([H])C3([H])C([H])([H])C4([H])C([H])([H])C([H])(C([H])([H])N([H])C(=O)N5C([H])([H])C([H])([H])C([H])([H])C([H])(n6nc(-c7c([H])c([H])c(Oc8c([H])c([H])c(F)c([H])c8F)c([H])c7[H])c(C(=O)N([H])[H])c6N([H])[H])C5([H])[H])C34[H])c([H])c([H])c2C1([H])[H]

$$$$
81:0:0
     RDKit          3D

 94102  0  0  1  0  0  0  0  0999 V2000
  -31.1400  -19.9860   22.1600 C   0  0  0  0  0  2  0  0  0  0  0  0
  -31.1500  -20.2840   19.6540 C   0  0  0  0  0  2  0  0  0  0  0  0
  -29.9110  -20.9210   22.2040 C   0  0  0  0  0  2  0  0  0  0  0  0
  -29.9400  -21.2360   19.8110 C   0  0  0  0  0  2  0  0  0  0  0  0
  -31.3820  -19.2520   20.8070 C   0  0  1  0  0  0  0  0  0  0  0  0
  -29.9710  -21.9360   21.1190 N   0  0  1  0  0  4  0  0  0  0  0  0
  -30.8690  -22.3890   21.2050 H   0  0  0  0  0  0  0  0  0  0  0  0
  -32.8890  -18.8530   20.7790 C   0  0  0  0  0  2  0  0  0  0  0  0
  -34.9000  -17.9200   19.5180 C   0  0  0  0  0  1  0  0  0  0  0  0
  -33.3780  -18.1060   19.5220 C   0  0  0  0  0  2  0  0  0  0  0  0
  -30.4680  -17.9770   20.6380 C   0  0  0  0  0  3  0  0  0  0  0  0
  -30.7170  -16.7880   21.6220 C   0  0  0  0  0  3  0  0  0  0  0  0
  -30.6820  -14.5440   20.4880 C   0  0  0  0  0  0  0  0  0  0  0  0
  -30.3450  -12.4220   19.2680 C   0  0  0  0  0  2  0  0  0  0  0  0
  -29.3960  -12.6410   18.0740 C   0  0  0  0  0  2  0  0  0  0  0  0
  -27.9270  -12.4880   18.5110 C   0  0  0  0  0  2  0  0  0  0  0  0
  -27.5950  -13.3060   19.7880 C   0  0  0  0  0  3  0  0  0  0  0  0
  -28.6580  -13.0790   20.8870 C   0  0  0  0  0  2  0  0  0  0  0  0
  -29.9790  -13.3910   20.3150 N   0  0  0  0  0  0  0  0  0  0  0  0
  -31.7750  -14.7390   19.9530 O   0  0  0  0  0  0  0  0  0  0  0  0
  -30.0960  -15.5090   21.2250 N   0  0  0  0  0  0  0  0  0  0  0  0
  -29.1890  -15.2910   21.6150 H   0  0  0  0  0  0  0  0  0  0  0  0
  -25.1920  -13.8890   20.4980 C   0  0  0  0  0  0  0  0  0  0  0  0
  -24.1320  -13.1070   20.8700 C   0  0  0  0  0  0  0  0  0  0  0  0
  -24.6060  -11.7590   20.8410 C   0  0  0  0  0  0  0  0  0  0  0  0
  -26.2460  -13.0180   20.2690 N   0  0  0  0  0  0  0  0  0  0  0  0
  -25.8960  -11.7320   20.5320 N   0  0  0  0  0  0  0  0  0  0  0  0
  -23.8910  -10.4900   21.0350 C   0  0  0  0  0  0  0  0  0  0  0  0
  -24.3370   -9.5270   21.9660 C   0  0  0  0  0  3  0  0  0  0  0  0
  -23.6220   -8.3230   22.1470 C   0  0  0  0  0  3  0  0  0  0  0  0
  -22.4480   -8.0740   21.3970 C   0  0  0  0  0  0  0  0  0  0  0  0
  -22.0220   -9.0270   20.4560 C   0  0  0  0  0  3  0  0  0  0  0  0
  -22.7370  -10.2220   20.2720 C   0  0  0  0  0  3  0  0  0  0  0  0
  -21.7040   -6.9230   21.4890 O   0  0  0  0  0  0  0  0  0  0  0  0
  -21.6720   -6.1760   22.6390 C   0  0  0  0  0  0  0  0  0  0  0  0
  -21.2580   -6.7250   23.8720 C   0  0  0  0  0  3  0  0  0  0  0  0
  -21.1730   -5.9040   25.0150 C   0  0  0  0  0  3  0  0  0  0  0  0
  -21.4910   -4.5360   24.9250 C   0  0  0  0  0  0  0  0  0  0  0  0
  -21.8980   -3.9870   23.6960 C   0  0  0  0  0  3  0  0  0  0  0  0
  -21.9850   -4.8050   22.5560 C   0  0  0  0  0  0  0  0  0  0  0  0
  -22.3570   -4.2650   21.3700 F   0  0  0  0  0  0  0  0  0  0  0  0
  -21.4020   -3.7450   26.0200 F   0  0  0  0  0  0  0  0  0  0  0  0
  -22.7300  -13.5710   21.1440 C   0  0  0  0  0  0  0  0  0  0  0  0
  -22.0090  -12.8670   22.0100 N   0  0  0  0  0  0  0  0  0  0  0  0
  -22.2820  -14.5940   20.6260 O   0  0  0  0  0  0  0  0  0  0  0  0
  -22.3830  -12.0400   22.4510 H   0  0  0  0  0  0  0  0  0  0  0  0
  -21.0690  -13.1600   22.2360 H   0  0  0  0  0  0  0  0  0  0  0  0
  -25.3430  -15.2600   20.3180 N   0  0  0  0  0  0  0  0  0  0  0  0
  -24.5720  -15.9090   20.4240 H   0  0  0  0  0  0  0  0  0  0  0  0
  -26.1930  -15.7070   19.9940 H   0  0  0  0  0  0  0  0  0  0  0  0
  -28.9450  -23.0160   21.2700 C   0  0  0  0  0  2  0  0  0  0  0  0
  -29.2860  -24.3760   20.5850 C   0  0  0  0  0  2  0  0  0  0  0  0
  -28.1960  -25.4410   20.8700 C   0  0  0  0  0  2  0  0  0  0  0  0
  -28.3920  -26.7290   20.2410 O   0  0  0  0  0  0  0  0  0  0  0  0
  -24.6010  -31.9700   23.2620 C   0  0  0  0  0  0  0  0  0  0  0  0
  -27.2490  -27.5060   20.2070 C   0  0  0  0  0  0  0  0  0  0  0  0
  -23.3980  -30.5580   21.6270 C   0  0  0  0  0  3  0  0  0  0  0  0
  -24.8550  -29.0210   20.2060 C   0  0  0  0  0  0  0  0  0  0  0  0
  -25.9250  -30.9190   21.4280 C   0  0  0  0  0  2  0  0  0  0  0  0
  -26.0150  -29.5460   20.7920 C   0  0  0  0  0  0  0  0  0  0  0  0
  -27.2170  -28.7980   20.7890 C   0  0  0  0  0  3  0  0  0  0  0  0
  -26.0770  -27.0120   19.5940 C   0  0  0  0  0  3  0  0  0  0  0  0
  -24.8830  -27.7540   19.6000 C   0  0  0  0  0  3  0  0  0  0  0  0
  -23.6090  -29.8760   20.2500 C   0  0  0  0  0  2  0  0  0  0  0  0
  -24.6590  -31.1640   22.1640 N   0  0  0  0  0  0  0  0  0  0  0  0
  -23.5200  -32.2420   23.8010 O   0  0  0  0  0  0  0  0  0  0  0  0
  -22.7490  -29.5380   22.5920 C   0  0  0  0  0  0  0  0  0  0  0  0
  -21.4270  -29.3460   22.4610 N   0  0  0  0  0  0  0  0  0  0  0  0
  -23.4340  -28.9250   23.4150 O   0  0  0  0  0  0  0  0  0  0  0  0
  -20.9350  -29.8950   21.7690 H   0  0  0  0  0  0  0  0  0  0  0  0
  -18.0600  -28.1230   22.9430 C   0  0  0  0  0  0  0  0  0  0  0  0
  -20.6130  -28.4080   23.2340 C   0  0  0  0  0  3  0  0  0  0  0  0
  -20.7350  -26.9720   22.6740 C   0  0  0  0  0  2  0  0  0  0  0  0
  -19.6450  -26.6280   21.6540 C   0  0  0  0  0  2  0  0  0  0  0  0
  -18.2550  -26.7670   22.2830 C   0  0  0  0  0  2  0  0  0  0  0  0
  -19.1670  -28.9000   23.3740 C   0  0  0  0  0  0  0  0  0  0  0  0
  -18.9320  -30.1680   23.9480 C   0  0  0  0  0  3  0  0  0  0  0  0
  -17.6220  -30.6600   24.0950 C   0  0  0  0  0  3  0  0  0  0  0  0
  -16.5290  -29.8800   23.6820 C   0  0  0  0  0  3  0  0  0  0  0  0
  -16.7480  -28.6140   23.1110 C   0  0  0  0  0  3  0  0  0  0  0  0
  -25.8870  -32.6070   23.8760 C   0  0  0  0  0  3  0  0  0  0  0  0
  -25.5750  -34.0050   24.2020 N   0  0  0  0  0  0  0  0  0  0  0  0
  -25.9130  -35.0550   23.4430 C   0  0  0  0  0  0  0  0  0  0  0  0
  -26.5900  -34.9490   22.4160 O   0  0  0  0  0  0  0  0  0  0  0  0
  -24.9760  -34.1620   24.9990 H   0  0  0  0  0  0  0  0  0  0  0  0
  -24.1910  -36.8480   23.0620 C   0  0  0  0  0  1  0  0  0  0  0  0
  -25.4200  -36.4440   23.8920 C   0  0  0  0  0  3  0  0  0  0  0  0
  -27.5440  -37.3250   24.7520 C   0  0  0  0  0  1  0  0  0  0  0  0
  -26.4540  -37.4970   23.7940 N   0  0  0  0  0  0  0  0  0  0  0  0
  -26.0470  -38.4160   23.9400 H   0  0  0  0  0  0  0  0  0  0  0  0
  -26.4110  -31.8410   25.1520 C   0  0  1  0  0  0  0  0  0  0  0  0
  -25.3210  -31.5990   26.2230 C   0  0  0  0  0  1  0  0  0  0  0  0
  -26.9990  -30.4640   24.7590 C   0  0  0  0  0  1  0  0  0  0  0  0
  -27.5580  -32.6410   25.8110 C   0  0  0  0  0  1  0  0  0  0  0  0
  1  3  1  0
  2  4  1  0
  2  5  1  0
  4  6  1  0
  5 11  1  0
  5  1  1  0
  6  7  1  1
  6 51  1  0
  6  3  1  0
  5  8  1  1
  9 10  1  0
 10  8  1  0
 11 12  2  0
 13 21  1  0
 14 19  1  0
 15 16  1  0
 15 14  1  0
 17 16  1  0
 17 26  1  0
 17 18  1  0
 19 13  1  0
 19 18  1  0
 20 13  2  0
 21 22  1  0
 21 12  1  0
 23 24  2  0
 24 43  1  0
 25 24  1  0
 25 28  1  0
 26 23  1  0
 26 27  1  0
 27 25  2  0
 28 29  1  0
 29 30  2  0
 31 34  1  0
 31 30  1  0
 32 31  2  0
 33 32  1  0
 33 28  2  0
 34 35  1  0
 35 36  1  0
 36 37  2  0
 38 37  1  0
 38 42  1  0
 39 38  2  0
 40 35  2  0
 40 39  1  0
 41 40  1  0
 43 44  1  0
 44 47  1  0
 44 46  1  0
 45 43  2  0
 48 49  1  0
 48 23  1  0
 50 48  1  0
 52 53  1  0
 52 51  1  0
 54 53  1  0
 55 66  2  0
 56 54  1  0
 56 61  1  0
 57 65  1  0
 57 67  1  0
 58 64  1  0
 58 60  1  0
 59 65  1  0
 60 59  1  0
 61 60  2  0
 62 63  1  0
 62 56  2  0
 63 58  2  0
 64 57  1  0
 65 55  1  0
 67 69  2  0
 68 67  1  0
 70 68  1  0
 71 80  2  0
 71 76  1  0
 72 68  1  0
 72 76  1  0
 73 72  1  0
 74 75  1  0
 74 73  1  0
 75 71  1  0
 76 77  2  0
 77 78  1  0
 79 78  2  0
 80 79  1  0
 81 55  1  0
 81 82  1  0
 81 91  1  0
 82 85  1  0
 83 87  1  0
 83 82  1  0
 84 83  2  0
 87 86  1  0
 89 87  1  0
 89 90  1  0
 89 88  1  0
 91 94  1  1
 91 92  1  0
 93 91  1  0
M  ISO  4  13 100  21 100  53 101  54 101
M  END
>  <TORSDO>  (81) 
F 23

>  <SCORE>  (81) 
-13.043

>  <name>  (81) 
81

>  <ligand_id>  (81) 
81

>  <original_smiles>  (81) 
[H]c1c([H])c([H])c2c(c1[H])C([H])([H])C([H])([H])C([H])([H])C2([H])N([H])C(=O)C1([H])N(C(=O)C([H])(N([H])C(=O)C([H])(N([H])C([H])([H])[H])C([H])([H])[H])C(C([H])([H])[H])(C([H])([H])[H])C([H])([H])[H])C([H])([H])c2c([H])c(OC([H])([H])C([H])([H])C([H])([H])[N+]3([H])C([H])([H])C([H])([H])C(C([H])([H])C([H])([H])N([H])C(=O)N4C([H])([H])C([H])([H])C([H])([H])C([H])(n5nc(-c6c([H])c([H])c(Oc7c([H])c([H])c(F)c([H])c7F)c([H])c6[H])c(C(=O)N([H])[H])c5N([H])[H])C4([H])[H])(C([H])([H])C([H])([H])C([H])([H])[H])C([H])([H])C3([H])[H])c([H])c([H])c2C1([H])[H]

>  <smiles>  (81) 
[H]c1c([H])c([H])c2c(c1[H])C([H])([H])C([H])([H])C([H])([H])C2([H])N([H])C(=O)C1([H])N(C(=O)C([H])(N([H])C(=O)C([H])(N([H])C([H])([H])[H])C([H])([H])[H])C(C([H])([H])[H])(C([H])([H])[H])C([H])([H])[H])C([H])([H])c2c([H])c(OC([H])([H])C([H])([H])C([H])([H])[N+]3([H])C([H])([H])C([H])([H])C(C([H])([H])C([H])([H])N([H])C(=O)N4C([H])([H])C([H])([H])C([H])([H])C([H])(n5nc(-c6c([H])c([H])c(Oc7c([H])c([H])c(F)c([H])c7F)c([H])c6[H])c(C(=O)N([H])[H])c5N([H])[H])C4([H])[H])(C([H])([H])C([H])([H])C([H])([H])[H])C([H])([H])C3([H])[H])c([H])c([H])c2C1([H])[H]

$$$$
82:0:0
     RDKit          3D

 92101  0  0  1  0  0  0  0  0999 V2000
  -28.7630  -21.5130   19.4780 C   0  0  0  0  0  3  0  0  0  0  0  0
  -27.5780  -21.9400   19.0040 C   0  0  0  0  0  3  0  0  0  0  0  0
  -29.1740  -20.0480   19.4900 C   0  0  0  0  0  2  0  0  0  0  0  0
  -31.0130  -20.3120   22.2820 C   0  0  0  0  0  2  0  0  0  0  0  0
  -29.4900  -20.3170   22.1430 C   0  0  0  0  0  2  0  0  0  0  0  0
  -29.4320  -17.9450   21.0100 C   0  0  0  0  0  2  0  0  0  0  0  0
  -31.1010  -19.2850   21.1480 C   0  0  0  0  0  3  0  0  0  0  0  0
  -30.9140  -17.7740   21.3600 C   0  0  0  0  0  3  0  0  0  0  0  0
  -29.5980  -19.4670   20.8540 C   0  0  1  0  0  0  0  0  0  0  0  0
  -31.7550  -16.8100   20.5250 C   0  0  0  0  0  2  0  0  0  0  0  0
  -31.6700  -14.4370   19.8290 C   0  0  0  0  0  0  0  0  0  0  0  0
  -31.1960  -12.2000   18.9080 C   0  0  0  0  0  2  0  0  0  0  0  0
  -30.2270  -12.3120   17.7150 C   0  0  0  0  0  2  0  0  0  0  0  0
  -28.7650  -12.2920   18.2000 C   0  0  0  0  0  2  0  0  0  0  0  0
  -28.5080  -13.2970   19.3550 C   0  0  0  0  0  3  0  0  0  0  0  0
  -29.5840  -13.1610   20.4570 C   0  0  0  0  0  2  0  0  0  0  0  0
  -30.9100  -13.3090   19.8300 N   0  0  0  0  0  0  0  0  0  0  0  0
  -32.7120  -14.5470   19.1780 O   0  0  0  0  0  0  0  0  0  0  0  0
  -31.1900  -15.4610   20.5440 N   0  0  0  0  0  0  0  0  0  0  0  0
  -30.3460  -15.3100   21.0740 H   0  0  0  0  0  0  0  0  0  0  0  0
  -26.2110  -14.1250   20.1710 C   0  0  0  0  0  0  0  0  0  0  0  0
  -25.0950  -13.4560   20.5960 C   0  0  0  0  0  0  0  0  0  0  0  0
  -25.4280  -12.0680   20.5510 C   0  0  0  0  0  0  0  0  0  0  0  0
  -27.1580  -13.1520   19.8980 N   0  0  0  0  0  0  0  0  0  0  0  0
  -26.6910  -11.9090   20.1810 N   0  0  0  0  0  0  0  0  0  0  0  0
  -24.5980  -10.8780   20.7840 C   0  0  0  0  0  0  0  0  0  0  0  0
  -24.9520   -9.9070   21.7470 C   0  0  0  0  0  3  0  0  0  0  0  0
  -24.1280   -8.7820   21.9660 C   0  0  0  0  0  3  0  0  0  0  0  0
  -22.9350   -8.6220   21.2230 C   0  0  0  0  0  0  0  0  0  0  0  0
  -22.5980   -9.5790   20.2500 C   0  0  0  0  0  3  0  0  0  0  0  0
  -23.4220  -10.6950   20.0290 C   0  0  0  0  0  3  0  0  0  0  0  0
  -22.0870   -7.5480   21.3510 O   0  0  0  0  0  0  0  0  0  0  0  0
  -21.9390   -6.8850   22.5440 C   0  0  0  0  0  0  0  0  0  0  0  0
  -21.5250   -7.5470   23.7190 C   0  0  0  0  0  3  0  0  0  0  0  0
  -21.3170   -6.8150   24.9050 C   0  0  0  0  0  3  0  0  0  0  0  0
  -21.5150   -5.4210   24.9150 C   0  0  0  0  0  0  0  0  0  0  0  0
  -21.9210   -4.7580   23.7440 C   0  0  0  0  0  3  0  0  0  0  0  0
  -22.1290   -5.4880   22.5610 C   0  0  0  0  0  0  0  0  0  0  0  0
  -22.5020   -4.8410   21.4300 F   0  0  0  0  0  0  0  0  0  0  0  0
  -21.3070   -4.7150   26.0510 F   0  0  0  0  0  0  0  0  0  0  0  0
  -23.7620  -14.0610   20.9340 C   0  0  0  0  0  0  0  0  0  0  0  0
  -23.0290  -13.4500   21.8580 N   0  0  0  0  0  0  0  0  0  0  0  0
  -23.3870  -15.1110   20.4150 O   0  0  0  0  0  0  0  0  0  0  0  0
  -23.3460  -12.6020   22.3020 H   0  0  0  0  0  0  0  0  0  0  0  0
  -22.1360  -13.8380   22.1250 H   0  0  0  0  0  0  0  0  0  0  0  0
  -26.4910  -15.4740   19.9740 N   0  0  0  0  0  0  0  0  0  0  0  0
  -25.7920  -16.1950   20.1110 H   0  0  0  0  0  0  0  0  0  0  0  0
  -27.3660  -15.8310   19.6110 H   0  0  0  0  0  0  0  0  0  0  0  0
  -27.0640  -23.3690   18.9060 C   0  0  0  0  0  2  0  0  0  0  0  0
  -28.1210  -24.5000   18.8620 C   0  0  0  0  0  2  0  0  0  0  0  0
  -28.2370  -25.3270   20.1610 C   0  0  0  0  0  2  0  0  0  0  0  0
  -28.3040  -26.7370   19.9110 O   0  0  0  0  0  0  0  0  0  0  0  0
  -24.5420  -31.7880   23.1980 C   0  0  0  0  0  0  0  0  0  0  0  0
  -27.1190  -27.4400   19.9450 C   0  0  0  0  0  0  0  0  0  0  0  0
  -23.2990  -30.4320   21.5450 C   0  0  0  0  0  3  0  0  0  0  0  0
  -24.7200  -28.9330   20.0490 C   0  0  0  0  0  0  0  0  0  0  0  0
  -25.8180  -30.7980   21.3020 C   0  0  0  0  0  2  0  0  0  0  0  0
  -25.8910  -29.4460   20.6230 C   0  0  0  0  0  0  0  0  0  0  0  0
  -27.0940  -28.7100   20.5630 C   0  0  0  0  0  3  0  0  0  0  0  0
  -25.9290  -26.9390   19.3710 C   0  0  0  0  0  3  0  0  0  0  0  0
  -24.7330  -27.6770   19.4220 C   0  0  0  0  0  3  0  0  0  0  0  0
  -23.4760  -29.7870   20.1440 C   0  0  0  0  0  2  0  0  0  0  0  0
  -24.5730  -31.0180   22.0740 N   0  0  0  0  0  0  0  0  0  0  0  0
  -23.4750  -32.0450   23.7700 O   0  0  0  0  0  0  0  0  0  0  0  0
  -22.6680  -29.3860   22.4920 C   0  0  0  0  0  0  0  0  0  0  0  0
  -21.3480  -29.1770   22.3590 N   0  0  0  0  0  0  0  0  0  0  0  0
  -23.3630  -28.7650   23.3010 O   0  0  0  0  0  0  0  0  0  0  0  0
  -20.8470  -29.7330   21.6800 H   0  0  0  0  0  0  0  0  0  0  0  0
  -18.0110  -27.8660   22.7930 C   0  0  0  0  0  0  0  0  0  0  0  0
  -20.5510  -28.2140   23.1170 C   0  0  0  0  0  3  0  0  0  0  0  0
  -20.7150  -26.7850   22.5480 C   0  0  0  0  0  2  0  0  0  0  0  0
  -19.6470  -26.4220   21.5110 C   0  0  0  0  0  2  0  0  0  0  0  0
  -18.2470  -26.5210   22.1260 C   0  0  0  0  0  2  0  0  0  0  0  0
  -19.0920  -28.6680   23.2440 C   0  0  0  0  0  0  0  0  0  0  0  0
  -18.8190  -29.9260   23.8240 C   0  0  0  0  0  3  0  0  0  0  0  0
  -17.4950  -30.3840   23.9590 C   0  0  0  0  0  3  0  0  0  0  0  0
  -16.4270  -29.5810   23.5240 C   0  0  0  0  0  3  0  0  0  0  0  0
  -16.6840  -28.3240   22.9490 C   0  0  0  0  0  3  0  0  0  0  0  0
  -25.8440  -32.4010   23.8040 C   0  0  0  0  0  3  0  0  0  0  0  0
  -25.5450  -33.7880   24.1860 N   0  0  0  0  0  0  0  0  0  0  0  0
  -25.8740  -34.8640   23.4600 C   0  0  0  0  0  0  0  0  0  0  0  0
  -26.5340  -34.7950   22.4190 O   0  0  0  0  0  0  0  0  0  0  0  0
  -24.9600  -33.9170   24.9990 H   0  0  0  0  0  0  0  0  0  0  0  0
  -24.1530  -36.6760   23.1750 C   0  0  0  0  0  1  0  0  0  0  0  0
  -25.3940  -36.2380   23.9690 C   0  0  0  0  0  3  0  0  0  0  0  0
  -27.5350  -37.0780   24.8270 C   0  0  0  0  0  1  0  0  0  0  0  0
  -26.4320  -37.2900   23.8940 N   0  0  0  0  0  0  0  0  0  0  0  0
  -26.0300  -38.2060   24.0780 H   0  0  0  0  0  0  0  0  0  0  0  0
  -26.3980  -31.5890   25.0390 C   0  0  1  0  0  0  0  0  0  0  0  0
  -25.3340  -31.3070   26.1240 C   0  0  0  0  0  1  0  0  0  0  0  0
  -26.9800  -30.2310   24.5830 C   0  0  0  0  0  1  0  0  0  0  0  0
  -27.5600  -32.3690   25.7000 C   0  0  0  0  0  1  0  0  0  0  0  0
  1  3  1  0
  2  1  2  0
  5  4  1  0
  6  8  1  0
  7  8  1  0
  7  4  1  0
  8 10  1  0
  9  3  1  6
  9  6  1  0
  9  7  1  0
  9  5  1  0
 10 19  1  0
 11 17  1  0
 11 19  1  0
 12 17  1  0
 13 14  1  0
 13 12  1  0
 15 14  1  0
 15 24  1  0
 15 16  1  0
 17 16  1  0
 18 11  2  0
 19 20  1  0
 21 22  2  0
 22 41  1  0
 23 22  1  0
 23 26  1  0
 24 21  1  0
 24 25  1  0
 25 23  2  0
 26 27  1  0
 27 28  2  0
 29 32  1  0
 29 28  1  0
 30 29  2  0
 31 30  1  0
 31 26  2  0
 32 33  1  0
 33 38  2  0
 33 34  1  0
 34 35  2  0
 35 36  1  0
 36 40  1  0
 37 36  2  0
 38 37  1  0
 39 38  1  0
 41 42  1  0
 42 45  1  0
 42 44  1  0
 43 41  2  0
 46 47  1  0
 46 21  1  0
 48 46  1  0
 49  2  1  0
 50 49  1  0
 50 51  1  0
 52 54  1  0
 52 51  1  0
 53 64  2  0
 54 59  1  0
 55 63  1  0
 55 65  1  0
 56 62  1  0
 56 58  1  0
 57 63  1  0
 58 57  1  0
 59 58  2  0
 60 61  1  0
 60 54  2  0
 61 56  2  0
 62 55  1  0
 63 53  1  0
 65 67  2  0
 66 65  1  0
 68 66  1  0
 69 78  2  0
 69 74  1  0
 70 66  1  0
 70 74  1  0
 71 70  1  0
 72 73  1  0
 72 71  1  0
 73 69  1  0
 74 75  2  0
 75 76  1  0
 77 76  2  0
 78 77  1  0
 79 53  1  0
 79 80  1  0
 79 89  1  0
 80 83  1  0
 81 85  1  0
 81 80  1  0
 82 81  2  0
 85 84  1  0
 87 85  1  0
 87 88  1  0
 87 86  1  0
 89 92  1  1
 89 90  1  0
 91 89  1  0
M  ISO  4  11 100  19 100  51 101  52 101
M  END
>  <TORSDO>  (82) 
F 22

>  <SCORE>  (82) 
-11.790

>  <name>  (82) 
82

>  <ligand_id>  (82) 
82

>  <original_smiles>  (82) 
[H]C(=C([H])C([H])([H])C12C([H])([H])C([H])([H])C1([H])C([H])(C([H])([H])N([H])C(=O)N1C([H])([H])C([H])([H])C([H])([H])C([H])(n3nc(-c4c([H])c([H])c(Oc5c([H])c([H])c(F)c([H])c5F)c([H])c4[H])c(C(=O)N([H])[H])c3N([H])[H])C1([H])[H])C2([H])[H])C([H])([H])C([H])([H])C([H])([H])Oc1c([H])c([H])c2c(c1[H])C([H])([H])N(C(=O)C([H])(N([H])C(=O)C([H])(N([H])C([H])([H])[H])C([H])([H])[H])C(C([H])([H])[H])(C([H])([H])[H])C([H])([H])[H])C([H])(C(=O)N([H])C1([H])c3c([H])c([H])c([H])c([H])c3C([H])([H])C([H])([H])C1([H])[H])C2([H])[H]

>  <smiles>  (82) 
[H]C(=C([H])C([H])([H])C12C([H])([H])C([H])([H])C1([H])C([H])(C([H])([H])N([H])C(=O)N1C([H])([H])C([H])([H])C([H])([H])C([H])(n3nc(-c4c([H])c([H])c(Oc5c([H])c([H])c(F)c([H])c5F)c([H])c4[H])c(C(=O)N([H])[H])c3N([H])[H])C1([H])[H])C2([H])[H])C([H])([H])C([H])([H])C([H])([H])Oc1c([H])c([H])c2c(c1[H])C([H])([H])N(C(=O)C([H])(N([H])C(=O)C([H])(N([H])C([H])([H])[H])C([H])([H])[H])C(C([H])([H])[H])(C([H])([H])[H])C([H])([H])[H])C([H])(C(=O)N([H])C1([H])c3c([H])c([H])c([H])c([H])c3C([H])([H])C([H])([H])C1([H])[H])C2([H])[H]

$$$$
83:0:0
     RDKit          3D

 94103  0  0  1  0  0  0  0  0999 V2000
  -27.5730  -18.4880   19.2540 C   0  0  0  0  0  2  0  0  0  0  0  0
  -28.9120  -18.0860   18.6240 C   0  0  0  0  0  2  0  0  0  0  0  0
  -30.3010  -19.9920   20.0000 C   0  0  0  0  0  2  0  0  0  0  0  0
  -28.3350  -19.4420   20.1890 C   0  0  0  0  0  3  0  0  0  0  0  0
  -28.9890  -20.8480   19.7540 C   0  0  2  0  0  0  0  0  0  0  0  0
  -29.6210  -18.5640   19.9150 C   0  0  1  0  0  0  0  0  0  0  0  0
  -28.7810  -21.1990   18.2570 C   0  0  0  0  0  0  0  0  0  0  0  0
  -29.8530  -21.4050   17.4990 N   0  0  0  0  0  0  0  0  0  0  0  0
  -27.6530  -21.3220   17.7830 O   0  0  0  0  0  0  0  0  0  0  0  0
  -30.7780  -21.3270   17.8950 H   0  0  0  0  0  0  0  0  0  0  0  0
  -29.7570  -21.6370   16.5210 H   0  0  0  0  0  0  0  0  0  0  0  0
  -28.6180  -22.2110   20.5790 C   0  0  0  0  0  2  0  0  0  0  0  0
  -28.8250  -23.7250   19.9800 C   0  0  0  0  0  3  0  0  0  0  0  0
  -28.1550  -25.0080   20.7120 C   0  0  0  0  0  3  0  0  0  0  0  0
  -28.3710  -26.4260   20.2490 O   0  0  0  0  0  0  0  0  0  0  0  0
  -24.6370  -31.9340   23.1880 C   0  0  0  0  0  0  0  0  0  0  0  0
  -27.2700  -27.3080   20.2170 C   0  0  0  0  0  0  0  0  0  0  0  0
  -23.4450  -30.5030   21.5690 C   0  0  0  0  0  3  0  0  0  0  0  0
  -24.9060  -28.9340   20.1670 C   0  0  0  0  0  0  0  0  0  0  0  0
  -25.9840  -30.8260   21.3820 C   0  0  0  0  0  2  0  0  0  0  0  0
  -26.0730  -29.4320   20.7610 C   0  0  0  0  0  0  0  0  0  0  0  0
  -27.2610  -28.6310   20.7750 C   0  0  0  0  0  3  0  0  0  0  0  0
  -26.0840  -26.8770   19.5870 C   0  0  0  0  0  3  0  0  0  0  0  0
  -24.9140  -27.6630   19.5710 C   0  0  0  0  0  3  0  0  0  0  0  0
  -23.6660  -29.8050   20.1990 C   0  0  0  0  0  2  0  0  0  0  0  0
  -24.7090  -31.1070   22.1030 N   0  0  0  0  0  0  0  0  0  0  0  0
  -23.5520  -32.2120   23.7170 O   0  0  0  0  0  0  0  0  0  0  0  0
  -22.7880  -29.4980   22.5450 C   0  0  0  0  0  0  0  0  0  0  0  0
  -21.4680  -29.2910   22.4030 N   0  0  0  0  0  0  0  0  0  0  0  0
  -23.4660  -28.9070   23.3900 O   0  0  0  0  0  0  0  0  0  0  0  0
  -20.9780  -29.8200   21.6970 H   0  0  0  0  0  0  0  0  0  0  0  0
  -18.1070  -28.0450   22.8940 C   0  0  0  0  0  0  0  0  0  0  0  0
  -20.6570  -28.3540   23.1850 C   0  0  0  0  0  3  0  0  0  0  0  0
  -20.7890  -26.9140   22.6390 C   0  0  0  0  0  2  0  0  0  0  0  0
  -19.7040  -26.5520   21.6210 C   0  0  0  0  0  2  0  0  0  0  0  0
  -18.3130  -26.6860   22.2470 C   0  0  0  0  0  2  0  0  0  0  0  0
  -19.2070  -28.8350   23.3210 C   0  0  0  0  0  0  0  0  0  0  0  0
  -18.9600  -30.1050   23.8850 C   0  0  0  0  0  3  0  0  0  0  0  0
  -17.6440  -30.5860   24.0270 C   0  0  0  0  0  3  0  0  0  0  0  0
  -16.5570  -29.7930   23.6180 C   0  0  0  0  0  3  0  0  0  0  0  0
  -16.7890  -28.5250   23.0560 C   0  0  0  0  0  3  0  0  0  0  0  0
  -25.9160  -32.5860   23.8020 C   0  0  0  0  0  3  0  0  0  0  0  0
  -25.5880  -33.9790   24.1360 N   0  0  0  0  0  0  0  0  0  0  0  0
  -25.9020  -35.0400   23.3800 C   0  0  0  0  0  0  0  0  0  0  0  0
  -26.5680  -34.9480   22.3450 O   0  0  0  0  0  0  0  0  0  0  0  0
  -24.9940  -34.1230   24.9400 H   0  0  0  0  0  0  0  0  0  0  0  0
  -24.1760  -36.8320   23.0090 C   0  0  0  0  0  1  0  0  0  0  0  0
  -25.3980  -36.4190   23.8440 C   0  0  0  0  0  3  0  0  0  0  0  0
  -27.5020  -37.3080   24.7470 C   0  0  0  0  0  1  0  0  0  0  0  0
  -26.4280  -37.4780   23.7720 N   0  0  0  0  0  0  0  0  0  0  0  0
  -26.0120  -38.3950   23.9170 H   0  0  0  0  0  0  0  0  0  0  0  0
  -26.4500  -31.8220   25.0760 C   0  0  1  0  0  0  0  0  0  0  0  0
  -25.3640  -31.5610   26.1470 C   0  0  0  0  0  1  0  0  0  0  0  0
  -27.0550  -30.4560   24.6780 C   0  0  0  0  0  1  0  0  0  0  0  0
  -27.5880  -32.6340   25.7350 C   0  0  0  0  0  1  0  0  0  0  0  0
  -30.1980  -17.3520   20.8240 C   0  0  0  0  0  2  0  0  0  0  0  0
  -30.6140  -14.7820   20.3030 C   0  0  0  0  0  0  0  0  0  0  0  0
  -30.4080  -12.5290   19.2400 C   0  0  0  0  0  2  0  0  0  0  0  0
  -29.4370  -12.6240   18.0420 C   0  0  0  0  0  2  0  0  0  0  0  0
  -27.9700  -12.4620   18.4950 C   0  0  0  0  0  2  0  0  0  0  0  0
  -27.6310  -13.3080   19.7500 C   0  0  0  0  0  3  0  0  0  0  0  0
  -28.7180  -13.1790   20.8370 C   0  0  0  0  0  2  0  0  0  0  0  0
  -29.9970  -13.5550   20.2210 N   0  0  0  0  0  0  0  0  0  0  0  0
  -31.7950  -14.9030   19.9650 O   0  0  0  0  0  0  0  0  0  0  0  0
  -29.8290  -15.8850   20.5890 N   0  0  0  0  0  0  0  0  0  0  0  0
  -28.8650  -15.6590   20.7840 H   0  0  0  0  0  0  0  0  0  0  0  0
  -25.2590  -13.8830   20.5400 C   0  0  0  0  0  0  0  0  0  0  0  0
  -24.2050  -13.1000   20.9250 C   0  0  0  0  0  0  0  0  0  0  0  0
  -24.6690  -11.7520   20.8600 C   0  0  0  0  0  0  0  0  0  0  0  0
  -26.2990  -13.0100   20.2640 N   0  0  0  0  0  0  0  0  0  0  0  0
  -25.9530  -11.7220   20.5200 N   0  0  0  0  0  0  0  0  0  0  0  0
  -23.9470  -10.4860   21.0420 C   0  0  0  0  0  0  0  0  0  0  0  0
  -24.3840   -9.5130   21.9680 C   0  0  0  0  0  3  0  0  0  0  0  0
  -23.6630   -8.3120   22.1430 C   0  0  0  0  0  3  0  0  0  0  0  0
  -22.4870   -8.0760   21.3930 C   0  0  0  0  0  0  0  0  0  0  0  0
  -22.0680   -9.0350   20.4530 C   0  0  0  0  0  3  0  0  0  0  0  0
  -22.7910  -10.2280   20.2760 C   0  0  0  0  0  3  0  0  0  0  0  0
  -21.7370   -6.9300   21.4770 O   0  0  0  0  0  0  0  0  0  0  0  0
  -21.6750   -6.1900   22.6320 C   0  0  0  0  0  0  0  0  0  0  0  0
  -21.1780   -6.7320   23.8360 C   0  0  0  0  0  3  0  0  0  0  0  0
  -21.0690   -5.9180   24.9810 C   0  0  0  0  0  3  0  0  0  0  0  0
  -21.4470   -4.5650   24.9230 C   0  0  0  0  0  0  0  0  0  0  0  0
  -21.9370   -4.0210   23.7230 C   0  0  0  0  0  3  0  0  0  0  0  0
  -22.0490   -4.8320   22.5800 C   0  0  0  0  0  0  0  0  0  0  0  0
  -22.5020   -4.2990   21.4200 F   0  0  0  0  0  0  0  0  0  0  0  0
  -21.3340   -3.7810   26.0210 F   0  0  0  0  0  0  0  0  0  0  0  0
  -22.8120  -13.5700   21.2340 C   0  0  0  0  0  0  0  0  0  0  0  0
  -22.1010  -12.8550   22.0980 N   0  0  0  0  0  0  0  0  0  0  0  0
  -22.3640  -14.6030   20.7410 O   0  0  0  0  0  0  0  0  0  0  0  0
  -22.4750  -12.0160   22.5140 H   0  0  0  0  0  0  0  0  0  0  0  0
  -21.1650  -13.1460   22.3450 H   0  0  0  0  0  0  0  0  0  0  0  0
  -25.4120  -15.2560   20.3750 N   0  0  0  0  0  0  0  0  0  0  0  0
  -24.6390  -15.8990   20.5060 H   0  0  0  0  0  0  0  0  0  0  0  0
  -26.2250  -15.6920   19.9610 H   0  0  0  0  0  0  0  0  0  0  0  0
  2  1  1  0
  2  6  1  0
  4  1  1  0
  5  3  1  0
  5  4  1  0
  5 12  1  1
  6  3  1  0
  6  4  1  0
  6 56  1  1
  7  5  1  0
  8 10  1  0
  8  7  1  0
  9  7  2  0
 11  8  1  0
 13 12  1  0
 13 14  2  0
 15 14  1  0
 16 27  2  0
 17 15  1  0
 17 22  1  0
 18 26  1  0
 18 28  1  0
 19 25  1  0
 19 21  1  0
 20 26  1  0
 21 22  2  0
 21 20  1  0
 23 17  2  0
 24 23  1  0
 24 19  2  0
 25 18  1  0
 26 16  1  0
 28 30  2  0
 29 28  1  0
 31 29  1  0
 32 41  2  0
 32 37  1  0
 33 29  1  0
 33 37  1  0
 34 33  1  0
 35 36  1  0
 35 34  1  0
 36 32  1  0
 37 38  2  0
 38 39  1  0
 40 39  2  0
 41 40  1  0
 42 16  1  0
 42 43  1  0
 42 52  1  0
 43 46  1  0
 44 48  1  0
 44 43  1  0
 45 44  2  0
 48 47  1  0
 50 48  1  0
 50 51  1  0
 50 49  1  0
 52 55  1  1
 52 53  1  0
 54 52  1  0
 57 65  1  0
 58 63  1  0
 59 60  1  0
 59 58  1  0
 61 60  1  0
 61 70  1  0
 61 62  1  0
 63 57  1  0
 63 62  1  0
 64 57  2  0
 65 66  1  0
 65 56  1  0
 67 68  2  0
 68 87  1  0
 69 68  1  0
 69 72  1  0
 70 71  1  0
 70 67  1  0
 71 69  2  0
 72 73  1  0
 73 74  2  0
 75 78  1  0
 75 74  1  0
 76 75  2  0
 77 76  1  0
 77 72  2  0
 78 79  1  0
 79 80  1  0
 80 81  2  0
 82 81  1  0
 82 86  1  0
 83 82  2  0
 84 79  2  0
 84 83  1  0
 85 84  1  0
 87 88  1  0
 88 91  1  0
 88 90  1  0
 89 87  2  0
 92 93  1  0
 92 67  1  0
 94 92  1  0
M  ISO  4  14 101  15 101  57 100  65 100
M  END
>  <TORSDO>  (83) 
F 21

>  <SCORE>  (83) 
-13.927

>  <name>  (83) 
83

>  <ligand_id>  (83) 
83

>  <original_smiles>  (83) 
[H]c1c([H])c([H])c2c(c1[H])C([H])([H])C([H])([H])C([H])([H])C2([H])N([H])C(=O)C1([H])N(C(=O)C([H])(N([H])C(=O)C([H])(N([H])C([H])([H])[H])C([H])([H])[H])C(C([H])([H])[H])(C([H])([H])[H])C([H])([H])[H])C([H])([H])c2c([H])c(OC([H])([H])C([H])([H])C([H])([H])C3(C(=O)N([H])[H])C([H])([H])C4(C([H])([H])N([H])C(=O)N5C([H])([H])C([H])([H])C([H])([H])C([H])(n6nc(-c7c([H])c([H])c(Oc8c([H])c([H])c(F)c([H])c8F)c([H])c7[H])c(C(=O)N([H])[H])c6N([H])[H])C5([H])[H])C([H])([H])C([H])([H])C34[H])c([H])c([H])c2C1([H])[H]

>  <smiles>  (83) 
[H]c1c([H])c([H])c2c(c1[H])C([H])([H])C([H])([H])C([H])([H])C2([H])N([H])C(=O)C1([H])N(C(=O)C([H])(N([H])C(=O)C([H])(N([H])C([H])([H])[H])C([H])([H])[H])C(C([H])([H])[H])(C([H])([H])[H])C([H])([H])[H])C([H])([H])c2c([H])c(OC([H])([H])C([H])([H])C([H])([H])C3(C(=O)N([H])[H])C([H])([H])C4(C([H])([H])N([H])C(=O)N5C([H])([H])C([H])([H])C([H])([H])C([H])(n6nc(-c7c([H])c([H])c(Oc8c([H])c([H])c(F)c([H])c8F)c([H])c7[H])c(C(=O)N([H])[H])c6N([H])[H])C5([H])[H])C([H])([H])C([H])([H])C34[H])c([H])c([H])c2C1([H])[H]

$$$$
84:0:0
     RDKit          3D

 94103  0  0  1  0  0  0  0  0999 V2000
  -31.0900  -20.8160   20.6420 C   0  0  0  0  0  3  0  0  0  0  0  0
  -29.0360  -21.9210   19.9130 C   0  0  0  0  0  3  0  0  0  0  0  0
  -31.0560  -23.2240   20.3170 C   0  0  0  0  0  3  0  0  0  0  0  0
  -29.7380  -20.7350   20.2480 C   0  0  0  0  0  0  0  0  0  0  0  0
  -31.7550  -22.0610   20.6990 C   0  0  0  0  0  0  0  0  0  0  0  0
  -29.7060  -23.1690   19.9170 C   0  0  0  0  0  0  0  0  0  0  0  0
  -34.2320  -21.1720   20.7210 C   0  0  0  0  0  2  0  0  0  0  0  0
  -33.7680  -21.2050   22.1610 C   0  0  0  0  0  2  0  0  0  0  0  0
  -33.1860  -22.1680   21.1550 C   0  0  0  0  0  3  0  0  0  0  0  0
  -29.0540  -19.4130   20.2420 C   0  0  0  0  0  0  0  0  0  0  0  0
  -27.9470  -19.2330   20.7570 O   0  0  0  0  0  0  0  0  0  0  0  0
  -29.7120  -18.2820   19.4280 C   0  0  0  0  0  2  0  0  0  0  0  0
  -30.5070  -17.1760   21.6840 C   0  0  0  0  0  1  0  0  0  0  0  0
  -30.5660  -17.1720   20.1420 C   0  0  0  0  0  3  0  0  0  0  0  0
  -30.1020  -15.7900   19.6120 C   0  0  0  0  0  2  0  0  0  0  0  0
  -31.0490  -14.5580   19.7160 C   0  0  0  0  0  0  0  0  0  0  0  0
  -30.8190  -12.2360   18.9710 C   0  0  0  0  0  2  0  0  0  0  0  0
  -29.8210  -12.2540   17.7920 C   0  0  0  0  0  2  0  0  0  0  0  0
  -28.3650  -12.1710   18.2970 C   0  0  0  0  0  2  0  0  0  0  0  0
  -28.0660  -13.1950   19.4200 C   0  0  0  0  0  3  0  0  0  0  0  0
  -29.1620  -13.1270   20.5120 C   0  0  0  0  0  2  0  0  0  0  0  0
  -30.4680  -13.3400   19.8740 N   0  0  0  0  0  0  0  0  0  0  0  0
  -32.2200  -14.6890   19.3490 O   0  0  0  0  0  0  0  0  0  0  0  0
  -25.7790  -13.9760   20.3190 C   0  0  0  0  0  0  0  0  0  0  0  0
  -24.6850  -13.2770   20.7480 C   0  0  0  0  0  0  0  0  0  0  0  0
  -25.0440  -11.8970   20.6620 C   0  0  0  0  0  0  0  0  0  0  0  0
  -26.7350  -13.0240   19.9910 N   0  0  0  0  0  0  0  0  0  0  0  0
  -26.3000  -11.7700   20.2590 N   0  0  0  0  0  0  0  0  0  0  0  0
  -24.2460  -10.6840   20.8760 C   0  0  0  0  0  0  0  0  0  0  0  0
  -24.6420   -9.6970   21.8040 C   0  0  0  0  0  3  0  0  0  0  0  0
  -23.8510   -8.5460   22.0020 C   0  0  0  0  0  3  0  0  0  0  0  0
  -22.6520   -8.3740   21.2700 C   0  0  0  0  0  0  0  0  0  0  0  0
  -22.2780   -9.3500   20.3300 C   0  0  0  0  0  3  0  0  0  0  0  0
  -23.0690  -10.4920   20.1280 C   0  0  0  0  0  3  0  0  0  0  0  0
  -21.8350   -7.2750   21.3770 O   0  0  0  0  0  0  0  0  0  0  0  0
  -21.7180   -6.5770   22.5510 C   0  0  0  0  0  0  0  0  0  0  0  0
  -21.2810   -7.1920   23.7460 C   0  0  0  0  0  3  0  0  0  0  0  0
  -21.1100   -6.4220   24.9130 C   0  0  0  0  0  3  0  0  0  0  0  0
  -21.3680   -5.0390   24.8890 C   0  0  0  0  0  0  0  0  0  0  0  0
  -21.7980   -4.4240   23.7010 C   0  0  0  0  0  3  0  0  0  0  0  0
  -21.9740   -5.1900   22.5370 C   0  0  0  0  0  0  0  0  0  0  0  0
  -22.3680   -4.5880   21.3880 F   0  0  0  0  0  0  0  0  0  0  0  0
  -21.1960   -4.3000   26.0090 F   0  0  0  0  0  0  0  0  0  0  0  0
  -23.3460  -13.8440   21.1280 C   0  0  0  0  0  0  0  0  0  0  0  0
  -22.6350  -13.1870   22.0390 N   0  0  0  0  0  0  0  0  0  0  0  0
  -22.9390  -14.9000   20.6450 O   0  0  0  0  0  0  0  0  0  0  0  0
  -22.9760  -12.3340   22.4550 H   0  0  0  0  0  0  0  0  0  0  0  0
  -21.7370  -13.5500   22.3270 H   0  0  0  0  0  0  0  0  0  0  0  0
  -26.0350  -15.3370   20.1630 N   0  0  0  0  0  0  0  0  0  0  0  0
  -25.3400  -16.0440   20.3840 H   0  0  0  0  0  0  0  0  0  0  0  0
  -26.9000  -15.7230   19.8090 H   0  0  0  0  0  0  0  0  0  0  0  0
  -29.0370  -24.4590   19.4500 C   0  0  0  0  0  2  0  0  0  0  0  0
  -28.6590  -25.4320   20.5860 C   0  0  0  0  0  2  0  0  0  0  0  0
  -28.6770  -26.7880   20.1230 O   0  0  0  0  0  0  0  0  0  0  0  0
  -24.6430  -31.7150   23.2430 C   0  0  0  0  0  0  0  0  0  0  0  0
  -27.4780  -27.4540   20.1180 C   0  0  0  0  0  0  0  0  0  0  0  0
  -23.5160  -30.3430   21.5180 C   0  0  0  0  0  3  0  0  0  0  0  0
  -25.0460  -28.8850   20.0910 C   0  0  0  0  0  0  0  0  0  0  0  0
  -26.0350  -30.7690   21.4100 C   0  0  0  0  0  2  0  0  0  0  0  0
  -26.1700  -29.4240   20.7300 C   0  0  0  0  0  0  0  0  0  0  0  0
  -27.3900  -28.7160   20.7390 C   0  0  0  0  0  3  0  0  0  0  0  0
  -26.3440  -26.9160   19.4740 C   0  0  0  0  0  3  0  0  0  0  0  0
  -25.1280  -27.6280   19.4600 C   0  0  0  0  0  3  0  0  0  0  0  0
  -23.7810  -29.7130   20.1240 C   0  0  0  0  0  2  0  0  0  0  0  0
  -24.7470  -30.9580   22.1140 N   0  0  0  0  0  0  0  0  0  0  0  0
  -23.5430  -31.9430   23.7640 O   0  0  0  0  0  0  0  0  0  0  0  0
  -22.8670  -29.2750   22.4260 C   0  0  0  0  0  0  0  0  0  0  0  0
  -21.5510  -29.0660   22.2590 N   0  0  0  0  0  0  0  0  0  0  0  0
  -23.5440  -28.6360   23.2380 O   0  0  0  0  0  0  0  0  0  0  0  0
  -21.0680  -29.6300   21.5730 H   0  0  0  0  0  0  0  0  0  0  0  0
  -18.1870  -27.8160   22.6500 C   0  0  0  0  0  0  0  0  0  0  0  0
  -20.7360  -28.0870   22.9750 C   0  0  0  0  0  3  0  0  0  0  0  0
  -20.8650  -26.6840   22.3390 C   0  0  0  0  0  2  0  0  0  0  0  0
  -19.7830  -26.3960   21.2930 C   0  0  0  0  0  2  0  0  0  0  0  0
  -18.3900  -26.4990   21.9180 C   0  0  0  0  0  2  0  0  0  0  0  0
  -19.2900  -28.5700   23.1320 C   0  0  0  0  0  0  0  0  0  0  0  0
  -19.0490  -29.8050   23.7720 C   0  0  0  0  0  3  0  0  0  0  0  0
  -17.7370  -30.2840   23.9380 C   0  0  0  0  0  3  0  0  0  0  0  0
  -16.6470  -29.5270   23.4740 C   0  0  0  0  0  3  0  0  0  0  0  0
  -16.8740  -28.2940   22.8370 C   0  0  0  0  0  3  0  0  0  0  0  0
  -25.9000  -32.3530   23.9200 C   0  0  0  0  0  3  0  0  0  0  0  0
  -25.5670  -33.7460   24.2420 N   0  0  0  0  0  0  0  0  0  0  0  0
  -25.9180  -34.8030   23.4960 C   0  0  0  0  0  0  0  0  0  0  0  0
  -26.6280  -34.7090   22.4900 O   0  0  0  0  0  0  0  0  0  0  0  0
  -24.9460  -33.8940   25.0220 H   0  0  0  0  0  0  0  0  0  0  0  0
  -24.1850  -36.5740   23.0750 C   0  0  0  0  0  1  0  0  0  0  0  0
  -25.3970  -36.1850   23.9360 C   0  0  0  0  0  3  0  0  0  0  0  0
  -27.4850  -37.0900   24.8570 C   0  0  0  0  0  1  0  0  0  0  0  0
  -26.4210  -37.2490   23.8680 N   0  0  0  0  0  0  0  0  0  0  0  0
  -26.0000  -38.1640   24.0010 H   0  0  0  0  0  0  0  0  0  0  0  0
  -26.3740  -31.5790   25.2110 C   0  0  1  0  0  0  0  0  0  0  0  0
  -25.2410  -31.3260   26.2300 C   0  0  0  0  0  1  0  0  0  0  0  0
  -26.9880  -30.2090   24.8340 C   0  0  0  0  0  1  0  0  0  0  0  0
  -27.4880  -32.3820   25.9220 C   0  0  0  0  0  1  0  0  0  0  0  0
  1  5  1  0
  2  6  2  0
  2  4  1  0
  3  5  2  0
  4  1  2  0
  5  9  1  0
  6  3  1  0
  7  9  1  0
  7  8  1  0
  9  8  1  0
 10  4  1  0
 10 11  2  0
 12 14  1  0
 12 10  1  0
 14 13  1  0
 15 16  1  0
 15 14  1  0
 16 22  1  0
 17 22  1  0
 18 19  1  0
 18 17  1  0
 20 19  1  0
 20 27  1  0
 20 21  1  0
 22 21  1  0
 23 16  2  0
 24 25  2  0
 25 44  1  0
 26 25  1  0
 26 29  1  0
 27 28  1  0
 27 24  1  0
 28 26  2  0
 29 30  1  0
 30 31  2  0
 32 35  1  0
 32 31  1  0
 33 32  2  0
 34 33  1  0
 34 29  2  0
 35 36  1  0
 36 37  1  0
 37 38  2  0
 39 38  1  0
 39 43  1  0
 40 39  2  0
 41 36  2  0
 41 40  1  0
 42 41  1  0
 44 45  1  0
 45 48  1  0
 45 47  1  0
 46 44  2  0
 49 24  1  0
 49 50  1  0
 51 49  1  0
 52  6  1  0
 52 53  1  0
 54 53  1  0
 55 66  2  0
 56 54  1  0
 56 61  1  0
 57 65  1  0
 57 67  1  0
 58 64  1  0
 58 60  1  0
 59 65  1  0
 60 61  2  0
 60 59  1  0
 62 56  2  0
 63 62  1  0
 63 58  2  0
 64 57  1  0
 65 55  1  0
 67 69  2  0
 68 67  1  0
 70 68  1  0
 71 80  2  0
 71 76  1  0
 72 68  1  0
 72 76  1  0
 73 72  1  0
 74 75  1  0
 74 73  1  0
 75 71  1  0
 76 77  2  0
 77 78  1  0
 79 78  2  0
 80 79  1  0
 81 55  1  0
 81 82  1  0
 81 91  1  0
 82 85  1  0
 83 87  1  0
 83 82  1  0
 84 83  2  0
 87 86  1  0
 89 87  1  0
 89 90  1  0
 89 88  1  0
 91 94  1  1
 91 92  1  0
 93 91  1  0
M  ISO  4  15 100  16 100  53 101  54 101
M  END
>  <TORSDO>  (84) 
F 23

>  <SCORE>  (84) 
-12.039

>  <name>  (84) 
84

>  <ligand_id>  (84) 
84

>  <original_smiles>  (84) 
[H]c1c([H])c([H])c2c(c1[H])C([H])([H])C([H])([H])C([H])([H])C2([H])N([H])C(=O)C1([H])N(C(=O)C([H])(N([H])C(=O)C([H])(N([H])C([H])([H])[H])C([H])([H])[H])C(C([H])([H])[H])(C([H])([H])[H])C([H])([H])[H])C([H])([H])c2c([H])c(OC([H])([H])C([H])([H])c3c([H])c(C(=O)C([H])([H])C([H])(C([H])([H])[H])C([H])([H])C(=O)N4C([H])([H])C([H])([H])C([H])([H])C([H])(n5nc(-c6c([H])c([H])c(Oc7c([H])c([H])c(F)c([H])c7F)c([H])c6[H])c(C(=O)N([H])[H])c5N([H])[H])C4([H])[H])c([H])c(C4([H])C([H])([H])C4([H])[H])c3[H])c([H])c([H])c2C1([H])[H]

>  <smiles>  (84) 
[H]c1c([H])c([H])c2c(c1[H])C([H])([H])C([H])([H])C([H])([H])C2([H])N([H])C(=O)C1([H])N(C(=O)C([H])(N([H])C(=O)C([H])(N([H])C([H])([H])[H])C([H])([H])[H])C(C([H])([H])[H])(C([H])([H])[H])C([H])([H])[H])C([H])([H])c2c([H])c(OC([H])([H])C([H])([H])c3c([H])c(C(=O)C([H])([H])C([H])(C([H])([H])[H])C([H])([H])C(=O)N4C([H])([H])C([H])([H])C([H])([H])C([H])(n5nc(-c6c([H])c([H])c(Oc7c([H])c([H])c(F)c([H])c7F)c([H])c6[H])c(C(=O)N([H])[H])c5N([H])[H])C4([H])[H])c([H])c(C4([H])C([H])([H])C4([H])[H])c3[H])c([H])c([H])c2C1([H])[H]

$$$$
85:0:0
     RDKit          3D

 90 99  0  0  1  0  0  0  0  0999 V2000
  -31.6000  -21.4800   20.2190 C   0  0  0  0  0  2  0  0  0  0  0  0
  -32.1700  -19.1150   20.0880 C   0  0  0  0  0  2  0  0  0  0  0  0
  -31.1900  -19.5540   21.7880 C   0  0  0  0  0  2  0  0  0  0  0  0
  -32.2260  -20.3410   20.9650 C   0  0  0  0  0  3  0  0  0  0  0  0
  -30.2810  -20.8180   19.7660 C   0  0  0  0  0  3  0  0  0  0  0  0
  -30.6480  -19.2740   20.3620 C   0  0  1  0  0  0  0  0  0  0  0  0
  -29.1240  -21.9310   20.2240 C   0  0  0  0  0  2  0  0  0  0  0  0
  -29.2570  -23.5710   19.8670 C   0  0  0  0  0  3  0  0  0  0  0  0
  -28.1660  -24.7620   20.2730 C   0  0  0  0  0  3  0  0  0  0  0  0
  -28.3760  -26.2910   20.1410 O   0  0  0  0  0  0  0  0  0  0  0  0
  -24.6370  -31.8500   23.2050 C   0  0  0  0  0  0  0  0  0  0  0  0
  -27.2780  -27.2180   20.1320 C   0  0  0  0  0  0  0  0  0  0  0  0
  -23.4540  -30.4620   21.5430 C   0  0  0  0  0  3  0  0  0  0  0  0
  -24.9240  -28.9200   20.1060 C   0  0  0  0  0  0  0  0  0  0  0  0
  -26.0030  -30.7570   21.3930 C   0  0  0  0  0  2  0  0  0  0  0  0
  -26.0930  -29.3750   20.7290 C   0  0  0  0  0  0  0  0  0  0  0  0
  -27.2710  -28.5410   20.7240 C   0  0  0  0  0  3  0  0  0  0  0  0
  -26.0800  -26.8550   19.4790 C   0  0  0  0  0  3  0  0  0  0  0  0
  -24.9310  -27.6740   19.4630 C   0  0  0  0  0  3  0  0  0  0  0  0
  -23.6880  -29.8070   20.1560 C   0  0  0  0  0  2  0  0  0  0  0  0
  -24.7170  -31.0430   22.1030 N   0  0  0  0  0  0  0  0  0  0  0  0
  -23.5470  -32.1180   23.7340 O   0  0  0  0  0  0  0  0  0  0  0  0
  -22.7790  -29.4370   22.4890 C   0  0  0  0  0  0  0  0  0  0  0  0
  -21.4510  -29.2710   22.3650 N   0  0  0  0  0  0  0  0  0  0  0  0
  -23.4530  -28.7960   23.2980 O   0  0  0  0  0  0  0  0  0  0  0  0
  -20.9610  -29.8410   21.6890 H   0  0  0  0  0  0  0  0  0  0  0  0
  -18.0640  -28.0870   22.8620 C   0  0  0  0  0  0  0  0  0  0  0  0
  -20.6280  -28.3230   23.1210 C   0  0  0  0  0  3  0  0  0  0  0  0
  -20.7170  -26.9040   22.5160 C   0  0  0  0  0  2  0  0  0  0  0  0
  -19.6070  -26.6110   21.5010 C   0  0  0  0  0  2  0  0  0  0  0  0
  -18.2300  -26.7510   22.1570 C   0  0  0  0  0  2  0  0  0  0  0  0
  -19.1910  -28.8340   23.3000 C   0  0  0  0  0  0  0  0  0  0  0  0
  -18.9840  -30.0850   23.9190 C   0  0  0  0  0  3  0  0  0  0  0  0
  -17.6840  -30.5890   24.1070 C   0  0  0  0  0  3  0  0  0  0  0  0
  -16.5710  -29.8400   23.6860 C   0  0  0  0  0  3  0  0  0  0  0  0
  -16.7630  -28.5910   23.0680 C   0  0  0  0  0  3  0  0  0  0  0  0
  -25.9090  -32.4860   23.8410 C   0  0  0  0  0  3  0  0  0  0  0  0
  -25.5980  -33.8890   24.1570 N   0  0  0  0  0  0  0  0  0  0  0  0
  -25.9540  -34.9400   23.4050 C   0  0  0  0  0  0  0  0  0  0  0  0
  -26.6470  -34.8310   22.3900 O   0  0  0  0  0  0  0  0  0  0  0  0
  -24.9840  -34.0500   24.9430 H   0  0  0  0  0  0  0  0  0  0  0  0
  -24.2550  -36.7550   23.0030 C   0  0  0  0  0  1  0  0  0  0  0  0
  -25.4660  -36.3320   23.8510 C   0  0  0  0  0  3  0  0  0  0  0  0
  -27.5750  -37.2030   24.7590 C   0  0  0  0  0  1  0  0  0  0  0  0
  -26.5100  -37.3780   23.7750 N   0  0  0  0  0  0  0  0  0  0  0  0
  -26.1040  -38.2990   23.9110 H   0  0  0  0  0  0  0  0  0  0  0  0
  -26.4010  -31.7250   25.1350 C   0  0  1  0  0  0  0  0  0  0  0  0
  -25.2890  -31.5000   26.1860 C   0  0  0  0  0  1  0  0  0  0  0  0
  -26.9840  -30.3420   24.7670 C   0  0  0  0  0  1  0  0  0  0  0  0
  -27.5380  -32.5240   25.8150 C   0  0  0  0  0  1  0  0  0  0  0  0
  -29.9790  -17.8190   19.8870 C   0  0  0  0  0  2  0  0  0  0  0  0
  -28.6070  -16.2060   21.2920 C   0  0  0  0  0  1  0  0  0  0  0  0
  -30.9330  -16.3490   21.9440 C   0  0  0  0  0  1  0  0  0  0  0  0
  -30.0230  -16.3180   20.6910 C   0  0  2  0  0  0  0  0  0  0  0  0
  -30.5190  -14.9020   19.9530 C   0  0  0  0  0  0  0  0  0  0  0  0
  -30.3350  -12.5810   18.9430 C   0  0  0  0  0  2  0  0  0  0  0  0
  -29.3250  -12.5600   17.7690 C   0  0  0  0  0  2  0  0  0  0  0  0
  -27.8850  -12.3380   18.2720 C   0  0  0  0  0  2  0  0  0  0  0  0
  -27.5560  -13.2320   19.4940 C   0  0  0  0  0  3  0  0  0  0  0  0
  -28.6770  -13.1440   20.5470 C   0  0  0  0  0  2  0  0  0  0  0  0
  -29.9160  -13.6360   19.9160 N   0  0  0  0  0  0  0  0  0  0  0  0
  -31.6110  -14.9760   19.3780 O   0  0  0  0  0  0  0  0  0  0  0  0
  -25.2100  -13.8060   20.3510 C   0  0  0  0  0  0  0  0  0  0  0  0
  -24.1710  -13.0280   20.7810 C   0  0  0  0  0  0  0  0  0  0  0  0
  -24.6350  -11.6780   20.7140 C   0  0  0  0  0  0  0  0  0  0  0  0
  -26.2440  -12.9330   20.0570 N   0  0  0  0  0  0  0  0  0  0  0  0
  -25.9060  -11.6480   20.3320 N   0  0  0  0  0  0  0  0  0  0  0  0
  -23.9260  -10.4130   20.9380 C   0  0  0  0  0  0  0  0  0  0  0  0
  -24.3480   -9.4920   21.9240 C   0  0  0  0  0  3  0  0  0  0  0  0
  -23.6360   -8.2910   22.1330 C   0  0  0  0  0  3  0  0  0  0  0  0
  -22.4870   -8.0040   21.3570 C   0  0  0  0  0  0  0  0  0  0  0  0
  -22.0850   -8.9130   20.3630 C   0  0  0  0  0  3  0  0  0  0  0  0
  -22.7970  -10.1050   20.1520 C   0  0  0  0  0  3  0  0  0  0  0  0
  -21.7460   -6.8510   21.4740 O   0  0  0  0  0  0  0  0  0  0  0  0
  -21.6100   -6.2030   22.6750 C   0  0  0  0  0  0  0  0  0  0  0  0
  -21.0510   -6.8380   23.8060 C   0  0  0  0  0  3  0  0  0  0  0  0
  -20.8690   -6.1150   25.0020 C   0  0  0  0  0  3  0  0  0  0  0  0
  -21.2320   -4.7560   25.0640 C   0  0  0  0  0  0  0  0  0  0  0  0
  -21.7810   -4.1200   23.9370 C   0  0  0  0  0  3  0  0  0  0  0  0
  -21.9690   -4.8420   22.7450 C   0  0  0  0  0  0  0  0  0  0  0  0
  -22.4820   -4.2200   21.6560 F   0  0  0  0  0  0  0  0  0  0  0  0
  -21.0480   -4.0570   26.2090 F   0  0  0  0  0  0  0  0  0  0  0  0
  -22.7900  -13.4990   21.1360 C   0  0  0  0  0  0  0  0  0  0  0  0
  -22.1140  -12.7920   22.0320 N   0  0  0  0  0  0  0  0  0  0  0  0
  -22.3240  -14.5310   20.6530 O   0  0  0  0  0  0  0  0  0  0  0  0
  -22.5050  -11.9560   22.4430 H   0  0  0  0  0  0  0  0  0  0  0  0
  -21.1910  -13.0880   22.3170 H   0  0  0  0  0  0  0  0  0  0  0  0
  -25.3510  -15.1770   20.1610 N   0  0  0  0  0  0  0  0  0  0  0  0
  -24.5820  -15.8240   20.2980 H   0  0  0  0  0  0  0  0  0  0  0  0
  -26.1710  -15.6130   19.7620 H   0  0  0  0  0  0  0  0  0  0  0  0
  1  4  1  0
  2  6  1  0
  4  2  1  0
  4  3  1  0
  5  1  1  0
  5  7  1  0
  5  6  1  0
  6 51  1  1
  6  3  1  0
  8  7  1  0
  8  9  2  0
 10  9  1  0
 11 22  2  0
 12 10  1  0
 12 17  1  0
 13 21  1  0
 13 23  1  0
 14 20  1  0
 14 16  1  0
 15 21  1  0
 16 15  1  0
 17 16  2  0
 18 12  2  0
 19 18  1  0
 19 14  2  0
 20 13  1  0
 21 11  1  0
 23 25  2  0
 24 23  1  0
 26 24  1  0
 27 36  2  0
 27 32  1  0
 28 24  1  0
 28 32  1  0
 29 28  1  0
 30 31  1  0
 30 29  1  0
 31 27  1  0
 32 33  2  0
 33 34  1  0
 35 34  2  0
 36 35  1  0
 37 11  1  0
 37 38  1  0
 37 47  1  0
 38 41  1  0
 39 43  1  0
 39 38  1  0
 40 39  2  0
 43 42  1  0
 45 43  1  0
 45 46  1  0
 45 44  1  0
 47 50  1  1
 47 48  1  0
 49 47  1  0
 51 54  1  0
 54 52  1  1
 54 53  1  0
 55 54  1  0
 56 61  1  0
 57 58  1  0
 57 56  1  0
 59 58  1  0
 59 66  1  0
 59 60  1  0
 61 55  1  0
 61 60  1  0
 62 55  2  0
 63 64  2  0
 64 83  1  0
 65 64  1  0
 65 68  1  0
 66 67  1  0
 66 63  1  0
 67 65  2  0
 68 69  1  0
 69 70  2  0
 71 74  1  0
 71 70  1  0
 72 71  2  0
 73 72  1  0
 73 68  2  0
 74 75  1  0
 75 80  2  0
 75 76  1  0
 76 77  2  0
 77 78  1  0
 78 82  1  0
 79 78  2  0
 80 79  1  0
 81 80  1  0
 83 84  1  0
 84 87  1  0
 84 86  1  0
 85 83  2  0
 88 89  1  0
 88 63  1  0
 90 88  1  0
M  ISO  4   9 101  10 101  54 100  55 100
M  END
>  <TORSDO>  (85) 
F 21

>  <SCORE>  (85) 
-13.503

>  <name>  (85) 
85

>  <ligand_id>  (85) 
85

>  <original_smiles>  (85) 
[H]c1c([H])c([H])c2c(c1[H])C([H])([H])C([H])([H])C([H])([H])C2([H])N([H])C(=O)C1([H])N(C(=O)C([H])(N([H])C(=O)C([H])(N([H])C([H])([H])[H])C([H])([H])[H])C(C([H])([H])[H])(C([H])([H])[H])C([H])([H])[H])C([H])([H])c2c([H])c(OC([H])([H])C([H])([H])C([H])([H])C3([H])C([H])([H])C4([H])C([H])([H])C3(C([H])([H])C(C(=O)N3C([H])([H])C([H])([H])C([H])([H])C([H])(n5nc(-c6c([H])c([H])c(Oc7c([H])c([H])c(F)c([H])c7F)c([H])c6[H])c(C(=O)N([H])[H])c5N([H])[H])C3([H])[H])(C([H])([H])[H])C([H])([H])[H])C4([H])[H])c([H])c([H])c2C1([H])[H]

>  <smiles>  (85) 
[H]c1c([H])c([H])c2c(c1[H])C([H])([H])C([H])([H])C([H])([H])C2([H])N([H])C(=O)C1([H])N(C(=O)C([H])(N([H])C(=O)C([H])(N([H])C([H])([H])[H])C([H])([H])[H])C(C([H])([H])[H])(C([H])([H])[H])C([H])([H])[H])C([H])([H])c2c([H])c(OC([H])([H])C([H])([H])C([H])([H])C3([H])C([H])([H])C4([H])C([H])([H])C3(C([H])([H])C(C(=O)N3C([H])([H])C([H])([H])C([H])([H])C([H])(n5nc(-c6c([H])c([H])c(Oc7c([H])c([H])c(F)c([H])c7F)c([H])c6[H])c(C(=O)N([H])[H])c5N([H])[H])C3([H])[H])(C([H])([H])[H])C([H])([H])[H])C4([H])[H])c([H])c([H])c2C1([H])[H]

$$$$
86:0:0
     RDKit          3D

 91100  0  0  1  0  0  0  0  0999 V2000
  -27.8710  -20.8170   20.7600 C   0  0  0  0  0  2  0  0  0  0  0  0
  -29.0910  -21.1860   20.3590 C   0  0  0  0  0  3  0  0  0  0  0  0
  -28.1940  -19.9600   18.6570 C   0  0  0  0  0  2  0  0  0  0  0  0
  -28.2660  -18.3560   20.4720 C   0  0  0  0  0  2  0  0  0  0  0  0
  -27.4710  -19.5930   19.9720 C   0  0  0  0  0  3  0  0  0  0  0  0
  -29.5850  -20.0870   19.3320 C   0  0  0  0  0  3  0  0  0  0  0  0
  -29.6170  -18.5040   19.7400 C   0  0  0  0  0  3  0  0  0  0  0  0
  -29.5860  -22.6350   20.5220 C   0  0  0  0  0  0  0  0  0  0  0  0
  -30.7100  -22.8510   20.9810 O   0  0  0  0  0  0  0  0  0  0  0  0
  -28.7360  -23.9120   20.0600 C   0  0  0  0  0  2  0  0  0  0  0  0
  -28.6230  -25.2390   20.9710 C   0  0  0  0  0  2  0  0  0  0  0  0
  -28.6600  -26.6330   20.4240 O   0  0  0  0  0  0  0  0  0  0  0  0
  -24.6290  -31.9510   23.2790 C   0  0  0  0  0  0  0  0  0  0  0  0
  -27.5030  -27.4290   20.4020 C   0  0  0  0  0  0  0  0  0  0  0  0
  -23.5330  -30.4950   21.6090 C   0  0  0  0  0  3  0  0  0  0  0  0
  -25.0890  -28.9650   20.2700 C   0  0  0  0  0  0  0  0  0  0  0  0
  -26.0650  -30.8950   21.5160 C   0  0  0  0  0  2  0  0  0  0  0  0
  -26.2190  -29.5070   20.8970 C   0  0  0  0  0  0  0  0  0  0  0  0
  -27.4300  -28.7520   20.9480 C   0  0  0  0  0  3  0  0  0  0  0  0
  -26.3510  -26.9350   19.7610 C   0  0  0  0  0  3  0  0  0  0  0  0
  -25.1570  -27.6840   19.6940 C   0  0  0  0  0  3  0  0  0  0  0  0
  -23.8240  -29.8020   20.2510 C   0  0  0  0  0  2  0  0  0  0  0  0
  -24.7580  -31.1350   22.1920 N   0  0  0  0  0  0  0  0  0  0  0  0
  -23.5180  -32.1990   23.7690 O   0  0  0  0  0  0  0  0  0  0  0  0
  -22.8650  -29.4730   22.5600 C   0  0  0  0  0  0  0  0  0  0  0  0
  -21.5480  -29.2630   22.3980 N   0  0  0  0  0  0  0  0  0  0  0  0
  -23.5340  -28.8710   23.4060 O   0  0  0  0  0  0  0  0  0  0  0  0
  -21.0670  -29.7850   21.6790 H   0  0  0  0  0  0  0  0  0  0  0  0
  -18.1810  -28.0280   22.8700 C   0  0  0  0  0  0  0  0  0  0  0  0
  -20.7350  -28.3130   23.1610 C   0  0  0  0  0  3  0  0  0  0  0  0
  -20.8550  -26.8870   22.5790 C   0  0  0  0  0  2  0  0  0  0  0  0
  -19.7680  -26.5680   21.5470 C   0  0  0  0  0  2  0  0  0  0  0  0
  -18.3810  -26.6820   22.1910 C   0  0  0  0  0  2  0  0  0  0  0  0
  -19.2880  -28.7980   23.3140 C   0  0  0  0  0  0  0  0  0  0  0  0
  -19.0510  -30.0530   23.9130 C   0  0  0  0  0  3  0  0  0  0  0  0
  -17.7390  -30.5420   24.0670 C   0  0  0  0  0  3  0  0  0  0  0  0
  -16.6470  -29.7690   23.6360 C   0  0  0  0  0  3  0  0  0  0  0  0
  -16.8680  -28.5120   23.0480 C   0  0  0  0  0  3  0  0  0  0  0  0
  -25.8670  -32.6320   23.9420 C   0  0  0  0  0  3  0  0  0  0  0  0
  -26.3550  -31.8980   25.2510 C   0  0  1  0  0  0  0  0  0  0  0  0
  -25.2200  -31.6190   26.2650 C   0  0  0  0  0  1  0  0  0  0  0  0
  -27.0230  -30.5470   24.9070 C   0  0  0  0  0  1  0  0  0  0  0  0
  -27.4300  -32.7530   25.9620 C   0  0  0  0  0  1  0  0  0  0  0  0
  -25.5040  -34.0260   24.2360 N   0  0  0  0  0  0  0  0  0  0  0  0
  -25.8320  -35.0760   23.4710 C   0  0  0  0  0  0  0  0  0  0  0  0
  -26.5400  -34.9740   22.4660 O   0  0  0  0  0  0  0  0  0  0  0  0
  -24.8760  -34.1750   25.0130 H   0  0  0  0  0  0  0  0  0  0  0  0
  -24.0650  -36.8100   23.0260 C   0  0  0  0  0  1  0  0  0  0  0  0
  -25.2890  -36.4570   23.8880 C   0  0  0  0  0  3  0  0  0  0  0  0
  -27.3610  -37.4240   24.7810 C   0  0  0  0  0  1  0  0  0  0  0  0
  -26.2940  -37.5380   23.7920 N   0  0  0  0  0  0  0  0  0  0  0  0
  -25.8540  -38.4490   23.8990 H   0  0  0  0  0  0  0  0  0  0  0  0
  -30.8270  -17.5680   20.2340 C   0  0  0  0  0  2  0  0  0  0  0  0
  -31.2600  -14.9550   20.2520 C   0  0  0  0  0  0  0  0  0  0  0  0
  -31.0360  -12.6370   19.3630 C   0  0  0  0  0  2  0  0  0  0  0  0
  -30.1130  -12.6440   18.1240 C   0  0  0  0  0  2  0  0  0  0  0  0
  -28.6320  -12.5420   18.5360 C   0  0  0  0  0  2  0  0  0  0  0  0
  -28.2610  -13.5120   19.6890 C   0  0  0  0  0  3  0  0  0  0  0  0
  -29.2960  -13.4580   20.8330 C   0  0  0  0  0  2  0  0  0  0  0  0
  -30.6120  -13.7430   20.2470 N   0  0  0  0  0  0  0  0  0  0  0  0
  -32.4470  -15.0330   19.9230 O   0  0  0  0  0  0  0  0  0  0  0  0
  -30.4890  -16.0880   20.4220 N   0  0  0  0  0  0  0  0  0  0  0  0
  -29.5220  -15.8950   20.6370 H   0  0  0  0  0  0  0  0  0  0  0  0
  -25.9120  -14.2220   20.4340 C   0  0  0  0  0  0  0  0  0  0  0  0
  -24.8020  -13.5000   20.7850 C   0  0  0  0  0  0  0  0  0  0  0  0
  -25.1860  -12.1260   20.7120 C   0  0  0  0  0  0  0  0  0  0  0  0
  -26.9030  -13.2900   20.1710 N   0  0  0  0  0  0  0  0  0  0  0  0
  -26.4730  -12.0230   20.4000 N   0  0  0  0  0  0  0  0  0  0  0  0
  -24.3880  -10.9030   20.8640 C   0  0  0  0  0  0  0  0  0  0  0  0
  -24.7300   -9.9160   21.8120 C   0  0  0  0  0  3  0  0  0  0  0  0
  -23.9380   -8.7550   21.9520 C   0  0  0  0  0  3  0  0  0  0  0  0
  -22.7900   -8.5760   21.1460 C   0  0  0  0  0  0  0  0  0  0  0  0
  -22.4680   -9.5530   20.1870 C   0  0  0  0  0  3  0  0  0  0  0  0
  -23.2580  -10.7050   20.0450 C   0  0  0  0  0  3  0  0  0  0  0  0
  -21.9760   -7.4710   21.1970 O   0  0  0  0  0  0  0  0  0  0  0  0
  -21.7880   -6.7680   22.3600 C   0  0  0  0  0  0  0  0  0  0  0  0
  -21.2600   -7.3720   23.5210 C   0  0  0  0  0  3  0  0  0  0  0  0
  -21.0210   -6.5960   24.6730 C   0  0  0  0  0  3  0  0  0  0  0  0
  -21.3000   -5.2160   24.6630 C   0  0  0  0  0  0  0  0  0  0  0  0
  -21.8220   -4.6120   23.5050 C   0  0  0  0  0  3  0  0  0  0  0  0
  -22.0630   -5.3850   22.3560 C   0  0  0  0  0  0  0  0  0  0  0  0
  -22.5440   -4.7940   21.2370 F   0  0  0  0  0  0  0  0  0  0  0  0
  -21.0650   -4.4680   25.7660 F   0  0  0  0  0  0  0  0  0  0  0  0
  -23.4340  -14.0490   21.0710 C   0  0  0  0  0  0  0  0  0  0  0  0
  -22.6780  -13.3830   21.9370 N   0  0  0  0  0  0  0  0  0  0  0  0
  -23.0470  -15.0990   20.5610 O   0  0  0  0  0  0  0  0  0  0  0  0
  -23.0070  -12.5330   22.3730 H   0  0  0  0  0  0  0  0  0  0  0  0
  -21.7580  -13.7260   22.1720 H   0  0  0  0  0  0  0  0  0  0  0  0
  -26.1540  -15.5830   20.2910 N   0  0  0  0  0  0  0  0  0  0  0  0
  -25.4210  -16.2740   20.4060 H   0  0  0  0  0  0  0  0  0  0  0  0
  -27.0090  -15.9700   19.9130 H   0  0  0  0  0  0  0  0  0  0  0  0
  2  8  1  0
  2  1  1  0
  5  3  1  0
  5  4  1  0
  5  1  1  0
  6  3  1  0
  6  7  1  0
  6  2  1  0
  7 53  1  0
  7  4  1  0
  8  9  2  0
 10  8  1  0
 10 11  1  0
 12 11  1  0
 13 24  2  0
 14 12  1  0
 14 19  1  0
 15 23  1  0
 15 25  1  0
 16 18  1  0
 17 23  1  0
 18 19  2  0
 18 17  1  0
 20 14  2  0
 21 20  1  0
 21 16  2  0
 22 16  1  0
 22 15  1  0
 23 13  1  0
 25 27  2  0
 26 25  1  0
 28 26  1  0
 29 38  2  0
 29 34  1  0
 30 26  1  0
 30 34  1  0
 31 30  1  0
 32 33  1  0
 32 31  1  0
 33 29  1  0
 34 35  2  0
 35 36  1  0
 37 36  2  0
 38 37  1  0
 39 13  1  0
 39 44  1  0
 39 40  1  0
 40 43  1  1
 40 41  1  0
 42 40  1  0
 44 47  1  0
 45 49  1  0
 45 44  1  0
 46 45  2  0
 49 48  1  0
 51 49  1  0
 51 52  1  0
 51 50  1  0
 53 62  1  0
 54 62  1  0
 55 60  1  0
 56 57  1  0
 56 55  1  0
 58 57  1  0
 58 67  1  0
 58 59  1  0
 60 54  1  0
 60 59  1  0
 61 54  2  0
 62 63  1  0
 64 65  2  0
 65 84  1  0
 66 65  1  0
 66 69  1  0
 67 68  1  0
 67 64  1  0
 68 66  2  0
 69 70  1  0
 70 71  2  0
 72 75  1  0
 72 71  1  0
 73 72  2  0
 74 73  1  0
 74 69  2  0
 75 76  1  0
 76 77  1  0
 77 78  2  0
 79 78  1  0
 79 83  1  0
 80 79  2  0
 81 76  2  0
 81 80  1  0
 82 81  1  0
 84 85  1  0
 85 88  1  0
 85 87  1  0
 86 84  2  0
 89 90  1  0
 89 64  1  0
 91 89  1  0
M  ISO  4  11 101  12 101  54 100  62 100
M  END
>  <TORSDO>  (86) 
F 20

>  <SCORE>  (86) 
-13.043

>  <name>  (86) 
86

>  <ligand_id>  (86) 
86

>  <original_smiles>  (86) 
[H]C1=C(C(=O)C([H])([H])C([H])([H])Oc2c([H])c([H])c3c(c2[H])C([H])([H])N(C(=O)C([H])(N([H])C(=O)C([H])(N([H])C([H])([H])[H])C([H])([H])[H])C(C([H])([H])[H])(C([H])([H])[H])C([H])([H])[H])C([H])(C(=O)N([H])C2([H])c4c([H])c([H])c([H])c([H])c4C([H])([H])C([H])([H])C2([H])[H])C3([H])[H])C2([H])C([H])([H])C1([H])C([H])([H])C2([H])C([H])([H])N([H])C(=O)N1C([H])([H])C([H])([H])C([H])([H])C([H])(n2nc(-c3c([H])c([H])c(Oc4c([H])c([H])c(F)c([H])c4F)c([H])c3[H])c(C(=O)N([H])[H])c2N([H])[H])C1([H])[H]

>  <smiles>  (86) 
[H]C1=C(C(=O)C([H])([H])C([H])([H])Oc2c([H])c([H])c3c(c2[H])C([H])([H])N(C(=O)C([H])(N([H])C(=O)C([H])(N([H])C([H])([H])[H])C([H])([H])[H])C(C([H])([H])[H])(C([H])([H])[H])C([H])([H])[H])C([H])(C(=O)N([H])C2([H])c4c([H])c([H])c([H])c([H])c4C([H])([H])C([H])([H])C2([H])[H])C3([H])[H])C2([H])C([H])([H])C1([H])C([H])([H])C2([H])C([H])([H])N([H])C(=O)N1C([H])([H])C([H])([H])C([H])([H])C([H])(n2nc(-c3c([H])c([H])c(Oc4c([H])c([H])c(F)c([H])c4F)c([H])c3[H])c(C(=O)N([H])[H])c2N([H])[H])C1([H])[H]

$$$$
87:0:0
     RDKit          3D

 89 96  0  0  1  0  0  0  0  0999 V2000
  -28.5890  -23.2690   19.9350 C   0  0  0  0  0  3  0  0  0  0  0  0
  -26.3310  -22.5680   18.8590 C   0  0  0  0  0  1  0  0  0  0  0  0
  -27.7670  -23.0940   18.6180 C   0  0  0  0  0  3  0  0  0  0  0  0
  -29.8670  -22.6660   17.1330 C   0  0  0  0  0  1  0  0  0  0  0  0
  -28.4430  -22.2380   17.5210 C   0  0  0  0  0  2  0  0  0  0  0  0
  -28.7060  -21.7840   20.7510 C   0  0  0  0  0  2  0  0  0  0  0  0
  -29.5730  -20.4920   20.2320 C   0  0  0  0  0  3  0  0  0  0  0  0
  -29.5400  -19.0680   20.4200 C   0  0  0  0  0  3  0  0  0  0  0  0
  -30.2510  -17.5870   20.1230 C   0  0  0  0  0  2  0  0  0  0  0  0
  -30.5430  -14.9280   20.3350 C   0  0  0  0  0  0  0  0  0  0  0  0
  -30.3960  -12.6060   19.3720 C   0  0  0  0  0  2  0  0  0  0  0  0
  -29.4630  -12.6090   18.1380 C   0  0  0  0  0  2  0  0  0  0  0  0
  -27.9910  -12.4210   18.5590 C   0  0  0  0  0  2  0  0  0  0  0  0
  -27.6010  -13.3070   19.7710 C   0  0  0  0  0  3  0  0  0  0  0  0
  -28.6590  -13.2750   20.8960 C   0  0  0  0  0  2  0  0  0  0  0  0
  -29.9320  -13.6800   20.2910 N   0  0  0  0  0  0  0  0  0  0  0  0
  -31.7370  -14.9840   20.0140 O   0  0  0  0  0  0  0  0  0  0  0  0
  -29.8060  -16.1280   20.5030 N   0  0  0  0  0  0  0  0  0  0  0  0
  -28.8350  -16.0050   20.7540 H   0  0  0  0  0  0  0  0  0  0  0  0
  -25.2090  -13.8720   20.4900 C   0  0  0  0  0  0  0  0  0  0  0  0
  -24.1500  -13.0930   20.8620 C   0  0  0  0  0  0  0  0  0  0  0  0
  -24.6220  -11.7450   20.8420 C   0  0  0  0  0  0  0  0  0  0  0  0
  -26.2610  -13.0010   20.2610 N   0  0  0  0  0  0  0  0  0  0  0  0
  -25.9140  -11.7150   20.5360 N   0  0  0  0  0  0  0  0  0  0  0  0
  -23.9030  -10.4800   21.0300 C   0  0  0  0  0  0  0  0  0  0  0  0
  -24.3400   -9.5120   21.9610 C   0  0  0  0  0  3  0  0  0  0  0  0
  -23.6150   -8.3140   22.1470 C   0  0  0  0  0  3  0  0  0  0  0  0
  -22.4370   -8.0760   21.4010 C   0  0  0  0  0  0  0  0  0  0  0  0
  -22.0170   -9.0310   20.4590 C   0  0  0  0  0  3  0  0  0  0  0  0
  -22.7430  -10.2190   20.2710 C   0  0  0  0  0  3  0  0  0  0  0  0
  -21.6850   -6.9290   21.4970 O   0  0  0  0  0  0  0  0  0  0  0  0
  -21.6560   -6.1820   22.6470 C   0  0  0  0  0  0  0  0  0  0  0  0
  -21.2590   -6.7320   23.8860 C   0  0  0  0  0  3  0  0  0  0  0  0
  -21.1830   -5.9090   25.0290 C   0  0  0  0  0  3  0  0  0  0  0  0
  -21.4820   -4.5380   24.9280 C   0  0  0  0  0  0  0  0  0  0  0  0
  -21.8710   -3.9880   23.6950 C   0  0  0  0  0  3  0  0  0  0  0  0
  -21.9510   -4.8070   22.5560 C   0  0  0  0  0  0  0  0  0  0  0  0
  -22.3090   -4.2690   21.3660 F   0  0  0  0  0  0  0  0  0  0  0  0
  -21.3960   -3.7450   26.0240 F   0  0  0  0  0  0  0  0  0  0  0  0
  -22.7480  -13.5630   21.1230 C   0  0  0  0  0  0  0  0  0  0  0  0
  -22.0180  -12.8740   21.9890 N   0  0  0  0  0  0  0  0  0  0  0  0
  -22.3120  -14.5850   20.5900 O   0  0  0  0  0  0  0  0  0  0  0  0
  -22.3830  -12.0530   22.4500 H   0  0  0  0  0  0  0  0  0  0  0  0
  -21.0770  -13.1740   22.2000 H   0  0  0  0  0  0  0  0  0  0  0  0
  -25.3610  -15.2420   20.3050 N   0  0  0  0  0  0  0  0  0  0  0  0
  -24.5770  -15.8830   20.3950 H   0  0  0  0  0  0  0  0  0  0  0  0
  -26.2070  -15.6910   19.9780 H   0  0  0  0  0  0  0  0  0  0  0  0
  -28.0660  -24.7060   20.6540 C   0  0  0  0  0  2  0  0  0  0  0  0
  -28.2630  -26.1820   20.1940 O   0  0  0  0  0  0  0  0  0  0  0  0
  -24.6410  -31.8760   23.2050 C   0  0  0  0  0  0  0  0  0  0  0  0
  -27.1970  -27.1470   20.2000 C   0  0  0  0  0  0  0  0  0  0  0  0
  -23.4370  -30.4680   21.5810 C   0  0  0  0  0  3  0  0  0  0  0  0
  -24.8750  -28.8840   20.1580 C   0  0  0  0  0  0  0  0  0  0  0  0
  -25.9910  -30.7370   21.3990 C   0  0  0  0  0  2  0  0  0  0  0  0
  -26.0570  -29.3430   20.7550 C   0  0  0  0  0  0  0  0  0  0  0  0
  -27.2270  -28.4920   20.7470 C   0  0  0  0  0  3  0  0  0  0  0  0
  -25.9870  -26.7820   19.5780 C   0  0  0  0  0  3  0  0  0  0  0  0
  -24.8510  -27.6170   19.5540 C   0  0  0  0  0  3  0  0  0  0  0  0
  -23.6470  -29.7800   20.2040 C   0  0  0  0  0  2  0  0  0  0  0  0
  -24.7110  -31.0500   22.1160 N   0  0  0  0  0  0  0  0  0  0  0  0
  -23.5550  -32.1670   23.7310 O   0  0  0  0  0  0  0  0  0  0  0  0
  -22.7630  -29.4670   22.5550 C   0  0  0  0  0  0  0  0  0  0  0  0
  -21.4340  -29.3000   22.4360 N   0  0  0  0  0  0  0  0  0  0  0  0
  -23.4400  -28.8430   23.3780 O   0  0  0  0  0  0  0  0  0  0  0  0
  -20.9480  -29.8520   21.7440 H   0  0  0  0  0  0  0  0  0  0  0  0
  -18.0550  -28.0970   22.9600 C   0  0  0  0  0  0  0  0  0  0  0  0
  -20.6150  -28.3640   23.2130 C   0  0  0  0  0  3  0  0  0  0  0  0
  -20.7150  -26.9290   22.6480 C   0  0  0  0  0  2  0  0  0  0  0  0
  -19.6100  -26.5980   21.6420 C   0  0  0  0  0  2  0  0  0  0  0  0
  -18.2300  -26.7470   22.2890 C   0  0  0  0  0  2  0  0  0  0  0  0
  -19.1740  -28.8670   23.3770 C   0  0  0  0  0  0  0  0  0  0  0  0
  -18.9520  -30.1300   23.9670 C   0  0  0  0  0  3  0  0  0  0  0  0
  -17.6450  -30.6290   24.1360 C   0  0  0  0  0  3  0  0  0  0  0  0
  -16.5410  -29.8580   23.7300 C   0  0  0  0  0  3  0  0  0  0  0  0
  -16.7470  -28.5940   23.1480 C   0  0  0  0  0  3  0  0  0  0  0  0
  -25.9200  -32.5150   23.8280 C   0  0  0  0  0  3  0  0  0  0  0  0
  -26.4400  -31.7470   25.1060 C   0  0  1  0  0  0  0  0  0  0  0  0
  -25.3490  -31.5090   26.1760 C   0  0  0  0  0  1  0  0  0  0  0  0
  -27.0230  -30.3690   24.7160 C   0  0  0  0  0  1  0  0  0  0  0  0
  -27.5970  -32.5410   25.7570 C   0  0  0  0  0  1  0  0  0  0  0  0
  -25.6040  -33.9130   24.1650 N   0  0  0  0  0  0  0  0  0  0  0  0
  -25.9260  -34.9730   23.4130 C   0  0  0  0  0  0  0  0  0  0  0  0
  -26.5910  -34.8790   22.3780 O   0  0  0  0  0  0  0  0  0  0  0  0
  -25.0230  -34.0620   24.9770 H   0  0  0  0  0  0  0  0  0  0  0  0
  -24.1910  -36.7670   23.0930 C   0  0  0  0  0  1  0  0  0  0  0  0
  -25.4410  -36.3580   23.8880 C   0  0  0  0  0  3  0  0  0  0  0  0
  -27.5810  -37.2410   24.7040 C   0  0  0  0  0  1  0  0  0  0  0  0
  -26.4700  -37.4150   23.7740 N   0  0  0  0  0  0  0  0  0  0  0  0
  -26.0630  -38.3320   23.9340 H   0  0  0  0  0  0  0  0  0  0  0  0
  1 48  1  0
  1  6  1  0
  3  2  1  0
  3  1  1  0
  4  5  1  0
  5  3  1  0
  7  8  2  0
  7  6  1  0
  9  8  1  0
  9 18  1  0
 10 18  1  0
 11 16  1  0
 12 13  1  0
 12 11  1  0
 14 13  1  0
 14 23  1  0
 14 15  1  0
 16 10  1  0
 16 15  1  0
 17 10  2  0
 18 19  1  0
 20 21  2  0
 21 40  1  0
 22 21  1  0
 22 25  1  0
 23 20  1  0
 23 24  1  0
 24 22  2  0
 25 26  1  0
 26 27  2  0
 28 31  1  0
 28 27  1  0
 29 28  2  0
 30 29  1  0
 30 25  2  0
 31 32  1  0
 32 33  1  0
 33 34  2  0
 35 34  1  0
 35 39  1  0
 36 35  2  0
 37 32  2  0
 37 36  1  0
 38 37  1  0
 40 41  1  0
 41 44  1  0
 41 43  1  0
 42 40  2  0
 45 46  1  0
 45 20  1  0
 47 45  1  0
 49 51  1  0
 49 48  1  0
 50 61  2  0
 51 56  1  0
 52 60  1  0
 52 62  1  0
 53 59  1  0
 53 55  1  0
 54 60  1  0
 55 54  1  0
 56 55  2  0
 57 51  2  0
 58 57  1  0
 58 53  2  0
 59 52  1  0
 60 50  1  0
 62 64  2  0
 63 62  1  0
 65 63  1  0
 66 75  2  0
 66 71  1  0
 67 63  1  0
 67 71  1  0
 68 67  1  0
 69 70  1  0
 69 68  1  0
 70 66  1  0
 71 72  2  0
 72 73  1  0
 74 73  2  0
 75 74  1  0
 76 50  1  0
 76 81  1  0
 76 77  1  0
 77 80  1  1
 77 78  1  0
 79 77  1  0
 81 84  1  0
 82 86  1  0
 82 81  1  0
 83 82  2  0
 86 85  1  0
 88 86  1  0
 88 89  1  0
 88 87  1  0
M  ISO  4  10 100  18 100  48 101  49 101
M  END
>  <TORSDO>  (87) 
F 22

>  <SCORE>  (87) 
-13.508

>  <name>  (87) 
87

>  <ligand_id>  (87) 
87

>  <original_smiles>  (87) 
[H]C(=C([H])C([H])([H])C([H])(C([H])([H])Oc1c([H])c([H])c2c(c1[H])C([H])([H])N(C(=O)C([H])(N([H])C(=O)C([H])(N([H])C([H])([H])[H])C([H])([H])[H])C(C([H])([H])[H])(C([H])([H])[H])C([H])([H])[H])C([H])(C(=O)N([H])C1([H])c3c([H])c([H])c([H])c([H])c3C([H])([H])C([H])([H])C1([H])[H])C2([H])[H])C([H])(C([H])([H])[H])C([H])([H])C([H])([H])[H])C([H])([H])N([H])C(=O)N1C([H])([H])C([H])([H])C([H])([H])C([H])(n2nc(-c3c([H])c([H])c(Oc4c([H])c([H])c(F)c([H])c4F)c([H])c3[H])c(C(=O)N([H])[H])c2N([H])[H])C1([H])[H]

>  <smiles>  (87) 
[H]C(=C([H])C([H])([H])C([H])(C([H])([H])Oc1c([H])c([H])c2c(c1[H])C([H])([H])N(C(=O)C([H])(N([H])C(=O)C([H])(N([H])C([H])([H])[H])C([H])([H])[H])C(C([H])([H])[H])(C([H])([H])[H])C([H])([H])[H])C([H])(C(=O)N([H])C1([H])c3c([H])c([H])c([H])c([H])c3C([H])([H])C([H])([H])C1([H])[H])C2([H])[H])C([H])(C([H])([H])[H])C([H])([H])C([H])([H])[H])C([H])([H])N([H])C(=O)N1C([H])([H])C([H])([H])C([H])([H])C([H])(n2nc(-c3c([H])c([H])c(Oc4c([H])c([H])c(F)c([H])c4F)c([H])c3[H])c(C(=O)N([H])[H])c2N([H])[H])C1([H])[H]

$$$$
88:0:0
     RDKit          3D

 92 96  0  0  1  0  0  0  0  0999 V2000
  -29.9610  -16.6520   19.1140 C   0  0  0  0  0  3  0  0  0  0  0  0
  -29.6740  -19.2800   19.4880 C   0  0  0  0  0  3  0  0  0  0  0  0
  -27.9410  -17.6360   19.2790 C   0  0  0  0  0  3  0  0  0  0  0  0
  -30.4340  -18.0190   19.3610 C   0  0  0  0  0  0  0  0  0  0  0  0
  -28.6920  -15.8960   19.0890 C   0  0  0  0  0  3  0  0  0  0  0  0
  -28.2530  -19.5060   19.4700 C   0  0  0  0  0  3  0  0  0  0  0  0
  -28.4610  -13.0000   18.8640 C   0  0  0  0  0  2  0  0  0  0  0  0
  -31.9360  -18.1090   19.6450 C   0  0  0  0  0  0  0  0  0  0  0  0
  -32.3870  -19.1250   20.1840 O   0  0  0  0  0  0  0  0  0  0  0  0
  -32.9840  -16.9680   19.2700 C   0  0  0  0  0  3  0  0  0  0  0  0
  -35.3880  -16.7670   18.2200 C   0  0  0  0  0  1  0  0  0  0  0  0
  -34.2980  -17.6710   18.8190 C   0  0  0  0  0  2  0  0  0  0  0  0
  -33.3400  -15.8970   20.3880 C   0  0  0  0  0  2  0  0  0  0  0  0
  -32.7020  -14.4570   20.3910 C   0  0  0  0  0  2  0  0  0  0  0  0
  -31.3010  -14.4330   21.0330 C   0  0  0  0  0  0  0  0  0  0  0  0
  -30.5060  -13.4550   18.9220 C   0  0  0  0  0  2  0  0  0  0  0  0
  -29.0590  -13.4340   17.7100 C   0  0  0  0  0  2  0  0  0  0  0  0
  -27.1950  -13.5880   18.3560 C   0  0  0  0  0  1  0  0  0  0  0  0
  -26.9570  -13.8690   20.3310 C   0  0  0  0  0  1  0  0  0  0  0  0
  -28.6180  -14.0310   21.4190 C   0  0  0  0  0  1  0  0  0  0  0  0
  -30.2160  -13.8670   20.5910 N   0  0  0  0  0  0  0  0  0  0  0  0
  -31.2120  -15.1970   21.9060 O   0  0  0  0  0  0  0  0  0  0  0  0
  -24.7030  -13.4150   20.9000 C   0  0  0  0  0  0  0  0  0  0  0  0
  -23.8630  -12.4470   21.2900 C   0  0  0  0  0  0  0  0  0  0  0  0
  -24.5190  -11.1910   21.1140 C   0  0  0  0  0  0  0  0  0  0  0  0
  -25.9060  -12.8610   20.7120 N   0  0  0  0  0  0  0  0  0  0  0  0
  -25.8060  -11.4510   20.7500 N   0  0  0  0  0  0  0  0  0  0  0  0
  -23.8830   -9.8410   21.2690 C   0  0  0  0  0  0  0  0  0  0  0  0
  -24.3200   -8.8660   22.1980 C   0  0  0  0  0  3  0  0  0  0  0  0
  -23.5980   -7.6580   22.3930 C   0  0  0  0  0  3  0  0  0  0  0  0
  -22.4100   -7.4010   21.6650 C   0  0  0  0  0  0  0  0  0  0  0  0
  -21.9840   -8.3570   20.7280 C   0  0  0  0  0  3  0  0  0  0  0  0
  -22.7100   -9.5500   20.5290 C   0  0  0  0  0  3  0  0  0  0  0  0
  -21.6610   -6.2460   21.7660 O   0  0  0  0  0  0  0  0  0  0  0  0
  -21.5730   -5.5280   22.9360 C   0  0  0  0  0  0  0  0  0  0  0  0
  -20.9980   -6.0730   24.1060 C   0  0  0  0  0  3  0  0  0  0  0  0
  -20.8640   -5.2790   25.2630 C   0  0  0  0  0  3  0  0  0  0  0  0
  -21.2960   -3.9390   25.2560 C   0  0  0  0  0  0  0  0  0  0  0  0
  -21.8630   -3.3910   24.0910 C   0  0  0  0  0  3  0  0  0  0  0  0
  -21.9970   -4.1820   22.9350 C   0  0  0  0  0  0  0  0  0  0  0  0
  -22.5190   -3.6380   21.8100 F   0  0  0  0  0  0  0  0  0  0  0  0
  -21.1700   -3.1760   26.3660 F   0  0  0  0  0  0  0  0  0  0  0  0
  -22.4790  -12.7760   21.7160 C   0  0  0  0  0  0  0  0  0  0  0  0
  -21.9270  -12.0130   22.6470 N   0  0  0  0  0  0  0  0  0  0  0  0
  -21.9280  -13.7990   21.3060 O   0  0  0  0  0  0  0  0  0  0  0  0
  -22.4090  -11.2020   23.0060 H   0  0  0  0  0  0  0  0  0  0  0  0
  -21.0060  -12.2330   22.9990 H   0  0  0  0  0  0  0  0  0  0  0  0
  -24.5290  -14.7780   20.7120 N   0  0  0  0  0  0  0  0  0  0  0  0
  -23.6010  -15.1830   20.7710 H   0  0  0  0  0  0  0  0  0  0  0  0
  -25.1990  -15.3820   20.2570 H   0  0  0  0  0  0  0  0  0  0  0  0
  -27.5500  -21.7620   19.6490 C   0  0  0  0  0 15  0  0  0  0  0  0
  -27.7470  -23.9850   19.9700 O   0  0  0  0  0  1  0  0  0  0  0  0
  -24.7440  -31.5810   23.0960 C   0  0  0  0  0  0  0  0  0  0  0  0
  -27.0120  -25.6640   20.0570 C   0  0  0  0  0  0  0  0  0  0  0  0
  -23.5830  -30.1930   21.4530 C   0  0  0  0  0  3  0  0  0  0  0  0
  -24.9840  -28.3490   20.0770 C   0  0  0  0  0  0  0  0  0  0  0  0
  -26.1840  -29.9920   21.4670 C   0  0  0  0  0  2  0  0  0  0  0  0
  -26.1900  -28.4700   20.7670 C   0  0  0  0  0  0  0  0  0  0  0  0
  -27.1520  -27.1870   20.7070 C   0  0  0  0  0  3  0  0  0  0  0  0
  -25.7980  -26.0060   19.3320 C   0  0  0  0  0  3  0  0  0  0  0  0
  -24.8820  -27.1500   19.3370 C   0  0  0  0  0  3  0  0  0  0  0  0
  -23.8560  -29.4410   20.1050 C   0  0  0  0  0  2  0  0  0  0  0  0
  -24.8790  -30.6420   22.0590 N   0  0  0  0  0  0  0  0  0  0  0  0
  -23.6330  -31.9400   23.5390 O   0  0  0  0  0  0  0  0  0  0  0  0
  -22.7530  -29.3090   22.4330 C   0  0  0  0  0  0  0  0  0  0  0  0
  -21.4120  -29.2290   22.2900 N   0  0  0  0  0  0  0  0  0  0  0  0
  -23.3450  -28.6850   23.3180 O   0  0  0  0  0  0  0  0  0  0  0  0
  -20.9720  -29.7850   21.5700 H   0  0  0  0  0  0  0  0  0  0  0  0
  -17.9670  -28.1350   22.8090 C   0  0  0  0  0  0  0  0  0  0  0  0
  -20.5390  -28.3150   23.0480 C   0  0  0  0  0  3  0  0  0  0  0  0
  -20.5810  -26.8900   22.4440 C   0  0  0  0  0  2  0  0  0  0  0  0
  -19.4650  -26.6360   21.4270 C   0  0  0  0  0  2  0  0  0  0  0  0
  -18.0950  -26.8050   22.0850 C   0  0  0  0  0  2  0  0  0  0  0  0
  -19.1130  -28.8530   23.2440 C   0  0  0  0  0  0  0  0  0  0  0  0
  -18.9360  -30.0950   23.8910 C   0  0  0  0  0  3  0  0  0  0  0  0
  -17.6450  -30.6210   24.0990 C   0  0  0  0  0  3  0  0  0  0  0  0
  -16.5150  -29.9020   23.6730 C   0  0  0  0  0  3  0  0  0  0  0  0
  -16.6770  -28.6600   23.0350 C   0  0  0  0  0  3  0  0  0  0  0  0
  -25.9610  -32.2670   23.8000 C   0  0  0  0  0  3  0  0  0  0  0  0
  -25.6250  -33.6830   24.1160 N   0  0  0  0  0  0  0  0  0  0  0  0
  -25.9650  -34.7600   23.3910 C   0  0  0  0  0  0  0  0  0  0  0  0
  -26.6220  -34.6690   22.3530 O   0  0  0  0  0  0  0  0  0  0  0  0
  -25.0350  -33.8270   24.9220 H   0  0  0  0  0  0  0  0  0  0  0  0
  -24.2210  -36.5800   23.1640 C   0  0  0  0  0  1  0  0  0  0  0  0
  -25.5120  -36.1580   23.8860 C   0  0  0  0  0  3  0  0  0  0  0  0
  -27.6860  -37.0780   24.5850 C   0  0  0  0  0  1  0  0  0  0  0  0
  -26.5320  -37.2170   23.7030 N   0  0  0  0  0  0  0  0  0  0  0  0
  -26.1260  -38.1370   23.8550 H   0  0  0  0  0  0  0  0  0  0  0  0
  -26.3770  -31.5410   25.1400 C   0  0  1  0  0  0  0  0  0  0  0  0
  -25.2160  -31.3580   26.1480 C   0  0  0  0  0  1  0  0  0  0  0  0
  -26.9580  -30.1420   24.8570 C   0  0  0  0  0  1  0  0  0  0  0  0
  -27.4980  -32.3390   25.8480 C   0  0  0  0  0  1  0  0  0  0  0  0
  1  4  1  0
  3  6  2  0
  4  2  2  0
  4  8  1  0
  5  1  2  0
  5  3  1  0
  6  2  1  0
  8  9  2  0
 10 12  1  0
 10  8  1  0
 10 13  1  0
 11 12  1  0
 13 14  1  0
 14 15  1  0
 15 22  2  0
 16 21  1  0
 17  7  1  0
 17 16  1  0
 18  7  1  0
 19 26  1  0
 21 15  1  0
 21 20  1  0
 23 24  2  0
 24 43  1  0
 25 28  1  0
 25 24  1  0
 26 27  1  0
 26 23  1  0
 27 25  2  0
 28 29  1  0
 29 30  2  0
 31 34  1  0
 31 30  1  0
 32 31  2  0
 33 32  1  0
 33 28  2  0
 34 35  1  0
 35 36  1  0
 36 37  2  0
 38 37  1  0
 38 42  1  0
 39 38  2  0
 40 35  2  0
 40 39  1  0
 41 40  1  0
 43 44  1  0
 44 47  1  0
 44 46  1  0
 45 43  2  0
 48 49  1  0
 48 23  1  0
 50 48  1  0
 52 54  1  0
 53 64  2  0
 54 59  1  0
 55 63  1  0
 55 65  1  0
 56 62  1  0
 56 58  1  0
 57 63  1  0
 58 57  1  0
 59 58  2  0
 60 61  1  0
 60 54  2  0
 61 56  2  0
 62 55  1  0
 63 53  1  0
 65 67  2  0
 66 65  1  0
 68 66  1  0
 69 78  2  0
 69 74  1  0
 70 66  1  0
 70 74  1  0
 71 70  1  0
 72 73  1  0
 72 71  1  0
 73 69  1  0
 74 75  2  0
 75 76  1  0
 77 76  2  0
 78 77  1  0
 79 53  1  0
 79 80  1  0
 79 89  1  0
 80 83  1  0
 81 85  1  0
 81 80  1  0
 82 81  2  0
 85 84  1  0
 87 88  1  0
 87 85  1  0
 87 86  1  0
 89 92  1  1
 89 90  1  0
 91 89  1  0
M  ISO  4  14 100  15 100  51 101  52 101
M  END
>  <TORSDO>  (88) 
F 22

>  <SCORE>  (88) 
-11.201

>  <name>  (88) 
88

>  <ligand_id>  (88) 
88

>  <original_smiles>  (88) 
[H]c1c([H])c([H])c2c(c1[H])C([H])([H])C([H])([H])C([H])([H])C2([H])N([H])C(=O)C1([H])N(C(=O)C([H])(N([H])C(=O)C([H])(N([H])C([H])([H])[H])C([H])([H])[H])C(C([H])([H])[H])(C([H])([H])[H])C([H])([H])[H])C([H])([H])c2c([H])c(OC([H])([H])c3c([H])c(C(=O)C([H])(C([H])([H])C([H])([H])[H])C([H])([H])C([H])([H])C(=O)N4C([H])([H])C([H])([H])C([H])([H])C([H])(n5nc(-c6c([H])c([H])c(Oc7c([H])c([H])c(F)c([H])c7F)c([H])c6[H])c(C(=O)N([H])[H])c5N([H])[H])C4([H])[H])c([H])c(C([H])([H])[H])c3[H])c([H])c([H])c2C1([H])[H]

>  <smiles>  (88) 
[H]c1c([H])c([H])c2c(c1[H])C([H])([H])C([H])([H])C([H])([H])C2([H])N([H])C(=O)C1([H])N(C(=O)C([H])(N([H])C(=O)C([H])(N([H])C([H])([H])[H])C([H])([H])[H])C(C([H])([H])[H])(C([H])([H])[H])C([H])([H])[H])C([H])([H])c2c([H])c(OC([H])([H])c3c([H])c(C(=O)C([H])(C([H])([H])C([H])([H])[H])C([H])([H])C([H])([H])C(=O)N4C([H])([H])C([H])([H])C([H])([H])C([H])(n5nc(-c6c([H])c([H])c(Oc7c([H])c([H])c(F)c([H])c7F)c([H])c6[H])c(C(=O)N([H])[H])c5N([H])[H])C4([H])[H])c([H])c(C([H])([H])[H])c3[H])c([H])c([H])c2C1([H])[H]

$$$$
89:0:0
     RDKit          3D

 88 94  0  0  1  0  0  0  0  0999 V2000
  -32.2700  -20.4230   20.7430 C   0  0  0  0  0  2  0  0  0  0  0  0
  -31.3650  -21.2650   21.6710 C   0  0  0  0  0  2  0  0  0  0  0  0
  -31.1530  -22.0550   19.4060 C   0  0  0  0  0  2  0  0  0  0  0  0
  -30.6090  -19.6260   18.9300 C   0  0  0  0  0  2  0  0  0  0  0  0
  -31.7140  -20.6380   19.3250 C   0  0  0  0  0  3  0  0  0  0  0  0
  -30.4040  -22.0390   20.7420 C   0  0  0  0  0  3  0  0  0  0  0  0
  -28.9780  -21.4510   20.5060 C   0  0  0  0  0  1  0  0  0  0  0  0
  -29.5060  -19.4490   20.0000 C   0  0  0  0  0  2  0  0  0  0  0  0
  -30.1220  -16.0780   20.1270 C   0  0  0  0  0  0  0  0  0  0  0  0
  -30.2980  -13.4470   19.3300 C   0  0  0  0  0  2  0  0  0  0  0  0
  -29.4340  -12.8810   18.1530 C   0  0  0  0  0  2  0  0  0  0  0  0
  -28.0440  -12.4520   18.6360 C   0  0  0  0  0  2  0  0  0  0  0  0
  -27.4950  -13.4690   19.6560 C   0  0  0  0  0  3  0  0  0  0  0  0
  -28.5140  -13.9210   20.7400 C   0  0  0  0  0  2  0  0  0  0  0  0
  -29.6240  -14.6550   20.0550 N   0  0  0  0  0  0  0  0  0  0  0  0
  -31.3550  -15.9400   19.9460 O   0  0  0  0  0  0  0  0  0  0  0  0
  -29.3980  -17.5550   20.2140 N   0  0  0  0  0  0  0  0  0  0  0  0
  -28.4240  -17.3430   20.3890 H   0  0  0  0  0  0  0  0  0  0  0  0
  -25.1440  -13.9570   20.4530 C   0  0  0  0  0  0  0  0  0  0  0  0
  -24.0940  -13.1670   20.8230 C   0  0  0  0  0  0  0  0  0  0  0  0
  -24.5730  -11.8210   20.7800 C   0  0  0  0  0  0  0  0  0  0  0  0
  -26.1930  -13.0990   20.1970 N   0  0  0  0  0  0  0  0  0  0  0  0
  -25.8660  -11.8030   20.4560 N   0  0  0  0  0  0  0  0  0  0  0  0
  -23.8500  -10.5540   20.9680 C   0  0  0  0  0  0  0  0  0  0  0  0
  -24.2790   -9.5870   21.9030 C   0  0  0  0  0  3  0  0  0  0  0  0
  -23.5500   -8.3910   22.0840 C   0  0  0  0  0  3  0  0  0  0  0  0
  -22.3770   -8.1540   21.3290 C   0  0  0  0  0  0  0  0  0  0  0  0
  -21.9660   -9.1100   20.3830 C   0  0  0  0  0  3  0  0  0  0  0  0
  -22.6970  -10.2960   20.2020 C   0  0  0  0  0  3  0  0  0  0  0  0
  -21.6200   -7.0100   21.4170 O   0  0  0  0  0  0  0  0  0  0  0  0
  -21.5630   -6.2710   22.5730 C   0  0  0  0  0  0  0  0  0  0  0  0
  -21.1140   -6.8270   23.7910 C   0  0  0  0  0  3  0  0  0  0  0  0
  -21.0060   -6.0160   24.9370 C   0  0  0  0  0  3  0  0  0  0  0  0
  -21.3360   -4.6480   24.8670 C   0  0  0  0  0  0  0  0  0  0  0  0
  -21.7780   -4.0920   23.6540 C   0  0  0  0  0  3  0  0  0  0  0  0
  -21.8870   -4.9010   22.5100 C   0  0  0  0  0  0  0  0  0  0  0  0
  -22.2920   -4.3550   21.3380 F   0  0  0  0  0  0  0  0  0  0  0  0
  -21.2260   -3.8660   25.9670 F   0  0  0  0  0  0  0  0  0  0  0  0
  -22.6960  -13.6370   21.0980 C   0  0  0  0  0  0  0  0  0  0  0  0
  -21.9720  -12.9330   21.9600 N   0  0  0  0  0  0  0  0  0  0  0  0
  -22.2570  -14.6650   20.5830 O   0  0  0  0  0  0  0  0  0  0  0  0
  -22.3410  -12.1020   22.3970 H   0  0  0  0  0  0  0  0  0  0  0  0
  -21.0340  -13.2320   22.1890 H   0  0  0  0  0  0  0  0  0  0  0  0
  -25.2910  -15.3300   20.2770 N   0  0  0  0  0  0  0  0  0  0  0  0
  -24.5140  -15.9740   20.3850 H   0  0  0  0  0  0  0  0  0  0  0  0
  -26.1250  -15.7730   19.9160 H   0  0  0  0  0  0  0  0  0  0  0  0
  -28.1890  -23.3440   20.0090 C   0  0  0  0  0 15  0  0  0  0  0  0
  -28.1540  -25.2090   20.3560 O   0  0  0  0  0  1  0  0  0  0  0  0
  -24.6830  -31.8290   23.2120 C   0  0  0  0  0  0  0  0  0  0  0  0
  -27.2120  -26.5350   20.2630 C   0  0  0  0  0  0  0  0  0  0  0  0
  -23.5100  -30.4210   21.5780 C   0  0  0  0  0  3  0  0  0  0  0  0
  -24.9640  -28.7220   20.1860 C   0  0  0  0  0  0  0  0  0  0  0  0
  -26.0980  -30.4920   21.4920 C   0  0  0  0  0  2  0  0  0  0  0  0
  -26.1610  -29.0320   20.8390 C   0  0  0  0  0  0  0  0  0  0  0  0
  -27.2540  -27.9740   20.8420 C   0  0  0  0  0  3  0  0  0  0  0  0
  -25.9790  -26.5000   19.5420 C   0  0  0  0  0  3  0  0  0  0  0  0
  -24.9270  -27.4850   19.5130 C   0  0  0  0  0  3  0  0  0  0  0  0
  -23.7660  -29.7020   20.2170 C   0  0  0  0  0  2  0  0  0  0  0  0
  -24.7910  -30.9540   22.1460 N   0  0  0  0  0  0  0  0  0  0  0  0
  -23.5840  -32.1410   23.7050 O   0  0  0  0  0  0  0  0  0  0  0  0
  -22.7660  -29.4690   22.5580 C   0  0  0  0  0  0  0  0  0  0  0  0
  -21.4320  -29.3290   22.4320 N   0  0  0  0  0  0  0  0  0  0  0  0
  -23.4100  -28.8480   23.4070 O   0  0  0  0  0  0  0  0  0  0  0  0
  -20.9580  -29.8770   21.7270 H   0  0  0  0  0  0  0  0  0  0  0  0
  -18.0370  -28.1200   22.9460 C   0  0  0  0  0  0  0  0  0  0  0  0
  -20.5980  -28.3990   23.2080 C   0  0  0  0  0  3  0  0  0  0  0  0
  -20.7000  -26.9620   22.6420 C   0  0  0  0  0  2  0  0  0  0  0  0
  -19.6020  -26.6350   21.6270 C   0  0  0  0  0  2  0  0  0  0  0  0
  -18.2180  -26.7740   22.2670 C   0  0  0  0  0  2  0  0  0  0  0  0
  -19.1520  -28.8910   23.3730 C   0  0  0  0  0  0  0  0  0  0  0  0
  -18.9230  -30.1470   23.9750 C   0  0  0  0  0  3  0  0  0  0  0  0
  -17.6140  -30.6360   24.1490 C   0  0  0  0  0  3  0  0  0  0  0  0
  -16.5150  -29.8650   23.7330 C   0  0  0  0  0  3  0  0  0  0  0  0
  -16.7270  -28.6080   23.1390 C   0  0  0  0  0  3  0  0  0  0  0  0
  -25.9330  -32.4940   23.8650 C   0  0  0  0  0  3  0  0  0  0  0  0
  -25.6020  -33.8990   24.1910 N   0  0  0  0  0  0  0  0  0  0  0  0
  -25.9230  -34.9670   23.4460 C   0  0  0  0  0  0  0  0  0  0  0  0
  -26.5780  -34.8730   22.4060 O   0  0  0  0  0  0  0  0  0  0  0  0
  -25.0150  -34.0430   25.0000 H   0  0  0  0  0  0  0  0  0  0  0  0
  -24.1720  -36.7620   23.1660 C   0  0  0  0  0  1  0  0  0  0  0  0
  -25.4460  -36.3570   23.9250 C   0  0  0  0  0  3  0  0  0  0  0  0
  -27.6010  -37.2700   24.6800 C   0  0  0  0  0  1  0  0  0  0  0  0
  -26.4670  -37.4190   23.7720 N   0  0  0  0  0  0  0  0  0  0  0  0
  -26.0570  -38.3370   23.9240 H   0  0  0  0  0  0  0  0  0  0  0  0
  -26.4120  -31.7520   25.1750 C   0  0  1  0  0  0  0  0  0  0  0  0
  -25.2900  -31.5440   26.2220 C   0  0  0  0  0  1  0  0  0  0  0  0
  -26.9980  -30.3620   24.8450 C   0  0  0  0  0  1  0  0  0  0  0  0
  -27.5500  -32.5560   25.8470 C   0  0  0  0  0  1  0  0  0  0  0  0
  1  2  1  0
  3  6  1  0
  4  8  1  0
  5  4  1  0
  5  3  1  0
  5  1  1  0
  6  7  1  0
  6  2  1  0
  8 17  1  0
  9 17  1  0
 10 15  1  0
 11 12  1  0
 11 10  1  0
 13 12  1  0
 13 22  1  0
 13 14  1  0
 15  9  1  0
 15 14  1  0
 16  9  2  0
 17 18  1  0
 19 20  2  0
 20 39  1  0
 21 20  1  0
 21 24  1  0
 22 19  1  0
 22 23  1  0
 23 21  2  0
 24 25  1  0
 25 26  2  0
 27 30  1  0
 27 26  1  0
 28 27  2  0
 29 28  1  0
 29 24  2  0
 30 31  1  0
 31 32  1  0
 32 33  2  0
 34 33  1  0
 34 38  1  0
 35 34  2  0
 36 31  2  0
 36 35  1  0
 37 36  1  0
 39 40  1  0
 40 43  1  0
 40 42  1  0
 41 39  2  0
 44 45  1  0
 44 19  1  0
 46 44  1  0
 49 60  2  0
 50 48  1  0
 50 55  1  0
 51 59  1  0
 51 61  1  0
 52 58  1  0
 52 54  1  0
 53 59  1  0
 54 55  2  0
 54 53  1  0
 56 50  2  0
 57 56  1  0
 57 52  2  0
 58 51  1  0
 59 49  1  0
 61 63  2  0
 62 61  1  0
 64 62  1  0
 65 74  2  0
 65 70  1  0
 66 62  1  0
 66 70  1  0
 67 66  1  0
 68 69  1  0
 68 67  1  0
 69 65  1  0
 70 71  2  0
 71 72  1  0
 73 72  2  0
 74 73  1  0
 75 49  1  0
 75 76  1  0
 75 85  1  0
 76 79  1  0
 77 81  1  0
 77 76  1  0
 78 77  2  0
 81 80  1  0
 83 84  1  0
 83 81  1  0
 83 82  1  0
 85 88  1  1
 85 86  1  0
 87 85  1  0
M  ISO  4   9 100  17 100  47 101  48 101
M  END
>  <TORSDO>  (89) 
F 17

>  <SCORE>  (89) 
-16.573

>  <name>  (89) 
89

>  <ligand_id>  (89) 
89

>  <original_smiles>  (89) 
[H]c1c([H])c([H])c2c(c1[H])C([H])([H])C([H])([H])C([H])([H])C2([H])N([H])C(=O)C1([H])N(C(=O)C([H])(N([H])C(=O)C([H])(N([H])C([H])([H])[H])C([H])([H])[H])C(C([H])([H])[H])(C([H])([H])[H])C([H])([H])[H])C([H])([H])c2c([H])c(OC([H])([H])C3([H])C([H])(N([H])C(=O)N4C([H])([H])C([H])([H])C([H])([H])C([H])(n5nc(-c6c([H])c([H])c(Oc7c([H])c([H])c(F)c([H])c7F)c([H])c6[H])c(C(=O)N([H])[H])c5N([H])[H])C4([H])[H])C([H])([H])C4([H])C([H])([H])C([H])([H])C3([H])C4([H])[H])c([H])c([H])c2C1([H])[H]

>  <smiles>  (89) 
[H]c1c([H])c([H])c2c(c1[H])C([H])([H])C([H])([H])C([H])([H])C2([H])N([H])C(=O)C1([H])N(C(=O)C([H])(N([H])C(=O)C([H])(N([H])C([H])([H])[H])C([H])([H])[H])C(C([H])([H])[H])(C([H])([H])[H])C([H])([H])[H])C([H])([H])c2c([H])c(OC([H])([H])C3([H])C([H])(N([H])C(=O)N4C([H])([H])C([H])([H])C([H])([H])C([H])(n5nc(-c6c([H])c([H])c(Oc7c([H])c([H])c(F)c([H])c7F)c([H])c6[H])c(C(=O)N([H])[H])c5N([H])[H])C4([H])[H])C([H])([H])C4([H])C([H])([H])C([H])([H])C3([H])C4([H])[H])c([H])c([H])c2C1([H])[H]

$$$$
90:0:0
     RDKit          3D

 89 99  0  0  1  0  0  0  0  0999 V2000
  -29.8600  -19.1780   21.2540 C   0  0  0  0  0  0  0  0  0  0  0  0
  -27.8310  -19.3350   20.0000 C   0  0  0  0  0  2  0  0  0  0  0  0
  -28.6630  -20.1650   21.0040 C   0  0  1  0  0  0  0  0  0  0  0  0
  -30.1890  -18.4090   19.9290 C   0  0  0  0  0  3  0  0  0  0  0  0
  -28.7100  -21.2010   19.7830 C   0  0  0  0  0  3  0  0  0  0  0  0
  -29.1580  -19.5890   19.2360 C   0  0  1  0  0  0  0  0  0  0  0  0
  -30.4490  -18.9640   22.3150 O   0  0  0  0  0  0  0  0  0  0  0  0
  -30.7300  -15.4660   19.8460 C   0  0  0  0  0  0  0  0  0  0  0  0
  -30.6730  -13.0180   18.9570 C   0  0  0  0  0  2  0  0  0  0  0  0
  -29.6800  -12.7930   17.7890 C   0  0  0  0  0  2  0  0  0  0  0  0
  -28.2650  -12.5060   18.3210 C   0  0  0  0  0  2  0  0  0  0  0  0
  -27.8760  -13.4600   19.4770 C   0  0  0  0  0  3  0  0  0  0  0  0
  -28.9930  -13.6260   20.5290 C   0  0  0  0  0  2  0  0  0  0  0  0
  -30.1680  -14.1540   19.8150 N   0  0  0  0  0  0  0  0  0  0  0  0
  -31.9410  -15.4650   19.5810 O   0  0  0  0  0  0  0  0  0  0  0  0
  -29.9570  -16.7360   19.9450 N   0  0  0  0  0  0  0  0  0  0  0  0
  -28.9860  -16.5180   20.1000 H   0  0  0  0  0  0  0  0  0  0  0  0
  -25.5730  -13.9960   20.4290 C   0  0  0  0  0  0  0  0  0  0  0  0
  -24.5350  -13.2080   20.8420 C   0  0  0  0  0  0  0  0  0  0  0  0
  -24.9880  -11.8590   20.7210 C   0  0  0  0  0  0  0  0  0  0  0  0
  -26.5890  -13.1280   20.0720 N   0  0  0  0  0  0  0  0  0  0  0  0
  -26.2540  -11.8330   20.3150 N   0  0  0  0  0  0  0  0  0  0  0  0
  -24.2650  -10.5930   20.9080 C   0  0  0  0  0  0  0  0  0  0  0  0
  -24.6950   -9.6290   21.8470 C   0  0  0  0  0  3  0  0  0  0  0  0
  -23.9700   -8.4300   22.0240 C   0  0  0  0  0  3  0  0  0  0  0  0
  -22.8010   -8.1880   21.2630 C   0  0  0  0  0  0  0  0  0  0  0  0
  -22.3910   -9.1420   20.3140 C   0  0  0  0  0  3  0  0  0  0  0  0
  -23.1170  -10.3310   20.1350 C   0  0  0  0  0  3  0  0  0  0  0  0
  -22.0470   -7.0430   21.3500 O   0  0  0  0  0  0  0  0  0  0  0  0
  -21.8990   -6.3670   22.5350 C   0  0  0  0  0  0  0  0  0  0  0  0
  -21.3080   -6.9690   23.6670 C   0  0  0  0  0  3  0  0  0  0  0  0
  -21.1110   -6.2170   24.8420 C   0  0  0  0  0  3  0  0  0  0  0  0
  -21.4950   -4.8630   24.8850 C   0  0  0  0  0  0  0  0  0  0  0  0
  -22.0770   -4.2590   23.7570 C   0  0  0  0  0  3  0  0  0  0  0  0
  -22.2760   -5.0090   22.5840 C   0  0  0  0  0  0  0  0  0  0  0  0
  -22.8190   -4.4160   21.4930 F   0  0  0  0  0  0  0  0  0  0  0  0
  -21.2980   -4.1380   26.0120 F   0  0  0  0  0  0  0  0  0  0  0  0
  -23.1640  -13.6820   21.2250 C   0  0  0  0  0  0  0  0  0  0  0  0
  -22.4920  -12.9600   22.1160 N   0  0  0  0  0  0  0  0  0  0  0  0
  -22.7000  -14.7270   20.7710 O   0  0  0  0  0  0  0  0  0  0  0  0
  -22.8840  -12.1150   22.5060 H   0  0  0  0  0  0  0  0  0  0  0  0
  -21.5750  -13.2590   22.4140 H   0  0  0  0  0  0  0  0  0  0  0  0
  -25.7290  -15.3720   20.2940 N   0  0  0  0  0  0  0  0  0  0  0  0
  -24.9650  -16.0150   20.4730 H   0  0  0  0  0  0  0  0  0  0  0  0
  -26.5240  -15.8160   19.8550 H   0  0  0  0  0  0  0  0  0  0  0  0
  -29.2300  -22.8970   19.8210 C   0  0  0  0  0  0  0  0  0  0  0  0
  -30.4360  -23.1520   19.8880 O   0  0  0  0  0  0  0  0  0  0  0  0
  -28.1920  -24.3300   19.7470 C   0  0  0  0  0  2  0  0  0  0  0  0
  -28.5180  -25.9460   19.9540 O   0  0  0  0  0  0  0  0  0  0  0  0
  -24.8650  -31.7140   23.2600 C   0  0  0  0  0  0  0  0  0  0  0  0
  -27.5180  -27.0630   19.9560 C   0  0  0  0  0  0  0  0  0  0  0  0
  -23.7240  -30.4470   21.4860 C   0  0  0  0  0  3  0  0  0  0  0  0
  -25.2180  -28.9530   19.9880 C   0  0  0  0  0  0  0  0  0  0  0  0
  -26.2950  -30.6640   21.4330 C   0  0  0  0  0  2  0  0  0  0  0  0
  -26.3880  -29.3060   20.6710 C   0  0  0  0  0  0  0  0  0  0  0  0
  -27.5330  -28.3860   20.6300 C   0  0  0  0  0  3  0  0  0  0  0  0
  -26.3160  -26.8710   19.2360 C   0  0  0  0  0  3  0  0  0  0  0  0
  -25.2090  -27.7590   19.2510 C   0  0  0  0  0  3  0  0  0  0  0  0
  -23.9970  -29.8700   20.0700 C   0  0  0  0  0  2  0  0  0  0  0  0
  -24.9810  -30.9640   22.1150 N   0  0  0  0  0  0  0  0  0  0  0  0
  -23.7600  -31.9630   23.7680 O   0  0  0  0  0  0  0  0  0  0  0  0
  -23.0020  -29.3810   22.3520 C   0  0  0  0  0  0  0  0  0  0  0  0
  -21.6710  -29.2490   22.1990 N   0  0  0  0  0  0  0  0  0  0  0  0
  -23.6480  -28.6760   23.1310 O   0  0  0  0  0  0  0  0  0  0  0  0
  -21.2030  -29.8700   21.5530 H   0  0  0  0  0  0  0  0  0  0  0  0
  -18.2550  -28.0990   22.6210 C   0  0  0  0  0  0  0  0  0  0  0  0
  -20.8260  -28.2590   22.8760 C   0  0  0  0  0  3  0  0  0  0  0  0
  -20.8760  -26.8950   22.1480 C   0  0  0  0  0  2  0  0  0  0  0  0
  -19.7530  -26.7170   21.1210 C   0  0  0  0  0  2  0  0  0  0  0  0
  -18.3830  -26.8290   21.7960 C   0  0  0  0  0  2  0  0  0  0  0  0
  -19.4010  -28.7780   23.1140 C   0  0  0  0  0  0  0  0  0  0  0  0
  -19.2240  -29.9700   23.8500 C   0  0  0  0  0  3  0  0  0  0  0  0
  -17.9360  -30.4820   24.0940 C   0  0  0  0  0  3  0  0  0  0  0  0
  -16.8050  -29.7980   23.6140 C   0  0  0  0  0  3  0  0  0  0  0  0
  -16.9660  -28.6070   22.8840 C   0  0  0  0  0  3  0  0  0  0  0  0
  -26.1150  -32.3080   23.9770 C   0  0  0  0  0  3  0  0  0  0  0  0
  -25.8020  -33.6970   24.3570 N   0  0  0  0  0  0  0  0  0  0  0  0
  -26.1390  -34.7820   23.6460 C   0  0  0  0  0  0  0  0  0  0  0  0
  -26.8070  -34.7180   22.6110 O   0  0  0  0  0  0  0  0  0  0  0  0
  -25.2070  -33.8210   25.1620 H   0  0  0  0  0  0  0  0  0  0  0  0
  -24.3990  -36.5880   23.4050 C   0  0  0  0  0  1  0  0  0  0  0  0
  -25.6640  -36.1560   24.1640 C   0  0  0  0  0  3  0  0  0  0  0  0
  -27.8110  -37.0340   24.9750 C   0  0  0  0  0  1  0  0  0  0  0  0
  -26.6910  -37.2160   24.0560 N   0  0  0  0  0  0  0  0  0  0  0  0
  -26.2830  -38.1320   24.2300 H   0  0  0  0  0  0  0  0  0  0  0  0
  -26.5460  -31.4820   25.2530 C   0  0  1  0  0  0  0  0  0  0  0  0
  -25.3910  -31.2300   26.2520 C   0  0  0  0  0  1  0  0  0  0  0  0
  -27.1250  -30.1070   24.8530 C   0  0  0  0  0  1  0  0  0  0  0  0
  -27.6720  -32.2300   26.0040 C   0  0  0  0  0  1  0  0  0  0  0  0
  1  7  2  0
  3  2  1  6
  3  1  1  0
  4 16  1  0
  4  1  1  0
  5 46  1  0
  5  3  1  0
  6  5  1  0
  6  4  1  0
  6  2  1  1
  6  3  1  0
  8 16  1  0
  9 14  1  0
 10 11  1  0
 10  9  1  0
 12 11  1  0
 12 21  1  0
 12 13  1  0
 14  8  1  0
 14 13  1  0
 15  8  2  0
 16 17  1  0
 18 19  2  0
 19 38  1  0
 20 19  1  0
 20 23  1  0
 21 22  1  0
 21 18  1  0
 22 20  2  0
 23 24  1  0
 24 25  2  0
 26 29  1  0
 26 25  1  0
 27 26  2  0
 28 27  1  0
 28 23  2  0
 29 30  1  0
 30 35  2  0
 30 31  1  0
 31 32  2  0
 32 33  1  0
 33 37  1  0
 34 33  2  0
 35 34  1  0
 36 35  1  0
 38 39  1  0
 39 42  1  0
 39 41  1  0
 40 38  2  0
 43 18  1  0
 43 44  1  0
 45 43  1  0
 46 47  2  0
 48 46  1  0
 48 49  1  0
 49 51  1  0
 50 61  2  0
 51 56  1  0
 52 60  1  0
 52 62  1  0
 53 59  1  0
 53 55  1  0
 54 60  1  0
 55 54  1  0
 56 55  2  0
 57 58  1  0
 57 51  2  0
 58 53  2  0
 59 52  1  0
 60 50  1  0
 62 64  2  0
 63 62  1  0
 65 63  1  0
 66 75  2  0
 66 71  1  0
 67 63  1  0
 67 71  1  0
 68 67  1  0
 69 70  1  0
 69 68  1  0
 70 66  1  0
 71 72  2  0
 72 73  1  0
 74 73  2  0
 75 74  1  0
 76 50  1  0
 76 77  1  0
 76 86  1  0
 77 80  1  0
 78 82  1  0
 78 77  1  0
 79 78  2  0
 82 81  1  0
 84 82  1  0
 84 85  1  0
 84 83  1  0
 86 89  1  1
 86 87  1  0
 88 86  1  0
M  ISO  4   8 100  16 100  48 101  49 101
M  END
>  <TORSDO>  (90) 
F 18

>  <SCORE>  (90) 
-15.381

>  <name>  (90) 
90

>  <ligand_id>  (90) 
90

>  <original_smiles>  (90) 
[H]c1c([H])c([H])c2c(c1[H])C([H])([H])C([H])([H])C([H])([H])C2([H])N([H])C(=O)C1([H])N(C(=O)C([H])(N([H])C(=O)C([H])(N([H])C([H])([H])[H])C([H])([H])[H])C(C([H])([H])[H])(C([H])([H])[H])C([H])([H])[H])C([H])([H])c2c([H])c(OC([H])([H])C(=O)C3([H])C4([H])C(=O)C([H])(N([H])C(=O)N5C([H])([H])C([H])([H])C([H])([H])C([H])(n6nc(-c7c([H])c([H])c(Oc8c([H])c([H])c(F)c([H])c8F)c([H])c7[H])c(C(=O)N([H])[H])c6N([H])[H])C5([H])[H])C3([H])C4([H])[H])c([H])c([H])c2C1([H])[H]

>  <smiles>  (90) 
[H]c1c([H])c([H])c2c(c1[H])C([H])([H])C([H])([H])C([H])([H])C2([H])N([H])C(=O)C1([H])N(C(=O)C([H])(N([H])C(=O)C([H])(N([H])C([H])([H])[H])C([H])([H])[H])C(C([H])([H])[H])(C([H])([H])[H])C([H])([H])[H])C([H])([H])c2c([H])c(OC([H])([H])C(=O)C3([H])C4([H])C(=O)C([H])(N([H])C(=O)N5C([H])([H])C([H])([H])C([H])([H])C([H])(n6nc(-c7c([H])c([H])c(Oc8c([H])c([H])c(F)c([H])c8F)c([H])c7[H])c(C(=O)N([H])[H])c6N([H])[H])C5([H])[H])C3([H])C4([H])[H])c([H])c([H])c2C1([H])[H]

$$$$
91:0:0
     RDKit          3D

 87 96  0  0  1  0  0  0  0  0999 V2000
  -29.0870  -20.5900   20.4700 C   0  0  0  0  0  0  0  0  0  0  0  0
  -28.6270  -20.4700   21.6100 O   0  0  0  0  0  0  0  0  0  0  0  0
  -30.3560  -15.7960   20.0860 C   0  0  0  0  0  0  0  0  0  0  0  0
  -30.4790  -13.2480   19.3040 C   0  0  0  0  0  2  0  0  0  0  0  0
  -29.5900  -12.8100   18.1100 C   0  0  0  0  0  2  0  0  0  0  0  0
  -28.2000  -12.3920   18.6170 C   0  0  0  0  0  2  0  0  0  0  0  0
  -27.6500  -13.4210   19.6200 C   0  0  0  0  0  3  0  0  0  0  0  0
  -28.6780  -13.8070   20.7130 C   0  0  0  0  0  2  0  0  0  0  0  0
  -29.8430  -14.4260   20.0350 N   0  0  0  0  0  0  0  0  0  0  0  0
  -31.5990  -15.7440   19.9560 O   0  0  0  0  0  0  0  0  0  0  0  0
  -27.3400  -18.9210   17.9530 C   0  0  0  0  0  2  0  0  0  0  0  0
  -28.1730  -16.8940   19.6330 C   0  0  0  0  0  2  0  0  0  0  0  0
  -29.6380  -18.9010   19.7010 C   0  0  0  0  0  3  0  0  0  0  0  0
  -27.5960  -18.2330   19.2250 C   0  0  0  0  0  3  0  0  0  0  0  0
  -28.7840  -18.8290   18.4320 C   0  0  0  0  0  3  0  0  0  0  0  0
  -29.5630  -17.1480   20.0490 N   0  0  0  0  0  0  0  0  0  0  0  0
  -25.2890  -13.9520   20.3850 C   0  0  0  0  0  0  0  0  0  0  0  0
  -24.2400  -13.1770   20.7750 C   0  0  0  0  0  0  0  0  0  0  0  0
  -24.7240  -11.8330   20.7490 C   0  0  0  0  0  0  0  0  0  0  0  0
  -26.3430  -13.0860   20.1530 N   0  0  0  0  0  0  0  0  0  0  0  0
  -26.0160  -11.8020   20.4360 N   0  0  0  0  0  0  0  0  0  0  0  0
  -24.0090  -10.5720   20.9480 C   0  0  0  0  0  0  0  0  0  0  0  0
  -24.4510   -9.6260   21.8990 C   0  0  0  0  0  3  0  0  0  0  0  0
  -23.7400   -8.4230   22.0890 C   0  0  0  0  0  3  0  0  0  0  0  0
  -22.5760   -8.1600   21.3310 C   0  0  0  0  0  0  0  0  0  0  0  0
  -22.1530   -9.0960   20.3700 C   0  0  0  0  0  3  0  0  0  0  0  0
  -22.8620  -10.2910   20.1770 C   0  0  0  0  0  3  0  0  0  0  0  0
  -21.8380   -7.0080   21.4310 O   0  0  0  0  0  0  0  0  0  0  0  0
  -21.7820   -6.2800   22.5950 C   0  0  0  0  0  0  0  0  0  0  0  0
  -21.3100   -6.8440   23.8000 C   0  0  0  0  0  3  0  0  0  0  0  0
  -21.2010   -6.0440   24.9550 C   0  0  0  0  0  3  0  0  0  0  0  0
  -21.5590   -4.6840   24.9060 C   0  0  0  0  0  0  0  0  0  0  0  0
  -22.0230   -4.1200   23.7060 C   0  0  0  0  0  3  0  0  0  0  0  0
  -22.1310   -4.9150   22.5510 C   0  0  0  0  0  0  0  0  0  0  0  0
  -22.5570   -4.3630   21.3900 F   0  0  0  0  0  0  0  0  0  0  0  0
  -21.4520   -3.9160   26.0150 F   0  0  0  0  0  0  0  0  0  0  0  0
  -22.8420  -13.6460   21.0510 C   0  0  0  0  0  0  0  0  0  0  0  0
  -22.1270  -12.9480   21.9240 N   0  0  0  0  0  0  0  0  0  0  0  0
  -22.3970  -14.6680   20.5270 O   0  0  0  0  0  0  0  0  0  0  0  0
  -22.5010  -12.1150   22.3530 H   0  0  0  0  0  0  0  0  0  0  0  0
  -21.1850  -13.2330   22.1580 H   0  0  0  0  0  0  0  0  0  0  0  0
  -25.4320  -15.3160   20.1740 N   0  0  0  0  0  0  0  0  0  0  0  0
  -24.7070  -16.0050   20.3160 H   0  0  0  0  0  0  0  0  0  0  0  0
  -26.3050  -15.7180   19.8710 H   0  0  0  0  0  0  0  0  0  0  0  0
  -29.0690  -22.3640   19.9510 C   0  0  0  0  0  3  0  0  0  0  0  0
  -28.1470  -24.0050   20.3480 C   0  0  0  0  0  3  0  0  0  0  0  0
  -28.2760  -25.7300   20.1860 O   0  0  0  0  0  0  0  0  0  0  0  0
  -24.6310  -31.8790   23.1610 C   0  0  0  0  0  0  0  0  0  0  0  0
  -27.2480  -26.8760   20.1810 C   0  0  0  0  0  0  0  0  0  0  0  0
  -23.4640  -30.4610   21.5310 C   0  0  0  0  0  3  0  0  0  0  0  0
  -24.9290  -28.8270   20.1350 C   0  0  0  0  0  0  0  0  0  0  0  0
  -26.0380  -30.6490   21.4030 C   0  0  0  0  0  2  0  0  0  0  0  0
  -26.1200  -29.2190   20.7570 C   0  0  0  0  0  0  0  0  0  0  0  0
  -27.2630  -28.2720   20.7500 C   0  0  0  0  0  3  0  0  0  0  0  0
  -26.0160  -26.6760   19.5080 C   0  0  0  0  0  3  0  0  0  0  0  0
  -24.9080  -27.5720   19.4980 C   0  0  0  0  0  3  0  0  0  0  0  0
  -23.7110  -29.7560   20.1660 C   0  0  0  0  0  2  0  0  0  0  0  0
  -24.7360  -31.0310   22.0850 N   0  0  0  0  0  0  0  0  0  0  0  0
  -23.5330  -32.1690   23.6670 O   0  0  0  0  0  0  0  0  0  0  0  0
  -22.7600  -29.4800   22.5040 C   0  0  0  0  0  0  0  0  0  0  0  0
  -21.4290  -29.3200   22.3800 N   0  0  0  0  0  0  0  0  0  0  0  0
  -23.4200  -28.8590   23.3380 O   0  0  0  0  0  0  0  0  0  0  0  0
  -20.9510  -29.8680   21.6780 H   0  0  0  0  0  0  0  0  0  0  0  0
  -18.0510  -28.1020   22.9180 C   0  0  0  0  0  0  0  0  0  0  0  0
  -20.6130  -28.3750   23.1540 C   0  0  0  0  0  3  0  0  0  0  0  0
  -20.7130  -26.9470   22.5680 C   0  0  0  0  0  2  0  0  0  0  0  0
  -19.5980  -26.6270   21.5660 C   0  0  0  0  0  2  0  0  0  0  0  0
  -18.2240  -26.7590   22.2260 C   0  0  0  0  0  2  0  0  0  0  0  0
  -19.1700  -28.8670   23.3400 C   0  0  0  0  0  0  0  0  0  0  0  0
  -18.9520  -30.1180   23.9510 C   0  0  0  0  0  3  0  0  0  0  0  0
  -17.6470  -30.6040   24.1520 C   0  0  0  0  0  3  0  0  0  0  0  0
  -16.5420  -29.8390   23.7450 C   0  0  0  0  0  3  0  0  0  0  0  0
  -16.7450  -28.5900   23.1320 C   0  0  0  0  0  3  0  0  0  0  0  0
  -25.8850  -32.5460   23.8070 C   0  0  0  0  0  3  0  0  0  0  0  0
  -25.5460  -33.9450   24.1360 N   0  0  0  0  0  0  0  0  0  0  0  0
  -25.8910  -35.0130   23.4010 C   0  0  0  0  0  0  0  0  0  0  0  0
  -26.5840  -34.9210   22.3860 O   0  0  0  0  0  0  0  0  0  0  0  0
  -24.9250  -34.0870   24.9180 H   0  0  0  0  0  0  0  0  0  0  0  0
  -24.1750  -36.8150   23.0220 C   0  0  0  0  0  1  0  0  0  0  0  0
  -25.3930  -36.3990   23.8630 C   0  0  0  0  0  3  0  0  0  0  0  0
  -27.5030  -37.2730   24.7710 C   0  0  0  0  0  1  0  0  0  0  0  0
  -26.4320  -37.4520   23.7910 N   0  0  0  0  0  0  0  0  0  0  0  0
  -26.0270  -38.3740   23.9260 H   0  0  0  0  0  0  0  0  0  0  0  0
  -26.3800  -31.8000   25.1080 C   0  0  1  0  0  0  0  0  0  0  0  0
  -25.2650  -31.5620   26.1550 C   0  0  0  0  0  1  0  0  0  0  0  0
  -26.9870  -30.4260   24.7550 C   0  0  0  0  0  1  0  0  0  0  0  0
  -27.5190  -32.6080   25.7750 C   0  0  0  0  0  1  0  0  0  0  0  0
  1  2  2  0
  4  9  1  0
  5  6  1  0
  5  4  1  0
  7  6  1  0
  7 20  1  0
  7  8  1  0
  9  3  1  0
  9  8  1  0
 10  3  2  0
 12 16  1  0
 13 16  1  0
 13  1  1  0
 14 11  1  0
 14 12  1  0
 15 11  1  0
 15 14  1  0
 15 13  1  0
 16  3  1  0
 17 18  2  0
 18 37  1  0
 19 18  1  0
 19 22  1  0
 20 17  1  0
 20 21  1  0
 21 19  2  0
 22 23  1  0
 23 24  2  0
 25 28  1  0
 25 24  1  0
 26 25  2  0
 27 26  1  0
 27 22  2  0
 28 29  1  0
 29 30  1  0
 30 31  2  0
 32 31  1  0
 32 36  1  0
 33 32  2  0
 34 29  2  0
 34 33  1  0
 35 34  1  0
 37 38  1  0
 38 41  1  0
 38 40  1  0
 39 37  2  0
 42 43  1  0
 42 17  1  0
 44 42  1  0
 45 46  2  0
 45  1  1  0
 47 46  1  0
 48 59  2  0
 49 47  1  0
 49 54  1  0
 50 58  1  0
 50 60  1  0
 51 57  1  0
 51 53  1  0
 52 58  1  0
 53 52  1  0
 54 53  2  0
 55 49  2  0
 56 55  1  0
 56 51  2  0
 57 50  1  0
 58 48  1  0
 60 62  2  0
 61 60  1  0
 63 61  1  0
 64 73  2  0
 64 69  1  0
 65 61  1  0
 65 69  1  0
 66 65  1  0
 67 68  1  0
 67 66  1  0
 68 64  1  0
 69 70  2  0
 70 71  1  0
 72 71  2  0
 73 72  1  0
 74 48  1  0
 74 75  1  0
 74 84  1  0
 75 78  1  0
 76 80  1  0
 76 75  1  0
 77 76  2  0
 80 79  1  0
 82 80  1  0
 82 83  1  0
 82 81  1  0
 84 87  1  1
 84 85  1  0
 86 84  1  0
M  ISO  4   3 100  16 100  46 101  47 101
M  END
>  <TORSDO>  (91) 
F 18

>  <SCORE>  (91) 
-16.335

>  <name>  (91) 
91

>  <ligand_id>  (91) 
91

>  <original_smiles>  (91) 
[H]c1c([H])c([H])c2c(c1[H])C([H])([H])C([H])([H])C([H])([H])C2([H])N([H])C(=O)C1([H])N(C(=O)C([H])(N([H])C(=O)C([H])(N([H])C([H])([H])[H])C([H])([H])[H])C(C([H])([H])[H])(C([H])([H])[H])C([H])([H])[H])C([H])([H])c2c([H])c(OC([H])([H])C([H])([H])C(=O)C3([H])N(C(=O)N4C([H])([H])C([H])([H])C([H])([H])C([H])(n5nc(-c6c([H])c([H])c(Oc7c([H])c([H])c(F)c([H])c7F)c([H])c6[H])c(C(=O)N([H])[H])c5N([H])[H])C4([H])[H])C([H])([H])C4([H])C([H])([H])C34[H])c([H])c([H])c2C1([H])[H]

>  <smiles>  (91) 
[H]c1c([H])c([H])c2c(c1[H])C([H])([H])C([H])([H])C([H])([H])C2([H])N([H])C(=O)C1([H])N(C(=O)C([H])(N([H])C(=O)C([H])(N([H])C([H])([H])[H])C([H])([H])[H])C(C([H])([H])[H])(C([H])([H])[H])C([H])([H])[H])C([H])([H])c2c([H])c(OC([H])([H])C([H])([H])C(=O)C3([H])N(C(=O)N4C([H])([H])C([H])([H])C([H])([H])C([H])(n5nc(-c6c([H])c([H])c(Oc7c([H])c([H])c(F)c([H])c7F)c([H])c6[H])c(C(=O)N([H])[H])c5N([H])[H])C4([H])[H])C([H])([H])C4([H])C([H])([H])C34[H])c([H])c([H])c2C1([H])[H]

$$$$
92:0:0
     RDKit          3D

 90 99  0  0  1  0  0  0  0  0999 V2000
  -28.9500  -21.2690   19.7220 C   0  0  0  0  0  2  0  0  0  0  0  0
  -29.2140  -22.2300   20.6430 C   0  0  0  0  0  3  0  0  0  0  0  0
  -29.7310  -21.1900   21.6600 C   0  0  0  0  0  2  0  0  0  0  0  0
  -31.3330  -18.1870   20.1610 C   0  0  0  0  0  2  0  0  0  0  0  0
  -31.0490  -19.6940   19.8740 C   0  0  0  0  0  2  0  0  0  0  0  0
  -29.0390  -18.6450   20.6850 C   0  0  0  0  0  2  0  0  0  0  0  0
  -29.9730  -17.4780   20.0780 C   0  0  0  0  0  3  0  0  0  0  0  0
  -29.7030  -20.1050   20.5090 C   0  0  2  0  0  0  0  0  0  0  0  0
  -30.6480  -14.8670   20.2390 C   0  0  0  0  0  0  0  0  0  0  0  0
  -30.4590  -12.5800   19.2250 C   0  0  0  0  0  2  0  0  0  0  0  0
  -29.4980  -12.6450   18.0170 C   0  0  0  0  0  2  0  0  0  0  0  0
  -28.0390  -12.4520   18.4730 C   0  0  0  0  0  2  0  0  0  0  0  0
  -27.6810  -13.3260   19.7050 C   0  0  0  0  0  3  0  0  0  0  0  0
  -28.7620  -13.2430   20.8060 C   0  0  0  0  0  2  0  0  0  0  0  0
  -30.0420  -13.6250   20.1960 N   0  0  0  0  0  0  0  0  0  0  0  0
  -31.8070  -14.9780   19.8290 O   0  0  0  0  0  0  0  0  0  0  0  0
  -29.8730  -15.9950   20.5330 N   0  0  0  0  0  0  0  0  0  0  0  0
  -28.9690  -15.7540   20.9130 H   0  0  0  0  0  0  0  0  0  0  0  0
  -25.3100  -13.8920   20.5000 C   0  0  0  0  0  0  0  0  0  0  0  0
  -24.2550  -13.1080   20.8840 C   0  0  0  0  0  0  0  0  0  0  0  0
  -24.7230  -11.7600   20.8190 C   0  0  0  0  0  0  0  0  0  0  0  0
  -26.3510  -13.0220   20.2230 N   0  0  0  0  0  0  0  0  0  0  0  0
  -26.0070  -11.7330   20.4780 N   0  0  0  0  0  0  0  0  0  0  0  0
  -24.0050  -10.4910   21.0040 C   0  0  0  0  0  0  0  0  0  0  0  0
  -24.4470   -9.5200   21.9290 C   0  0  0  0  0  3  0  0  0  0  0  0
  -23.7270   -8.3190   22.1030 C   0  0  0  0  0  3  0  0  0  0  0  0
  -22.5510   -8.0800   21.3540 C   0  0  0  0  0  0  0  0  0  0  0  0
  -22.1270   -9.0420   20.4210 C   0  0  0  0  0  3  0  0  0  0  0  0
  -22.8480  -10.2350   20.2430 C   0  0  0  0  0  3  0  0  0  0  0  0
  -21.7990   -6.9320   21.4400 O   0  0  0  0  0  0  0  0  0  0  0  0
  -21.7420   -6.1950   22.5950 C   0  0  0  0  0  0  0  0  0  0  0  0
  -21.2620   -6.7400   23.8060 C   0  0  0  0  0  3  0  0  0  0  0  0
  -21.1540   -5.9270   24.9510 C   0  0  0  0  0  3  0  0  0  0  0  0
  -21.5170   -4.5690   24.8880 C   0  0  0  0  0  0  0  0  0  0  0  0
  -21.9920   -4.0210   23.6820 C   0  0  0  0  0  3  0  0  0  0  0  0
  -22.1010   -4.8320   22.5390 C   0  0  0  0  0  0  0  0  0  0  0  0
  -22.5380   -4.2950   21.3750 F   0  0  0  0  0  0  0  0  0  0  0  0
  -21.4060   -3.7850   25.9860 F   0  0  0  0  0  0  0  0  0  0  0  0
  -22.8650  -13.5770   21.1940 C   0  0  0  0  0  0  0  0  0  0  0  0
  -22.1550  -12.8630   22.0600 N   0  0  0  0  0  0  0  0  0  0  0  0
  -22.4160  -14.6120   20.7030 O   0  0  0  0  0  0  0  0  0  0  0  0
  -22.5300  -12.0260   22.4820 H   0  0  0  0  0  0  0  0  0  0  0  0
  -21.2210  -13.1600   22.3070 H   0  0  0  0  0  0  0  0  0  0  0  0
  -25.4640  -15.2670   20.3400 N   0  0  0  0  0  0  0  0  0  0  0  0
  -24.6950  -15.9140   20.4750 H   0  0  0  0  0  0  0  0  0  0  0  0
  -26.2940  -15.7150   19.9770 H   0  0  0  0  0  0  0  0  0  0  0  0
  -30.5920  -24.3670   20.7110 C   0  0  0  0  0  1  0  0  0  0  0  0
  -29.1540  -23.8370   20.8380 C   0  0  0  0  0  3  0  0  0  0  0  0
  -28.1500  -24.8790   20.0800 C   0  0  0  0  0  2  0  0  0  0  0  0
  -28.2830  -26.3740   20.3280 O   0  0  0  0  0  0  0  0  0  0  0  0
  -24.5520  -31.8940   23.2380 C   0  0  0  0  0  0  0  0  0  0  0  0
  -27.1780  -27.2640   20.2340 C   0  0  0  0  0  0  0  0  0  0  0  0
  -23.3560  -30.4800   21.6080 C   0  0  0  0  0  3  0  0  0  0  0  0
  -24.8150  -28.9180   20.1900 C   0  0  0  0  0  0  0  0  0  0  0  0
  -25.8980  -30.7920   21.4260 C   0  0  0  0  0  2  0  0  0  0  0  0
  -25.9840  -29.4030   20.7890 C   0  0  0  0  0  0  0  0  0  0  0  0
  -27.1660  -28.5900   20.7960 C   0  0  0  0  0  3  0  0  0  0  0  0
  -25.9870  -26.8560   19.5940 C   0  0  0  0  0  3  0  0  0  0  0  0
  -24.8240  -27.6540   19.5790 C   0  0  0  0  0  3  0  0  0  0  0  0
  -23.5750  -29.7940   20.2330 C   0  0  0  0  0  2  0  0  0  0  0  0
  -24.6220  -31.0750   22.1470 N   0  0  0  0  0  0  0  0  0  0  0  0
  -23.4660  -32.1730   23.7690 O   0  0  0  0  0  0  0  0  0  0  0  0
  -22.6920  -29.4710   22.5760 C   0  0  0  0  0  0  0  0  0  0  0  0
  -21.3680  -29.2840   22.4460 N   0  0  0  0  0  0  0  0  0  0  0  0
  -23.3710  -28.8580   23.4060 O   0  0  0  0  0  0  0  0  0  0  0  0
  -20.8790  -29.8320   21.7510 H   0  0  0  0  0  0  0  0  0  0  0  0
  -17.9920  -28.0770   22.9550 C   0  0  0  0  0  0  0  0  0  0  0  0
  -20.5500  -28.3480   23.2230 C   0  0  0  0  0  3  0  0  0  0  0  0
  -20.6580  -26.9150   22.6550 C   0  0  0  0  0  2  0  0  0  0  0  0
  -19.5560  -26.5820   21.6420 C   0  0  0  0  0  2  0  0  0  0  0  0
  -18.1740  -26.7250   22.2860 C   0  0  0  0  0  2  0  0  0  0  0  0
  -19.1080  -28.8460   23.3810 C   0  0  0  0  0  0  0  0  0  0  0  0
  -18.8830  -30.1090   23.9680 C   0  0  0  0  0  3  0  0  0  0  0  0
  -17.5780  -30.6060   24.1330 C   0  0  0  0  0  3  0  0  0  0  0  0
  -16.4750  -29.8350   23.7230 C   0  0  0  0  0  3  0  0  0  0  0  0
  -16.6840  -28.5720   23.1410 C   0  0  0  0  0  3  0  0  0  0  0  0
  -25.8300  -32.5370   23.8610 C   0  0  0  0  0  3  0  0  0  0  0  0
  -25.5140  -33.9380   24.1770 N   0  0  0  0  0  0  0  0  0  0  0  0
  -25.8450  -34.9860   23.4100 C   0  0  0  0  0  0  0  0  0  0  0  0
  -26.5140  -34.8730   22.3790 O   0  0  0  0  0  0  0  0  0  0  0  0
  -24.9160  -34.0990   24.9730 H   0  0  0  0  0  0  0  0  0  0  0  0
  -24.1240  -36.7810   23.0310 C   0  0  0  0  0  1  0  0  0  0  0  0
  -25.3570  -36.3780   23.8560 C   0  0  0  0  0  3  0  0  0  0  0  0
  -27.4800  -37.2680   24.7090 C   0  0  0  0  0  1  0  0  0  0  0  0
  -26.3940  -37.4280   23.7460 N   0  0  0  0  0  0  0  0  0  0  0  0
  -25.9880  -38.3510   23.8770 H   0  0  0  0  0  0  0  0  0  0  0  0
  -26.3400  -31.7820   25.1490 C   0  0  1  0  0  0  0  0  0  0  0  0
  -25.2400  -31.5500   26.2120 C   0  0  0  0  0  1  0  0  0  0  0  0
  -26.9340  -30.4040   24.7760 C   0  0  0  0  0  1  0  0  0  0  0  0
  -27.4850  -32.5870   25.8090 C   0  0  0  0  0  1  0  0  0  0  0  0
  1  2  1  0
  2 48  1  0
  2  3  1  0
  5  4  1  0
  8  5  1  6
  7  4  1  0
  7 17  1  0
  7  6  1  0
  8  1  1  0
  8  6  1  0
  8  3  1  0
  9 17  1  0
 10 15  1  0
 11 12  1  0
 11 10  1  0
 13 12  1  0
 13 22  1  0
 13 14  1  0
 15  9  1  0
 15 14  1  0
 16  9  2  0
 17 18  1  0
 19 20  2  0
 20 39  1  0
 21 20  1  0
 21 24  1  0
 22 23  1  0
 22 19  1  0
 23 21  2  0
 24 25  1  0
 25 26  2  0
 27 30  1  0
 27 26  1  0
 28 27  2  0
 29 28  1  0
 29 24  2  0
 30 31  1  0
 31 32  1  0
 32 33  2  0
 34 33  1  0
 34 38  1  0
 35 34  2  0
 36 31  2  0
 36 35  1  0
 37 36  1  0
 39 40  1  0
 40 43  1  0
 40 42  1  0
 41 39  2  0
 44 45  1  0
 44 19  1  0
 46 44  1  0
 48 47  1  0
 49 50  1  0
 49 48  1  0
 51 62  2  0
 52 50  1  0
 52 57  1  0
 53 61  1  0
 53 63  1  0
 54 60  1  0
 54 56  1  0
 55 61  1  0
 56 57  2  0
 56 55  1  0
 58 52  2  0
 59 58  1  0
 59 54  2  0
 60 53  1  0
 61 51  1  0
 63 65  2  0
 64 63  1  0
 66 64  1  0
 67 76  2  0
 67 72  1  0
 68 64  1  0
 68 72  1  0
 69 68  1  0
 70 71  1  0
 70 69  1  0
 71 67  1  0
 72 73  2  0
 73 74  1  0
 75 74  2  0
 76 75  1  0
 77 51  1  0
 77 78  1  0
 77 87  1  0
 78 81  1  0
 79 83  1  0
 79 78  1  0
 80 79  2  0
 83 82  1  0
 85 83  1  0
 85 86  1  0
 85 84  1  0
 87 90  1  1
 87 88  1  0
 89 87  1  0
M  ISO  4   9 100  17 100  49 101  50 101
M  END
>  <TORSDO>  (92) 
F 18

>  <SCORE>  (92) 
-14.709

>  <name>  (92) 
92

>  <ligand_id>  (92) 
92

>  <original_smiles>  (92) 
[H]C1=C(C([H])(C([H])([H])[H])C([H])([H])Oc2c([H])c([H])c3c(c2[H])C([H])([H])N(C(=O)C([H])(N([H])C(=O)C([H])(N([H])C([H])([H])[H])C([H])([H])[H])C(C([H])([H])[H])(C([H])([H])[H])C([H])([H])[H])C([H])(C(=O)N([H])C2([H])c4c([H])c([H])c([H])c([H])c4C([H])([H])C([H])([H])C2([H])[H])C3([H])[H])C([H])([H])C12C([H])([H])C([H])([H])C([H])(N([H])C(=O)N1C([H])([H])C([H])([H])C([H])([H])C([H])(n3nc(-c4c([H])c([H])c(Oc5c([H])c([H])c(F)c([H])c5F)c([H])c4[H])c(C(=O)N([H])[H])c3N([H])[H])C1([H])[H])C2([H])[H]

>  <smiles>  (92) 
[H]C1=C(C([H])(C([H])([H])[H])C([H])([H])Oc2c([H])c([H])c3c(c2[H])C([H])([H])N(C(=O)C([H])(N([H])C(=O)C([H])(N([H])C([H])([H])[H])C([H])([H])[H])C(C([H])([H])[H])(C([H])([H])[H])C([H])([H])[H])C([H])(C(=O)N([H])C2([H])c4c([H])c([H])c([H])c([H])c4C([H])([H])C([H])([H])C2([H])[H])C3([H])[H])C([H])([H])C12C([H])([H])C([H])([H])C([H])(N([H])C(=O)N1C([H])([H])C([H])([H])C([H])([H])C([H])(n3nc(-c4c([H])c([H])c(Oc5c([H])c([H])c(F)c([H])c5F)c([H])c4[H])c(C(=O)N([H])[H])c3N([H])[H])C1([H])[H])C2([H])[H]

$$$$
93:0:0
     RDKit          3D

 91100  0  0  1  0  0  0  0  0999 V2000
  -31.5640  -20.7190   21.0630 C   0  0  0  0  0  2  0  0  0  0  0  0
  -30.8260  -19.3840   21.3940 C   0  0  0  0  0  2  0  0  0  0  0  0
  -29.7780  -22.1730   22.2060 C   0  0  0  0  0  2  0  0  0  0  0  0
  -28.6570  -20.4800   20.4660 C   0  0  0  0  0  2  0  0  0  0  0  0
  -30.7030  -21.9980   21.0680 C   0  0  0  0  0  3  0  0  0  0  0  0
  -29.6770  -19.1370   20.4090 C   0  0  0  0  0  3  0  0  0  0  0  0
  -29.1850  -22.0050   20.8050 C   0  0  2  0  0  0  0  0  0  0  0  0
  -28.1930  -23.3520   20.5860 C   0  0  0  0  0  2  0  0  0  0  0  0
  -28.5590  -24.8710   19.9450 C   0  0  0  0  0  2  0  0  0  0  0  0
  -28.3540  -26.3210   20.4760 O   0  0  0  0  0  0  0  0  0  0  0  0
  -24.6190  -31.9690   23.2610 C   0  0  0  0  0  0  0  0  0  0  0  0
  -27.2550  -27.2380   20.3160 C   0  0  0  0  0  0  0  0  0  0  0  0
  -23.4340  -30.5370   21.6400 C   0  0  0  0  0  3  0  0  0  0  0  0
  -24.9000  -28.9450   20.2380 C   0  0  0  0  0  0  0  0  0  0  0  0
  -25.9820  -30.8220   21.4760 C   0  0  0  0  0  2  0  0  0  0  0  0
  -26.0660  -29.4210   20.8460 C   0  0  0  0  0  0  0  0  0  0  0  0
  -27.2380  -28.5800   20.8710 C   0  0  0  0  0  3  0  0  0  0  0  0
  -26.0660  -26.8540   19.6630 C   0  0  0  0  0  3  0  0  0  0  0  0
  -24.9120  -27.6750   19.6300 C   0  0  0  0  0  3  0  0  0  0  0  0
  -23.6630  -29.8320   20.2720 C   0  0  0  0  0  2  0  0  0  0  0  0
  -24.6980  -31.1320   22.1810 N   0  0  0  0  0  0  0  0  0  0  0  0
  -23.5290  -32.2550   23.7830 O   0  0  0  0  0  0  0  0  0  0  0  0
  -22.7570  -29.5450   22.6180 C   0  0  0  0  0  0  0  0  0  0  0  0
  -21.4300  -29.3610   22.4840 N   0  0  0  0  0  0  0  0  0  0  0  0
  -23.4270  -28.9430   23.4610 O   0  0  0  0  0  0  0  0  0  0  0  0
  -20.9450  -29.8970   21.7790 H   0  0  0  0  0  0  0  0  0  0  0  0
  -18.0600  -28.1370   22.9850 C   0  0  0  0  0  0  0  0  0  0  0  0
  -20.6130  -28.4310   23.2670 C   0  0  0  0  0  3  0  0  0  0  0  0
  -20.7340  -26.9890   22.7200 C   0  0  0  0  0  2  0  0  0  0  0  0
  -19.6440  -26.6370   21.7030 C   0  0  0  0  0  2  0  0  0  0  0  0
  -18.2550  -26.7780   22.3320 C   0  0  0  0  0  2  0  0  0  0  0  0
  -19.1660  -28.9190   23.4080 C   0  0  0  0  0  0  0  0  0  0  0  0
  -18.9280  -30.1890   23.9780 C   0  0  0  0  0  3  0  0  0  0  0  0
  -17.6160  -30.6790   24.1250 C   0  0  0  0  0  3  0  0  0  0  0  0
  -16.5250  -29.8940   23.7160 C   0  0  0  0  0  3  0  0  0  0  0  0
  -16.7460  -28.6250   23.1540 C   0  0  0  0  0  3  0  0  0  0  0  0
  -25.8910  -32.6230   23.8840 C   0  0  0  0  0  3  0  0  0  0  0  0
  -26.4060  -31.8730   25.1740 C   0  0  1  0  0  0  0  0  0  0  0  0
  -25.3070  -31.6400   26.2380 C   0  0  0  0  0  1  0  0  0  0  0  0
  -27.0030  -30.4970   24.8050 C   0  0  0  0  0  1  0  0  0  0  0  0
  -27.5460  -32.6840   25.8330 C   0  0  0  0  0  1  0  0  0  0  0  0
  -25.5690  -34.0230   24.2040 N   0  0  0  0  0  0  0  0  0  0  0  0
  -25.8940  -35.0770   23.4420 C   0  0  0  0  0  0  0  0  0  0  0  0
  -26.5620  -34.9720   22.4100 O   0  0  0  0  0  0  0  0  0  0  0  0
  -24.9780  -34.1780   25.0070 H   0  0  0  0  0  0  0  0  0  0  0  0
  -24.1530  -36.8590   23.0840 C   0  0  0  0  0  1  0  0  0  0  0  0
  -25.4000  -36.4660   23.8930 C   0  0  0  0  0  3  0  0  0  0  0  0
  -27.5300  -37.3720   24.7140 C   0  0  0  0  0  1  0  0  0  0  0  0
  -26.4260  -37.5250   23.7700 N   0  0  0  0  0  0  0  0  0  0  0  0
  -26.0140  -38.4440   23.9100 H   0  0  0  0  0  0  0  0  0  0  0  0
  -29.1390  -17.5300   20.2620 C   0  0  0  0  0  0  0  0  0  0  0  0
  -30.4740  -15.0500   20.4640 C   0  0  0  0  0  0  0  0  0  0  0  0
  -30.4220  -12.7090   19.4860 C   0  0  0  0  0  2  0  0  0  0  0  0
  -29.5090  -12.6990   18.2360 C   0  0  0  0  0  2  0  0  0  0  0  0
  -28.0360  -12.4760   18.6290 C   0  0  0  0  0  2  0  0  0  0  0  0
  -27.6130  -13.3490   19.8400 C   0  0  0  0  0  3  0  0  0  0  0  0
  -28.6470  -13.3130   20.9880 C   0  0  0  0  0  2  0  0  0  0  0  0
  -29.9320  -13.7610   20.4300 N   0  0  0  0  0  0  0  0  0  0  0  0
  -31.6200  -15.1870   20.0260 O   0  0  0  0  0  0  0  0  0  0  0  0
  -29.6900  -16.1640   20.8730 N   0  0  0  0  0  4  0  0  0  0  0  0
  -29.0010  -15.8160   21.5230 H   0  0  0  0  0  0  0  0  0  0  0  0
  -25.1990  -13.8940   20.5000 C   0  0  0  0  0  0  0  0  0  0  0  0
  -24.1420  -13.1020   20.8550 C   0  0  0  0  0  0  0  0  0  0  0  0
  -24.6320  -11.7600   20.8520 C   0  0  0  0  0  0  0  0  0  0  0  0
  -26.2660  -13.0320   20.2980 N   0  0  0  0  0  0  0  0  0  0  0  0
  -25.9290  -11.7440   20.5730 N   0  0  0  0  0  0  0  0  0  0  0  0
  -23.9260  -10.4870   21.0390 C   0  0  0  0  0  0  0  0  0  0  0  0
  -24.3570   -9.5350   21.9870 C   0  0  0  0  0  3  0  0  0  0  0  0
  -23.6490   -8.3240   22.1620 C   0  0  0  0  0  3  0  0  0  0  0  0
  -22.4950   -8.0590   21.3880 C   0  0  0  0  0  0  0  0  0  0  0  0
  -22.0850   -9.0020   20.4280 C   0  0  0  0  0  3  0  0  0  0  0  0
  -22.7930  -10.2020   20.2520 C   0  0  0  0  0  3  0  0  0  0  0  0
  -21.7560   -6.9030   21.4710 O   0  0  0  0  0  0  0  0  0  0  0  0
  -21.7010   -6.1660   22.6290 C   0  0  0  0  0  0  0  0  0  0  0  0
  -21.2400   -6.7180   23.8430 C   0  0  0  0  0  3  0  0  0  0  0  0
  -21.1370   -5.9060   24.9910 C   0  0  0  0  0  3  0  0  0  0  0  0
  -21.4800   -4.5430   24.9220 C   0  0  0  0  0  0  0  0  0  0  0  0
  -21.9320   -3.9900   23.7110 C   0  0  0  0  0  3  0  0  0  0  0  0
  -22.0410   -4.8010   22.5680 C   0  0  0  0  0  0  0  0  0  0  0  0
  -22.4560   -4.2570   21.3970 F   0  0  0  0  0  0  0  0  0  0  0  0
  -21.3750   -3.7600   26.0220 F   0  0  0  0  0  0  0  0  0  0  0  0
  -22.7300  -13.5560   21.0910 C   0  0  0  0  0  0  0  0  0  0  0  0
  -21.9930  -12.8510   21.9430 N   0  0  0  0  0  0  0  0  0  0  0  0
  -22.2850  -14.5670   20.5520 O   0  0  0  0  0  0  0  0  0  0  0  0
  -22.3630  -12.0340   22.4050 H   0  0  0  0  0  0  0  0  0  0  0  0
  -21.0420  -13.1300   22.1380 H   0  0  0  0  0  0  0  0  0  0  0  0
  -25.3460  -15.2640   20.3090 N   0  0  0  0  0  0  0  0  0  0  0  0
  -24.5700  -15.9100   20.3910 H   0  0  0  0  0  0  0  0  0  0  0  0
  -26.1920  -15.6980   19.9610 H   0  0  0  0  0  0  0  0  0  0  0  0
  -27.7080  -18.1470   18.1550 C   0  0  0  0  0  1  0  0  0  0  0  0
  -28.7530  -17.2220   18.7940 C   0  0  0  0  0  2  0  0  0  0  0  0
  1  2  1  0
  4  7  1  0
  5  1  1  0
  5  3  1  0
  6 51  1  0
  6  4  1  0
  6  2  1  0
  7  8  1  6
  7  5  1  0
  7  3  1  0
  9 10  1  0
  9  8  1  0
 11 22  2  0
 12 10  1  0
 12 17  1  0
 13 21  1  0
 13 23  1  0
 14 20  1  0
 14 16  1  0
 15 21  1  0
 16 17  2  0
 16 15  1  0
 18 12  2  0
 19 18  1  0
 19 14  2  0
 20 13  1  0
 21 11  1  0
 23 25  2  0
 24 23  1  0
 26 24  1  0
 27 36  2  0
 27 32  1  0
 28 24  1  0
 28 32  1  0
 29 28  1  0
 30 31  1  0
 30 29  1  0
 31 27  1  0
 32 33  2  0
 33 34  1  0
 35 34  2  0
 36 35  1  0
 37 11  1  0
 37 42  1  0
 37 38  1  0
 38 41  1  1
 38 39  1  0
 40 38  1  0
 42 45  1  0
 43 47  1  0
 43 42  1  0
 44 43  2  0
 47 46  1  0
 49 47  1  0
 49 50  1  0
 49 48  1  0
 51 60  2  3
 52 60  1  0
 53 58  1  0
 54 55  1  0
 54 53  1  0
 56 55  1  0
 56 65  1  0
 56 57  1  0
 58 52  1  0
 58 57  1  0
 59 52  2  0
 60 61  1  0
 62 63  2  0
 63 82  1  0
 64 63  1  0
 64 67  1  0
 65 62  1  0
 65 66  1  0
 66 64  2  0
 67 68  1  0
 68 69  2  0
 70 73  1  0
 70 69  1  0
 71 70  2  0
 72 71  1  0
 72 67  2  0
 73 74  1  0
 74 75  1  0
 75 76  2  0
 77 76  1  0
 77 81  1  0
 78 77  2  0
 79 74  2  0
 79 78  1  0
 80 79  1  0
 82 83  1  0
 83 86  1  0
 83 85  1  0
 84 82  2  0
 87 88  1  0
 87 62  1  0
 89 87  1  0
 90 91  1  0
 91 51  1  0
M  ISO  4   9 101  10 101  52 100  60 100
M  END
>  <TORSDO>  (93) 
F 20

>  <SCORE>  (93) 
-14.582

>  <name>  (93) 
93

>  <ligand_id>  (93) 
93

>  <original_smiles>  (93) 
[H]c1c([H])c([H])c2c(c1[H])C([H])([H])C([H])([H])C([H])([H])C2([H])N([H])C(=O)C1([H])N(C(=O)C([H])(N([H])C(=O)C([H])(N([H])C([H])([H])[H])C([H])([H])[H])C(C([H])([H])[H])(C([H])([H])[H])C([H])([H])[H])C([H])([H])c2c([H])c(OC([H])([H])C([H])([H])C34C([H])([H])C([H])(C([H])(N([H])C(=O)N5C([H])([H])C([H])([H])C([H])([H])C([H])(n6nc(-c7c([H])c([H])c(Oc8c([H])c([H])c(F)c([H])c8F)c([H])c7[H])c(C(=O)N([H])[H])c6N([H])[H])C5([H])[H])C([H])([H])C([H])([H])[H])C([H])([H])C([H])([H])C3([H])C4([H])[H])c([H])c([H])c2C1([H])[H]

>  <smiles>  (93) 
[H]c1c([H])c([H])c2c(c1[H])C([H])([H])C([H])([H])C([H])([H])C2([H])N([H])C(=O)C1([H])N(C(=O)C([H])(N([H])C(=O)C([H])(N([H])C([H])([H])[H])C([H])([H])[H])C(C([H])([H])[H])(C([H])([H])[H])C([H])([H])[H])C([H])([H])c2c([H])c(OC([H])([H])C([H])([H])C34C([H])([H])C([H])(C([H])(N([H])C(=O)N5C([H])([H])C([H])([H])C([H])([H])C([H])(n6nc(-c7c([H])c([H])c(Oc8c([H])c([H])c(F)c([H])c8F)c([H])c7[H])c(C(=O)N([H])[H])c6N([H])[H])C5([H])[H])C([H])([H])C([H])([H])[H])C([H])([H])C([H])([H])C3([H])C4([H])[H])c([H])c([H])c2C1([H])[H]

$$$$
94:0:0
     RDKit          3D

 95104  0  0  1  0  0  0  0  0999 V2000
  -29.1090  -21.4300   22.6390 C   0  0  0  0  0  3  0  0  0  0  0  0
  -28.9130  -20.0810   22.2800 C   0  0  0  0  0  3  0  0  0  0  0  0
  -29.0540  -20.6990   19.9290 C   0  0  0  0  0  3  0  0  0  0  0  0
  -29.2310  -22.4320   21.6440 C   0  0  0  0  0  0  0  0  0  0  0  0
  -29.2320  -22.0510   20.2770 C   0  0  0  0  0  0  0  0  0  0  0  0
  -28.8780  -19.7170   20.9160 C   0  0  0  0  0  0  0  0  0  0  0  0
  -29.3640  -23.8660   22.0300 C   0  0  0  0  0  0  0  0  0  0  0  0
  -29.4340  -23.0570   19.1530 C   0  0  0  0  0  2  0  0  0  0  0  0
  -29.8800  -24.4440   19.6340 C   0  0  0  0  0  2  0  0  0  0  0  0
  -29.1150  -24.8820   20.9010 C   0  0  0  0  0  3  0  0  0  0  0  0
  -29.6240  -24.2410   23.1790 O   0  0  0  0  0  0  0  0  0  0  0  0
  -28.6790  -18.2750   20.4850 C   0  0  0  0  0  2  0  0  0  0  0  0
  -29.6850  -17.3050   21.1210 C   0  0  0  0  0  2  0  0  0  0  0  0
  -31.1510  -17.5200   20.6720 C   0  0  0  0  0  2  0  0  0  0  0  0
  -32.0860  -16.4200   21.1930 C   0  0  0  0  0  2  0  0  0  0  0  0
  -31.6520  -14.3920   19.8200 C   0  0  0  0  0  0  0  0  0  0  0  0
  -31.0280  -12.2810   18.7210 C   0  0  0  0  0  2  0  0  0  0  0  0
  -30.0080  -12.4770   17.5880 C   0  0  0  0  0  2  0  0  0  0  0  0
  -28.5760  -12.4450   18.1470 C   0  0  0  0  0  2  0  0  0  0  0  0
  -28.3910  -13.3990   19.3530 C   0  0  0  0  0  3  0  0  0  0  0  0
  -29.5120  -13.1910   20.3970 C   0  0  0  0  0  2  0  0  0  0  0  0
  -30.8220  -13.3260   19.7280 N   0  0  0  0  0  0  0  0  0  0  0  0
  -32.5430  -14.6410   19.0020 O   0  0  0  0  0  0  0  0  0  0  0  0
  -31.5000  -15.1100   20.9360 N   0  0  0  0  0  0  0  0  0  0  0  0
  -30.8150  -14.7780   21.5990 H   0  0  0  0  0  0  0  0  0  0  0  0
  -26.1730  -14.2230   20.3770 C   0  0  0  0  0  0  0  0  0  0  0  0
  -25.0510  -13.5530   20.7900 C   0  0  0  0  0  0  0  0  0  0  0  0
  -25.3180  -12.1660   20.5750 C   0  0  0  0  0  0  0  0  0  0  0  0
  -27.0620  -13.2480   19.9490 N   0  0  0  0  0  0  0  0  0  0  0  0
  -26.5540  -12.0010   20.1220 N   0  0  0  0  0  0  0  0  0  0  0  0
  -24.4480  -10.9930   20.7280 C   0  0  0  0  0  0  0  0  0  0  0  0
  -24.8350   -9.8860   21.5150 C   0  0  0  0  0  3  0  0  0  0  0  0
  -23.9740   -8.7750   21.6620 C   0  0  0  0  0  3  0  0  0  0  0  0
  -22.7140   -8.7660   21.0180 C   0  0  0  0  0  0  0  0  0  0  0  0
  -22.3410   -9.8610   20.2200 C   0  0  0  0  0  3  0  0  0  0  0  0
  -23.2020  -10.9630   20.0720 C   0  0  0  0  0  3  0  0  0  0  0  0
  -21.8230   -7.7210   21.0810 O   0  0  0  0  0  0  0  0  0  0  0  0
  -21.7660   -6.8880   22.1700 C   0  0  0  0  0  0  0  0  0  0  0  0
  -21.5350   -7.3810   23.4740 C   0  0  0  0  0  3  0  0  0  0  0  0
  -21.4110   -6.4840   24.5540 C   0  0  0  0  0  3  0  0  0  0  0  0
  -21.5180   -5.0970   24.3330 C   0  0  0  0  0  0  0  0  0  0  0  0
  -21.7440   -4.6050   23.0350 C   0  0  0  0  0  3  0  0  0  0  0  0
  -21.8680   -5.5000   21.9580 C   0  0  0  0  0  0  0  0  0  0  0  0
  -22.0650   -5.0190   20.7050 F   0  0  0  0  0  0  0  0  0  0  0  0
  -21.3940   -4.2340   25.3690 F   0  0  0  0  0  0  0  0  0  0  0  0
  -23.7670  -14.1700   21.2660 C   0  0  0  0  0  0  0  0  0  0  0  0
  -23.0530  -13.4880   22.1560 N   0  0  0  0  0  0  0  0  0  0  0  0
  -23.4100  -15.2830   20.8850 O   0  0  0  0  0  0  0  0  0  0  0  0
  -23.3560  -12.5820   22.4810 H   0  0  0  0  0  0  0  0  0  0  0  0
  -22.1950  -13.8800   22.5180 H   0  0  0  0  0  0  0  0  0  0  0  0
  -26.4990  -15.5740   20.3150 N   0  0  0  0  0  0  0  0  0  0  0  0
  -25.8300  -16.2960   20.5610 H   0  0  0  0  0  0  0  0  0  0  0  0
  -27.3650  -15.9370   19.9350 H   0  0  0  0  0  0  0  0  0  0  0  0
  -29.4280  -26.3330   21.3330 C   0  0  0  0  0  2  0  0  0  0  0  0
  -29.0900  -27.2690   20.3160 O   0  0  0  0  0  0  0  0  0  0  0  0
  -24.6320  -31.9340   23.3930 C   0  0  0  0  0  0  0  0  0  0  0  0
  -27.8480  -27.8440   20.3950 C   0  0  0  0  0  0  0  0  0  0  0  0
  -23.6620  -30.4830   21.6430 C   0  0  0  0  0  3  0  0  0  0  0  0
  -25.3330  -29.1080   20.3000 C   0  0  0  0  0  0  0  0  0  0  0  0
  -26.1520  -31.0670   21.6160 C   0  0  0  0  0  2  0  0  0  0  0  0
  -26.3980  -29.7180   20.9740 C   0  0  0  0  0  0  0  0  0  0  0  0
  -27.6610  -29.0910   21.0250 C   0  0  0  0  0  3  0  0  0  0  0  0
  -26.7670  -27.2210   19.7480 C   0  0  0  0  0  3  0  0  0  0  0  0
  -25.5060  -27.8470   19.6990 C   0  0  0  0  0  3  0  0  0  0  0  0
  -24.0200  -29.8590   20.2680 C   0  0  0  0  0  2  0  0  0  0  0  0
  -24.8300  -31.1770   22.2770 N   0  0  0  0  0  0  0  0  0  0  0  0
  -23.4960  -32.0980   23.8600 O   0  0  0  0  0  0  0  0  0  0  0  0
  -23.0380  -29.3830   22.5320 C   0  0  0  0  0  0  0  0  0  0  0  0
  -21.7440  -29.0990   22.3110 N   0  0  0  0  0  0  0  0  0  0  0  0
  -23.7150  -28.7880   23.3720 O   0  0  0  0  0  0  0  0  0  0  0  0
  -21.2600  -29.6350   21.6050 H   0  0  0  0  0  0  0  0  0  0  0  0
  -18.4360  -27.6610   22.5820 C   0  0  0  0  0  0  0  0  0  0  0  0
  -20.9540  -28.0770   23.0000 C   0  0  0  0  0  3  0  0  0  0  0  0
  -21.1860  -26.6820   22.3740 C   0  0  0  0  0  2  0  0  0  0  0  0
  -20.1580  -26.3300   21.2950 C   0  0  0  0  0  2  0  0  0  0  0  0
  -18.7360  -26.3590   21.8640 C   0  0  0  0  0  2  0  0  0  0  0  0
  -19.4770  -28.4760   23.0990 C   0  0  0  0  0  0  0  0  0  0  0  0
  -19.1400  -29.6970   23.7220 C   0  0  0  0  0  3  0  0  0  0  0  0
  -17.7960  -30.1000   23.8420 C   0  0  0  0  0  3  0  0  0  0  0  0
  -16.7690  -29.2760   23.3500 C   0  0  0  0  0  3  0  0  0  0  0  0
  -17.0910  -28.0620   22.7190 C   0  0  0  0  0  3  0  0  0  0  0  0
  -25.8160  -32.6500   24.1180 C   0  0  0  0  0  3  0  0  0  0  0  0
  -25.4140  -34.0380   24.3720 N   0  0  0  0  0  0  0  0  0  0  0  0
  -25.7490  -35.0780   23.5980 C   0  0  0  0  0  0  0  0  0  0  0  0
  -26.5030  -34.9750   22.6280 O   0  0  0  0  0  0  0  0  0  0  0  0
  -24.7690  -34.1970   25.1320 H   0  0  0  0  0  0  0  0  0  0  0  0
  -23.9540  -36.7440   23.0380 C   0  0  0  0  0  1  0  0  0  0  0  0
  -25.1480  -36.4480   23.9600 C   0  0  0  0  0  3  0  0  0  0  0  0
  -27.1690  -37.4690   24.9040 C   0  0  0  0  0  1  0  0  0  0  0  0
  -26.1240  -37.5550   23.8860 N   0  0  0  0  0  0  0  0  0  0  0  0
  -25.6590  -38.4530   23.9870 H   0  0  0  0  0  0  0  0  0  0  0  0
  -26.2390  -31.9400   25.4620 C   0  0  1  0  0  0  0  0  0  0  0  0
  -25.0470  -31.6160   26.3980 C   0  0  0  0  0  1  0  0  0  0  0  0
  -26.9870  -30.6180   25.1710 C   0  0  0  0  0  1  0  0  0  0  0  0
  -27.2360  -32.8360   26.2370 C   0  0  0  0  0  1  0  0  0  0  0  0
  2  1  1  0
  3  5  2  0
  3  6  1  0
  4  7  1  0
  4  1  2  0
  5  4  1  0
  6  2  2  0
  7 11  2  0
  8  9  1  0
  8  5  1  0
  9 10  1  0
 10 54  1  0
 10  7  1  0
 12  6  1  0
 12 13  1  0
 14 13  1  0
 14 15  1  0
 16 24  1  0
 17 22  1  0
 18 19  1  0
 18 17  1  0
 20 19  1  0
 20 29  1  0
 20 21  1  0
 22 16  1  0
 22 21  1  0
 23 16  2  0
 24 15  1  0
 24 25  1  0
 26 27  2  0
 27 46  1  0
 28 31  1  0
 28 27  1  0
 29 30  1  0
 29 26  1  0
 30 28  2  0
 31 32  1  0
 32 33  2  0
 34 37  1  0
 34 33  1  0
 35 34  2  0
 36 35  1  0
 36 31  2  0
 37 38  1  0
 38 39  1  0
 39 40  2  0
 41 40  1  0
 41 45  1  0
 42 41  2  0
 43 38  2  0
 43 42  1  0
 44 43  1  0
 46 47  1  0
 47 49  1  0
 47 50  1  0
 48 46  2  0
 51 26  1  0
 51 52  1  0
 53 51  1  0
 55 57  1  0
 55 54  1  0
 56 67  2  0
 57 62  1  0
 58 66  1  0
 58 68  1  0
 59 61  1  0
 60 66  1  0
 61 62  2  0
 61 60  1  0
 63 57  2  0
 64 63  1  0
 64 59  2  0
 65 59  1  0
 65 58  1  0
 66 56  1  0
 68 70  2  0
 69 68  1  0
 71 69  1  0
 72 81  2  0
 72 77  1  0
 73 69  1  0
 73 77  1  0
 74 73  1  0
 75 76  1  0
 75 74  1  0
 76 72  1  0
 77 78  2  0
 78 79  1  0
 80 79  2  0
 81 80  1  0
 82 56  1  0
 82 83  1  0
 82 92  1  0
 83 86  1  0
 84 88  1  0
 84 83  1  0
 85 84  2  0
 88 87  1  0
 90 88  1  0
 90 91  1  0
 90 89  1  0
 92 95  1  1
 92 93  1  0
 94 92  1  0
M  ISO  4  16 100  24 100  54 101  55 101
M  END
>  <TORSDO>  (94) 
F 21

>  <SCORE>  (94) 
-9.873

>  <name>  (94) 
94

>  <ligand_id>  (94) 
94

>  <original_smiles>  (94) 
[H]c1c([H])c([H])c2c(c1[H])C([H])([H])C([H])([H])C([H])([H])C2([H])N([H])C(=O)C1([H])N(C(=O)C([H])(N([H])C(=O)C([H])(N([H])C([H])([H])[H])C([H])([H])[H])C(C([H])([H])[H])(C([H])([H])[H])C([H])([H])[H])C([H])([H])c2c([H])c(OC([H])([H])C3([H])C(=O)c4c([H])c([H])c(C([H])([H])C([H])([H])C([H])([H])C([H])([H])N([H])C(=O)N5C([H])([H])C([H])([H])C([H])([H])C([H])(n6nc(-c7c([H])c([H])c(Oc8c([H])c([H])c(F)c([H])c8F)c([H])c7[H])c(C(=O)N([H])[H])c6N([H])[H])C5([H])[H])c([H])c4C([H])([H])C3([H])[H])c([H])c([H])c2C1([H])[H]

>  <smiles>  (94) 
[H]c1c([H])c([H])c2c(c1[H])C([H])([H])C([H])([H])C([H])([H])C2([H])N([H])C(=O)C1([H])N(C(=O)C([H])(N([H])C(=O)C([H])(N([H])C([H])([H])[H])C([H])([H])[H])C(C([H])([H])[H])(C([H])([H])[H])C([H])([H])[H])C([H])([H])c2c([H])c(OC([H])([H])C3([H])C(=O)c4c([H])c([H])c(C([H])([H])C([H])([H])C([H])([H])C([H])([H])N([H])C(=O)N5C([H])([H])C([H])([H])C([H])([H])C([H])(n6nc(-c7c([H])c([H])c(Oc8c([H])c([H])c(F)c([H])c8F)c([H])c7[H])c(C(=O)N([H])[H])c6N([H])[H])C5([H])[H])c([H])c4C([H])([H])C3([H])[H])c([H])c([H])c2C1([H])[H]

$$$$
95:0:0
     RDKit          3D

 94103  0  0  1  0  0  0  0  0999 V2000
  -32.4060  -22.3480   19.6830 C   0  0  0  0  0  2  0  0  0  0  0  0
  -31.8350  -20.9280   19.8470 C   0  0  0  0  0  2  0  0  0  0  0  0
  -32.0360  -23.1280   20.9540 C   0  0  0  0  0  2  0  0  0  0  0  0
  -31.5200  -20.7670   22.4170 C   0  0  0  0  0  2  0  0  0  0  0  0
  -30.7440  -21.9740   22.8990 C   0  0  0  0  0  2  0  0  0  0  0  0
  -30.8550  -20.9630   21.0270 C   0  0  1  0  0  0  0  0  0  0  0  0
  -30.7150  -22.5040   21.4530 C   0  0  2  0  0  0  0  0  0  0  0  0
  -29.7290  -19.8900   20.7780 C   0  0  0  0  0  2  0  0  0  0  0  0
  -30.1680  -18.3880   21.0680 C   0  0  0  0  0  3  0  0  0  0  0  0
  -29.6160  -17.2550   20.1370 C   0  0  0  0  0  3  0  0  0  0  0  0
  -30.4740  -14.8300   20.2160 C   0  0  0  0  0  0  0  0  0  0  0  0
  -30.2400  -12.6500   19.0680 C   0  0  0  0  0  2  0  0  0  0  0  0
  -29.2600  -12.8460   17.8890 C   0  0  0  0  0  2  0  0  0  0  0  0
  -27.8010  -12.6580   18.3510 C   0  0  0  0  0  2  0  0  0  0  0  0
  -27.4770  -13.4540   19.6440 C   0  0  0  0  0  3  0  0  0  0  0  0
  -28.5680  -13.2470   20.7200 C   0  0  0  0  0  2  0  0  0  0  0  0
  -29.8660  -13.6070   20.1260 N   0  0  0  0  0  0  0  0  0  0  0  0
  -31.5910  -15.0430   19.7400 O   0  0  0  0  0  0  0  0  0  0  0  0
  -29.6760  -15.8470   20.6370 N   0  0  0  0  0  0  0  0  0  0  0  0
  -28.8230  -15.5250   21.0700 H   0  0  0  0  0  0  0  0  0  0  0  0
  -25.0770  -13.9920   20.4030 C   0  0  0  0  0  0  0  0  0  0  0  0
  -24.0400  -13.1900   20.7980 C   0  0  0  0  0  0  0  0  0  0  0  0
  -24.5380  -11.8520   20.7610 C   0  0  0  0  0  0  0  0  0  0  0  0
  -26.1410  -13.1400   20.1510 N   0  0  0  0  0  0  0  0  0  0  0  0
  -25.8230  -11.8480   20.4240 N   0  0  0  0  0  0  0  0  0  0  0  0
  -23.8530  -10.5710   20.9700 C   0  0  0  0  0  0  0  0  0  0  0  0
  -24.3220   -9.6260   21.9080 C   0  0  0  0  0  3  0  0  0  0  0  0
  -23.6360   -8.4090   22.1020 C   0  0  0  0  0  3  0  0  0  0  0  0
  -22.4660   -8.1270   21.3580 C   0  0  0  0  0  0  0  0  0  0  0  0
  -22.0150   -9.0600   20.4090 C   0  0  0  0  0  3  0  0  0  0  0  0
  -22.7020  -10.2700   20.2120 C   0  0  0  0  0  3  0  0  0  0  0  0
  -21.7500   -6.9590   21.4620 O   0  0  0  0  0  0  0  0  0  0  0  0
  -21.7240   -6.2290   22.6230 C   0  0  0  0  0  0  0  0  0  0  0  0
  -21.2720   -6.7830   23.8410 C   0  0  0  0  0  3  0  0  0  0  0  0
  -21.1970   -5.9780   24.9950 C   0  0  0  0  0  3  0  0  0  0  0  0
  -21.5650   -4.6200   24.9330 C   0  0  0  0  0  0  0  0  0  0  0  0
  -22.0090   -4.0660   23.7200 C   0  0  0  0  0  3  0  0  0  0  0  0
  -22.0870   -4.8680   22.5670 C   0  0  0  0  0  0  0  0  0  0  0  0
  -22.4970   -4.3230   21.3970 F   0  0  0  0  0  0  0  0  0  0  0  0
  -21.4850   -3.8460   26.0400 F   0  0  0  0  0  0  0  0  0  0  0  0
  -22.6350  -13.6290   21.0990 C   0  0  0  0  0  0  0  0  0  0  0  0
  -21.9450  -12.9130   21.9810 N   0  0  0  0  0  0  0  0  0  0  0  0
  -22.1590  -14.6430   20.5880 O   0  0  0  0  0  0  0  0  0  0  0  0
  -22.3430  -12.0960   22.4170 H   0  0  0  0  0  0  0  0  0  0  0  0
  -21.0040  -13.1890   22.2230 H   0  0  0  0  0  0  0  0  0  0  0  0
  -25.2010  -15.3650   20.2200 N   0  0  0  0  0  0  0  0  0  0  0  0
  -24.4170  -15.9990   20.3400 H   0  0  0  0  0  0  0  0  0  0  0  0
  -26.0260  -15.8250   19.8550 H   0  0  0  0  0  0  0  0  0  0  0  0
  -29.5280  -23.5370   21.1500 C   0  0  0  0  0  3  0  0  0  0  0  0
  -28.2970  -24.5100   23.2270 C   0  0  0  0  0  1  0  0  0  0  0  0
  -29.4780  -24.6360   22.2550 C   0  0  0  0  0  2  0  0  0  0  0  0
  -29.4900  -24.2670   19.7420 C   0  0  0  0  0  2  0  0  0  0  0  0
  -28.2680  -25.2070   19.4240 C   0  0  0  0  0  2  0  0  0  0  0  0
  -28.3920  -26.6340   19.7320 O   0  0  0  0  0  0  0  0  0  0  0  0
  -24.5240  -31.7330   23.0160 C   0  0  0  0  0  0  0  0  0  0  0  0
  -27.2230  -27.3980   19.7480 C   0  0  0  0  0  0  0  0  0  0  0  0
  -23.3310  -30.3480   21.3560 C   0  0  0  0  0  3  0  0  0  0  0  0
  -24.7980  -28.8990   19.8550 C   0  0  0  0  0  0  0  0  0  0  0  0
  -25.8520  -30.7640   21.1330 C   0  0  0  0  0  2  0  0  0  0  0  0
  -25.9610  -29.4140   20.4410 C   0  0  0  0  0  0  0  0  0  0  0  0
  -27.1750  -28.6730   20.3820 C   0  0  0  0  0  3  0  0  0  0  0  0
  -26.0290  -26.9270   19.1490 C   0  0  0  0  0  3  0  0  0  0  0  0
  -24.8300  -27.6580   19.2050 C   0  0  0  0  0  3  0  0  0  0  0  0
  -23.5350  -29.7260   19.9520 C   0  0  0  0  0  2  0  0  0  0  0  0
  -24.5890  -30.9640   21.8920 N   0  0  0  0  0  0  0  0  0  0  0  0
  -23.4450  -31.9590   23.5810 O   0  0  0  0  0  0  0  0  0  0  0  0
  -22.7250  -29.2780   22.2950 C   0  0  0  0  0  0  0  0  0  0  0  0
  -21.4030  -29.0630   22.1880 N   0  0  0  0  0  0  0  0  0  0  0  0
  -23.4400  -28.6480   23.0780 O   0  0  0  0  0  0  0  0  0  0  0  0
  -20.8830  -29.6260   21.5280 H   0  0  0  0  0  0  0  0  0  0  0  0
  -18.0730  -27.7540   22.7150 C   0  0  0  0  0  0  0  0  0  0  0  0
  -20.6280  -28.0780   22.9440 C   0  0  0  0  0  3  0  0  0  0  0  0
  -20.7580  -26.6690   22.3210 C   0  0  0  0  0  2  0  0  0  0  0  0
  -19.6450  -26.3460   21.3190 C   0  0  0  0  0  2  0  0  0  0  0  0
  -18.2740  -26.4320   21.9950 C   0  0  0  0  0  2  0  0  0  0  0  0
  -19.1790  -28.5350   23.1470 C   0  0  0  0  0  0  0  0  0  0  0  0
  -18.9370  -29.7720   23.7820 C   0  0  0  0  0  3  0  0  0  0  0  0
  -17.6230  -30.2310   23.9890 C   0  0  0  0  0  3  0  0  0  0  0  0
  -16.5320  -29.4470   23.5730 C   0  0  0  0  0  3  0  0  0  0  0  0
  -16.7580  -28.2110   22.9420 C   0  0  0  0  0  3  0  0  0  0  0  0
  -25.8000  -32.3850   23.6310 C   0  0  0  0  0  3  0  0  0  0  0  0
  -25.4480  -33.7540   24.0350 N   0  0  0  0  0  0  0  0  0  0  0  0
  -25.7220  -34.8530   23.3190 C   0  0  0  0  0  0  0  0  0  0  0  0
  -26.3700  -34.8230   22.2690 O   0  0  0  0  0  0  0  0  0  0  0  0
  -24.8670  -33.8470   24.8550 H   0  0  0  0  0  0  0  0  0  0  0  0
  -23.9250  -36.5960   23.0820 C   0  0  0  0  0  1  0  0  0  0  0  0
  -25.1940  -36.1980   23.8520 C   0  0  0  0  0  3  0  0  0  0  0  0
  -27.3090  -37.1170   24.6940 C   0  0  0  0  0  1  0  0  0  0  0  0
  -26.1870  -37.2920   23.7760 N   0  0  0  0  0  0  0  0  0  0  0  0
  -25.7510  -38.1880   23.9750 H   0  0  0  0  0  0  0  0  0  0  0  0
  -26.3830  -31.5760   24.8550 C   0  0  1  0  0  0  0  0  0  0  0  0
  -25.3310  -31.2500   25.9400 C   0  0  0  0  0  1  0  0  0  0  0  0
  -27.0030  -30.2410   24.3830 C   0  0  0  0  0  1  0  0  0  0  0  0
  -27.5240  -32.3820   25.5200 C   0  0  0  0  0  1  0  0  0  0  0  0
  1  2  1  0
  1  3  1  0
  2  6  1  0
  3  7  1  0
  4  5  1  0
  6  8  1  6
  6  7  1  0
  6  4  1  0
  7 49  1  6
  7  5  1  0
  8  9  1  0
 10 19  1  0
 10  9  2  0
 11 19  1  0
 12 17  1  0
 13 14  1  0
 13 12  1  0
 15 14  1  0
 15 24  1  0
 15 16  1  0
 17 11  1  0
 17 16  1  0
 18 11  2  0
 19 20  1  0
 21 22  2  0
 22 41  1  0
 23 22  1  0
 23 26  1  0
 24 21  1  0
 24 25  1  0
 25 23  2  0
 26 27  1  0
 27 28  2  0
 29 32  1  0
 29 28  1  0
 30 29  2  0
 31 30  1  0
 31 26  2  0
 32 33  1  0
 33 34  1  0
 34 35  2  0
 36 35  1  0
 36 40  1  0
 37 36  2  0
 38 33  2  0
 38 37  1  0
 39 38  1  0
 41 42  1  0
 42 45  1  0
 42 44  1  0
 43 41  2  0
 46 47  1  0
 46 21  1  0
 48 46  1  0
 49 52  1  0
 49 51  1  0
 51 50  1  0
 53 54  1  0
 53 52  1  0
 54 56  1  0
 55 66  2  0
 56 61  1  0
 57 65  1  0
 57 67  1  0
 58 64  1  0
 58 60  1  0
 59 65  1  0
 60 59  1  0
 61 60  2  0
 62 63  1  0
 62 56  2  0
 63 58  2  0
 64 57  1  0
 65 55  1  0
 67 69  2  0
 68 67  1  0
 70 68  1  0
 71 80  2  0
 71 76  1  0
 72 68  1  0
 72 76  1  0
 73 72  1  0
 74 75  1  0
 74 73  1  0
 75 71  1  0
 76 77  2  0
 77 78  1  0
 79 78  2  0
 80 79  1  0
 81 55  1  0
 81 82  1  0
 81 91  1  0
 82 85  1  0
 83 87  1  0
 83 82  1  0
 84 83  2  0
 87 86  1  0
 89 87  1  0
 89 90  1  0
 89 88  1  0
 91 94  1  1
 91 92  1  0
 93 91  1  0
M  ISO  4  11 100  19 100  53 101  54 101
M  END
>  <TORSDO>  (95) 
F 23

>  <SCORE>  (95) 
-12.113

>  <name>  (95) 
95

>  <ligand_id>  (95) 
95

>  <original_smiles>  (95) 
[H]c1c([H])c([H])c2c(c1[H])C([H])([H])C([H])([H])C([H])([H])C2([H])N([H])C(=O)C1([H])N(C(=O)C([H])(N([H])C(=O)C([H])(N([H])C([H])([H])[H])C([H])([H])[H])C(C([H])([H])[H])(C([H])([H])[H])C([H])([H])[H])C([H])([H])c2c([H])c(OC([H])([H])C([H])([H])C([H])(C([H])([H])C([H])([H])[H])C34C([H])([H])C([H])([H])C([H])([H])C3(C([H])([H])C([H])([H])C([H])([H])N([H])C(=O)N3C([H])([H])C([H])([H])C([H])([H])C([H])(n5nc(-c6c([H])c([H])c(Oc7c([H])c([H])c(F)c([H])c7F)c([H])c6[H])c(C(=O)N([H])[H])c5N([H])[H])C3([H])[H])C([H])([H])C4([H])[H])c([H])c([H])c2C1([H])[H]

>  <smiles>  (95) 
[H]c1c([H])c([H])c2c(c1[H])C([H])([H])C([H])([H])C([H])([H])C2([H])N([H])C(=O)C1([H])N(C(=O)C([H])(N([H])C(=O)C([H])(N([H])C([H])([H])[H])C([H])([H])[H])C(C([H])([H])[H])(C([H])([H])[H])C([H])([H])[H])C([H])([H])c2c([H])c(OC([H])([H])C([H])([H])C([H])(C([H])([H])C([H])([H])[H])C34C([H])([H])C([H])([H])C([H])([H])C3(C([H])([H])C([H])([H])C([H])([H])N([H])C(=O)N3C([H])([H])C([H])([H])C([H])([H])C([H])(n5nc(-c6c([H])c([H])c(Oc7c([H])c([H])c(F)c([H])c7F)c([H])c6[H])c(C(=O)N([H])[H])c5N([H])[H])C3([H])[H])C([H])([H])C4([H])[H])c([H])c([H])c2C1([H])[H]

$$$$
96:0:0
     RDKit          3D

 87 95  0  0  1  0  0  0  0  0999 V2000
  -29.6090  -21.1180   22.7760 C   0  0  0  0  0  2  0  0  0  0  0  0
  -30.4900  -21.6650   21.6620 C   0  0  0  0  0  2  0  0  0  0  0  0
  -28.4200  -21.4020   21.8690 C   0  0  0  0  0  2  0  0  0  0  0  0
  -29.3470  -21.4960   20.6330 C   0  0  2  0  0  0  0  0  0  0  0  0
  -29.4710  -19.8740   19.8830 C   0  0  0  0  0  2  0  0  0  0  0  0
  -30.2570  -18.3730   20.4610 C   0  0  0  0  0  2  0  0  0  0  0  0
  -30.7430  -15.4980   20.1230 C   0  0  0  0  0  0  0  0  0  0  0  0
  -30.6790  -13.0750   19.2180 C   0  0  0  0  0  2  0  0  0  0  0  0
  -29.7340  -12.8940   18.0050 C   0  0  0  0  0  2  0  0  0  0  0  0
  -28.2880  -12.6390   18.4710 C   0  0  0  0  0  2  0  0  0  0  0  0
  -27.8650  -13.5990   19.6100 C   0  0  0  0  0  3  0  0  0  0  0  0
  -28.9350  -13.7230   20.7140 C   0  0  0  0  0  2  0  0  0  0  0  0
  -30.1580  -14.2090   20.0570 N   0  0  0  0  0  0  0  0  0  0  0  0
  -31.9670  -15.4980   19.9310 O   0  0  0  0  0  0  0  0  0  0  0  0
  -29.9790  -16.7570   20.2020 N   0  0  0  0  0  0  0  0  0  0  0  0
  -28.9920  -16.5530   20.2110 H   0  0  0  0  0  0  0  0  0  0  0  0
  -25.5110  -14.1700   20.4080 C   0  0  0  0  0  0  0  0  0  0  0  0
  -24.4500  -13.3970   20.7880 C   0  0  0  0  0  0  0  0  0  0  0  0
  -24.9100  -12.0450   20.7410 C   0  0  0  0  0  0  0  0  0  0  0  0
  -26.5440  -13.2900   20.1400 N   0  0  0  0  0  0  0  0  0  0  0  0
  -26.1960  -12.0060   20.4110 N   0  0  0  0  0  0  0  0  0  0  0  0
  -24.1780  -10.7860   20.9320 C   0  0  0  0  0  0  0  0  0  0  0  0
  -24.5790   -9.8350   21.8960 C   0  0  0  0  0  3  0  0  0  0  0  0
  -23.8450   -8.6420   22.0750 C   0  0  0  0  0  3  0  0  0  0  0  0
  -22.6950   -8.3920   21.2890 C   0  0  0  0  0  0  0  0  0  0  0  0
  -22.3120   -9.3310   20.3150 C   0  0  0  0  0  3  0  0  0  0  0  0
  -23.0470  -10.5150   20.1350 C   0  0  0  0  0  3  0  0  0  0  0  0
  -21.9360   -7.2500   21.3760 O   0  0  0  0  0  0  0  0  0  0  0  0
  -21.8130   -6.5560   22.5520 C   0  0  0  0  0  0  0  0  0  0  0  0
  -21.2740   -7.1490   23.7150 C   0  0  0  0  0  3  0  0  0  0  0  0
  -21.1000   -6.3790   24.8820 C   0  0  0  0  0  3  0  0  0  0  0  0
  -21.4540   -5.0170   24.8870 C   0  0  0  0  0  0  0  0  0  0  0  0
  -21.9860   -4.4230   23.7300 C   0  0  0  0  0  3  0  0  0  0  0  0
  -22.1610   -5.1890   22.5640 C   0  0  0  0  0  0  0  0  0  0  0  0
  -22.6540   -4.6070   21.4440 F   0  0  0  0  0  0  0  0  0  0  0  0
  -21.2810   -4.2750   26.0060 F   0  0  0  0  0  0  0  0  0  0  0  0
  -23.0600  -13.8810   21.0760 C   0  0  0  0  0  0  0  0  0  0  0  0
  -22.3420  -13.1910   21.9550 N   0  0  0  0  0  0  0  0  0  0  0  0
  -22.6200  -14.9070   20.5580 O   0  0  0  0  0  0  0  0  0  0  0  0
  -22.7110  -12.3620   22.3950 H   0  0  0  0  0  0  0  0  0  0  0  0
  -21.4070  -13.4970   22.1910 H   0  0  0  0  0  0  0  0  0  0  0  0
  -25.6750  -15.5410   20.2350 N   0  0  0  0  0  0  0  0  0  0  0  0
  -24.9080  -16.1930   20.3610 H   0  0  0  0  0  0  0  0  0  0  0  0
  -26.5070  -15.9790   19.8610 H   0  0  0  0  0  0  0  0  0  0  0  0
  -29.0770  -23.0740   19.8360 C   0  0  0  0  0  2  0  0  0  0  0  0
  -28.3910  -24.6050   20.4610 C   0  0  0  0  0  2  0  0  0  0  0  0
  -28.4910  -26.1970   20.1000 O   0  0  0  0  0  0  0  0  0  0  0  0
  -24.6910  -31.9340   23.1980 C   0  0  0  0  0  0  0  0  0  0  0  0
  -27.4170  -27.2160   20.1290 C   0  0  0  0  0  0  0  0  0  0  0  0
  -23.5480  -30.5280   21.5310 C   0  0  0  0  0  3  0  0  0  0  0  0
  -25.0530  -28.9910   20.0990 C   0  0  0  0  0  0  0  0  0  0  0  0
  -26.1050  -30.8330   21.3970 C   0  0  0  0  0  2  0  0  0  0  0  0
  -26.2230  -29.4370   20.7250 C   0  0  0  0  0  0  0  0  0  0  0  0
  -27.4040  -28.5730   20.7090 C   0  0  0  0  0  3  0  0  0  0  0  0
  -26.2080  -26.9050   19.4700 C   0  0  0  0  0  3  0  0  0  0  0  0
  -25.0660  -27.7450   19.4520 C   0  0  0  0  0  3  0  0  0  0  0  0
  -23.8060  -29.8710   20.1470 C   0  0  0  0  0  2  0  0  0  0  0  0
  -24.8020  -31.1240   22.0970 N   0  0  0  0  0  0  0  0  0  0  0  0
  -23.5910  -32.1820   23.7180 O   0  0  0  0  0  0  0  0  0  0  0  0
  -22.8820  -29.4960   22.4770 C   0  0  0  0  0  0  0  0  0  0  0  0
  -21.5560  -29.3030   22.3510 N   0  0  0  0  0  0  0  0  0  0  0  0
  -23.5640  -28.8690   23.2910 O   0  0  0  0  0  0  0  0  0  0  0  0
  -21.0580  -29.8620   21.6710 H   0  0  0  0  0  0  0  0  0  0  0  0
  -18.1980  -28.0300   22.8620 C   0  0  0  0  0  0  0  0  0  0  0  0
  -20.7560  -28.3310   23.1030 C   0  0  0  0  0  3  0  0  0  0  0  0
  -20.8730  -26.9170   22.4850 C   0  0  0  0  0  2  0  0  0  0  0  0
  -19.7640  -26.6070   21.4750 C   0  0  0  0  0  2  0  0  0  0  0  0
  -18.3880  -26.7070   22.1400 C   0  0  0  0  0  2  0  0  0  0  0  0
  -19.3090  -28.8000   23.3000 C   0  0  0  0  0  0  0  0  0  0  0  0
  -19.0740  -30.0370   23.9390 C   0  0  0  0  0  3  0  0  0  0  0  0
  -17.7620  -30.5060   24.1410 C   0  0  0  0  0  3  0  0  0  0  0  0
  -16.6670  -29.7340   23.7160 C   0  0  0  0  0  3  0  0  0  0  0  0
  -16.8850  -28.4980   23.0840 C   0  0  0  0  0  3  0  0  0  0  0  0
  -25.9390  -32.6040   23.8490 C   0  0  0  0  0  3  0  0  0  0  0  0
  -26.4330  -31.8590   25.1510 C   0  0  1  0  0  0  0  0  0  0  0  0
  -25.3130  -31.5970   26.1840 C   0  0  0  0  0  1  0  0  0  0  0  0
  -27.0700  -30.4950   24.7970 C   0  0  0  0  0  1  0  0  0  0  0  0
  -27.5380  -32.6920   25.8430 C   0  0  0  0  0  1  0  0  0  0  0  0
  -25.5900  -34.0000   24.1660 N   0  0  0  0  0  0  0  0  0  0  0  0
  -25.9220  -35.0630   23.4220 C   0  0  0  0  0  0  0  0  0  0  0  0
  -26.6180  -34.9730   22.4070 O   0  0  0  0  0  0  0  0  0  0  0  0
  -24.9740  -34.1410   24.9530 H   0  0  0  0  0  0  0  0  0  0  0  0
  -24.1810  -36.8400   23.0300 C   0  0  0  0  0  1  0  0  0  0  0  0
  -25.4050  -36.4450   23.8720 C   0  0  0  0  0  3  0  0  0  0  0  0
  -27.4990  -37.3630   24.7710 C   0  0  0  0  0  1  0  0  0  0  0  0
  -26.4260  -37.5130   23.7920 N   0  0  0  0  0  0  0  0  0  0  0  0
  -26.0020  -38.4270   23.9230 H   0  0  0  0  0  0  0  0  0  0  0  0
  2  1  1  0
  3  1  1  0
  4  2  1  0
  4  3  1  0
  5  6  1  0
  4  5  1  6
  7 15  1  0
  8 13  1  0
  9 10  1  0
  9  8  1  0
 11 10  1  0
 11 20  1  0
 11 12  1  0
 13  7  1  0
 13 12  1  0
 14  7  2  0
 15 16  1  0
 15  6  1  0
 17 18  2  0
 18 37  1  0
 19 18  1  0
 19 22  1  0
 20 17  1  0
 20 21  1  0
 21 19  2  0
 22 23  1  0
 23 24  2  0
 25 28  1  0
 25 24  1  0
 26 25  2  0
 27 26  1  0
 27 22  2  0
 28 29  1  0
 29 34  2  0
 29 30  1  0
 30 31  2  0
 31 32  1  0
 32 36  1  0
 33 32  2  0
 34 33  1  0
 35 34  1  0
 37 38  1  0
 38 41  1  0
 38 40  1  0
 39 37  2  0
 42 43  1  0
 42 17  1  0
 44 42  1  0
 45 46  1  0
 45  4  1  0
 47 49  1  0
 47 46  1  0
 48 59  2  0
 49 54  1  0
 50 58  1  0
 50 60  1  0
 51 57  1  0
 51 53  1  0
 52 58  1  0
 53 52  1  0
 54 53  2  0
 55 49  2  0
 56 55  1  0
 56 51  2  0
 57 50  1  0
 58 48  1  0
 60 62  2  0
 61 60  1  0
 63 61  1  0
 64 73  2  0
 64 69  1  0
 65 61  1  0
 65 69  1  0
 66 65  1  0
 67 68  1  0
 67 66  1  0
 68 64  1  0
 69 70  2  0
 70 71  1  0
 72 71  2  0
 73 72  1  0
 74 48  1  0
 74 79  1  0
 74 75  1  0
 75 78  1  1
 75 76  1  0
 77 75  1  0
 79 82  1  0
 80 84  1  0
 80 79  1  0
 81 80  2  0
 84 83  1  0
 86 84  1  0
 86 87  1  0
 86 85  1  0
M  ISO  4   7 100  15 100  46 101  47 101
M  END
>  <TORSDO>  (96) 
F 20

>  <SCORE>  (96) 
-15.138

>  <name>  (96) 
96

>  <ligand_id>  (96) 
96

>  <original_smiles>  (96) 
[H]c1c([H])c([H])c2c(c1[H])C([H])([H])C([H])([H])C([H])([H])C2([H])N([H])C(=O)C1([H])N(C(=O)C([H])(N([H])C(=O)C([H])(N([H])C([H])([H])[H])C([H])([H])[H])C(C([H])([H])[H])(C([H])([H])[H])C([H])([H])[H])C([H])([H])c2c([H])c(OC([H])([H])C([H])([H])C3(C([H])([H])C([H])([H])N([H])C(=O)N4C([H])([H])C([H])([H])C([H])([H])C([H])(n5nc(-c6c([H])c([H])c(Oc7c([H])c([H])c(F)c([H])c7F)c([H])c6[H])c(C(=O)N([H])[H])c5N([H])[H])C4([H])[H])C([H])([H])C([H])([H])C3([H])[H])c([H])c([H])c2C1([H])[H]

>  <smiles>  (96) 
[H]c1c([H])c([H])c2c(c1[H])C([H])([H])C([H])([H])C([H])([H])C2([H])N([H])C(=O)C1([H])N(C(=O)C([H])(N([H])C(=O)C([H])(N([H])C([H])([H])[H])C([H])([H])[H])C(C([H])([H])[H])(C([H])([H])[H])C([H])([H])[H])C([H])([H])c2c([H])c(OC([H])([H])C([H])([H])C3(C([H])([H])C([H])([H])N([H])C(=O)N4C([H])([H])C([H])([H])C([H])([H])C([H])(n5nc(-c6c([H])c([H])c(Oc7c([H])c([H])c(F)c([H])c7F)c([H])c6[H])c(C(=O)N([H])[H])c5N([H])[H])C4([H])[H])C([H])([H])C([H])([H])C3([H])[H])c([H])c([H])c2C1([H])[H]

$$$$
97:0:0
     RDKit          3D

 97 98  0  0  1  0  0  0  0  0999 V2000
  -26.2170  -23.3760   23.1710 C   0  0  0  0  0  2  0  0  0  0  0  0
  -26.6270  -21.8250   22.2780 C   0  0  0  0  0  2  0  0  0  0  0  0
  -28.5010  -22.8150   21.6610 C   0  0  0  0  0  2  0  0  0  0  0  0
  -26.5800  -25.1150   23.0300 C   0  0  0  0  0  2  0  0  0  0  0  0
  -28.1160  -21.0940   21.7320 C   0  0  0  0  0  2  0  0  0  0  0  0
  -27.6380  -24.4350   21.7700 C   0  0  1  0  0  0  0  0  0  0  0  0
  -25.4080  -26.7240   23.2520 C   0  0  0  0  0  2  0  0  0  0  0  0
  -24.9230  -28.1730   23.8960 N   0  0  0  0  0  2  0  0  0  0  0  0
  -24.4830  -26.4510   22.4930 O   0  0  0  0  0  1  0  0  0  0  0  0
  -24.0770  -28.1820   23.3190 H   0  0  0  0  0  0  0  0  0  0  0  0
  -24.4730  -29.8660   24.7420 C   0  0  0  0  0 15  0  0  0  0  0  0
  -25.5130  -31.8960   24.9820 C   0  0  0  0  0 15  0  0  0  0  0  0
  -27.4550  -31.7610   23.0410 C   0  0  0  0  0 15  0  0  0  0  0  0
  -27.7480  -30.1170   21.9340 O   0  0  0  0  0  1  0  0  0  0  0  0
  -23.8350  -31.4790   22.7300 C   0  0  0  0  0  0  0  0  0  0  0  0
  -27.1040  -29.3010   20.8030 C   0  0  0  0  0  3  0  0  0  0  0  0
  -22.6860  -30.2770   21.0430 C   0  0  0  0  0  3  0  0  0  0  0  0
  -24.5740  -29.1770   19.7540 C   0  0  0  0  0  3  0  0  0  0  0  0
  -24.7380  -31.5590   20.4060 C   0  0  0  0  0  2  0  0  0  0  0  0
  -25.3770  -30.2920   19.9190 C   0  0  0  0  0  3  0  0  0  0  0  0
  -26.7490  -30.2030   19.9050 C   0  0  0  0  0  2  0  0  0  0  0  0
  -26.4990  -27.9790   20.4510 C   0  0  0  0  0  2  0  0  0  0  0  0
  -25.2130  -27.9240   19.7810 C   0  0  0  0  0  2  0  0  0  0  0  0
  -23.0950  -29.4880   19.7720 C   0  0  0  0  0  2  0  0  0  0  0  0
  -23.6860  -31.2540   21.4290 N   0  0  0  0  0  0  0  0  0  0  0  0
  -22.9490  -31.8460   23.5360 O   0  0  0  0  0  0  0  0  0  0  0  0
  -22.2490  -29.2770   22.1120 C   0  0  0  0  0  0  0  0  0  0  0  0
  -20.9570  -29.0590   22.1600 N   0  0  0  0  0  0  0  0  0  0  0  0
  -23.0490  -28.6760   22.8150 O   0  0  0  0  0  0  0  0  0  0  0  0
  -20.3370  -29.5850   21.5600 H   0  0  0  0  0  0  0  0  0  0  0  0
  -17.8490  -27.6240   22.6810 C   0  0  0  0  0  0  0  0  0  0  0  0
  -20.3490  -28.0600   22.9920 C   0  0  0  0  0  3  0  0  0  0  0  0
  -20.5830  -26.6510   22.4010 C   0  0  0  0  0  2  0  0  0  0  0  0
  -19.5450  -26.2860   21.3410 C   0  0  0  0  0  2  0  0  0  0  0  0
  -18.1390  -26.3190   21.9540 C   0  0  0  0  0  2  0  0  0  0  0  0
  -18.8940  -28.4470   23.1630 C   0  0  0  0  0  0  0  0  0  0  0  0
  -18.5880  -29.6870   23.7670 C   0  0  0  0  0  3  0  0  0  0  0  0
  -17.2520  -30.0940   23.9220 C   0  0  0  0  0  3  0  0  0  0  0  0
  -16.2130  -29.2570   23.4790 C   0  0  0  0  0  3  0  0  0  0  0  0
  -16.5110  -28.0280   22.8610 C   0  0  0  0  0  3  0  0  0  0  0  0
  -25.2750  -31.3180   23.0150 C   0  0  0  0  0  2  0  0  0  0  0  0
  -26.9770  -30.1740   24.5920 C   0  0  0  0  0  3  0  0  0  0  0  0
  -26.7370  -29.8110   26.2480 C   0  0  0  0  0  1  0  0  0  0  0  0
  -27.7990  -29.0740   24.1810 C   0  0  0  0  0  1  0  0  0  0  0  0
  -28.1070  -31.3230   25.3910 C   0  0  0  0  0  1  0  0  0  0  0  0
  -25.0070  -33.1300   23.1630 N   0  0  0  0  0  0  0  0  0  0  0  0
  -25.3250  -34.5330   23.0180 C   0  0  0  0  0  0  0  0  0  0  0  0
  -26.1720  -34.8790   22.2120 O   0  0  0  0  0  0  0  0  0  0  0  0
  -24.1110  -33.1390   23.6470 H   0  0  0  0  0  0  0  0  0  0  0  0
  -23.3150  -36.3100   23.1490 C   0  0  0  0  0  1  0  0  0  0  0  0
  -24.6500  -35.8350   23.7790 C   0  0  0  0  0  3  0  0  0  0  0  0
  -26.5320  -37.2340   24.8160 C   0  0  0  0  0  1  0  0  0  0  0  0
  -25.4620  -37.1210   23.8260 N   0  0  0  0  0  0  0  0  0  0  0  0
  -24.8570  -37.9330   23.9090 H   0  0  0  0  0  0  0  0  0  0  0  0
  -29.7160  -25.6000   22.9880 C   0  0  0  0  0  1  0  0  0  0  0  0
  -28.8410  -25.4410   21.7290 C   0  0  0  0  0  2  0  0  0  0  0  0
  -25.5120  -24.1990   20.1310 C   0  0  0  0  0  1  0  0  0  0  0  0
  -26.9800  -24.6190   20.3560 C   0  0  0  0  0  2  0  0  0  0  0  0
  -28.8200  -19.4530   20.6390 C   0  0  0  0  0  1  0  0  0  0  0  0
  -29.8830  -16.3370   19.8070 C   0  0  0  0  0  0  0  0  0  0  0  0
  -30.2300  -13.7940   18.7370 C   0  0  0  0  0  2  0  0  0  0  0  0
  -29.2970  -13.2340   17.5990 C   0  0  0  0  0  2  0  0  0  0  0  0
  -27.9690  -12.7260   18.1680 C   0  0  0  0  0  2  0  0  0  0  0  0
  -27.4860  -13.6980   19.2620 C   0  0  0  0  0  3  0  0  0  0  0  0
  -28.5500  -14.0660   20.3200 C   0  0  0  0  0  2  0  0  0  0  0  0
  -29.5710  -14.8840   19.6560 N   0  0  0  0  0  0  0  0  0  0  0  0
  -30.9950  -16.4390   19.2240 O   0  0  0  0  0  0  0  0  0  0  0  0
  -29.0440  -17.5900   20.4400 N   0  0  0  0  0  0  0  0  0  0  0  0
  -28.2460  -17.1550   20.8890 H   0  0  0  0  0  0  0  0  0  0  0  0
  -25.2800  -14.1290   20.4040 C   0  0  0  0  0  0  0  0  0  0  0  0
  -24.3000  -13.3040   20.8720 C   0  0  0  0  0  0  0  0  0  0  0  0
  -24.7480  -11.9700   20.6210 C   0  0  0  0  0  0  0  0  0  0  0  0
  -26.2530  -13.2930   19.8940 N   0  0  0  0  0  0  0  0  0  0  0  0
  -25.9630  -11.9810   20.0830 N   0  0  0  0  0  0  0  0  0  0  0  0
  -24.0580  -10.6890   20.8080 C   0  0  0  0  0  0  0  0  0  0  0  0
  -24.5590   -9.6970   21.6810 C   0  0  0  0  0  3  0  0  0  0  0  0
  -23.8590   -8.4850   21.8590 C   0  0  0  0  0  3  0  0  0  0  0  0
  -22.6480   -8.2560   21.1630 C   0  0  0  0  0  0  0  0  0  0  0  0
  -22.1670   -9.2380   20.2820 C   0  0  0  0  0  3  0  0  0  0  0  0
  -22.8660  -10.4410   20.1010 C   0  0  0  0  0  3  0  0  0  0  0  0
  -21.9130   -7.0980   21.2550 O   0  0  0  0  0  0  0  0  0  0  0  0
  -21.8180   -6.3960   22.4300 C   0  0  0  0  0  0  0  0  0  0  0  0
  -21.3390   -6.9920   23.6170 C   0  0  0  0  0  3  0  0  0  0  0  0
  -21.1910   -6.2170   24.7850 C   0  0  0  0  0  3  0  0  0  0  0  0
  -21.5110   -4.8460   24.7650 C   0  0  0  0  0  0  0  0  0  0  0  0
  -21.9800   -4.2480   23.5820 C   0  0  0  0  0  3  0  0  0  0  0  0
  -22.1310   -5.0220   22.4170 C   0  0  0  0  0  0  0  0  0  0  0  0
  -22.5640   -4.4360   21.2750 F   0  0  0  0  0  0  0  0  0  0  0  0
  -21.3620   -4.0990   25.8840 F   0  0  0  0  0  0  0  0  0  0  0  0
  -22.9810  -13.7420   21.4310 C   0  0  0  0  0  0  0  0  0  0  0  0
  -22.4260  -12.9760   22.3620 N   0  0  0  0  0  0  0  0  0  0  0  0
  -22.4620  -14.8010   21.0830 O   0  0  0  0  0  0  0  0  0  0  0  0
  -22.8690  -12.1190   22.6620 H   0  0  0  0  0  0  0  0  0  0  0  0
  -21.5490  -13.2470   22.7820 H   0  0  0  0  0  0  0  0  0  0  0  0
  -25.4240  -15.5130   20.3450 N   0  0  0  0  0  0  0  0  0  0  0  0
  -24.6860  -16.1470   20.6340 H   0  0  0  0  0  0  0  0  0  0  0  0
  -26.1860  -15.9830   19.8700 H   0  0  0  0  0  0  0  0  0  0  0  0
  2  1  1  0
  3  5  1  0
  3  6  1  0
  4  1  1  0
  5  2  1  0
  6  4  1  0
  7  8  1  0
  9  7  1  0
 10  8  1  0
 15 41  1  0
 15 26  2  0
 16 14  1  0
 17 25  1  0
 17 27  1  0
 18 24  1  0
 18 23  1  0
 18 20  1  0
 19 25  1  0
 20 21  1  0
 20 19  1  0
 21 16  1  0
 22 16  1  0
 23 22  1  0
 24 17  1  0
 25 15  1  0
 27 28  1  0
 27 29  2  0
 30 28  1  0
 31 40  2  0
 31 36  1  0
 32 28  1  0
 32 36  1  0
 33 32  1  0
 34 35  1  0
 34 33  1  0
 35 31  1  0
 36 37  2  0
 37 38  1  0
 39 38  2  0
 40 39  1  0
 41 46  1  0
 42 45  1  0
 42 43  1  0
 44 42  1  0
 46 49  1  0
 47 46  1  0
 47 51  1  0
 48 47  2  0
 51 50  1  0
 51 53  1  0
 53 54  1  0
 53 52  1  0
  6 56  1  6
 56 55  1  0
 57 58  1  0
 58  6  1  0
 60 68  1  0
 61 66  1  0
 62 63  1  0
 62 61  1  0
 64 63  1  0
 64 73  1  0
 64 65  1  0
 66 60  1  0
 66 65  1  0
 67 60  2  0
 68 59  1  0
 68 69  1  0
 70 71  2  0
 71 90  1  0
 72 75  1  0
 72 71  1  0
 73 74  1  0
 73 70  1  0
 74 72  2  0
 75 76  1  0
 76 77  2  0
 78 81  1  0
 78 77  1  0
 79 78  2  0
 80 79  1  0
 80 75  2  0
 81 82  1  0
 82 83  1  0
 83 84  2  0
 85 84  1  0
 85 89  1  0
 86 85  2  0
 87 82  2  0
 87 86  1  0
 88 87  1  0
 90 91  1  0
 91 93  1  0
 91 94  1  0
 92 90  2  0
 95 70  1  0
 95 96  1  0
 97 95  1  0
M  ISO  4  13 101  14 101  60 100  68 100
M  END
>  <TORSDO>  (97) 
F 23

>  <SCORE>  (97) 
-3.840

>  <name>  (97) 
97

>  <ligand_id>  (97) 
97

>  <original_smiles>  (97) 
[H]c1c([H])c([H])c2c(c1[H])C([H])([H])C([H])([H])C([H])([H])C2([H])N([H])C(=O)C1([H])N(C(=O)C([H])(N([H])C(=O)C([H])(N([H])C([H])([H])[H])C([H])([H])[H])C(C([H])([H])[H])(C([H])([H])[H])C([H])([H])[H])C([H])([H])c2c([H])c(OC([H])([H])C([H])([H])C([H])([H])N([H])C(=O)C3([H])C([H])([H])C([H])([H])C([H])(C([H])([H])N([H])C(=O)N4C([H])([H])C([H])([H])C([H])([H])C([H])(n5nc(-c6c([H])c([H])c(Oc7c([H])c([H])c(F)c([H])c7F)c([H])c6[H])c(C(=O)N([H])[H])c5N([H])[H])C4([H])[H])C([H])([H])C3(C([H])([H])C([H])([H])[H])C([H])([H])C([H])([H])[H])c([H])c([H])c2C1([H])[H]

>  <smiles>  (97) 
[H]c1c([H])c([H])c2c(c1[H])C([H])([H])C([H])([H])C([H])([H])C2([H])N([H])C(=O)C1([H])N(C(=O)C([H])(N([H])C(=O)C([H])(N([H])C([H])([H])[H])C([H])([H])[H])C(C([H])([H])[H])(C([H])([H])[H])C([H])([H])[H])C([H])([H])c2c([H])c(OC([H])([H])C([H])([H])C([H])([H])N([H])C(=O)C3([H])C([H])([H])C([H])([H])C([H])(C([H])([H])N([H])C(=O)N4C([H])([H])C([H])([H])C([H])([H])C([H])(n5nc(-c6c([H])c([H])c(Oc7c([H])c([H])c(F)c([H])c7F)c([H])c6[H])c(C(=O)N([H])[H])c5N([H])[H])C4([H])[H])C([H])([H])C3(C([H])([H])C([H])([H])[H])C([H])([H])C([H])([H])[H])c([H])c([H])c2C1([H])[H]

$$$$
98:0:0
     RDKit          3D

 91100  0  0  1  0  0  0  0  0999 V2000
  -30.1820  -19.7300   20.0240 C   0  0  0  0  0  0  0  0  0  0  0  0
  -31.3880  -19.9400   20.1660 O   0  0  0  0  0  0  0  0  0  0  0  0
  -28.9240  -18.4290   21.7580 C   0  0  0  0  0  2  0  0  0  0  0  0
  -31.3190  -18.0570   22.8580 C   0  0  0  0  0  2  0  0  0  0  0  0
  -29.5670  -18.3030   20.3470 C   0  0  0  0  0  3  0  0  0  0  0  0
  -29.8520  -17.7340   22.7480 C   0  0  0  0  0  3  0  0  0  0  0  0
  -30.8660  -16.8810   22.0150 C   0  0  0  0  0  3  0  0  0  0  0  0
  -30.4300  -16.9410   20.5670 C   0  0  0  0  0  3  0  0  0  0  0  0
  -31.3330  -14.5890   19.6950 C   0  0  0  0  0  0  0  0  0  0  0  0
  -30.8750  -12.4340   18.5250 C   0  0  0  0  0  2  0  0  0  0  0  0
  -29.8480  -12.6970   17.4000 C   0  0  0  0  0  2  0  0  0  0  0  0
  -28.4070  -12.6100   17.9490 C   0  0  0  0  0  2  0  0  0  0  0  0
  -28.2080  -13.4440   19.2440 C   0  0  0  0  0  3  0  0  0  0  0  0
  -29.3390  -13.1710   20.2610 C   0  0  0  0  0  2  0  0  0  0  0  0
  -30.6110  -13.4330   19.5740 N   0  0  0  0  0  0  0  0  0  0  0  0
  -32.5430  -14.6240   19.4640 O   0  0  0  0  0  0  0  0  0  0  0  0
  -30.5770  -15.7390   19.6610 N   0  0  0  0  0  0  0  0  0  0  0  0
  -29.6830  -15.5130   19.2550 H   0  0  0  0  0  0  0  0  0  0  0  0
  -25.9180  -14.2030   20.1200 C   0  0  0  0  0  0  0  0  0  0  0  0
  -24.8300  -13.4980   20.5590 C   0  0  0  0  0  0  0  0  0  0  0  0
  -25.2000  -12.1210   20.5090 C   0  0  0  0  0  0  0  0  0  0  0  0
  -26.8850  -13.2530   19.8260 N   0  0  0  0  0  0  0  0  0  0  0  0
  -26.4650  -11.9990   20.1270 N   0  0  0  0  0  0  0  0  0  0  0  0
  -24.4100  -10.9060   20.7480 C   0  0  0  0  0  0  0  0  0  0  0  0
  -24.7940   -9.9510   21.7140 C   0  0  0  0  0  3  0  0  0  0  0  0
  -24.0070   -8.7990   21.9340 C   0  0  0  0  0  3  0  0  0  0  0  0
  -22.8240   -8.5960   21.1860 C   0  0  0  0  0  0  0  0  0  0  0  0
  -22.4590   -9.5370   20.2080 C   0  0  0  0  0  3  0  0  0  0  0  0
  -23.2460  -10.6780   19.9860 C   0  0  0  0  0  3  0  0  0  0  0  0
  -22.0080   -7.5000   21.3150 O   0  0  0  0  0  0  0  0  0  0  0  0
  -21.8650   -6.8470   22.5130 C   0  0  0  0  0  0  0  0  0  0  0  0
  -21.4360   -7.5160   23.6800 C   0  0  0  0  0  3  0  0  0  0  0  0
  -21.2370   -6.7920   24.8720 C   0  0  0  0  0  3  0  0  0  0  0  0
  -21.4600   -5.4020   24.8980 C   0  0  0  0  0  0  0  0  0  0  0  0
  -21.8810   -4.7340   23.7360 C   0  0  0  0  0  3  0  0  0  0  0  0
  -22.0810   -5.4550   22.5460 C   0  0  0  0  0  0  0  0  0  0  0  0
  -22.4690   -4.8020   21.4220 F   0  0  0  0  0  0  0  0  0  0  0  0
  -21.2590   -4.7050   26.0400 F   0  0  0  0  0  0  0  0  0  0  0  0
  -23.4830  -14.0630   20.9160 C   0  0  0  0  0  0  0  0  0  0  0  0
  -22.7890  -13.4260   21.8540 N   0  0  0  0  0  0  0  0  0  0  0  0
  -23.0660  -15.0970   20.3990 O   0  0  0  0  0  0  0  0  0  0  0  0
  -23.1510  -12.5920   22.2900 H   0  0  0  0  0  0  0  0  0  0  0  0
  -21.8870  -13.7760   22.1470 H   0  0  0  0  0  0  0  0  0  0  0  0
  -26.1550  -15.5600   19.9190 N   0  0  0  0  0  0  0  0  0  0  0  0
  -25.4250  -16.2560   20.0360 H   0  0  0  0  0  0  0  0  0  0  0  0
  -26.9970  -15.9410   19.5070 H   0  0  0  0  0  0  0  0  0  0  0  0
  -29.2530  -20.9020   19.4870 C   0  0  0  0  0  2  0  0  0  0  0  0
  -29.1260  -22.2940   20.2800 C   0  0  0  0  0  3  0  0  0  0  0  0
  -28.6600  -23.6160   19.4890 C   0  0  0  0  0  3  0  0  0  0  0  0
  -28.2350  -24.9150   20.3280 C   0  0  0  0  0  2  0  0  0  0  0  0
  -28.2850  -26.2630   19.7150 O   0  0  0  0  0  0  0  0  0  0  0  0
  -24.5930  -31.5440   23.0050 C   0  0  0  0  0  0  0  0  0  0  0  0
  -27.1520  -27.0800   19.7830 C   0  0  0  0  0  0  0  0  0  0  0  0
  -23.3510  -30.1730   21.3650 C   0  0  0  0  0  3  0  0  0  0  0  0
  -24.7690  -28.6560   19.8720 C   0  0  0  0  0  0  0  0  0  0  0  0
  -25.8800  -30.5160   21.1170 C   0  0  0  0  0  2  0  0  0  0  0  0
  -25.9510  -29.1500   20.4420 C   0  0  0  0  0  0  0  0  0  0  0  0
  -27.1460  -28.3770   20.3810 C   0  0  0  0  0  3  0  0  0  0  0  0
  -25.9490  -26.6270   19.2070 C   0  0  0  0  0  3  0  0  0  0  0  0
  -24.7700  -27.3960   19.2470 C   0  0  0  0  0  3  0  0  0  0  0  0
  -23.5310  -29.5220   19.9680 C   0  0  0  0  0  2  0  0  0  0  0  0
  -24.6280  -30.7610   21.8870 N   0  0  0  0  0  0  0  0  0  0  0  0
  -23.5240  -31.8020   23.5770 O   0  0  0  0  0  0  0  0  0  0  0  0
  -22.7180  -29.1330   22.3180 C   0  0  0  0  0  0  0  0  0  0  0  0
  -21.3890  -28.9510   22.2190 N   0  0  0  0  0  0  0  0  0  0  0  0
  -23.4200  -28.4980   23.1090 O   0  0  0  0  0  0  0  0  0  0  0  0
  -20.8760  -29.5250   21.5680 H   0  0  0  0  0  0  0  0  0  0  0  0
  -18.0410  -27.6940   22.7510 C   0  0  0  0  0  0  0  0  0  0  0  0
  -20.6000  -27.9860   22.9830 C   0  0  0  0  0  3  0  0  0  0  0  0
  -20.7150  -26.5630   22.3880 C   0  0  0  0  0  2  0  0  0  0  0  0
  -19.6000  -26.2280   21.3970 C   0  0  0  0  0  2  0  0  0  0  0  0
  -18.2260  -26.3560   22.0600 C   0  0  0  0  0  2  0  0  0  0  0  0
  -19.1560  -28.4640   23.1720 C   0  0  0  0  0  0  0  0  0  0  0  0
  -18.9330  -29.7150   23.7860 C   0  0  0  0  0  3  0  0  0  0  0  0
  -17.6270  -30.1980   23.9810 C   0  0  0  0  0  3  0  0  0  0  0  0
  -16.5240  -29.4240   23.5770 C   0  0  0  0  0  3  0  0  0  0  0  0
  -16.7310  -28.1730   22.9670 C   0  0  0  0  0  3  0  0  0  0  0  0
  -25.8900  -32.1660   23.6070 C   0  0  0  0  0  3  0  0  0  0  0  0
  -25.5710  -33.5390   24.0230 N   0  0  0  0  0  0  0  0  0  0  0  0
  -25.8750  -34.6370   23.3180 C   0  0  0  0  0  0  0  0  0  0  0  0
  -26.5180  -34.5990   22.2650 O   0  0  0  0  0  0  0  0  0  0  0  0
  -24.9930  -33.6380   24.8450 H   0  0  0  0  0  0  0  0  0  0  0  0
  -24.1180  -36.4230   23.1080 C   0  0  0  0  0  1  0  0  0  0  0  0
  -25.3850  -35.9920   23.8640 C   0  0  0  0  0  3  0  0  0  0  0  0
  -27.5290  -36.8570   24.6870 C   0  0  0  0  0  1  0  0  0  0  0  0
  -26.4020  -37.0610   23.7810 N   0  0  0  0  0  0  0  0  0  0  0  0
  -25.9910  -37.9680   23.9860 H   0  0  0  0  0  0  0  0  0  0  0  0
  -26.4710  -31.3380   24.8180 C   0  0  1  0  0  0  0  0  0  0  0  0
  -25.4260  -31.0250   25.9150 C   0  0  0  0  0  1  0  0  0  0  0  0
  -27.0600  -29.9930   24.3330 C   0  0  0  0  0  1  0  0  0  0  0  0
  -27.6350  -32.1160   25.4710 C   0  0  0  0  0  1  0  0  0  0  0  0
  1  2  2  0
  5  1  1  0
  5  8  1  0
  5  3  1  0
  6  3  1  0
  6  4  1  0
  7  6  1  0
  7  4  1  0
  8 17  1  0
  8  7  1  0
 10 15  1  0
 11 12  1  0
 11 10  1  0
 13 12  1  0
 13 22  1  0
 13 14  1  0
 15  9  1  0
 15 14  1  0
 16  9  2  0
 17  9  1  0
 18 17  1  0
 19 20  2  0
 20 39  1  0
 21 20  1  0
 21 24  1  0
 22 19  1  0
 22 23  1  0
 23 21  2  0
 24 25  1  0
 25 26  2  0
 27 30  1  0
 27 26  1  0
 28 27  2  0
 29 28  1  0
 29 24  2  0
 30 31  1  0
 31 36  2  0
 31 32  1  0
 32 33  2  0
 33 34  1  0
 34 38  1  0
 35 34  2  0
 36 35  1  0
 37 36  1  0
 39 40  1  0
 40 43  1  0
 40 42  1  0
 41 39  2  0
 44 45  1  0
 44 19  1  0
 46 44  1  0
 47  1  1  0
 47 48  1  0
 49 48  2  0
 49 50  1  0
 51 53  1  0
 51 50  1  0
 52 63  2  0
 53 58  1  0
 54 62  1  0
 54 64  1  0
 55 61  1  0
 55 57  1  0
 56 62  1  0
 57 56  1  0
 58 57  2  0
 59 60  1  0
 59 53  2  0
 60 55  2  0
 61 54  1  0
 62 52  1  0
 64 66  2  0
 65 64  1  0
 67 65  1  0
 68 77  2  0
 68 73  1  0
 69 65  1  0
 69 73  1  0
 70 69  1  0
 71 72  1  0
 71 70  1  0
 72 68  1  0
 73 74  2  0
 74 75  1  0
 76 75  2  0
 77 76  1  0
 78 52  1  0
 78 79  1  0
 78 88  1  0
 79 82  1  0
 80 84  1  0
 80 79  1  0
 81 80  2  0
 84 83  1  0
 86 84  1  0
 86 87  1  0
 86 85  1  0
 88 91  1  1
 88 89  1  0
 90 88  1  0
M  ISO  4   9 100  17 100  50 101  51 101
M  END
>  <TORSDO>  (98) 
F 21

>  <SCORE>  (98) 
-9.377

>  <name>  (98) 
98

>  <ligand_id>  (98) 
98

>  <original_smiles>  (98) 
[H]c1c([H])c([H])c2c(c1[H])C([H])([H])C([H])([H])C([H])([H])C2([H])N([H])C(=O)C1([H])N(C(=O)C([H])(N([H])C(=O)C([H])(N([H])C([H])([H])[H])C([H])([H])[H])C(C([H])([H])[H])(C([H])([H])[H])C([H])([H])[H])C([H])([H])c2c([H])c(OC([H])([H])C([H])([H])C([H])([H])C([H])([H])C(=O)C3([H])C([H])([H])C4([H])C([H])([H])C4([H])C3([H])N([H])C(=O)N3C([H])([H])C([H])([H])C([H])([H])C([H])(n4nc(-c5c([H])c([H])c(Oc6c([H])c([H])c(F)c([H])c6F)c([H])c5[H])c(C(=O)N([H])[H])c4N([H])[H])C3([H])[H])c([H])c([H])c2C1([H])[H]

>  <smiles>  (98) 
[H]c1c([H])c([H])c2c(c1[H])C([H])([H])C([H])([H])C([H])([H])C2([H])N([H])C(=O)C1([H])N(C(=O)C([H])(N([H])C(=O)C([H])(N([H])C([H])([H])[H])C([H])([H])[H])C(C([H])([H])[H])(C([H])([H])[H])C([H])([H])[H])C([H])([H])c2c([H])c(OC([H])([H])C([H])([H])C([H])([H])C([H])([H])C(=O)C3([H])C([H])([H])C4([H])C([H])([H])C4([H])C3([H])N([H])C(=O)N3C([H])([H])C([H])([H])C([H])([H])C([H])(n4nc(-c5c([H])c([H])c(Oc6c([H])c([H])c(F)c([H])c6F)c([H])c5[H])c(C(=O)N([H])[H])c4N([H])[H])C3([H])[H])c([H])c([H])c2C1([H])[H]

$$$$
