0:0:0
     RDKit          3D

 87 96  0  0  1  0  0  0  0  0999 V2000
  -29.6500  -20.3460   19.6380 C   0  0  0  0  0  2  0  0  0  0  0  0
  -29.2620  -18.4620   19.6880 C   0  0  0  0  0  3  0  0  0  0  0  0
  -29.6510  -17.0150   19.8270 N   0  0  0  0  0  2  0  0  0  0  0  0
  -30.6480  -15.7690   20.1520 C   0  0  0  0  0  0  0  0  0  0  0  0
  -31.0030  -13.1160   20.3320 C   0  0  0  0  0  2  0  0  0  0  0  0
  -30.3490  -12.2810   19.1880 C   0  0  0  0  0  2  0  0  0  0  0  0
  -28.8690  -11.9890   19.4850 C   0  0  0  0  0  2  0  0  0  0  0  0
  -28.1600  -13.2430   20.0410 C   0  0  0  0  0  3  0  0  0  0  0  0
  -28.9580  -13.9660   21.1470 C   0  0  0  0  0  2  0  0  0  0  0  0
  -30.2320  -14.4230   20.5540 N   0  0  0  0  0  0  0  0  0  0  0  0
  -31.8860  -15.7580   20.0640 O   0  0  0  0  0  0  0  0  0  0  0  0
  -25.7670  -13.9260   20.5390 C   0  0  0  0  0  0  0  0  0  0  0  0
  -24.6310  -13.2190   20.8090 C   0  0  0  0  0  0  0  0  0  0  0  0
  -25.0200  -11.8450   20.8540 C   0  0  0  0  0  0  0  0  0  0  0  0
  -26.7770  -12.9920   20.4200 N   0  0  0  0  0  0  0  0  0  0  0  0
  -26.3350  -11.7320   20.6800 N   0  0  0  0  0  0  0  0  0  0  0  0
  -24.2050  -10.6310   20.9930 C   0  0  0  0  0  0  0  0  0  0  0  0
  -24.5590   -9.5990   21.8900 C   0  0  0  0  0  3  0  0  0  0  0  0
  -23.7430   -8.4510   22.0200 C   0  0  0  0  0  3  0  0  0  0  0  0
  -22.5580   -8.3310   21.2530 C   0  0  0  0  0  0  0  0  0  0  0  0
  -22.2230   -9.3540   20.3480 C   0  0  0  0  0  3  0  0  0  0  0  0
  -23.0370  -10.4900   20.2160 C   0  0  0  0  0  3  0  0  0  0  0  0
  -21.7210   -7.2430   21.2920 O   0  0  0  0  0  0  0  0  0  0  0  0
  -21.6540   -6.4250   22.3910 C   0  0  0  0  0  0  0  0  0  0  0  0
  -21.3030   -6.9200   23.6660 C   0  0  0  0  0  3  0  0  0  0  0  0
  -21.1820   -6.0320   24.7540 C   0  0  0  0  0  3  0  0  0  0  0  0
  -21.4050   -4.6540   24.5670 C   0  0  0  0  0  0  0  0  0  0  0  0
  -21.7490   -4.1600   23.2950 C   0  0  0  0  0  3  0  0  0  0  0  0
  -21.8700   -5.0450   22.2100 C   0  0  0  0  0  0  0  0  0  0  0  0
  -22.1850   -4.5640   20.9820 F   0  0  0  0  0  0  0  0  0  0  0  0
  -21.2790   -3.8000   25.6090 F   0  0  0  0  0  0  0  0  0  0  0  0
  -23.2450  -13.7830   20.9200 C   0  0  0  0  0  0  0  0  0  0  0  0
  -22.4050  -13.1840   21.7540 N   0  0  0  0  0  0  0  0  0  0  0  0
  -22.9160  -14.7930   20.3000 O   0  0  0  0  0  0  0  0  0  0  0  0
  -22.6830  -12.3670   22.2760 H   0  0  0  0  0  0  0  0  0  0  0  0
  -21.4720  -13.5540   21.8780 H   0  0  0  0  0  0  0  0  0  0  0  0
  -26.0280  -15.2780   20.3460 N   0  0  0  0  0  0  0  0  0  0  0  0
  -25.2900  -15.9720   20.3280 H   0  0  0  0  0  0  0  0  0  0  0  0
  -26.9390  -15.6480   20.0990 H   0  0  0  0  0  0  0  0  0  0  0  0
  -26.8150  -19.4980   19.3250 C   0  0  0  0  0  2  0  0  0  0  0  0
  -27.4920  -19.4500   16.7250 C   0  0  0  0  0  2  0  0  0  0  0  0
  -27.7890  -18.3370   19.1850 C   0  0  0  0  0  3  0  0  0  0  0  0
  -26.4820  -19.3800   17.8450 C   0  0  0  0  0  3  0  0  0  0  0  0
  -27.5250  -18.2810   17.6850 C   0  0  0  0  0  3  0  0  0  0  0  0
  -29.0020  -22.0840   20.2880 C   0  0  0  0  0  2  0  0  0  0  0  0
  -28.4370  -23.8700   19.7690 C   0  0  0  0  0  2  0  0  0  0  0  0
  -28.3980  -25.5410   20.3260 O   0  0  0  0  0  0  0  0  0  0  0  0
  -24.6940  -31.7130   23.1800 C   0  0  0  0  0  0  0  0  0  0  0  0
  -27.4330  -26.7500   20.1970 C   0  0  0  0  0  0  0  0  0  0  0  0
  -23.6170  -30.3630   21.4290 C   0  0  0  0  0  3  0  0  0  0  0  0
  -25.1640  -28.7710   20.0550 C   0  0  0  0  0  0  0  0  0  0  0  0
  -26.1960  -30.5210   21.4760 C   0  0  0  0  0  2  0  0  0  0  0  0
  -26.3100  -29.1130   20.7780 C   0  0  0  0  0  0  0  0  0  0  0  0
  -27.4280  -28.1290   20.8240 C   0  0  0  0  0  3  0  0  0  0  0  0
  -26.2610  -26.6250   19.4090 C   0  0  0  0  0  3  0  0  0  0  0  0
  -25.1810  -27.5570   19.3460 C   0  0  0  0  0  3  0  0  0  0  0  0
  -23.9490  -29.7130   20.0530 C   0  0  0  0  0  2  0  0  0  0  0  0
  -24.8550  -30.8960   22.0830 N   0  0  0  0  0  0  0  0  0  0  0  0
  -23.5700  -31.9920   23.6310 O   0  0  0  0  0  0  0  0  0  0  0  0
  -22.8490  -29.3510   22.3220 C   0  0  0  0  0  0  0  0  0  0  0  0
  -21.5180  -29.2360   22.1490 N   0  0  0  0  0  0  0  0  0  0  0  0
  -23.4650  -28.6690   23.1470 O   0  0  0  0  0  0  0  0  0  0  0  0
  -21.0690  -29.8370   21.4710 H   0  0  0  0  0  0  0  0  0  0  0  0
  -18.0780  -28.1450   22.5570 C   0  0  0  0  0  0  0  0  0  0  0  0
  -20.6460  -28.2830   22.8460 C   0  0  0  0  0  3  0  0  0  0  0  0
  -20.6890  -26.8930   22.1690 C   0  0  0  0  0  2  0  0  0  0  0  0
  -19.5830  -26.6970   21.1270 C   0  0  0  0  0  2  0  0  0  0  0  0
  -18.2040  -26.8490   21.7760 C   0  0  0  0  0  2  0  0  0  0  0  0
  -19.2240  -28.8270   23.0460 C   0  0  0  0  0  0  0  0  0  0  0  0
  -19.0510  -30.0440   23.7430 C   0  0  0  0  0  3  0  0  0  0  0  0
  -17.7650  -30.5800   23.9480 C   0  0  0  0  0  3  0  0  0  0  0  0
  -16.6320  -29.8940   23.4720 C   0  0  0  0  0  3  0  0  0  0  0  0
  -16.7910  -28.6770   22.7850 C   0  0  0  0  0  3  0  0  0  0  0  0
  -25.9120  -32.3510   23.9160 C   0  0  0  0  0  3  0  0  0  0  0  0
  -26.2930  -31.5890   25.2460 C   0  0  1  0  0  0  0  0  0  0  0  0
  -25.1070  -31.4060   26.2220 C   0  0  0  0  0  1  0  0  0  0  0  0
  -26.8600  -30.1860   24.9420 C   0  0  0  0  0  1  0  0  0  0  0  0
  -27.4100  -32.3600   25.9870 C   0  0  0  0  0  1  0  0  0  0  0  0
  -25.5840  -33.7570   24.2220 N   0  0  0  0  0  0  0  0  0  0  0  0
  -25.9850  -34.8180   23.5060 C   0  0  0  0  0  0  0  0  0  0  0  0
  -26.7300  -34.7120   22.5280 O   0  0  0  0  0  0  0  0  0  0  0  0
  -24.9360  -33.9110   24.9790 H   0  0  0  0  0  0  0  0  0  0  0  0
  -24.2990  -36.6330   23.0590 C   0  0  0  0  0  1  0  0  0  0  0  0
  -25.4870  -36.2120   23.9410 C   0  0  0  0  0  3  0  0  0  0  0  0
  -27.5730  -37.0840   24.9050 C   0  0  0  0  0  1  0  0  0  0  0  0
  -26.5340  -37.2570   23.8920 N   0  0  0  0  0  0  0  0  0  0  0  0
  -26.1270  -38.1810   24.0110 H   0  0  0  0  0  0  0  0  0  0  0  0
  1 45  1  0
  2  1  1  0
  2  3  1  0
  3  4  1  0
  4 10  1  0
  5 10  1  0
  6  7  1  0
  6  5  1  0
  8  7  1  0
  8 15  1  0
  8  9  1  0
 10  9  1  0
 11  4  2  0
 12 13  2  0
 13 14  1  0
 13 32  1  0
 14 17  1  0
 15 12  1  0
 15 16  1  0
 16 14  2  0
 17 18  1  0
 18 19  2  0
 20 23  1  0
 20 19  1  0
 21 20  2  0
 22 21  1  0
 22 17  2  0
 23 24  1  0
 24 25  1  0
 25 26  2  0
 27 26  1  0
 27 31  1  0
 28 27  2  0
 29 24  2  0
 29 28  1  0
 30 29  1  0
 32 33  1  0
 33 36  1  0
 33 35  1  0
 34 32  2  0
 37 12  1  0
 38 37  1  0
 39 37  1  0
 42 40  1  0
 42  2  1  0
 43 41  1  0
 43 40  1  0
 44 41  1  0
 44 43  1  0
 44 42  1  0
 46 45  1  0
 46 47  1  0
 48 59  2  0
 49 47  1  0
 49 54  1  0
 50 58  1  0
 50 60  1  0
 51 53  1  0
 52 58  1  0
 53 54  2  0
 53 52  1  0
 55 49  2  0
 56 55  1  0
 56 51  2  0
 57 51  1  0
 57 50  1  0
 58 48  1  0
 60 62  2  0
 61 60  1  0
 63 61  1  0
 64 73  2  0
 64 69  1  0
 65 61  1  0
 65 69  1  0
 66 65  1  0
 67 68  1  0
 67 66  1  0
 68 64  1  0
 69 70  2  0
 70 71  1  0
 72 71  2  0
 73 72  1  0
 74 48  1  0
 74 79  1  0
 74 75  1  0
 75 78  1  1
 75 76  1  0
 77 75  1  0
 79 82  1  0
 80 84  1  0
 80 79  1  0
 81 80  2  0
 84 83  1  0
 86 84  1  0
 86 87  1  0
 86 85  1  0
M  ISO  4   3 100   4 100  46 101  47 101
M  END
>  <TORSDO>  (1) 
F 20

>  <SCORE>  (1) 
-13.777

>  <name>  (1) 
0

>  <ligand_id>  (1) 
0

>  <original_smiles>  (1) 
[H]c1c([H])c([H])c2c(c1[H])C([H])([H])C([H])([H])C([H])([H])C2([H])N([H])C(=O)C1([H])N(C(=O)C([H])(N([H])C(=O)C([H])(N([H])C([H])([H])[H])C([H])([H])[H])C(C([H])([H])[H])(C([H])([H])[H])C([H])([H])[H])C([H])([H])c2c([H])c(OC([H])([H])C([H])([H])C([H])([H])C(=NC(=O)N3C([H])([H])C([H])([H])C([H])([H])C([H])(n4nc(-c5c([H])c([H])c(Oc6c([H])c([H])c(F)c([H])c6F)c([H])c5[H])c(C(=O)N([H])[H])c4N([H])[H])C3([H])[H])C3([H])C([H])([H])C4([H])C([H])([H])C34[H])c([H])c([H])c2C1([H])[H]

>  <smiles>  (1) 
[H]c1c([H])c([H])c2c(c1[H])C([H])([H])C([H])([H])C([H])([H])C2([H])N([H])C(=O)C1([H])N(C(=O)C([H])(N([H])C(=O)C([H])(N([H])C([H])([H])[H])C([H])([H])[H])C(C([H])([H])[H])(C([H])([H])[H])C([H])([H])[H])C([H])([H])c2c([H])c(OC([H])([H])C([H])([H])C([H])([H])C(=NC(=O)N3C([H])([H])C([H])([H])C([H])([H])C([H])(n4nc(-c5c([H])c([H])c(Oc6c([H])c([H])c(F)c([H])c6F)c([H])c5[H])c(C(=O)N([H])[H])c4N([H])[H])C3([H])[H])C3([H])C([H])([H])C4([H])C([H])([H])C34[H])c([H])c([H])c2C1([H])[H]

$$$$
1:0:0
     RDKit          3D

 93101  0  0  1  0  0  0  0  0999 V2000
  -30.2720  -23.5950   20.1350 C   0  0  0  0  0  3  0  0  0  0  0  0
  -31.2180  -22.5470   20.0440 C   0  0  0  0  0  3  0  0  0  0  0  0
  -28.5820  -21.8730   20.3360 C   0  0  0  0  0  3  0  0  0  0  0  0
  -28.9020  -23.3320   20.2690 C   0  0  0  0  0  0  0  0  0  0  0  0
  -30.8830  -21.1650   20.0780 C   0  0  0  0  0  0  0  0  0  0  0  0
  -29.5340  -20.7210   20.2480 C   0  0  0  0  0  0  0  0  0  0  0  0
  -32.0430  -20.2010   19.8980 C   0  0  0  0  0  1  0  0  0  0  0  0
  -27.8620  -24.6200   20.2630 C   0  0  0  0  0  2  0  0  0  0  0  0
  -28.2220  -26.1470   20.2850 O   0  0  0  0  0  0  0  0  0  0  0  0
  -24.6490  -31.9080   23.2640 C   0  0  0  0  0  0  0  0  0  0  0  0
  -27.1870  -27.1610   20.2260 C   0  0  0  0  0  0  0  0  0  0  0  0
  -23.4400  -30.5250   21.6230 C   0  0  0  0  0  3  0  0  0  0  0  0
  -24.8770  -28.9430   20.1970 C   0  0  0  0  0  0  0  0  0  0  0  0
  -25.9990  -30.7670   21.4600 C   0  0  0  0  0  2  0  0  0  0  0  0
  -26.0630  -29.3740   20.8030 C   0  0  0  0  0  0  0  0  0  0  0  0
  -27.2210  -28.5010   20.7960 C   0  0  0  0  0  3  0  0  0  0  0  0
  -25.9710  -26.8430   19.5780 C   0  0  0  0  0  3  0  0  0  0  0  0
  -24.8450  -27.6930   19.5670 C   0  0  0  0  0  3  0  0  0  0  0  0
  -23.6590  -29.8540   20.2430 C   0  0  0  0  0  2  0  0  0  0  0  0
  -24.7160  -31.0880   22.1710 N   0  0  0  0  0  0  0  0  0  0  0  0
  -23.5650  -32.2000   23.7920 O   0  0  0  0  0  0  0  0  0  0  0  0
  -22.7540  -29.5190   22.5820 C   0  0  0  0  0  0  0  0  0  0  0  0
  -21.4260  -29.3520   22.4540 N   0  0  0  0  0  0  0  0  0  0  0  0
  -23.4220  -28.8890   23.4070 O   0  0  0  0  0  0  0  0  0  0  0  0
  -20.9420  -29.9150   21.7680 H   0  0  0  0  0  0  0  0  0  0  0  0
  -18.0400  -28.1540   22.9410 C   0  0  0  0  0  0  0  0  0  0  0  0
  -20.5980  -28.4190   23.2240 C   0  0  0  0  0  3  0  0  0  0  0  0
  -20.7030  -26.9820   22.6600 C   0  0  0  0  0  2  0  0  0  0  0  0
  -19.6080  -26.6540   21.6400 C   0  0  0  0  0  2  0  0  0  0  0  0
  -18.2210  -26.8020   22.2710 C   0  0  0  0  0  2  0  0  0  0  0  0
  -19.1560  -28.9200   23.3740 C   0  0  0  0  0  0  0  0  0  0  0  0
  -18.9310  -30.1850   23.9610 C   0  0  0  0  0  3  0  0  0  0  0  0
  -17.6240  -30.6840   24.1170 C   0  0  0  0  0  3  0  0  0  0  0  0
  -16.5240  -29.9160   23.6990 C   0  0  0  0  0  3  0  0  0  0  0  0
  -16.7320  -28.6530   23.1160 C   0  0  0  0  0  3  0  0  0  0  0  0
  -25.9310  -32.5340   23.8910 C   0  0  0  0  0  3  0  0  0  0  0  0
  -26.4390  -31.7560   25.1660 C   0  0  1  0  0  0  0  0  0  0  0  0
  -25.3420  -31.5250   26.2320 C   0  0  0  0  0  1  0  0  0  0  0  0
  -27.0140  -30.3740   24.7790 C   0  0  0  0  0  1  0  0  0  0  0  0
  -27.5940  -32.5430   25.8310 C   0  0  0  0  0  1  0  0  0  0  0  0
  -25.6270  -33.9330   24.2300 N   0  0  0  0  0  0  0  0  0  0  0  0
  -25.9340  -34.9880   23.4650 C   0  0  0  0  0  0  0  0  0  0  0  0
  -26.5700  -34.8880   22.4130 O   0  0  0  0  0  0  0  0  0  0  0  0
  -25.0570  -34.0850   25.0480 H   0  0  0  0  0  0  0  0  0  0  0  0
  -24.1800  -36.7750   23.1960 C   0  0  0  0  0  1  0  0  0  0  0  0
  -25.4640  -36.3770   23.9430 C   0  0  0  0  0  3  0  0  0  0  0  0
  -27.6290  -37.2820   24.6670 C   0  0  0  0  0  1  0  0  0  0  0  0
  -26.4830  -37.4360   23.7750 N   0  0  0  0  0  0  0  0  0  0  0  0
  -26.0770  -38.3540   23.9370 H   0  0  0  0  0  0  0  0  0  0  0  0
  -29.1300  -19.0890   20.2460 C   0  0  0  0  0  3  0  0  0  0  0  0
  -28.3710  -18.8390   19.0140 N   0  0  0  0  0  4  0  0  0  0  0  0
  -28.9750  -18.9060   18.2150 H   0  0  0  0  0  0  0  0  0  0  0  0
  -27.6350  -19.5130   18.9170 H   0  0  0  0  0  0  0  0  0  0  0  0
  -27.9640  -17.9240   19.0340 H   0  0  0  0  0  0  0  0  0  0  0  0
  -30.1480  -17.7390   20.4920 C   0  0  0  0  0  2  0  0  0  0  0  0
  -30.5030  -15.0070   20.3410 C   0  0  0  0  0  0  0  0  0  0  0  0
  -30.3900  -12.6550   19.4010 C   0  0  0  0  0  2  0  0  0  0  0  0
  -29.4590  -12.6010   18.1660 C   0  0  0  0  0  2  0  0  0  0  0  0
  -27.9980  -12.3820   18.6000 C   0  0  0  0  0  2  0  0  0  0  0  0
  -27.5850  -13.3030   19.7750 C   0  0  0  0  0  3  0  0  0  0  0  0
  -28.6380  -13.3300   20.9020 C   0  0  0  0  0  2  0  0  0  0  0  0
  -29.9040  -13.7490   20.2900 N   0  0  0  0  0  0  0  0  0  0  0  0
  -31.7080  -15.0680   20.0750 O   0  0  0  0  0  0  0  0  0  0  0  0
  -29.7350  -16.2020   20.4830 N   0  0  0  0  0  0  0  0  0  0  0  0
  -28.7600  -16.0260   20.6780 H   0  0  0  0  0  0  0  0  0  0  0  0
  -25.2000  -13.8650   20.5060 C   0  0  0  0  0  0  0  0  0  0  0  0
  -24.1400  -13.0860   20.8740 C   0  0  0  0  0  0  0  0  0  0  0  0
  -24.6130  -11.7370   20.8470 C   0  0  0  0  0  0  0  0  0  0  0  0
  -26.2500  -12.9950   20.2720 N   0  0  0  0  0  0  0  0  0  0  0  0
  -25.9060  -11.7090   20.5440 N   0  0  0  0  0  0  0  0  0  0  0  0
  -23.8940  -10.4700   21.0330 C   0  0  0  0  0  0  0  0  0  0  0  0
  -24.3240   -9.5070   21.9720 C   0  0  0  0  0  3  0  0  0  0  0  0
  -23.6030   -8.3070   22.1480 C   0  0  0  0  0  3  0  0  0  0  0  0
  -22.4370   -8.0610   21.3830 C   0  0  0  0  0  0  0  0  0  0  0  0
  -22.0270   -9.0130   20.4330 C   0  0  0  0  0  3  0  0  0  0  0  0
  -22.7500  -10.2050   20.2560 C   0  0  0  0  0  3  0  0  0  0  0  0
  -21.6880   -6.9120   21.4680 O   0  0  0  0  0  0  0  0  0  0  0  0
  -21.6310   -6.1730   22.6220 C   0  0  0  0  0  0  0  0  0  0  0  0
  -21.1720   -6.7260   23.8380 C   0  0  0  0  0  3  0  0  0  0  0  0
  -21.0630   -5.9120   24.9840 C   0  0  0  0  0  3  0  0  0  0  0  0
  -21.4040   -4.5490   24.9140 C   0  0  0  0  0  0  0  0  0  0  0  0
  -21.8570   -3.9950   23.7030 C   0  0  0  0  0  3  0  0  0  0  0  0
  -21.9670   -4.8060   22.5600 C   0  0  0  0  0  0  0  0  0  0  0  0
  -22.3830   -4.2640   21.3900 F   0  0  0  0  0  0  0  0  0  0  0  0
  -21.2930   -3.7650   26.0120 F   0  0  0  0  0  0  0  0  0  0  0  0
  -22.7390  -13.5540   21.1370 C   0  0  0  0  0  0  0  0  0  0  0  0
  -22.0140  -12.8570   22.0050 N   0  0  0  0  0  0  0  0  0  0  0  0
  -22.2970  -14.5730   20.6080 O   0  0  0  0  0  0  0  0  0  0  0  0
  -22.3850  -12.0310   22.4490 H   0  0  0  0  0  0  0  0  0  0  0  0
  -21.0750  -13.1540   22.2290 H   0  0  0  0  0  0  0  0  0  0  0  0
  -25.3560  -15.2360   20.3180 N   0  0  0  0  0  0  0  0  0  0  0  0
  -24.5760  -15.8800   20.3860 H   0  0  0  0  0  0  0  0  0  0  0  0
  -26.1760  -15.6500   19.8980 H   0  0  0  0  0  0  0  0  0  0  0  0
  1  4  1  0
  2  5  1  0
  2  1  2  0
  4  3  2  0
  5  6  2  0
  6  3  1  0
  7  5  1  0
  8  4  1  0
  8  9  1  0
 10 21  2  0
 11  9  1  0
 11 16  1  0
 12 20  1  0
 12 22  1  0
 13 19  1  0
 13 15  1  0
 14 20  1  0
 15 14  1  0
 16 15  2  0
 17 11  2  0
 18 17  1  0
 18 13  2  0
 19 12  1  0
 20 10  1  0
 22 24  2  0
 23 22  1  0
 25 23  1  0
 26 35  2  0
 26 31  1  0
 27 23  1  0
 27 31  1  0
 28 27  1  0
 29 30  1  0
 29 28  1  0
 30 26  1  0
 31 32  2  0
 32 33  1  0
 34 33  2  0
 35 34  1  0
 36 10  1  0
 36 41  1  0
 36 37  1  0
 37 40  1  1
 37 38  1  0
 39 37  1  0
 41 44  1  0
 42 46  1  0
 42 41  1  0
 43 42  2  0
 46 45  1  0
 48 49  1  0
 48 46  1  0
 48 47  1  0
 50  6  1  0
 50 55  1  0
 51 54  1  0
 51 50  1  0
 52 51  1  0
 53 51  1  0
 56 64  1  0
 57 62  1  0
 58 59  1  0
 58 57  1  0
 60 59  1  0
 60 69  1  0
 60 61  1  0
 62 56  1  0
 62 61  1  0
 63 56  2  0
 64 55  1  0
 64 65  1  0
 66 67  2  0
 67 86  1  0
 68 67  1  0
 68 71  1  0
 69 66  1  0
 69 70  1  0
 70 68  2  0
 71 72  1  0
 72 73  2  0
 74 77  1  0
 74 73  1  0
 75 74  2  0
 76 75  1  0
 76 71  2  0
 77 78  1  0
 78 79  1  0
 79 80  2  0
 81 80  1  0
 81 85  1  0
 82 81  2  0
 83 78  2  0
 83 82  1  0
 84 83  1  0
 86 87  1  0
 87 90  1  0
 87 89  1  0
 88 86  2  0
 91 92  1  0
 91 66  1  0
 93 91  1  0
M  ISO  4   8 101   9 101  56 100  64 100
M  END
>  <TORSDO>  (2) 
F 20

>  <SCORE>  (2) 
-14.639

>  <name>  (2) 
1

>  <ligand_id>  (2) 
1

>  <original_smiles>  (2) 
[H]c1c([H])c([H])c2c(c1[H])C([H])([H])C([H])([H])C([H])([H])C2([H])N([H])C(=O)C1([H])N(C(=O)C([H])(N([H])C(=O)C([H])(N([H])C([H])([H])[H])C([H])([H])[H])C(C([H])([H])[H])(C([H])([H])[H])C([H])([H])[H])C([H])([H])c2c([H])c(OC([H])([H])c3c([H])c([H])c(C([H])([H])[H])c(C([H])(C([H])([H])N([H])C(=O)N4C([H])([H])C([H])([H])C([H])([H])C([H])(n5nc(-c6c([H])c([H])c(Oc7c([H])c([H])c(F)c([H])c7F)c([H])c6[H])c(C(=O)N([H])[H])c5N([H])[H])C4([H])[H])[N+]([H])([H])[H])c3[H])c([H])c([H])c2C1([H])[H]

>  <smiles>  (2) 
[H]c1c([H])c([H])c2c(c1[H])C([H])([H])C([H])([H])C([H])([H])C2([H])N([H])C(=O)C1([H])N(C(=O)C([H])(N([H])C(=O)C([H])(N([H])C([H])([H])[H])C([H])([H])[H])C(C([H])([H])[H])(C([H])([H])[H])C([H])([H])[H])C([H])([H])c2c([H])c(OC([H])([H])c3c([H])c([H])c(C([H])([H])[H])c(C([H])(C([H])([H])N([H])C(=O)N4C([H])([H])C([H])([H])C([H])([H])C([H])(n5nc(-c6c([H])c([H])c(Oc7c([H])c([H])c(F)c([H])c7F)c([H])c6[H])c(C(=O)N([H])[H])c5N([H])[H])C4([H])[H])[N+]([H])([H])[H])c3[H])c([H])c([H])c2C1([H])[H]

$$$$
2:0:0
     RDKit          3D

 96103  0  0  1  0  0  0  0  0999 V2000
  -28.7850  -19.8060   21.5120 C   0  0  0  0  0  2  0  0  0  0  0  0
  -28.1240  -20.7950   20.6230 N   0  0  0  0  0  4  0  0  0  0  0  0
  -28.5820  -20.7620   19.7290 H   0  0  0  0  0  0  0  0  0  0  0  0
  -27.1750  -20.4850   20.4790 H   0  0  0  0  0  0  0  0  0  0  0  0
  -28.0730  -22.2080   21.0670 C   0  0  0  0  0  2  0  0  0  0  0  0
  -27.7340  -23.1290   19.8730 C   0  0  0  0  0  2  0  0  0  0  0  0
  -27.7610  -24.6420   20.1740 C   0  0  0  0  0  2  0  0  0  0  0  0
  -28.1010  -25.4750   18.9150 C   0  0  0  0  0  2  0  0  0  0  0  0
  -28.0830  -26.8810   19.1630 O   0  0  0  0  0  0  0  0  0  0  0  0
  -24.4620  -31.5560   23.0790 C   0  0  0  0  0  0  0  0  0  0  0  0
  -26.8790  -27.5280   19.3250 C   0  0  0  0  0  0  0  0  0  0  0  0
  -23.1330  -30.2900   21.4240 C   0  0  0  0  0  3  0  0  0  0  0  0
  -24.4680  -28.9530   19.7170 C   0  0  0  0  0  0  0  0  0  0  0  0
  -25.6190  -30.7440   21.0270 C   0  0  0  0  0  2  0  0  0  0  0  0
  -25.6660  -29.4490   20.2450 C   0  0  0  0  0  0  0  0  0  0  0  0
  -26.8730  -28.7440   20.0460 C   0  0  0  0  0  3  0  0  0  0  0  0
  -25.6600  -27.0410   18.8000 C   0  0  0  0  0  3  0  0  0  0  0  0
  -24.4600  -27.7490   18.9910 C   0  0  0  0  0  3  0  0  0  0  0  0
  -23.2150  -29.7570   19.9690 C   0  0  0  0  0  2  0  0  0  0  0  0
  -24.4280  -30.8710   21.9020 N   0  0  0  0  0  0  0  0  0  0  0  0
  -23.4300  -31.7420   23.7430 O   0  0  0  0  0  0  0  0  0  0  0  0
  -22.5960  -29.1590   22.3310 C   0  0  0  0  0  0  0  0  0  0  0  0
  -21.2950  -28.8530   22.1980 N   0  0  0  0  0  0  0  0  0  0  0  0
  -23.3460  -28.5620   23.1070 O   0  0  0  0  0  0  0  0  0  0  0  0
  -20.7460  -29.3930   21.5440 H   0  0  0  0  0  0  0  0  0  0  0  0
  -18.0980  -27.1980   22.5170 C   0  0  0  0  0  0  0  0  0  0  0  0
  -20.5800  -27.7980   22.9180 C   0  0  0  0  0  3  0  0  0  0  0  0
  -20.9070  -26.4040   22.3360 C   0  0  0  0  0  2  0  0  0  0  0  0
  -19.9090  -25.9510   21.2650 C   0  0  0  0  0  2  0  0  0  0  0  0
  -18.4900  -25.8950   21.8400 C   0  0  0  0  0  2  0  0  0  0  0  0
  -19.0800  -28.0990   23.0080 C   0  0  0  0  0  0  0  0  0  0  0  0
  -18.6620  -29.3120   23.5970 C   0  0  0  0  0  3  0  0  0  0  0  0
  -17.2950  -29.6280   23.7030 C   0  0  0  0  0  3  0  0  0  0  0  0
  -16.3250  -28.7260   23.2290 C   0  0  0  0  0  3  0  0  0  0  0  0
  -16.7280  -27.5130   22.6410 C   0  0  0  0  0  3  0  0  0  0  0  0
  -25.7900  -32.1540   23.6370 C   0  0  0  0  0  3  0  0  0  0  0  0
  -25.5010  -33.5190   24.0950 N   0  0  0  0  0  0  0  0  0  0  0  0
  -25.7750  -34.6280   23.3940 C   0  0  0  0  0  0  0  0  0  0  0  0
  -26.3710  -34.6080   22.3140 O   0  0  0  0  0  0  0  0  0  0  0  0
  -24.9570  -33.6070   24.9410 H   0  0  0  0  0  0  0  0  0  0  0  0
  -24.0260  -36.4330   23.2930 C   0  0  0  0  0  1  0  0  0  0  0  0
  -25.3190  -35.9750   23.9870 C   0  0  0  0  0  3  0  0  0  0  0  0
  -27.5000  -36.8100   24.7420 C   0  0  0  0  0  1  0  0  0  0  0  0
  -26.3400  -37.0400   23.8840 N   0  0  0  0  0  0  0  0  0  0  0  0
  -25.9430  -37.9440   24.1260 H   0  0  0  0  0  0  0  0  0  0  0  0
  -26.4170  -31.2960   24.8050 C   0  0  1  0  0  0  0  0  0  0  0  0
  -25.4140  -30.9490   25.9290 C   0  0  0  0  0  1  0  0  0  0  0  0
  -26.9940  -29.9710   24.2570 C   0  0  0  0  0  1  0  0  0  0  0  0
  -27.6010  -32.0650   25.4380 C   0  0  0  0  0  1  0  0  0  0  0  0
  -30.0470  -19.1860   20.8480 C   0  0  0  0  0  2  0  0  0  0  0  0
  -30.5390  -17.8170   21.4080 C   0  0  0  0  0  3  0  0  0  0  0  0
  -31.6170  -17.1980   20.4760 C   0  0  0  0  0  2  0  0  0  0  0  0
  -32.0870  -15.7670   20.8200 C   0  0  0  0  0  2  0  0  0  0  0  0
  -31.1190  -13.9950   19.3450 C   0  0  0  0  0  0  0  0  0  0  0  0
  -30.6500  -11.6940   18.6020 C   0  0  0  0  0  2  0  0  0  0  0  0
  -29.5760  -11.5870   17.5090 C   0  0  0  0  0  2  0  0  0  0  0  0
  -28.1760  -11.5140   18.1370 C   0  0  0  0  0  2  0  0  0  0  0  0
  -27.9330  -12.6490   19.1630 C   0  0  0  0  0  3  0  0  0  0  0  0
  -29.0970  -12.7490   20.1720 C   0  0  0  0  0  2  0  0  0  0  0  0
  -30.3710  -12.8690   19.4360 N   0  0  0  0  0  0  0  0  0  0  0  0
  -31.9060  -14.2280   18.4210 O   0  0  0  0  0  0  0  0  0  0  0  0
  -31.1220  -14.7250   20.4670 N   0  0  0  0  0  0  0  0  0  0  0  0
  -30.5330  -14.3760   21.2090 H   0  0  0  0  0  0  0  0  0  0  0  0
  -25.7500  -13.4540   20.2720 C   0  0  0  0  0  0  0  0  0  0  0  0
  -24.6770  -12.7680   20.7780 C   0  0  0  0  0  0  0  0  0  0  0  0
  -24.9850  -11.3820   20.6220 C   0  0  0  0  0  0  0  0  0  0  0  0
  -26.6480  -12.4880   19.8420 N   0  0  0  0  0  0  0  0  0  0  0  0
  -26.1990  -11.2350   20.1080 N   0  0  0  0  0  0  0  0  0  0  0  0
  -24.1700  -10.1880   20.8810 C   0  0  0  0  0  0  0  0  0  0  0  0
  -24.5610   -9.2170   21.8310 C   0  0  0  0  0  3  0  0  0  0  0  0
  -23.7510   -8.0860   22.0740 C   0  0  0  0  0  3  0  0  0  0  0  0
  -22.5360   -7.9180   21.3700 C   0  0  0  0  0  0  0  0  0  0  0  0
  -22.1630   -8.8740   20.4090 C   0  0  0  0  0  3  0  0  0  0  0  0
  -22.9710   -9.9970   20.1640 C   0  0  0  0  0  3  0  0  0  0  0  0
  -21.6980   -6.8390   21.5210 O   0  0  0  0  0  0  0  0  0  0  0  0
  -21.5320   -6.2220   22.7350 C   0  0  0  0  0  0  0  0  0  0  0  0
  -21.0550   -6.9190   23.8660 C   0  0  0  0  0  3  0  0  0  0  0  0
  -20.8330   -6.2300   25.0750 C   0  0  0  0  0  3  0  0  0  0  0  0
  -21.0800   -4.8460   25.1530 C   0  0  0  0  0  0  0  0  0  0  0  0
  -21.5500   -4.1490   24.0260 C   0  0  0  0  0  3  0  0  0  0  0  0
  -21.7750   -4.8360   22.8200 C   0  0  0  0  0  0  0  0  0  0  0  0
  -22.2080   -4.1560   21.7300 F   0  0  0  0  0  0  0  0  0  0  0  0
  -20.8600   -4.1810   26.3120 F   0  0  0  0  0  0  0  0  0  0  0  0
  -23.3980  -13.3630   21.2930 C   0  0  0  0  0  0  0  0  0  0  0  0
  -22.7650  -12.7110   22.2620 N   0  0  0  0  0  0  0  0  0  0  0  0
  -22.9750  -14.4360   20.8670 O   0  0  0  0  0  0  0  0  0  0  0  0
  -23.1220  -11.8400   22.6260 H   0  0  0  0  0  0  0  0  0  0  0  0
  -21.9110  -13.0890   22.6470 H   0  0  0  0  0  0  0  0  0  0  0  0
  -26.0250  -14.8080   20.1210 N   0  0  0  0  0  0  0  0  0  0  0  0
  -25.3550  -15.5270   20.3670 H   0  0  0  0  0  0  0  0  0  0  0  0
  -26.8540  -15.1770   19.6720 H   0  0  0  0  0  0  0  0  0  0  0  0
  -30.9640  -17.8530   22.9000 C   0  0  0  0  0  2  0  0  0  0  0  0
  -32.0220  -18.8360   23.2110 N   0  0  0  0  0  4  0  0  0  0  0  0
  -32.9110  -18.5540   22.8380 H   0  0  0  0  0  0  0  0  0  0  0  0
  -32.1280  -18.9000   24.2080 H   0  0  0  0  0  0  0  0  0  0  0  0
  -31.8070  -19.7540   22.8700 H   0  0  0  0  0  0  0  0  0  0  0  0
  2  5  1  0
  2  1  1  0
  3  2  1  0
  4  2  1  0
  6  7  1  0
  6  5  1  0
  8  9  1  0
  8  7  1  0
  9 11  1  0
 10 21  2  0
 11 16  1  0
 12 20  1  0
 12 22  1  0
 13 19  1  0
 13 15  1  0
 14 20  1  0
 15 14  1  0
 16 15  2  0
 17 18  1  0
 17 11  2  0
 18 13  2  0
 19 12  1  0
 20 10  1  0
 22 24  2  0
 23 22  1  0
 25 23  1  0
 26 35  2  0
 26 31  1  0
 27 23  1  0
 27 31  1  0
 28 27  1  0
 29 30  1  0
 29 28  1  0
 30 26  1  0
 31 32  2  0
 32 33  1  0
 34 33  2  0
 35 34  1  0
 36 10  1  0
 36 37  1  0
 36 46  1  0
 37 40  1  0
 38 42  1  0
 38 37  1  0
 39 38  2  0
 42 41  1  0
 44 42  1  0
 44 45  1  0
 44 43  1  0
 46 49  1  1
 46 47  1  0
 48 46  1  0
 50 51  1  0
 50  1  1  0
 51 52  1  0
 51 92  1  0
 52 53  1  0
 54 60  1  0
 54 62  1  0
 55 60  1  0
 56 57  1  0
 56 55  1  0
 58 57  1  0
 58 67  1  0
 58 59  1  0
 60 59  1  0
 61 54  2  0
 62 53  1  0
 62 63  1  0
 64 65  2  0
 65 84  1  0
 66 65  1  0
 66 69  1  0
 67 68  1  0
 67 64  1  0
 68 66  2  0
 69 70  1  0
 70 71  2  0
 72 75  1  0
 72 71  1  0
 73 72  2  0
 74 73  1  0
 74 69  2  0
 75 76  1  0
 76 81  2  0
 76 77  1  0
 77 78  2  0
 78 79  1  0
 79 83  1  0
 80 79  2  0
 81 80  1  0
 82 81  1  0
 84 85  1  0
 85 87  1  0
 85 88  1  0
 86 84  2  0
 89 64  1  0
 89 90  1  0
 91 89  1  0
 92 93  1  0
 93 95  1  0
 94 93  1  0
 96 93  1  0
M  ISO  4   8 101   9 101  54 100  62 100
M  END
>  <TORSDO>  (3) 
F 27

>  <SCORE>  (3) 
-8.659

>  <name>  (3) 
2

>  <ligand_id>  (3) 
2

>  <original_smiles>  (3) 
[H]c1c([H])c([H])c2c(c1[H])C([H])([H])C([H])([H])C([H])([H])C2([H])N([H])C(=O)C1([H])N(C(=O)C([H])(N([H])C(=O)C([H])(N([H])C([H])([H])[H])C([H])([H])[H])C(C([H])([H])[H])(C([H])([H])[H])C([H])([H])[H])C([H])([H])c2c([H])c(OC([H])([H])C([H])([H])C([H])([H])C([H])([H])[N+]([H])([H])C([H])([H])C([H])([H])C([H])(C([H])([H])C([H])([H])N([H])C(=O)N3C([H])([H])C([H])([H])C([H])([H])C([H])(n4nc(-c5c([H])c([H])c(Oc6c([H])c([H])c(F)c([H])c6F)c([H])c5[H])c(C(=O)N([H])[H])c4N([H])[H])C3([H])[H])C([H])([H])[N+]([H])([H])[H])c([H])c([H])c2C1([H])[H]

>  <smiles>  (3) 
[H]c1c([H])c([H])c2c(c1[H])C([H])([H])C([H])([H])C([H])([H])C2([H])N([H])C(=O)C1([H])N(C(=O)C([H])(N([H])C(=O)C([H])(N([H])C([H])([H])[H])C([H])([H])[H])C(C([H])([H])[H])(C([H])([H])[H])C([H])([H])[H])C([H])([H])c2c([H])c(OC([H])([H])C([H])([H])C([H])([H])C([H])([H])[N+]([H])([H])C([H])([H])C([H])([H])C([H])(C([H])([H])C([H])([H])N([H])C(=O)N3C([H])([H])C([H])([H])C([H])([H])C([H])(n4nc(-c5c([H])c([H])c(Oc6c([H])c([H])c(F)c([H])c6F)c([H])c5[H])c(C(=O)N([H])[H])c4N([H])[H])C3([H])[H])C([H])([H])[N+]([H])([H])[H])c([H])c([H])c2C1([H])[H]

$$$$
3:0:0
     RDKit          3D

 92 99  0  0  1  0  0  0  0  0999 V2000
  -29.1640  -20.9820   20.3150 N   0  0  0  0  0  4  0  0  0  0  0  0
  -28.3570  -20.6860   19.7880 H   0  0  0  0  0  0  0  0  0  0  0  0
  -28.9350  -20.8930   21.2910 H   0  0  0  0  0  0  0  0  0  0  0  0
  -29.4090  -22.4740   20.0230 C   0  0  0  0  0  2  0  0  0  0  0  0
  -28.3150  -23.6120   20.4000 C   0  0  0  0  0  2  0  0  0  0  0  0
  -28.3590  -25.0390   19.6310 C   0  0  0  0  0  2  0  0  0  0  0  0
  -28.1760  -26.3750   20.2790 O   0  0  0  0  0  0  0  0  0  0  0  0
  -24.5280  -31.8430   23.2170 C   0  0  0  0  0  0  0  0  0  0  0  0
  -27.0390  -27.2020   20.1800 C   0  0  0  0  0  0  0  0  0  0  0  0
  -23.2820  -30.4430   21.6040 C   0  0  0  0  0  3  0  0  0  0  0  0
  -24.6890  -28.8430   20.1780 C   0  0  0  0  0  0  0  0  0  0  0  0
  -25.8200  -30.7190   21.3850 C   0  0  0  0  0  2  0  0  0  0  0  0
  -25.8690  -29.3330   20.7510 C   0  0  0  0  0  0  0  0  0  0  0  0
  -27.0400  -28.5210   20.7420 C   0  0  0  0  0  3  0  0  0  0  0  0
  -25.8370  -26.7620   19.5860 C   0  0  0  0  0  3  0  0  0  0  0  0
  -24.6740  -27.5660   19.5900 C   0  0  0  0  0  3  0  0  0  0  0  0
  -23.4670  -29.7370   20.2320 C   0  0  0  0  0  2  0  0  0  0  0  0
  -24.5620  -31.0240   22.1250 N   0  0  0  0  0  0  0  0  0  0  0  0
  -23.4560  -32.1420   23.7660 O   0  0  0  0  0  0  0  0  0  0  0  0
  -22.6150  -29.4560   22.5910 C   0  0  0  0  0  0  0  0  0  0  0  0
  -21.2860  -29.2860   22.4730 N   0  0  0  0  0  0  0  0  0  0  0  0
  -23.2900  -28.8410   23.4200 O   0  0  0  0  0  0  0  0  0  0  0  0
  -20.7990  -29.8320   21.7750 H   0  0  0  0  0  0  0  0  0  0  0  0
  -17.9100  -28.0810   22.9780 C   0  0  0  0  0  0  0  0  0  0  0  0
  -20.4650  -28.3610   23.2580 C   0  0  0  0  0  3  0  0  0  0  0  0
  -20.5790  -26.9170   22.7170 C   0  0  0  0  0  2  0  0  0  0  0  0
  -19.4860  -26.5640   21.7050 C   0  0  0  0  0  2  0  0  0  0  0  0
  -18.0990  -26.7160   22.3350 C   0  0  0  0  0  2  0  0  0  0  0  0
  -19.0220  -28.8590   23.3950 C   0  0  0  0  0  0  0  0  0  0  0  0
  -18.7940  -30.1350   23.9530 C   0  0  0  0  0  3  0  0  0  0  0  0
  -17.4850  -30.6340   24.0970 C   0  0  0  0  0  3  0  0  0  0  0  0
  -16.3870  -29.8550   23.6930 C   0  0  0  0  0  3  0  0  0  0  0  0
  -16.6000  -28.5800   23.1410 C   0  0  0  0  0  3  0  0  0  0  0  0
  -25.8280  -32.4630   23.8190 C   0  0  0  0  0  3  0  0  0  0  0  0
  -26.3560  -31.6890   25.0880 C   0  0  1  0  0  0  0  0  0  0  0  0
  -25.2800  -31.4690   26.1760 C   0  0  0  0  0  1  0  0  0  0  0  0
  -26.9190  -30.3050   24.6900 C   0  0  0  0  0  1  0  0  0  0  0  0
  -27.5230  -32.4730   25.7330 C   0  0  0  0  0  1  0  0  0  0  0  0
  -25.5410  -33.8640   24.1630 N   0  0  0  0  0  0  0  0  0  0  0  0
  -25.8680  -34.9180   23.4040 C   0  0  0  0  0  0  0  0  0  0  0  0
  -26.5170  -34.8140   22.3600 O   0  0  0  0  0  0  0  0  0  0  0  0
  -24.9740  -34.0210   24.9830 H   0  0  0  0  0  0  0  0  0  0  0  0
  -24.1460  -36.7240   23.0900 C   0  0  0  0  0  1  0  0  0  0  0  0
  -25.4000  -36.3080   23.8780 C   0  0  0  0  0  3  0  0  0  0  0  0
  -27.5610  -37.1650   24.6660 C   0  0  0  0  0  1  0  0  0  0  0  0
  -26.4370  -37.3550   23.7520 N   0  0  0  0  0  0  0  0  0  0  0  0
  -26.0430  -38.2780   23.9150 H   0  0  0  0  0  0  0  0  0  0  0  0
  -30.3220  -20.0150   20.0300 C   0  0  0  0  0  2  0  0  0  0  0  0
  -30.1180  -18.4240   19.7200 C   0  0  0  0  0  2  0  0  0  0  0  0
  -30.4900  -17.1990   20.7070 C   0  0  0  0  0  0  0  0  0  0  0  0
  -31.1410  -14.6630   19.9360 C   0  0  0  0  0  0  0  0  0  0  0  0
  -30.8210  -12.4440   18.8380 C   0  0  0  0  0  2  0  0  0  0  0  0
  -29.8340  -12.6110   17.6620 C   0  0  0  0  0  2  0  0  0  0  0  0
  -28.3740  -12.5210   18.1520 C   0  0  0  0  0  2  0  0  0  0  0  0
  -28.1050  -13.3860   19.4120 C   0  0  0  0  0  3  0  0  0  0  0  0
  -29.1920  -13.1530   20.4790 C   0  0  0  0  0  2  0  0  0  0  0  0
  -30.4830  -13.4630   19.8500 N   0  0  0  0  0  0  0  0  0  0  0  0
  -32.3170  -14.7650   19.5790 O   0  0  0  0  0  0  0  0  0  0  0  0
  -30.3420  -15.7460   20.2520 N   0  0  0  0  0  4  0  0  0  0  0  0
  -29.3920  -15.4270   20.3680 H   0  0  0  0  0  0  0  0  0  0  0  0
  -25.7800  -14.1220   20.2210 C   0  0  0  0  0  0  0  0  0  0  0  0
  -24.6870  -13.4110   20.6270 C   0  0  0  0  0  0  0  0  0  0  0  0
  -25.0720  -12.0360   20.5870 C   0  0  0  0  0  0  0  0  0  0  0  0
  -26.7640  -13.1830   19.9490 N   0  0  0  0  0  0  0  0  0  0  0  0
  -26.3460  -11.9240   20.2330 N   0  0  0  0  0  0  0  0  0  0  0  0
  -24.2860  -10.8160   20.8040 C   0  0  0  0  0  0  0  0  0  0  0  0
  -24.6700   -9.8520   21.7610 C   0  0  0  0  0  3  0  0  0  0  0  0
  -23.8880   -8.6950   21.9670 C   0  0  0  0  0  3  0  0  0  0  0  0
  -22.7050   -8.4970   21.2150 C   0  0  0  0  0  0  0  0  0  0  0  0
  -22.3370   -9.4510   20.2500 C   0  0  0  0  0  3  0  0  0  0  0  0
  -23.1210  -10.5990   20.0430 C   0  0  0  0  0  3  0  0  0  0  0  0
  -21.8960   -7.3910   21.3290 O   0  0  0  0  0  0  0  0  0  0  0  0
  -21.7760   -6.7040   22.5090 C   0  0  0  0  0  0  0  0  0  0  0  0
  -21.3560   -7.3350   23.7000 C   0  0  0  0  0  3  0  0  0  0  0  0
  -21.1800   -6.5780   24.8740 C   0  0  0  0  0  3  0  0  0  0  0  0
  -21.4120   -5.1890   24.8590 C   0  0  0  0  0  0  0  0  0  0  0  0
  -21.8290   -4.5580   23.6740 C   0  0  0  0  0  3  0  0  0  0  0  0
  -22.0070   -5.3130   22.5010 C   0  0  0  0  0  0  0  0  0  0  0  0
  -22.3850   -4.6960   21.3560 F   0  0  0  0  0  0  0  0  0  0  0  0
  -21.2370   -4.4600   25.9860 F   0  0  0  0  0  0  0  0  0  0  0  0
  -23.3260  -13.9660   20.9400 C   0  0  0  0  0  0  0  0  0  0  0  0
  -22.5980  -13.3320   21.8490 N   0  0  0  0  0  0  0  0  0  0  0  0
  -22.9220  -15.0010   20.4110 O   0  0  0  0  0  0  0  0  0  0  0  0
  -22.9410  -12.5010   22.3070 H   0  0  0  0  0  0  0  0  0  0  0  0
  -21.6890  -13.6930   22.0980 H   0  0  0  0  0  0  0  0  0  0  0  0
  -26.0120  -15.4850   20.0360 N   0  0  0  0  0  0  0  0  0  0  0  0
  -25.2880  -16.1740   20.2020 H   0  0  0  0  0  0  0  0  0  0  0  0
  -26.8580  -15.8850   19.6550 H   0  0  0  0  0  0  0  0  0  0  0  0
  -33.0270  -17.5720   20.7800 C   0  0  0  0  0  1  0  0  0  0  0  0
  -31.7450  -17.3570   21.6090 C   0  0  0  0  0  3  0  0  0  0  0  0
  -30.5270  -18.0470   23.8140 C   0  0  0  0  0  1  0  0  0  0  0  0
  -31.5980  -18.3900   22.7600 C   0  0  0  0  0  2  0  0  0  0  0  0
  1  3  1  0
  2  1  1  0
  4  1  1  0
  4  5  1  0
  6  7  1  0
  6  5  1  0
  8 19  2  0
  9  7  1  0
  9 14  1  0
 10 18  1  0
 10 20  1  0
 11 17  1  0
 11 13  1  0
 12 18  1  0
 13 12  1  0
 14 13  2  0
 15 16  1  0
 15  9  2  0
 16 11  2  0
 17 10  1  0
 18  8  1  0
 20 22  2  0
 21 20  1  0
 23 21  1  0
 24 33  2  0
 24 29  1  0
 25 21  1  0
 25 29  1  0
 26 25  1  0
 27 28  1  0
 27 26  1  0
 28 24  1  0
 29 30  2  0
 30 31  1  0
 32 31  2  0
 33 32  1  0
 34  8  1  0
 34 39  1  0
 34 35  1  0
 35 38  1  1
 35 36  1  0
 37 35  1  0
 39 42  1  0
 40 44  1  0
 40 39  1  0
 41 40  2  0
 44 43  1  0
 46 44  1  0
 46 47  1  0
 46 45  1  0
 48  1  1  0
 49 48  1  0
 49 50  1  0
 50 90  1  0
 51 59  1  0
 52 57  1  0
 53 54  1  0
 53 52  1  0
 55 54  1  0
 55 64  1  0
 55 56  1  0
 57 51  1  0
 57 56  1  0
 58 51  2  0
 59 60  1  0
 59 50  2  0
 61 62  2  0
 62 81  1  0
 63 62  1  0
 63 66  1  0
 64 61  1  0
 64 65  1  0
 65 63  2  0
 66 67  1  0
 67 68  2  0
 69 72  1  0
 69 68  1  0
 70 69  2  0
 71 70  1  0
 71 66  2  0
 72 73  1  0
 73 74  1  0
 74 75  2  0
 76 75  1  0
 76 80  1  0
 77 76  2  0
 78 73  2  0
 78 77  1  0
 79 78  1  0
 81 82  1  0
 82 85  1  0
 82 84  1  0
 83 81  2  0
 86 87  1  0
 86 61  1  0
 88 86  1  0
 90 89  1  0
 90 92  1  0
 92 91  1  0
M  ISO  4   6 101   7 101  51 100  59 100
M  END
>  <TORSDO>  (4) 
F 24

>  <SCORE>  (4) 
-10.314

>  <name>  (4) 
3

>  <ligand_id>  (4) 
3

>  <original_smiles>  (4) 
[H]c1c([H])c([H])c2c(c1[H])C([H])([H])C([H])([H])C([H])([H])C2([H])N([H])C(=O)C1([H])N(C(=O)C([H])(N([H])C(=O)C([H])(N([H])C([H])([H])[H])C([H])([H])[H])C(C([H])([H])[H])(C([H])([H])[H])C([H])([H])[H])C([H])([H])c2c([H])c(OC([H])([H])C([H])([H])C([H])([H])[N+]([H])([H])C([H])([H])C([H])([H])C([H])(N([H])C(=O)N3C([H])([H])C([H])([H])C([H])([H])C([H])(n4nc(-c5c([H])c([H])c(Oc6c([H])c([H])c(F)c([H])c6F)c([H])c5[H])c(C(=O)N([H])[H])c4N([H])[H])C3([H])[H])C([H])(C([H])([H])[H])C([H])([H])C([H])([H])[H])c([H])c([H])c2C1([H])[H]

>  <smiles>  (4) 
[H]c1c([H])c([H])c2c(c1[H])C([H])([H])C([H])([H])C([H])([H])C2([H])N([H])C(=O)C1([H])N(C(=O)C([H])(N([H])C(=O)C([H])(N([H])C([H])([H])[H])C([H])([H])[H])C(C([H])([H])[H])(C([H])([H])[H])C([H])([H])[H])C([H])([H])c2c([H])c(OC([H])([H])C([H])([H])C([H])([H])[N+]([H])([H])C([H])([H])C([H])([H])C([H])(N([H])C(=O)N3C([H])([H])C([H])([H])C([H])([H])C([H])(n4nc(-c5c([H])c([H])c(Oc6c([H])c([H])c(F)c([H])c6F)c([H])c5[H])c(C(=O)N([H])[H])c4N([H])[H])C3([H])[H])C([H])(C([H])([H])[H])C([H])([H])C([H])([H])[H])c([H])c([H])c2C1([H])[H]

$$$$
4:0:0
     RDKit          3D

 90 99  0  0  1  0  0  0  0  0999 V2000
  -27.6900  -20.8050   20.1930 C   0  0  0  0  0  2  0  0  0  0  0  0
  -30.1120  -20.6530   20.3180 C   0  0  0  0  0  3  0  0  0  0  0  0
  -28.3630  -18.2030   19.3000 C   0  0  0  0  0  2  0  0  0  0  0  0
  -28.1220  -19.2760   20.4230 C   0  0  0  0  0  3  0  0  0  0  0  0
  -29.6100  -19.1560   20.7190 C   0  0  0  0  0  3  0  0  0  0  0  0
  -28.9500  -21.6650   19.7800 C   0  0  0  0  0  0  0  0  0  0  0  0
  -29.7540  -17.7400   19.8610 C   0  0  0  0  0  3  0  0  0  0  0  0
  -30.5380  -15.0700   20.1370 C   0  0  0  0  0  0  0  0  0  0  0  0
  -30.4470  -12.7020   19.1940 C   0  0  0  0  0  2  0  0  0  0  0  0
  -29.4940  -12.6870   17.9730 C   0  0  0  0  0  2  0  0  0  0  0  0
  -28.0320  -12.4760   18.4170 C   0  0  0  0  0  2  0  0  0  0  0  0
  -27.6610  -13.3570   19.6410 C   0  0  0  0  0  3  0  0  0  0  0  0
  -28.7360  -13.3390   20.7470 C   0  0  0  0  0  2  0  0  0  0  0  0
  -29.9890  -13.7790   20.1290 N   0  0  0  0  0  0  0  0  0  0  0  0
  -31.6990  -15.1680   19.7260 O   0  0  0  0  0  0  0  0  0  0  0  0
  -29.7360  -16.2330   20.4090 N   0  0  0  0  0  0  0  0  0  0  0  0
  -28.8770  -15.9930   20.8790 H   0  0  0  0  0  0  0  0  0  0  0  0
  -25.3030  -13.9070   20.4500 C   0  0  0  0  0  0  0  0  0  0  0  0
  -24.2570  -13.1240   20.8360 C   0  0  0  0  0  0  0  0  0  0  0  0
  -24.7260  -11.7720   20.7800 C   0  0  0  0  0  0  0  0  0  0  0  0
  -26.3430  -13.0380   20.1680 N   0  0  0  0  0  0  0  0  0  0  0  0
  -26.0080  -11.7490   20.4310 N   0  0  0  0  0  0  0  0  0  0  0  0
  -24.0090  -10.5070   20.9750 C   0  0  0  0  0  0  0  0  0  0  0  0
  -24.4500   -9.5470   21.9120 C   0  0  0  0  0  3  0  0  0  0  0  0
  -23.7290   -8.3470   22.0980 C   0  0  0  0  0  3  0  0  0  0  0  0
  -22.5570   -8.1010   21.3460 C   0  0  0  0  0  0  0  0  0  0  0  0
  -22.1350   -9.0510   20.3990 C   0  0  0  0  0  3  0  0  0  0  0  0
  -22.8550  -10.2410   20.2100 C   0  0  0  0  0  3  0  0  0  0  0  0
  -21.8060   -6.9540   21.4410 O   0  0  0  0  0  0  0  0  0  0  0  0
  -21.7380   -6.2300   22.6030 C   0  0  0  0  0  0  0  0  0  0  0  0
  -21.2720   -6.7990   23.8100 C   0  0  0  0  0  3  0  0  0  0  0  0
  -21.1540   -6.0020   24.9660 C   0  0  0  0  0  3  0  0  0  0  0  0
  -21.4980   -4.6390   24.9200 C   0  0  0  0  0  0  0  0  0  0  0  0
  -21.9600   -4.0700   23.7200 C   0  0  0  0  0  3  0  0  0  0  0  0
  -22.0770   -4.8630   22.5660 C   0  0  0  0  0  0  0  0  0  0  0  0
  -22.5030   -4.3050   21.4060 F   0  0  0  0  0  0  0  0  0  0  0  0
  -21.3780   -3.8710   26.0270 F   0  0  0  0  0  0  0  0  0  0  0  0
  -22.8650  -13.5900   21.1510 C   0  0  0  0  0  0  0  0  0  0  0  0
  -22.1650  -12.8750   22.0190 N   0  0  0  0  0  0  0  0  0  0  0  0
  -22.4120  -14.6230   20.6540 O   0  0  0  0  0  0  0  0  0  0  0  0
  -22.5440  -12.0300   22.4270 H   0  0  0  0  0  0  0  0  0  0  0  0
  -21.2310  -13.1650   22.2740 H   0  0  0  0  0  0  0  0  0  0  0  0
  -25.4580  -15.2820   20.2810 N   0  0  0  0  0  0  0  0  0  0  0  0
  -24.6770  -15.9190   20.3660 H   0  0  0  0  0  0  0  0  0  0  0  0
  -26.2760  -15.7120   19.8670 H   0  0  0  0  0  0  0  0  0  0  0  0
  -28.8750  -23.6830   18.0560 C   0  0  0  0  0  1  0  0  0  0  0  0
  -30.5760  -23.7290   19.8540 C   0  0  0  0  0  1  0  0  0  0  0  0
  -29.0800  -23.3970   19.5780 C   0  0  2  0  0  0  0  0  0  0  0  0
  -28.1710  -24.6420   20.3150 C   0  0  0  0  0  2  0  0  0  0  0  0
  -28.3380  -26.2030   20.1590 O   0  0  0  0  0  0  0  0  0  0  0  0
  -24.6260  -31.8850   23.1950 C   0  0  0  0  0  0  0  0  0  0  0  0
  -27.2500  -27.1610   20.1710 C   0  0  0  0  0  0  0  0  0  0  0  0
  -23.4390  -30.4840   21.5510 C   0  0  0  0  0  3  0  0  0  0  0  0
  -24.9080  -28.9110   20.1270 C   0  0  0  0  0  0  0  0  0  0  0  0
  -25.9890  -30.7550   21.3890 C   0  0  0  0  0  2  0  0  0  0  0  0
  -26.0800  -29.3560   20.7500 C   0  0  0  0  0  0  0  0  0  0  0  0
  -27.2500  -28.5020   20.7540 C   0  0  0  0  0  3  0  0  0  0  0  0
  -26.0430  -26.8210   19.5210 C   0  0  0  0  0  3  0  0  0  0  0  0
  -24.9050  -27.6600   19.4880 C   0  0  0  0  0  3  0  0  0  0  0  0
  -23.6700  -29.8010   20.1700 C   0  0  0  0  0  2  0  0  0  0  0  0
  -24.7050  -31.0650   22.1000 N   0  0  0  0  0  0  0  0  0  0  0  0
  -23.5410  -32.1560   23.7280 O   0  0  0  0  0  0  0  0  0  0  0  0
  -22.7630  -29.4770   22.5170 C   0  0  0  0  0  0  0  0  0  0  0  0
  -21.4290  -29.3310   22.4190 N   0  0  0  0  0  0  0  0  0  0  0  0
  -23.4370  -28.8270   23.3210 O   0  0  0  0  0  0  0  0  0  0  0  0
  -20.9400  -29.9190   21.7610 H   0  0  0  0  0  0  0  0  0  0  0  0
  -18.0350  -28.1380   22.9430 C   0  0  0  0  0  0  0  0  0  0  0  0
  -20.6020  -28.3860   23.1760 C   0  0  0  0  0  3  0  0  0  0  0  0
  -20.6980  -26.9650   22.5750 C   0  0  0  0  0  2  0  0  0  0  0  0
  -19.5620  -26.6400   21.5960 C   0  0  0  0  0  2  0  0  0  0  0  0
  -18.2060  -26.7690   22.2990 C   0  0  0  0  0  2  0  0  0  0  0  0
  -19.1670  -28.8940   23.3550 C   0  0  0  0  0  0  0  0  0  0  0  0
  -18.9650  -30.1520   23.9600 C   0  0  0  0  0  3  0  0  0  0  0  0
  -17.6660  -30.6630   24.1470 C   0  0  0  0  0  3  0  0  0  0  0  0
  -16.5500  -29.9090   23.7430 C   0  0  0  0  0  3  0  0  0  0  0  0
  -16.7360  -28.6460   23.1460 C   0  0  0  0  0  3  0  0  0  0  0  0
  -25.8970  -32.5300   23.8300 C   0  0  0  0  0  3  0  0  0  0  0  0
  -25.5770  -33.9300   24.1580 N   0  0  0  0  0  0  0  0  0  0  0  0
  -25.9120  -34.9870   23.4090 C   0  0  0  0  0  0  0  0  0  0  0  0
  -26.5890  -34.8900   22.3790 O   0  0  0  0  0  0  0  0  0  0  0  0
  -24.9710  -34.0720   24.9530 H   0  0  0  0  0  0  0  0  0  0  0  0
  -24.1850  -36.7850   23.0540 C   0  0  0  0  0  1  0  0  0  0  0  0
  -25.4210  -36.3790   23.8680 C   0  0  0  0  0  3  0  0  0  0  0  0
  -27.5470  -37.2650   24.7140 C   0  0  0  0  0  1  0  0  0  0  0  0
  -26.4550  -37.4330   23.7600 N   0  0  0  0  0  0  0  0  0  0  0  0
  -26.0500  -38.3550   23.9030 H   0  0  0  0  0  0  0  0  0  0  0  0
  -26.4010  -31.7680   25.1170 C   0  0  1  0  0  0  0  0  0  0  0  0
  -25.2920  -31.5370   26.1690 C   0  0  0  0  0  1  0  0  0  0  0  0
  -26.9930  -30.3920   24.7450 C   0  0  0  0  0  1  0  0  0  0  0  0
  -27.5440  -32.5620   25.7880 C   0  0  0  0  0  1  0  0  0  0  0  0
  1  4  1  0
  3  7  1  0
  4  3  1  0
  4  5  1  0
  5  2  1  0
  6  1  1  0
  6  2  2  0
  7 16  1  0
  7  5  1  0
  8 16  1  0
  9 14  1  0
 10 11  1  0
 10  9  1  0
 12 11  1  0
 12 21  1  0
 12 13  1  0
 14  8  1  0
 14 13  1  0
 15  8  2  0
 16 17  1  0
 18 19  2  0
 19 38  1  0
 20 19  1  0
 20 23  1  0
 21 22  1  0
 21 18  1  0
 22 20  2  0
 23 24  1  0
 24 25  2  0
 26 29  1  0
 26 25  1  0
 27 26  2  0
 28 27  1  0
 28 23  2  0
 29 30  1  0
 30 31  1  0
 31 32  2  0
 33 32  1  0
 33 37  1  0
 34 33  2  0
 35 30  2  0
 35 34  1  0
 36 35  1  0
 38 39  1  0
 39 42  1  0
 39 41  1  0
 40 38  2  0
 43 44  1  0
 43 18  1  0
 45 43  1  0
 48 46  1  6
 48  6  1  0
 48 47  1  0
 48 49  1  0
 50 52  1  0
 50 49  1  0
 51 62  2  0
 52 57  1  0
 53 61  1  0
 53 63  1  0
 54 60  1  0
 54 56  1  0
 55 61  1  0
 56 57  2  0
 56 55  1  0
 58 52  2  0
 59 58  1  0
 59 54  2  0
 60 53  1  0
 61 51  1  0
 63 65  2  0
 64 63  1  0
 66 64  1  0
 67 76  2  0
 67 72  1  0
 68 64  1  0
 68 72  1  0
 69 68  1  0
 70 71  1  0
 70 69  1  0
 71 67  1  0
 72 73  2  0
 73 74  1  0
 75 74  2  0
 76 75  1  0
 77 51  1  0
 77 78  1  0
 77 87  1  0
 78 81  1  0
 79 83  1  0
 79 78  1  0
 80 79  2  0
 83 82  1  0
 85 83  1  0
 85 86  1  0
 85 84  1  0
 87 90  1  1
 87 88  1  0
 89 87  1  0
M  ISO  4   8 100  16 100  49 101  50 101
M  END
>  <TORSDO>  (5) 
F 18

>  <SCORE>  (5) 
-15.638

>  <name>  (5) 
4

>  <ligand_id>  (5) 
4

>  <original_smiles>  (5) 
[H]c1c([H])c([H])c2c(c1[H])C([H])([H])C([H])([H])C([H])([H])C2([H])N([H])C(=O)C1([H])N(C(=O)C([H])(N([H])C(=O)C([H])(N([H])C([H])([H])[H])C([H])([H])[H])C(C([H])([H])[H])(C([H])([H])[H])C([H])([H])[H])C([H])([H])c2c([H])c(OC([H])([H])C(C([H])([H])[H])(C([H])([H])[H])C3([H])C([H])([H])C4([H])C([H])([H])C([H])(N([H])C(=O)N5C([H])([H])C([H])([H])C([H])([H])C([H])(n6nc(-c7c([H])c([H])c(Oc8c([H])c([H])c(F)c([H])c8F)c([H])c7[H])c(C(=O)N([H])[H])c6N([H])[H])C5([H])[H])C4([H])C3([H])[H])c([H])c([H])c2C1([H])[H]

>  <smiles>  (5) 
[H]c1c([H])c([H])c2c(c1[H])C([H])([H])C([H])([H])C([H])([H])C2([H])N([H])C(=O)C1([H])N(C(=O)C([H])(N([H])C(=O)C([H])(N([H])C([H])([H])[H])C([H])([H])[H])C(C([H])([H])[H])(C([H])([H])[H])C([H])([H])[H])C([H])([H])c2c([H])c(OC([H])([H])C(C([H])([H])[H])(C([H])([H])[H])C3([H])C([H])([H])C4([H])C([H])([H])C([H])(N([H])C(=O)N5C([H])([H])C([H])([H])C([H])([H])C([H])(n6nc(-c7c([H])c([H])c(Oc8c([H])c([H])c(F)c([H])c8F)c([H])c7[H])c(C(=O)N([H])[H])c6N([H])[H])C5([H])[H])C4([H])C3([H])[H])c([H])c([H])c2C1([H])[H]

$$$$
5:0:0
     RDKit          3D

 93102  0  0  1  0  0  0  0  0999 V2000
  -28.5220  -22.8240   21.7370 C   0  0  0  0  0  2  0  0  0  0  0  0
  -29.4340  -21.5560   20.2120 C   0  0  0  0  0  3  0  0  0  0  0  0
  -28.5640  -21.3240   21.4710 C   0  0  0  0  0  3  0  0  0  0  0  0
  -29.6490  -23.0760   20.7340 C   0  0  0  0  0  3  0  0  0  0  0  0
  -27.2300  -20.5890   21.3730 C   0  0  0  0  0  1  0  0  0  0  0  0
  -31.6210  -20.7250   18.9300 C   0  0  0  0  0  2  0  0  0  0  0  0
  -31.9680  -20.7520   20.4010 C   0  0  0  0  0  2  0  0  0  0  0  0
  -30.5490  -20.4450   19.9620 C   0  0  1  0  0  0  0  0  0  0  0  0
  -30.0370  -18.9380   20.0960 C   0  0  0  0  0  3  0  0  0  0  0  0
  -31.0750  -17.7200   19.9730 C   0  0  0  0  0  3  0  0  0  0  0  0
  -31.3250  -15.1610   20.0420 C   0  0  0  0  0  0  0  0  0  0  0  0
  -31.0420  -12.8660   19.1280 C   0  0  0  0  0  2  0  0  0  0  0  0
  -30.1010  -12.9350   17.9060 C   0  0  0  0  0  2  0  0  0  0  0  0
  -28.6320  -12.8110   18.3530 C   0  0  0  0  0  2  0  0  0  0  0  0
  -28.2860  -13.7550   19.5340 C   0  0  0  0  0  3  0  0  0  0  0  0
  -29.3510  -13.6870   20.6520 C   0  0  0  0  0  2  0  0  0  0  0  0
  -30.6560  -13.9620   20.0420 N   0  0  0  0  0  0  0  0  0  0  0  0
  -32.4960  -15.2300   19.6620 O   0  0  0  0  0  0  0  0  0  0  0  0
  -30.6030  -16.3100   20.2550 N   0  0  0  0  0  0  0  0  0  0  0  0
  -29.6380  -16.1940   20.5260 H   0  0  0  0  0  0  0  0  0  0  0  0
  -25.9360  -14.4240   20.3240 C   0  0  0  0  0  0  0  0  0  0  0  0
  -24.8480  -13.6840   20.7010 C   0  0  0  0  0  0  0  0  0  0  0  0
  -25.2580  -12.3170   20.6300 C   0  0  0  0  0  0  0  0  0  0  0  0
  -26.9410  -13.5100   20.0450 N   0  0  0  0  0  0  0  0  0  0  0  0
  -26.5390  -12.2360   20.2900 N   0  0  0  0  0  0  0  0  0  0  0  0
  -24.4850  -11.0800   20.8080 C   0  0  0  0  0  0  0  0  0  0  0  0
  -24.8280  -10.1310   21.7970 C   0  0  0  0  0  3  0  0  0  0  0  0
  -24.0620   -8.9570   21.9600 C   0  0  0  0  0  3  0  0  0  0  0  0
  -22.9350   -8.7260   21.1330 C   0  0  0  0  0  0  0  0  0  0  0  0
  -22.6110   -9.6630   20.1360 C   0  0  0  0  0  3  0  0  0  0  0  0
  -23.3800  -10.8280   19.9710 C   0  0  0  0  0  3  0  0  0  0  0  0
  -22.1440   -7.6040   21.2030 O   0  0  0  0  0  0  0  0  0  0  0  0
  -21.8850   -6.9810   22.3970 C   0  0  0  0  0  0  0  0  0  0  0  0
  -21.2540   -7.6490   23.4670 C   0  0  0  0  0  3  0  0  0  0  0  0
  -20.9440   -6.9500   24.6510 C   0  0  0  0  0  3  0  0  0  0  0  0
  -21.2560   -5.5810   24.7630 C   0  0  0  0  0  0  0  0  0  0  0  0
  -21.8790   -4.9110   23.6940 C   0  0  0  0  0  3  0  0  0  0  0  0
  -22.1910   -5.6090   22.5150 C   0  0  0  0  0  0  0  0  0  0  0  0
  -22.7720   -4.9530   21.4810 F   0  0  0  0  0  0  0  0  0  0  0  0
  -20.9540   -4.9060   25.8970 F   0  0  0  0  0  0  0  0  0  0  0  0
  -23.4770  -14.2100   21.0130 C   0  0  0  0  0  0  0  0  0  0  0  0
  -22.7420  -13.5330   21.8900 N   0  0  0  0  0  0  0  0  0  0  0  0
  -23.0660  -15.2560   20.5140 O   0  0  0  0  0  0  0  0  0  0  0  0
  -23.0870  -12.6880   22.3220 H   0  0  0  0  0  0  0  0  0  0  0  0
  -21.8230  -13.8690   22.1380 H   0  0  0  0  0  0  0  0  0  0  0  0
  -26.1490  -15.7920   20.1690 N   0  0  0  0  0  0  0  0  0  0  0  0
  -25.4010  -16.4670   20.2840 H   0  0  0  0  0  0  0  0  0  0  0  0
  -27.0000  -16.1990   19.8030 H   0  0  0  0  0  0  0  0  0  0  0  0
  -29.5060  -24.4530   19.9310 C   0  0  0  0  0  3  0  0  0  0  0  0
  -30.4650  -25.6350   17.8310 C   0  0  0  0  0  1  0  0  0  0  0  0
  -30.7110  -24.6640   18.9960 C   0  0  0  0  0  2  0  0  0  0  0  0
  -29.2380  -25.7210   20.8770 C   0  0  0  0  0  2  0  0  0  0  0  0
  -29.1870  -27.1100   20.3820 O   0  0  0  0  0  0  0  0  0  0  0  0
  -24.6450  -31.8700   23.3310 C   0  0  0  0  0  0  0  0  0  0  0  0
  -27.9640  -27.7790   20.3470 C   0  0  0  0  0  0  0  0  0  0  0  0
  -23.7240  -30.4220   21.5500 C   0  0  0  0  0  3  0  0  0  0  0  0
  -25.4380  -29.0920   20.1980 C   0  0  0  0  0  0  0  0  0  0  0  0
  -26.2120  -31.0310   21.5690 C   0  0  0  0  0  2  0  0  0  0  0  0
  -26.4950  -29.6970   20.8920 C   0  0  0  0  0  0  0  0  0  0  0  0
  -27.7640  -29.0550   20.9510 C   0  0  0  0  0  3  0  0  0  0  0  0
  -26.8860  -27.2040   19.6490 C   0  0  0  0  0  3  0  0  0  0  0  0
  -25.6350  -27.8510   19.5670 C   0  0  0  0  0  3  0  0  0  0  0  0
  -24.1130  -29.8260   20.1710 C   0  0  0  0  0  2  0  0  0  0  0  0
  -24.8730  -31.1250   22.2090 N   0  0  0  0  0  0  0  0  0  0  0  0
  -23.5020  -32.0050   23.7920 O   0  0  0  0  0  0  0  0  0  0  0  0
  -23.1110  -29.3010   22.4220 C   0  0  0  0  0  0  0  0  0  0  0  0
  -21.8200  -29.0000   22.2000 N   0  0  0  0  0  0  0  0  0  0  0  0
  -23.7970  -28.7070   23.2580 O   0  0  0  0  0  0  0  0  0  0  0  0
  -21.3230  -29.5370   21.5040 H   0  0  0  0  0  0  0  0  0  0  0  0
  -18.5400  -27.5040   22.4650 C   0  0  0  0  0  0  0  0  0  0  0  0
  -21.0540  -27.9510   22.8720 C   0  0  0  0  0  3  0  0  0  0  0  0
  -21.2990  -26.5730   22.2150 C   0  0  0  0  0  2  0  0  0  0  0  0
  -20.2730  -26.2290   21.1320 C   0  0  0  0  0  2  0  0  0  0  0  0
  -18.8570  -26.2200   21.7160 C   0  0  0  0  0  2  0  0  0  0  0  0
  -19.5710  -28.3240   22.9930 C   0  0  0  0  0  0  0  0  0  0  0  0
  -19.2220  -29.5250   23.6480 C   0  0  0  0  0  3  0  0  0  0  0  0
  -17.8730  -29.9070   23.7840 C   0  0  0  0  0  3  0  0  0  0  0  0
  -16.8560  -29.0820   23.2740 C   0  0  0  0  0  3  0  0  0  0  0  0
  -17.1890  -27.8830   22.6200 C   0  0  0  0  0  3  0  0  0  0  0  0
  -25.8040  -32.6060   24.0720 C   0  0  0  0  0  3  0  0  0  0  0  0
  -25.3640  -33.9850   24.3240 N   0  0  0  0  0  0  0  0  0  0  0  0
  -25.6850  -35.0390   23.5620 C   0  0  0  0  0  0  0  0  0  0  0  0
  -26.4520  -34.9590   22.5980 O   0  0  0  0  0  0  0  0  0  0  0  0
  -24.6940  -34.1160   25.0680 H   0  0  0  0  0  0  0  0  0  0  0  0
  -23.8600  -36.6760   23.0030 C   0  0  0  0  0  1  0  0  0  0  0  0
  -25.0570  -36.3980   23.9250 C   0  0  0  0  0  3  0  0  0  0  0  0
  -27.0410  -37.4820   24.8870 C   0  0  0  0  0  1  0  0  0  0  0  0
  -26.0120  -37.5260   23.8520 N   0  0  0  0  0  0  0  0  0  0  0  0
  -25.5270  -38.4160   23.9240 H   0  0  0  0  0  0  0  0  0  0  0  0
  -26.2270  -31.9010   25.4190 C   0  0  1  0  0  0  0  0  0  0  0  0
  -25.0370  -31.5890   26.3580 C   0  0  0  0  0  1  0  0  0  0  0  0
  -26.9620  -30.5710   25.1340 C   0  0  0  0  0  1  0  0  0  0  0  0
  -27.2230  -32.7990   26.1910 C   0  0  0  0  0  1  0  0  0  0  0  0
  8  2  1  1
  2  4  1  0
  2  3  1  0
  3  5  1  0
  3  1  1  0
  4 49  1  0
  4  1  1  0
  6  8  1  0
  6  7  1  0
  8  9  1  0
  8  7  1  0
 10  9  2  0
 10 19  1  0
 11 17  1  0
 11 19  1  0
 12 17  1  0
 13 14  1  0
 13 12  1  0
 15 14  1  0
 15 24  1  0
 15 16  1  0
 17 16  1  0
 18 11  2  0
 19 20  1  0
 21 22  2  0
 22 41  1  0
 23 22  1  0
 23 26  1  0
 24 25  1  0
 24 21  1  0
 25 23  2  0
 26 27  1  0
 27 28  2  0
 29 32  1  0
 29 28  1  0
 30 29  2  0
 31 30  1  0
 31 26  2  0
 32 33  1  0
 33 38  2  0
 33 34  1  0
 34 35  2  0
 35 36  1  0
 36 40  1  0
 37 36  2  0
 38 37  1  0
 39 38  1  0
 41 42  1  0
 42 45  1  0
 42 44  1  0
 43 41  2  0
 46 47  1  0
 46 21  1  0
 48 46  1  0
 49 51  1  0
 49 52  1  0
 50 51  1  0
 53 52  1  0
 54 65  2  0
 55 53  1  0
 55 60  1  0
 56 64  1  0
 56 66  1  0
 57 59  1  0
 58 64  1  0
 59 60  2  0
 59 58  1  0
 61 55  2  0
 62 61  1  0
 62 57  2  0
 63 57  1  0
 63 56  1  0
 64 54  1  0
 66 68  2  0
 67 66  1  0
 69 67  1  0
 70 79  2  0
 70 75  1  0
 71 67  1  0
 71 75  1  0
 72 71  1  0
 73 74  1  0
 73 72  1  0
 74 70  1  0
 75 76  2  0
 76 77  1  0
 78 77  2  0
 79 78  1  0
 80 54  1  0
 80 81  1  0
 80 90  1  0
 81 84  1  0
 82 86  1  0
 82 81  1  0
 83 82  2  0
 86 85  1  0
 88 89  1  0
 88 86  1  0
 88 87  1  0
 90 93  1  1
 90 91  1  0
 92 90  1  0
M  ISO  4  11 100  19 100  52 101  53 101
M  END
>  <TORSDO>  (6) 
F 22

>  <SCORE>  (6) 
-9.734

>  <name>  (6) 
5

>  <ligand_id>  (6) 
5

>  <original_smiles>  (6) 
[H]c1c([H])c([H])c2c(c1[H])C([H])([H])C([H])([H])C([H])([H])C2([H])N([H])C(=O)C1([H])N(C(=O)C([H])(N([H])C(=O)C([H])(N([H])C([H])([H])[H])C([H])([H])[H])C(C([H])([H])[H])(C([H])([H])[H])C([H])([H])[H])C([H])([H])c2c([H])c(OC([H])([H])C([H])(C([H])([H])C([H])([H])[H])C3([H])C([H])([H])C([H])(C([H])([H])[H])C3([H])C3(C([H])([H])C([H])([H])N([H])C(=O)N4C([H])([H])C([H])([H])C([H])([H])C([H])(n5nc(-c6c([H])c([H])c(Oc7c([H])c([H])c(F)c([H])c7F)c([H])c6[H])c(C(=O)N([H])[H])c5N([H])[H])C4([H])[H])C([H])([H])C3([H])[H])c([H])c([H])c2C1([H])[H]

>  <smiles>  (6) 
[H]c1c([H])c([H])c2c(c1[H])C([H])([H])C([H])([H])C([H])([H])C2([H])N([H])C(=O)C1([H])N(C(=O)C([H])(N([H])C(=O)C([H])(N([H])C([H])([H])[H])C([H])([H])[H])C(C([H])([H])[H])(C([H])([H])[H])C([H])([H])[H])C([H])([H])c2c([H])c(OC([H])([H])C([H])(C([H])([H])C([H])([H])[H])C3([H])C([H])([H])C([H])(C([H])([H])[H])C3([H])C3(C([H])([H])C([H])([H])N([H])C(=O)N4C([H])([H])C([H])([H])C([H])([H])C([H])(n5nc(-c6c([H])c([H])c(Oc7c([H])c([H])c(F)c([H])c7F)c([H])c6[H])c(C(=O)N([H])[H])c5N([H])[H])C4([H])[H])C([H])([H])C3([H])[H])c([H])c([H])c2C1([H])[H]

$$$$
6:0:0
     RDKit          3D

 90 99  0  0  1  0  0  0  0  0999 V2000
  -27.6820  -23.0850   22.7180 C   0  0  0  0  0  2  0  0  0  0  0  0
  -28.8450  -24.1080   22.7130 C   0  0  0  0  0  2  0  0  0  0  0  0
  -29.5700  -23.5980   20.1310 C   0  0  0  0  0  2  0  0  0  0  0  0
  -28.0020  -22.8480   21.2440 C   0  0  0  0  0  3  0  0  0  0  0  0
  -29.3230  -22.1900   20.7440 C   0  0  0  0  0  3  0  0  0  0  0  0
  -28.6290  -24.2730   21.1750 C   0  0  1  0  0  0  0  0  0  0  0  0
  -29.2600  -20.8940   19.8880 C   0  0  0  0  0  2  0  0  0  0  0  0
  -29.8710  -19.6370   20.5460 C   0  0  0  0  0  3  0  0  0  0  0  0
  -30.0920  -18.4230   19.9660 C   0  0  0  0  0  3  0  0  0  0  0  0
  -30.7900  -17.2220   20.6520 C   0  0  0  0  0  2  0  0  0  0  0  0
  -30.8980  -14.7680   20.0090 C   0  0  0  0  0  0  0  0  0  0  0  0
  -30.5800  -12.5500   18.9630 C   0  0  0  0  0  2  0  0  0  0  0  0
  -29.6020  -12.6820   17.7770 C   0  0  0  0  0  2  0  0  0  0  0  0
  -28.1490  -12.5230   18.2690 C   0  0  0  0  0  2  0  0  0  0  0  0
  -27.8320  -13.4070   19.5060 C   0  0  0  0  0  3  0  0  0  0  0  0
  -28.9290  -13.2880   20.5880 C   0  0  0  0  0  2  0  0  0  0  0  0
  -30.2220  -13.5850   19.9520 N   0  0  0  0  0  0  0  0  0  0  0  0
  -32.0340  -14.8780   19.5510 O   0  0  0  0  0  0  0  0  0  0  0  0
  -30.2220  -15.8570   20.4540 N   0  0  0  0  0  0  0  0  0  0  0  0
  -29.2860  -15.7050   20.7980 H   0  0  0  0  0  0  0  0  0  0  0  0
  -25.4690  -14.0020   20.3190 C   0  0  0  0  0  0  0  0  0  0  0  0
  -24.4170  -13.2290   20.7220 C   0  0  0  0  0  0  0  0  0  0  0  0
  -24.8770  -11.8750   20.6660 C   0  0  0  0  0  0  0  0  0  0  0  0
  -26.5030  -13.1250   20.0440 N   0  0  0  0  0  0  0  0  0  0  0  0
  -26.1550  -11.8400   20.3110 N   0  0  0  0  0  0  0  0  0  0  0  0
  -24.1610  -10.6130   20.8810 C   0  0  0  0  0  0  0  0  0  0  0  0
  -24.5820   -9.6730   21.8500 C   0  0  0  0  0  3  0  0  0  0  0  0
  -23.8600   -8.4750   22.0490 C   0  0  0  0  0  3  0  0  0  0  0  0
  -22.7050   -8.2030   21.2780 C   0  0  0  0  0  0  0  0  0  0  0  0
  -22.3070   -9.1290   20.2920 C   0  0  0  0  0  3  0  0  0  0  0  0
  -23.0290  -10.3170   20.0940 C   0  0  0  0  0  3  0  0  0  0  0  0
  -21.9620   -7.0550   21.3790 O   0  0  0  0  0  0  0  0  0  0  0  0
  -21.8420   -6.3760   22.5670 C   0  0  0  0  0  0  0  0  0  0  0  0
  -21.2760   -6.9780   23.7130 C   0  0  0  0  0  3  0  0  0  0  0  0
  -21.1090   -6.2230   24.8930 C   0  0  0  0  0  3  0  0  0  0  0  0
  -21.5010   -4.8710   24.9250 C   0  0  0  0  0  0  0  0  0  0  0  0
  -22.0570   -4.2720   23.7840 C   0  0  0  0  0  3  0  0  0  0  0  0
  -22.2270   -5.0210   22.6090 C   0  0  0  0  0  0  0  0  0  0  0  0
  -22.7460   -4.4310   21.5020 F   0  0  0  0  0  0  0  0  0  0  0  0
  -21.3330   -4.1450   26.0560 F   0  0  0  0  0  0  0  0  0  0  0  0
  -23.0290  -13.6980   21.0490 C   0  0  0  0  0  0  0  0  0  0  0  0
  -22.3320  -12.9960   21.9280 N   0  0  0  0  0  0  0  0  0  0  0  0
  -22.5770  -14.7350   20.5560 O   0  0  0  0  0  0  0  0  0  0  0  0
  -22.7070  -12.1540   22.3460 H   0  0  0  0  0  0  0  0  0  0  0  0
  -21.4010  -13.2970   22.1910 H   0  0  0  0  0  0  0  0  0  0  0  0
  -25.6270  -15.3740   20.1430 N   0  0  0  0  0  0  0  0  0  0  0  0
  -24.8790  -16.0360   20.3100 H   0  0  0  0  0  0  0  0  0  0  0  0
  -26.4730  -15.8170   19.8010 H   0  0  0  0  0  0  0  0  0  0  0  0
  -27.7330  -25.4750   20.7470 C   0  0  0  0  0  2  0  0  0  0  0  0
  -28.3090  -26.6380   20.0610 O   0  0  0  0  0  0  0  0  0  0  0  0
  -24.6990  -31.8600   23.1790 C   0  0  0  0  0  0  0  0  0  0  0  0
  -27.3100  -27.5740   19.8780 C   0  0  0  0  0  0  0  0  0  0  0  0
  -23.5080  -30.5620   21.4400 C   0  0  0  0  0  3  0  0  0  0  0  0
  -24.9720  -29.1460   19.9090 C   0  0  0  0  0  0  0  0  0  0  0  0
  -26.0380  -30.9240   21.2920 C   0  0  0  0  0  2  0  0  0  0  0  0
  -26.1250  -29.6040   20.5600 C   0  0  0  0  0  0  0  0  0  0  0  0
  -27.3060  -28.8200   20.5500 C   0  0  0  0  0  3  0  0  0  0  0  0
  -26.1770  -27.2020   19.1250 C   0  0  0  0  0  3  0  0  0  0  0  0
  -25.0030  -27.9600   19.1650 C   0  0  0  0  0  3  0  0  0  0  0  0
  -23.7310  -29.9960   20.0130 C   0  0  0  0  0  2  0  0  0  0  0  0
  -24.7670  -31.1250   22.0330 N   0  0  0  0  0  0  0  0  0  0  0  0
  -23.6130  -32.0940   23.7330 O   0  0  0  0  0  0  0  0  0  0  0  0
  -22.8590  -29.4680   22.3200 C   0  0  0  0  0  0  0  0  0  0  0  0
  -21.5320  -29.2930   22.1920 N   0  0  0  0  0  0  0  0  0  0  0  0
  -23.5390  -28.7890   23.0940 O   0  0  0  0  0  0  0  0  0  0  0  0
  -21.0400  -29.8750   21.5290 H   0  0  0  0  0  0  0  0  0  0  0  0
  -18.1370  -28.1530   22.6940 C   0  0  0  0  0  0  0  0  0  0  0  0
  -20.7120  -28.3250   22.9230 C   0  0  0  0  0  3  0  0  0  0  0  0
  -20.7370  -26.9220   22.2670 C   0  0  0  0  0  2  0  0  0  0  0  0
  -19.6300  -26.7590   21.2160 C   0  0  0  0  0  2  0  0  0  0  0  0
  -18.2620  -26.8540   21.9030 C   0  0  0  0  0  2  0  0  0  0  0  0
  -19.2860  -28.8530   23.1520 C   0  0  0  0  0  0  0  0  0  0  0  0
  -19.1190  -30.0730   23.8340 C   0  0  0  0  0  3  0  0  0  0  0  0
  -17.8380  -30.6010   24.0780 C   0  0  0  0  0  3  0  0  0  0  0  0
  -16.7000  -29.8990   23.6390 C   0  0  0  0  0  3  0  0  0  0  0  0
  -16.8530  -28.6760   22.9530 C   0  0  0  0  0  3  0  0  0  0  0  0
  -25.9780  -32.4510   23.8460 C   0  0  0  0  0  3  0  0  0  0  0  0
  -26.4710  -31.6240   25.0980 C   0  0  1  0  0  0  0  0  0  0  0  0
  -25.3600  -31.3510   26.1360 C   0  0  0  0  0  1  0  0  0  0  0  0
  -27.0540  -30.2610   24.6580 C   0  0  0  0  0  1  0  0  0  0  0  0
  -27.6110  -32.3830   25.8150 C   0  0  0  0  0  1  0  0  0  0  0  0
  -25.6760  -33.8380   24.2240 N   0  0  0  0  0  0  0  0  0  0  0  0
  -26.0220  -34.9160   23.5040 C   0  0  0  0  0  0  0  0  0  0  0  0
  -26.6950  -34.8470   22.4730 O   0  0  0  0  0  0  0  0  0  0  0  0
  -25.0740  -33.9650   25.0240 H   0  0  0  0  0  0  0  0  0  0  0  0
  -24.3000  -36.7340   23.2030 C   0  0  0  0  0  1  0  0  0  0  0  0
  -25.5350  -36.2900   24.0070 C   0  0  0  0  0  3  0  0  0  0  0  0
  -27.6640  -37.1410   24.8870 C   0  0  0  0  0  1  0  0  0  0  0  0
  -26.5740  -37.3410   23.9360 N   0  0  0  0  0  0  0  0  0  0  0  0
  -26.1710  -38.2600   24.1010 H   0  0  0  0  0  0  0  0  0  0  0  0
  2  1  1  0
  3  5  1  0
  3  6  1  0
  4  1  1  0
  5  7  1  0
  5  4  1  0
  6 49  1  1
  6  4  1  0
  6  2  1  0
  7  8  1  0
  9  8  2  0
  9 10  1  0
 11 19  1  0
 12 17  1  0
 13 14  1  0
 13 12  1  0
 15 14  1  0
 15 24  1  0
 15 16  1  0
 17 11  1  0
 17 16  1  0
 18 11  2  0
 19 10  1  0
 19 20  1  0
 21 22  2  0
 22 41  1  0
 23 22  1  0
 23 26  1  0
 24 25  1  0
 24 21  1  0
 25 23  2  0
 26 27  1  0
 27 28  2  0
 29 32  1  0
 29 28  1  0
 30 29  2  0
 31 30  1  0
 31 26  2  0
 32 33  1  0
 33 38  2  0
 33 34  1  0
 34 35  2  0
 35 36  1  0
 36 40  1  0
 37 36  2  0
 38 37  1  0
 39 38  1  0
 41 42  1  0
 42 45  1  0
 42 44  1  0
 43 41  2  0
 46 47  1  0
 46 21  1  0
 48 46  1  0
 50 49  1  0
 51 62  2  0
 52 50  1  0
 52 57  1  0
 53 61  1  0
 53 63  1  0
 54 60  1  0
 54 56  1  0
 55 61  1  0
 56 55  1  0
 57 56  2  0
 58 59  1  0
 58 52  2  0
 59 54  2  0
 60 53  1  0
 61 51  1  0
 63 65  2  0
 64 63  1  0
 66 64  1  0
 67 76  2  0
 67 72  1  0
 68 64  1  0
 68 72  1  0
 69 68  1  0
 70 71  1  0
 70 69  1  0
 71 67  1  0
 72 73  2  0
 73 74  1  0
 75 74  2  0
 76 75  1  0
 77 51  1  0
 77 82  1  0
 77 78  1  0
 78 81  1  1
 78 79  1  0
 80 78  1  0
 82 85  1  0
 83 87  1  0
 83 82  1  0
 84 83  2  0
 87 86  1  0
 89 87  1  0
 89 90  1  0
 89 88  1  0
M  ISO  4  11 100  19 100  49 101  50 101
M  END
>  <TORSDO>  (7) 
F 20

>  <SCORE>  (7) 
-12.331

>  <name>  (7) 
6

>  <ligand_id>  (7) 
6

>  <original_smiles>  (7) 
[H]C(=C([H])C([H])([H])C1([H])C([H])([H])C2(C([H])([H])Oc3c([H])c([H])c4c(c3[H])C([H])([H])N(C(=O)C([H])(N([H])C(=O)C([H])(N([H])C([H])([H])[H])C([H])([H])[H])C(C([H])([H])[H])(C([H])([H])[H])C([H])([H])[H])C([H])(C(=O)N([H])C3([H])c5c([H])c([H])c([H])c([H])c5C([H])([H])C([H])([H])C3([H])[H])C4([H])[H])C([H])([H])C([H])([H])C12[H])C([H])([H])N([H])C(=O)N1C([H])([H])C([H])([H])C([H])([H])C([H])(n2nc(-c3c([H])c([H])c(Oc4c([H])c([H])c(F)c([H])c4F)c([H])c3[H])c(C(=O)N([H])[H])c2N([H])[H])C1([H])[H]

>  <smiles>  (7) 
[H]C(=C([H])C([H])([H])C1([H])C([H])([H])C2(C([H])([H])Oc3c([H])c([H])c4c(c3[H])C([H])([H])N(C(=O)C([H])(N([H])C(=O)C([H])(N([H])C([H])([H])[H])C([H])([H])[H])C(C([H])([H])[H])(C([H])([H])[H])C([H])([H])[H])C([H])(C(=O)N([H])C3([H])c5c([H])c([H])c([H])c([H])c5C([H])([H])C([H])([H])C3([H])[H])C4([H])[H])C([H])([H])C([H])([H])C12[H])C([H])([H])N([H])C(=O)N1C([H])([H])C([H])([H])C([H])([H])C([H])(n2nc(-c3c([H])c([H])c(Oc4c([H])c([H])c(F)c([H])c4F)c([H])c3[H])c(C(=O)N([H])[H])c2N([H])[H])C1([H])[H]

$$$$
7:0:0
     RDKit          3D

 94102  0  0  1  0  0  0  0  0999 V2000
  -31.8200  -22.6830   21.1640 C   0  0  0  0  0  1  0  0  0  0  0  0
  -31.1620  -22.7570   19.7690 C   0  0  0  0  0  3  0  0  0  0  0  0
  -29.7810  -23.3040   19.8420 N   0  0  0  0  0  4  0  0  0  0  0  0
  -29.3670  -23.1740   18.9310 H   0  0  0  0  0  0  0  0  0  0  0  0
  -29.2350  -22.7650   20.4970 H   0  0  0  0  0  0  0  0  0  0  0  0
  -29.7020  -24.7560   20.1700 C   0  0  0  0  0  2  0  0  0  0  0  0
  -28.3260  -25.3750   19.8590 C   0  0  0  0  0  2  0  0  0  0  0  0
  -28.3600  -26.7730   20.1670 O   0  0  0  0  0  0  0  0  0  0  0  0
  -24.5820  -31.9330   23.2660 C   0  0  0  0  0  0  0  0  0  0  0  0
  -27.1720  -27.4750   20.1610 C   0  0  0  0  0  0  0  0  0  0  0  0
  -23.3530  -30.5420   21.6320 C   0  0  0  0  0  3  0  0  0  0  0  0
  -24.7820  -28.9940   20.1980 C   0  0  0  0  0  0  0  0  0  0  0  0
  -25.8800  -30.8820   21.4160 C   0  0  0  0  0  2  0  0  0  0  0  0
  -25.9480  -29.5110   20.7750 C   0  0  0  0  0  0  0  0  0  0  0  0
  -27.1440  -28.7590   20.7520 C   0  0  0  0  0  3  0  0  0  0  0  0
  -25.9820  -26.9690   19.5840 C   0  0  0  0  0  3  0  0  0  0  0  0
  -24.7940  -27.7220   19.6020 C   0  0  0  0  0  3  0  0  0  0  0  0
  -23.5460  -29.8620   20.2510 C   0  0  0  0  0  2  0  0  0  0  0  0
  -24.6240  -31.1340   22.1630 N   0  0  0  0  0  0  0  0  0  0  0  0
  -23.5070  -32.2140   23.8140 O   0  0  0  0  0  0  0  0  0  0  0  0
  -22.7010  -29.5250   22.5960 C   0  0  0  0  0  0  0  0  0  0  0  0
  -21.3760  -29.3470   22.4710 N   0  0  0  0  0  0  0  0  0  0  0  0
  -23.3840  -28.8990   23.4110 O   0  0  0  0  0  0  0  0  0  0  0  0
  -20.8870  -29.9030   21.7830 H   0  0  0  0  0  0  0  0  0  0  0  0
  -17.9990  -28.1610   22.9650 C   0  0  0  0  0  0  0  0  0  0  0  0
  -20.5560  -28.4150   23.2440 C   0  0  0  0  0  3  0  0  0  0  0  0
  -20.6590  -26.9800   22.6760 C   0  0  0  0  0  2  0  0  0  0  0  0
  -19.5600  -26.6530   21.6610 C   0  0  0  0  0  2  0  0  0  0  0  0
  -18.1760  -26.8060   22.2990 C   0  0  0  0  0  2  0  0  0  0  0  0
  -19.1180  -28.9220   23.3940 C   0  0  0  0  0  0  0  0  0  0  0  0
  -18.9000  -30.1910   23.9750 C   0  0  0  0  0  3  0  0  0  0  0  0
  -17.5960  -30.6960   24.1310 C   0  0  0  0  0  3  0  0  0  0  0  0
  -16.4910  -29.9310   23.7180 C   0  0  0  0  0  3  0  0  0  0  0  0
  -16.6940  -28.6650   23.1410 C   0  0  0  0  0  3  0  0  0  0  0  0
  -25.8790  -32.5530   23.8760 C   0  0  0  0  0  3  0  0  0  0  0  0
  -25.5870  -33.9540   24.2020 N   0  0  0  0  0  0  0  0  0  0  0  0
  -25.9250  -34.9990   23.4340 C   0  0  0  0  0  0  0  0  0  0  0  0
  -26.5860  -34.8840   22.3990 O   0  0  0  0  0  0  0  0  0  0  0  0
  -25.0000  -34.1190   25.0060 H   0  0  0  0  0  0  0  0  0  0  0  0
  -24.2100  -36.8040   23.0830 C   0  0  0  0  0  1  0  0  0  0  0  0
  -25.4530  -36.3950   23.8880 C   0  0  0  0  0  3  0  0  0  0  0  0
  -27.6030  -37.2620   24.6950 C   0  0  0  0  0  1  0  0  0  0  0  0
  -26.4950  -37.4370   23.7600 N   0  0  0  0  0  0  0  0  0  0  0  0
  -26.0990  -38.3610   23.9070 H   0  0  0  0  0  0  0  0  0  0  0  0
  -26.3970  -31.7780   25.1500 C   0  0  1  0  0  0  0  0  0  0  0  0
  -25.3090  -31.5540   26.2260 C   0  0  0  0  0  1  0  0  0  0  0  0
  -26.9640  -30.3950   24.7550 C   0  0  0  0  0  1  0  0  0  0  0  0
  -27.5600  -32.5630   25.8020 C   0  0  0  0  0  1  0  0  0  0  0  0
  -31.2180  -21.4180   18.9770 C   0  0  0  0  0  2  0  0  0  0  0  0
  -32.2780  -19.5040   20.2680 C   0  0  0  0  0  3  0  0  0  0  0  0
  -29.8620  -19.4790   19.9740 C   0  0  0  0  0  3  0  0  0  0  0  0
  -32.2090  -18.2770   20.9570 C   0  0  0  0  0  3  0  0  0  0  0  0
  -29.7940  -18.2440   20.6570 C   0  0  0  0  0  3  0  0  0  0  0  0
  -31.1070  -20.1190   19.7770 C   0  0  0  0  0  0  0  0  0  0  0  0
  -30.9700  -17.6360   21.1550 C   0  0  0  0  0  0  0  0  0  0  0  0
  -30.9230  -16.3300   21.9420 C   0  0  0  0  0  2  0  0  0  0  0  0
  -30.6490  -14.4390   20.3360 C   0  0  0  0  0  0  0  0  0  0  0  0
  -30.2230  -12.4080   18.9940 C   0  0  0  0  0  2  0  0  0  0  0  0
  -29.2290  -12.6920   17.8520 C   0  0  0  0  0  2  0  0  0  0  0  0
  -27.7760  -12.5380   18.3420 C   0  0  0  0  0  2  0  0  0  0  0  0
  -27.5080  -13.3090   19.6620 C   0  0  0  0  0  3  0  0  0  0  0  0
  -28.6030  -13.0030   20.7060 C   0  0  0  0  0  2  0  0  0  0  0  0
  -29.9120  -13.3190   20.1060 N   0  0  0  0  0  0  0  0  0  0  0  0
  -31.6810  -14.7080   19.7140 O   0  0  0  0  0  0  0  0  0  0  0  0
  -30.1900  -15.2320   21.3140 N   0  0  0  0  0  0  0  0  0  0  0  0
  -29.3310  -14.9460   21.7570 H   0  0  0  0  0  0  0  0  0  0  0  0
  -25.1300  -13.9030   20.4500 C   0  0  0  0  0  0  0  0  0  0  0  0
  -24.0790  -13.1230   20.8510 C   0  0  0  0  0  0  0  0  0  0  0  0
  -24.5450  -11.7750   20.8000 C   0  0  0  0  0  0  0  0  0  0  0  0
  -26.1710  -13.0280   20.1830 N   0  0  0  0  0  0  0  0  0  0  0  0
  -25.8240  -11.7430   20.4470 N   0  0  0  0  0  0  0  0  0  0  0  0
  -23.8330  -10.5080   21.0100 C   0  0  0  0  0  0  0  0  0  0  0  0
  -24.3030   -9.5370   21.9220 C   0  0  0  0  0  3  0  0  0  0  0  0
  -23.5910   -8.3350   22.1190 C   0  0  0  0  0  3  0  0  0  0  0  0
  -22.3940   -8.0940   21.4040 C   0  0  0  0  0  0  0  0  0  0  0  0
  -21.9430   -9.0540   20.4800 C   0  0  0  0  0  3  0  0  0  0  0  0
  -22.6550  -10.2470   20.2810 C   0  0  0  0  0  3  0  0  0  0  0  0
  -21.6480   -6.9440   21.5110 O   0  0  0  0  0  0  0  0  0  0  0  0
  -21.6500   -6.1900   22.6560 C   0  0  0  0  0  0  0  0  0  0  0  0
  -21.2800   -6.7320   23.9060 C   0  0  0  0  0  3  0  0  0  0  0  0
  -21.2300   -5.9050   25.0460 C   0  0  0  0  0  3  0  0  0  0  0  0
  -21.5380   -4.5360   24.9370 C   0  0  0  0  0  0  0  0  0  0  0  0
  -21.9010   -3.9920   23.6910 C   0  0  0  0  0  3  0  0  0  0  0  0
  -21.9540   -4.8180   22.5540 C   0  0  0  0  0  0  0  0  0  0  0  0
  -22.2840   -4.2850   21.3530 F   0  0  0  0  0  0  0  0  0  0  0  0
  -21.4820   -3.7380   26.0290 F   0  0  0  0  0  0  0  0  0  0  0  0
  -22.6890  -13.5920   21.1750 C   0  0  0  0  0  0  0  0  0  0  0  0
  -21.9950  -12.8870   22.0630 N   0  0  0  0  0  0  0  0  0  0  0  0
  -22.2280  -14.6180   20.6770 O   0  0  0  0  0  0  0  0  0  0  0  0
  -22.3810  -12.0570   22.4880 H   0  0  0  0  0  0  0  0  0  0  0  0
  -21.0640  -13.1830   22.3200 H   0  0  0  0  0  0  0  0  0  0  0  0
  -25.2830  -15.2750   20.2730 N   0  0  0  0  0  0  0  0  0  0  0  0
  -24.5200  -15.9290   20.4120 H   0  0  0  0  0  0  0  0  0  0  0  0
  -26.1260  -15.7170   19.9260 H   0  0  0  0  0  0  0  0  0  0  0  0
  2  3  1  0
  2  1  1  0
  3  6  1  0
  3  5  1  0
  4  3  1  0
  7  8  1  0
  7  6  1  0
  9 20  2  0
 10  8  1  0
 10 15  1  0
 11 19  1  0
 11 21  1  0
 12 18  1  0
 12 14  1  0
 13 19  1  0
 14 13  1  0
 15 14  2  0
 16 17  1  0
 16 10  2  0
 17 12  2  0
 18 11  1  0
 19  9  1  0
 21 23  2  0
 22 21  1  0
 24 22  1  0
 25 34  2  0
 25 30  1  0
 26 22  1  0
 26 30  1  0
 27 26  1  0
 28 29  1  0
 28 27  1  0
 29 25  1  0
 30 31  2  0
 31 32  1  0
 33 32  2  0
 34 33  1  0
 35  9  1  0
 35 36  1  0
 35 45  1  0
 36 39  1  0
 37 41  1  0
 37 36  1  0
 38 37  2  0
 41 40  1  0
 43 41  1  0
 43 44  1  0
 43 42  1  0
 45 48  1  1
 45 46  1  0
 47 45  1  0
 49  2  1  0
 49 54  1  0
 50 52  1  0
 51 53  2  0
 52 55  2  0
 53 55  1  0
 54 51  1  0
 54 50  2  0
 55 56  1  0
 57 65  1  0
 58 63  1  0
 59 60  1  0
 59 58  1  0
 61 60  1  0
 61 70  1  0
 61 62  1  0
 63 57  1  0
 63 62  1  0
 64 57  2  0
 65 66  1  0
 65 56  1  0
 67 68  2  0
 68 87  1  0
 69 68  1  0
 69 72  1  0
 70 71  1  0
 70 67  1  0
 71 69  2  0
 72 73  1  0
 73 74  2  0
 75 78  1  0
 75 74  1  0
 76 75  2  0
 77 76  1  0
 77 72  2  0
 78 79  1  0
 79 80  1  0
 80 81  2  0
 82 81  1  0
 82 86  1  0
 83 82  2  0
 84 79  2  0
 84 83  1  0
 85 84  1  0
 87 88  1  0
 88 91  1  0
 88 90  1  0
 89 87  2  0
 92 93  1  0
 92 67  1  0
 94 92  1  0
M  ISO  4   7 101   8 101  57 100  65 100
M  END
>  <TORSDO>  (8) 
F 22

>  <SCORE>  (8) 
-13.053

>  <name>  (8) 
7

>  <ligand_id>  (8) 
7

>  <original_smiles>  (8) 
[H]c1c([H])c([H])c2c(c1[H])C([H])([H])C([H])([H])C([H])([H])C2([H])N([H])C(=O)C1([H])N(C(=O)C([H])(N([H])C(=O)C([H])(N([H])C([H])([H])[H])C([H])([H])[H])C(C([H])([H])[H])(C([H])([H])[H])C([H])([H])[H])C([H])([H])c2c([H])c(OC([H])([H])C([H])([H])[N+]([H])([H])C([H])(C([H])([H])[H])C([H])([H])c3c([H])c([H])c(C([H])([H])N([H])C(=O)N4C([H])([H])C([H])([H])C([H])([H])C([H])(n5nc(-c6c([H])c([H])c(Oc7c([H])c([H])c(F)c([H])c7F)c([H])c6[H])c(C(=O)N([H])[H])c5N([H])[H])C4([H])[H])c([H])c3[H])c([H])c([H])c2C1([H])[H]

>  <smiles>  (8) 
[H]c1c([H])c([H])c2c(c1[H])C([H])([H])C([H])([H])C([H])([H])C2([H])N([H])C(=O)C1([H])N(C(=O)C([H])(N([H])C(=O)C([H])(N([H])C([H])([H])[H])C([H])([H])[H])C(C([H])([H])[H])(C([H])([H])[H])C([H])([H])[H])C([H])([H])c2c([H])c(OC([H])([H])C([H])([H])[N+]([H])([H])C([H])(C([H])([H])[H])C([H])([H])c3c([H])c([H])c(C([H])([H])N([H])C(=O)N4C([H])([H])C([H])([H])C([H])([H])C([H])(n5nc(-c6c([H])c([H])c(Oc7c([H])c([H])c(F)c([H])c7F)c([H])c6[H])c(C(=O)N([H])[H])c5N([H])[H])C4([H])[H])c([H])c3[H])c([H])c([H])c2C1([H])[H]

$$$$
8:0:0
     RDKit          3D

 91100  0  0  1  0  0  0  0  0999 V2000
  -27.6330  -23.6600   21.0820 C   0  0  0  0  0  2  0  0  0  0  0  0
  -29.2920  -22.9040   19.4220 C   0  0  0  0  0  2  0  0  0  0  0  0
  -29.0170  -21.6150   22.0700 C   0  0  0  0  0  2  0  0  0  0  0  0
  -27.8480  -22.1530   21.2340 C   0  0  0  0  0  3  0  0  0  0  0  0
  -28.8120  -24.1700   20.2230 C   0  0  0  0  0  3  0  0  0  0  0  0
  -28.6260  -21.6440   20.0410 C   0  0  0  0  0  3  0  0  0  0  0  0
  -29.4390  -20.7730   20.9400 N   0  0  2  0  0  4  0  0  0  0  0  0
  -30.4330  -20.8630   20.7870 H   0  0  0  0  0  0  0  0  0  0  0  0
  -28.5320  -25.4580   19.3700 C   0  0  0  0  0  2  0  0  0  0  0  0
  -28.3690  -26.6980   20.1150 O   0  0  0  0  0  0  0  0  0  0  0  0
  -24.5890  -31.9200   23.2250 C   0  0  0  0  0  0  0  0  0  0  0  0
  -27.1860  -27.4340   20.0980 C   0  0  0  0  0  0  0  0  0  0  0  0
  -23.3660  -30.5320   21.5870 C   0  0  0  0  0  3  0  0  0  0  0  0
  -24.8000  -28.9920   20.1430 C   0  0  0  0  0  0  0  0  0  0  0  0
  -25.8980  -30.8650   21.3780 C   0  0  0  0  0  2  0  0  0  0  0  0
  -25.9700  -29.4950   20.7250 C   0  0  0  0  0  0  0  0  0  0  0  0
  -27.1610  -28.7250   20.6960 C   0  0  0  0  0  3  0  0  0  0  0  0
  -25.9820  -26.9520   19.5330 C   0  0  0  0  0  3  0  0  0  0  0  0
  -24.8040  -27.7220   19.5480 C   0  0  0  0  0  3  0  0  0  0  0  0
  -23.5640  -29.8610   20.2030 C   0  0  0  0  0  2  0  0  0  0  0  0
  -24.6370  -31.1220   22.1210 N   0  0  0  0  0  0  0  0  0  0  0  0
  -23.5110  -32.1950   23.7730 O   0  0  0  0  0  0  0  0  0  0  0  0
  -22.7170  -29.5080   22.5480 C   0  0  0  0  0  0  0  0  0  0  0  0
  -21.3920  -29.3250   22.4220 N   0  0  0  0  0  0  0  0  0  0  0  0
  -23.4010  -28.8830   23.3620 O   0  0  0  0  0  0  0  0  0  0  0  0
  -20.9000  -29.8810   21.7360 H   0  0  0  0  0  0  0  0  0  0  0  0
  -18.0230  -28.1040   22.9050 C   0  0  0  0  0  0  0  0  0  0  0  0
  -20.5770  -28.3830   23.1910 C   0  0  0  0  0  3  0  0  0  0  0  0
  -20.6940  -26.9500   22.6200 C   0  0  0  0  0  2  0  0  0  0  0  0
  -19.6000  -26.6150   21.6010 C   0  0  0  0  0  2  0  0  0  0  0  0
  -18.2130  -26.7530   22.2360 C   0  0  0  0  0  2  0  0  0  0  0  0
  -19.1340  -28.8770   23.3380 C   0  0  0  0  0  0  0  0  0  0  0  0
  -18.9020  -30.1410   23.9220 C   0  0  0  0  0  3  0  0  0  0  0  0
  -17.5930  -30.6340   24.0770 C   0  0  0  0  0  3  0  0  0  0  0  0
  -16.4970  -29.8590   23.6610 C   0  0  0  0  0  3  0  0  0  0  0  0
  -16.7130  -28.5960   23.0800 C   0  0  0  0  0  3  0  0  0  0  0  0
  -25.8790  -32.5460   23.8400 C   0  0  0  0  0  3  0  0  0  0  0  0
  -26.4020  -31.7690   25.1110 C   0  0  1  0  0  0  0  0  0  0  0  0
  -25.3150  -31.5330   26.1860 C   0  0  0  0  0  1  0  0  0  0  0  0
  -26.9780  -30.3910   24.7100 C   0  0  0  0  0  1  0  0  0  0  0  0
  -27.5600  -32.5580   25.7670 C   0  0  0  0  0  1  0  0  0  0  0  0
  -25.5780  -33.9440   24.1750 N   0  0  0  0  0  0  0  0  0  0  0  0
  -25.9130  -34.9980   23.4190 C   0  0  0  0  0  0  0  0  0  0  0  0
  -26.5790  -34.8940   22.3850 O   0  0  0  0  0  0  0  0  0  0  0  0
  -24.9900  -34.0990   24.9810 H   0  0  0  0  0  0  0  0  0  0  0  0
  -24.1910  -36.7980   23.0740 C   0  0  0  0  0  1  0  0  0  0  0  0
  -25.4320  -36.3870   23.8810 C   0  0  0  0  0  3  0  0  0  0  0  0
  -27.5740  -37.2570   24.7100 C   0  0  0  0  0  1  0  0  0  0  0  0
  -26.4690  -37.4350   23.7700 N   0  0  0  0  0  0  0  0  0  0  0  0
  -26.0680  -38.3560   23.9240 H   0  0  0  0  0  0  0  0  0  0  0  0
  -29.0520  -19.3200   21.1110 C   0  0  0  0  0  2  0  0  0  0  0  0
  -29.7980  -18.2350   20.2430 C   0  0  0  0  0  2  0  0  0  0  0  0
  -30.4800  -17.0460   21.0280 C   0  0  0  0  0  2  0  0  0  0  0  0
  -30.7470  -14.6150   20.2590 C   0  0  0  0  0  0  0  0  0  0  0  0
  -30.4560  -12.4230   19.1430 C   0  0  0  0  0  2  0  0  0  0  0  0
  -29.4920  -12.5920   17.9490 C   0  0  0  0  0  2  0  0  0  0  0  0
  -28.0260  -12.4550   18.4050 C   0  0  0  0  0  2  0  0  0  0  0  0
  -27.7040  -13.3110   19.6590 C   0  0  0  0  0  3  0  0  0  0  0  0
  -28.7770  -13.1150   20.7520 C   0  0  0  0  0  2  0  0  0  0  0  0
  -30.0830  -13.4270   20.1540 N   0  0  0  0  0  0  0  0  0  0  0  0
  -31.8930  -14.7700   19.8320 O   0  0  0  0  0  0  0  0  0  0  0  0
  -30.0190  -15.6640   20.7230 N   0  0  0  0  0  0  0  0  0  0  0  0
  -29.0730  -15.4380   20.9940 H   0  0  0  0  0  0  0  0  0  0  0  0
  -25.3240  -13.9370   20.4030 C   0  0  0  0  0  0  0  0  0  0  0  0
  -24.2570  -13.1730   20.7920 C   0  0  0  0  0  0  0  0  0  0  0  0
  -24.7100  -11.8190   20.7660 C   0  0  0  0  0  0  0  0  0  0  0  0
  -26.3600  -13.0480   20.1630 N   0  0  0  0  0  0  0  0  0  0  0  0
  -25.9960  -11.7690   20.4400 N   0  0  0  0  0  0  0  0  0  0  0  0
  -23.9790  -10.5630   20.9760 C   0  0  0  0  0  0  0  0  0  0  0  0
  -24.4230   -9.5960   21.9040 C   0  0  0  0  0  3  0  0  0  0  0  0
  -23.6930   -8.4040   22.1010 C   0  0  0  0  0  3  0  0  0  0  0  0
  -22.5050   -8.1700   21.3680 C   0  0  0  0  0  0  0  0  0  0  0  0
  -22.0790   -9.1260   20.4300 C   0  0  0  0  0  3  0  0  0  0  0  0
  -22.8090  -10.3100   20.2310 C   0  0  0  0  0  3  0  0  0  0  0  0
  -21.7460   -7.0300   21.4750 O   0  0  0  0  0  0  0  0  0  0  0  0
  -21.7170   -6.2900   22.6290 C   0  0  0  0  0  0  0  0  0  0  0  0
  -21.3310   -6.8520   23.8660 C   0  0  0  0  0  3  0  0  0  0  0  0
  -21.2490   -6.0380   25.0130 C   0  0  0  0  0  3  0  0  0  0  0  0
  -21.5430   -4.6630   24.9250 C   0  0  0  0  0  0  0  0  0  0  0  0
  -21.9220   -4.1010   23.6940 C   0  0  0  0  0  3  0  0  0  0  0  0
  -22.0060   -4.9130   22.5480 C   0  0  0  0  0  0  0  0  0  0  0  0
  -22.3520   -4.3620   21.3600 F   0  0  0  0  0  0  0  0  0  0  0  0
  -21.4560   -3.8800   26.0260 F   0  0  0  0  0  0  0  0  0  0  0  0
  -22.8660  -13.6620   21.0810 C   0  0  0  0  0  0  0  0  0  0  0  0
  -22.1470  -12.9770   21.9630 N   0  0  0  0  0  0  0  0  0  0  0  0
  -22.4260  -14.6850   20.5570 O   0  0  0  0  0  0  0  0  0  0  0  0
  -22.5160  -12.1490   22.4080 H   0  0  0  0  0  0  0  0  0  0  0  0
  -21.2150  -13.2870   22.2010 H   0  0  0  0  0  0  0  0  0  0  0  0
  -25.4950  -15.3050   20.2100 N   0  0  0  0  0  0  0  0  0  0  0  0
  -24.7310  -15.9620   20.3170 H   0  0  0  0  0  0  0  0  0  0  0  0
  -26.3350  -15.7310   19.8400 H   0  0  0  0  0  0  0  0  0  0  0  0
  2  5  1  0
  4  1  1  0
  4  3  1  0
  5  9  1  0
  5  1  1  0
  6  2  1  0
  6  7  1  0
  6  4  1  0
  7 51  1  0
  7  3  1  0
  7  8  1  6
  9 10  1  0
 11 22  2  0
 12 10  1  0
 12 17  1  0
 13 21  1  0
 13 23  1  0
 14 20  1  0
 14 16  1  0
 15 21  1  0
 16 15  1  0
 17 16  2  0
 18 19  1  0
 18 12  2  0
 19 14  2  0
 20 13  1  0
 21 11  1  0
 23 25  2  0
 24 23  1  0
 26 24  1  0
 27 36  2  0
 27 32  1  0
 28 24  1  0
 28 32  1  0
 29 28  1  0
 30 31  1  0
 30 29  1  0
 31 27  1  0
 32 33  2  0
 33 34  1  0
 35 34  2  0
 36 35  1  0
 37 11  1  0
 37 42  1  0
 37 38  1  0
 38 41  1  1
 38 39  1  0
 40 38  1  0
 42 45  1  0
 43 47  1  0
 43 42  1  0
 44 43  2  0
 47 46  1  0
 49 47  1  0
 49 50  1  0
 49 48  1  0
 52 53  1  0
 52 51  1  0
 54 62  1  0
 55 60  1  0
 56 57  1  0
 56 55  1  0
 58 57  1  0
 58 67  1  0
 58 59  1  0
 60 54  1  0
 60 59  1  0
 61 54  2  0
 62 63  1  0
 62 53  1  0
 64 65  2  0
 65 84  1  0
 66 65  1  0
 66 69  1  0
 67 64  1  0
 67 68  1  0
 68 66  2  0
 69 70  1  0
 70 71  2  0
 72 75  1  0
 72 71  1  0
 73 72  2  0
 74 73  1  0
 74 69  2  0
 75 76  1  0
 76 77  1  0
 77 78  2  0
 79 78  1  0
 79 83  1  0
 80 79  2  0
 81 76  2  0
 81 80  1  0
 82 81  1  0
 84 85  1  0
 85 88  1  0
 85 87  1  0
 86 84  2  0
 89 90  1  0
 89 64  1  0
 91 89  1  0
M  ISO  4   9 101  10 101  54 100  62 100
M  END
>  <TORSDO>  (9) 
F 20

>  <SCORE>  (9) 
-13.611

>  <name>  (9) 
8

>  <ligand_id>  (9) 
8

>  <original_smiles>  (9) 
[H]c1c([H])c([H])c2c(c1[H])C([H])([H])C([H])([H])C([H])([H])C2([H])N([H])C(=O)C1([H])N(C(=O)C([H])(N([H])C(=O)C([H])(N([H])C([H])([H])[H])C([H])([H])[H])C(C([H])([H])[H])(C([H])([H])[H])C([H])([H])[H])C([H])([H])c2c([H])c(OC([H])([H])C3([H])C([H])([H])C4([H])C([H])([H])[N+]([H])(C([H])([H])C([H])([H])C([H])([H])N([H])C(=O)N5C([H])([H])C([H])([H])C([H])([H])C([H])(n6nc(-c7c([H])c([H])c(Oc8c([H])c([H])c(F)c([H])c8F)c([H])c7[H])c(C(=O)N([H])[H])c6N([H])[H])C5([H])[H])C4([H])C3([H])[H])c([H])c([H])c2C1([H])[H]

>  <smiles>  (9) 
[H]c1c([H])c([H])c2c(c1[H])C([H])([H])C([H])([H])C([H])([H])C2([H])N([H])C(=O)C1([H])N(C(=O)C([H])(N([H])C(=O)C([H])(N([H])C([H])([H])[H])C([H])([H])[H])C(C([H])([H])[H])(C([H])([H])[H])C([H])([H])[H])C([H])([H])c2c([H])c(OC([H])([H])C3([H])C([H])([H])C4([H])C([H])([H])[N+]([H])(C([H])([H])C([H])([H])C([H])([H])N([H])C(=O)N5C([H])([H])C([H])([H])C([H])([H])C([H])(n6nc(-c7c([H])c([H])c(Oc8c([H])c([H])c(F)c([H])c8F)c([H])c7[H])c(C(=O)N([H])[H])c6N([H])[H])C5([H])[H])C4([H])C3([H])[H])c([H])c([H])c2C1([H])[H]

$$$$
9:0:0
     RDKit          3D

 88 96  0  0  1  0  0  0  0  0999 V2000
  -28.9570  -21.3560   22.3640 C   0  0  0  0  0  2  0  0  0  0  0  0
  -29.8590  -20.2770   21.6970 C   0  0  0  0  0  2  0  0  0  0  0  0
  -28.9430  -22.8100   21.7820 C   0  0  0  0  0  2  0  0  0  0  0  0
  -28.9630  -21.3730   19.5790 C   0  0  0  0  0  2  0  0  0  0  0  0
  -29.2910  -19.8160   20.3440 C   0  0  0  0  0  3  0  0  0  0  0  0
  -29.0420  -23.0150   20.2370 C   0  0  2  0  0  0  0  0  0  0  0  0
  -30.4870  -23.4360   19.9100 C   0  0  0  0  0  1  0  0  0  0  0  0
  -30.0530  -18.3060   19.7560 C   0  0  0  0  0  2  0  0  0  0  0  0
  -30.6300  -15.4500   19.9900 C   0  0  0  0  0  0  0  0  0  0  0  0
  -30.5740  -13.0150   19.1230 C   0  0  0  0  0  2  0  0  0  0  0  0
  -29.6250  -12.8480   17.9090 C   0  0  0  0  0  2  0  0  0  0  0  0
  -28.1870  -12.5720   18.3840 C   0  0  0  0  0  2  0  0  0  0  0  0
  -27.7660  -13.5220   19.5340 C   0  0  0  0  0  3  0  0  0  0  0  0
  -28.8440  -13.6560   20.6340 C   0  0  0  0  0  2  0  0  0  0  0  0
  -30.0660  -14.1470   19.9790 N   0  0  0  0  0  0  0  0  0  0  0  0
  -31.8260  -15.4660   19.6630 O   0  0  0  0  0  0  0  0  0  0  0  0
  -29.8730  -16.7040   20.1570 N   0  0  0  0  0  0  0  0  0  0  0  0
  -28.9310  -16.5040   20.4620 H   0  0  0  0  0  0  0  0  0  0  0  0
  -25.4120  -14.0630   20.3570 C   0  0  0  0  0  0  0  0  0  0  0  0
  -24.3670  -13.2770   20.7520 C   0  0  0  0  0  0  0  0  0  0  0  0
  -24.8400  -11.9310   20.7000 C   0  0  0  0  0  0  0  0  0  0  0  0
  -26.4530  -13.1960   20.0780 N   0  0  0  0  0  0  0  0  0  0  0  0
  -26.1230  -11.9070   20.3520 N   0  0  0  0  0  0  0  0  0  0  0  0
  -24.1280  -10.6620   20.9020 C   0  0  0  0  0  0  0  0  0  0  0  0
  -24.5360   -9.7320   21.8850 C   0  0  0  0  0  3  0  0  0  0  0  0
  -23.8190   -8.5310   22.0750 C   0  0  0  0  0  3  0  0  0  0  0  0
  -22.6790   -8.2500   21.2840 C   0  0  0  0  0  0  0  0  0  0  0  0
  -22.2920   -9.1690   20.2920 C   0  0  0  0  0  3  0  0  0  0  0  0
  -23.0090  -10.3620   20.1000 C   0  0  0  0  0  3  0  0  0  0  0  0
  -21.9370   -7.0990   21.3810 O   0  0  0  0  0  0  0  0  0  0  0  0
  -21.7900   -6.4350   22.5730 C   0  0  0  0  0  0  0  0  0  0  0  0
  -21.1860   -7.0430   23.6940 C   0  0  0  0  0  3  0  0  0  0  0  0
  -20.9910   -6.3020   24.8770 C   0  0  0  0  0  3  0  0  0  0  0  0
  -21.3900   -4.9530   24.9370 C   0  0  0  0  0  0  0  0  0  0  0  0
  -21.9870   -4.3450   23.8190 C   0  0  0  0  0  3  0  0  0  0  0  0
  -22.1830   -5.0830   22.6390 C   0  0  0  0  0  0  0  0  0  0  0  0
  -22.7380   -4.4860   21.5580 F   0  0  0  0  0  0  0  0  0  0  0  0
  -21.1970   -4.2390   26.0700 F   0  0  0  0  0  0  0  0  0  0  0  0
  -22.9750  -13.7450   21.0600 C   0  0  0  0  0  0  0  0  0  0  0  0
  -22.2730  -13.0490   21.9460 N   0  0  0  0  0  0  0  0  0  0  0  0
  -22.5170  -14.7660   20.5480 O   0  0  0  0  0  0  0  0  0  0  0  0
  -22.6560  -12.2240   22.3870 H   0  0  0  0  0  0  0  0  0  0  0  0
  -21.3410  -13.3480   22.1940 H   0  0  0  0  0  0  0  0  0  0  0  0
  -25.5590  -15.4370   20.1810 N   0  0  0  0  0  0  0  0  0  0  0  0
  -24.7810  -16.0780   20.3030 H   0  0  0  0  0  0  0  0  0  0  0  0
  -26.3830  -15.8840   19.8010 H   0  0  0  0  0  0  0  0  0  0  0  0
  -28.1200  -24.4930   19.7930 C   0  0  0  0  0  2  0  0  0  0  0  0
  -28.2960  -26.0940   20.0910 O   0  0  0  0  0  0  0  0  0  0  0  0
  -24.6530  -31.9220   23.1360 C   0  0  0  0  0  0  0  0  0  0  0  0
  -27.2640  -27.1590   20.0250 C   0  0  0  0  0  0  0  0  0  0  0  0
  -23.4680  -30.5370   21.4800 C   0  0  0  0  0  3  0  0  0  0  0  0
  -24.9320  -28.9830   20.0200 C   0  0  0  0  0  0  0  0  0  0  0  0
  -26.0280  -30.7970   21.3210 C   0  0  0  0  0  2  0  0  0  0  0  0
  -26.1150  -29.4020   20.6420 C   0  0  0  0  0  0  0  0  0  0  0  0
  -27.2750  -28.5090   20.6210 C   0  0  0  0  0  3  0  0  0  0  0  0
  -26.0500  -26.8840   19.3550 C   0  0  0  0  0  3  0  0  0  0  0  0
  -24.9230  -27.7440   19.3580 C   0  0  0  0  0  3  0  0  0  0  0  0
  -23.6980  -29.8800   20.0900 C   0  0  0  0  0  2  0  0  0  0  0  0
  -24.7380  -31.1110   22.0340 N   0  0  0  0  0  0  0  0  0  0  0  0
  -23.5630  -32.1870   23.6690 O   0  0  0  0  0  0  0  0  0  0  0  0
  -22.7970  -29.5140   22.4330 C   0  0  0  0  0  0  0  0  0  0  0  0
  -21.4750  -29.3030   22.2880 N   0  0  0  0  0  0  0  0  0  0  0  0
  -23.4710  -28.9110   23.2710 O   0  0  0  0  0  0  0  0  0  0  0  0
  -20.9830  -29.8430   21.5890 H   0  0  0  0  0  0  0  0  0  0  0  0
  -18.1320  -27.9700   22.7330 C   0  0  0  0  0  0  0  0  0  0  0  0
  -20.6740  -28.3360   23.0450 C   0  0  0  0  0  3  0  0  0  0  0  0
  -20.8420  -26.9080   22.4760 C   0  0  0  0  0  2  0  0  0  0  0  0
  -19.7730  -26.5400   21.4410 C   0  0  0  0  0  2  0  0  0  0  0  0
  -18.3750  -26.6290   22.0590 C   0  0  0  0  0  2  0  0  0  0  0  0
  -19.2110  -28.7780   23.1820 C   0  0  0  0  0  0  0  0  0  0  0  0
  -18.9280  -30.0280   23.7750 C   0  0  0  0  0  3  0  0  0  0  0  0
  -17.6000  -30.4720   23.9200 C   0  0  0  0  0  3  0  0  0  0  0  0
  -16.5370  -29.6630   23.4860 C   0  0  0  0  0  3  0  0  0  0  0  0
  -16.8030  -28.4120   22.9000 C   0  0  0  0  0  3  0  0  0  0  0  0
  -25.9200  -32.5720   23.7720 C   0  0  0  0  0  3  0  0  0  0  0  0
  -25.5890  -33.9650   24.1190 N   0  0  0  0  0  0  0  0  0  0  0  0
  -25.9130  -35.0380   23.3840 C   0  0  0  0  0  0  0  0  0  0  0  0
  -26.5840  -34.9580   22.3520 O   0  0  0  0  0  0  0  0  0  0  0  0
  -24.9910  -34.0990   24.9210 H   0  0  0  0  0  0  0  0  0  0  0  0
  -24.1800  -36.8350   23.0570 C   0  0  0  0  0  1  0  0  0  0  0  0
  -25.4170  -36.4160   23.8670 C   0  0  0  0  0  3  0  0  0  0  0  0
  -27.5340  -37.3040   24.7410 C   0  0  0  0  0  1  0  0  0  0  0  0
  -26.4460  -37.4760   23.7830 N   0  0  0  0  0  0  0  0  0  0  0  0
  -26.0320  -38.3920   23.9350 H   0  0  0  0  0  0  0  0  0  0  0  0
  -26.4360  -31.8020   25.0500 C   0  0  1  0  0  0  0  0  0  0  0  0
  -25.3330  -31.5330   26.1030 C   0  0  0  0  0  1  0  0  0  0  0  0
  -27.0540  -30.4400   24.6640 C   0  0  0  0  0  1  0  0  0  0  0  0
  -27.5610  -32.6150   25.7330 C   0  0  0  0  0  1  0  0  0  0  0  0
  2  1  1  0
  3  1  1  0
  4  6  1  0
  4  5  1  0
  5  8  1  0
  5  2  1  0
  6  7  1  1
  6  3  1  0
  8 17  1  0
  9 17  1  0
 10 15  1  0
 11 12  1  0
 11 10  1  0
 13 12  1  0
 13 22  1  0
 13 14  1  0
 15  9  1  0
 15 14  1  0
 16  9  2  0
 17 18  1  0
 19 20  2  0
 20 39  1  0
 21 20  1  0
 21 24  1  0
 22 23  1  0
 22 19  1  0
 23 21  2  0
 24 25  1  0
 25 26  2  0
 27 30  1  0
 27 26  1  0
 28 27  2  0
 29 28  1  0
 29 24  2  0
 30 31  1  0
 31 36  2  0
 31 32  1  0
 32 33  2  0
 33 34  1  0
 34 38  1  0
 35 34  2  0
 36 35  1  0
 37 36  1  0
 39 40  1  0
 40 43  1  0
 40 42  1  0
 41 39  2  0
 44 45  1  0
 44 19  1  0
 46 44  1  0
 47 48  1  0
 47  6  1  0
 49 60  2  0
 50 48  1  0
 50 55  1  0
 51 59  1  0
 51 61  1  0
 52 58  1  0
 52 54  1  0
 53 59  1  0
 54 53  1  0
 55 54  2  0
 56 57  1  0
 56 50  2  0
 57 52  2  0
 58 51  1  0
 59 49  1  0
 61 63  2  0
 62 61  1  0
 64 62  1  0
 65 74  2  0
 65 70  1  0
 66 62  1  0
 66 70  1  0
 67 66  1  0
 68 69  1  0
 68 67  1  0
 69 65  1  0
 70 71  2  0
 71 72  1  0
 73 72  2  0
 74 73  1  0
 75 49  1  0
 75 76  1  0
 75 85  1  0
 76 79  1  0
 77 81  1  0
 77 76  1  0
 78 77  2  0
 81 80  1  0
 83 81  1  0
 83 84  1  0
 83 82  1  0
 85 88  1  1
 85 86  1  0
 87 85  1  0
M  ISO  4   9 100  17 100  47 101  48 101
M  END
>  <TORSDO>  (10) 
F 18

>  <SCORE>  (10) 
-15.198

>  <name>  (10) 
9

>  <ligand_id>  (10) 
9

>  <original_smiles>  (10) 
[H]c1c([H])c([H])c2c(c1[H])C([H])([H])C([H])([H])C([H])([H])C2([H])N([H])C(=O)C1([H])N(C(=O)C([H])(N([H])C(=O)C([H])(N([H])C([H])([H])[H])C([H])([H])[H])C(C([H])([H])[H])(C([H])([H])[H])C([H])([H])[H])C([H])([H])c2c([H])c(OC([H])([H])C3(C([H])([H])[H])C([H])([H])C([H])([H])C([H])([H])C([H])(C([H])([H])N([H])C(=O)N4C([H])([H])C([H])([H])C([H])([H])C([H])(n5nc(-c6c([H])c([H])c(Oc7c([H])c([H])c(F)c([H])c7F)c([H])c6[H])c(C(=O)N([H])[H])c5N([H])[H])C4([H])[H])C3([H])[H])c([H])c([H])c2C1([H])[H]

>  <smiles>  (10) 
[H]c1c([H])c([H])c2c(c1[H])C([H])([H])C([H])([H])C([H])([H])C2([H])N([H])C(=O)C1([H])N(C(=O)C([H])(N([H])C(=O)C([H])(N([H])C([H])([H])[H])C([H])([H])[H])C(C([H])([H])[H])(C([H])([H])[H])C([H])([H])[H])C([H])([H])c2c([H])c(OC([H])([H])C3(C([H])([H])[H])C([H])([H])C([H])([H])C([H])([H])C([H])(C([H])([H])N([H])C(=O)N4C([H])([H])C([H])([H])C([H])([H])C([H])(n5nc(-c6c([H])c([H])c(Oc7c([H])c([H])c(F)c([H])c7F)c([H])c6[H])c(C(=O)N([H])[H])c5N([H])[H])C4([H])[H])C3([H])[H])c([H])c([H])c2C1([H])[H]

$$$$
10:0:0
     RDKit          3D

 90 99  0  0  1  0  0  0  0  0999 V2000
  -29.9030  -21.7420   20.7660 N   0  0  0  0  0  4  0  0  0  0  0  0
  -30.7830  -21.8850   20.2960 H   0  0  0  0  0  0  0  0  0  0  0  0
  -30.0530  -21.9140   21.7470 H   0  0  0  0  0  0  0  0  0  0  0  0
  -29.5090  -20.3080   20.6040 C   0  0  0  0  0  2  0  0  0  0  0  0
  -30.2520  -17.9940   21.7980 C   0  0  0  0  0  3  0  0  0  0  0  0
  -30.9020  -18.0080   20.4350 C   0  0  0  0  0  3  0  0  0  0  0  0
  -30.5730  -19.3260   21.1230 C   0  0  0  0  0  3  0  0  0  0  0  0
  -30.9260  -16.7360   21.2690 C   0  0  0  0  0  3  0  0  0  0  0  0
  -30.7810  -14.4780   20.3150 C   0  0  0  0  0  0  0  0  0  0  0  0
  -30.3990  -12.3150   19.1890 C   0  0  0  0  0  2  0  0  0  0  0  0
  -29.4460  -12.5030   17.9920 C   0  0  0  0  0  2  0  0  0  0  0  0
  -27.9800  -12.3790   18.4500 C   0  0  0  0  0  2  0  0  0  0  0  0
  -27.6670  -13.2460   19.6990 C   0  0  0  0  0  3  0  0  0  0  0  0
  -28.7390  -13.0630   20.7970 C   0  0  0  0  0  2  0  0  0  0  0  0
  -30.0520  -13.3340   20.1950 N   0  0  0  0  0  0  0  0  0  0  0  0
  -31.9080  -14.5940   19.8260 O   0  0  0  0  0  0  0  0  0  0  0  0
  -30.1950  -15.5440   20.9000 N   0  0  0  0  0  0  0  0  0  0  0  0
  -29.2500  -15.4360   21.2380 H   0  0  0  0  0  0  0  0  0  0  0  0
  -25.2920  -13.8790   20.4560 C   0  0  0  0  0  0  0  0  0  0  0  0
  -24.2200  -13.1200   20.8400 C   0  0  0  0  0  0  0  0  0  0  0  0
  -24.6610  -11.7620   20.7970 C   0  0  0  0  0  0  0  0  0  0  0  0
  -26.3200  -12.9840   20.2040 N   0  0  0  0  0  0  0  0  0  0  0  0
  -25.9460  -11.7060   20.4690 N   0  0  0  0  0  0  0  0  0  0  0  0
  -23.9200  -10.5100   20.9960 C   0  0  0  0  0  0  0  0  0  0  0  0
  -24.3500   -9.5360   21.9250 C   0  0  0  0  0  3  0  0  0  0  0  0
  -23.6100   -8.3490   22.1110 C   0  0  0  0  0  3  0  0  0  0  0  0
  -22.4260   -8.1260   21.3670 C   0  0  0  0  0  0  0  0  0  0  0  0
  -22.0150   -9.0870   20.4280 C   0  0  0  0  0  3  0  0  0  0  0  0
  -22.7560  -10.2660   20.2410 C   0  0  0  0  0  3  0  0  0  0  0  0
  -21.6580   -6.9910   21.4630 O   0  0  0  0  0  0  0  0  0  0  0  0
  -21.5990   -6.2570   22.6210 C   0  0  0  0  0  0  0  0  0  0  0  0
  -21.1690   -6.8220   23.8410 C   0  0  0  0  0  3  0  0  0  0  0  0
  -21.0580   -6.0150   24.9900 C   0  0  0  0  0  3  0  0  0  0  0  0
  -21.3650   -4.6430   24.9200 C   0  0  0  0  0  0  0  0  0  0  0  0
  -21.7880   -4.0770   23.7040 C   0  0  0  0  0  3  0  0  0  0  0  0
  -21.9020   -4.8810   22.5570 C   0  0  0  0  0  0  0  0  0  0  0  0
  -22.2890   -4.3270   21.3840 F   0  0  0  0  0  0  0  0  0  0  0  0
  -21.2510   -3.8650   26.0210 F   0  0  0  0  0  0  0  0  0  0  0  0
  -22.8340  -13.6170   21.1370 C   0  0  0  0  0  0  0  0  0  0  0  0
  -22.1110  -12.9290   22.0140 N   0  0  0  0  0  0  0  0  0  0  0  0
  -22.4020  -14.6490   20.6270 O   0  0  0  0  0  0  0  0  0  0  0  0
  -22.4740  -12.0930   22.4490 H   0  0  0  0  0  0  0  0  0  0  0  0
  -21.1820  -13.2430   22.2570 H   0  0  0  0  0  0  0  0  0  0  0  0
  -25.4730  -15.2480   20.2790 N   0  0  0  0  0  0  0  0  0  0  0  0
  -24.7160  -15.9130   20.3980 H   0  0  0  0  0  0  0  0  0  0  0  0
  -26.3250  -15.6750   19.9380 H   0  0  0  0  0  0  0  0  0  0  0  0
  -28.9180  -22.7400   20.2570 C   0  0  0  0  0  2  0  0  0  0  0  0
  -29.2880  -24.2400   20.5120 C   0  0  0  0  0  2  0  0  0  0  0  0
  -28.1890  -25.2090   19.9940 C   0  0  0  0  0  2  0  0  0  0  0  0
  -28.3680  -26.6250   20.2590 O   0  0  0  0  0  0  0  0  0  0  0  0
  -24.6160  -31.9210   23.2550 C   0  0  0  0  0  0  0  0  0  0  0  0
  -27.2230  -27.4120   20.2030 C   0  0  0  0  0  0  0  0  0  0  0  0
  -23.4030  -30.5190   21.6220 C   0  0  0  0  0  3  0  0  0  0  0  0
  -24.8460  -28.9710   20.2010 C   0  0  0  0  0  0  0  0  0  0  0  0
  -25.9350  -30.8510   21.4250 C   0  0  0  0  0  2  0  0  0  0  0  0
  -26.0120  -29.4760   20.7910 C   0  0  0  0  0  0  0  0  0  0  0  0
  -27.2020  -28.7040   20.7890 C   0  0  0  0  0  3  0  0  0  0  0  0
  -26.0350  -26.9470   19.5880 C   0  0  0  0  0  3  0  0  0  0  0  0
  -24.8540  -27.7060   19.5960 C   0  0  0  0  0  3  0  0  0  0  0  0
  -23.6080  -29.8380   20.2450 C   0  0  0  0  0  2  0  0  0  0  0  0
  -24.6710  -31.1130   22.1590 N   0  0  0  0  0  0  0  0  0  0  0  0
  -23.5360  -32.2030   23.7920 O   0  0  0  0  0  0  0  0  0  0  0  0
  -22.7450  -29.5050   22.5860 C   0  0  0  0  0  0  0  0  0  0  0  0
  -21.4180  -29.3330   22.4620 N   0  0  0  0  0  0  0  0  0  0  0  0
  -23.4240  -28.8770   23.4020 O   0  0  0  0  0  0  0  0  0  0  0  0
  -20.9310  -29.8910   21.7750 H   0  0  0  0  0  0  0  0  0  0  0  0
  -18.0320  -28.1850   22.9860 C   0  0  0  0  0  0  0  0  0  0  0  0
  -20.5940  -28.4050   23.2380 C   0  0  0  0  0  3  0  0  0  0  0  0
  -20.6720  -26.9730   22.6590 C   0  0  0  0  0  2  0  0  0  0  0  0
  -19.5570  -26.6690   21.6530 C   0  0  0  0  0  2  0  0  0  0  0  0
  -18.1830  -26.8330   22.3080 C   0  0  0  0  0  2  0  0  0  0  0  0
  -19.1640  -28.9290   23.4090 C   0  0  0  0  0  0  0  0  0  0  0  0
  -18.9680  -30.1960   24.0020 C   0  0  0  0  0  3  0  0  0  0  0  0
  -17.6720  -30.7160   24.1780 C   0  0  0  0  0  3  0  0  0  0  0  0
  -16.5540  -29.9680   23.7720 C   0  0  0  0  0  3  0  0  0  0  0  0
  -16.7350  -28.7040   23.1820 C   0  0  0  0  0  3  0  0  0  0  0  0
  -25.9050  -32.5490   23.8710 C   0  0  0  0  0  3  0  0  0  0  0  0
  -25.6000  -33.9460   24.2050 N   0  0  0  0  0  0  0  0  0  0  0  0
  -25.9210  -34.9970   23.4390 C   0  0  0  0  0  0  0  0  0  0  0  0
  -26.5760  -34.8940   22.3990 O   0  0  0  0  0  0  0  0  0  0  0  0
  -25.0160  -34.1000   25.0130 H   0  0  0  0  0  0  0  0  0  0  0  0
  -24.1840  -36.7860   23.1080 C   0  0  0  0  0  1  0  0  0  0  0  0
  -25.4380  -36.3860   23.9020 C   0  0  0  0  0  3  0  0  0  0  0  0
  -27.5810  -37.2780   24.7020 C   0  0  0  0  0  1  0  0  0  0  0  0
  -26.4680  -37.4400   23.7710 N   0  0  0  0  0  0  0  0  0  0  0  0
  -26.0620  -38.3610   23.9180 H   0  0  0  0  0  0  0  0  0  0  0  0
  -26.4280  -31.7710   25.1410 C   0  0  1  0  0  0  0  0  0  0  0  0
  -25.3390  -31.5280   26.2120 C   0  0  0  0  0  1  0  0  0  0  0  0
  -27.0090  -30.3960   24.7380 C   0  0  0  0  0  1  0  0  0  0  0  0
  -27.5810  -32.5640   25.8020 C   0  0  0  0  0  1  0  0  0  0  0  0
  1  3  1  0
  2  1  1  0
  4  1  1  0
  4  7  1  0
  6  7  1  0
  6  8  1  0
  6  5  1  0
  7  5  1  0
  8  5  1  0
  9 17  1  0
 10 15  1  0
 11 12  1  0
 11 10  1  0
 12 13  1  0
 13 22  1  0
 13 14  1  0
 15  9  1  0
 15 14  1  0
 16  9  2  0
 17 18  1  0
 17  8  1  0
 19 20  2  0
 20 39  1  0
 21 20  1  0
 21 24  1  0
 22 19  1  0
 22 23  1  0
 23 21  2  0
 24 25  1  0
 25 26  2  0
 27 30  1  0
 27 26  1  0
 28 27  2  0
 29 28  1  0
 29 24  2  0
 30 31  1  0
 31 32  1  0
 32 33  2  0
 34 33  1  0
 34 38  1  0
 35 34  2  0
 36 31  2  0
 36 35  1  0
 37 36  1  0
 39 40  1  0
 40 43  1  0
 40 42  1  0
 41 39  2  0
 44 45  1  0
 44 19  1  0
 46 44  1  0
 47 48  1  0
 47  1  1  0
 49 50  1  0
 49 48  1  0
 51 62  2  0
 51 77  1  0
 52 50  1  0
 52 57  1  0
 53 61  1  0
 53 63  1  0
 54 60  1  0
 54 56  1  0
 55 61  1  0
 56 55  1  0
 57 56  2  0
 58 59  1  0
 58 52  2  0
 59 54  2  0
 60 53  1  0
 61 51  1  0
 63 65  2  0
 64 63  1  0
 64 68  1  0
 66 64  1  0
 67 76  2  0
 67 72  1  0
 68 72  1  0
 69 68  1  0
 70 71  1  0
 70 69  1  0
 71 67  1  0
 72 73  2  0
 73 74  1  0
 75 74  2  0
 76 75  1  0
 77 78  1  0
 77 87  1  0
 78 81  1  0
 79 83  1  0
 79 78  1  0
 80 79  2  0
 82 83  1  0
 85 83  1  0
 85 86  1  0
 85 84  1  0
 87 90  1  1
 87 88  1  0
 89 87  1  0
M  ISO  4   9 100  17 100  49 101  50 101
M  END
>  <TORSDO>  (11) 
F 21

>  <SCORE>  (11) 
-13.301

>  <name>  (11) 
10

>  <ligand_id>  (11) 
10

>  <original_smiles>  (11) 
[H]c1c([H])c([H])c2c(c1[H])C([H])([H])C([H])([H])C([H])([H])C2([H])N([H])C(=O)C1([H])N(C(=O)C([H])(N([H])C(=O)C([H])(N([H])C([H])([H])[H])C([H])([H])[H])C(C([H])([H])[H])(C([H])([H])[H])C([H])([H])[H])C([H])([H])c2c([H])c(OC([H])([H])C([H])([H])C([H])([H])[N+]([H])([H])C([H])([H])C3([H])C4([H])C([H])(N([H])C(=O)N5C([H])([H])C([H])([H])C([H])([H])C([H])(n6nc(-c7c([H])c([H])c(Oc8c([H])c([H])c(F)c([H])c8F)c([H])c7[H])c(C(=O)N([H])[H])c6N([H])[H])C5([H])[H])C43[H])c([H])c([H])c2C1([H])[H]

>  <smiles>  (11) 
[H]c1c([H])c([H])c2c(c1[H])C([H])([H])C([H])([H])C([H])([H])C2([H])N([H])C(=O)C1([H])N(C(=O)C([H])(N([H])C(=O)C([H])(N([H])C([H])([H])[H])C([H])([H])[H])C(C([H])([H])[H])(C([H])([H])[H])C([H])([H])[H])C([H])([H])c2c([H])c(OC([H])([H])C([H])([H])C([H])([H])[N+]([H])([H])C([H])([H])C3([H])C4([H])C([H])(N([H])C(=O)N5C([H])([H])C([H])([H])C([H])([H])C([H])(n6nc(-c7c([H])c([H])c(Oc8c([H])c([H])c(F)c([H])c8F)c([H])c7[H])c(C(=O)N([H])[H])c6N([H])[H])C5([H])[H])C43[H])c([H])c([H])c2C1([H])[H]

$$$$
11:0:0
     RDKit          3D

 94102  0  0  1  0  0  0  0  0999 V2000
  -30.6110  -21.0580   21.6030 C   0  0  0  0  0  3  0  0  0  0  0  0
  -30.9460  -18.6480   21.2380 C   0  0  0  0  0  3  0  0  0  0  0  0
  -28.9900  -19.7830   20.3390 C   0  0  0  0  0  3  0  0  0  0  0  0
  -31.3770  -19.8810   21.7700 C   0  0  0  0  0  0  0  0  0  0  0  0
  -29.4100  -21.0700   20.8570 C   0  0  0  0  0  0  0  0  0  0  0  0
  -29.7390  -18.5530   20.5270 C   0  0  0  0  0  0  0  0  0  0  0  0
  -32.6730  -19.9250   22.5520 C   0  0  0  0  0  1  0  0  0  0  0  0
  -28.5270  -22.3990   20.7650 C   0  0  0  0  0  2  0  0  0  0  0  0
  -30.3640  -24.2730   21.0600 C   0  0  0  0  0  1  0  0  0  0  0  0
  -29.3550  -23.8500   18.8270 C   0  0  0  0  0  1  0  0  0  0  0  0
  -29.0630  -23.8800   20.3370 C   0  0  1  0  0  0  0  0  0  0  0  0
  -27.9980  -25.0580   20.6280 C   0  0  0  0  0  2  0  0  0  0  0  0
  -28.2740  -26.4960   20.2940 O   0  0  0  0  0  0  0  0  0  0  0  0
  -24.5780  -31.9910   23.2570 C   0  0  0  0  0  0  0  0  0  0  0  0
  -27.1750  -27.3790   20.2500 C   0  0  0  0  0  0  0  0  0  0  0  0
  -23.3730  -30.5730   21.6410 C   0  0  0  0  0  3  0  0  0  0  0  0
  -24.8200  -29.0100   20.2230 C   0  0  0  0  0  0  0  0  0  0  0  0
  -25.9150  -30.8830   21.4480 C   0  0  0  0  0  2  0  0  0  0  0  0
  -25.9920  -29.4980   20.8160 C   0  0  0  0  0  0  0  0  0  0  0  0
  -27.1760  -28.6960   20.8160 C   0  0  0  0  0  3  0  0  0  0  0  0
  -25.9860  -26.9670   19.6090 C   0  0  0  0  0  3  0  0  0  0  0  0
  -24.8210  -27.7520   19.6070 C   0  0  0  0  0  3  0  0  0  0  0  0
  -23.5830  -29.8870   20.2660 C   0  0  0  0  0  2  0  0  0  0  0  0
  -24.6430  -31.1650   22.1720 N   0  0  0  0  0  0  0  0  0  0  0  0
  -23.4950  -32.2780   23.7880 O   0  0  0  0  0  0  0  0  0  0  0  0
  -22.7150  -29.5640   22.6130 C   0  0  0  0  0  0  0  0  0  0  0  0
  -21.3890  -29.3760   22.4830 N   0  0  0  0  0  0  0  0  0  0  0  0
  -23.3910  -28.9570   23.4480 O   0  0  0  0  0  0  0  0  0  0  0  0
  -20.9030  -29.9190   21.7810 H   0  0  0  0  0  0  0  0  0  0  0  0
  -18.0200  -28.1500   22.9710 C   0  0  0  0  0  0  0  0  0  0  0  0
  -20.5710  -28.4480   23.2640 C   0  0  0  0  0  3  0  0  0  0  0  0
  -20.6950  -27.0030   22.7240 C   0  0  0  0  0  2  0  0  0  0  0  0
  -19.6080  -26.6440   21.7050 C   0  0  0  0  0  2  0  0  0  0  0  0
  -18.2180  -26.7880   22.3290 C   0  0  0  0  0  2  0  0  0  0  0  0
  -19.1240  -28.9360   23.3960 C   0  0  0  0  0  0  0  0  0  0  0  0
  -18.8810  -30.2090   23.9560 C   0  0  0  0  0  3  0  0  0  0  0  0
  -17.5690  -30.6980   24.0950 C   0  0  0  0  0  3  0  0  0  0  0  0
  -16.4790  -29.9080   23.6870 C   0  0  0  0  0  3  0  0  0  0  0  0
  -16.7050  -28.6370   23.1290 C   0  0  0  0  0  3  0  0  0  0  0  0
  -25.8610  -32.6320   23.8700 C   0  0  0  0  0  3  0  0  0  0  0  0
  -25.5480  -34.0310   24.1950 N   0  0  0  0  0  0  0  0  0  0  0  0
  -25.8720  -35.0830   23.4320 C   0  0  0  0  0  0  0  0  0  0  0  0
  -26.5400  -34.9780   22.3990 O   0  0  0  0  0  0  0  0  0  0  0  0
  -24.9550  -34.1860   24.9970 H   0  0  0  0  0  0  0  0  0  0  0  0
  -24.1380  -36.8700   23.0770 C   0  0  0  0  0  1  0  0  0  0  0  0
  -25.3820  -36.4720   23.8870 C   0  0  0  0  0  3  0  0  0  0  0  0
  -27.5160  -37.3630   24.7090 C   0  0  0  0  0  1  0  0  0  0  0  0
  -26.4120  -37.5280   23.7690 N   0  0  0  0  0  0  0  0  0  0  0  0
  -26.0040  -38.4470   23.9180 H   0  0  0  0  0  0  0  0  0  0  0  0
  -26.3850  -31.8710   25.1500 C   0  0  1  0  0  0  0  0  0  0  0  0
  -25.2970  -31.6340   26.2240 C   0  0  0  0  0  1  0  0  0  0  0  0
  -26.9740  -30.4960   24.7630 C   0  0  0  0  0  1  0  0  0  0  0  0
  -27.5350  -32.6760   25.8020 C   0  0  0  0  0  1  0  0  0  0  0  0
  -29.3140  -17.1460   19.9370 C   0  0  0  0  0  3  0  0  0  0  0  0
  -30.5010  -14.7990   20.3790 C   0  0  0  0  0  0  0  0  0  0  0  0
  -30.3620  -12.5430   19.3480 C   0  0  0  0  0  2  0  0  0  0  0  0
  -29.4030  -12.6600   18.1390 C   0  0  0  0  0  2  0  0  0  0  0  0
  -27.9390  -12.4720   18.5800 C   0  0  0  0  0  2  0  0  0  0  0  0
  -27.5740  -13.3220   19.8240 C   0  0  0  0  0  3  0  0  0  0  0  0
  -28.6440  -13.1700   20.9330 C   0  0  0  0  0  2  0  0  0  0  0  0
  -29.9420  -13.5440   20.3530 N   0  0  0  0  0  0  0  0  0  0  0  0
  -31.6460  -14.9850   19.9580 O   0  0  0  0  0  0  0  0  0  0  0  0
  -29.6410  -15.8420   20.6600 N   0  0  0  0  0  0  0  0  0  0  0  0
  -28.8500  -15.5160   21.1940 H   0  0  0  0  0  0  0  0  0  0  0  0
  -25.1780  -13.8890   20.5550 C   0  0  0  0  0  0  0  0  0  0  0  0
  -24.1230  -13.1030   20.9300 C   0  0  0  0  0  0  0  0  0  0  0  0
  -24.6010  -11.7570   20.8920 C   0  0  0  0  0  0  0  0  0  0  0  0
  -26.2320  -13.0220   20.3130 N   0  0  0  0  0  0  0  0  0  0  0  0
  -25.8900  -11.7340   20.5760 N   0  0  0  0  0  0  0  0  0  0  0  0
  -23.8880  -10.4860   21.0790 C   0  0  0  0  0  0  0  0  0  0  0  0
  -24.3410   -9.5170   22.0030 C   0  0  0  0  0  3  0  0  0  0  0  0
  -23.6310   -8.3100   22.1810 C   0  0  0  0  0  3  0  0  0  0  0  0
  -22.4530   -8.0640   21.4370 C   0  0  0  0  0  0  0  0  0  0  0  0
  -22.0140   -9.0240   20.5060 C   0  0  0  0  0  3  0  0  0  0  0  0
  -22.7250  -10.2220   20.3270 C   0  0  0  0  0  3  0  0  0  0  0  0
  -21.7110   -6.9110   21.5270 O   0  0  0  0  0  0  0  0  0  0  0  0
  -21.6920   -6.1520   22.6700 C   0  0  0  0  0  0  0  0  0  0  0  0
  -21.2910   -6.6890   23.9130 C   0  0  0  0  0  3  0  0  0  0  0  0
  -21.2160   -5.8580   25.0470 C   0  0  0  0  0  3  0  0  0  0  0  0
  -21.5360   -4.4910   24.9430 C   0  0  0  0  0  0  0  0  0  0  0  0
  -21.9320   -3.9530   23.7060 C   0  0  0  0  0  3  0  0  0  0  0  0
  -22.0060   -4.7820   22.5720 C   0  0  0  0  0  0  0  0  0  0  0  0
  -22.3670   -4.2540   21.3780 F   0  0  0  0  0  0  0  0  0  0  0  0
  -21.4560   -3.6910   26.0310 F   0  0  0  0  0  0  0  0  0  0  0  0
  -22.7220  -13.5620   21.2130 C   0  0  0  0  0  0  0  0  0  0  0  0
  -22.0070  -12.8540   22.0790 N   0  0  0  0  0  0  0  0  0  0  0  0
  -22.2690  -14.5860   20.6970 O   0  0  0  0  0  0  0  0  0  0  0  0
  -22.3860  -12.0310   22.5230 H   0  0  0  0  0  0  0  0  0  0  0  0
  -21.0650  -13.1430   22.3030 H   0  0  0  0  0  0  0  0  0  0  0  0
  -25.3200  -15.2620   20.3820 N   0  0  0  0  0  0  0  0  0  0  0  0
  -24.5330  -15.8930   20.5030 H   0  0  0  0  0  0  0  0  0  0  0  0
  -26.1370  -15.7200   20.0030 H   0  0  0  0  0  0  0  0  0  0  0  0
  -28.9290  -18.0750   17.5260 C   0  0  0  0  0  1  0  0  0  0  0  0
  -29.6160  -17.0310   18.4190 C   0  0  0  0  0  2  0  0  0  0  0  0
  1  4  1  0
  2  4  2  0
  3  6  2  0
  3  5  1  0
  4  7  1  0
  5  1  2  0
  6  2  1  0
  8  5  1  0
 11 10  1  6
 11 12  1  0
 11  8  1  0
 11  9  1  0
 13 12  1  0
 14 25  2  0
 15 13  1  0
 15 20  1  0
 16 24  1  0
 16 26  1  0
 17 23  1  0
 17 19  1  0
 18 24  1  0
 19 18  1  0
 20 19  2  0
 21 15  2  0
 22 21  1  0
 22 17  2  0
 23 16  1  0
 24 14  1  0
 26 28  2  0
 27 26  1  0
 29 27  1  0
 30 39  2  0
 30 35  1  0
 31 27  1  0
 31 35  1  0
 32 31  1  0
 33 34  1  0
 33 32  1  0
 34 30  1  0
 35 36  2  0
 36 37  1  0
 38 37  2  0
 39 38  1  0
 40 14  1  0
 40 41  1  0
 40 50  1  0
 41 44  1  0
 42 46  1  0
 42 41  1  0
 43 42  2  0
 46 45  1  0
 48 46  1  0
 48 49  1  0
 48 47  1  0
 50 53  1  1
 50 51  1  0
 52 50  1  0
 54 94  1  0
 54  6  1  0
 54 63  1  0
 55 63  1  0
 56 61  1  0
 57 58  1  0
 57 56  1  0
 59 58  1  0
 59 68  1  0
 59 60  1  0
 61 55  1  0
 61 60  1  0
 62 55  2  0
 63 64  1  0
 65 66  2  0
 66 85  1  0
 67 66  1  0
 67 70  1  0
 68 65  1  0
 68 69  1  0
 69 67  2  0
 70 71  1  0
 71 72  2  0
 73 76  1  0
 73 72  1  0
 74 73  2  0
 75 74  1  0
 75 70  2  0
 76 77  1  0
 77 78  1  0
 78 79  2  0
 80 79  1  0
 80 84  1  0
 81 80  2  0
 82 77  2  0
 82 81  1  0
 83 82  1  0
 85 86  1  0
 86 89  1  0
 86 88  1  0
 87 85  2  0
 90 91  1  0
 90 65  1  0
 92 90  1  0
 93 94  1  0
M  ISO  4  12 101  13 101  55 100  63 100
M  END
>  <TORSDO>  (12) 
F 21

>  <SCORE>  (12) 
-13.729

>  <name>  (12) 
11

>  <ligand_id>  (12) 
11

>  <original_smiles>  (12) 
[H]c1c([H])c([H])c2c(c1[H])C([H])([H])C([H])([H])C([H])([H])C2([H])N([H])C(=O)C1([H])N(C(=O)C([H])(N([H])C(=O)C([H])(N([H])C([H])([H])[H])C([H])([H])[H])C(C([H])([H])[H])(C([H])([H])[H])C([H])([H])[H])C([H])([H])c2c([H])c(OC([H])([H])C(C([H])([H])[H])(C([H])([H])[H])C([H])([H])c3c([H])c(C([H])([H])[H])c([H])c(C([H])(N([H])C(=O)N4C([H])([H])C([H])([H])C([H])([H])C([H])(n5nc(-c6c([H])c([H])c(Oc7c([H])c([H])c(F)c([H])c7F)c([H])c6[H])c(C(=O)N([H])[H])c5N([H])[H])C4([H])[H])C([H])([H])C([H])([H])[H])c3[H])c([H])c([H])c2C1([H])[H]

>  <smiles>  (12) 
[H]c1c([H])c([H])c2c(c1[H])C([H])([H])C([H])([H])C([H])([H])C2([H])N([H])C(=O)C1([H])N(C(=O)C([H])(N([H])C(=O)C([H])(N([H])C([H])([H])[H])C([H])([H])[H])C(C([H])([H])[H])(C([H])([H])[H])C([H])([H])[H])C([H])([H])c2c([H])c(OC([H])([H])C(C([H])([H])[H])(C([H])([H])[H])C([H])([H])c3c([H])c(C([H])([H])[H])c([H])c(C([H])(N([H])C(=O)N4C([H])([H])C([H])([H])C([H])([H])C([H])(n5nc(-c6c([H])c([H])c(Oc7c([H])c([H])c(F)c([H])c7F)c([H])c6[H])c(C(=O)N([H])[H])c5N([H])[H])C4([H])[H])C([H])([H])C([H])([H])[H])c3[H])c([H])c([H])c2C1([H])[H]

$$$$
12:0:0
     RDKit          3D

 89 98  0  0  1  0  0  0  0  0999 V2000
  -28.1880  -18.9100   20.5570 C   0  0  0  0  0  2  0  0  0  0  0  0
  -27.8170  -20.3710   20.1640 C   0  0  0  0  0  2  0  0  0  0  0  0
  -30.1720  -20.2020   20.5030 C   0  0  0  0  0  2  0  0  0  0  0  0
  -29.1920  -22.4960   19.3020 C   0  0  0  0  0  2  0  0  0  0  0  0
  -28.8710  -22.5190   21.3520 C   0  0  0  0  0  2  0  0  0  0  0  0
  -29.6560  -18.7200   20.1760 C   0  0  0  0  0  3  0  0  0  0  0  0
  -29.0960  -23.6860   20.3230 C   0  0  0  0  0  3  0  0  0  0  0  0
  -29.0320  -21.3150   20.3360 C   0  0  1  0  0  0  0  0  0  0  0  0
  -30.4360  -17.4190   20.7740 C   0  0  0  0  0  2  0  0  0  0  0  0
  -30.6910  -14.8310   20.2990 C   0  0  0  0  0  0  0  0  0  0  0  0
  -30.4620  -12.5800   19.2290 C   0  0  0  0  0  2  0  0  0  0  0  0
  -29.4990  -12.6670   18.0240 C   0  0  0  0  0  2  0  0  0  0  0  0
  -28.0410  -12.4730   18.4840 C   0  0  0  0  0  2  0  0  0  0  0  0
  -27.6860  -13.3380   19.7210 C   0  0  0  0  0  3  0  0  0  0  0  0
  -28.7680  -13.2440   20.8190 C   0  0  0  0  0  2  0  0  0  0  0  0
  -30.0470  -13.6170   20.2020 N   0  0  0  0  0  0  0  0  0  0  0  0
  -31.8770  -14.9200   19.9710 O   0  0  0  0  0  0  0  0  0  0  0  0
  -29.9500  -15.9760   20.5720 N   0  0  0  0  0  0  0  0  0  0  0  0
  -28.9710  -15.8170   20.7510 H   0  0  0  0  0  0  0  0  0  0  0  0
  -25.3070  -13.8990   20.4960 C   0  0  0  0  0  0  0  0  0  0  0  0
  -24.2540  -13.1120   20.8730 C   0  0  0  0  0  0  0  0  0  0  0  0
  -24.7280  -11.7650   20.8200 C   0  0  0  0  0  0  0  0  0  0  0  0
  -26.3550  -13.0320   20.2340 N   0  0  0  0  0  0  0  0  0  0  0  0
  -26.0140  -11.7420   20.4920 N   0  0  0  0  0  0  0  0  0  0  0  0
  -24.0160  -10.4940   21.0040 C   0  0  0  0  0  0  0  0  0  0  0  0
  -24.4480   -9.5330   21.9450 C   0  0  0  0  0  3  0  0  0  0  0  0
  -23.7350   -8.3280   22.1170 C   0  0  0  0  0  3  0  0  0  0  0  0
  -22.5740   -8.0750   21.3490 C   0  0  0  0  0  0  0  0  0  0  0  0
  -22.1610   -9.0230   20.3970 C   0  0  0  0  0  3  0  0  0  0  0  0
  -22.8750  -10.2200   20.2230 C   0  0  0  0  0  3  0  0  0  0  0  0
  -21.8310   -6.9210   21.4300 O   0  0  0  0  0  0  0  0  0  0  0  0
  -21.7400   -6.2040   22.5970 C   0  0  0  0  0  0  0  0  0  0  0  0
  -21.1980   -6.7640   23.7760 C   0  0  0  0  0  3  0  0  0  0  0  0
  -21.0600   -5.9720   24.9320 C   0  0  0  0  0  3  0  0  0  0  0  0
  -21.4540   -4.6200   24.9120 C   0  0  0  0  0  0  0  0  0  0  0  0
  -21.9880   -4.0590   23.7380 C   0  0  0  0  0  3  0  0  0  0  0  0
  -22.1280   -4.8490   22.5830 C   0  0  0  0  0  0  0  0  0  0  0  0
  -22.6250   -4.2990   21.4490 F   0  0  0  0  0  0  0  0  0  0  0  0
  -21.3130   -3.8550   26.0200 F   0  0  0  0  0  0  0  0  0  0  0  0
  -22.8560  -13.5730   21.1680 C   0  0  0  0  0  0  0  0  0  0  0  0
  -22.1420  -12.8560   22.0280 N   0  0  0  0  0  0  0  0  0  0  0  0
  -22.4070  -14.6060   20.6720 O   0  0  0  0  0  0  0  0  0  0  0  0
  -22.5180  -12.0190   22.4490 H   0  0  0  0  0  0  0  0  0  0  0  0
  -21.2070  -13.1480   22.2710 H   0  0  0  0  0  0  0  0  0  0  0  0
  -25.4560  -15.2730   20.3290 N   0  0  0  0  0  0  0  0  0  0  0  0
  -24.6820  -15.9170   20.4500 H   0  0  0  0  0  0  0  0  0  0  0  0
  -26.2870  -15.7190   19.9620 H   0  0  0  0  0  0  0  0  0  0  0  0
  -28.0710  -24.9230   20.0850 C   0  0  0  0  0  2  0  0  0  0  0  0
  -28.3380  -26.3900   20.3520 O   0  0  0  0  0  0  0  0  0  0  0  0
  -24.6380  -31.9520   23.2650 C   0  0  0  0  0  0  0  0  0  0  0  0
  -27.2550  -27.3080   20.2700 C   0  0  0  0  0  0  0  0  0  0  0  0
  -23.4480  -30.5500   21.6220 C   0  0  0  0  0  3  0  0  0  0  0  0
  -24.9090  -28.9840   20.2190 C   0  0  0  0  0  0  0  0  0  0  0  0
  -25.9980  -30.8380   21.4740 C   0  0  0  0  0  2  0  0  0  0  0  0
  -26.0790  -29.4520   20.8310 C   0  0  0  0  0  0  0  0  0  0  0  0
  -27.2550  -28.6290   20.8440 C   0  0  0  0  0  3  0  0  0  0  0  0
  -26.0560  -26.9190   19.6250 C   0  0  0  0  0  3  0  0  0  0  0  0
  -24.9050  -27.7270   19.6050 C   0  0  0  0  0  3  0  0  0  0  0  0
  -23.6780  -29.8680   20.2490 C   0  0  0  0  0  2  0  0  0  0  0  0
  -24.7130  -31.1330   22.1750 N   0  0  0  0  0  0  0  0  0  0  0  0
  -23.5480  -32.2400   23.7840 O   0  0  0  0  0  0  0  0  0  0  0  0
  -22.7680  -29.5420   22.5800 C   0  0  0  0  0  0  0  0  0  0  0  0
  -21.4440  -29.3650   22.4340 N   0  0  0  0  0  0  0  0  0  0  0  0
  -23.4320  -28.9240   23.4160 O   0  0  0  0  0  0  0  0  0  0  0  0
  -20.9680  -29.9140   21.7320 H   0  0  0  0  0  0  0  0  0  0  0  0
  -18.0480  -28.2210   22.9420 C   0  0  0  0  0  0  0  0  0  0  0  0
  -20.6110  -28.4360   23.2020 C   0  0  0  0  0  3  0  0  0  0  0  0
  -20.6870  -27.0080   22.6130 C   0  0  0  0  0  2  0  0  0  0  0  0
  -19.5750  -26.7120   21.6010 C   0  0  0  0  0  2  0  0  0  0  0  0
  -18.1980  -26.8740   22.2520 C   0  0  0  0  0  2  0  0  0  0  0  0
  -19.1810  -28.9610   23.3720 C   0  0  0  0  0  0  0  0  0  0  0  0
  -18.9850  -30.2220   23.9760 C   0  0  0  0  0  3  0  0  0  0  0  0
  -17.6890  -30.7420   24.1540 C   0  0  0  0  0  3  0  0  0  0  0  0
  -16.5710  -29.9990   23.7400 C   0  0  0  0  0  3  0  0  0  0  0  0
  -16.7510  -28.7400   23.1400 C   0  0  0  0  0  3  0  0  0  0  0  0
  -25.9140  -32.5850   23.9000 C   0  0  0  0  0  3  0  0  0  0  0  0
  -25.6090  -33.9910   24.2050 N   0  0  0  0  0  0  0  0  0  0  0  0
  -25.9540  -35.0320   23.4340 C   0  0  0  0  0  0  0  0  0  0  0  0
  -26.6300  -34.9090   22.4100 O   0  0  0  0  0  0  0  0  0  0  0  0
  -25.0150  -34.1610   25.0030 H   0  0  0  0  0  0  0  0  0  0  0  0
  -24.2560  -36.8420   23.0240 C   0  0  0  0  0  1  0  0  0  0  0  0
  -25.4720  -36.4300   23.8690 C   0  0  0  0  0  3  0  0  0  0  0  0
  -27.5850  -37.3100   24.7580 C   0  0  0  0  0  1  0  0  0  0  0  0
  -26.5190  -37.4700   23.7730 N   0  0  0  0  0  0  0  0  0  0  0  0
  -26.1180  -38.3970   23.8870 H   0  0  0  0  0  0  0  0  0  0  0  0
  -26.4040  -31.8310   25.1960 C   0  0  1  0  0  0  0  0  0  0  0  0
  -25.2870  -31.6030   26.2420 C   0  0  0  0  0  1  0  0  0  0  0  0
  -26.9980  -30.4500   24.8360 C   0  0  0  0  0  1  0  0  0  0  0  0
  -27.5390  -32.6340   25.8730 C   0  0  0  0  0  1  0  0  0  0  0  0
  8  2  1  6
  2  1  1  0
  4  7  1  0
  6  3  1  0
  6  1  1  0
  6  9  1  0
  7 48  1  0
  7  5  1  0
  8  4  1  0
  8  3  1  0
  8  5  1  0
 10 18  1  0
 11 16  1  0
 12 13  1  0
 12 11  1  0
 14 13  1  0
 14 23  1  0
 14 15  1  0
 16 10  1  0
 16 15  1  0
 17 10  2  0
 18 19  1  0
 18  9  1  0
 20 21  2  0
 21 40  1  0
 22 21  1  0
 22 25  1  0
 23 24  1  0
 23 20  1  0
 24 22  2  0
 25 26  1  0
 26 27  2  0
 28 31  1  0
 28 27  1  0
 29 28  2  0
 30 29  1  0
 30 25  2  0
 31 32  1  0
 32 33  1  0
 33 34  2  0
 35 34  1  0
 35 39  1  0
 36 35  2  0
 37 32  2  0
 37 36  1  0
 38 37  1  0
 40 41  1  0
 41 44  1  0
 41 43  1  0
 42 40  2  0
 45 46  1  0
 45 20  1  0
 47 45  1  0
 48 49  1  0
 50 61  2  0
 51 49  1  0
 51 56  1  0
 52 60  1  0
 52 62  1  0
 53 59  1  0
 53 55  1  0
 54 60  1  0
 55 56  2  0
 55 54  1  0
 57 51  2  0
 58 57  1  0
 58 53  2  0
 59 52  1  0
 60 50  1  0
 62 64  2  0
 63 62  1  0
 65 63  1  0
 66 75  2  0
 66 71  1  0
 67 63  1  0
 67 71  1  0
 68 67  1  0
 69 70  1  0
 69 68  1  0
 70 66  1  0
 71 72  2  0
 72 73  1  0
 74 73  2  0
 75 74  1  0
 76 50  1  0
 76 77  1  0
 76 86  1  0
 77 80  1  0
 78 82  1  0
 78 77  1  0
 79 78  2  0
 82 81  1  0
 84 82  1  0
 84 85  1  0
 84 83  1  0
 86 89  1  1
 86 87  1  0
 88 86  1  0
M  ISO  4  10 100  18 100  48 101  49 101
M  END
>  <TORSDO>  (13) 
F 18

>  <SCORE>  (13) 
-14.477

>  <name>  (13) 
12

>  <ligand_id>  (13) 
12

>  <original_smiles>  (13) 
[H]c1c([H])c([H])c2c(c1[H])C([H])([H])C([H])([H])C([H])([H])C2([H])N([H])C(=O)C1([H])N(C(=O)C([H])(N([H])C(=O)C([H])(N([H])C([H])([H])[H])C([H])([H])[H])C(C([H])([H])[H])(C([H])([H])[H])C([H])([H])[H])C([H])([H])c2c([H])c(OC([H])([H])C3([H])C([H])([H])C4(C([H])([H])C([H])([H])C([H])(C([H])([H])N([H])C(=O)N5C([H])([H])C([H])([H])C([H])([H])C([H])(n6nc(-c7c([H])c([H])c(Oc8c([H])c([H])c(F)c([H])c8F)c([H])c7[H])c(C(=O)N([H])[H])c6N([H])[H])C5([H])[H])C4([H])[H])C3([H])[H])c([H])c([H])c2C1([H])[H]

>  <smiles>  (13) 
[H]c1c([H])c([H])c2c(c1[H])C([H])([H])C([H])([H])C([H])([H])C2([H])N([H])C(=O)C1([H])N(C(=O)C([H])(N([H])C(=O)C([H])(N([H])C([H])([H])[H])C([H])([H])[H])C(C([H])([H])[H])(C([H])([H])[H])C([H])([H])[H])C([H])([H])c2c([H])c(OC([H])([H])C3([H])C([H])([H])C4(C([H])([H])C([H])([H])C([H])(C([H])([H])N([H])C(=O)N5C([H])([H])C([H])([H])C([H])([H])C([H])(n6nc(-c7c([H])c([H])c(Oc8c([H])c([H])c(F)c([H])c8F)c([H])c7[H])c(C(=O)N([H])[H])c6N([H])[H])C5([H])[H])C4([H])[H])C3([H])[H])c([H])c([H])c2C1([H])[H]

$$$$
13:0:0
     RDKit          3D

 86 95  0  0  1  0  0  0  0  0999 V2000
  -29.0480  -22.1690   21.7920 C   0  0  0  0  0  2  0  0  0  0  0  0
  -29.6530  -20.8590   21.1930 C   0  0  0  0  0  3  0  0  0  0  0  0
  -29.1350  -21.3030   19.8340 C   0  0  0  0  0  3  0  0  0  0  0  0
  -28.9500  -22.9030   20.4490 C   0  0  0  0  0  3  0  0  0  0  0  0
  -29.0260  -19.6700   20.4220 C   0  0  0  0  0  3  0  0  0  0  0  0
  -29.9460  -18.1780   20.1590 C   0  0  0  0  0  2  0  0  0  0  0  0
  -30.4120  -15.2930   20.2090 C   0  0  0  0  0  0  0  0  0  0  0  0
  -30.3540  -12.8700   19.3060 C   0  0  0  0  0  2  0  0  0  0  0  0
  -29.4030  -12.7010   18.0960 C   0  0  0  0  0  2  0  0  0  0  0  0
  -27.9640  -12.4310   18.5700 C   0  0  0  0  0  2  0  0  0  0  0  0
  -27.5460  -13.3740   19.7260 C   0  0  0  0  0  3  0  0  0  0  0  0
  -28.6240  -13.4940   20.8260 C   0  0  0  0  0  2  0  0  0  0  0  0
  -29.8410  -13.9940   20.1690 N   0  0  0  0  0  0  0  0  0  0  0  0
  -31.6180  -15.3070   19.9240 O   0  0  0  0  0  0  0  0  0  0  0  0
  -29.6560  -16.5540   20.3610 N   0  0  0  0  0  0  0  0  0  0  0  0
  -28.6880  -16.3650   20.5780 H   0  0  0  0  0  0  0  0  0  0  0  0
  -25.1960  -13.9150   20.5530 C   0  0  0  0  0  0  0  0  0  0  0  0
  -24.1460  -13.1300   20.9380 C   0  0  0  0  0  0  0  0  0  0  0  0
  -24.6150  -11.7810   20.8710 C   0  0  0  0  0  0  0  0  0  0  0  0
  -26.2330  -13.0470   20.2650 N   0  0  0  0  0  0  0  0  0  0  0  0
  -25.8980  -11.7560   20.5250 N   0  0  0  0  0  0  0  0  0  0  0  0
  -23.8960  -10.5130   21.0580 C   0  0  0  0  0  0  0  0  0  0  0  0
  -24.3410   -9.5380   21.9760 C   0  0  0  0  0  3  0  0  0  0  0  0
  -23.6190   -8.3380   22.1540 C   0  0  0  0  0  3  0  0  0  0  0  0
  -22.4370   -8.1040   21.4110 C   0  0  0  0  0  0  0  0  0  0  0  0
  -22.0100   -9.0690   20.4810 C   0  0  0  0  0  3  0  0  0  0  0  0
  -22.7340  -10.2600   20.3010 C   0  0  0  0  0  3  0  0  0  0  0  0
  -21.6860   -6.9570   21.4970 O   0  0  0  0  0  0  0  0  0  0  0  0
  -21.6380   -6.2140   22.6490 C   0  0  0  0  0  0  0  0  0  0  0  0
  -21.1850   -6.7590   23.8700 C   0  0  0  0  0  3  0  0  0  0  0  0
  -21.0860   -5.9400   25.0130 C   0  0  0  0  0  3  0  0  0  0  0  0
  -21.4300   -4.5780   24.9360 C   0  0  0  0  0  0  0  0  0  0  0  0
  -21.8760   -4.0320   23.7190 C   0  0  0  0  0  3  0  0  0  0  0  0
  -21.9760   -4.8480   22.5790 C   0  0  0  0  0  0  0  0  0  0  0  0
  -22.3860   -4.3110   21.4040 F   0  0  0  0  0  0  0  0  0  0  0  0
  -21.3280   -3.7890   26.0320 F   0  0  0  0  0  0  0  0  0  0  0  0
  -22.7550  -13.5980   21.2490 C   0  0  0  0  0  0  0  0  0  0  0  0
  -22.0500  -12.8860   22.1220 N   0  0  0  0  0  0  0  0  0  0  0  0
  -22.3040  -14.6310   20.7560 O   0  0  0  0  0  0  0  0  0  0  0  0
  -22.4280  -12.0510   22.5410 H   0  0  0  0  0  0  0  0  0  0  0  0
  -21.1170  -13.1830   22.3730 H   0  0  0  0  0  0  0  0  0  0  0  0
  -25.3480  -15.2900   20.3930 N   0  0  0  0  0  0  0  0  0  0  0  0
  -24.5770  -15.9350   20.5300 H   0  0  0  0  0  0  0  0  0  0  0  0
  -26.1700  -15.7350   20.0090 H   0  0  0  0  0  0  0  0  0  0  0  0
  -27.9620  -24.3450   20.0750 C   0  0  0  0  0  2  0  0  0  0  0  0
  -28.1760  -25.9520   20.3200 O   0  0  0  0  0  0  0  0  0  0  0  0
  -24.6190  -31.9010   23.2410 C   0  0  0  0  0  0  0  0  0  0  0  0
  -27.1610  -27.0330   20.2370 C   0  0  0  0  0  0  0  0  0  0  0  0
  -23.4200  -30.5070   21.6020 C   0  0  0  0  0  3  0  0  0  0  0  0
  -24.8640  -28.9000   20.1820 C   0  0  0  0  0  0  0  0  0  0  0  0
  -25.9850  -30.7170   21.4560 C   0  0  0  0  0  2  0  0  0  0  0  0
  -26.0510  -29.3090   20.8030 C   0  0  0  0  0  0  0  0  0  0  0  0
  -27.1940  -28.3960   20.8060 C   0  0  0  0  0  3  0  0  0  0  0  0
  -25.9470  -26.7670   19.5680 C   0  0  0  0  0  3  0  0  0  0  0  0
  -24.8350  -27.6480   19.5450 C   0  0  0  0  0  3  0  0  0  0  0  0
  -23.6470  -29.8210   20.2270 C   0  0  0  0  0  2  0  0  0  0  0  0
  -24.6960  -31.0680   22.1540 N   0  0  0  0  0  0  0  0  0  0  0  0
  -23.5290  -32.1960   23.7610 O   0  0  0  0  0  0  0  0  0  0  0  0
  -22.7220  -29.5150   22.5690 C   0  0  0  0  0  0  0  0  0  0  0  0
  -21.3920  -29.3550   22.4410 N   0  0  0  0  0  0  0  0  0  0  0  0
  -23.3840  -28.8890   23.4010 O   0  0  0  0  0  0  0  0  0  0  0  0
  -20.9110  -29.9100   21.7480 H   0  0  0  0  0  0  0  0  0  0  0  0
  -18.0030  -28.1670   22.9510 C   0  0  0  0  0  0  0  0  0  0  0  0
  -20.5640  -28.4220   23.2140 C   0  0  0  0  0  3  0  0  0  0  0  0
  -20.6590  -26.9890   22.6410 C   0  0  0  0  0  2  0  0  0  0  0  0
  -19.5550  -26.6700   21.6270 C   0  0  0  0  0  2  0  0  0  0  0  0
  -18.1740  -26.8180   22.2720 C   0  0  0  0  0  2  0  0  0  0  0  0
  -19.1240  -28.9270   23.3790 C   0  0  0  0  0  0  0  0  0  0  0  0
  -18.9070  -30.1860   23.9780 C   0  0  0  0  0  3  0  0  0  0  0  0
  -17.6040  -30.6880   24.1510 C   0  0  0  0  0  3  0  0  0  0  0  0
  -16.4980  -29.9260   23.7360 C   0  0  0  0  0  3  0  0  0  0  0  0
  -16.6980  -28.6670   23.1430 C   0  0  0  0  0  3  0  0  0  0  0  0
  -25.8920  -32.5390   23.8750 C   0  0  0  0  0  3  0  0  0  0  0  0
  -25.5830  -33.9430   24.1960 N   0  0  0  0  0  0  0  0  0  0  0  0
  -25.9080  -34.9960   23.4330 C   0  0  0  0  0  0  0  0  0  0  0  0
  -26.5620  -34.8860   22.3930 O   0  0  0  0  0  0  0  0  0  0  0  0
  -25.0000  -34.1010   25.0050 H   0  0  0  0  0  0  0  0  0  0  0  0
  -24.1740  -36.7940   23.1160 C   0  0  0  0  0  1  0  0  0  0  0  0
  -25.4350  -36.3890   23.8960 C   0  0  0  0  0  3  0  0  0  0  0  0
  -27.5890  -37.2830   24.6690 C   0  0  0  0  0  1  0  0  0  0  0  0
  -26.4660  -37.4410   23.7480 N   0  0  0  0  0  0  0  0  0  0  0  0
  -26.0640  -38.3630   23.8940 H   0  0  0  0  0  0  0  0  0  0  0  0
  -26.3850  -31.7810   25.1680 C   0  0  1  0  0  0  0  0  0  0  0  0
  -25.2770  -31.5650   26.2270 C   0  0  0  0  0  1  0  0  0  0  0  0
  -26.9640  -30.3930   24.8090 C   0  0  0  0  0  1  0  0  0  0  0  0
  -27.5330  -32.5750   25.8360 C   0  0  0  0  0  1  0  0  0  0  0  0
  2  1  1  0
  3  5  1  0
  3  4  1  0
  3  2  1  0
  4  1  1  0
  5  2  1  0
  6 15  1  0
  6  5  1  0
  7 15  1  0
  8 13  1  0
  9 10  1  0
  9  8  1  0
 10 11  1  0
 11 20  1  0
 11 12  1  0
 13  7  1  0
 13 12  1  0
 14  7  2  0
 15 16  1  0
 17 18  2  0
 18 37  1  0
 19 18  1  0
 19 22  1  0
 20 21  1  0
 20 17  1  0
 21 19  2  0
 22 23  1  0
 23 24  2  0
 25 28  1  0
 25 24  1  0
 26 25  2  0
 27 26  1  0
 27 22  2  0
 28 29  1  0
 29 30  1  0
 30 31  2  0
 32 31  1  0
 32 36  1  0
 33 32  2  0
 34 29  2  0
 34 33  1  0
 35 34  1  0
 37 38  1  0
 38 41  1  0
 38 40  1  0
 39 37  2  0
 42 43  1  0
 42 17  1  0
 44 42  1  0
 45 46  1  0
 45  4  1  0
 47 58  2  0
 47 73  1  0
 48 46  1  0
 48 53  1  0
 49 57  1  0
 49 59  1  0
 50 56  1  0
 50 52  1  0
 51 57  1  0
 52 53  2  0
 52 51  1  0
 54 48  2  0
 55 54  1  0
 55 50  2  0
 56 49  1  0
 57 47  1  0
 59 61  2  0
 60 59  1  0
 60 64  1  0
 62 60  1  0
 63 72  2  0
 63 68  1  0
 64 68  1  0
 65 64  1  0
 66 67  1  0
 66 65  1  0
 67 63  1  0
 68 69  2  0
 69 70  1  0
 71 70  2  0
 72 71  1  0
 73 74  1  0
 73 83  1  0
 74 77  1  0
 75 79  1  0
 75 74  1  0
 76 75  2  0
 78 79  1  0
 81 82  1  0
 81 79  1  0
 81 80  1  0
 83 86  1  1
 83 84  1  0
 85 83  1  0
M  ISO  4   7 100  15 100  45 101  46 101
M  END
>  <TORSDO>  (14) 
F 18

>  <SCORE>  (14) 
-15.892

>  <name>  (14) 
13

>  <ligand_id>  (14) 
13

>  <original_smiles>  (14) 
[H]c1c([H])c([H])c2c(c1[H])C([H])([H])C([H])([H])C([H])([H])C2([H])N([H])C(=O)C1([H])N(C(=O)C([H])(N([H])C(=O)C([H])(N([H])C([H])([H])[H])C([H])([H])[H])C(C([H])([H])[H])(C([H])([H])[H])C([H])([H])[H])C([H])([H])c2c([H])c(OC([H])([H])C3([H])C([H])([H])C4([H])C([H])(C([H])([H])N([H])C(=O)N5C([H])([H])C([H])([H])C([H])([H])C([H])(n6nc(-c7c([H])c([H])c(Oc8c([H])c([H])c(F)c([H])c8F)c([H])c7[H])c(C(=O)N([H])[H])c6N([H])[H])C5([H])[H])C34[H])c([H])c([H])c2C1([H])[H]

>  <smiles>  (14) 
[H]c1c([H])c([H])c2c(c1[H])C([H])([H])C([H])([H])C([H])([H])C2([H])N([H])C(=O)C1([H])N(C(=O)C([H])(N([H])C(=O)C([H])(N([H])C([H])([H])[H])C([H])([H])[H])C(C([H])([H])[H])(C([H])([H])[H])C([H])([H])[H])C([H])([H])c2c([H])c(OC([H])([H])C3([H])C([H])([H])C4([H])C([H])(C([H])([H])N([H])C(=O)N5C([H])([H])C([H])([H])C([H])([H])C([H])(n6nc(-c7c([H])c([H])c(Oc8c([H])c([H])c(F)c([H])c8F)c([H])c7[H])c(C(=O)N([H])[H])c6N([H])[H])C5([H])[H])C34[H])c([H])c([H])c2C1([H])[H]

$$$$
14:0:0
     RDKit          3D

 91100  0  0  1  0  0  0  0  0999 V2000
  -27.8900  -21.5660   21.3980 C   0  0  0  0  0  0  0  0  0  0  0  0
  -30.5060  -21.4300   19.4640 C   0  0  0  0  0  2  0  0  0  0  0  0
  -28.2830  -20.0180   19.6800 C   0  0  0  0  0  2  0  0  0  0  0  0
  -29.3650  -21.5310   21.2170 C   0  0  0  0  0  3  0  0  0  0  0  0
  -30.0220  -22.6560   20.3310 C   0  0  0  0  0  3  0  0  0  0  0  0
  -29.6710  -20.3440   20.2400 C   0  0  2  0  0  0  0  0  0  0  0  0
  -27.2230  -22.2240   22.1980 O   0  0  0  0  0  0  0  0  0  0  0  0
  -27.3570  -20.7070   20.5200 O   0  0  0  0  0  0  0  0  0  0  0  0
  -29.3570  -24.0110   19.6940 C   0  0  0  0  0  2  0  0  0  0  0  0
  -28.9230  -25.3020   20.5900 C   0  0  0  0  0  2  0  0  0  0  0  0
  -28.8980  -26.7290   20.0830 O   0  0  0  0  0  0  0  0  0  0  0  0
  -24.7480  -31.7880   23.3010 C   0  0  0  0  0  0  0  0  0  0  0  0
  -27.7260  -27.5220   20.1150 C   0  0  0  0  0  0  0  0  0  0  0  0
  -23.6880  -30.4300   21.5350 C   0  0  0  0  0  3  0  0  0  0  0  0
  -25.2780  -29.0320   20.0900 C   0  0  0  0  0  0  0  0  0  0  0  0
  -26.2150  -30.8790   21.4810 C   0  0  0  0  0  2  0  0  0  0  0  0
  -26.3980  -29.5450   20.7570 C   0  0  0  0  0  0  0  0  0  0  0  0
  -27.6270  -28.8080   20.7480 C   0  0  0  0  0  3  0  0  0  0  0  0
  -26.5800  -27.0660   19.4330 C   0  0  0  0  0  3  0  0  0  0  0  0
  -25.3740  -27.8010   19.4180 C   0  0  0  0  0  3  0  0  0  0  0  0
  -23.9950  -29.8430   20.1330 C   0  0  0  0  0  2  0  0  0  0  0  0
  -24.9000  -31.0500   22.1620 N   0  0  0  0  0  0  0  0  0  0  0  0
  -23.6310  -31.9790   23.8040 O   0  0  0  0  0  0  0  0  0  0  0  0
  -23.0410  -29.3300   22.4090 C   0  0  0  0  0  0  0  0  0  0  0  0
  -21.7260  -29.1110   22.2380 N   0  0  0  0  0  0  0  0  0  0  0  0
  -23.7270  -28.6770   23.2000 O   0  0  0  0  0  0  0  0  0  0  0  0
  -21.2300  -29.6950   21.5780 H   0  0  0  0  0  0  0  0  0  0  0  0
  -18.3880  -27.7560   22.5840 C   0  0  0  0  0  0  0  0  0  0  0  0
  -20.9320  -28.0840   22.9120 C   0  0  0  0  0  3  0  0  0  0  0  0
  -21.0930  -26.7090   22.2210 C   0  0  0  0  0  2  0  0  0  0  0  0
  -20.0130  -26.4340   21.1690 C   0  0  0  0  0  2  0  0  0  0  0  0
  -18.6210  -26.4750   21.8010 C   0  0  0  0  0  2  0  0  0  0  0  0
  -19.4720  -28.5210   23.0880 C   0  0  0  0  0  0  0  0  0  0  0  0
  -19.1980  -29.7260   23.7730 C   0  0  0  0  0  3  0  0  0  0  0  0
  -17.8730  -30.1680   23.9560 C   0  0  0  0  0  3  0  0  0  0  0  0
  -16.8040  -29.4000   23.4640 C   0  0  0  0  0  3  0  0  0  0  0  0
  -17.0630  -28.1930   22.7900 C   0  0  0  0  0  3  0  0  0  0  0  0
  -25.9650  -32.4520   24.0140 C   0  0  0  0  0  3  0  0  0  0  0  0
  -26.4200  -31.6830   25.3160 C   0  0  1  0  0  0  0  0  0  0  0  0
  -25.2640  -31.3860   26.2990 C   0  0  0  0  0  1  0  0  0  0  0  0
  -27.0840  -30.3340   24.9540 C   0  0  0  0  0  1  0  0  0  0  0  0
  -27.4870  -32.5120   26.0710 C   0  0  0  0  0  1  0  0  0  0  0  0
  -25.5910  -33.8360   24.3380 N   0  0  0  0  0  0  0  0  0  0  0  0
  -25.9390  -34.9110   23.6190 C   0  0  0  0  0  0  0  0  0  0  0  0
  -26.6760  -34.8420   22.6310 O   0  0  0  0  0  0  0  0  0  0  0  0
  -24.9490  -33.9640   25.1050 H   0  0  0  0  0  0  0  0  0  0  0  0
  -24.1830  -36.6570   23.1860 C   0  0  0  0  0  1  0  0  0  0  0  0
  -25.3860  -36.2790   24.0630 C   0  0  0  0  0  3  0  0  0  0  0  0
  -27.4400  -37.2180   25.0290 C   0  0  0  0  0  1  0  0  0  0  0  0
  -26.3920  -37.3630   24.0220 N   0  0  0  0  0  0  0  0  0  0  0  0
  -25.9500  -38.2700   24.1530 H   0  0  0  0  0  0  0  0  0  0  0  0
  -30.2950  -18.9280   20.7870 C   0  0  0  0  0  2  0  0  0  0  0  0
  -30.4430  -17.5990   19.8590 C   0  0  0  0  0  2  0  0  0  0  0  0
  -31.1290  -15.0490   20.1820 C   0  0  0  0  0  0  0  0  0  0  0  0
  -30.8840  -12.7650   19.2000 C   0  0  0  0  0  2  0  0  0  0  0  0
  -29.9400  -12.8640   17.9810 C   0  0  0  0  0  2  0  0  0  0  0  0
  -28.4670  -12.7430   18.4160 C   0  0  0  0  0  2  0  0  0  0  0  0
  -28.1290  -13.6310   19.6410 C   0  0  0  0  0  3  0  0  0  0  0  0
  -29.1930  -13.5040   20.7540 C   0  0  0  0  0  2  0  0  0  0  0  0
  -30.4960  -13.8240   20.1590 N   0  0  0  0  0  0  0  0  0  0  0  0
  -32.2910  -15.1490   19.7770 O   0  0  0  0  0  0  0  0  0  0  0  0
  -30.3590  -16.1770   20.4380 N   0  0  0  0  0  0  0  0  0  0  0  0
  -29.4570  -15.9480   20.8330 H   0  0  0  0  0  0  0  0  0  0  0  0
  -25.7790  -14.2980   20.4370 C   0  0  0  0  0  0  0  0  0  0  0  0
  -24.6860  -13.5580   20.7920 C   0  0  0  0  0  0  0  0  0  0  0  0
  -25.0830  -12.1900   20.6910 C   0  0  0  0  0  0  0  0  0  0  0  0
  -26.7780  -13.3840   20.1410 N   0  0  0  0  0  0  0  0  0  0  0  0
  -26.3650  -12.1080   20.3540 N   0  0  0  0  0  0  0  0  0  0  0  0
  -24.3000  -10.9540   20.8340 C   0  0  0  0  0  0  0  0  0  0  0  0
  -24.6760   -9.9430   21.7450 C   0  0  0  0  0  3  0  0  0  0  0  0
  -23.8950   -8.7760   21.8820 C   0  0  0  0  0  3  0  0  0  0  0  0
  -22.7230   -8.6100   21.1070 C   0  0  0  0  0  0  0  0  0  0  0  0
  -22.3650   -9.6090   20.1850 C   0  0  0  0  0  3  0  0  0  0  0  0
  -23.1460  -10.7680   20.0460 C   0  0  0  0  0  3  0  0  0  0  0  0
  -21.9190   -7.4950   21.1520 O   0  0  0  0  0  0  0  0  0  0  0  0
  -21.7720   -6.7610   22.3010 C   0  0  0  0  0  0  0  0  0  0  0  0
  -21.2790   -7.3340   23.4930 C   0  0  0  0  0  3  0  0  0  0  0  0
  -21.0770   -6.5280   24.6320 C   0  0  0  0  0  3  0  0  0  0  0  0
  -21.3610   -5.1490   24.5780 C   0  0  0  0  0  0  0  0  0  0  0  0
  -21.8450   -4.5750   23.3900 C   0  0  0  0  0  3  0  0  0  0  0  0
  -22.0490   -5.3800   22.2540 C   0  0  0  0  0  0  0  0  0  0  0  0
  -22.4980   -4.8190   21.1060 F   0  0  0  0  0  0  0  0  0  0  0  0
  -21.1590   -4.3740   25.6680 F   0  0  0  0  0  0  0  0  0  0  0  0
  -23.3170  -14.0860   21.1140 C   0  0  0  0  0  0  0  0  0  0  0  0
  -22.5770  -13.3920   21.9700 N   0  0  0  0  0  0  0  0  0  0  0  0
  -22.9170  -15.1500   20.6420 O   0  0  0  0  0  0  0  0  0  0  0  0
  -22.9120  -12.5300   22.3740 H   0  0  0  0  0  0  0  0  0  0  0  0
  -21.6580  -13.7270   22.2270 H   0  0  0  0  0  0  0  0  0  0  0  0
  -26.0020  -15.6670   20.3140 N   0  0  0  0  0  0  0  0  0  0  0  0
  -25.2510  -16.3370   20.4440 H   0  0  0  0  0  0  0  0  0  0  0  0
  -26.8330  -16.0770   19.9090 H   0  0  0  0  0  0  0  0  0  0  0  0
  1  7  2  0
  2  6  1  0
  2  5  1  0
  3  6  1  0
  3  8  1  0
  4  1  1  0
  5  9  1  0
  5  4  1  0
  6 52  1  1
  6  4  1  0
  8  1  1  0
  9 10  1  0
 11 13  1  0
 11 10  1  0
 12 23  2  0
 13 18  1  0
 14 22  1  0
 14 24  1  0
 15 21  1  0
 15 17  1  0
 16 22  1  0
 17 16  1  0
 18 17  2  0
 19 13  2  0
 20 19  1  0
 20 15  2  0
 21 14  1  0
 22 12  1  0
 24 26  2  0
 25 24  1  0
 27 25  1  0
 28 37  2  0
 28 33  1  0
 29 25  1  0
 29 33  1  0
 30 29  1  0
 31 32  1  0
 31 30  1  0
 32 28  1  0
 33 34  2  0
 34 35  1  0
 36 35  2  0
 37 36  1  0
 38 12  1  0
 38 43  1  0
 38 39  1  0
 39 42  1  1
 39 40  1  0
 41 39  1  0
 43 46  1  0
 44 48  1  0
 44 43  1  0
 45 44  2  0
 48 47  1  0
 50 48  1  0
 50 51  1  0
 50 49  1  0
 53 62  1  0
 53 52  1  0
 54 62  1  0
 55 60  1  0
 56 57  1  0
 56 55  1  0
 58 57  1  0
 58 67  1  0
 58 59  1  0
 60 54  1  0
 60 59  1  0
 61 54  2  0
 62 63  1  0
 64 65  2  0
 65 84  1  0
 66 65  1  0
 66 69  1  0
 67 68  1  0
 67 64  1  0
 68 66  2  0
 69 70  1  0
 70 71  2  0
 72 75  1  0
 72 71  1  0
 73 72  2  0
 74 73  1  0
 74 69  2  0
 75 76  1  0
 76 77  1  0
 77 78  2  0
 79 78  1  0
 79 83  1  0
 80 79  2  0
 81 76  2  0
 81 80  1  0
 82 81  1  0
 84 85  1  0
 85 88  1  0
 85 87  1  0
 86 84  2  0
 89 64  1  0
 89 90  1  0
 91 89  1  0
M  ISO  4  10 101  11 101  54 100  62 100
M  END
>  <TORSDO>  (15) 
F 20

>  <SCORE>  (15) 
-12.215

>  <name>  (15) 
14

>  <ligand_id>  (15) 
14

>  <original_smiles>  (15) 
[H]c1c([H])c([H])c2c(c1[H])C([H])([H])C([H])([H])C([H])([H])C2([H])N([H])C(=O)C1([H])N(C(=O)C([H])(N([H])C(=O)C([H])(N([H])C([H])([H])[H])C([H])([H])[H])C(C([H])([H])[H])(C([H])([H])[H])C([H])([H])[H])C([H])([H])c2c([H])c(OC([H])([H])C([H])([H])C3([H])C([H])([H])C4(C([H])([H])C([H])([H])N([H])C(=O)N5C([H])([H])C([H])([H])C([H])([H])C([H])(n6nc(-c7c([H])c([H])c(Oc8c([H])c([H])c(F)c([H])c8F)c([H])c7[H])c(C(=O)N([H])[H])c6N([H])[H])C5([H])[H])C([H])([H])OC(=O)C34[H])c([H])c([H])c2C1([H])[H]

>  <smiles>  (15) 
[H]c1c([H])c([H])c2c(c1[H])C([H])([H])C([H])([H])C([H])([H])C2([H])N([H])C(=O)C1([H])N(C(=O)C([H])(N([H])C(=O)C([H])(N([H])C([H])([H])[H])C([H])([H])[H])C(C([H])([H])[H])(C([H])([H])[H])C([H])([H])[H])C([H])([H])c2c([H])c(OC([H])([H])C([H])([H])C3([H])C([H])([H])C4(C([H])([H])C([H])([H])N([H])C(=O)N5C([H])([H])C([H])([H])C([H])([H])C([H])(n6nc(-c7c([H])c([H])c(Oc8c([H])c([H])c(F)c([H])c8F)c([H])c7[H])c(C(=O)N([H])[H])c6N([H])[H])C5([H])[H])C([H])([H])OC(=O)C34[H])c([H])c([H])c2C1([H])[H]

$$$$
15:0:0
     RDKit          3D

 89 96  0  0  1  0  0  0  0  0999 V2000
  -29.7240  -20.6670   20.1340 C   0  0  0  0  0  3  0  0  0  0  0  0
  -29.3230  -19.0800   20.3660 C   0  0  0  0  0  0  0  0  0  0  0  0
  -28.2550  -18.8670   20.9450 O   0  0  0  0  0  0  0  0  0  0  0  0
  -30.2450  -17.7640   19.8450 C   0  0  0  0  0  3  0  0  0  0  0  0
  -30.8140  -15.1090   20.3180 C   0  0  0  0  0  0  0  0  0  0  0  0
  -30.7160  -12.7720   19.3870 C   0  0  0  0  0  2  0  0  0  0  0  0
  -29.7810  -12.7490   18.1590 C   0  0  0  0  0  2  0  0  0  0  0  0
  -28.3050  -12.5760   18.5700 C   0  0  0  0  0  2  0  0  0  0  0  0
  -27.9040  -13.4700   19.7690 C   0  0  0  0  0  3  0  0  0  0  0  0
  -28.9560  -13.4510   20.8940 C   0  0  0  0  0  2  0  0  0  0  0  0
  -30.2320  -13.8480   20.2910 N   0  0  0  0  0  0  0  0  0  0  0  0
  -32.0280  -15.1780   20.1070 O   0  0  0  0  0  0  0  0  0  0  0  0
  -29.9940  -16.2680   20.3140 N   0  0  0  0  0  0  0  0  0  0  0  0
  -29.0190  -16.0530   20.4620 H   0  0  0  0  0  0  0  0  0  0  0  0
  -25.5230  -14.0170   20.5130 C   0  0  0  0  0  0  0  0  0  0  0  0
  -24.4590  -13.2260   20.8520 C   0  0  0  0  0  0  0  0  0  0  0  0
  -24.9410  -11.8810   20.8240 C   0  0  0  0  0  0  0  0  0  0  0  0
  -26.5720  -13.1500   20.2650 N   0  0  0  0  0  0  0  0  0  0  0  0
  -26.2350  -11.8590   20.5170 N   0  0  0  0  0  0  0  0  0  0  0  0
  -24.2210  -10.6140   20.9960 C   0  0  0  0  0  0  0  0  0  0  0  0
  -24.6200   -9.6710   21.9670 C   0  0  0  0  0  3  0  0  0  0  0  0
  -23.8960   -8.4710   22.1270 C   0  0  0  0  0  3  0  0  0  0  0  0
  -22.7640   -8.2110   21.3200 C   0  0  0  0  0  0  0  0  0  0  0  0
  -22.3940   -9.1420   20.3330 C   0  0  0  0  0  3  0  0  0  0  0  0
  -23.1180  -10.3320   20.1710 C   0  0  0  0  0  3  0  0  0  0  0  0
  -22.0130   -7.0650   21.3870 O   0  0  0  0  0  0  0  0  0  0  0  0
  -21.8570   -6.3750   22.5610 C   0  0  0  0  0  0  0  0  0  0  0  0
  -21.2620   -6.9540   23.7030 C   0  0  0  0  0  3  0  0  0  0  0  0
  -21.0690   -6.1820   24.8650 C   0  0  0  0  0  3  0  0  0  0  0  0
  -21.4610   -4.8300   24.8840 C   0  0  0  0  0  0  0  0  0  0  0  0
  -22.0490   -4.2490   23.7460 C   0  0  0  0  0  3  0  0  0  0  0  0
  -22.2440   -5.0210   22.5890 C   0  0  0  0  0  0  0  0  0  0  0  0
  -22.7930   -4.4510   21.4890 F   0  0  0  0  0  0  0  0  0  0  0  0
  -21.2630   -4.0830   25.9950 F   0  0  0  0  0  0  0  0  0  0  0  0
  -23.0580  -13.6930   21.0890 C   0  0  0  0  0  0  0  0  0  0  0  0
  -22.3340  -12.9940   21.9580 N   0  0  0  0  0  0  0  0  0  0  0  0
  -22.6150  -14.7020   20.5410 O   0  0  0  0  0  0  0  0  0  0  0  0
  -22.7150  -12.1760   22.4080 H   0  0  0  0  0  0  0  0  0  0  0  0
  -21.3880  -13.2750   22.1700 H   0  0  0  0  0  0  0  0  0  0  0  0
  -25.6540  -15.3950   20.3640 N   0  0  0  0  0  0  0  0  0  0  0  0
  -24.8260  -15.9680   20.4550 H   0  0  0  0  0  0  0  0  0  0  0  0
  -26.4300  -15.8950   19.9530 H   0  0  0  0  0  0  0  0  0  0  0  0
  -30.3900  -17.7890   18.2840 C   0  0  0  0  0  2  0  0  0  0  0  0
  -27.8960  -18.3940   17.6530 C   0  0  0  0  0  1  0  0  0  0  0  0
  -29.3990  -18.6780   17.4620 C   0  0  0  0  0  2  0  0  0  0  0  0
  -28.6840  -21.9830   20.0970 C   0  0  0  0  0  3  0  0  0  0  0  0
  -29.1220  -23.5880   20.3180 C   0  0  0  0  0  3  0  0  0  0  0  0
  -28.1160  -24.8760   20.0070 C   0  0  0  0  0  3  0  0  0  0  0  0
  -28.3440  -26.3690   20.3060 O   0  0  0  0  0  0  0  0  0  0  0  0
  -24.6640  -31.9790   23.3100 C   0  0  0  0  0  0  0  0  0  0  0  0
  -27.2620  -27.3130   20.2470 C   0  0  0  0  0  0  0  0  0  0  0  0
  -23.4640  -30.5670   21.6850 C   0  0  0  0  0  3  0  0  0  0  0  0
  -24.9090  -29.0060   20.2490 C   0  0  0  0  0  0  0  0  0  0  0  0
  -26.0150  -30.8510   21.5080 C   0  0  0  0  0  2  0  0  0  0  0  0
  -26.0900  -29.4700   20.8480 C   0  0  0  0  0  0  0  0  0  0  0  0
  -27.2640  -28.6340   20.8320 C   0  0  0  0  0  3  0  0  0  0  0  0
  -26.0550  -26.9420   19.6120 C   0  0  0  0  0  3  0  0  0  0  0  0
  -24.9050  -27.7590   19.6190 C   0  0  0  0  0  3  0  0  0  0  0  0
  -23.6750  -29.8900   20.3050 C   0  0  0  0  0  2  0  0  0  0  0  0
  -24.7320  -31.1560   22.2200 N   0  0  0  0  0  0  0  0  0  0  0  0
  -23.5770  -32.2580   23.8430 O   0  0  0  0  0  0  0  0  0  0  0  0
  -22.8000  -29.5580   22.6540 C   0  0  0  0  0  0  0  0  0  0  0  0
  -21.4810  -29.3460   22.5090 N   0  0  0  0  0  0  0  0  0  0  0  0
  -23.4780  -28.9640   23.4970 O   0  0  0  0  0  0  0  0  0  0  0  0
  -20.9930  -29.8690   21.7960 H   0  0  0  0  0  0  0  0  0  0  0  0
  -18.1290  -28.0450   22.9700 C   0  0  0  0  0  0  0  0  0  0  0  0
  -20.6720  -28.4010   23.2870 C   0  0  0  0  0  3  0  0  0  0  0  0
  -20.8340  -26.9600   22.7530 C   0  0  0  0  0  2  0  0  0  0  0  0
  -19.7690  -26.5740   21.7250 C   0  0  0  0  0  2  0  0  0  0  0  0
  -18.3670  -26.6870   22.3310 C   0  0  0  0  0  2  0  0  0  0  0  0
  -19.2120  -28.8570   23.4030 C   0  0  0  0  0  0  0  0  0  0  0  0
  -18.9360  -30.1230   23.9620 C   0  0  0  0  0  3  0  0  0  0  0  0
  -17.6110  -30.5850   24.0870 C   0  0  0  0  0  3  0  0  0  0  0  0
  -16.5430  -29.7730   23.6680 C   0  0  0  0  0  3  0  0  0  0  0  0
  -16.8020  -28.5060   23.1190 C   0  0  0  0  0  3  0  0  0  0  0  0
  -25.9440  -32.6230   23.9260 C   0  0  0  0  0  3  0  0  0  0  0  0
  -25.6290  -34.0250   24.2550 N   0  0  0  0  0  0  0  0  0  0  0  0
  -25.9540  -35.0760   23.4960 C   0  0  0  0  0  0  0  0  0  0  0  0
  -26.6140  -34.9690   22.4590 O   0  0  0  0  0  0  0  0  0  0  0  0
  -25.0490  -34.1770   25.0650 H   0  0  0  0  0  0  0  0  0  0  0  0
  -24.2350  -36.8690   23.1180 C   0  0  0  0  0  1  0  0  0  0  0  0
  -25.4650  -36.4670   23.9460 C   0  0  0  0  0  3  0  0  0  0  0  0
  -27.5870  -37.3500   24.8080 C   0  0  0  0  0  1  0  0  0  0  0  0
  -26.5030  -37.5140   23.8430 N   0  0  0  0  0  0  0  0  0  0  0  0
  -26.1080  -38.4420   23.9700 H   0  0  0  0  0  0  0  0  0  0  0  0
  -26.4620  -31.8630   25.2100 C   0  0  1  0  0  0  0  0  0  0  0  0
  -25.3650  -31.6140   26.2750 C   0  0  0  0  0  1  0  0  0  0  0  0
  -27.0600  -30.4880   24.8360 C   0  0  0  0  0  1  0  0  0  0  0  0
  -27.6080  -32.6650   25.8640 C   0  0  0  0  0  1  0  0  0  0  0  0
  1  2  1  0
  2  3  2  0
  4 43  1  0
  4 13  1  0
  4  2  1  0
  6 11  1  0
  7  8  1  0
  7  6  1  0
  9  8  1  0
  9 18  1  0
  9 10  1  0
 11  5  1  0
 11 10  1  0
 12  5  2  0
 13  5  1  0
 13 14  1  0
 15 16  2  0
 16 35  1  0
 17 16  1  0
 17 20  1  0
 18 15  1  0
 18 19  1  0
 19 17  2  0
 20 21  1  0
 21 22  2  0
 23 26  1  0
 23 22  1  0
 24 23  2  0
 25 24  1  0
 25 20  2  0
 26 27  1  0
 27 32  2  0
 27 28  1  0
 28 29  2  0
 29 30  1  0
 30 34  1  0
 31 30  2  0
 32 31  1  0
 33 32  1  0
 35 36  1  0
 36 39  1  0
 36 38  1  0
 37 35  2  0
 40 41  1  0
 40 15  1  0
 42 40  1  0
 45 44  1  0
 45 43  1  0
 46  1  2  0
 46 47  1  0
 48 49  1  0
 48 47  2  0
 50 61  2  0
 51 49  1  0
 51 56  1  0
 52 60  1  0
 52 62  1  0
 53 59  1  0
 53 55  1  0
 54 60  1  0
 55 54  1  0
 56 55  2  0
 57 58  1  0
 57 51  2  0
 58 53  2  0
 59 52  1  0
 60 50  1  0
 62 64  2  0
 63 62  1  0
 65 63  1  0
 66 75  2  0
 66 71  1  0
 67 63  1  0
 67 71  1  0
 68 67  1  0
 69 70  1  0
 69 68  1  0
 70 66  1  0
 71 72  2  0
 72 73  1  0
 74 73  2  0
 75 74  1  0
 76 50  1  0
 76 77  1  0
 76 86  1  0
 77 80  1  0
 78 82  1  0
 78 77  1  0
 79 78  2  0
 82 81  1  0
 84 82  1  0
 84 85  1  0
 84 83  1  0
 86 89  1  1
 86 87  1  0
 88 86  1  0
M  ISO  4   5 100  13 100  48 101  49 101
M  END
>  <TORSDO>  (16) 
F 23

>  <SCORE>  (16) 
-12.402

>  <name>  (16) 
15

>  <ligand_id>  (16) 
15

>  <original_smiles>  (16) 
[H]c1c([H])c([H])c2c(c1[H])C([H])([H])C([H])([H])C([H])([H])C2([H])N([H])C(=O)C1([H])N(C(=O)C([H])(N([H])C(=O)C([H])(N([H])C([H])([H])[H])C([H])([H])[H])C(C([H])([H])[H])(C([H])([H])[H])C([H])([H])[H])C([H])([H])c2c([H])c(OC([H])([H])C([H])([H])C([H])([H])C([H])([H])C(=O)C([H])(N([H])C(=O)N3C([H])([H])C([H])([H])C([H])([H])C([H])(n4nc(-c5c([H])c([H])c(Oc6c([H])c([H])c(F)c([H])c6F)c([H])c5[H])c(C(=O)N([H])[H])c4N([H])[H])C3([H])[H])C([H])([H])C([H])([H])C([H])([H])[H])c([H])c([H])c2C1([H])[H]

>  <smiles>  (16) 
[H]c1c([H])c([H])c2c(c1[H])C([H])([H])C([H])([H])C([H])([H])C2([H])N([H])C(=O)C1([H])N(C(=O)C([H])(N([H])C(=O)C([H])(N([H])C([H])([H])[H])C([H])([H])[H])C(C([H])([H])[H])(C([H])([H])[H])C([H])([H])[H])C([H])([H])c2c([H])c(OC([H])([H])C([H])([H])C([H])([H])C([H])([H])C(=O)C([H])(N([H])C(=O)N3C([H])([H])C([H])([H])C([H])([H])C([H])(n4nc(-c5c([H])c([H])c(Oc6c([H])c([H])c(F)c([H])c6F)c([H])c5[H])c(C(=O)N([H])[H])c4N([H])[H])C3([H])[H])C([H])([H])C([H])([H])C([H])([H])[H])c([H])c([H])c2C1([H])[H]

$$$$
16:0:0
     RDKit          3D

 94101  0  0  1  0  0  0  0  0999 V2000
  -28.5650  -21.9080   20.5060 C   0  0  0  0  0  0  0  0  0  0  0  0
  -27.7720  -21.7300   21.4330 O   0  0  0  0  0  0  0  0  0  0  0  0
  -29.3180  -20.5640   19.9360 C   0  0  0  0  0  3  0  0  0  0  0  0
  -29.2390  -19.0000   20.5720 C   0  0  0  0  0  3  0  0  0  0  0  0
  -30.2440  -17.7220   20.1070 C   0  0  1  0  0  0  0  0  0  0  0  0
  -30.6180  -14.9910   20.2620 C   0  0  0  0  0  0  0  0  0  0  0  0
  -30.4400  -12.6780   19.2760 C   0  0  0  0  0  2  0  0  0  0  0  0
  -29.5040  -12.6850   18.0450 C   0  0  0  0  0  2  0  0  0  0  0  0
  -28.0430  -12.4780   18.4840 C   0  0  0  0  0  2  0  0  0  0  0  0
  -27.6550  -13.3730   19.6890 C   0  0  0  0  0  3  0  0  0  0  0  0
  -28.7160  -13.3500   20.8090 C   0  0  0  0  0  2  0  0  0  0  0  0
  -29.9860  -13.7540   20.2000 N   0  0  0  0  0  0  0  0  0  0  0  0
  -31.8100  -15.0050   19.9430 O   0  0  0  0  0  0  0  0  0  0  0  0
  -29.8920  -16.2070   20.4460 N   0  0  0  0  0  0  0  0  0  0  0  0
  -28.9310  -16.0570   20.7150 H   0  0  0  0  0  0  0  0  0  0  0  0
  -25.2700  -13.9330   20.4370 C   0  0  0  0  0  0  0  0  0  0  0  0
  -24.2130  -13.1490   20.8090 C   0  0  0  0  0  0  0  0  0  0  0  0
  -24.6890  -11.8020   20.7780 C   0  0  0  0  0  0  0  0  0  0  0  0
  -26.3190  -13.0630   20.1910 N   0  0  0  0  0  0  0  0  0  0  0  0
  -25.9810  -11.7770   20.4660 N   0  0  0  0  0  0  0  0  0  0  0  0
  -23.9730  -10.5320   20.9720 C   0  0  0  0  0  0  0  0  0  0  0  0
  -24.4070   -9.5740   21.9140 C   0  0  0  0  0  3  0  0  0  0  0  0
  -23.6900   -8.3710   22.0950 C   0  0  0  0  0  3  0  0  0  0  0  0
  -22.5230   -8.1200   21.3340 C   0  0  0  0  0  0  0  0  0  0  0  0
  -22.1070   -9.0660   20.3820 C   0  0  0  0  0  3  0  0  0  0  0  0
  -22.8260  -10.2610   20.1990 C   0  0  0  0  0  3  0  0  0  0  0  0
  -21.7780   -6.9680   21.4240 O   0  0  0  0  0  0  0  0  0  0  0  0
  -21.7260   -6.2340   22.5810 C   0  0  0  0  0  0  0  0  0  0  0  0
  -21.2760   -6.7910   23.7970 C   0  0  0  0  0  3  0  0  0  0  0  0
  -21.1690   -5.9820   24.9460 C   0  0  0  0  0  3  0  0  0  0  0  0
  -21.5060   -4.6170   24.8820 C   0  0  0  0  0  0  0  0  0  0  0  0
  -21.9490   -4.0590   23.6690 C   0  0  0  0  0  3  0  0  0  0  0  0
  -22.0560   -4.8640   22.5230 C   0  0  0  0  0  0  0  0  0  0  0  0
  -22.4640   -4.3160   21.3540 F   0  0  0  0  0  0  0  0  0  0  0  0
  -21.3970   -3.8400   25.9840 F   0  0  0  0  0  0  0  0  0  0  0  0
  -22.8120  -13.6150   21.0780 C   0  0  0  0  0  0  0  0  0  0  0  0
  -22.0900  -12.9170   21.9480 N   0  0  0  0  0  0  0  0  0  0  0  0
  -22.3650  -14.6360   20.5530 O   0  0  0  0  0  0  0  0  0  0  0  0
  -22.4640  -12.0950   22.3970 H   0  0  0  0  0  0  0  0  0  0  0  0
  -21.1490  -13.2100   22.1700 H   0  0  0  0  0  0  0  0  0  0  0  0
  -25.4220  -15.3050   20.2600 N   0  0  0  0  0  0  0  0  0  0  0  0
  -24.6500  -15.9520   20.3780 H   0  0  0  0  0  0  0  0  0  0  0  0
  -26.2610  -15.7480   19.9120 H   0  0  0  0  0  0  0  0  0  0  0  0
  -31.2410  -18.6640   17.8230 C   0  0  0  0  0  1  0  0  0  0  0  0
  -30.2510  -17.7390   18.5480 C   0  0  0  0  0  2  0  0  0  0  0  0
  -32.2010  -19.3820   20.9300 C   0  0  0  0  0  1  0  0  0  0  0  0
  -31.6570  -17.9540   20.7440 C   0  0  0  0  0  2  0  0  0  0  0  0
  -28.7920  -23.4620   19.9060 C   0  0  0  0  0  3  0  0  0  0  0  0
  -28.4880  -23.3930   18.4600 N   0  0  0  0  0  4  0  0  0  0  0  0
  -27.5330  -23.1180   18.2920 H   0  0  0  0  0  0  0  0  0  0  0  0
  -29.0880  -22.7360   17.9970 H   0  0  0  0  0  0  0  0  0  0  0  0
  -28.6350  -24.2950   18.0350 H   0  0  0  0  0  0  0  0  0  0  0  0
  -28.0070  -24.7830   20.5530 C   0  0  0  0  0  2  0  0  0  0  0  0
  -28.2660  -26.2730   20.2140 O   0  0  0  0  0  0  0  0  0  0  0  0
  -24.6090  -31.8970   23.2350 C   0  0  0  0  0  0  0  0  0  0  0  0
  -27.1970  -27.2270   20.1970 C   0  0  0  0  0  0  0  0  0  0  0  0
  -23.4100  -30.4950   21.6000 C   0  0  0  0  0  3  0  0  0  0  0  0
  -24.8620  -28.9410   20.1640 C   0  0  0  0  0  0  0  0  0  0  0  0
  -25.9570  -30.7870   21.4210 C   0  0  0  0  0  2  0  0  0  0  0  0
  -26.0390  -29.4000   20.7700 C   0  0  0  0  0  0  0  0  0  0  0  0
  -27.2110  -28.5610   20.7640 C   0  0  0  0  0  3  0  0  0  0  0  0
  -25.9970  -26.8650   19.5500 C   0  0  0  0  0  3  0  0  0  0  0  0
  -24.8550  -27.6890   19.5340 C   0  0  0  0  0  3  0  0  0  0  0  0
  -23.6280  -29.8260   20.2190 C   0  0  0  0  0  2  0  0  0  0  0  0
  -24.6780  -31.0810   22.1410 N   0  0  0  0  0  0  0  0  0  0  0  0
  -23.5240  -32.1730   23.7680 O   0  0  0  0  0  0  0  0  0  0  0  0
  -22.7470  -29.4780   22.5610 C   0  0  0  0  0  0  0  0  0  0  0  0
  -21.4180  -29.3010   22.4420 N   0  0  0  0  0  0  0  0  0  0  0  0
  -23.4280  -28.8530   23.3780 O   0  0  0  0  0  0  0  0  0  0  0  0
  -20.9260  -29.8590   21.7590 H   0  0  0  0  0  0  0  0  0  0  0  0
  -18.0440  -28.0930   22.9580 C   0  0  0  0  0  0  0  0  0  0  0  0
  -20.6050  -28.3610   23.2190 C   0  0  0  0  0  3  0  0  0  0  0  0
  -20.7070  -26.9280   22.6470 C   0  0  0  0  0  2  0  0  0  0  0  0
  -19.6030  -26.6000   21.6350 C   0  0  0  0  0  2  0  0  0  0  0  0
  -18.2210  -26.7470   22.2790 C   0  0  0  0  0  2  0  0  0  0  0  0
  -19.1620  -28.8590   23.3850 C   0  0  0  0  0  0  0  0  0  0  0  0
  -18.9400  -30.1180   23.9810 C   0  0  0  0  0  3  0  0  0  0  0  0
  -17.6330  -30.6120   24.1570 C   0  0  0  0  0  3  0  0  0  0  0  0
  -16.5300  -29.8440   23.7450 C   0  0  0  0  0  3  0  0  0  0  0  0
  -16.7370  -28.5880   23.1500 C   0  0  0  0  0  3  0  0  0  0  0  0
  -25.8890  -32.5360   23.8570 C   0  0  0  0  0  3  0  0  0  0  0  0
  -26.4050  -31.7690   25.1350 C   0  0  1  0  0  0  0  0  0  0  0  0
  -25.3100  -31.5380   26.2020 C   0  0  0  0  0  1  0  0  0  0  0  0
  -26.9890  -30.3890   24.7550 C   0  0  0  0  0  1  0  0  0  0  0  0
  -27.5550  -32.5680   25.7950 C   0  0  0  0  0  1  0  0  0  0  0  0
  -25.5710  -33.9340   24.1870 N   0  0  0  0  0  0  0  0  0  0  0  0
  -25.8990  -34.9910   23.4300 C   0  0  0  0  0  0  0  0  0  0  0  0
  -26.5660  -34.8900   22.3980 O   0  0  0  0  0  0  0  0  0  0  0  0
  -24.9770  -34.0850   24.9890 H   0  0  0  0  0  0  0  0  0  0  0  0
  -24.1690  -36.7820   23.0790 C   0  0  0  0  0  1  0  0  0  0  0  0
  -25.4110  -36.3780   23.8900 C   0  0  0  0  0  3  0  0  0  0  0  0
  -27.5450  -37.2650   24.7210 C   0  0  0  0  0  1  0  0  0  0  0  0
  -26.4420  -37.4320   23.7770 N   0  0  0  0  0  0  0  0  0  0  0  0
  -26.0360  -38.3530   23.9230 H   0  0  0  0  0  0  0  0  0  0  0  0
  1  2  2  0
  3  1  1  0
  3  4  2  0
  5 14  1  0
  5  4  1  0
  5 47  1  1
  6 14  1  0
  7 12  1  0
  8  9  1  0
  8  7  1  0
 10  9  1  0
 10 19  1  0
 10 11  1  0
 12  6  1  0
 12 11  1  0
 13  6  2  0
 14 15  1  0
 16 17  2  0
 17 36  1  0
 18 17  1  0
 18 21  1  0
 19 16  1  0
 19 20  1  0
 20 18  2  0
 21 22  1  0
 22 23  2  0
 24 27  1  0
 24 23  1  0
 25 24  2  0
 26 25  1  0
 26 21  2  0
 27 28  1  0
 28 29  1  0
 29 30  2  0
 31 30  1  0
 31 35  1  0
 32 31  2  0
 33 28  2  0
 33 32  1  0
 34 33  1  0
 36 37  1  0
 37 40  1  0
 37 39  1  0
 38 36  2  0
 41 42  1  0
 41 16  1  0
 43 41  1  0
 44 45  1  0
 45  5  1  0
 47 46  1  0
 48  1  1  0
 48 53  1  0
 49 48  1  0
 50 49  1  0
 51 49  1  0
 52 49  1  0
 54 53  1  0
 55 66  2  0
 56 54  1  0
 56 61  1  0
 57 65  1  0
 57 67  1  0
 58 64  1  0
 58 60  1  0
 59 65  1  0
 60 59  1  0
 61 60  2  0
 62 56  2  0
 63 62  1  0
 63 58  2  0
 64 57  1  0
 65 55  1  0
 67 69  2  0
 68 67  1  0
 70 68  1  0
 71 80  2  0
 71 76  1  0
 72 68  1  0
 72 76  1  0
 73 72  1  0
 74 75  1  0
 74 73  1  0
 75 71  1  0
 76 77  2  0
 77 78  1  0
 79 78  2  0
 80 79  1  0
 81 55  1  0
 81 86  1  0
 81 82  1  0
 82 85  1  1
 82 83  1  0
 84 82  1  0
 86 89  1  0
 87 91  1  0
 87 86  1  0
 88 87  2  0
 91 90  1  0
 93 91  1  0
 93 94  1  0
 93 92  1  0
M  ISO  4   6 100  14 100  53 101  54 101
M  END
>  <TORSDO>  (17) 
F 24

>  <SCORE>  (17) 
-12.763

>  <name>  (17) 
16

>  <ligand_id>  (17) 
16

>  <original_smiles>  (17) 
[H]c1c([H])c([H])c2c(c1[H])C([H])([H])C([H])([H])C([H])([H])C2([H])N([H])C(=O)C1([H])N(C(=O)C([H])(N([H])C(=O)C([H])(N([H])C([H])([H])[H])C([H])([H])[H])C(C([H])([H])[H])(C([H])([H])[H])C([H])([H])[H])C([H])([H])c2c([H])c(OC([H])([H])C([H])(C(=O)C([H])([H])C([H])([H])C(N([H])C(=O)N3C([H])([H])C([H])([H])C([H])([H])C([H])(n4nc(-c5c([H])c([H])c(Oc6c([H])c([H])c(F)c([H])c6F)c([H])c5[H])c(C(=O)N([H])[H])c4N([H])[H])C3([H])[H])(C([H])([H])C([H])([H])[H])C([H])([H])C([H])([H])[H])[N+]([H])([H])[H])c([H])c([H])c2C1([H])[H]

>  <smiles>  (17) 
[H]c1c([H])c([H])c2c(c1[H])C([H])([H])C([H])([H])C([H])([H])C2([H])N([H])C(=O)C1([H])N(C(=O)C([H])(N([H])C(=O)C([H])(N([H])C([H])([H])[H])C([H])([H])[H])C(C([H])([H])[H])(C([H])([H])[H])C([H])([H])[H])C([H])([H])c2c([H])c(OC([H])([H])C([H])(C(=O)C([H])([H])C([H])([H])C(N([H])C(=O)N3C([H])([H])C([H])([H])C([H])([H])C([H])(n4nc(-c5c([H])c([H])c(Oc6c([H])c([H])c(F)c([H])c6F)c([H])c5[H])c(C(=O)N([H])[H])c4N([H])[H])C3([H])[H])(C([H])([H])C([H])([H])[H])C([H])([H])C([H])([H])[H])[N+]([H])([H])[H])c([H])c([H])c2C1([H])[H]

$$$$
17:0:0
     RDKit          3D

 89 98  0  0  1  0  0  0  0  0999 V2000
  -29.3010  -20.9450   20.7250 N   0  0  0  0  0  4  0  0  0  0  0  0
  -30.2580  -21.2220   20.8750 H   0  0  0  0  0  0  0  0  0  0  0  0
  -28.8840  -20.8800   21.6400 H   0  0  0  0  0  0  0  0  0  0  0  0
  -30.7140  -14.8190   20.2170 C   0  0  0  0  0  0  0  0  0  0  0  0
  -30.3950  -12.5570   19.2080 C   0  0  0  0  0  2  0  0  0  0  0  0
  -29.4450  -12.6000   17.9960 C   0  0  0  0  0  2  0  0  0  0  0  0
  -27.9900  -12.4180   18.4620 C   0  0  0  0  0  2  0  0  0  0  0  0
  -27.6320  -13.3200   19.6740 C   0  0  0  0  0  3  0  0  0  0  0  0
  -28.7160  -13.2880   20.7730 C   0  0  0  0  0  2  0  0  0  0  0  0
  -29.9830  -13.6490   20.1290 N   0  0  0  0  0  0  0  0  0  0  0  0
  -31.9110  -14.7610   19.9200 O   0  0  0  0  0  0  0  0  0  0  0  0
  -31.0460  -17.3140   20.4140 C   0  0  0  0  0  2  0  0  0  0  0  0
  -28.8260  -16.7280   20.5280 C   0  0  0  0  0  2  0  0  0  0  0  0
  -30.3320  -18.5940   20.8980 C   0  0  0  0  0  3  0  0  0  0  0  0
  -28.8810  -18.2580   20.9200 C   0  0  0  0  0  3  0  0  0  0  0  0
  -29.3760  -19.5210   20.1100 C   0  0  0  0  0  3  0  0  0  0  0  0
  -30.1770  -16.1060   20.4190 N   0  0  0  0  0  0  0  0  0  0  0  0
  -25.2610  -13.8870   20.4560 C   0  0  0  0  0  0  0  0  0  0  0  0
  -24.2080  -13.1030   20.8400 C   0  0  0  0  0  0  0  0  0  0  0  0
  -24.6800  -11.7560   20.7970 C   0  0  0  0  0  0  0  0  0  0  0  0
  -26.3060  -13.0160   20.1980 N   0  0  0  0  0  0  0  0  0  0  0  0
  -25.9660  -11.7290   20.4690 N   0  0  0  0  0  0  0  0  0  0  0  0
  -23.9650  -10.4870   20.9930 C   0  0  0  0  0  0  0  0  0  0  0  0
  -24.3990   -9.5320   21.9370 C   0  0  0  0  0  3  0  0  0  0  0  0
  -23.6820   -8.3300   22.1200 C   0  0  0  0  0  3  0  0  0  0  0  0
  -22.5150   -8.0760   21.3610 C   0  0  0  0  0  0  0  0  0  0  0  0
  -22.0990   -9.0210   20.4060 C   0  0  0  0  0  3  0  0  0  0  0  0
  -22.8180  -10.2140   20.2200 C   0  0  0  0  0  3  0  0  0  0  0  0
  -21.7690   -6.9260   21.4540 O   0  0  0  0  0  0  0  0  0  0  0  0
  -21.6940   -6.2090   22.6220 C   0  0  0  0  0  0  0  0  0  0  0  0
  -21.1930   -6.7770   23.8130 C   0  0  0  0  0  3  0  0  0  0  0  0
  -21.0690   -5.9840   24.9720 C   0  0  0  0  0  3  0  0  0  0  0  0
  -21.4360   -4.6260   24.9400 C   0  0  0  0  0  0  0  0  0  0  0  0
  -21.9290   -4.0580   23.7530 C   0  0  0  0  0  3  0  0  0  0  0  0
  -22.0550   -4.8470   22.5960 C   0  0  0  0  0  0  0  0  0  0  0  0
  -22.5120   -4.2900   21.4490 F   0  0  0  0  0  0  0  0  0  0  0  0
  -21.3090   -3.8620   26.0500 F   0  0  0  0  0  0  0  0  0  0  0  0
  -22.8120  -13.5710   21.1330 C   0  0  0  0  0  0  0  0  0  0  0  0
  -22.1010  -12.8670   22.0060 N   0  0  0  0  0  0  0  0  0  0  0  0
  -22.3620  -14.5970   20.6230 O   0  0  0  0  0  0  0  0  0  0  0  0
  -22.4800  -12.0390   22.4410 H   0  0  0  0  0  0  0  0  0  0  0  0
  -21.1650  -13.1610   22.2460 H   0  0  0  0  0  0  0  0  0  0  0  0
  -25.4120  -15.2580   20.2780 N   0  0  0  0  0  0  0  0  0  0  0  0
  -24.6390  -15.9050   20.3990 H   0  0  0  0  0  0  0  0  0  0  0  0
  -26.2490  -15.7020   19.9250 H   0  0  0  0  0  0  0  0  0  0  0  0
  -28.6440  -22.1380   19.9990 C   0  0  0  0  0  2  0  0  0  0  0  0
  -28.8990  -23.6650   20.5400 C   0  0  0  0  0  3  0  0  0  0  0  0
  -28.0340  -24.9110   19.9540 C   0  0  0  0  0  3  0  0  0  0  0  0
  -28.2610  -26.3680   20.3070 O   0  0  0  0  0  0  0  0  0  0  0  0
  -24.5710  -31.9110   23.2430 C   0  0  0  0  0  0  0  0  0  0  0  0
  -27.1870  -27.2930   20.2100 C   0  0  0  0  0  0  0  0  0  0  0  0
  -23.3850  -30.5200   21.5870 C   0  0  0  0  0  3  0  0  0  0  0  0
  -24.8470  -28.9700   20.1670 C   0  0  0  0  0  0  0  0  0  0  0  0
  -25.9330  -30.8120   21.4420 C   0  0  0  0  0  2  0  0  0  0  0  0
  -26.0140  -29.4320   20.7900 C   0  0  0  0  0  0  0  0  0  0  0  0
  -27.1860  -28.6050   20.8030 C   0  0  0  0  0  3  0  0  0  0  0  0
  -26.0030  -26.9200   19.5350 C   0  0  0  0  0  3  0  0  0  0  0  0
  -24.8490  -27.7240   19.5280 C   0  0  0  0  0  3  0  0  0  0  0  0
  -23.6150  -29.8530   20.2060 C   0  0  0  0  0  2  0  0  0  0  0  0
  -24.6480  -31.1000   22.1460 N   0  0  0  0  0  0  0  0  0  0  0  0
  -23.4800  -32.1920   23.7620 O   0  0  0  0  0  0  0  0  0  0  0  0
  -22.7060  -29.5010   22.5350 C   0  0  0  0  0  0  0  0  0  0  0  0
  -21.3800  -29.3340   22.4000 N   0  0  0  0  0  0  0  0  0  0  0  0
  -23.3740  -28.8670   23.3570 O   0  0  0  0  0  0  0  0  0  0  0  0
  -20.9000  -29.8990   21.7110 H   0  0  0  0  0  0  0  0  0  0  0  0
  -17.9850  -28.1780   22.8960 C   0  0  0  0  0  0  0  0  0  0  0  0
  -20.5480  -28.3980   23.1590 C   0  0  0  0  0  3  0  0  0  0  0  0
  -20.6270  -26.9720   22.5640 C   0  0  0  0  0  2  0  0  0  0  0  0
  -19.5160  -26.6800   21.5490 C   0  0  0  0  0  2  0  0  0  0  0  0
  -18.1390  -26.8360   22.2000 C   0  0  0  0  0  2  0  0  0  0  0  0
  -19.1170  -28.9190   23.3310 C   0  0  0  0  0  0  0  0  0  0  0  0
  -18.9180  -30.1760   23.9430 C   0  0  0  0  0  3  0  0  0  0  0  0
  -17.6210  -30.6930   24.1220 C   0  0  0  0  0  3  0  0  0  0  0  0
  -16.5040  -29.9500   23.7020 C   0  0  0  0  0  3  0  0  0  0  0  0
  -16.6870  -28.6950   23.0940 C   0  0  0  0  0  3  0  0  0  0  0  0
  -25.8440  -32.5430   23.8810 C   0  0  0  0  0  3  0  0  0  0  0  0
  -26.3330  -31.7810   25.1740 C   0  0  1  0  0  0  0  0  0  0  0  0
  -25.2180  -31.5540   26.2220 C   0  0  0  0  0  1  0  0  0  0  0  0
  -26.9210  -30.3980   24.8080 C   0  0  0  0  0  1  0  0  0  0  0  0
  -27.4730  -32.5770   25.8530 C   0  0  0  0  0  1  0  0  0  0  0  0
  -25.5350  -33.9450   24.1970 N   0  0  0  0  0  0  0  0  0  0  0  0
  -25.8780  -34.9920   23.4340 C   0  0  0  0  0  0  0  0  0  0  0  0
  -26.5550  -34.8790   22.4090 O   0  0  0  0  0  0  0  0  0  0  0  0
  -24.9360  -34.1080   24.9920 H   0  0  0  0  0  0  0  0  0  0  0  0
  -24.1640  -36.7940   23.0500 C   0  0  0  0  0  1  0  0  0  0  0  0
  -25.3930  -36.3860   23.8770 C   0  0  0  0  0  3  0  0  0  0  0  0
  -27.5180  -37.2690   24.7350 C   0  0  0  0  0  1  0  0  0  0  0  0
  -26.4320  -37.4330   23.7720 N   0  0  0  0  0  0  0  0  0  0  0  0
  -26.0280  -38.3570   23.9040 H   0  0  0  0  0  0  0  0  0  0  0  0
  1  2  1  0
  1  3  1  0
  4 17  1  0
  5 10  1  0
  6  7  1  0
  6  5  1  0
  8  7  1  0
  8 21  1  0
  8  9  1  0
 10  4  1  0
 10  9  1  0
 11  4  2  0
 12 17  1  0
 14 12  1  0
 14 15  1  0
 15 13  1  0
 16  1  1  0
 16 14  1  0
 16 15  1  0
 17 13  1  0
 18 19  2  0
 19 38  1  0
 20 19  1  0
 20 23  1  0
 21 18  1  0
 21 22  1  0
 22 20  2  0
 23 24  1  0
 24 25  2  0
 26 29  1  0
 26 25  1  0
 27 26  2  0
 28 27  1  0
 28 23  2  0
 29 30  1  0
 30 31  1  0
 31 32  2  0
 33 32  1  0
 33 37  1  0
 34 33  2  0
 35 30  2  0
 35 34  1  0
 36 35  1  0
 38 39  1  0
 39 42  1  0
 39 41  1  0
 40 38  2  0
 43 44  1  0
 43 18  1  0
 45 43  1  0
 46 47  1  0
 46  1  1  0
 48 49  1  0
 48 47  2  0
 50 61  2  0
 51 49  1  0
 51 56  1  0
 52 60  1  0
 52 62  1  0
 53 59  1  0
 53 55  1  0
 54 60  1  0
 55 56  2  0
 55 54  1  0
 57 51  2  0
 58 57  1  0
 58 53  2  0
 59 52  1  0
 60 50  1  0
 62 64  2  0
 63 62  1  0
 65 63  1  0
 66 75  2  0
 66 71  1  0
 67 63  1  0
 67 71  1  0
 68 67  1  0
 69 70  1  0
 69 68  1  0
 70 66  1  0
 71 72  2  0
 72 73  1  0
 74 73  2  0
 75 74  1  0
 76 50  1  0
 76 81  1  0
 76 77  1  0
 77 80  1  1
 77 78  1  0
 79 77  1  0
 81 84  1  0
 82 86  1  0
 82 81  1  0
 83 82  2  0
 86 85  1  0
 88 86  1  0
 88 89  1  0
 88 87  1  0
M  ISO  4   4 100  17 100  48 101  49 101
M  END
>  <TORSDO>  (18) 
F 19

>  <SCORE>  (18) 
-14.084

>  <name>  (18) 
17

>  <ligand_id>  (18) 
17

>  <original_smiles>  (18) 
[H]c1c([H])c([H])c2c(c1[H])C([H])([H])C([H])([H])C([H])([H])C2([H])N([H])C(=O)C1([H])N(C(=O)C([H])(N([H])C(=O)C([H])(N([H])C([H])([H])[H])C([H])([H])[H])C(C([H])([H])[H])(C([H])([H])[H])C([H])([H])[H])C([H])([H])c2c([H])c(OC([H])([H])C([H])([H])C([H])([H])[N+]([H])([H])C3([H])C4([H])C([H])([H])N(C(=O)N5C([H])([H])C([H])([H])C([H])([H])C([H])(n6nc(-c7c([H])c([H])c(Oc8c([H])c([H])c(F)c([H])c8F)c([H])c7[H])c(C(=O)N([H])[H])c6N([H])[H])C5([H])[H])C([H])([H])C43[H])c([H])c([H])c2C1([H])[H]

>  <smiles>  (18) 
[H]c1c([H])c([H])c2c(c1[H])C([H])([H])C([H])([H])C([H])([H])C2([H])N([H])C(=O)C1([H])N(C(=O)C([H])(N([H])C(=O)C([H])(N([H])C([H])([H])[H])C([H])([H])[H])C(C([H])([H])[H])(C([H])([H])[H])C([H])([H])[H])C([H])([H])c2c([H])c(OC([H])([H])C([H])([H])C([H])([H])[N+]([H])([H])C3([H])C4([H])C([H])([H])N(C(=O)N5C([H])([H])C([H])([H])C([H])([H])C([H])(n6nc(-c7c([H])c([H])c(Oc8c([H])c([H])c(F)c([H])c8F)c([H])c7[H])c(C(=O)N([H])[H])c6N([H])[H])C5([H])[H])C([H])([H])C43[H])c([H])c([H])c2C1([H])[H]

$$$$
18:0:0
     RDKit          3D

 92101  0  0  1  0  0  0  0  0999 V2000
  -28.1900  -21.6650   19.1830 C   0  0  0  0  0  2  0  0  0  0  0  0
  -28.6800  -21.1110   20.5040 C   0  0  0  0  0  3  0  0  0  0  0  0
  -29.0340  -22.5880   20.0380 C   0  0  0  0  0  3  0  0  0  0  0  0
  -30.9290  -20.1110   21.1540 C   0  0  0  0  0  3  0  0  0  0  0  0
  -29.3120  -18.4890   20.3410 C   0  0  0  0  0  3  0  0  0  0  0  0
  -31.4880  -17.7190   21.1060 C   0  0  0  0  0  3  0  0  0  0  0  0
  -29.6450  -19.8740   20.6180 C   0  0  0  0  0  0  0  0  0  0  0  0
  -31.8250  -19.0520   21.4130 C   0  0  0  0  0  0  0  0  0  0  0  0
  -30.2290  -17.3820   20.5660 C   0  0  0  0  0  0  0  0  0  0  0  0
  -33.1590  -19.3350   22.0740 C   0  0  0  0  0  1  0  0  0  0  0  0
  -30.7050  -14.8450   20.1850 C   0  0  0  0  0  0  0  0  0  0  0  0
  -30.5070  -12.5630   19.1940 C   0  0  0  0  0  2  0  0  0  0  0  0
  -29.5430  -12.6210   17.9910 C   0  0  0  0  0  2  0  0  0  0  0  0
  -28.0800  -12.4470   18.4540 C   0  0  0  0  0  2  0  0  0  0  0  0
  -27.7290  -13.3510   19.6670 C   0  0  0  0  0  3  0  0  0  0  0  0
  -28.8090  -13.2730   20.7670 C   0  0  0  0  0  2  0  0  0  0  0  0
  -30.0890  -13.6200   20.1390 N   0  0  0  0  0  0  0  0  0  0  0  0
  -31.8840  -14.9560   19.8390 O   0  0  0  0  0  0  0  0  0  0  0  0
  -29.8950  -15.9560   20.3660 N   0  0  0  0  0  0  0  0  0  0  0  0
  -28.9110  -15.7400   20.3940 H   0  0  0  0  0  0  0  0  0  0  0  0
  -25.3690  -13.9550   20.4690 C   0  0  0  0  0  0  0  0  0  0  0  0
  -24.3070  -13.1850   20.8620 C   0  0  0  0  0  0  0  0  0  0  0  0
  -24.7590  -11.8300   20.8000 C   0  0  0  0  0  0  0  0  0  0  0  0
  -26.3970  -13.0700   20.1920 N   0  0  0  0  0  0  0  0  0  0  0  0
  -26.0400  -11.7870   20.4540 N   0  0  0  0  0  0  0  0  0  0  0  0
  -24.0290  -10.5710   20.9920 C   0  0  0  0  0  0  0  0  0  0  0  0
  -24.4680   -9.5990   21.9160 C   0  0  0  0  0  3  0  0  0  0  0  0
  -23.7380   -8.4050   22.1010 C   0  0  0  0  0  3  0  0  0  0  0  0
  -22.5550   -8.1750   21.3620 C   0  0  0  0  0  0  0  0  0  0  0  0
  -22.1330   -9.1360   20.4260 C   0  0  0  0  0  3  0  0  0  0  0  0
  -22.8630  -10.3220   20.2410 C   0  0  0  0  0  3  0  0  0  0  0  0
  -21.7970   -7.0320   21.4530 O   0  0  0  0  0  0  0  0  0  0  0  0
  -21.7390   -6.2980   22.6110 C   0  0  0  0  0  0  0  0  0  0  0  0
  -21.2900   -6.8580   23.8270 C   0  0  0  0  0  3  0  0  0  0  0  0
  -21.1790   -6.0510   24.9760 C   0  0  0  0  0  3  0  0  0  0  0  0
  -21.5070   -4.6830   24.9100 C   0  0  0  0  0  0  0  0  0  0  0  0
  -21.9530   -4.1230   23.7000 C   0  0  0  0  0  3  0  0  0  0  0  0
  -22.0640   -4.9280   22.5540 C   0  0  0  0  0  0  0  0  0  0  0  0
  -22.4700   -4.3780   21.3840 F   0  0  0  0  0  0  0  0  0  0  0  0
  -21.3970   -3.9060   26.0120 F   0  0  0  0  0  0  0  0  0  0  0  0
  -22.9220  -13.6670   21.1760 C   0  0  0  0  0  0  0  0  0  0  0  0
  -22.2140  -12.9680   22.0540 N   0  0  0  0  0  0  0  0  0  0  0  0
  -22.4770  -14.7020   20.6780 O   0  0  0  0  0  0  0  0  0  0  0  0
  -22.5860  -12.1320   22.4820 H   0  0  0  0  0  0  0  0  0  0  0  0
  -21.2830  -13.2710   22.3030 H   0  0  0  0  0  0  0  0  0  0  0  0
  -25.5360  -15.3270   20.3020 N   0  0  0  0  0  0  0  0  0  0  0  0
  -24.7740  -15.9820   20.4400 H   0  0  0  0  0  0  0  0  0  0  0  0
  -26.3670  -15.7690   19.9320 H   0  0  0  0  0  0  0  0  0  0  0  0
  -27.1760  -23.8030   21.4090 C   0  0  0  0  0  1  0  0  0  0  0  0
  -28.4870  -23.9700   20.6270 C   0  0  0  0  0  3  0  0  0  0  0  0
  -28.3760  -25.2180   19.6270 C   0  0  0  0  0  2  0  0  0  0  0  0
  -28.3030  -26.6120   20.1560 O   0  0  0  0  0  0  0  0  0  0  0  0
  -24.5680  -31.9540   23.2490 C   0  0  0  0  0  0  0  0  0  0  0  0
  -27.1520  -27.4220   20.1140 C   0  0  0  0  0  0  0  0  0  0  0  0
  -23.3450  -30.5730   21.6080 C   0  0  0  0  0  3  0  0  0  0  0  0
  -24.7780  -29.0340   20.1510 C   0  0  0  0  0  0  0  0  0  0  0  0
  -25.8810  -30.8960   21.3950 C   0  0  0  0  0  2  0  0  0  0  0  0
  -25.9540  -29.5220   20.7320 C   0  0  0  0  0  0  0  0  0  0  0  0
  -27.1390  -28.7280   20.7040 C   0  0  0  0  0  3  0  0  0  0  0  0
  -25.9450  -26.9850   19.5210 C   0  0  0  0  0  3  0  0  0  0  0  0
  -24.7770  -27.7720   19.5380 C   0  0  0  0  0  3  0  0  0  0  0  0
  -23.5410  -29.9100   20.2190 C   0  0  0  0  0  2  0  0  0  0  0  0
  -24.6180  -31.1580   22.1410 N   0  0  0  0  0  0  0  0  0  0  0  0
  -23.4910  -32.2230   23.8020 O   0  0  0  0  0  0  0  0  0  0  0  0
  -22.6970  -29.5460   22.5670 C   0  0  0  0  0  0  0  0  0  0  0  0
  -21.3700  -29.3580   22.4480 N   0  0  0  0  0  0  0  0  0  0  0  0
  -23.3840  -28.9190   23.3780 O   0  0  0  0  0  0  0  0  0  0  0  0
  -20.8710  -29.9180   21.7700 H   0  0  0  0  0  0  0  0  0  0  0  0
  -18.0100  -28.1190   22.9560 C   0  0  0  0  0  0  0  0  0  0  0  0
  -20.5660  -28.4100   23.2190 C   0  0  0  0  0  3  0  0  0  0  0  0
  -20.6830  -26.9800   22.6430 C   0  0  0  0  0  2  0  0  0  0  0  0
  -19.5840  -26.6450   21.6300 C   0  0  0  0  0  2  0  0  0  0  0  0
  -18.2020  -26.7730   22.2770 C   0  0  0  0  0  2  0  0  0  0  0  0
  -19.1200  -28.8930   23.3840 C   0  0  0  0  0  0  0  0  0  0  0  0
  -18.8900  -30.1520   23.9800 C   0  0  0  0  0  3  0  0  0  0  0  0
  -17.5800  -30.6390   24.1520 C   0  0  0  0  0  3  0  0  0  0  0  0
  -16.4830  -29.8630   23.7380 C   0  0  0  0  0  3  0  0  0  0  0  0
  -16.6990  -28.6050   23.1460 C   0  0  0  0  0  3  0  0  0  0  0  0
  -25.8580  -32.5850   23.8600 C   0  0  0  0  0  3  0  0  0  0  0  0
  -26.3810  -31.8170   25.1360 C   0  0  1  0  0  0  0  0  0  0  0  0
  -25.2940  -31.5880   26.2120 C   0  0  0  0  0  1  0  0  0  0  0  0
  -26.9590  -30.4360   24.7500 C   0  0  0  0  0  1  0  0  0  0  0  0
  -27.5340  -32.6130   25.7920 C   0  0  0  0  0  1  0  0  0  0  0  0
  -25.5550  -33.9840   24.1890 N   0  0  0  0  0  0  0  0  0  0  0  0
  -25.8860  -35.0360   23.4280 C   0  0  0  0  0  0  0  0  0  0  0  0
  -26.5490  -34.9300   22.3930 O   0  0  0  0  0  0  0  0  0  0  0  0
  -24.9660  -34.1420   24.9940 H   0  0  0  0  0  0  0  0  0  0  0  0
  -24.1690  -36.8430   23.0770 C   0  0  0  0  0  1  0  0  0  0  0  0
  -25.4070  -36.4270   23.8880 C   0  0  0  0  0  3  0  0  0  0  0  0
  -27.5430  -37.3020   24.7260 C   0  0  0  0  0  1  0  0  0  0  0  0
  -26.4460  -37.4750   23.7770 N   0  0  0  0  0  0  0  0  0  0  0  0
  -26.0420  -38.3970   23.9220 H   0  0  0  0  0  0  0  0  0  0  0  0
  1  3  1  0
  1  2  1  0
  2  7  1  0
  3  2  1  0
  3 50  1  0
  4  8  1  0
  5  9  2  0
  5  7  1  0
  6  8  2  0
  7  4  2  0
  8 10  1  0
  9  6  1  0
 11 19  1  0
 12 17  1  0
 13 14  1  0
 13 12  1  0
 15 14  1  0
 15 24  1  0
 15 16  1  0
 17 11  1  0
 17 16  1  0
 18 11  2  0
 19 20  1  0
 19  9  1  0
 21 22  2  0
 22 41  1  0
 23 22  1  0
 23 26  1  0
 24 25  1  0
 24 21  1  0
 25 23  2  0
 26 27  1  0
 27 28  2  0
 29 32  1  0
 29 28  1  0
 30 29  2  0
 31 30  1  0
 31 26  2  0
 32 33  1  0
 33 34  1  0
 34 35  2  0
 36 35  1  0
 36 40  1  0
 37 36  2  0
 38 33  2  0
 38 37  1  0
 39 38  1  0
 41 42  1  0
 42 45  1  0
 42 44  1  0
 43 41  2  0
 46 47  1  0
 46 21  1  0
 48 46  1  0
 50 49  1  0
 51 52  1  0
 51 50  1  0
 53 64  2  0
 54 52  1  0
 54 59  1  0
 55 63  1  0
 55 65  1  0
 56 62  1  0
 56 58  1  0
 57 63  1  0
 58 57  1  0
 59 58  2  0
 60 61  1  0
 60 54  2  0
 61 56  2  0
 62 55  1  0
 63 53  1  0
 65 67  2  0
 66 65  1  0
 68 66  1  0
 69 78  2  0
 69 74  1  0
 70 66  1  0
 70 74  1  0
 71 70  1  0
 72 73  1  0
 72 71  1  0
 73 69  1  0
 74 75  2  0
 75 76  1  0
 77 76  2  0
 78 77  1  0
 79 53  1  0
 79 84  1  0
 79 80  1  0
 80 83  1  1
 80 81  1  0
 82 80  1  0
 84 87  1  0
 85 89  1  0
 85 84  1  0
 86 85  2  0
 89 88  1  0
 91 89  1  0
 91 92  1  0
 91 90  1  0
M  ISO  4  11 100  19 100  51 101  52 101
M  END
>  <TORSDO>  (19) 
F 19

>  <SCORE>  (19) 
-14.455

>  <name>  (19) 
18

>  <ligand_id>  (19) 
18

>  <original_smiles>  (19) 
[H]c1c([H])c([H])c2c(c1[H])C([H])([H])C([H])([H])C([H])([H])C2([H])N([H])C(=O)C1([H])N(C(=O)C([H])(N([H])C(=O)C([H])(N([H])C([H])([H])[H])C([H])([H])[H])C(C([H])([H])[H])(C([H])([H])[H])C([H])([H])[H])C([H])([H])c2c([H])c(OC([H])([H])C([H])(C([H])([H])[H])C3([H])C([H])([H])C3([H])c3c([H])c(N([H])C(=O)N4C([H])([H])C([H])([H])C([H])([H])C([H])(n5nc(-c6c([H])c([H])c(Oc7c([H])c([H])c(F)c([H])c7F)c([H])c6[H])c(C(=O)N([H])[H])c5N([H])[H])C4([H])[H])c([H])c(C([H])([H])[H])c3[H])c([H])c([H])c2C1([H])[H]

>  <smiles>  (19) 
[H]c1c([H])c([H])c2c(c1[H])C([H])([H])C([H])([H])C([H])([H])C2([H])N([H])C(=O)C1([H])N(C(=O)C([H])(N([H])C(=O)C([H])(N([H])C([H])([H])[H])C([H])([H])[H])C(C([H])([H])[H])(C([H])([H])[H])C([H])([H])[H])C([H])([H])c2c([H])c(OC([H])([H])C([H])(C([H])([H])[H])C3([H])C([H])([H])C3([H])c3c([H])c(N([H])C(=O)N4C([H])([H])C([H])([H])C([H])([H])C([H])(n5nc(-c6c([H])c([H])c(Oc7c([H])c([H])c(F)c([H])c7F)c([H])c6[H])c(C(=O)N([H])[H])c5N([H])[H])C4([H])[H])c([H])c(C([H])([H])[H])c3[H])c([H])c([H])c2C1([H])[H]

$$$$
19:0:0
     RDKit          3D

 89 97  0  0  1  0  0  0  0  0999 V2000
  -30.2020  -22.9640   19.9860 C   0  0  0  0  0  2  0  0  0  0  0  0
  -30.5180  -21.4480   20.2990 C   0  0  0  0  0  2  0  0  0  0  0  0
  -28.2020  -21.7720   20.4730 C   0  0  0  0  0  2  0  0  0  0  0  0
  -28.8060  -23.3000   20.5560 C   0  0  0  0  0  3  0  0  0  0  0  0
  -29.2540  -20.5830   20.0270 C   0  0  1  0  0  0  0  0  0  0  0  0
  -27.8620  -19.6410   18.0220 C   0  0  0  0  0  1  0  0  0  0  0  0
  -29.1220  -20.3910   18.4900 C   0  0  0  0  0  2  0  0  0  0  0  0
  -27.9830  -24.6800   20.0290 C   0  0  0  0  0  2  0  0  0  0  0  0
  -28.2460  -26.1940   20.2940 O   0  0  0  0  0  0  0  0  0  0  0  0
  -24.6220  -31.8960   23.2260 C   0  0  0  0  0  0  0  0  0  0  0  0
  -27.1950  -27.1790   20.2020 C   0  0  0  0  0  0  0  0  0  0  0  0
  -23.4170  -30.4900   21.5990 C   0  0  0  0  0  3  0  0  0  0  0  0
  -24.8620  -28.9160   20.1700 C   0  0  0  0  0  0  0  0  0  0  0  0
  -25.9690  -30.7620   21.4210 C   0  0  0  0  0  2  0  0  0  0  0  0
  -26.0430  -29.3680   20.7730 C   0  0  0  0  0  0  0  0  0  0  0  0
  -27.2090  -28.5150   20.7750 C   0  0  0  0  0  3  0  0  0  0  0  0
  -25.9920  -26.8360   19.5460 C   0  0  0  0  0  3  0  0  0  0  0  0
  -24.8490  -27.6630   19.5410 C   0  0  0  0  0  3  0  0  0  0  0  0
  -23.6320  -29.8090   20.2210 C   0  0  0  0  0  2  0  0  0  0  0  0
  -24.6890  -31.0710   22.1360 N   0  0  0  0  0  0  0  0  0  0  0  0
  -23.5380  -32.1810   23.7580 O   0  0  0  0  0  0  0  0  0  0  0  0
  -22.7480  -29.4840   22.5690 C   0  0  0  0  0  0  0  0  0  0  0  0
  -21.4200  -29.3050   22.4450 N   0  0  0  0  0  0  0  0  0  0  0  0
  -23.4240  -28.8680   23.3960 O   0  0  0  0  0  0  0  0  0  0  0  0
  -20.9300  -29.8550   21.7540 H   0  0  0  0  0  0  0  0  0  0  0  0
  -18.0460  -28.0910   22.9620 C   0  0  0  0  0  0  0  0  0  0  0  0
  -20.6040  -28.3700   23.2250 C   0  0  0  0  0  3  0  0  0  0  0  0
  -20.7140  -26.9340   22.6610 C   0  0  0  0  0  2  0  0  0  0  0  0
  -19.6130  -26.5970   21.6500 C   0  0  0  0  0  2  0  0  0  0  0  0
  -18.2310  -26.7380   22.2950 C   0  0  0  0  0  2  0  0  0  0  0  0
  -19.1610  -28.8640   23.3840 C   0  0  0  0  0  0  0  0  0  0  0  0
  -18.9340  -30.1280   23.9700 C   0  0  0  0  0  3  0  0  0  0  0  0
  -17.6270  -30.6210   24.1360 C   0  0  0  0  0  3  0  0  0  0  0  0
  -16.5270  -29.8460   23.7300 C   0  0  0  0  0  3  0  0  0  0  0  0
  -16.7380  -28.5830   23.1480 C   0  0  0  0  0  3  0  0  0  0  0  0
  -25.9030  -32.5370   23.8420 C   0  0  0  0  0  3  0  0  0  0  0  0
  -26.4130  -31.7850   25.1330 C   0  0  1  0  0  0  0  0  0  0  0  0
  -25.3160  -31.5690   26.2020 C   0  0  0  0  0  1  0  0  0  0  0  0
  -26.9940  -30.3980   24.7710 C   0  0  0  0  0  1  0  0  0  0  0  0
  -27.5640  -32.5860   25.7860 C   0  0  0  0  0  1  0  0  0  0  0  0
  -25.5940  -33.9410   24.1570 N   0  0  0  0  0  0  0  0  0  0  0  0
  -25.9170  -34.9870   23.3830 C   0  0  0  0  0  0  0  0  0  0  0  0
  -26.5720  -34.8710   22.3450 O   0  0  0  0  0  0  0  0  0  0  0  0
  -25.0090  -34.1050   24.9630 H   0  0  0  0  0  0  0  0  0  0  0  0
  -24.1790  -36.7760   23.0410 C   0  0  0  0  0  1  0  0  0  0  0  0
  -25.4370  -36.3820   23.8320 C   0  0  0  0  0  3  0  0  0  0  0  0
  -27.5840  -37.2840   24.6130 C   0  0  0  0  0  1  0  0  0  0  0  0
  -26.4660  -37.4340   23.6860 N   0  0  0  0  0  0  0  0  0  0  0  0
  -26.0600  -38.3550   23.8250 H   0  0  0  0  0  0  0  0  0  0  0  0
  -29.2310  -19.0220   20.7000 C   0  0  0  0  0  2  0  0  0  0  0  0
  -30.1360  -17.6790   20.2200 C   0  0  0  0  0  2  0  0  0  0  0  0
  -30.5490  -14.9730   20.3390 C   0  0  0  0  0  0  0  0  0  0  0  0
  -30.3840  -12.6400   19.3710 C   0  0  0  0  0  2  0  0  0  0  0  0
  -29.4430  -12.6260   18.1440 C   0  0  0  0  0  2  0  0  0  0  0  0
  -27.9820  -12.4260   18.5880 C   0  0  0  0  0  2  0  0  0  0  0  0
  -27.5930  -13.3440   19.7760 C   0  0  0  0  0  3  0  0  0  0  0  0
  -28.6550  -13.3290   20.8970 C   0  0  0  0  0  2  0  0  0  0  0  0
  -29.9310  -13.7250   20.2870 N   0  0  0  0  0  0  0  0  0  0  0  0
  -31.7390  -15.0300   20.0130 O   0  0  0  0  0  0  0  0  0  0  0  0
  -29.8020  -16.1660   20.5340 N   0  0  0  0  0  0  0  0  0  0  0  0
  -28.8400  -15.9970   20.7910 H   0  0  0  0  0  0  0  0  0  0  0  0
  -25.2180  -13.9290   20.5320 C   0  0  0  0  0  0  0  0  0  0  0  0
  -24.1530  -13.1570   20.9050 C   0  0  0  0  0  0  0  0  0  0  0  0
  -24.6120  -11.8040   20.8630 C   0  0  0  0  0  0  0  0  0  0  0  0
  -26.2560  -13.0490   20.2810 N   0  0  0  0  0  0  0  0  0  0  0  0
  -25.9010  -11.7640   20.5470 N   0  0  0  0  0  0  0  0  0  0  0  0
  -23.8810  -10.5420   21.0490 C   0  0  0  0  0  0  0  0  0  0  0  0
  -24.3060   -9.5720   21.9830 C   0  0  0  0  0  3  0  0  0  0  0  0
  -23.5740   -8.3790   22.1580 C   0  0  0  0  0  3  0  0  0  0  0  0
  -22.4030   -8.1460   21.4000 C   0  0  0  0  0  0  0  0  0  0  0  0
  -21.9960   -9.1060   20.4540 C   0  0  0  0  0  3  0  0  0  0  0  0
  -22.7300  -10.2900   20.2770 C   0  0  0  0  0  3  0  0  0  0  0  0
  -21.6430   -7.0050   21.4830 O   0  0  0  0  0  0  0  0  0  0  0  0
  -21.5790   -6.2650   22.6380 C   0  0  0  0  0  0  0  0  0  0  0  0
  -21.1290   -6.8220   23.8540 C   0  0  0  0  0  3  0  0  0  0  0  0
  -21.0130   -6.0100   25.0000 C   0  0  0  0  0  3  0  0  0  0  0  0
  -21.3370   -4.6410   24.9280 C   0  0  0  0  0  0  0  0  0  0  0  0
  -21.7810   -4.0840   23.7160 C   0  0  0  0  0  3  0  0  0  0  0  0
  -21.8990   -4.8940   22.5730 C   0  0  0  0  0  0  0  0  0  0  0  0
  -22.3060   -4.3490   21.4010 F   0  0  0  0  0  0  0  0  0  0  0  0
  -21.2180   -3.8580   26.0260 F   0  0  0  0  0  0  0  0  0  0  0  0
  -22.7580  -13.6380   21.1810 C   0  0  0  0  0  0  0  0  0  0  0  0
  -22.0280  -12.9390   22.0430 N   0  0  0  0  0  0  0  0  0  0  0  0
  -22.3260  -14.6700   20.6690 O   0  0  0  0  0  0  0  0  0  0  0  0
  -22.3900  -12.1070   22.4830 H   0  0  0  0  0  0  0  0  0  0  0  0
  -21.0920  -13.2450   22.2690 H   0  0  0  0  0  0  0  0  0  0  0  0
  -25.3830  -15.3000   20.3620 N   0  0  0  0  0  0  0  0  0  0  0  0
  -24.6150  -15.9500   20.4820 H   0  0  0  0  0  0  0  0  0  0  0  0
  -26.2200  -15.7410   20.0000 H   0  0  0  0  0  0  0  0  0  0  0  0
  1  2  1  0
  1  4  1  0
  3  4  1  0
  4  8  1  0
  5  7  1  6
  5  2  1  0
  5  3  1  0
  5 50  1  0
  6  7  1  0
  8  9  1  0
 10 21  2  0
 11  9  1  0
 11 16  1  0
 12 20  1  0
 12 22  1  0
 13 19  1  0
 13 15  1  0
 14 20  1  0
 15 16  2  0
 15 14  1  0
 17 11  2  0
 18 17  1  0
 18 13  2  0
 19 12  1  0
 20 10  1  0
 22 24  2  0
 23 22  1  0
 25 23  1  0
 26 35  2  0
 26 31  1  0
 27 23  1  0
 27 31  1  0
 28 27  1  0
 29 30  1  0
 29 28  1  0
 30 26  1  0
 31 32  2  0
 32 33  1  0
 34 33  2  0
 35 34  1  0
 36 10  1  0
 36 41  1  0
 36 37  1  0
 37 40  1  1
 37 38  1  0
 39 37  1  0
 41 44  1  0
 42 46  1  0
 42 41  1  0
 43 42  2  0
 46 45  1  0
 48 49  1  0
 48 46  1  0
 48 47  1  0
 51 60  1  0
 51 50  1  0
 52 60  1  0
 53 58  1  0
 54 55  1  0
 54 53  1  0
 56 55  1  0
 56 65  1  0
 56 57  1  0
 58 52  1  0
 58 57  1  0
 59 52  2  0
 60 61  1  0
 62 63  2  0
 63 82  1  0
 64 63  1  0
 64 67  1  0
 65 62  1  0
 65 66  1  0
 66 64  2  0
 67 68  1  0
 68 69  2  0
 70 73  1  0
 70 69  1  0
 71 70  2  0
 72 71  1  0
 72 67  2  0
 73 74  1  0
 74 75  1  0
 75 76  2  0
 77 76  1  0
 77 81  1  0
 78 77  2  0
 79 74  2  0
 79 78  1  0
 80 79  1  0
 82 83  1  0
 83 86  1  0
 83 85  1  0
 84 82  2  0
 87 88  1  0
 87 62  1  0
 89 87  1  0
M  ISO  4   8 101   9 101  52 100  60 100
M  END
>  <TORSDO>  (20) 
F 20

>  <SCORE>  (20) 
-14.332

>  <name>  (20) 
19

>  <ligand_id>  (20) 
19

>  <original_smiles>  (20) 
[H]c1c([H])c([H])c2c(c1[H])C([H])([H])C([H])([H])C([H])([H])C2([H])N([H])C(=O)C1([H])N(C(=O)C([H])(N([H])C(=O)C([H])(N([H])C([H])([H])[H])C([H])([H])[H])C(C([H])([H])[H])(C([H])([H])[H])C([H])([H])[H])C([H])([H])c2c([H])c(OC([H])([H])C3([H])C([H])([H])C([H])([H])C(C([H])([H])C([H])([H])[H])(C([H])([H])C([H])([H])N([H])C(=O)N4C([H])([H])C([H])([H])C([H])([H])C([H])(n5nc(-c6c([H])c([H])c(Oc7c([H])c([H])c(F)c([H])c7F)c([H])c6[H])c(C(=O)N([H])[H])c5N([H])[H])C4([H])[H])C3([H])[H])c([H])c([H])c2C1([H])[H]

>  <smiles>  (20) 
[H]c1c([H])c([H])c2c(c1[H])C([H])([H])C([H])([H])C([H])([H])C2([H])N([H])C(=O)C1([H])N(C(=O)C([H])(N([H])C(=O)C([H])(N([H])C([H])([H])[H])C([H])([H])[H])C(C([H])([H])[H])(C([H])([H])[H])C([H])([H])[H])C([H])([H])c2c([H])c(OC([H])([H])C3([H])C([H])([H])C([H])([H])C(C([H])([H])C([H])([H])[H])(C([H])([H])C([H])([H])N([H])C(=O)N4C([H])([H])C([H])([H])C([H])([H])C([H])(n5nc(-c6c([H])c([H])c(Oc7c([H])c([H])c(F)c([H])c7F)c([H])c6[H])c(C(=O)N([H])[H])c5N([H])[H])C4([H])[H])C3([H])[H])c([H])c([H])c2C1([H])[H]

$$$$
20:0:0
     RDKit          3D

 93102  0  0  1  0  0  0  0  0999 V2000
  -29.8560  -23.3760   19.6210 C   0  0  0  0  0  3  0  0  0  0  0  0
  -30.2260  -21.9850   19.7120 C   0  0  0  0  0  3  0  0  0  0  0  0
  -28.4450  -21.6100   21.2890 C   0  0  0  0  0  3  0  0  0  0  0  0
  -28.7950  -23.9000   20.4090 C   0  0  0  0  0  0  0  0  0  0  0  0
  -28.1210  -22.9890   21.2270 C   0  0  0  0  0  0  0  0  0  0  0  0
  -29.5490  -21.0650   20.5770 C   0  0  0  0  0  0  0  0  0  0  0  0
  -27.1080  -23.6700   22.1080 C   0  0  0  0  0  2  0  0  0  0  0  0
  -27.0930  -25.1400   21.6330 C   0  0  0  0  0  2  0  0  0  0  0  0
  -28.3500  -25.3690   20.7350 C   0  0  0  0  0  3  0  0  0  0  0  0
  -28.2700  -26.4440   19.7170 O   0  0  0  0  0  0  0  0  0  0  0  0
  -24.6470  -31.7150   23.0800 C   0  0  0  0  0  0  0  0  0  0  0  0
  -27.1790  -27.3170   19.7610 C   0  0  0  0  0  0  0  0  0  0  0  0
  -23.3930  -30.3610   21.4370 C   0  0  0  0  0  3  0  0  0  0  0  0
  -24.8020  -28.8830   19.8940 C   0  0  0  0  0  0  0  0  0  0  0  0
  -25.9140  -30.7220   21.1650 C   0  0  0  0  0  2  0  0  0  0  0  0
  -25.9860  -29.3670   20.4710 C   0  0  0  0  0  0  0  0  0  0  0  0
  -27.1810  -28.5920   20.4020 C   0  0  0  0  0  3  0  0  0  0  0  0
  -25.9860  -26.8920   19.1420 C   0  0  0  0  0  3  0  0  0  0  0  0
  -24.8020  -27.6500   19.2210 C   0  0  0  0  0  3  0  0  0  0  0  0
  -23.5570  -29.7380   20.0260 C   0  0  0  0  0  2  0  0  0  0  0  0
  -24.6710  -30.9490   21.9510 N   0  0  0  0  0  0  0  0  0  0  0  0
  -23.5860  -31.9620   23.6710 O   0  0  0  0  0  0  0  0  0  0  0  0
  -22.7810  -29.3040   22.3870 C   0  0  0  0  0  0  0  0  0  0  0  0
  -21.4620  -29.0760   22.2700 N   0  0  0  0  0  0  0  0  0  0  0  0
  -23.4920  -28.6910   23.1900 O   0  0  0  0  0  0  0  0  0  0  0  0
  -20.9470  -29.6260   21.5970 H   0  0  0  0  0  0  0  0  0  0  0  0
  -18.1620  -27.6560   22.6910 C   0  0  0  0  0  0  0  0  0  0  0  0
  -20.6870  -28.0930   23.0300 C   0  0  0  0  0  3  0  0  0  0  0  0
  -20.9040  -26.6650   22.4800 C   0  0  0  0  0  2  0  0  0  0  0  0
  -19.8570  -26.2540   21.4400 C   0  0  0  0  0  2  0  0  0  0  0  0
  -18.4490  -26.3120   22.0410 C   0  0  0  0  0  2  0  0  0  0  0  0
  -19.2130  -28.4980   23.1400 C   0  0  0  0  0  0  0  0  0  0  0  0
  -18.8930  -29.7510   23.7060 C   0  0  0  0  0  3  0  0  0  0  0  0
  -17.5520  -30.1650   23.8270 C   0  0  0  0  0  3  0  0  0  0  0  0
  -16.5150  -29.3190   23.3950 C   0  0  0  0  0  3  0  0  0  0  0  0
  -16.8210  -28.0670   22.8330 C   0  0  0  0  0  3  0  0  0  0  0  0
  -25.9510  -32.3370   23.6700 C   0  0  0  0  0  3  0  0  0  0  0  0
  -26.5180  -31.5340   24.9050 C   0  0  1  0  0  0  0  0  0  0  0  0
  -25.4660  -31.2630   26.0070 C   0  0  0  0  0  1  0  0  0  0  0  0
  -27.0930  -30.1690   24.4540 C   0  0  0  0  0  1  0  0  0  0  0  0
  -27.6910  -32.3160   25.5440 C   0  0  0  0  0  1  0  0  0  0  0  0
  -25.6490  -33.7240   24.0500 N   0  0  0  0  0  0  0  0  0  0  0  0
  -25.9780  -34.8010   23.3230 C   0  0  0  0  0  0  0  0  0  0  0  0
  -26.6400  -34.7320   22.2850 O   0  0  0  0  0  0  0  0  0  0  0  0
  -25.0610  -33.8520   24.8590 H   0  0  0  0  0  0  0  0  0  0  0  0
  -24.2550  -36.6140   23.0430 C   0  0  0  0  0  1  0  0  0  0  0  0
  -25.4980  -36.1740   23.8320 C   0  0  0  0  0  3  0  0  0  0  0  0
  -27.6370  -37.0250   24.6860 C   0  0  0  0  0  1  0  0  0  0  0  0
  -26.5340  -37.2270   23.7510 N   0  0  0  0  0  0  0  0  0  0  0  0
  -26.1310  -38.1420   23.9330 H   0  0  0  0  0  0  0  0  0  0  0  0
  -29.9540  -19.5570   20.8910 C   0  0  0  0  0  3  0  0  0  0  0  0
  -31.4170  -18.2360   22.6200 C   0  0  0  0  0  1  0  0  0  0  0  0
  -30.8320  -19.5800   22.1710 C   0  0  0  0  0  2  0  0  0  0  0  0
  -30.6590  -18.6320   19.8010 C   0  0  0  0  0  2  0  0  0  0  0  0
  -30.1070  -17.1680   19.4330 C   0  0  0  0  0  2  0  0  0  0  0  0
  -30.9840  -14.8070   19.9670 C   0  0  0  0  0  0  0  0  0  0  0  0
  -30.6930  -12.5260   19.0260 C   0  0  0  0  0  2  0  0  0  0  0  0
  -29.7090  -12.6230   17.8380 C   0  0  0  0  0  2  0  0  0  0  0  0
  -28.2570  -12.4820   18.3310 C   0  0  0  0  0  2  0  0  0  0  0  0
  -27.9510  -13.3980   19.5450 C   0  0  0  0  0  3  0  0  0  0  0  0
  -29.0520  -13.2940   20.6280 C   0  0  0  0  0  2  0  0  0  0  0  0
  -30.3430  -13.5920   19.9900 N   0  0  0  0  0  0  0  0  0  0  0  0
  -32.1050  -14.9200   19.4660 O   0  0  0  0  0  0  0  0  0  0  0  0
  -30.2460  -15.9230   20.2840 N   0  0  0  0  0  0  0  0  0  0  0  0
  -29.4280  -15.7120   20.8350 H   0  0  0  0  0  0  0  0  0  0  0  0
  -25.6130  -14.0410   20.3920 C   0  0  0  0  0  0  0  0  0  0  0  0
  -24.5460  -13.2890   20.8010 C   0  0  0  0  0  0  0  0  0  0  0  0
  -24.9690  -11.9270   20.7200 C   0  0  0  0  0  0  0  0  0  0  0  0
  -26.6210  -13.1390   20.0900 N   0  0  0  0  0  0  0  0  0  0  0  0
  -26.2420  -11.8610   20.3470 N   0  0  0  0  0  0  0  0  0  0  0  0
  -24.2190  -10.6800   20.9230 C   0  0  0  0  0  0  0  0  0  0  0  0
  -24.6350   -9.7100   21.8620 C   0  0  0  0  0  3  0  0  0  0  0  0
  -23.8850   -8.5290   22.0520 C   0  0  0  0  0  3  0  0  0  0  0  0
  -22.7060   -8.3080   21.3030 C   0  0  0  0  0  0  0  0  0  0  0  0
  -22.3080   -9.2650   20.3530 C   0  0  0  0  0  3  0  0  0  0  0  0
  -23.0570  -10.4390   20.1610 C   0  0  0  0  0  3  0  0  0  0  0  0
  -21.9290   -7.1800   21.4030 O   0  0  0  0  0  0  0  0  0  0  0  0
  -21.8190   -6.4830   22.5780 C   0  0  0  0  0  0  0  0  0  0  0  0
  -21.3360   -7.0880   23.7600 C   0  0  0  0  0  3  0  0  0  0  0  0
  -21.1730   -6.3170   24.9290 C   0  0  0  0  0  3  0  0  0  0  0  0
  -21.4820   -4.9440   24.9180 C   0  0  0  0  0  0  0  0  0  0  0  0
  -21.9590   -4.3400   23.7410 C   0  0  0  0  0  3  0  0  0  0  0  0
  -22.1230   -5.1070   22.5740 C   0  0  0  0  0  0  0  0  0  0  0  0
  -22.5620   -4.5150   21.4370 F   0  0  0  0  0  0  0  0  0  0  0  0
  -21.3190   -4.2020   26.0380 F   0  0  0  0  0  0  0  0  0  0  0  0
  -23.1790  -13.7970   21.1540 C   0  0  0  0  0  0  0  0  0  0  0  0
  -22.4860  -13.1130   22.0590 N   0  0  0  0  0  0  0  0  0  0  0  0
  -22.7340  -14.8330   20.6620 O   0  0  0  0  0  0  0  0  0  0  0  0
  -22.8590  -12.2750   22.4790 H   0  0  0  0  0  0  0  0  0  0  0  0
  -21.5700  -13.4340   22.3380 H   0  0  0  0  0  0  0  0  0  0  0  0
  -25.8080  -15.4100   20.2300 N   0  0  0  0  0  0  0  0  0  0  0  0
  -25.0670  -16.0870   20.3740 H   0  0  0  0  0  0  0  0  0  0  0  0
  -26.6550  -15.8250   19.8610 H   0  0  0  0  0  0  0  0  0  0  0  0
  1  2  2  0
  1  4  1  0
  2  6  1  0
  4  9  1  0
  4  5  2  0
  5  3  1  0
  5  7  1  0
  6 51  1  0
  6  3  2  0
  8  7  1  0
  9 10  1  0
  9  8  1  0
 10 12  1  0
 11 22  2  0
 12 17  1  0
 13 21  1  0
 13 23  1  0
 14 20  1  0
 14 16  1  0
 15 21  1  0
 16 15  1  0
 17 16  2  0
 18 19  1  0
 18 12  2  0
 19 14  2  0
 20 13  1  0
 21 11  1  0
 23 25  2  0
 24 23  1  0
 26 24  1  0
 27 36  2  0
 27 32  1  0
 28 24  1  0
 28 32  1  0
 29 28  1  0
 30 31  1  0
 30 29  1  0
 31 27  1  0
 32 33  2  0
 33 34  1  0
 35 34  2  0
 36 35  1  0
 37 11  1  0
 37 42  1  0
 37 38  1  0
 38 41  1  1
 38 39  1  0
 40 38  1  0
 42 45  1  0
 43 47  1  0
 43 42  1  0
 44 43  2  0
 47 46  1  0
 49 47  1  0
 49 50  1  0
 49 48  1  0
 51 54  1  0
 51 53  1  0
 53 52  1  0
 55 54  1  0
 55 64  1  0
 56 62  1  0
 56 64  1  0
 57 62  1  0
 58 59  1  0
 58 57  1  0
 60 59  1  0
 60 69  1  0
 60 61  1  0
 62 61  1  0
 63 56  2  0
 64 65  1  0
 66 67  2  0
 67 86  1  0
 68 67  1  0
 68 71  1  0
 69 70  1  0
 69 66  1  0
 70 68  2  0
 71 72  1  0
 72 73  2  0
 74 77  1  0
 74 73  1  0
 75 74  2  0
 76 75  1  0
 76 71  2  0
 77 78  1  0
 78 79  1  0
 79 80  2  0
 81 80  1  0
 81 85  1  0
 82 81  2  0
 83 78  2  0
 83 82  1  0
 84 83  1  0
 86 87  1  0
 87 90  1  0
 87 89  1  0
 88 86  2  0
 91 92  1  0
 91 66  1  0
 93 91  1  0
M  ISO  4   9 101  10 101  56 100  64 100
M  END
>  <TORSDO>  (21) 
F 20

>  <SCORE>  (21) 
-12.993

>  <name>  (21) 
20

>  <ligand_id>  (21) 
20

>  <original_smiles>  (21) 
[H]c1c([H])c([H])c2c(c1[H])C([H])([H])C([H])([H])C([H])([H])C2([H])N([H])C(=O)C1([H])N(C(=O)C([H])(N([H])C(=O)C([H])(N([H])C([H])([H])[H])C([H])([H])[H])C(C([H])([H])[H])(C([H])([H])[H])C([H])([H])[H])C([H])([H])c2c([H])c(OC3([H])c4c([H])c([H])c(C([H])(C([H])([H])C([H])([H])[H])C([H])([H])C([H])([H])N([H])C(=O)N5C([H])([H])C([H])([H])C([H])([H])C([H])(n6nc(-c7c([H])c([H])c(Oc8c([H])c([H])c(F)c([H])c8F)c([H])c7[H])c(C(=O)N([H])[H])c6N([H])[H])C5([H])[H])c([H])c4C([H])([H])C3([H])[H])c([H])c([H])c2C1([H])[H]

>  <smiles>  (21) 
[H]c1c([H])c([H])c2c(c1[H])C([H])([H])C([H])([H])C([H])([H])C2([H])N([H])C(=O)C1([H])N(C(=O)C([H])(N([H])C(=O)C([H])(N([H])C([H])([H])[H])C([H])([H])[H])C(C([H])([H])[H])(C([H])([H])[H])C([H])([H])[H])C([H])([H])c2c([H])c(OC3([H])c4c([H])c([H])c(C([H])(C([H])([H])C([H])([H])[H])C([H])([H])C([H])([H])N([H])C(=O)N5C([H])([H])C([H])([H])C([H])([H])C([H])(n6nc(-c7c([H])c([H])c(Oc8c([H])c([H])c(F)c([H])c8F)c([H])c7[H])c(C(=O)N([H])[H])c6N([H])[H])C5([H])[H])c([H])c4C([H])([H])C3([H])[H])c([H])c([H])c2C1([H])[H]

$$$$
21:0:0
     RDKit          3D

 92101  0  0  1  0  0  0  0  0999 V2000
  -27.5000  -21.4880   18.1100 C   0  0  0  0  0  2  0  0  0  0  0  0
  -27.9220  -20.3690   20.2570 C   0  0  0  0  0  2  0  0  0  0  0  0
  -28.9860  -21.4970   18.3870 C   0  0  0  0  0  3  0  0  0  0  0  0
  -29.6060  -22.3250   19.4570 C   0  0  0  0  0  3  0  0  0  0  0  0
  -29.2790  -20.6990   19.6560 C   0  0  1  0  0  0  0  0  0  0  0  0
  -26.8560  -20.5410   19.1470 C   0  0  1  0  0  0  0  0  0  0  0  0
  -25.5490  -21.1320   19.7050 C   0  0  0  0  0  1  0  0  0  0  0  0
  -26.5280  -19.1870   18.4850 C   0  0  0  0  0  1  0  0  0  0  0  0
  -28.8620  -23.7070   20.0010 C   0  0  0  0  0  2  0  0  0  0  0  0
  -28.7600  -25.1400   19.1450 C   0  0  0  0  0  2  0  0  0  0  0  0
  -28.6330  -26.5790   19.7040 O   0  0  0  0  0  0  0  0  0  0  0  0
  -24.5170  -31.6420   23.0460 C   0  0  0  0  0  0  0  0  0  0  0  0
  -27.4840  -27.4420   19.6580 C   0  0  0  0  0  0  0  0  0  0  0  0
  -23.4530  -30.3380   21.2430 C   0  0  0  0  0  3  0  0  0  0  0  0
  -25.0380  -29.0050   19.7220 C   0  0  0  0  0  0  0  0  0  0  0  0
  -25.9830  -30.7860   21.1850 C   0  0  0  0  0  2  0  0  0  0  0  0
  -26.1640  -29.4720   20.4080 C   0  0  0  0  0  0  0  0  0  0  0  0
  -27.3840  -28.7050   20.3630 C   0  0  0  0  0  3  0  0  0  0  0  0
  -26.3220  -27.0650   18.9470 C   0  0  0  0  0  3  0  0  0  0  0  0
  -25.1260  -27.8170   18.9800 C   0  0  0  0  0  3  0  0  0  0  0  0
  -23.7510  -29.8090   19.8150 C   0  0  0  0  0  2  0  0  0  0  0  0
  -24.6680  -30.9410   21.8820 N   0  0  0  0  0  0  0  0  0  0  0  0
  -23.4020  -31.8050   23.5640 O   0  0  0  0  0  0  0  0  0  0  0  0
  -22.8210  -29.2030   22.0860 C   0  0  0  0  0  0  0  0  0  0  0  0
  -21.5040  -28.9830   21.9230 N   0  0  0  0  0  0  0  0  0  0  0  0
  -23.5160  -28.5270   22.8480 O   0  0  0  0  0  0  0  0  0  0  0  0
  -20.9990  -29.5840   21.2880 H   0  0  0  0  0  0  0  0  0  0  0  0
  -18.1730  -27.6050   22.2770 C   0  0  0  0  0  0  0  0  0  0  0  0
  -20.7210  -27.9320   22.5770 C   0  0  0  0  0  3  0  0  0  0  0  0
  -20.8760  -26.5820   21.8400 C   0  0  0  0  0  2  0  0  0  0  0  0
  -19.7850  -26.3360   20.7930 C   0  0  0  0  0  2  0  0  0  0  0  0
  -18.4000  -26.3510   21.4480 C   0  0  0  0  0  2  0  0  0  0  0  0
  -19.2620  -28.3550   22.7940 C   0  0  0  0  0  0  0  0  0  0  0  0
  -18.9960  -29.5290   23.5320 C   0  0  0  0  0  3  0  0  0  0  0  0
  -17.6730  -29.9540   23.7560 C   0  0  0  0  0  3  0  0  0  0  0  0
  -16.5980  -29.1990   23.2530 C   0  0  0  0  0  3  0  0  0  0  0  0
  -16.8480  -28.0260   22.5210 C   0  0  0  0  0  3  0  0  0  0  0  0
  -25.7360  -32.2930   23.7720 C   0  0  0  0  0  3  0  0  0  0  0  0
  -26.1980  -31.4880   25.0490 C   0  0  1  0  0  0  0  0  0  0  0  0
  -25.0530  -31.1810   26.0430 C   0  0  0  0  0  1  0  0  0  0  0  0
  -26.8400  -30.1410   24.6460 C   0  0  0  0  0  1  0  0  0  0  0  0
  -27.2890  -32.2850   25.8020 C   0  0  0  0  0  1  0  0  0  0  0  0
  -25.3550  -33.6650   24.1420 N   0  0  0  0  0  0  0  0  0  0  0  0
  -25.7180  -34.7660   23.4680 C   0  0  0  0  0  0  0  0  0  0  0  0
  -26.4700  -34.7330   22.4910 O   0  0  0  0  0  0  0  0  0  0  0  0
  -24.6940  -33.7610   24.8980 H   0  0  0  0  0  0  0  0  0  0  0  0
  -23.9740  -36.5350   23.0640 C   0  0  0  0  0  1  0  0  0  0  0  0
  -25.1560  -36.1170   23.9540 C   0  0  0  0  0  3  0  0  0  0  0  0
  -27.1780  -37.0160   25.0190 C   0  0  0  0  0  1  0  0  0  0  0  0
  -26.1660  -37.1990   23.9820 N   0  0  0  0  0  0  0  0  0  0  0  0
  -25.7220  -38.1020   24.1270 H   0  0  0  0  0  0  0  0  0  0  0  0
  -30.0790  -19.2760   19.2870 C   0  0  0  0  0  2  0  0  0  0  0  0
  -31.9140  -18.3050   20.8810 C   0  0  0  0  0  1  0  0  0  0  0  0
  -30.5000  -18.0380   20.3370 C   0  0  0  0  0  3  0  0  0  0  0  0
  -31.0910  -15.3240   19.9410 C   0  0  0  0  0  0  0  0  0  0  0  0
  -30.9330  -12.9470   19.0800 C   0  0  0  0  0  2  0  0  0  0  0  0
  -29.9790  -12.8690   17.8690 C   0  0  0  0  0  2  0  0  0  0  0  0
  -28.5220  -12.6910   18.3370 C   0  0  0  0  0  2  0  0  0  0  0  0
  -28.1390  -13.6710   19.4780 C   0  0  0  0  0  3  0  0  0  0  0  0
  -29.2110  -13.7110   20.5860 C   0  0  0  0  0  2  0  0  0  0  0  0
  -30.4800  -14.0770   19.9370 N   0  0  0  0  0  0  0  0  0  0  0  0
  -32.2960  -15.3750   19.6730 O   0  0  0  0  0  0  0  0  0  0  0  0
  -30.2990  -16.4940   20.0600 N   0  0  0  0  0  0  0  0  0  0  0  0
  -29.3280  -16.2330   20.1470 H   0  0  0  0  0  0  0  0  0  0  0  0
  -25.8040  -14.3040   20.3140 C   0  0  0  0  0  0  0  0  0  0  0  0
  -24.7230  -13.5510   20.6860 C   0  0  0  0  0  0  0  0  0  0  0  0
  -25.1370  -12.1880   20.5880 C   0  0  0  0  0  0  0  0  0  0  0  0
  -26.8080  -13.3990   20.0090 N   0  0  0  0  0  0  0  0  0  0  0  0
  -26.4170  -12.1180   20.2380 N   0  0  0  0  0  0  0  0  0  0  0  0
  -24.3700  -10.9450   20.7490 C   0  0  0  0  0  0  0  0  0  0  0  0
  -24.7020   -9.9950   21.7400 C   0  0  0  0  0  3  0  0  0  0  0  0
  -23.9360   -8.8180   21.8870 C   0  0  0  0  0  3  0  0  0  0  0  0
  -22.8250   -8.5830   21.0420 C   0  0  0  0  0  0  0  0  0  0  0  0
  -22.5150   -9.5220   20.0420 C   0  0  0  0  0  3  0  0  0  0  0  0
  -23.2800  -10.6890   19.8940 C   0  0  0  0  0  3  0  0  0  0  0  0
  -22.0400   -7.4580   21.0970 O   0  0  0  0  0  0  0  0  0  0  0  0
  -21.7460   -6.8410   22.2870 C   0  0  0  0  0  0  0  0  0  0  0  0
  -21.0440   -7.5040   23.3170 C   0  0  0  0  0  3  0  0  0  0  0  0
  -20.7020   -6.8110   24.4960 C   0  0  0  0  0  3  0  0  0  0  0  0
  -21.0530   -5.4550   24.6430 C   0  0  0  0  0  0  0  0  0  0  0  0
  -21.7500   -4.7930   23.6170 C   0  0  0  0  0  3  0  0  0  0  0  0
  -22.0920   -5.4830   22.4420 C   0  0  0  0  0  0  0  0  0  0  0  0
  -22.7440   -4.8340   21.4460 F   0  0  0  0  0  0  0  0  0  0  0  0
  -20.7200   -4.7870   25.7700 F   0  0  0  0  0  0  0  0  0  0  0  0
  -23.3540  -14.0670   21.0170 C   0  0  0  0  0  0  0  0  0  0  0  0
  -22.6330  -13.3760   21.8930 N   0  0  0  0  0  0  0  0  0  0  0  0
  -22.9330  -15.1150   20.5320 O   0  0  0  0  0  0  0  0  0  0  0  0
  -22.9850  -12.5260   22.3060 H   0  0  0  0  0  0  0  0  0  0  0  0
  -21.7140  -13.7050   22.1550 H   0  0  0  0  0  0  0  0  0  0  0  0
  -26.0080  -15.6730   20.1840 N   0  0  0  0  0  0  0  0  0  0  0  0
  -25.2590  -16.3400   20.3360 H   0  0  0  0  0  0  0  0  0  0  0  0
  -26.8470  -16.1020   19.8190 H   0  0  0  0  0  0  0  0  0  0  0  0
  1  6  1  0
  3  1  1  0
  3  4  1  0
  3  5  1  0
  4  5  1  0
  4  9  1  0
  5 52  1  6
  5  2  1  0
  6  7  1  1
  6  2  1  0
  8  6  1  0
 10 11  1  0
 10  9  1  0
 12 23  2  0
 13 11  1  0
 13 18  1  0
 14 22  1  0
 14 24  1  0
 15 21  1  0
 15 17  1  0
 16 22  1  0
 17 16  1  0
 18 17  2  0
 19 20  1  0
 19 13  2  0
 20 15  2  0
 21 14  1  0
 22 12  1  0
 24 26  2  0
 25 24  1  0
 27 25  1  0
 28 37  2  0
 28 33  1  0
 29 25  1  0
 29 33  1  0
 30 29  1  0
 31 32  1  0
 31 30  1  0
 32 28  1  0
 33 34  2  0
 34 35  1  0
 36 35  2  0
 37 36  1  0
 38 12  1  0
 38 43  1  0
 38 39  1  0
 39 42  1  1
 39 40  1  0
 41 39  1  0
 43 46  1  0
 44 48  1  0
 44 43  1  0
 45 44  2  0
 48 47  1  0
 48 50  1  0
 50 51  1  0
 50 49  1  0
 52 54  1  0
 54 53  1  0
 55 63  1  0
 56 61  1  0
 57 58  1  0
 57 56  1  0
 59 58  1  0
 59 68  1  0
 59 60  1  0
 61 55  1  0
 61 60  1  0
 62 55  2  0
 63 64  1  0
 63 54  1  0
 65 66  2  0
 66 85  1  0
 67 66  1  0
 67 70  1  0
 68 69  1  0
 68 65  1  0
 69 67  2  0
 70 71  1  0
 71 72  2  0
 73 76  1  0
 73 72  1  0
 74 73  2  0
 75 74  1  0
 75 70  2  0
 76 77  1  0
 77 82  2  0
 77 78  1  0
 78 79  2  0
 79 80  1  0
 80 84  1  0
 81 80  2  0
 82 81  1  0
 83 82  1  0
 85 86  1  0
 86 89  1  0
 86 88  1  0
 87 85  2  0
 90 65  1  0
 90 91  1  0
 92 90  1  0
M  ISO  4  10 101  11 101  55 100  63 100
M  END
>  <TORSDO>  (22) 
F 20

>  <SCORE>  (22) 
-10.740

>  <name>  (22) 
21

>  <ligand_id>  (22) 
21

>  <original_smiles>  (22) 
[H]c1c([H])c([H])c2c(c1[H])C([H])([H])C([H])([H])C([H])([H])C2([H])N([H])C(=O)C1([H])N(C(=O)C([H])(N([H])C(=O)C([H])(N([H])C([H])([H])[H])C([H])([H])[H])C(C([H])([H])[H])(C([H])([H])[H])C([H])([H])[H])C([H])([H])c2c([H])c(OC([H])([H])C([H])([H])C3([H])C4([H])C([H])([H])C(C([H])([H])[H])(C([H])([H])[H])C([H])([H])C34C([H])([H])C([H])(N([H])C(=O)N3C([H])([H])C([H])([H])C([H])([H])C([H])(n4nc(-c5c([H])c([H])c(Oc6c([H])c([H])c(F)c([H])c6F)c([H])c5[H])c(C(=O)N([H])[H])c4N([H])[H])C3([H])[H])C([H])([H])[H])c([H])c([H])c2C1([H])[H]

>  <smiles>  (22) 
[H]c1c([H])c([H])c2c(c1[H])C([H])([H])C([H])([H])C([H])([H])C2([H])N([H])C(=O)C1([H])N(C(=O)C([H])(N([H])C(=O)C([H])(N([H])C([H])([H])[H])C([H])([H])[H])C(C([H])([H])[H])(C([H])([H])[H])C([H])([H])[H])C([H])([H])c2c([H])c(OC([H])([H])C([H])([H])C3([H])C4([H])C([H])([H])C(C([H])([H])[H])(C([H])([H])[H])C([H])([H])C34C([H])([H])C([H])(N([H])C(=O)N3C([H])([H])C([H])([H])C([H])([H])C([H])(n4nc(-c5c([H])c([H])c(Oc6c([H])c([H])c(F)c([H])c6F)c([H])c5[H])c(C(=O)N([H])[H])c4N([H])[H])C3([H])[H])C([H])([H])[H])c([H])c([H])c2C1([H])[H]

$$$$
23:0:0
     RDKit          3D

 97106  0  0  1  0  0  0  0  0999 V2000
  -30.5130  -24.4670   20.4290 C   0  0  0  0  0  3  0  0  0  0  0  0
  -31.2520  -23.3300   20.0730 C   0  0  0  0  0  3  0  0  0  0  0  0
  -28.4450  -23.2610   20.0040 C   0  0  0  0  0  3  0  0  0  0  0  0
  -29.1130  -24.4300   20.4300 C   0  0  0  0  0  0  0  0  0  0  0  0
  -30.6060  -22.1280   19.7080 C   0  0  0  0  0  0  0  0  0  0  0  0
  -29.1840  -22.1070   19.6450 C   0  0  0  0  0  0  0  0  0  0  0  0
  -28.4200  -20.8650   19.2180 C   0  0  0  0  0  1  0  0  0  0  0  0
  -31.4800  -20.9130   19.3730 C   0  0  0  0  0  2  0  0  0  0  0  0
  -32.0460  -20.2410   20.5690 N   0  0  0  0  0  4  0  0  0  0  0  0
  -32.0990  -20.9220   21.3070 H   0  0  0  0  0  0  0  0  0  0  0  0
  -32.9960  -19.9800   20.3610 H   0  0  0  0  0  0  0  0  0  0  0  0
  -31.3340  -19.0370   21.0700 C   0  0  0  0  0  2  0  0  0  0  0  0
  -32.4240  -16.6970   18.2510 C   0  0  0  0  0  2  0  0  0  0  0  0
  -32.8660  -17.6530   19.3630 C   0  0  0  0  0  2  0  0  0  0  0  0
  -30.9000  -16.6770   18.3500 C   0  0  0  0  0  2  0  0  0  0  0  0
  -31.7480  -17.6560   20.4470 C   0  0  0  0  0  3  0  0  0  0  0  0
  -30.5580  -16.8540   19.8450 C   0  0  0  0  0  3  0  0  0  0  0  0
  -30.9930  -14.5200   20.7590 C   0  0  0  0  0  0  0  0  0  0  0  0
  -30.7190  -12.2880   19.8340 C   0  0  0  0  0  2  0  0  0  0  0  0
  -29.8890  -12.4870   18.5540 C   0  0  0  0  0  2  0  0  0  0  0  0
  -28.3840  -12.4060   18.8680 C   0  0  0  0  0  2  0  0  0  0  0  0
  -27.9590  -13.2970   20.0620 C   0  0  0  0  0  3  0  0  0  0  0  0
  -28.9350  -13.1600   21.2560 C   0  0  0  0  0  2  0  0  0  0  0  0
  -30.3110  -13.3490   20.7640 N   0  0  0  0  0  0  0  0  0  0  0  0
  -32.2120  -14.5930   20.6210 O   0  0  0  0  0  0  0  0  0  0  0  0
  -30.2170  -15.5920   20.5340 N   0  0  0  0  0  0  0  0  0  0  0  0
  -29.2320  -15.4130   20.6440 H   0  0  0  0  0  0  0  0  0  0  0  0
  -25.5240  -13.9150   20.6110 C   0  0  0  0  0  0  0  0  0  0  0  0
  -24.4320  -13.1530   20.9210 C   0  0  0  0  0  0  0  0  0  0  0  0
  -24.8900  -11.7990   20.9470 C   0  0  0  0  0  0  0  0  0  0  0  0
  -26.5780  -13.0310   20.4630 N   0  0  0  0  0  0  0  0  0  0  0  0
  -26.1970  -11.7520   20.7240 N   0  0  0  0  0  0  0  0  0  0  0  0
  -24.1490  -10.5390   21.1040 C   0  0  0  0  0  0  0  0  0  0  0  0
  -24.5240   -9.5760   22.0650 C   0  0  0  0  0  3  0  0  0  0  0  0
  -23.7830   -8.3830   22.2100 C   0  0  0  0  0  3  0  0  0  0  0  0
  -22.6550   -8.1460   21.3920 C   0  0  0  0  0  0  0  0  0  0  0  0
  -22.3030   -9.0960   20.4150 C   0  0  0  0  0  3  0  0  0  0  0  0
  -23.0440  -10.2790   20.2680 C   0  0  0  0  0  3  0  0  0  0  0  0
  -21.8900   -7.0060   21.4450 O   0  0  0  0  0  0  0  0  0  0  0  0
  -21.7780   -6.2690   22.5950 C   0  0  0  0  0  0  0  0  0  0  0  0
  -21.2920   -6.8310   23.7970 C   0  0  0  0  0  3  0  0  0  0  0  0
  -21.1290   -6.0190   24.9380 C   0  0  0  0  0  3  0  0  0  0  0  0
  -21.4370   -4.6460   24.8760 C   0  0  0  0  0  0  0  0  0  0  0  0
  -21.9160   -4.0850   23.6790 C   0  0  0  0  0  3  0  0  0  0  0  0
  -22.0840   -4.8940   22.5420 C   0  0  0  0  0  0  0  0  0  0  0  0
  -22.5250   -4.3430   21.3850 F   0  0  0  0  0  0  0  0  0  0  0  0
  -21.2700   -3.8630   25.9670 F   0  0  0  0  0  0  0  0  0  0  0  0
  -23.0200  -13.6360   21.0900 C   0  0  0  0  0  0  0  0  0  0  0  0
  -22.2350  -12.9530   21.9170 N   0  0  0  0  0  0  0  0  0  0  0  0
  -22.6200  -14.6530   20.5230 O   0  0  0  0  0  0  0  0  0  0  0  0
  -22.5730  -12.1320   22.3980 H   0  0  0  0  0  0  0  0  0  0  0  0
  -21.2830  -13.2550   22.0750 H   0  0  0  0  0  0  0  0  0  0  0  0
  -25.7110  -15.2810   20.4180 N   0  0  0  0  0  0  0  0  0  0  0  0
  -24.9480  -15.9470   20.4450 H   0  0  0  0  0  0  0  0  0  0  0  0
  -26.5880  -15.6970   20.1390 H   0  0  0  0  0  0  0  0  0  0  0  0
  -28.3510  -25.6320   20.9450 C   0  0  0  0  0  2  0  0  0  0  0  0
  -28.3550  -26.7190   20.0310 O   0  0  0  0  0  0  0  0  0  0  0  0
  -24.5990  -31.8600   23.2010 C   0  0  0  0  0  0  0  0  0  0  0  0
  -27.1960  -27.4440   20.0780 C   0  0  0  0  0  0  0  0  0  0  0  0
  -23.3650  -30.4700   21.5660 C   0  0  0  0  0  3  0  0  0  0  0  0
  -24.7990  -28.9120   20.1420 C   0  0  0  0  0  0  0  0  0  0  0  0
  -25.8900  -30.8150   21.3520 C   0  0  0  0  0  2  0  0  0  0  0  0
  -25.9610  -29.4430   20.7210 C   0  0  0  0  0  0  0  0  0  0  0  0
  -27.1660  -28.7090   20.6970 C   0  0  0  0  0  3  0  0  0  0  0  0
  -26.0320  -26.9230   19.4850 C   0  0  0  0  0  3  0  0  0  0  0  0
  -24.8240  -27.6470   19.5290 C   0  0  0  0  0  3  0  0  0  0  0  0
  -23.5650  -29.7840   20.1900 C   0  0  0  0  0  2  0  0  0  0  0  0
  -24.6350  -31.0660   22.0970 N   0  0  0  0  0  0  0  0  0  0  0  0
  -23.5270  -32.1320   23.7590 O   0  0  0  0  0  0  0  0  0  0  0  0
  -22.7210  -29.4500   22.5290 C   0  0  0  0  0  0  0  0  0  0  0  0
  -21.3930  -29.2730   22.4090 N   0  0  0  0  0  0  0  0  0  0  0  0
  -23.4050  -28.8190   23.3380 O   0  0  0  0  0  0  0  0  0  0  0  0
  -20.8990  -29.8350   21.7300 H   0  0  0  0  0  0  0  0  0  0  0  0
  -18.0220  -28.0990   22.9380 C   0  0  0  0  0  0  0  0  0  0  0  0
  -20.5830  -28.3410   23.1880 C   0  0  0  0  0  3  0  0  0  0  0  0
  -20.6730  -26.9090   22.6130 C   0  0  0  0  0  2  0  0  0  0  0  0
  -19.5610  -26.5910   21.6090 C   0  0  0  0  0  2  0  0  0  0  0  0
  -18.1850  -26.7470   22.2630 C   0  0  0  0  0  2  0  0  0  0  0  0
  -19.1510  -28.8520   23.3610 C   0  0  0  0  0  0  0  0  0  0  0  0
  -18.9490  -30.1170   23.9540 C   0  0  0  0  0  3  0  0  0  0  0  0
  -17.6530  -30.6330   24.1300 C   0  0  0  0  0  3  0  0  0  0  0  0
  -16.5370  -29.8790   23.7210 C   0  0  0  0  0  3  0  0  0  0  0  0
  -16.7230  -28.6150   23.1340 C   0  0  0  0  0  3  0  0  0  0  0  0
  -25.8990  -32.4820   23.8060 C   0  0  0  0  0  3  0  0  0  0  0  0
  -25.6070  -33.8780   24.1500 N   0  0  0  0  0  0  0  0  0  0  0  0
  -25.9460  -34.9320   23.3970 C   0  0  0  0  0  0  0  0  0  0  0  0
  -26.6100  -34.8300   22.3620 O   0  0  0  0  0  0  0  0  0  0  0  0
  -25.0460  -34.0340   24.9750 H   0  0  0  0  0  0  0  0  0  0  0  0
  -24.2440  -36.7410   23.0350 C   0  0  0  0  0  1  0  0  0  0  0  0
  -25.4680  -36.3200   23.8620 C   0  0  0  0  0  3  0  0  0  0  0  0
  -27.6000  -37.1720   24.7320 C   0  0  0  0  0  1  0  0  0  0  0  0
  -26.5140  -37.3620   23.7740 N   0  0  0  0  0  0  0  0  0  0  0  0
  -26.1190  -38.2870   23.9210 H   0  0  0  0  0  0  0  0  0  0  0  0
  -26.4300  -31.6980   25.0690 C   0  0  1  0  0  0  0  0  0  0  0  0
  -25.3530  -31.4610   26.1530 C   0  0  0  0  0  1  0  0  0  0  0  0
  -27.0010  -30.3210   24.6540 C   0  0  0  0  0  1  0  0  0  0  0  0
  -27.5900  -32.4860   25.7190 C   0  0  0  0  0  1  0  0  0  0  0  0
  1  4  1  0
  2  1  2  0
  3  4  2  0
  4 56  1  0
  5  2  1  0
  6  5  2  0
  6  3  1  0
  7  6  1  0
  8  5  1  0
  8  9  1  0
  9 12  1  0
  9 10  1  0
 11  9  1  0
 13 15  1  0
 13 14  1  0
 14 16  1  0
 15 17  1  0
 16 12  1  0
 17 16  1  0
 17 26  1  0
 18 24  1  0
 19 24  1  0
 20 21  1  0
 20 19  1  0
 22 21  1  0
 22 31  1  0
 22 23  1  0
 24 23  1  0
 25 18  2  0
 26 27  1  0
 26 18  1  0
 28 29  2  0
 29 30  1  0
 29 48  1  0
 30 33  1  0
 31 28  1  0
 31 32  1  0
 32 30  2  0
 33 34  1  0
 34 35  2  0
 36 39  1  0
 36 35  1  0
 37 36  2  0
 38 37  1  0
 38 33  2  0
 39 40  1  0
 40 41  1  0
 41 42  2  0
 43 42  1  0
 43 47  1  0
 44 43  2  0
 45 40  2  0
 45 44  1  0
 46 45  1  0
 48 49  1  0
 49 52  1  0
 49 51  1  0
 50 48  2  0
 53 54  1  0
 53 28  1  0
 55 53  1  0
 57 59  1  0
 57 56  1  0
 58 69  2  0
 59 64  1  0
 60 68  1  0
 60 70  1  0
 61 67  1  0
 61 63  1  0
 62 68  1  0
 63 62  1  0
 64 63  2  0
 65 66  1  0
 65 59  2  0
 66 61  2  0
 67 60  1  0
 68 58  1  0
 70 72  2  0
 71 70  1  0
 73 71  1  0
 74 83  2  0
 74 79  1  0
 75 71  1  0
 75 79  1  0
 76 75  1  0
 77 78  1  0
 77 76  1  0
 78 74  1  0
 79 80  2  0
 80 81  1  0
 82 81  2  0
 83 82  1  0
 84 58  1  0
 84 85  1  0
 84 94  1  0
 85 88  1  0
 86 90  1  0
 86 85  1  0
 87 86  2  0
 90 89  1  0
 92 90  1  0
 92 93  1  0
 92 91  1  0
 94 97  1  1
 94 95  1  0
 96 94  1  0
M  ISO  4  18 100  26 100  56 101  57 101
M  END
>  <TORSDO>  (23) 
F 21

>  <SCORE>  (23) 
-13.375

>  <name>  (23) 
23

>  <ligand_id>  (23) 
23

>  <original_smiles>  (23) 
[H]c1c([H])c([H])c2c(c1[H])C([H])([H])C([H])([H])C([H])([H])C2([H])N([H])C(=O)C1([H])N(C(=O)C([H])(N([H])C(=O)C([H])(N([H])C([H])([H])[H])C([H])([H])[H])C(C([H])([H])[H])(C([H])([H])[H])C([H])([H])[H])C([H])([H])c2c([H])c(OC([H])([H])c3c([H])c([H])c(C([H])([H])[N+]([H])([H])C([H])([H])C4([H])C([H])([H])C([H])([H])C([H])([H])C4([H])N([H])C(=O)N4C([H])([H])C([H])([H])C([H])([H])C([H])(n5nc(-c6c([H])c([H])c(Oc7c([H])c([H])c(F)c([H])c7F)c([H])c6[H])c(C(=O)N([H])[H])c5N([H])[H])C4([H])[H])c(C([H])([H])[H])c3[H])c([H])c([H])c2C1([H])[H]

>  <smiles>  (23) 
[H]c1c([H])c([H])c2c(c1[H])C([H])([H])C([H])([H])C([H])([H])C2([H])N([H])C(=O)C1([H])N(C(=O)C([H])(N([H])C(=O)C([H])(N([H])C([H])([H])[H])C([H])([H])[H])C(C([H])([H])[H])(C([H])([H])[H])C([H])([H])[H])C([H])([H])c2c([H])c(OC([H])([H])c3c([H])c([H])c(C([H])([H])[N+]([H])([H])C([H])([H])C4([H])C([H])([H])C([H])([H])C([H])([H])C4([H])N([H])C(=O)N4C([H])([H])C([H])([H])C([H])([H])C([H])(n5nc(-c6c([H])c([H])c(Oc7c([H])c([H])c(F)c([H])c7F)c([H])c6[H])c(C(=O)N([H])[H])c5N([H])[H])C4([H])[H])c(C([H])([H])[H])c3[H])c([H])c([H])c2C1([H])[H]

$$$$
24:0:0
     RDKit          3D

 90 98  0  0  1  0  0  0  0  0999 V2000
  -29.5490  -21.7180   20.0740 C   0  0  0  0  0  2  0  0  0  0  0  0
  -29.0490  -20.3530   20.3980 N   0  0  0  0  0  4  0  0  0  0  0  0
  -28.5850  -20.3840   21.2920 H   0  0  0  0  0  0  0  0  0  0  0  0
  -28.3640  -20.0930   19.7080 H   0  0  0  0  0  0  0  0  0  0  0  0
  -30.1040  -19.3070   20.4640 C   0  0  0  0  0  2  0  0  0  0  0  0
  -29.5620  -17.8500   20.5250 C   0  0  0  0  0  2  0  0  0  0  0  0
  -30.7490  -14.4370   20.1240 C   0  0  0  0  0  0  0  0  0  0  0  0
  -30.3030  -12.3530   18.8740 C   0  0  0  0  0  2  0  0  0  0  0  0
  -29.3010  -12.6090   17.7320 C   0  0  0  0  0  2  0  0  0  0  0  0
  -27.8530  -12.4730   18.2400 C   0  0  0  0  0  2  0  0  0  0  0  0
  -27.6010  -13.2740   19.5440 C   0  0  0  0  0  3  0  0  0  0  0  0
  -28.7090  -13.0040   20.5840 C   0  0  0  0  0  2  0  0  0  0  0  0
  -30.0080  -13.3050   19.9580 N   0  0  0  0  0  0  0  0  0  0  0  0
  -31.7870  -14.6400   19.4870 O   0  0  0  0  0  0  0  0  0  0  0  0
  -31.0910  -16.6430   22.3240 C   0  0  0  0  0  2  0  0  0  0  0  0
  -30.2360  -15.3850   22.3550 C   0  0  0  0  0  2  0  0  0  0  0  0
  -30.6710  -16.8370   20.8720 C   0  0  0  0  0  3  0  0  0  0  0  0
  -30.2110  -15.4230   20.8860 N   0  0  0  0  0  0  0  0  0  0  0  0
  -25.2400  -13.8810   20.3770 C   0  0  0  0  0  0  0  0  0  0  0  0
  -24.1910  -13.1080   20.7970 C   0  0  0  0  0  0  0  0  0  0  0  0
  -24.6490  -11.7570   20.7370 C   0  0  0  0  0  0  0  0  0  0  0  0
  -26.2720  -13.0000   20.0910 N   0  0  0  0  0  0  0  0  0  0  0  0
  -25.9210  -11.7160   20.3650 N   0  0  0  0  0  0  0  0  0  0  0  0
  -23.9320  -10.4930   20.9600 C   0  0  0  0  0  0  0  0  0  0  0  0
  -24.3970   -9.5320   21.8830 C   0  0  0  0  0  3  0  0  0  0  0  0
  -23.6800   -8.3340   22.0920 C   0  0  0  0  0  3  0  0  0  0  0  0
  -22.4830   -8.0890   21.3780 C   0  0  0  0  0  0  0  0  0  0  0  0
  -22.0360   -9.0390   20.4420 C   0  0  0  0  0  3  0  0  0  0  0  0
  -22.7540  -10.2280   20.2320 C   0  0  0  0  0  3  0  0  0  0  0  0
  -21.7350   -6.9430   21.4980 O   0  0  0  0  0  0  0  0  0  0  0  0
  -21.7110   -6.2160   22.6610 C   0  0  0  0  0  0  0  0  0  0  0  0
  -21.3280   -6.7930   23.8920 C   0  0  0  0  0  3  0  0  0  0  0  0
  -21.2490   -5.9930   25.0490 C   0  0  0  0  0  3  0  0  0  0  0  0
  -21.5440   -4.6180   24.9770 C   0  0  0  0  0  0  0  0  0  0  0  0
  -21.9210   -4.0420   23.7520 C   0  0  0  0  0  3  0  0  0  0  0  0
  -22.0010   -4.8380   22.5960 C   0  0  0  0  0  0  0  0  0  0  0  0
  -22.3420   -4.2740   21.4130 F   0  0  0  0  0  0  0  0  0  0  0  0
  -21.4640   -3.8480   26.0880 F   0  0  0  0  0  0  0  0  0  0  0  0
  -22.8100  -13.5850   21.1440 C   0  0  0  0  0  0  0  0  0  0  0  0
  -22.1280  -12.8910   22.0500 N   0  0  0  0  0  0  0  0  0  0  0  0
  -22.3450  -14.6100   20.6470 O   0  0  0  0  0  0  0  0  0  0  0  0
  -22.5160  -12.0600   22.4720 H   0  0  0  0  0  0  0  0  0  0  0  0
  -21.2060  -13.1960   22.3280 H   0  0  0  0  0  0  0  0  0  0  0  0
  -25.4000  -15.2510   20.1980 N   0  0  0  0  0  0  0  0  0  0  0  0
  -24.6460  -15.9140   20.3530 H   0  0  0  0  0  0  0  0  0  0  0  0
  -26.2480  -15.6860   19.8600 H   0  0  0  0  0  0  0  0  0  0  0  0
  -28.5560  -22.8390   20.4730 C   0  0  0  0  0  2  0  0  0  0  0  0
  -28.9630  -24.2680   20.0230 C   0  0  0  0  0  2  0  0  0  0  0  0
  -28.1630  -25.3690   20.7550 C   0  0  0  0  0  2  0  0  0  0  0  0
  -28.3460  -26.6880   20.2040 O   0  0  0  0  0  0  0  0  0  0  0  0
  -24.5610  -31.9040   23.2450 C   0  0  0  0  0  0  0  0  0  0  0  0
  -27.2010  -27.4540   20.1790 C   0  0  0  0  0  0  0  0  0  0  0  0
  -23.3570  -30.5020   21.6010 C   0  0  0  0  0  3  0  0  0  0  0  0
  -24.8140  -28.9660   20.1780 C   0  0  0  0  0  0  0  0  0  0  0  0
  -25.8840  -30.8600   21.4090 C   0  0  0  0  0  2  0  0  0  0  0  0
  -25.9710  -29.4880   20.7690 C   0  0  0  0  0  0  0  0  0  0  0  0
  -27.1720  -28.7410   20.7650 C   0  0  0  0  0  3  0  0  0  0  0  0
  -26.0310  -26.9560   19.5660 C   0  0  0  0  0  3  0  0  0  0  0  0
  -24.8390  -27.7000   19.5720 C   0  0  0  0  0  3  0  0  0  0  0  0
  -23.5690  -29.8230   20.2220 C   0  0  0  0  0  2  0  0  0  0  0  0
  -24.6190  -31.1030   22.1440 N   0  0  0  0  0  0  0  0  0  0  0  0
  -23.4790  -32.1770   23.7820 O   0  0  0  0  0  0  0  0  0  0  0  0
  -22.7020  -29.4820   22.5600 C   0  0  0  0  0  0  0  0  0  0  0  0
  -21.3770  -29.3050   22.4310 N   0  0  0  0  0  0  0  0  0  0  0  0
  -23.3820  -28.8520   23.3740 O   0  0  0  0  0  0  0  0  0  0  0  0
  -20.8900  -29.8640   21.7440 H   0  0  0  0  0  0  0  0  0  0  0  0
  -17.9990  -28.1160   22.9120 C   0  0  0  0  0  0  0  0  0  0  0  0
  -20.5550  -28.3700   23.1980 C   0  0  0  0  0  3  0  0  0  0  0  0
  -20.6600  -26.9370   22.6270 C   0  0  0  0  0  2  0  0  0  0  0  0
  -19.5630  -26.6140   21.6070 C   0  0  0  0  0  2  0  0  0  0  0  0
  -18.1780  -26.7640   22.2420 C   0  0  0  0  0  2  0  0  0  0  0  0
  -19.1160  -28.8760   23.3480 C   0  0  0  0  0  0  0  0  0  0  0  0
  -18.8960  -30.1420   23.9330 C   0  0  0  0  0  3  0  0  0  0  0  0
  -17.5910  -30.6470   24.0890 C   0  0  0  0  0  3  0  0  0  0  0  0
  -16.4880  -29.8820   23.6710 C   0  0  0  0  0  3  0  0  0  0  0  0
  -16.6930  -28.6180   23.0880 C   0  0  0  0  0  3  0  0  0  0  0  0
  -25.8460  -32.5330   23.8690 C   0  0  0  0  0  3  0  0  0  0  0  0
  -26.3600  -31.7590   25.1450 C   0  0  1  0  0  0  0  0  0  0  0  0
  -25.2670  -31.5220   26.2130 C   0  0  0  0  0  1  0  0  0  0  0  0
  -26.9410  -30.3810   24.7500 C   0  0  0  0  0  1  0  0  0  0  0  0
  -27.5140  -32.5500   25.8070 C   0  0  0  0  0  1  0  0  0  0  0  0
  -25.5390  -33.9320   24.1980 N   0  0  0  0  0  0  0  0  0  0  0  0
  -25.8790  -34.9820   23.4380 C   0  0  0  0  0  0  0  0  0  0  0  0
  -26.5550  -34.8750   22.4110 O   0  0  0  0  0  0  0  0  0  0  0  0
  -24.9420  -34.0900   24.9960 H   0  0  0  0  0  0  0  0  0  0  0  0
  -24.1550  -36.7760   23.0640 C   0  0  0  0  0  1  0  0  0  0  0  0
  -25.3890  -36.3710   23.8880 C   0  0  0  0  0  3  0  0  0  0  0  0
  -27.5230  -37.2490   24.7290 C   0  0  0  0  0  1  0  0  0  0  0  0
  -26.4230  -37.4240   23.7840 N   0  0  0  0  0  0  0  0  0  0  0  0
  -26.0170  -38.3430   23.9390 H   0  0  0  0  0  0  0  0  0  0  0  0
  1  2  1  0
  1 47  1  0
  2  5  1  0
  2  3  1  0
  4  2  1  0
  5  6  1  0
  7 18  1  0
  8 13  1  0
  9 10  1  0
  9  8  1  0
 11 10  1  0
 11 22  1  0
 11 12  1  0
 13  7  1  0
 13 12  1  0
 14  7  2  0
 15 16  1  0
 17  6  1  0
 17 18  1  0
 17 15  1  0
 18 16  1  0
 19 20  2  0
 20 39  1  0
 21 20  1  0
 21 24  1  0
 22 23  1  0
 22 19  1  0
 23 21  2  0
 24 25  1  0
 25 26  2  0
 27 30  1  0
 27 26  1  0
 28 27  2  0
 29 28  1  0
 29 24  2  0
 30 31  1  0
 31 32  1  0
 32 33  2  0
 34 33  1  0
 34 38  1  0
 35 34  2  0
 36 31  2  0
 36 35  1  0
 37 36  1  0
 39 40  1  0
 40 43  1  0
 40 42  1  0
 41 39  2  0
 44 45  1  0
 44 19  1  0
 46 44  1  0
 48 47  1  0
 48 49  1  0
 50 49  1  0
 51 62  2  0
 52 50  1  0
 52 57  1  0
 53 61  1  0
 53 63  1  0
 54 60  1  0
 54 56  1  0
 55 61  1  0
 56 55  1  0
 57 56  2  0
 58 59  1  0
 58 52  2  0
 59 54  2  0
 60 53  1  0
 61 51  1  0
 63 65  2  0
 64 63  1  0
 66 64  1  0
 67 76  2  0
 67 72  1  0
 68 64  1  0
 68 72  1  0
 69 68  1  0
 70 71  1  0
 70 69  1  0
 71 67  1  0
 72 73  2  0
 73 74  1  0
 75 74  2  0
 76 75  1  0
 77 51  1  0
 77 82  1  0
 77 78  1  0
 78 81  1  1
 78 79  1  0
 80 78  1  0
 82 85  1  0
 83 87  1  0
 83 82  1  0
 84 83  2  0
 87 86  1  0
 89 87  1  0
 89 90  1  0
 89 88  1  0
M  ISO  4   7 100  18 100  49 101  50 101
M  END
>  <TORSDO>  (24) 
F 22

>  <SCORE>  (24) 
-11.987

>  <name>  (24) 
24

>  <ligand_id>  (24) 
24

>  <original_smiles>  (24) 
[H]c1c([H])c([H])c2c(c1[H])C([H])([H])C([H])([H])C([H])([H])C2([H])N([H])C(=O)C1([H])N(C(=O)C([H])(N([H])C(=O)C([H])(N([H])C([H])([H])[H])C([H])([H])[H])C(C([H])([H])[H])(C([H])([H])[H])C([H])([H])[H])C([H])([H])c2c([H])c(OC([H])([H])C([H])([H])C([H])([H])C([H])([H])[N+]([H])([H])C([H])([H])C([H])([H])C3([H])N(C(=O)N4C([H])([H])C([H])([H])C([H])([H])C([H])(n5nc(-c6c([H])c([H])c(Oc7c([H])c([H])c(F)c([H])c7F)c([H])c6[H])c(C(=O)N([H])[H])c5N([H])[H])C4([H])[H])C([H])([H])C3([H])[H])c([H])c([H])c2C1([H])[H]

>  <smiles>  (24) 
[H]c1c([H])c([H])c2c(c1[H])C([H])([H])C([H])([H])C([H])([H])C2([H])N([H])C(=O)C1([H])N(C(=O)C([H])(N([H])C(=O)C([H])(N([H])C([H])([H])[H])C([H])([H])[H])C(C([H])([H])[H])(C([H])([H])[H])C([H])([H])[H])C([H])([H])c2c([H])c(OC([H])([H])C([H])([H])C([H])([H])C([H])([H])[N+]([H])([H])C([H])([H])C([H])([H])C3([H])N(C(=O)N4C([H])([H])C([H])([H])C([H])([H])C([H])(n5nc(-c6c([H])c([H])c(Oc7c([H])c([H])c(F)c([H])c7F)c([H])c6[H])c(C(=O)N([H])[H])c5N([H])[H])C4([H])[H])C([H])([H])C3([H])[H])c([H])c([H])c2C1([H])[H]

$$$$
25:0:0
     RDKit          3D

 95104  0  0  1  0  0  0  0  0999 V2000
  -29.7670  -23.5950   20.4490 C   0  0  0  0  0  3  0  0  0  0  0  0
  -29.7960  -19.9660   21.4340 C   0  0  0  0  0  3  0  0  0  0  0  0
  -28.8260  -21.4640   19.2000 C   0  0  0  0  0  2  0  0  0  0  0  0
  -28.0590  -19.0080   19.7180 C   0  0  0  0  0  2  0  0  0  0  0  0
  -28.9950  -19.9590   19.0030 C   0  0  0  0  0  3  0  0  0  0  0  0
  -29.8620  -22.0260   20.2090 C   0  0  0  0  0  3  0  0  0  0  0  0
  -29.4870  -19.1340   20.1840 C   0  0  1  0  0  0  0  0  0  0  0  0
  -29.8710  -21.2490   21.4590 N   0  0  0  0  0  0  0  0  0  0  0  0
  -30.4210  -17.9170   19.9780 C   0  0  0  0  0  2  0  0  0  0  0  0
  -30.4370  -16.8410   21.1120 C   0  0  0  0  0  2  0  0  0  0  0  0
  -30.6690  -14.5020   20.1050 C   0  0  0  0  0  0  0  0  0  0  0  0
  -30.3260  -12.3470   18.9350 C   0  0  0  0  0  2  0  0  0  0  0  0
  -29.3110  -12.5370   17.7880 C   0  0  0  0  0  2  0  0  0  0  0  0
  -27.8630  -12.3940   18.3000 C   0  0  0  0  0  2  0  0  0  0  0  0
  -27.5950  -13.2290   19.5800 C   0  0  0  0  0  3  0  0  0  0  0  0
  -28.7090  -12.9990   20.6260 C   0  0  0  0  0  2  0  0  0  0  0  0
  -29.9970  -13.3220   19.9860 N   0  0  0  0  0  0  0  0  0  0  0  0
  -31.7700  -14.7040   19.5870 O   0  0  0  0  0  0  0  0  0  0  0  0
  -29.9910  -15.4840   20.7330 N   0  0  0  0  0  0  0  0  0  0  0  0
  -29.0790  -15.2120   21.0700 H   0  0  0  0  0  0  0  0  0  0  0  0
  -25.2410  -13.8400   20.4190 C   0  0  0  0  0  0  0  0  0  0  0  0
  -24.1900  -13.0700   20.8410 C   0  0  0  0  0  0  0  0  0  0  0  0
  -24.6430  -11.7160   20.7760 C   0  0  0  0  0  0  0  0  0  0  0  0
  -26.2680  -12.9560   20.1290 N   0  0  0  0  0  0  0  0  0  0  0  0
  -25.9160  -11.6740   20.4000 N   0  0  0  0  0  0  0  0  0  0  0  0
  -23.9240  -10.4560   20.9970 C   0  0  0  0  0  0  0  0  0  0  0  0
  -24.3820   -9.4980   21.9280 C   0  0  0  0  0  3  0  0  0  0  0  0
  -23.6620   -8.3010   22.1350 C   0  0  0  0  0  3  0  0  0  0  0  0
  -22.4700   -8.0540   21.4110 C   0  0  0  0  0  0  0  0  0  0  0  0
  -22.0330   -9.0010   20.4680 C   0  0  0  0  0  3  0  0  0  0  0  0
  -22.7530  -10.1890   20.2590 C   0  0  0  0  0  3  0  0  0  0  0  0
  -21.7200   -6.9090   21.5280 O   0  0  0  0  0  0  0  0  0  0  0  0
  -21.6840   -6.1890   22.6950 C   0  0  0  0  0  0  0  0  0  0  0  0
  -21.2410   -6.7570   23.9090 C   0  0  0  0  0  3  0  0  0  0  0  0
  -21.1540   -5.9620   25.0690 C   0  0  0  0  0  3  0  0  0  0  0  0
  -21.5000   -4.5990   25.0150 C   0  0  0  0  0  0  0  0  0  0  0  0
  -21.9360   -4.0290   23.8070 C   0  0  0  0  0  3  0  0  0  0  0  0
  -22.0250   -4.8220   22.6490 C   0  0  0  0  0  0  0  0  0  0  0  0
  -22.4260   -4.2630   21.4820 F   0  0  0  0  0  0  0  0  0  0  0  0
  -21.4090   -3.8320   26.1280 F   0  0  0  0  0  0  0  0  0  0  0  0
  -22.8110  -13.5490   21.1900 C   0  0  0  0  0  0  0  0  0  0  0  0
  -22.1260  -12.8440   22.0840 N   0  0  0  0  0  0  0  0  0  0  0  0
  -22.3510  -14.5830   20.7060 O   0  0  0  0  0  0  0  0  0  0  0  0
  -22.5130  -12.0070   22.4950 H   0  0  0  0  0  0  0  0  0  0  0  0
  -21.2020  -13.1440   22.3610 H   0  0  0  0  0  0  0  0  0  0  0  0
  -25.4030  -15.2110   20.2410 N   0  0  0  0  0  0  0  0  0  0  0  0
  -24.6470  -15.8720   20.3900 H   0  0  0  0  0  0  0  0  0  0  0  0
  -26.2390  -15.6450   19.8700 H   0  0  0  0  0  0  0  0  0  0  0  0
  -30.6440  -23.8500   22.8300 C   0  0  0  0  0  1  0  0  0  0  0  0
  -32.2110  -23.8900   20.9300 C   0  0  0  0  0  1  0  0  0  0  0  0
  -30.8190  -24.1310   21.3780 N   0  0  1  0  0  4  0  0  0  0  0  0
  -30.7130  -25.1320   21.3070 H   0  0  0  0  0  0  0  0  0  0  0  0
  -28.3390  -24.1560   20.7720 C   0  0  0  0  0  2  0  0  0  0  0  0
  -28.1860  -25.6800   21.0970 C   0  0  0  0  0  2  0  0  0  0  0  0
  -28.1080  -26.5800   19.9740 O   0  0  0  0  0  0  0  0  0  0  0  0
  -24.5480  -31.8790   23.1820 C   0  0  0  0  0  0  0  0  0  0  0  0
  -26.9980  -27.4000   19.9940 C   0  0  0  0  0  0  0  0  0  0  0  0
  -23.2720  -30.5450   21.5360 C   0  0  0  0  0  3  0  0  0  0  0  0
  -24.6550  -28.9860   20.0620 C   0  0  0  0  0  0  0  0  0  0  0  0
  -25.8050  -30.8270   21.3020 C   0  0  0  0  0  2  0  0  0  0  0  0
  -25.8390  -29.4630   20.6400 C   0  0  0  0  0  0  0  0  0  0  0  0
  -27.0150  -28.6770   20.6070 C   0  0  0  0  0  3  0  0  0  0  0  0
  -25.8030  -26.9410   19.4050 C   0  0  0  0  0  3  0  0  0  0  0  0
  -24.6320  -27.7240   19.4420 C   0  0  0  0  0  3  0  0  0  0  0  0
  -23.4380  -29.8820   20.1430 C   0  0  0  0  0  2  0  0  0  0  0  0
  -24.5620  -31.0970   22.0650 N   0  0  0  0  0  0  0  0  0  0  0  0
  -23.4850  -32.1760   23.7440 O   0  0  0  0  0  0  0  0  0  0  0  0
  -22.6010  -29.5310   22.4910 C   0  0  0  0  0  0  0  0  0  0  0  0
  -21.2720  -29.3810   22.3700 N   0  0  0  0  0  0  0  0  0  0  0  0
  -23.2740  -28.8830   23.2970 O   0  0  0  0  0  0  0  0  0  0  0  0
  -20.7930  -29.9520   21.6860 H   0  0  0  0  0  0  0  0  0  0  0  0
  -17.8730  -28.2610   22.8730 C   0  0  0  0  0  0  0  0  0  0  0  0
  -20.4360  -28.4550   23.1350 C   0  0  0  0  0  3  0  0  0  0  0  0
  -20.5040  -27.0290   22.5430 C   0  0  0  0  0  2  0  0  0  0  0  0
  -19.3900  -26.7430   21.5310 C   0  0  0  0  0  2  0  0  0  0  0  0
  -18.0150  -26.9150   22.1830 C   0  0  0  0  0  2  0  0  0  0  0  0
  -19.0120  -28.9920   23.3060 C   0  0  0  0  0  0  0  0  0  0  0  0
  -18.8270  -30.2540   23.9110 C   0  0  0  0  0  3  0  0  0  0  0  0
  -17.5350  -30.7850   24.0880 C   0  0  0  0  0  3  0  0  0  0  0  0
  -16.4110  -30.0490   23.6730 C   0  0  0  0  0  3  0  0  0  0  0  0
  -16.5810  -28.7890   23.0720 C   0  0  0  0  0  3  0  0  0  0  0  0
  -25.8620  -32.4580   23.7930 C   0  0  0  0  0  3  0  0  0  0  0  0
  -25.6130  -33.8680   24.1240 N   0  0  0  0  0  0  0  0  0  0  0  0
  -25.9980  -34.9060   23.3700 C   0  0  0  0  0  0  0  0  0  0  0  0
  -26.6700  -34.7740   22.3430 O   0  0  0  0  0  0  0  0  0  0  0  0
  -25.0140  -34.0490   24.9160 H   0  0  0  0  0  0  0  0  0  0  0  0
  -24.3610  -36.7810   22.9940 C   0  0  0  0  0  1  0  0  0  0  0  0
  -25.5670  -36.3130   23.8250 C   0  0  0  0  0  3  0  0  0  0  0  0
  -27.7220  -37.0940   24.7030 C   0  0  0  0  0  1  0  0  0  0  0  0
  -26.6490  -37.3170   23.7370 N   0  0  0  0  0  0  0  0  0  0  0  0
  -26.2840  -38.2560   23.8780 H   0  0  0  0  0  0  0  0  0  0  0  0
  -26.3620  -31.6640   25.0630 C   0  0  1  0  0  0  0  0  0  0  0  0
  -25.2680  -31.4580   26.1370 C   0  0  0  0  0  1  0  0  0  0  0  0
  -26.8920  -30.2690   24.6580 C   0  0  0  0  0  1  0  0  0  0  0  0
  -27.5480  -32.4110   25.7150 C   0  0  0  0  0  1  0  0  0  0  0  0
  1 53  1  0
  1 51  1  0
  2  8  2  0
  3  6  1  0
  4  7  1  0
  5  3  1  0
  5  4  1  0
  5  7  1  0
  6  1  1  0
  6  8  1  0
  7  9  1  6
  7  2  1  0
  9 10  1  0
 11 19  1  0
 12 17  1  0
 13 14  1  0
 13 12  1  0
 15 14  1  0
 15 24  1  0
 15 16  1  0
 17 11  1  0
 17 16  1  0
 18 11  2  0
 19 20  1  0
 19 10  1  0
 21 22  2  0
 22 41  1  0
 23 22  1  0
 23 26  1  0
 24 25  1  0
 24 21  1  0
 25 23  2  0
 26 27  1  0
 27 28  2  0
 29 32  1  0
 29 28  1  0
 30 29  2  0
 31 30  1  0
 31 26  2  0
 32 33  1  0
 33 34  1  0
 34 35  2  0
 36 35  1  0
 36 40  1  0
 37 36  2  0
 38 33  2  0
 38 37  1  0
 39 38  1  0
 41 42  1  0
 42 45  1  0
 42 44  1  0
 43 41  2  0
 46 47  1  0
 46 21  1  0
 48 46  1  0
 50 51  1  0
 51 49  1  0
 51 52  1  1
 53 54  1  0
 55 57  1  0
 55 54  1  0
 56 67  2  0
 57 62  1  0
 58 66  1  0
 58 68  1  0
 59 65  1  0
 59 61  1  0
 60 66  1  0
 61 60  1  0
 62 61  2  0
 63 64  1  0
 63 57  2  0
 64 59  2  0
 65 58  1  0
 66 56  1  0
 68 70  2  0
 69 68  1  0
 71 69  1  0
 72 81  2  0
 72 77  1  0
 73 69  1  0
 73 77  1  0
 74 73  1  0
 75 76  1  0
 75 74  1  0
 76 72  1  0
 77 78  2  0
 78 79  1  0
 80 79  2  0
 81 80  1  0
 82 56  1  0
 82 83  1  0
 82 92  1  0
 83 86  1  0
 84 88  1  0
 84 83  1  0
 85 84  2  0
 88 87  1  0
 90 88  1  0
 90 91  1  0
 90 89  1  0
 92 95  1  1
 92 93  1  0
 94 92  1  0
M  ISO  4  11 100  19 100  54 101  55 101
M  END
>  <TORSDO>  (25) 
F 22

>  <SCORE>  (25) 
-11.995

>  <name>  (25) 
25

>  <ligand_id>  (25) 
25

>  <original_smiles>  (25) 
[H]C1=NC([H])(C([H])(C([H])([H])C([H])([H])Oc2c([H])c([H])c3c(c2[H])C([H])([H])N(C(=O)C([H])(N([H])C(=O)C([H])(N([H])C([H])([H])[H])C([H])([H])[H])C(C([H])([H])[H])(C([H])([H])[H])C([H])([H])[H])C([H])(C(=O)N([H])C2([H])c4c([H])c([H])c([H])c([H])c4C([H])([H])C([H])([H])C2([H])[H])C3([H])[H])[N+]([H])(C([H])([H])[H])C([H])([H])[H])C([H])([H])C2([H])C([H])([H])C12C([H])([H])C([H])([H])N([H])C(=O)N1C([H])([H])C([H])([H])C([H])([H])C([H])(n2nc(-c3c([H])c([H])c(Oc4c([H])c([H])c(F)c([H])c4F)c([H])c3[H])c(C(=O)N([H])[H])c2N([H])[H])C1([H])[H]

>  <smiles>  (25) 
[H]C1=NC([H])(C([H])(C([H])([H])C([H])([H])Oc2c([H])c([H])c3c(c2[H])C([H])([H])N(C(=O)C([H])(N([H])C(=O)C([H])(N([H])C([H])([H])[H])C([H])([H])[H])C(C([H])([H])[H])(C([H])([H])[H])C([H])([H])[H])C([H])(C(=O)N([H])C2([H])c4c([H])c([H])c([H])c([H])c4C([H])([H])C([H])([H])C2([H])[H])C3([H])[H])[N+]([H])(C([H])([H])[H])C([H])([H])[H])C([H])([H])C2([H])C([H])([H])C12C([H])([H])C([H])([H])N([H])C(=O)N1C([H])([H])C([H])([H])C([H])([H])C([H])(n2nc(-c3c([H])c([H])c(Oc4c([H])c([H])c(F)c([H])c4F)c([H])c3[H])c(C(=O)N([H])[H])c2N([H])[H])C1([H])[H]

$$$$
26:0:0
     RDKit          3D

 88 95  0  0  1  0  0  0  0  0999 V2000
  -30.0520  -23.6460   21.1840 C   0  0  0  0  0  1  0  0  0  0  0  0
  -28.7520  -23.4700   20.3820 C   0  0  2  0  0  0  0  0  0  0  0  0
  -27.3160  -22.1990   22.2170 C   0  0  0  0  0  1  0  0  0  0  0  0
  -27.5280  -23.4490   21.3470 C   0  0  0  0  0  2  0  0  0  0  0  0
  -28.8890  -21.9710   19.6170 C   0  0  0  0  0  2  0  0  0  0  0  0
  -29.6290  -20.5920   20.2410 C   0  0  0  0  0  2  0  0  0  0  0  0
  -29.3750  -19.0040   19.7750 C   0  0  0  0  0  3  0  0  0  0  0  0
  -30.3430  -17.7270   20.2500 C   0  0  0  0  0  3  0  0  0  0  0  0
  -30.6930  -15.0330   19.9810 C   0  0  0  0  0  0  0  0  0  0  0  0
  -30.4720  -12.7030   19.0410 C   0  0  0  0  0  2  0  0  0  0  0  0
  -29.4770  -12.7040   17.8580 C   0  0  0  0  0  2  0  0  0  0  0  0
  -28.0300  -12.5320   18.3600 C   0  0  0  0  0  2  0  0  0  0  0  0
  -27.7060  -13.4490   19.5700 C   0  0  0  0  0  3  0  0  0  0  0  0
  -28.8190  -13.4200   20.6390 C   0  0  0  0  0  2  0  0  0  0  0  0
  -30.0670  -13.7940   19.9640 N   0  0  0  0  0  0  0  0  0  0  0  0
  -31.8810  -15.0900   19.6500 O   0  0  0  0  0  0  0  0  0  0  0  0
  -29.9390  -16.2120   20.1720 N   0  0  0  0  0  0  0  0  0  0  0  0
  -28.9660  -16.0310   20.3720 H   0  0  0  0  0  0  0  0  0  0  0  0
  -25.3790  -14.0560   20.4400 C   0  0  0  0  0  0  0  0  0  0  0  0
  -24.3200  -13.2900   20.8490 C   0  0  0  0  0  0  0  0  0  0  0  0
  -24.7590  -11.9330   20.7690 C   0  0  0  0  0  0  0  0  0  0  0  0
  -26.3910  -13.1650   20.1310 N   0  0  0  0  0  0  0  0  0  0  0  0
  -26.0310  -11.8820   20.3940 N   0  0  0  0  0  0  0  0  0  0  0  0
  -24.0190  -10.6810   20.9680 C   0  0  0  0  0  0  0  0  0  0  0  0
  -24.4700   -9.6900   21.8670 C   0  0  0  0  0  3  0  0  0  0  0  0
  -23.7280   -8.5030   22.0530 C   0  0  0  0  0  3  0  0  0  0  0  0
  -22.5210   -8.3000   21.3430 C   0  0  0  0  0  0  0  0  0  0  0  0
  -22.0900   -9.2800   20.4320 C   0  0  0  0  0  3  0  0  0  0  0  0
  -22.8330  -10.4570   20.2420 C   0  0  0  0  0  3  0  0  0  0  0  0
  -21.7480   -7.1690   21.4440 O   0  0  0  0  0  0  0  0  0  0  0  0
  -21.7250   -6.4120   22.5880 C   0  0  0  0  0  0  0  0  0  0  0  0
  -21.3480   -6.9570   23.8350 C   0  0  0  0  0  3  0  0  0  0  0  0
  -21.2700   -6.1280   24.9720 C   0  0  0  0  0  3  0  0  0  0  0  0
  -21.5620   -4.7550   24.8640 C   0  0  0  0  0  0  0  0  0  0  0  0
  -21.9340   -4.2100   23.6220 C   0  0  0  0  0  3  0  0  0  0  0  0
  -22.0120   -5.0360   22.4870 C   0  0  0  0  0  0  0  0  0  0  0  0
  -22.3490   -4.5010   21.2890 F   0  0  0  0  0  0  0  0  0  0  0  0
  -21.4790   -3.9550   25.9530 F   0  0  0  0  0  0  0  0  0  0  0  0
  -22.9490  -13.7880   21.1990 C   0  0  0  0  0  0  0  0  0  0  0  0
  -22.2580  -13.0920   22.0950 N   0  0  0  0  0  0  0  0  0  0  0  0
  -22.5030  -14.8280   20.7160 O   0  0  0  0  0  0  0  0  0  0  0  0
  -22.6340  -12.2500   22.5040 H   0  0  0  0  0  0  0  0  0  0  0  0
  -21.3420  -13.4090   22.3800 H   0  0  0  0  0  0  0  0  0  0  0  0
  -25.5520  -15.4270   20.2770 N   0  0  0  0  0  0  0  0  0  0  0  0
  -24.7820  -16.0760   20.4010 H   0  0  0  0  0  0  0  0  0  0  0  0
  -26.3760  -15.8620   19.8850 H   0  0  0  0  0  0  0  0  0  0  0  0
  -28.5220  -24.8830   19.5030 C   0  0  0  0  0  2  0  0  0  0  0  0
  -28.4900  -26.3440   20.0400 O   0  0  0  0  0  0  0  0  0  0  0  0
  -24.6820  -31.8290   23.1240 C   0  0  0  0  0  0  0  0  0  0  0  0
  -27.3880  -27.2680   19.9710 C   0  0  0  0  0  0  0  0  0  0  0  0
  -23.5240  -30.4380   21.4510 C   0  0  0  0  0  3  0  0  0  0  0  0
  -25.0140  -28.9440   19.9880 C   0  0  0  0  0  0  0  0  0  0  0  0
  -26.0710  -30.7780   21.3030 C   0  0  0  0  0  2  0  0  0  0  0  0
  -26.1810  -29.4090   20.6100 C   0  0  0  0  0  0  0  0  0  0  0  0
  -27.3660  -28.5840   20.5870 C   0  0  0  0  0  3  0  0  0  0  0  0
  -26.1880  -26.9030   19.3200 C   0  0  0  0  0  3  0  0  0  0  0  0
  -25.0280  -27.7050   19.3350 C   0  0  0  0  0  3  0  0  0  0  0  0
  -23.7650  -29.8080   20.0540 C   0  0  0  0  0  2  0  0  0  0  0  0
  -24.7780  -31.0380   22.0120 N   0  0  0  0  0  0  0  0  0  0  0  0
  -23.5870  -32.0690   23.6560 O   0  0  0  0  0  0  0  0  0  0  0  0
  -22.8770  -29.3870   22.3870 C   0  0  0  0  0  0  0  0  0  0  0  0
  -21.5490  -29.2070   22.2790 N   0  0  0  0  0  0  0  0  0  0  0  0
  -23.5700  -28.7390   23.1760 O   0  0  0  0  0  0  0  0  0  0  0  0
  -21.0450  -29.7810   21.6190 H   0  0  0  0  0  0  0  0  0  0  0  0
  -18.1800  -27.9870   22.8350 C   0  0  0  0  0  0  0  0  0  0  0  0
  -20.7480  -28.2340   23.0290 C   0  0  0  0  0  3  0  0  0  0  0  0
  -20.8270  -26.8300   22.3820 C   0  0  0  0  0  2  0  0  0  0  0  0
  -19.6890  -26.5570   21.3910 C   0  0  0  0  0  2  0  0  0  0  0  0
  -18.3300  -26.6740   22.0860 C   0  0  0  0  0  2  0  0  0  0  0  0
  -19.3150  -28.7270   23.2630 C   0  0  0  0  0  0  0  0  0  0  0  0
  -19.1190  -29.9610   23.9240 C   0  0  0  0  0  3  0  0  0  0  0  0
  -17.8210  -30.4520   24.1610 C   0  0  0  0  0  3  0  0  0  0  0  0
  -16.7020  -29.7070   23.7520 C   0  0  0  0  0  3  0  0  0  0  0  0
  -16.8820  -28.4760   23.0940 C   0  0  0  0  0  3  0  0  0  0  0  0
  -25.9440  -32.4870   23.7630 C   0  0  0  0  0  3  0  0  0  0  0  0
  -26.4720  -31.7130   25.0330 C   0  0  1  0  0  0  0  0  0  0  0  0
  -25.3760  -31.4280   26.0890 C   0  0  0  0  0  1  0  0  0  0  0  0
  -27.1010  -30.3600   24.6310 C   0  0  0  0  0  1  0  0  0  0  0  0
  -27.5970  -32.5290   25.7130 C   0  0  0  0  0  1  0  0  0  0  0  0
  -25.5890  -33.8680   24.1210 N   0  0  0  0  0  0  0  0  0  0  0  0
  -25.8850  -34.9500   23.3880 C   0  0  0  0  0  0  0  0  0  0  0  0
  -26.5510  -34.8920   22.3510 O   0  0  0  0  0  0  0  0  0  0  0  0
  -25.0010  -33.9790   24.9330 H   0  0  0  0  0  0  0  0  0  0  0  0
  -24.0980  -36.6980   23.0980 C   0  0  0  0  0  1  0  0  0  0  0  0
  -25.3620  -36.3130   23.8840 C   0  0  0  0  0  3  0  0  0  0  0  0
  -27.4780  -37.2450   24.7160 C   0  0  0  0  0  1  0  0  0  0  0  0
  -26.3600  -37.3990   23.7870 N   0  0  0  0  0  0  0  0  0  0  0  0
  -25.9280  -38.3010   23.9640 H   0  0  0  0  0  0  0  0  0  0  0  0
  2  1  1  1
  2  4  1  0
  4  3  1  0
  5  6  1  0
  5  2  1  0
  7  6  1  0
  7  8  2  0
  9 17  1  0
 10 15  1  0
 11 12  1  0
 11 10  1  0
 13 12  1  0
 13 22  1  0
 13 14  1  0
 15  9  1  0
 15 14  1  0
 16  9  2  0
 17  8  1  0
 17 18  1  0
 19 20  2  0
 20 39  1  0
 21 20  1  0
 21 24  1  0
 22 23  1  0
 22 19  1  0
 23 21  2  0
 24 25  1  0
 25 26  2  0
 27 30  1  0
 27 26  1  0
 28 27  2  0
 29 28  1  0
 29 24  2  0
 30 31  1  0
 31 32  1  0
 32 33  2  0
 34 33  1  0
 34 38  1  0
 35 34  2  0
 36 31  2  0
 36 35  1  0
 37 36  1  0
 39 40  1  0
 40 43  1  0
 40 42  1  0
 41 39  2  0
 44 45  1  0
 44 19  1  0
 46 44  1  0
 47 48  1  0
 47  2  1  0
 49 60  2  0
 50 48  1  0
 50 55  1  0
 51 59  1  0
 51 61  1  0
 52 58  1  0
 52 54  1  0
 53 59  1  0
 54 53  1  0
 55 54  2  0
 56 57  1  0
 56 50  2  0
 57 52  2  0
 58 51  1  0
 59 49  1  0
 61 63  2  0
 62 61  1  0
 64 62  1  0
 65 74  2  0
 65 70  1  0
 66 62  1  0
 66 70  1  0
 67 66  1  0
 68 69  1  0
 68 67  1  0
 69 65  1  0
 70 71  2  0
 71 72  1  0
 73 72  2  0
 74 73  1  0
 75 49  1  0
 75 80  1  0
 75 76  1  0
 76 79  1  1
 76 77  1  0
 78 76  1  0
 80 83  1  0
 81 85  1  0
 81 80  1  0
 82 81  2  0
 85 84  1  0
 87 85  1  0
 87 88  1  0
 87 86  1  0
M  ISO  4   9 100  17 100  47 101  48 101
M  END
>  <TORSDO>  (26) 
F 22

>  <SCORE>  (26) 
-11.973

>  <name>  (26) 
26

>  <ligand_id>  (26) 
26

>  <original_smiles>  (26) 
[H]c1c([H])c([H])c2c(c1[H])C([H])([H])C([H])([H])C([H])([H])C2([H])N([H])C(=O)C1([H])N(C(=O)C([H])(N([H])C(=O)C([H])(N([H])C([H])([H])[H])C([H])([H])[H])C(C([H])([H])[H])(C([H])([H])[H])C([H])([H])[H])C([H])([H])c2c([H])c(OC([H])([H])C(C([H])([H])[H])(C([H])([H])C([H])([H])[H])C([H])([H])C([H])([H])C([H])([H])C([H])([H])N([H])C(=O)N3C([H])([H])C([H])([H])C([H])([H])C([H])(n4nc(-c5c([H])c([H])c(Oc6c([H])c([H])c(F)c([H])c6F)c([H])c5[H])c(C(=O)N([H])[H])c4N([H])[H])C3([H])[H])c([H])c([H])c2C1([H])[H]

>  <smiles>  (26) 
[H]c1c([H])c([H])c2c(c1[H])C([H])([H])C([H])([H])C([H])([H])C2([H])N([H])C(=O)C1([H])N(C(=O)C([H])(N([H])C(=O)C([H])(N([H])C([H])([H])[H])C([H])([H])[H])C(C([H])([H])[H])(C([H])([H])[H])C([H])([H])[H])C([H])([H])c2c([H])c(OC([H])([H])C(C([H])([H])[H])(C([H])([H])C([H])([H])[H])C([H])([H])C([H])([H])C([H])([H])C([H])([H])N([H])C(=O)N3C([H])([H])C([H])([H])C([H])([H])C([H])(n4nc(-c5c([H])c([H])c(Oc6c([H])c([H])c(F)c([H])c6F)c([H])c5[H])c(C(=O)N([H])[H])c4N([H])[H])C3([H])[H])c([H])c([H])c2C1([H])[H]

$$$$
27:0:0
     RDKit          3D

 89 98  0  0  1  0  0  0  0  0999 V2000
  -27.2670  -21.1000   21.2340 C   0  0  0  0  0  2  0  0  0  0  0  0
  -29.8750  -20.9000   20.8700 C   0  0  0  0  0  2  0  0  0  0  0  0
  -28.5980  -20.4580   21.5230 C   0  0  0  0  0  3  0  0  0  0  0  0
  -27.9730  -20.2890   20.1560 C   0  0  0  0  0  3  0  0  0  0  0  0
  -29.2780  -20.6920   19.4670 C   0  0  2  0  0  0  0  0  0  0  0  0
  -31.5410  -19.2790   18.7410 C   0  0  0  0  0  1  0  0  0  0  0  0
  -29.4950  -18.9880   17.3620 C   0  0  0  0  0  1  0  0  0  0  0  0
  -30.0230  -19.0370   18.8060 C   0  0  2  0  0  0  0  0  0  0  0  0
  -30.7890  -16.0060   19.1770 C   0  0  0  0  0  0  0  0  0  0  0  0
  -30.8970  -13.4260   18.5600 C   0  0  0  0  0  2  0  0  0  0  0  0
  -29.8880  -12.9300   17.4870 C   0  0  0  0  0  2  0  0  0  0  0  0
  -28.5410  -12.5650   18.1330 C   0  0  0  0  0  2  0  0  0  0  0  0
  -28.1150  -13.6180   19.1820 C   0  0  0  0  0  3  0  0  0  0  0  0
  -29.2580  -14.0320   20.1430 C   0  0  0  0  0  2  0  0  0  0  0  0
  -30.3250  -14.6300   19.3120 N   0  0  0  0  0  0  0  0  0  0  0  0
  -31.9710  -15.9790   18.7930 O   0  0  0  0  0  0  0  0  0  0  0  0
  -29.9950  -17.3370   19.2760 N   0  0  0  0  0  0  0  0  0  0  0  0
  -29.0930  -17.1260   19.6700 H   0  0  0  0  0  0  0  0  0  0  0  0
  -25.9550  -14.1150   20.4220 C   0  0  0  0  0  0  0  0  0  0  0  0
  -24.9410  -13.3210   20.8700 C   0  0  0  0  0  0  0  0  0  0  0  0
  -25.3430  -11.9740   20.6120 C   0  0  0  0  0  0  0  0  0  0  0  0
  -26.8970  -13.2550   19.8860 N   0  0  0  0  0  0  0  0  0  0  0  0
  -26.5590  -11.9540   20.0760 N   0  0  0  0  0  0  0  0  0  0  0  0
  -24.6120  -10.7110   20.7950 C   0  0  0  0  0  0  0  0  0  0  0  0
  -25.0260   -9.7460   21.7420 C   0  0  0  0  0  3  0  0  0  0  0  0
  -24.2910   -8.5540   21.9210 C   0  0  0  0  0  3  0  0  0  0  0  0
  -23.1260   -8.3130   21.1510 C   0  0  0  0  0  0  0  0  0  0  0  0
  -22.7310   -9.2630   20.1930 C   0  0  0  0  0  3  0  0  0  0  0  0
  -23.4680  -10.4460   20.0100 C   0  0  0  0  0  3  0  0  0  0  0  0
  -22.3730   -7.1660   21.2320 O   0  0  0  0  0  0  0  0  0  0  0  0
  -22.0850   -6.5710   22.4330 C   0  0  0  0  0  0  0  0  0  0  0  0
  -21.3950   -7.2560   23.4580 C   0  0  0  0  0  3  0  0  0  0  0  0
  -21.0650   -6.5870   24.6540 C   0  0  0  0  0  3  0  0  0  0  0  0
  -21.4140   -5.2330   24.8230 C   0  0  0  0  0  0  0  0  0  0  0  0
  -22.0960   -4.5510   23.8030 C   0  0  0  0  0  3  0  0  0  0  0  0
  -22.4310   -5.2170   22.6110 C   0  0  0  0  0  0  0  0  0  0  0  0
  -23.0700   -4.5480   21.6220 F   0  0  0  0  0  0  0  0  0  0  0  0
  -21.0910   -4.5890   25.9680 F   0  0  0  0  0  0  0  0  0  0  0  0
  -23.6280  -13.7900   21.4220 C   0  0  0  0  0  0  0  0  0  0  0  0
  -23.0400  -13.0240   22.3310 N   0  0  0  0  0  0  0  0  0  0  0  0
  -23.1430  -14.8690   21.0810 O   0  0  0  0  0  0  0  0  0  0  0  0
  -23.4520  -12.1500   22.6250 H   0  0  0  0  0  0  0  0  0  0  0  0
  -22.1670  -13.3110   22.7490 H   0  0  0  0  0  0  0  0  0  0  0  0
  -26.1660  -15.4890   20.3980 N   0  0  0  0  0  0  0  0  0  0  0  0
  -27.0290  -15.9200   20.0960 H   0  0  0  0  0  0  0  0  0  0  0  0
  -25.5490  -16.1360   20.8750 H   0  0  0  0  0  0  0  0  0  0  0  0
  -28.9850  -22.4520   18.7220 C   0  0  0  0  0  2  0  0  0  0  0  0
  -28.0600  -24.0970   19.1510 C   0  0  0  0  0  2  0  0  0  0  0  0
  -28.0980  -25.8330   18.8940 O   0  0  0  0  0  0  0  0  0  0  0  0
  -24.7500  -31.6550   22.8130 C   0  0  0  0  0  0  0  0  0  0  0  0
  -27.0880  -26.9910   19.1030 C   0  0  0  0  0  0  0  0  0  0  0  0
  -23.4520  -30.4180   21.1350 C   0  0  0  0  0  3  0  0  0  0  0  0
  -24.7950  -28.9590   19.4440 C   0  0  0  0  0  0  0  0  0  0  0  0
  -26.0120  -30.6260   20.8250 C   0  0  0  0  0  2  0  0  0  0  0  0
  -26.0360  -29.2720   20.0170 C   0  0  0  0  0  0  0  0  0  0  0  0
  -27.1670  -28.3250   19.8060 C   0  0  0  0  0  3  0  0  0  0  0  0
  -25.8030  -26.8810   18.5080 C   0  0  0  0  0  3  0  0  0  0  0  0
  -24.7130  -27.7900   18.6680 C   0  0  0  0  0  3  0  0  0  0  0  0
  -23.5870  -29.8760   19.6840 C   0  0  0  0  0  2  0  0  0  0  0  0
  -24.7670  -30.9260   21.6440 N   0  0  0  0  0  0  0  0  0  0  0  0
  -23.6990  -31.8760   23.4380 O   0  0  0  0  0  0  0  0  0  0  0  0
  -22.8260  -29.3260   22.0470 C   0  0  0  0  0  0  0  0  0  0  0  0
  -21.4920  -29.1520   21.9960 N   0  0  0  0  0  0  0  0  0  0  0  0
  -23.5520  -28.6430   22.7740 O   0  0  0  0  0  0  0  0  0  0  0  0
  -20.9550  -29.7610   21.3930 H   0  0  0  0  0  0  0  0  0  0  0  0
  -18.1790  -27.7740   22.5790 C   0  0  0  0  0  0  0  0  0  0  0  0
  -20.7400  -28.1180   22.7240 C   0  0  0  0  0  3  0  0  0  0  0  0
  -20.8560  -26.7480   22.0160 C   0  0  0  0  0  2  0  0  0  0  0  0
  -19.7090  -26.4720   21.0390 C   0  0  0  0  0  2  0  0  0  0  0  0
  -18.3630  -26.5010   21.7690 C   0  0  0  0  0  2  0  0  0  0  0  0
  -19.2940  -28.5400   23.0150 C   0  0  0  0  0  0  0  0  0  0  0  0
  -19.0630  -29.7290   23.7410 C   0  0  0  0  0  3  0  0  0  0  0  0
  -17.7520  -30.1510   24.0320 C   0  0  0  0  0  3  0  0  0  0  0  0
  -16.6550  -29.3820   23.6120 C   0  0  0  0  0  3  0  0  0  0  0  0
  -16.8700  -28.1950   22.8900 C   0  0  0  0  0  3  0  0  0  0  0  0
  -26.0520  -32.2590   23.4230 C   0  0  0  0  0  3  0  0  0  0  0  0
  -26.6700  -31.3660   24.5700 C   0  0  1  0  0  0  0  0  0  0  0  0
  -25.6670  -30.9940   25.6870 C   0  0  0  0  0  1  0  0  0  0  0  0
  -27.2380  -30.0490   23.9980 C   0  0  0  0  0  1  0  0  0  0  0  0
  -27.8590  -32.1070   25.2280 C   0  0  0  0  0  1  0  0  0  0  0  0
  -25.7330  -33.5990   23.9570 N   0  0  0  0  0  0  0  0  0  0  0  0
  -26.0150  -34.7580   23.3500 C   0  0  0  0  0  0  0  0  0  0  0  0
  -26.6260  -34.8150   22.2810 O   0  0  0  0  0  0  0  0  0  0  0  0
  -25.1810  -33.6230   24.8010 H   0  0  0  0  0  0  0  0  0  0  0  0
  -24.2560  -36.5670   23.3690 C   0  0  0  0  0  1  0  0  0  0  0  0
  -25.5470  -36.0640   24.0340 C   0  0  0  0  0  3  0  0  0  0  0  0
  -27.7180  -36.8640   24.8630 C   0  0  0  0  0  1  0  0  0  0  0  0
  -26.5640  -37.1390   24.0120 N   0  0  0  0  0  0  0  0  0  0  0  0
  -26.1580  -38.0240   24.3030 H   0  0  0  0  0  0  0  0  0  0  0  0
  1  3  1  0
  3  2  1  0
  4  1  1  0
  4  3  1  0
  5 47  1  6
  5  4  1  0
  5  2  1  0
  8  6  1  6
  7  8  1  0
  8 17  1  0
  8  5  1  0
  9 17  1  0
  9 15  1  0
 10 15  1  0
 11 12  1  0
 11 10  1  0
 13 12  1  0
 13 22  1  0
 13 14  1  0
 15 14  1  0
 16  9  2  0
 17 18  1  0
 19 20  2  0
 20 39  1  0
 21 24  1  0
 21 20  1  0
 22 23  1  0
 22 19  1  0
 23 21  2  0
 24 25  1  0
 25 26  2  0
 27 30  1  0
 27 26  1  0
 28 27  2  0
 29 28  1  0
 29 24  2  0
 30 31  1  0
 31 36  2  0
 31 32  1  0
 32 33  2  0
 33 34  1  0
 34 38  1  0
 35 34  2  0
 36 35  1  0
 37 36  1  0
 39 40  1  0
 40 42  1  0
 40 43  1  0
 41 39  2  0
 44 19  1  0
 44 46  1  0
 45 44  1  0
 47 48  1  0
 49 51  1  0
 49 48  1  0
 50 61  2  0
 51 56  1  0
 52 60  1  0
 52 62  1  0
 53 59  1  0
 53 55  1  0
 54 60  1  0
 55 54  1  0
 56 55  2  0
 57 58  1  0
 57 51  2  0
 58 53  2  0
 59 52  1  0
 60 50  1  0
 62 64  2  0
 63 62  1  0
 65 63  1  0
 66 75  2  0
 66 71  1  0
 67 63  1  0
 67 71  1  0
 68 67  1  0
 69 70  1  0
 69 68  1  0
 70 66  1  0
 71 72  2  0
 72 73  1  0
 74 73  2  0
 75 74  1  0
 76 50  1  0
 76 81  1  0
 76 77  1  0
 77 80  1  1
 77 78  1  0
 79 77  1  0
 81 84  1  0
 82 81  1  0
 82 86  1  0
 83 82  2  0
 86 85  1  0
 88 86  1  0
 88 89  1  0
 88 87  1  0
M  ISO  4   9 100  17 100  48 101  49 101
M  END
>  <TORSDO>  (27) 
F 19

>  <SCORE>  (27) 
-11.809

>  <name>  (27) 
27

>  <ligand_id>  (27) 
27

>  <original_smiles>  (27) 
[H]c1c([H])c([H])c2c(c1[H])C([H])([H])C([H])([H])C([H])([H])C2([H])N([H])C(=O)C1([H])N(C(=O)C([H])(N([H])C(=O)C([H])(N([H])C([H])([H])[H])C([H])([H])[H])C(C([H])([H])[H])(C([H])([H])[H])C([H])([H])[H])C([H])([H])c2c([H])c(OC([H])([H])C([H])([H])C3(C(N([H])C(=O)N4C([H])([H])C([H])([H])C([H])([H])C([H])(n5nc(-c6c([H])c([H])c(Oc7c([H])c([H])c(F)c([H])c7F)c([H])c6[H])c(C(=O)N([H])[H])c5N([H])[H])C4([H])[H])(C([H])([H])[H])C([H])([H])[H])C([H])([H])C4([H])C([H])([H])C43[H])c([H])c([H])c2C1([H])[H]

>  <smiles>  (27) 
[H]c1c([H])c([H])c2c(c1[H])C([H])([H])C([H])([H])C([H])([H])C2([H])N([H])C(=O)C1([H])N(C(=O)C([H])(N([H])C(=O)C([H])(N([H])C([H])([H])[H])C([H])([H])[H])C(C([H])([H])[H])(C([H])([H])[H])C([H])([H])[H])C([H])([H])c2c([H])c(OC([H])([H])C([H])([H])C3(C(N([H])C(=O)N4C([H])([H])C([H])([H])C([H])([H])C([H])(n5nc(-c6c([H])c([H])c(Oc7c([H])c([H])c(F)c([H])c7F)c([H])c6[H])c(C(=O)N([H])[H])c5N([H])[H])C4([H])[H])(C([H])([H])[H])C([H])([H])[H])C([H])([H])C4([H])C([H])([H])C43[H])c([H])c([H])c2C1([H])[H]

$$$$
28:0:0
     RDKit          3D

 92102  0  0  1  0  0  0  0  0999 V2000
  -27.8210  -21.6630   21.4020 C   0  0  0  0  0  2  0  0  0  0  0  0
  -28.4460  -21.1850   20.0780 C   0  0  2  0  0  0  0  0  0  0  0  0
  -29.2870  -22.1460   21.4920 C   0  0  1  0  0  0  0  0  0  0  0  0
  -28.8860  -22.8830   20.1620 C   0  0  0  0  0  3  0  0  0  0  0  0
  -29.3580  -19.8220   20.6170 C   0  0  0  0  0  3  0  0  0  0  0  0
  -30.2620  -20.8810   21.3430 C   0  0  0  0  0  3  0  0  0  0  0  0
  -29.9870  -18.3140   19.8760 C   0  0  0  0  0  2  0  0  0  0  0  0
  -30.5970  -15.4370   20.1100 C   0  0  0  0  0  0  0  0  0  0  0  0
  -30.5550  -12.9950   19.2380 C   0  0  0  0  0  2  0  0  0  0  0  0
  -29.6140  -12.7920   18.0240 C   0  0  0  0  0  2  0  0  0  0  0  0
  -28.1730  -12.5150   18.4830 C   0  0  0  0  0  2  0  0  0  0  0  0
  -27.7390  -13.4730   19.6220 C   0  0  0  0  0  3  0  0  0  0  0  0
  -28.8040  -13.6280   20.7310 C   0  0  0  0  0  2  0  0  0  0  0  0
  -30.0310  -14.1310   20.0860 N   0  0  0  0  0  0  0  0  0  0  0  0
  -31.7960  -15.4540   19.8030 O   0  0  0  0  0  0  0  0  0  0  0  0
  -29.8420  -16.7000   20.2820 N   0  0  0  0  0  0  0  0  0  0  0  0
  -28.9010  -16.5010   20.5860 H   0  0  0  0  0  0  0  0  0  0  0  0
  -25.3780  -13.9990   20.4240 C   0  0  0  0  0  0  0  0  0  0  0  0
  -24.3330  -13.2090   20.8080 C   0  0  0  0  0  0  0  0  0  0  0  0
  -24.8120  -11.8620   20.7560 C   0  0  0  0  0  0  0  0  0  0  0  0
  -26.4250  -13.1390   20.1530 N   0  0  0  0  0  0  0  0  0  0  0  0
  -26.0990  -11.8480   20.4250 N   0  0  0  0  0  0  0  0  0  0  0  0
  -24.1010  -10.5910   20.9510 C   0  0  0  0  0  0  0  0  0  0  0  0
  -24.5310   -9.6420   21.9050 C   0  0  0  0  0  3  0  0  0  0  0  0
  -23.8170   -8.4380   22.0860 C   0  0  0  0  0  3  0  0  0  0  0  0
  -22.6600   -8.1730   21.3150 C   0  0  0  0  0  0  0  0  0  0  0  0
  -22.2490   -9.1100   20.3510 C   0  0  0  0  0  3  0  0  0  0  0  0
  -22.9640  -10.3080   20.1670 C   0  0  0  0  0  3  0  0  0  0  0  0
  -21.9170   -7.0190   21.4060 O   0  0  0  0  0  0  0  0  0  0  0  0
  -21.8230   -6.3170   22.5800 C   0  0  0  0  0  0  0  0  0  0  0  0
  -21.2960   -6.8970   23.7560 C   0  0  0  0  0  3  0  0  0  0  0  0
  -21.1500   -6.1170   24.9210 C   0  0  0  0  0  3  0  0  0  0  0  0
  -21.5210   -4.7590   24.9110 C   0  0  0  0  0  0  0  0  0  0  0  0
  -22.0400   -4.1780   23.7400 C   0  0  0  0  0  3  0  0  0  0  0  0
  -22.1880   -4.9560   22.5770 C   0  0  0  0  0  0  0  0  0  0  0  0
  -22.6690   -4.3880   21.4460 F   0  0  0  0  0  0  0  0  0  0  0  0
  -21.3750   -4.0070   26.0270 F   0  0  0  0  0  0  0  0  0  0  0  0
  -22.9350  -13.6680   21.1000 C   0  0  0  0  0  0  0  0  0  0  0  0
  -22.2270  -12.9560   21.9670 N   0  0  0  0  0  0  0  0  0  0  0  0
  -22.4810  -14.6950   20.5930 O   0  0  0  0  0  0  0  0  0  0  0  0
  -22.6120  -12.1270   22.3990 H   0  0  0  0  0  0  0  0  0  0  0  0
  -21.2870  -13.2400   22.2060 H   0  0  0  0  0  0  0  0  0  0  0  0
  -25.5240  -15.3730   20.2530 N   0  0  0  0  0  0  0  0  0  0  0  0
  -24.7420  -16.0080   20.3780 H   0  0  0  0  0  0  0  0  0  0  0  0
  -26.3310  -15.8150   19.8350 H   0  0  0  0  0  0  0  0  0  0  0  0
  -30.8930  -20.4240   22.6780 C   0  0  0  0  0  2  0  0  0  0  0  0
  -32.1920  -19.7550   22.4930 N   0  0  0  0  0  4  0  0  0  0  0  0
  -32.0890  -18.8650   22.0410 H   0  0  0  0  0  0  0  0  0  0  0  0
  -32.6240  -19.5990   23.3880 H   0  0  0  0  0  0  0  0  0  0  0  0
  -32.8130  -20.3290   21.9500 H   0  0  0  0  0  0  0  0  0  0  0  0
  -27.9380  -24.4300   20.0700 C   0  0  0  0  0  2  0  0  0  0  0  0
  -28.2150  -26.0410   20.1690 O   0  0  0  0  0  0  0  0  0  0  0  0
  -24.6320  -31.9340   23.1900 C   0  0  0  0  0  0  0  0  0  0  0  0
  -27.1860  -27.1120   20.1250 C   0  0  0  0  0  0  0  0  0  0  0  0
  -23.4240  -30.5270   21.5740 C   0  0  0  0  0  3  0  0  0  0  0  0
  -24.8600  -28.9470   20.1170 C   0  0  0  0  0  0  0  0  0  0  0  0
  -25.9800  -30.7760   21.3740 C   0  0  0  0  0  2  0  0  0  0  0  0
  -26.0540  -29.3720   20.7150 C   0  0  0  0  0  0  0  0  0  0  0  0
  -27.2110  -28.4750   20.6950 C   0  0  0  0  0  3  0  0  0  0  0  0
  -25.9560  -26.8310   19.4870 C   0  0  0  0  0  3  0  0  0  0  0  0
  -24.8340  -27.6970   19.4810 C   0  0  0  0  0  3  0  0  0  0  0  0
  -23.6280  -29.8520   20.1890 C   0  0  0  0  0  2  0  0  0  0  0  0
  -24.7010  -31.1040   22.1000 N   0  0  0  0  0  0  0  0  0  0  0  0
  -23.5490  -32.2140   23.7310 O   0  0  0  0  0  0  0  0  0  0  0  0
  -22.7620  -29.5210   22.5520 C   0  0  0  0  0  0  0  0  0  0  0  0
  -21.4350  -29.3290   22.4390 N   0  0  0  0  0  0  0  0  0  0  0  0
  -23.4460  -28.9150   23.3810 O   0  0  0  0  0  0  0  0  0  0  0  0
  -20.9370  -29.8660   21.7450 H   0  0  0  0  0  0  0  0  0  0  0  0
  -18.0820  -28.0440   22.9650 C   0  0  0  0  0  0  0  0  0  0  0  0
  -20.6350  -28.3790   23.2200 C   0  0  0  0  0  3  0  0  0  0  0  0
  -20.7740  -26.9450   22.6610 C   0  0  0  0  0  2  0  0  0  0  0  0
  -19.6790  -26.5830   21.6540 C   0  0  0  0  0  2  0  0  0  0  0  0
  -18.2940  -26.6960   22.2990 C   0  0  0  0  0  2  0  0  0  0  0  0
  -19.1810  -28.8410   23.3840 C   0  0  0  0  0  0  0  0  0  0  0  0
  -18.9270  -30.0990   23.9720 C   0  0  0  0  0  3  0  0  0  0  0  0
  -17.6090  -30.5640   24.1380 C   0  0  0  0  0  3  0  0  0  0  0  0
  -16.5240  -29.7650   23.7350 C   0  0  0  0  0  3  0  0  0  0  0  0
  -16.7630  -28.5070   23.1550 C   0  0  0  0  0  3  0  0  0  0  0  0
  -25.9070  -32.5850   23.8030 C   0  0  0  0  0  3  0  0  0  0  0  0
  -26.4350  -31.8300   25.0850 C   0  0  1  0  0  0  0  0  0  0  0  0
  -25.3500  -31.5990   26.1620 C   0  0  0  0  0  1  0  0  0  0  0  0
  -27.0210  -30.4510   24.7090 C   0  0  0  0  0  1  0  0  0  0  0  0
  -27.5860  -32.6380   25.7320 C   0  0  0  0  0  1  0  0  0  0  0  0
  -25.5850  -33.9850   24.1340 N   0  0  0  0  0  0  0  0  0  0  0  0
  -25.9170  -35.0490   23.3910 C   0  0  0  0  0  0  0  0  0  0  0  0
  -26.5920  -34.9560   22.3620 O   0  0  0  0  0  0  0  0  0  0  0  0
  -24.9830  -34.1290   24.9320 H   0  0  0  0  0  0  0  0  0  0  0  0
  -24.2000  -36.8570   23.0360 C   0  0  0  0  0  1  0  0  0  0  0  0
  -25.4270  -36.4360   23.8610 C   0  0  0  0  0  3  0  0  0  0  0  0
  -27.5510  -37.3050   24.7420 C   0  0  0  0  0  1  0  0  0  0  0  0
  -26.4660  -37.4870   23.7780 N   0  0  0  0  0  0  0  0  0  0  0  0
  -26.0630  -38.4090   23.9220 H   0  0  0  0  0  0  0  0  0  0  0  0
  2  4  1  0
  2  5  1  0
  2  1  1  6
  2  3  1  0
  3  1  1  1
  4 51  1  0
  4  3  1  0
  5  7  1  0
  5  6  1  0
  6  3  1  0
  6 46  1  0
  7 16  1  0
  8 16  1  0
  9 14  1  0
 10 11  1  0
 10  9  1  0
 12 11  1  0
 12 21  1  0
 12 13  1  0
 14  8  1  0
 14 13  1  0
 15  8  2  0
 16 17  1  0
 18 19  2  0
 19 38  1  0
 20 19  1  0
 20 23  1  0
 21 18  1  0
 21 22  1  0
 22 20  2  0
 23 24  1  0
 24 25  2  0
 26 29  1  0
 26 25  1  0
 27 26  2  0
 28 27  1  0
 28 23  2  0
 29 30  1  0
 30 31  1  0
 31 32  2  0
 33 32  1  0
 33 37  1  0
 34 33  2  0
 35 30  2  0
 35 34  1  0
 36 35  1  0
 38 39  1  0
 39 42  1  0
 39 41  1  0
 40 38  2  0
 43 44  1  0
 43 18  1  0
 45 43  1  0
 47 46  1  0
 47 49  1  0
 48 47  1  0
 50 47  1  0
 51 52  1  0
 53 64  2  0
 54 52  1  0
 54 59  1  0
 55 63  1  0
 55 65  1  0
 56 62  1  0
 56 58  1  0
 57 63  1  0
 58 57  1  0
 59 58  2  0
 60 54  2  0
 61 60  1  0
 61 56  2  0
 62 55  1  0
 63 53  1  0
 65 67  2  0
 66 65  1  0
 68 66  1  0
 69 78  2  0
 69 74  1  0
 70 66  1  0
 70 74  1  0
 71 70  1  0
 72 73  1  0
 72 71  1  0
 73 69  1  0
 74 75  2  0
 75 76  1  0
 77 76  2  0
 78 77  1  0
 79 53  1  0
 79 84  1  0
 79 80  1  0
 80 83  1  1
 80 81  1  0
 82 80  1  0
 84 87  1  0
 85 89  1  0
 85 84  1  0
 86 85  2  0
 89 88  1  0
 91 89  1  0
 91 92  1  0
 91 90  1  0
M  ISO  4   8 100  16 100  51 101  52 101
M  END
>  <TORSDO>  (28) 
F 20

>  <SCORE>  (28) 
-15.147

>  <name>  (28) 
28

>  <ligand_id>  (28) 
28

>  <original_smiles>  (28) 
[H]c1c([H])c([H])c2c(c1[H])C([H])([H])C([H])([H])C([H])([H])C2([H])N([H])C(=O)C1([H])N(C(=O)C([H])(N([H])C(=O)C([H])(N([H])C([H])([H])[H])C([H])([H])[H])C(C([H])([H])[H])(C([H])([H])[H])C([H])([H])[H])C([H])([H])c2c([H])c(OC([H])([H])C3([H])C4([H])C([H])([H])C3([H])C([H])(C([H])([H])[N+]([H])([H])[H])C4([H])C([H])([H])N([H])C(=O)N3C([H])([H])C([H])([H])C([H])([H])C([H])(n4nc(-c5c([H])c([H])c(Oc6c([H])c([H])c(F)c([H])c6F)c([H])c5[H])c(C(=O)N([H])[H])c4N([H])[H])C3([H])[H])c([H])c([H])c2C1([H])[H]

>  <smiles>  (28) 
[H]c1c([H])c([H])c2c(c1[H])C([H])([H])C([H])([H])C([H])([H])C2([H])N([H])C(=O)C1([H])N(C(=O)C([H])(N([H])C(=O)C([H])(N([H])C([H])([H])[H])C([H])([H])[H])C(C([H])([H])[H])(C([H])([H])[H])C([H])([H])[H])C([H])([H])c2c([H])c(OC([H])([H])C3([H])C4([H])C([H])([H])C3([H])C([H])(C([H])([H])[N+]([H])([H])[H])C4([H])C([H])([H])N([H])C(=O)N3C([H])([H])C([H])([H])C([H])([H])C([H])(n4nc(-c5c([H])c([H])c(Oc6c([H])c([H])c(F)c([H])c6F)c([H])c5[H])c(C(=O)N([H])[H])c4N([H])[H])C3([H])[H])c([H])c([H])c2C1([H])[H]

$$$$
29:0:0
     RDKit          3D

 95104  0  0  1  0  0  0  0  0999 V2000
  -27.3860  -23.3610   19.1110 C   0  0  0  0  0  2  0  0  0  0  0  0
  -27.4790  -20.9440   20.1730 C   0  0  0  0  0  2  0  0  0  0  0  0
  -27.2900  -22.4480   20.3320 C   0  0  0  0  0  3  0  0  0  0  0  0
  -28.7840  -22.6800   20.6360 C   0  0  0  0  0  3  0  0  0  0  0  0
  -28.6610  -23.9790   19.6880 C   0  0  0  0  0  3  0  0  0  0  0  0
  -28.9590  -21.0600   20.5610 C   0  0  1  0  0  0  0  0  0  0  0  0
  -29.1270  -20.6130   21.9690 N   0  0  0  0  0  4  0  0  0  0  0  0
  -28.4130  -20.9980   22.5610 H   0  0  0  0  0  0  0  0  0  0  0  0
  -30.0130  -20.9090   22.3420 H   0  0  0  0  0  0  0  0  0  0  0  0
  -29.0720  -19.6120   22.0400 H   0  0  0  0  0  0  0  0  0  0  0  0
  -28.5120  -25.4140   20.3840 C   0  0  0  0  0  2  0  0  0  0  0  0
  -28.5840  -26.7040   19.6520 O   0  0  0  0  0  0  0  0  0  0  0  0
  -24.7360  -31.7660   23.0800 C   0  0  0  0  0  0  0  0  0  0  0  0
  -27.4520  -27.5230   19.7100 C   0  0  0  0  0  0  0  0  0  0  0  0
  -23.5500  -30.4120   21.3900 C   0  0  0  0  0  3  0  0  0  0  0  0
  -25.0270  -29.0160   19.8400 C   0  0  0  0  0  0  0  0  0  0  0  0
  -26.0680  -30.8620   21.1630 C   0  0  0  0  0  2  0  0  0  0  0  0
  -26.1910  -29.5280   20.4350 C   0  0  0  0  0  0  0  0  0  0  0  0
  -27.4110  -28.7950   20.3560 C   0  0  0  0  0  3  0  0  0  0  0  0
  -26.2700  -27.0610   19.0970 C   0  0  0  0  0  3  0  0  0  0  0  0
  -25.0680  -27.7910   19.1600 C   0  0  0  0  0  3  0  0  0  0  0  0
  -23.7560  -29.8300   19.9670 C   0  0  0  0  0  2  0  0  0  0  0  0
  -24.8030  -31.0290   21.9330 N   0  0  0  0  0  0  0  0  0  0  0  0
  -23.6590  -31.9580   23.6610 O   0  0  0  0  0  0  0  0  0  0  0  0
  -22.9600  -29.3110   22.3040 C   0  0  0  0  0  0  0  0  0  0  0  0
  -21.6430  -29.0710   22.1900 N   0  0  0  0  0  0  0  0  0  0  0  0
  -23.6870  -28.6840   23.0810 O   0  0  0  0  0  0  0  0  0  0  0  0
  -21.1180  -29.6210   21.5210 H   0  0  0  0  0  0  0  0  0  0  0  0
  -18.3480  -27.6620   22.6710 C   0  0  0  0  0  0  0  0  0  0  0  0
  -20.8890  -28.0560   22.9320 C   0  0  0  0  0  3  0  0  0  0  0  0
  -21.0650  -26.6600   22.2930 C   0  0  0  0  0  2  0  0  0  0  0  0
  -19.9730  -26.3230   21.2730 C   0  0  0  0  0  2  0  0  0  0  0  0
  -18.5910  -26.3600   21.9300 C   0  0  0  0  0  2  0  0  0  0  0  0
  -19.4270  -28.4660   23.1270 C   0  0  0  0  0  0  0  0  0  0  0  0
  -19.1420  -29.6850   23.7780 C   0  0  0  0  0  3  0  0  0  0  0  0
  -17.8110  -30.1040   23.9770 C   0  0  0  0  0  3  0  0  0  0  0  0
  -16.7490  -29.2980   23.5350 C   0  0  0  0  0  3  0  0  0  0  0  0
  -17.0180  -28.0800   22.8890 C   0  0  0  0  0  3  0  0  0  0  0  0
  -26.0080  -32.4180   23.7070 C   0  0  0  0  0  3  0  0  0  0  0  0
  -25.6470  -33.7830   24.1150 N   0  0  0  0  0  0  0  0  0  0  0  0
  -25.9270  -34.8870   23.4110 C   0  0  0  0  0  0  0  0  0  0  0  0
  -26.5850  -34.8670   22.3660 O   0  0  0  0  0  0  0  0  0  0  0  0
  -25.0570  -33.8700   24.9280 H   0  0  0  0  0  0  0  0  0  0  0  0
  -24.1230  -36.6270   23.1760 C   0  0  0  0  0  1  0  0  0  0  0  0
  -25.3920  -36.2290   23.9480 C   0  0  0  0  0  3  0  0  0  0  0  0
  -27.5010  -37.1560   24.7990 C   0  0  0  0  0  1  0  0  0  0  0  0
  -26.3800  -37.3270   23.8780 N   0  0  0  0  0  0  0  0  0  0  0  0
  -25.9410  -38.2230   24.0720 H   0  0  0  0  0  0  0  0  0  0  0  0
  -26.5860  -31.6060   24.9310 C   0  0  1  0  0  0  0  0  0  0  0  0
  -25.5290  -31.2740   26.0090 C   0  0  0  0  0  1  0  0  0  0  0  0
  -27.2090  -30.2710   24.4620 C   0  0  0  0  0  1  0  0  0  0  0  0
  -27.7230  -32.4100   25.6050 C   0  0  0  0  0  1  0  0  0  0  0  0
  -29.9570  -20.1600   19.7090 C   0  0  0  0  0  2  0  0  0  0  0  0
  -29.6970  -18.5630   19.7510 C   0  0  0  0  0  2  0  0  0  0  0  0
  -30.8800  -17.5000   19.9800 C   0  0  0  0  0  3  0  0  0  0  0  0
  -31.1900  -14.9280   19.7620 C   0  0  0  0  0  0  0  0  0  0  0  0
  -30.9250  -12.5890   18.9690 C   0  0  0  0  0  2  0  0  0  0  0  0
  -29.9430  -12.5660   17.7770 C   0  0  0  0  0  2  0  0  0  0  0  0
  -28.4890  -12.4610   18.2770 C   0  0  0  0  0  2  0  0  0  0  0  0
  -28.1670  -13.4840   19.3960 C   0  0  0  0  0  3  0  0  0  0  0  0
  -29.2550  -13.4730   20.4930 C   0  0  0  0  0  2  0  0  0  0  0  0
  -30.5410  -13.7240   19.8330 N   0  0  0  0  0  0  0  0  0  0  0  0
  -32.3570  -15.0050   19.3690 O   0  0  0  0  0  0  0  0  0  0  0  0
  -30.4380  -16.0580   19.9700 N   0  0  0  0  0  0  0  0  0  0  0  0
  -29.4790  -15.8870   20.2250 H   0  0  0  0  0  0  0  0  0  0  0  0
  -25.8530  -14.2110   20.2400 C   0  0  0  0  0  0  0  0  0  0  0  0
  -24.7640  -13.4920   20.6520 C   0  0  0  0  0  0  0  0  0  0  0  0
  -25.1480  -12.1170   20.5860 C   0  0  0  0  0  0  0  0  0  0  0  0
  -26.8310  -13.2750   19.9460 N   0  0  0  0  0  0  0  0  0  0  0  0
  -26.4180  -12.0100   20.2170 N   0  0  0  0  0  0  0  0  0  0  0  0
  -24.3610  -10.8950   20.7970 C   0  0  0  0  0  0  0  0  0  0  0  0
  -24.7460   -9.9260   21.7470 C   0  0  0  0  0  3  0  0  0  0  0  0
  -23.9670   -8.7650   21.9420 C   0  0  0  0  0  3  0  0  0  0  0  0
  -22.7860   -8.5690   21.1870 C   0  0  0  0  0  0  0  0  0  0  0  0
  -22.4210   -9.5260   20.2220 C   0  0  0  0  0  3  0  0  0  0  0  0
  -23.2020  -10.6760   20.0270 C   0  0  0  0  0  3  0  0  0  0  0  0
  -21.9820   -7.4610   21.2900 O   0  0  0  0  0  0  0  0  0  0  0  0
  -21.8310   -6.7870   22.4750 C   0  0  0  0  0  0  0  0  0  0  0  0
  -21.3510   -7.4260   23.6380 C   0  0  0  0  0  3  0  0  0  0  0  0
  -21.1500   -6.6830   24.8190 C   0  0  0  0  0  3  0  0  0  0  0  0
  -21.4190   -5.3010   24.8340 C   0  0  0  0  0  0  0  0  0  0  0  0
  -21.8900   -4.6610   23.6750 C   0  0  0  0  0  3  0  0  0  0  0  0
  -22.0940   -5.4020   22.4980 C   0  0  0  0  0  0  0  0  0  0  0  0
  -22.5290   -4.7780   21.3780 F   0  0  0  0  0  0  0  0  0  0  0  0
  -21.2170   -4.5840   25.9640 F   0  0  0  0  0  0  0  0  0  0  0  0
  -23.4090  -14.0420   20.9960 C   0  0  0  0  0  0  0  0  0  0  0  0
  -22.6930  -13.3810   21.8990 N   0  0  0  0  0  0  0  0  0  0  0  0
  -22.9970  -15.0890   20.4990 O   0  0  0  0  0  0  0  0  0  0  0  0
  -23.0380  -12.5280   22.3140 H   0  0  0  0  0  0  0  0  0  0  0  0
  -21.7880  -13.7320   22.1790 H   0  0  0  0  0  0  0  0  0  0  0  0
  -26.0950  -15.5710   20.0650 N   0  0  0  0  0  0  0  0  0  0  0  0
  -25.3830  -16.2800   20.2180 H   0  0  0  0  0  0  0  0  0  0  0  0
  -26.9500  -15.9490   19.6750 H   0  0  0  0  0  0  0  0  0  0  0  0
  -32.4110  -18.9840   21.5290 C   0  0  0  0  0  1  0  0  0  0  0  0
  -31.6150  -17.6870   21.3310 C   0  0  0  0  0  2  0  0  0  0  0  0
  1  5  1  0
  2  3  1  0
  2  6  1  0
  3  1  1  0
  3  4  1  0
  5 11  1  0
  5  4  1  0
  6  4  1  0
  6  7  1  0
  7 10  1  0
  7  9  1  0
  7  8  1  0
 12 14  1  0
 12 11  1  0
 13 24  2  0
 13 39  1  0
 14 19  1  0
 15 23  1  0
 15 25  1  0
 16 22  1  0
 16 18  1  0
 17 23  1  0
 18 17  1  0
 19 18  2  0
 20 21  1  0
 20 14  2  0
 21 16  2  0
 22 15  1  0
 23 13  1  0
 25 27  2  0
 26 25  1  0
 26 30  1  0
 28 26  1  0
 29 38  2  0
 29 34  1  0
 30 34  1  0
 31 30  1  0
 32 33  1  0
 32 31  1  0
 33 29  1  0
 34 35  2  0
 35 36  1  0
 37 36  2  0
 38 37  1  0
 39 40  1  0
 39 49  1  0
 40 43  1  0
 41 45  1  0
 41 40  1  0
 42 41  2  0
 44 45  1  0
 47 45  1  0
 47 48  1  0
 47 46  1  0
 49 52  1  1
 49 50  1  0
 51 49  1  0
 53 54  1  0
  6 53  1  6
 54 55  1  0
 55 95  1  0
 56 62  1  0
 56 64  1  0
 57 62  1  0
 58 59  1  0
 58 57  1  0
 59 60  1  0
 60 69  1  0
 60 61  1  0
 62 61  1  0
 63 56  2  0
 64 55  1  0
 64 65  1  0
 66 67  2  0
 67 86  1  0
 68 67  1  0
 68 71  1  0
 69 70  1  0
 69 66  1  0
 70 68  2  0
 71 72  1  0
 72 73  2  0
 74 77  1  0
 74 73  1  0
 75 74  2  0
 76 75  1  0
 76 71  2  0
 77 78  1  0
 78 83  2  0
 78 79  1  0
 79 80  2  0
 80 81  1  0
 81 85  1  0
 82 81  2  0
 83 82  1  0
 84 83  1  0
 86 87  1  0
 87 90  1  0
 87 89  1  0
 88 86  2  0
 91 92  1  0
 91 66  1  0
 93 91  1  0
 95 94  1  0
M  ISO  4  11 101  12 101  56 100  64 100
M  END
>  <TORSDO>  (29) 
F 22

>  <SCORE>  (29) 
-11.991

>  <name>  (29) 
29

>  <ligand_id>  (29) 
29

>  <original_smiles>  (29) 
[H]c1c([H])c([H])c2c(c1[H])C([H])([H])C([H])([H])C([H])([H])C2([H])N([H])C(=O)C1([H])N(C(=O)C([H])(N([H])C(=O)C([H])(N([H])C([H])([H])[H])C([H])([H])[H])C(C([H])([H])[H])(C([H])([H])[H])C([H])([H])[H])C([H])([H])c2c([H])c(OC([H])([H])C3([H])C([H])([H])C4([H])C([H])([H])C(C([H])([H])C([H])([H])C([H])(N([H])C(=O)N5C([H])([H])C([H])([H])C([H])([H])C([H])(n6nc(-c7c([H])c([H])c(Oc8c([H])c([H])c(F)c([H])c8F)c([H])c7[H])c(C(=O)N([H])[H])c6N([H])[H])C5([H])[H])C([H])([H])C([H])([H])[H])([N+]([H])([H])[H])C34[H])c([H])c([H])c2C1([H])[H]

>  <smiles>  (29) 
[H]c1c([H])c([H])c2c(c1[H])C([H])([H])C([H])([H])C([H])([H])C2([H])N([H])C(=O)C1([H])N(C(=O)C([H])(N([H])C(=O)C([H])(N([H])C([H])([H])[H])C([H])([H])[H])C(C([H])([H])[H])(C([H])([H])[H])C([H])([H])[H])C([H])([H])c2c([H])c(OC([H])([H])C3([H])C([H])([H])C4([H])C([H])([H])C(C([H])([H])C([H])([H])C([H])(N([H])C(=O)N5C([H])([H])C([H])([H])C([H])([H])C([H])(n6nc(-c7c([H])c([H])c(Oc8c([H])c([H])c(F)c([H])c8F)c([H])c7[H])c(C(=O)N([H])[H])c6N([H])[H])C5([H])[H])C([H])([H])C([H])([H])[H])([N+]([H])([H])[H])C34[H])c([H])c([H])c2C1([H])[H]

$$$$
30:0:0
     RDKit          3D

 93101  0  0  1  0  0  0  0  0999 V2000
  -29.9530  -21.5070   19.5430 C   0  0  0  0  0  2  0  0  0  0  0  0
  -28.6520  -21.6140   21.7550 C   0  0  0  0  0  2  0  0  0  0  0  0
  -29.7210  -23.0620   19.4080 C   0  0  0  0  0  2  0  0  0  0  0  0
  -28.4850  -23.1500   21.5290 C   0  0  0  0  0  2  0  0  0  0  0  0
  -29.8070  -20.8710   20.9820 C   0  0  2  0  0  0  0  0  0  0  0  0
  -28.3850  -23.5410   20.0380 C   0  0  2  0  0  0  0  0  0  0  0  0
  -27.2310  -22.7120   19.3780 C   0  0  0  0  0  1  0  0  0  0  0  0
  -31.1250  -21.0340   21.7880 C   0  0  0  0  0  0  0  0  0  0  0  0
  -31.2410  -20.3420   23.1440 C   0  0  0  0  0  1  0  0  0  0  0  0
  -32.0710  -21.7070   21.3720 O   0  0  0  0  0  0  0  0  0  0  0  0
  -29.4060  -19.3230   20.9140 C   0  0  0  0  0  2  0  0  0  0  0  0
  -30.3990  -18.2070   20.4120 C   0  0  0  0  0  2  0  0  0  0  0  0
  -30.6480  -16.9700   21.3620 C   0  0  0  0  0  2  0  0  0  0  0  0
  -30.7450  -14.5890   20.4400 C   0  0  0  0  0  0  0  0  0  0  0  0
  -30.4380  -12.4180   19.2800 C   0  0  0  0  0  2  0  0  0  0  0  0
  -29.5020  -12.6000   18.0670 C   0  0  0  0  0  2  0  0  0  0  0  0
  -28.0290  -12.4550   18.4920 C   0  0  0  0  0  2  0  0  0  0  0  0
  -27.6810  -13.2960   19.7480 C   0  0  0  0  0  3  0  0  0  0  0  0
  -28.7340  -13.1050   20.8640 C   0  0  0  0  0  2  0  0  0  0  0  0
  -30.0540  -13.4190   20.2930 N   0  0  0  0  0  0  0  0  0  0  0  0
  -31.8910  -14.7260   20.0060 O   0  0  0  0  0  0  0  0  0  0  0  0
  -30.0790  -15.6460   20.9720 N   0  0  0  0  0  0  0  0  0  0  0  0
  -29.1260  -15.4670   21.2510 H   0  0  0  0  0  0  0  0  0  0  0  0
  -25.2770  -13.8980   20.4290 C   0  0  0  0  0  0  0  0  0  0  0  0
  -24.2080  -13.1270   20.7950 C   0  0  0  0  0  0  0  0  0  0  0  0
  -24.6720  -11.7760   20.7870 C   0  0  0  0  0  0  0  0  0  0  0  0
  -26.3270  -13.0180   20.2210 N   0  0  0  0  0  0  0  0  0  0  0  0
  -25.9660  -11.7370   20.4950 N   0  0  0  0  0  0  0  0  0  0  0  0
  -23.9460  -10.5150   20.9860 C   0  0  0  0  0  0  0  0  0  0  0  0
  -24.3740   -9.5590   21.9340 C   0  0  0  0  0  3  0  0  0  0  0  0
  -23.6500   -8.3620   22.1200 C   0  0  0  0  0  3  0  0  0  0  0  0
  -22.4840   -8.1110   21.3590 C   0  0  0  0  0  0  0  0  0  0  0  0
  -22.0750   -9.0560   20.4000 C   0  0  0  0  0  3  0  0  0  0  0  0
  -22.7990  -10.2450   20.2130 C   0  0  0  0  0  3  0  0  0  0  0  0
  -21.7320   -6.9650   21.4540 O   0  0  0  0  0  0  0  0  0  0  0  0
  -21.6770   -6.2340   22.6140 C   0  0  0  0  0  0  0  0  0  0  0  0
  -21.2410   -6.8020   23.8310 C   0  0  0  0  0  3  0  0  0  0  0  0
  -21.1330   -5.9980   24.9830 C   0  0  0  0  0  3  0  0  0  0  0  0
  -21.4500   -4.6270   24.9190 C   0  0  0  0  0  0  0  0  0  0  0  0
  -21.8770   -4.0600   23.7050 C   0  0  0  0  0  3  0  0  0  0  0  0
  -21.9870   -4.8610   22.5560 C   0  0  0  0  0  0  0  0  0  0  0  0
  -22.3800   -4.3040   21.3840 F   0  0  0  0  0  0  0  0  0  0  0  0
  -21.3380   -3.8530   26.0220 F   0  0  0  0  0  0  0  0  0  0  0  0
  -22.8060  -13.6050   21.0470 C   0  0  0  0  0  0  0  0  0  0  0  0
  -22.0710  -12.9160   21.9140 N   0  0  0  0  0  0  0  0  0  0  0  0
  -22.3720  -14.6220   20.5100 O   0  0  0  0  0  0  0  0  0  0  0  0
  -22.4350  -12.0920   22.3690 H   0  0  0  0  0  0  0  0  0  0  0  0
  -21.1310  -13.2180   22.1260 H   0  0  0  0  0  0  0  0  0  0  0  0
  -25.4410  -15.2650   20.2330 N   0  0  0  0  0  0  0  0  0  0  0  0
  -24.6730  -15.9220   20.3200 H   0  0  0  0  0  0  0  0  0  0  0  0
  -26.2950  -15.6990   19.9050 H   0  0  0  0  0  0  0  0  0  0  0  0
  -27.8850  -25.0380   19.7590 C   0  0  0  0  0  2  0  0  0  0  0  0
  -28.2630  -26.4080   20.1860 O   0  0  0  0  0  0  0  0  0  0  0  0
  -24.6140  -31.8790   23.2320 C   0  0  0  0  0  0  0  0  0  0  0  0
  -27.1950  -27.3370   20.1140 C   0  0  0  0  0  0  0  0  0  0  0  0
  -23.4030  -30.4970   21.5930 C   0  0  0  0  0  3  0  0  0  0  0  0
  -24.8440  -28.9810   20.1430 C   0  0  0  0  0  0  0  0  0  0  0  0
  -25.9490  -30.8050   21.4110 C   0  0  0  0  0  2  0  0  0  0  0  0
  -26.0210  -29.4370   20.7510 C   0  0  0  0  0  0  0  0  0  0  0  0
  -27.1980  -28.6220   20.7440 C   0  0  0  0  0  3  0  0  0  0  0  0
  -25.9940  -26.9850   19.4350 C   0  0  0  0  0  3  0  0  0  0  0  0
  -24.8310  -27.7560   19.4810 C   0  0  0  0  0  3  0  0  0  0  0  0
  -23.6110  -29.8500   20.2040 C   0  0  0  0  0  2  0  0  0  0  0  0
  -24.6750  -31.0750   22.1350 N   0  0  0  0  0  0  0  0  0  0  0  0
  -23.5320  -32.1570   23.7690 O   0  0  0  0  0  0  0  0  0  0  0  0
  -22.7470  -29.4650   22.5400 C   0  0  0  0  0  0  0  0  0  0  0  0
  -21.4200  -29.2870   22.4150 N   0  0  0  0  0  0  0  0  0  0  0  0
  -23.4290  -28.8330   23.3510 O   0  0  0  0  0  0  0  0  0  0  0  0
  -20.9300  -29.8500   21.7350 H   0  0  0  0  0  0  0  0  0  0  0  0
  -18.0450  -28.0880   22.9200 C   0  0  0  0  0  0  0  0  0  0  0  0
  -20.6040  -28.3460   23.1840 C   0  0  0  0  0  3  0  0  0  0  0  0
  -20.7050  -26.9160   22.6060 C   0  0  0  0  0  2  0  0  0  0  0  0
  -19.6010  -26.5950   21.5930 C   0  0  0  0  0  2  0  0  0  0  0  0
  -18.2210  -26.7400   22.2410 C   0  0  0  0  0  2  0  0  0  0  0  0
  -19.1650  -28.8490   23.3500 C   0  0  0  0  0  0  0  0  0  0  0  0
  -18.9490  -30.1090   23.9450 C   0  0  0  0  0  3  0  0  0  0  0  0
  -17.6450  -30.6120   24.1150 C   0  0  0  0  0  3  0  0  0  0  0  0
  -16.5390  -29.8480   23.7020 C   0  0  0  0  0  3  0  0  0  0  0  0
  -16.7390  -28.5890   23.1100 C   0  0  0  0  0  3  0  0  0  0  0  0
  -25.9010  -32.5070   23.8470 C   0  0  0  0  0  3  0  0  0  0  0  0
  -25.5900  -33.9040   24.1830 N   0  0  0  0  0  0  0  0  0  0  0  0
  -25.9120  -34.9600   23.4240 C   0  0  0  0  0  0  0  0  0  0  0  0
  -26.5730  -34.8620   22.3850 O   0  0  0  0  0  0  0  0  0  0  0  0
  -24.9960  -34.0520   24.9840 H   0  0  0  0  0  0  0  0  0  0  0  0
  -24.1770  -36.7520   23.0960 C   0  0  0  0  0  1  0  0  0  0  0  0
  -25.4270  -36.3450   23.8910 C   0  0  0  0  0  3  0  0  0  0  0  0
  -27.5660  -37.2320   24.7070 C   0  0  0  0  0  1  0  0  0  0  0  0
  -26.4560  -37.4000   23.7730 N   0  0  0  0  0  0  0  0  0  0  0  0
  -26.0480  -38.3190   23.9260 H   0  0  0  0  0  0  0  0  0  0  0  0
  -26.4230  -31.7290   25.1170 C   0  0  1  0  0  0  0  0  0  0  0  0
  -25.3330  -31.4840   26.1870 C   0  0  0  0  0  1  0  0  0  0  0  0
  -27.0060  -30.3530   24.7200 C   0  0  0  0  0  1  0  0  0  0  0  0
  -27.5750  -32.5230   25.7760 C   0  0  0  0  0  1  0  0  0  0  0  0
  1  5  1  0
  3  1  1  0
  3  6  1  0
  4  2  1  0
  5 11  1  6
  5  2  1  0
  5  8  1  0
  6  7  1  6
  6  4  1  0
  8  9  1  0
 10  8  2  0
 12 11  1  0
 12 13  1  0
 14 22  1  0
 15 20  1  0
 16 17  1  0
 16 15  1  0
 18 17  1  0
 18 27  1  0
 18 19  1  0
 20 14  1  0
 20 19  1  0
 21 14  2  0
 22 23  1  0
 22 13  1  0
 24 25  2  0
 25 44  1  0
 26 25  1  0
 26 29  1  0
 27 24  1  0
 27 28  1  0
 28 26  2  0
 29 30  1  0
 30 31  2  0
 32 35  1  0
 32 31  1  0
 33 32  2  0
 34 33  1  0
 34 29  2  0
 35 36  1  0
 36 37  1  0
 37 38  2  0
 39 38  1  0
 39 43  1  0
 40 39  2  0
 41 36  2  0
 41 40  1  0
 42 41  1  0
 44 45  1  0
 45 48  1  0
 45 47  1  0
 46 44  2  0
 49 50  1  0
 49 24  1  0
 51 49  1  0
 52  6  1  0
 52 53  1  0
 54 65  2  0
 55 53  1  0
 55 60  1  0
 56 64  1  0
 56 66  1  0
 57 63  1  0
 57 59  1  0
 58 64  1  0
 59 58  1  0
 60 59  2  0
 61 62  1  0
 61 55  2  0
 62 57  2  0
 63 56  1  0
 64 54  1  0
 66 68  2  0
 67 66  1  0
 69 67  1  0
 70 79  2  0
 70 75  1  0
 71 67  1  0
 71 75  1  0
 72 71  1  0
 73 74  1  0
 73 72  1  0
 74 70  1  0
 75 76  2  0
 76 77  1  0
 78 77  2  0
 79 78  1  0
 80 54  1  0
 80 81  1  0
 80 90  1  0
 81 84  1  0
 82 86  1  0
 82 81  1  0
 83 82  2  0
 86 85  1  0
 88 86  1  0
 88 89  1  0
 88 87  1  0
 90 93  1  1
 90 91  1  0
 92 90  1  0
M  ISO  4  14 100  22 100  52 101  53 101
M  END
>  <TORSDO>  (30) 
F 21

>  <SCORE>  (30) 
-13.845

>  <name>  (30) 
30

>  <ligand_id>  (30) 
30

>  <original_smiles>  (30) 
[H]c1c([H])c([H])c2c(c1[H])C([H])([H])C([H])([H])C([H])([H])C2([H])N([H])C(=O)C1([H])N(C(=O)C([H])(N([H])C(=O)C([H])(N([H])C([H])([H])[H])C([H])([H])[H])C(C([H])([H])[H])(C([H])([H])[H])C([H])([H])[H])C([H])([H])c2c([H])c(OC([H])([H])C3(C([H])([H])[H])C([H])([H])C([H])([H])C(C(=O)C([H])([H])[H])(C([H])([H])C([H])([H])C([H])([H])N([H])C(=O)N4C([H])([H])C([H])([H])C([H])([H])C([H])(n5nc(-c6c([H])c([H])c(Oc7c([H])c([H])c(F)c([H])c7F)c([H])c6[H])c(C(=O)N([H])[H])c5N([H])[H])C4([H])[H])C([H])([H])C3([H])[H])c([H])c([H])c2C1([H])[H]

>  <smiles>  (30) 
[H]c1c([H])c([H])c2c(c1[H])C([H])([H])C([H])([H])C([H])([H])C2([H])N([H])C(=O)C1([H])N(C(=O)C([H])(N([H])C(=O)C([H])(N([H])C([H])([H])[H])C([H])([H])[H])C(C([H])([H])[H])(C([H])([H])[H])C([H])([H])[H])C([H])([H])c2c([H])c(OC([H])([H])C3(C([H])([H])[H])C([H])([H])C([H])([H])C(C(=O)C([H])([H])[H])(C([H])([H])C([H])([H])C([H])([H])N([H])C(=O)N4C([H])([H])C([H])([H])C([H])([H])C([H])(n5nc(-c6c([H])c([H])c(Oc7c([H])c([H])c(F)c([H])c7F)c([H])c6[H])c(C(=O)N([H])[H])c5N([H])[H])C4([H])[H])C([H])([H])C3([H])[H])c([H])c([H])c2C1([H])[H]

$$$$
31:0:0
     RDKit          3D

 88 97  0  0  1  0  0  0  0  0999 V2000
  -29.7320  -23.1910   18.6670 C   0  0  0  0  0  2  0  0  0  0  0  0
  -28.2840  -22.8560   18.3120 C   0  0  0  0  0  2  0  0  0  0  0  0
  -30.0140  -21.5550   20.6580 C   0  0  0  0  0  2  0  0  0  0  0  0
  -27.8450  -21.0530   20.1620 C   0  0  0  0  0  2  0  0  0  0  0  0
  -29.7010  -23.1710   20.2020 C   0  0  0  0  0  3  0  0  0  0  0  0
  -27.6370  -22.7100   19.6950 C   0  0  0  0  0  3  0  0  0  0  0  0
  -29.2770  -20.1920   20.0470 C   0  0  0  0  0  3  0  0  0  0  0  0
  -28.3040  -24.0230   20.4870 C   0  0  0  0  0  3  0  0  0  0  0  0
  -28.2520  -25.7180   20.2340 O   0  0  0  0  0  0  0  0  0  0  0  0
  -24.6370  -31.8160   23.1940 C   0  0  0  0  0  0  0  0  0  0  0  0
  -27.2060  -26.8210   20.2550 C   0  0  0  0  0  0  0  0  0  0  0  0
  -23.4560  -30.4010   21.5650 C   0  0  0  0  0  3  0  0  0  0  0  0
  -24.9110  -28.7600   20.1750 C   0  0  0  0  0  0  0  0  0  0  0  0
  -26.0270  -30.5880   21.4340 C   0  0  0  0  0  2  0  0  0  0  0  0
  -26.1010  -29.1590   20.7970 C   0  0  0  0  0  0  0  0  0  0  0  0
  -27.2400  -28.2160   20.7980 C   0  0  0  0  0  3  0  0  0  0  0  0
  -25.9790  -26.5940   19.5920 C   0  0  0  0  0  3  0  0  0  0  0  0
  -24.8810  -27.5010   19.5510 C   0  0  0  0  0  3  0  0  0  0  0  0
  -23.6970  -29.6960   20.2000 C   0  0  0  0  0  2  0  0  0  0  0  0
  -24.7290  -30.9650   22.1180 N   0  0  0  0  0  0  0  0  0  0  0  0
  -23.5430  -32.1110   23.7050 O   0  0  0  0  0  0  0  0  0  0  0  0
  -22.7510  -29.4210   22.5400 C   0  0  0  0  0  0  0  0  0  0  0  0
  -21.4180  -29.2680   22.4220 N   0  0  0  0  0  0  0  0  0  0  0  0
  -23.4120  -28.7950   23.3730 O   0  0  0  0  0  0  0  0  0  0  0  0
  -20.9360  -29.8230   21.7280 H   0  0  0  0  0  0  0  0  0  0  0  0
  -18.0270  -28.0860   22.9600 C   0  0  0  0  0  0  0  0  0  0  0  0
  -20.5920  -28.3380   23.2000 C   0  0  0  0  0  3  0  0  0  0  0  0
  -20.6780  -26.9050   22.6250 C   0  0  0  0  0  2  0  0  0  0  0  0
  -19.5640  -26.5890   21.6200 C   0  0  0  0  0  2  0  0  0  0  0  0
  -18.1900  -26.7390   22.2760 C   0  0  0  0  0  2  0  0  0  0  0  0
  -19.1540  -28.8430   23.3790 C   0  0  0  0  0  0  0  0  0  0  0  0
  -18.9450  -30.1020   23.9840 C   0  0  0  0  0  3  0  0  0  0  0  0
  -17.6430  -30.6040   24.1700 C   0  0  0  0  0  3  0  0  0  0  0  0
  -16.5310  -29.8450   23.7650 C   0  0  0  0  0  3  0  0  0  0  0  0
  -16.7250  -28.5880   23.1670 C   0  0  0  0  0  3  0  0  0  0  0  0
  -25.8990  -32.4720   23.8310 C   0  0  0  0  0  3  0  0  0  0  0  0
  -25.5690  -33.8680   24.1670 N   0  0  0  0  0  0  0  0  0  0  0  0
  -25.8850  -34.9360   23.4200 C   0  0  0  0  0  0  0  0  0  0  0  0
  -26.5460  -34.8480   22.3830 O   0  0  0  0  0  0  0  0  0  0  0  0
  -24.9780  -34.0090   24.9730 H   0  0  0  0  0  0  0  0  0  0  0  0
  -24.1330  -36.7220   23.1170 C   0  0  0  0  0  1  0  0  0  0  0  0
  -25.3950  -36.3200   23.8980 C   0  0  0  0  0  3  0  0  0  0  0  0
  -27.5370  -37.2270   24.6900 C   0  0  0  0  0  1  0  0  0  0  0  0
  -26.4140  -37.3850   23.7690 N   0  0  0  0  0  0  0  0  0  0  0  0
  -26.0010  -38.3000   23.9270 H   0  0  0  0  0  0  0  0  0  0  0  0
  -26.4060  -31.7140   25.1210 C   0  0  1  0  0  0  0  0  0  0  0  0
  -25.3040  -31.4830   26.1830 C   0  0  0  0  0  1  0  0  0  0  0  0
  -26.9980  -30.3340   24.7580 C   0  0  0  0  0  1  0  0  0  0  0  0
  -27.5480  -32.5180   25.7870 C   0  0  0  0  0  1  0  0  0  0  0  0
  -29.8280  -18.4620   20.5680 C   0  0  0  0  0  2  0  0  0  0  0  0
  -30.3610  -15.4570   20.2220 C   0  0  0  0  0  0  0  0  0  0  0  0
  -30.3910  -12.9640   19.3670 C   0  0  0  0  0  2  0  0  0  0  0  0
  -29.4820  -12.6420   18.1510 C   0  0  0  0  0  2  0  0  0  0  0  0
  -28.0430  -12.3410   18.6030 C   0  0  0  0  0  2  0  0  0  0  0  0
  -27.5640  -13.3350   19.6880 C   0  0  0  0  0  3  0  0  0  0  0  0
  -28.6060  -13.5720   20.8010 C   0  0  0  0  0  2  0  0  0  0  0  0
  -29.8010  -14.1310   20.1380 N   0  0  0  0  0  0  0  0  0  0  0  0
  -31.5960  -15.4110   20.1020 O   0  0  0  0  0  0  0  0  0  0  0  0
  -29.6080  -16.7830   20.2420 N   0  0  0  0  0  0  0  0  0  0  0  0
  -28.6210  -16.5800   20.1630 H   0  0  0  0  0  0  0  0  0  0  0  0
  -25.1980  -13.8900   20.4400 C   0  0  0  0  0  0  0  0  0  0  0  0
  -24.1360  -13.1160   20.8120 C   0  0  0  0  0  0  0  0  0  0  0  0
  -24.6050  -11.7660   20.7960 C   0  0  0  0  0  0  0  0  0  0  0  0
  -26.2420  -13.0150   20.2070 N   0  0  0  0  0  0  0  0  0  0  0  0
  -25.8990  -11.7300   20.4910 N   0  0  0  0  0  0  0  0  0  0  0  0
  -23.8770  -10.5060   20.9940 C   0  0  0  0  0  0  0  0  0  0  0  0
  -24.3050   -9.5420   21.9330 C   0  0  0  0  0  3  0  0  0  0  0  0
  -23.5730   -8.3500   22.1200 C   0  0  0  0  0  3  0  0  0  0  0  0
  -22.3990   -8.1110   21.3670 C   0  0  0  0  0  0  0  0  0  0  0  0
  -21.9890   -9.0640   20.4160 C   0  0  0  0  0  3  0  0  0  0  0  0
  -22.7220  -10.2470   20.2270 C   0  0  0  0  0  3  0  0  0  0  0  0
  -21.6390   -6.9710   21.4630 O   0  0  0  0  0  0  0  0  0  0  0  0
  -21.5910   -6.2330   22.6190 C   0  0  0  0  0  0  0  0  0  0  0  0
  -21.1680   -6.7940   23.8440 C   0  0  0  0  0  3  0  0  0  0  0  0
  -21.0670   -5.9830   24.9920 C   0  0  0  0  0  3  0  0  0  0  0  0
  -21.3770   -4.6130   24.9170 C   0  0  0  0  0  0  0  0  0  0  0  0
  -21.7940   -4.0510   23.6970 C   0  0  0  0  0  3  0  0  0  0  0  0
  -21.8960   -4.8600   22.5500 C   0  0  0  0  0  0  0  0  0  0  0  0
  -22.2770   -4.3080   21.3720 F   0  0  0  0  0  0  0  0  0  0  0  0
  -21.2740   -3.8320   26.0170 F   0  0  0  0  0  0  0  0  0  0  0  0
  -22.7370  -13.5950   21.0640 C   0  0  0  0  0  0  0  0  0  0  0  0
  -22.0040  -12.9140   21.9360 N   0  0  0  0  0  0  0  0  0  0  0  0
  -22.3040  -14.6120   20.5230 O   0  0  0  0  0  0  0  0  0  0  0  0
  -22.3680  -12.0930   22.3960 H   0  0  0  0  0  0  0  0  0  0  0  0
  -21.0640  -13.2180   22.1480 H   0  0  0  0  0  0  0  0  0  0  0  0
  -25.3570  -15.2600   20.2480 N   0  0  0  0  0  0  0  0  0  0  0  0
  -24.5850  -15.9090   20.3470 H   0  0  0  0  0  0  0  0  0  0  0  0
  -26.1960  -15.6950   19.8890 H   0  0  0  0  0  0  0  0  0  0  0  0
  2  1  1  0
  5  1  1  0
  5  8  1  0
  5  3  1  0
  6  2  1  0
  6  4  1  0
  6  8  1  0
  7  4  1  0
  7 50  1  0
  7  3  1  0
  8  9  1  0
  9 11  1  0
 10 21  2  0
 11 16  1  0
 12 20  1  0
 12 22  1  0
 13 19  1  0
 13 15  1  0
 14 20  1  0
 15 16  2  0
 15 14  1  0
 17 11  2  0
 18 17  1  0
 18 13  2  0
 19 12  1  0
 20 10  1  0
 22 24  2  0
 23 22  1  0
 25 23  1  0
 26 35  2  0
 26 31  1  0
 27 23  1  0
 27 31  1  0
 28 27  1  0
 29 30  1  0
 29 28  1  0
 30 26  1  0
 31 32  2  0
 32 33  1  0
 34 33  2  0
 35 34  1  0
 36 10  1  0
 36 37  1  0
 36 46  1  0
 37 40  1  0
 38 42  1  0
 38 37  1  0
 39 38  2  0
 42 41  1  0
 44 42  1  0
 44 45  1  0
 44 43  1  0
 46 49  1  1
 46 47  1  0
 48 46  1  0
 51 59  1  0
 52 57  1  0
 53 54  1  0
 53 52  1  0
 55 54  1  0
 55 64  1  0
 55 56  1  0
 57 51  1  0
 57 56  1  0
 58 51  2  0
 59 50  1  0
 60 59  1  0
 61 62  2  0
 62 81  1  0
 63 62  1  0
 63 66  1  0
 64 61  1  0
 64 65  1  0
 65 63  2  0
 66 67  1  0
 67 68  2  0
 69 72  1  0
 69 68  1  0
 70 69  2  0
 71 70  1  0
 71 66  2  0
 72 73  1  0
 73 74  1  0
 74 75  2  0
 76 75  1  0
 76 80  1  0
 77 76  2  0
 78 73  2  0
 78 77  1  0
 79 78  1  0
 81 82  1  0
 82 85  1  0
 82 84  1  0
 83 81  2  0
 86 87  1  0
 86 61  1  0
 88 86  1  0
M  ISO  4   8 101   9 101  51 100  59 100
M  END
>  <TORSDO>  (31) 
F 17

>  <SCORE>  (31) 
-16.391

>  <name>  (31) 
31

>  <ligand_id>  (31) 
31

>  <original_smiles>  (31) 
[H]c1c([H])c([H])c2c(c1[H])C([H])([H])C([H])([H])C([H])([H])C2([H])N([H])C(=O)C1([H])N(C(=O)C([H])(N([H])C(=O)C([H])(N([H])C([H])([H])[H])C([H])([H])[H])C(C([H])([H])[H])(C([H])([H])[H])C([H])([H])[H])C([H])([H])c2c([H])c(OC3([H])C4([H])C([H])([H])C([H])([H])C3([H])C([H])([H])C([H])(C([H])([H])N([H])C(=O)N3C([H])([H])C([H])([H])C([H])([H])C([H])(n5nc(-c6c([H])c([H])c(Oc7c([H])c([H])c(F)c([H])c7F)c([H])c6[H])c(C(=O)N([H])[H])c5N([H])[H])C3([H])[H])C4([H])[H])c([H])c([H])c2C1([H])[H]

>  <smiles>  (31) 
[H]c1c([H])c([H])c2c(c1[H])C([H])([H])C([H])([H])C([H])([H])C2([H])N([H])C(=O)C1([H])N(C(=O)C([H])(N([H])C(=O)C([H])(N([H])C([H])([H])[H])C([H])([H])[H])C(C([H])([H])[H])(C([H])([H])[H])C([H])([H])[H])C([H])([H])c2c([H])c(OC3([H])C4([H])C([H])([H])C([H])([H])C3([H])C([H])([H])C([H])(C([H])([H])N([H])C(=O)N3C([H])([H])C([H])([H])C([H])([H])C([H])(n5nc(-c6c([H])c([H])c(Oc7c([H])c([H])c(F)c([H])c7F)c([H])c6[H])c(C(=O)N([H])[H])c5N([H])[H])C3([H])[H])C4([H])[H])c([H])c([H])c2C1([H])[H]

$$$$
32:0:0
     RDKit          3D

 97106  0  0  1  0  0  0  0  0999 V2000
  -29.5740  -20.3650   21.6990 C   0  0  0  0  0  3  0  0  0  0  0  0
  -30.6110  -19.2930   22.1470 C   0  0  0  0  0  2  0  0  0  0  0  0
  -32.2260  -14.6480   20.6700 C   0  0  0  0  0  0  0  0  0  0  0  0
  -31.7910  -12.3030   20.0480 C   0  0  0  0  0  2  0  0  0  0  0  0
  -30.9980  -12.2480   18.7260 C   0  0  0  0  0  2  0  0  0  0  0  0
  -29.4850  -12.4570   18.9370 C   0  0  0  0  0  2  0  0  0  0  0  0
  -29.1160  -13.5430   19.9900 C   0  0  0  0  0  3  0  0  0  0  0  0
  -30.0420  -13.5010   21.2200 C   0  0  0  0  0  2  0  0  0  0  0  0
  -31.4210  -13.5530   20.7270 N   0  0  0  0  0  0  0  0  0  0  0  0
  -33.4530  -14.5500   20.5840 O   0  0  0  0  0  0  0  0  0  0  0  0
  -31.6370  -17.7600   18.8370 C   0  0  0  0  0  2  0  0  0  0  0  0
  -32.1380  -16.3280   18.9590 C   0  0  0  0  0  3  0  0  0  0  0  0
  -31.7620  -18.1900   20.2500 C   0  0  0  0  0  3  0  0  0  0  0  0
  -30.6140  -18.1010   21.1960 C   0  0  0  0  0  3  0  0  0  0  0  0
  -31.6650  -16.9790   21.1550 C   0  0  0  0  0  3  0  0  0  0  0  0
  -31.6470  -15.8190   20.2720 N   0  0  0  0  0  0  0  0  0  0  0  0
  -26.7830  -14.4860   20.5180 C   0  0  0  0  0  0  0  0  0  0  0  0
  -25.5860  -13.8810   20.7730 C   0  0  0  0  0  0  0  0  0  0  0  0
  -25.8460  -12.4730   20.7550 C   0  0  0  0  0  0  0  0  0  0  0  0
  -27.7040  -13.4650   20.3590 N   0  0  0  0  0  0  0  0  0  0  0  0
  -27.1380  -12.2470   20.5660 N   0  0  0  0  0  0  0  0  0  0  0  0
  -24.9310  -11.3310   20.8580 C   0  0  0  0  0  0  0  0  0  0  0  0
  -25.2270  -10.2230   21.6820 C   0  0  0  0  0  3  0  0  0  0  0  0
  -24.3210   -9.1440   21.7800 C   0  0  0  0  0  3  0  0  0  0  0  0
  -23.1070   -9.1690   21.0530 C   0  0  0  0  0  0  0  0  0  0  0  0
  -22.8310  -10.2620   20.2160 C   0  0  0  0  0  3  0  0  0  0  0  0
  -23.7340  -11.3350   20.1160 C   0  0  0  0  0  3  0  0  0  0  0  0
  -22.1770   -8.1590   21.0680 O   0  0  0  0  0  0  0  0  0  0  0  0
  -22.0570   -7.3060   22.1310 C   0  0  0  0  0  0  0  0  0  0  0  0
  -21.7550   -7.7720   23.4300 C   0  0  0  0  0  3  0  0  0  0  0  0
  -21.5660   -6.8530   24.4800 C   0  0  0  0  0  3  0  0  0  0  0  0
  -21.6750   -5.4690   24.2380 C   0  0  0  0  0  0  0  0  0  0  0  0
  -21.9740   -5.0060   22.9440 C   0  0  0  0  0  3  0  0  0  0  0  0
  -22.1590   -5.9200   21.8940 C   0  0  0  0  0  0  0  0  0  0  0  0
  -22.4240   -5.4670   20.6460 F   0  0  0  0  0  0  0  0  0  0  0  0
  -21.4910   -4.5850   25.2460 F   0  0  0  0  0  0  0  0  0  0  0  0
  -24.2550  -14.5560   20.9320 C   0  0  0  0  0  0  0  0  0  0  0  0
  -23.3790  -13.9950   21.7530 N   0  0  0  0  0  0  0  0  0  0  0  0
  -24.0050  -15.6180   20.3610 O   0  0  0  0  0  0  0  0  0  0  0  0
  -23.5980  -13.1370   22.2380 H   0  0  0  0  0  0  0  0  0  0  0  0
  -22.4760  -14.4260   21.8990 H   0  0  0  0  0  0  0  0  0  0  0  0
  -27.1600  -15.8210   20.3900 N   0  0  0  0  0  0  0  0  0  0  0  0
  -26.4910  -16.5790   20.4670 H   0  0  0  0  0  0  0  0  0  0  0  0
  -28.0990  -16.1470   20.2060 H   0  0  0  0  0  0  0  0  0  0  0  0
  -31.7600  -15.5370   17.7050 C   0  0  0  0  0  0  0  0  0  0  0  0
  -30.4770  -15.4450   17.3810 N   0  0  0  0  0  0  0  0  0  0  0  0
  -32.6320  -15.0110   17.0180 O   0  0  0  0  0  0  0  0  0  0  0  0
  -30.1960  -14.9340   16.5590 H   0  0  0  0  0  0  0  0  0  0  0  0
  -29.7880  -15.9650   17.9060 H   0  0  0  0  0  0  0  0  0  0  0  0
  -30.0400  -21.8310   21.8540 C   0  0  0  0  0  3  0  0  0  0  0  0
  -28.9350  -22.8970   21.6330 C   0  0  0  0  0  2  0  0  0  0  0  0
  -28.7920  -23.3750   20.2320 N   0  0  0  0  0  4  0  0  0  0  0  0
  -28.3630  -22.6440   19.6840 H   0  0  0  0  0  0  0  0  0  0  0  0
  -29.7150  -23.5330   19.8600 H   0  0  0  0  0  0  0  0  0  0  0  0
  -27.9970  -24.6370   20.1190 C   0  0  0  0  0  2  0  0  0  0  0  0
  -28.2140  -25.4440   18.8150 C   0  0  0  0  0  2  0  0  0  0  0  0
  -28.2010  -26.8600   19.0760 O   0  0  0  0  0  0  0  0  0  0  0  0
  -24.7060  -31.4660   23.2130 C   0  0  0  0  0  0  0  0  0  0  0  0
  -27.0150  -27.5480   19.2660 C   0  0  0  0  0  0  0  0  0  0  0  0
  -23.3530  -30.3970   21.4370 C   0  0  0  0  0  3  0  0  0  0  0  0
  -24.6680  -29.0860   19.6800 C   0  0  0  0  0  0  0  0  0  0  0  0
  -25.8750  -30.7180   21.1420 C   0  0  0  0  0  2  0  0  0  0  0  0
  -25.8730  -29.4780   20.2730 C   0  0  0  0  0  0  0  0  0  0  0  0
  -27.0440  -28.7150   20.0630 C   0  0  0  0  0  3  0  0  0  0  0  0
  -25.7860  -27.1620   18.6820 C   0  0  0  0  0  3  0  0  0  0  0  0
  -24.6190  -27.9280   18.8840 C   0  0  0  0  0  3  0  0  0  0  0  0
  -23.4560  -29.9540   19.9530 C   0  0  0  0  0  2  0  0  0  0  0  0
  -24.6660  -30.8680   21.9890 N   0  0  0  0  0  0  0  0  0  0  0  0
  -23.6710  -31.6680   23.8600 O   0  0  0  0  0  0  0  0  0  0  0  0
  -22.7270  -29.2440   22.2530 C   0  0  0  0  0  0  0  0  0  0  0  0
  -21.3970  -29.0870   22.1460 N   0  0  0  0  0  0  0  0  0  0  0  0
  -23.4320  -28.4970   22.9380 O   0  0  0  0  0  0  0  0  0  0  0  0
  -20.8900  -29.7540   21.5810 H   0  0  0  0  0  0  0  0  0  0  0  0
  -18.0420  -27.7810   22.4730 C   0  0  0  0  0  0  0  0  0  0  0  0
  -20.5980  -28.0330   22.7710 C   0  0  0  0  0  3  0  0  0  0  0  0
  -20.7240  -26.7080   21.9820 C   0  0  0  0  0  2  0  0  0  0  0  0
  -19.6120  -26.5230   20.9500 C   0  0  0  0  0  2  0  0  0  0  0  0
  -18.2430  -26.5320   21.6310 C   0  0  0  0  0  2  0  0  0  0  0  0
  -19.1510  -28.4940   23.0010 C   0  0  0  0  0  0  0  0  0  0  0  0
  -18.9150  -29.6650   23.7530 C   0  0  0  0  0  3  0  0  0  0  0  0
  -17.6010  -30.1200   23.9830 C   0  0  0  0  0  3  0  0  0  0  0  0
  -16.5070  -29.4020   23.4660 C   0  0  0  0  0  3  0  0  0  0  0  0
  -16.7300  -28.2330   22.7180 C   0  0  0  0  0  3  0  0  0  0  0  0
  -26.0480  -31.9500   23.8450 C   0  0  0  0  0  3  0  0  0  0  0  0
  -25.8500  -33.3330   24.2990 N   0  0  0  0  0  0  0  0  0  0  0  0
  -26.3000  -34.4180   23.6580 C   0  0  0  0  0  0  0  0  0  0  0  0
  -26.9970  -34.3560   22.6420 O   0  0  0  0  0  0  0  0  0  0  0  0
  -25.2490  -33.4610   25.1010 H   0  0  0  0  0  0  0  0  0  0  0  0
  -24.7720  -36.4000   23.4050 C   0  0  0  0  0  1  0  0  0  0  0  0
  -25.9140  -35.7940   24.2360 C   0  0  0  0  0  3  0  0  0  0  0  0
  -28.0560  -36.3790   25.2840 C   0  0  0  0  0  1  0  0  0  0  0  0
  -27.0430  -36.7450   24.2970 N   0  0  0  0  0  0  0  0  0  0  0  0
  -26.7140  -37.6830   24.5100 H   0  0  0  0  0  0  0  0  0  0  0  0
  -26.5460  -31.0360   25.0310 C   0  0  1  0  0  0  0  0  0  0  0  0
  -25.4800  -30.7940   26.1260 C   0  0  0  0  0  1  0  0  0  0  0  0
  -27.0010  -29.6570   24.5030 C   0  0  0  0  0  1  0  0  0  0  0  0
  -27.7750  -31.6830   25.7090 C   0  0  0  0  0  1  0  0  0  0  0  0
  1 50  2  0
  1  2  1  0
  3  9  1  0
  4  9  1  0
  5  6  1  0
  5  4  1  0
  7  6  1  0
  7 20  1  0
  7  8  1  0
  9  8  1  0
 10  3  2  0
 11 12  1  0
 12 45  1  0
 12 16  1  0
 13 11  1  0
 13 15  1  0
 13 14  1  0
 14  2  1  0
 15 16  1  0
 15 14  1  0
 16  3  1  0
 17 18  2  0
 18 37  1  0
 19 18  1  0
 19 22  1  0
 20 17  1  0
 20 21  1  0
 21 19  2  0
 22 23  1  0
 23 24  2  0
 25 28  1  0
 25 24  1  0
 26 25  2  0
 27 26  1  0
 27 22  2  0
 28 29  1  0
 29 30  1  0
 30 31  2  0
 32 31  1  0
 32 36  1  0
 33 32  2  0
 34 29  2  0
 34 33  1  0
 35 34  1  0
 37 38  1  0
 38 41  1  0
 38 40  1  0
 39 37  2  0
 42 43  1  0
 42 17  1  0
 44 42  1  0
 46 45  1  0
 46 49  1  0
 47 45  2  0
 48 46  1  0
 51 50  1  0
 52 51  1  0
 53 52  1  0
 54 52  1  0
 55 52  1  0
 56 57  1  0
 56 55  1  0
 57 59  1  0
 58 69  2  0
 59 64  1  0
 60 68  1  0
 60 70  1  0
 61 67  1  0
 61 63  1  0
 62 68  1  0
 63 62  1  0
 64 63  2  0
 65 66  1  0
 65 59  2  0
 66 61  2  0
 67 60  1  0
 68 58  1  0
 70 72  2  0
 71 70  1  0
 73 71  1  0
 74 83  2  0
 74 79  1  0
 75 71  1  0
 75 79  1  0
 76 75  1  0
 77 78  1  0
 77 76  1  0
 78 74  1  0
 79 80  2  0
 80 81  1  0
 82 81  2  0
 83 82  1  0
 84 58  1  0
 84 85  1  0
 84 94  1  0
 85 88  1  0
 86 90  1  0
 86 85  1  0
 87 86  2  0
 90 89  1  0
 90 92  1  0
 92 93  1  0
 92 91  1  0
 94 97  1  1
 94 95  1  0
 96 94  1  0
M  ISO  4   3 100  16 100  56 101  57 101
M  END
>  <TORSDO>  (32) 
F 23

>  <SCORE>  (32) 
-9.216

>  <name>  (32) 
32

>  <ligand_id>  (32) 
32

>  <original_smiles>  (32) 
[H]c1c([H])c([H])c2c(c1[H])C([H])([H])C([H])([H])C([H])([H])C2([H])N([H])C(=O)C1([H])N(C(=O)C([H])(N([H])C(=O)C([H])(N([H])C([H])([H])[H])C([H])([H])[H])C(C([H])([H])[H])(C([H])([H])[H])C([H])([H])[H])C([H])([H])c2c([H])c(OC([H])([H])C([H])([H])[N+]([H])([H])C([H])([H])C([H])([H])C([H])([H])C([H])([H])C3([H])C4([H])N(C(=O)N5C([H])([H])C([H])([H])C([H])([H])C([H])(n6nc(-c7c([H])c([H])c(Oc8c([H])c([H])c(F)c([H])c8F)c([H])c7[H])c(C(=O)N([H])[H])c6N([H])[H])C5([H])[H])C([H])(C(=O)N([H])[H])C([H])([H])C43[H])c([H])c([H])c2C1([H])[H]

>  <smiles>  (32) 
[H]c1c([H])c([H])c2c(c1[H])C([H])([H])C([H])([H])C([H])([H])C2([H])N([H])C(=O)C1([H])N(C(=O)C([H])(N([H])C(=O)C([H])(N([H])C([H])([H])[H])C([H])([H])[H])C(C([H])([H])[H])(C([H])([H])[H])C([H])([H])[H])C([H])([H])c2c([H])c(OC([H])([H])C([H])([H])[N+]([H])([H])C([H])([H])C([H])([H])C([H])([H])C([H])([H])C3([H])C4([H])N(C(=O)N5C([H])([H])C([H])([H])C([H])([H])C([H])(n6nc(-c7c([H])c([H])c(Oc8c([H])c([H])c(F)c([H])c8F)c([H])c7[H])c(C(=O)N([H])[H])c6N([H])[H])C5([H])[H])C([H])(C(=O)N([H])[H])C([H])([H])C43[H])c([H])c([H])c2C1([H])[H]

$$$$
33:0:0
     RDKit          3D

 93 99  0  0  1  0  0  0  0  0999 V2000
  -26.6350  -23.7270   18.3410 C   0  0  0  0  0  3  0  0  0  0  0  0
  -28.0880  -22.7470   18.5460 C   0  0  0  0  0  3  0  0  0  0  0  0
  -28.5480  -23.4170   20.9950 C   0  0  0  0  0  2  0  0  0  0  0  0
  -27.1380  -24.4650   21.2240 C   0  0  0  0  0  3  0  0  0  0  0  0
  -25.9050  -24.5250   19.8360 C   0  0  0  0  0  3  0  0  0  0  0  0
  -28.8670  -22.0770   19.9320 C   0  0  0  0  0  2  0  0  0  0  0  0
  -26.5050  -24.3670   22.5430 C   0  0  0  0  0  0  0  0  0  0  0  0
  -24.5490  -24.0640   20.2130 C   0  0  0  0  0  2  0  0  0  0  0  0
  -25.3730  -23.3260   22.4830 C   0  0  0  0  0  2  0  0  0  0  0  0
  -25.1020  -22.8860   20.9990 C   0  0  0  0  0  3  0  0  0  0  0  0
  -26.8770  -24.9050   23.5870 O   0  0  0  0  0  0  0  0  0  0  0  0
  -30.9510  -20.3330   19.2410 C   0  0  0  0  0  1  0  0  0  0  0  0
  -29.9100  -20.1370   20.3700 C   0  0  0  0  0  2  0  0  0  0  0  0
  -30.4360  -17.9260   20.6420 C   0  0  0  0  0  2  0  0  0  0  0  0
  -31.1050  -15.0820   20.4560 C   0  0  0  0  0  2  0  0  0  0  0  0
  -30.6450  -14.0140   19.3740 C   0  0  0  0  0  2  0  0  0  0  0  0
  -29.3030  -13.3720   19.7160 C   0  0  0  0  0  2  0  0  0  0  0  0
  -28.4050  -14.4500   20.3310 C   0  0  0  0  0  3  0  0  0  0  0  0
  -29.0720  -15.4260   21.3810 C   0  0  0  0  0  2  0  0  0  0  0  0
  -30.1330  -16.3470   20.7470 N   0  0  0  0  0  0  0  0  0  0  0  0
  -31.6790  -17.6850   20.7960 O   0  0  0  0  0  1  0  0  0  0  0  0
  -25.9670  -14.7490   20.8770 C   0  0  0  0  0  0  0  0  0  0  0  0
  -24.9150  -13.9010   21.0660 C   0  0  0  0  0  0  0  0  0  0  0  0
  -25.4500  -12.5770   20.9920 C   0  0  0  0  0  0  0  0  0  0  0  0
  -27.0790  -13.9560   20.7040 N   0  0  0  0  0  0  0  0  0  0  0  0
  -26.7760  -12.6270   20.8210 N   0  0  0  0  0  0  0  0  0  0  0  0
  -24.7460  -11.2800   21.0170 C   0  0  0  0  0  0  0  0  0  0  0  0
  -25.0450  -10.2870   21.9760 C   0  0  0  0  0  3  0  0  0  0  0  0
  -24.3290   -9.0690   22.0000 C   0  0  0  0  0  3  0  0  0  0  0  0
  -23.2970   -8.8320   21.0600 C   0  0  0  0  0  0  0  0  0  0  0  0
  -23.0150   -9.8130   20.0950 C   0  0  0  0  0  3  0  0  0  0  0  0
  -23.7320  -11.0220   20.0690 C   0  0  0  0  0  3  0  0  0  0  0  0
  -22.5670   -7.6680   20.9930 O   0  0  0  0  0  0  0  0  0  0  0  0
  -22.2050   -6.9740   22.1190 C   0  0  0  0  0  0  0  0  0  0  0  0
  -21.4920   -7.5860   23.1740 C   0  0  0  0  0  3  0  0  0  0  0  0
  -21.0780   -6.8190   24.2810 C   0  0  0  0  0  3  0  0  0  0  0  0
  -21.3680   -5.4440   24.3350 C   0  0  0  0  0  0  0  0  0  0  0  0
  -22.0740   -4.8320   23.2840 C   0  0  0  0  0  3  0  0  0  0  0  0
  -22.4880   -5.5930   22.1780 C   0  0  0  0  0  0  0  0  0  0  0  0
  -23.1470   -4.9940   21.1590 F   0  0  0  0  0  0  0  0  0  0  0  0
  -20.9660   -4.7060   25.3960 F   0  0  0  0  0  0  0  0  0  0  0  0
  -23.4800  -14.3120   21.2030 C   0  0  0  0  0  0  0  0  0  0  0  0
  -22.7010  -13.5580   21.9660 N   0  0  0  0  0  0  0  0  0  0  0  0
  -23.0610  -15.3420   20.6770 O   0  0  0  0  0  0  0  0  0  0  0  0
  -23.0570  -12.7240   22.4110 H   0  0  0  0  0  0  0  0  0  0  0  0
  -21.7320  -13.8090   22.1080 H   0  0  0  0  0  0  0  0  0  0  0  0
  -26.0720  -16.1340   20.7970 N   0  0  0  0  0  0  0  0  0  0  0  0
  -25.2610  -16.7400   20.8580 H   0  0  0  0  0  0  0  0  0  0  0  0
  -26.9280  -16.6350   20.5940 H   0  0  0  0  0  0  0  0  0  0  0  0
  -31.6720  -21.5410   21.7330 C   0  0  0  0  0  1  0  0  0  0  0  0
  -30.4480  -20.5960   21.7540 C   0  0  0  0  0  2  0  0  0  0  0  0
  -26.4830  -22.5600   20.2570 C   0  0  0  0  0  1  0  0  0  0  0  0
  -27.7980  -25.2370   19.3410 O   0  0  0  0  0  1  0  0  0  0  0  0
  -25.3350  -32.2850   23.5060 C   0  0  0  0  0  0  0  0  0  0  0  0
  -27.1700  -26.9230   19.6120 C   0  0  0  0  0  0  0  0  0  0  0  0
  -23.9220  -31.1170   21.8850 C   0  0  0  0  0  3  0  0  0  0  0  0
  -25.1200  -29.4860   20.1350 C   0  0  0  0  0  0  0  0  0  0  0  0
  -26.4980  -30.9620   21.5220 C   0  0  0  0  0  2  0  0  0  0  0  0
  -26.4020  -29.5490   20.6870 C   0  0  0  0  0  0  0  0  0  0  0  0
  -27.3690  -28.3260   20.4100 C   0  0  0  0  0  3  0  0  0  0  0  0
  -25.9020  -27.3330   19.0010 C   0  0  0  0  0  3  0  0  0  0  0  0
  -24.9510  -28.4040   19.2520 C   0  0  0  0  0  3  0  0  0  0  0  0
  -24.0000  -30.5370   20.4340 C   0  0  0  0  0  2  0  0  0  0  0  0
  -25.2930  -31.4960   22.3560 N   0  0  0  0  0  0  0  0  0  0  0  0
  -24.3090  -32.5920   24.1460 O   0  0  0  0  0  0  0  0  0  0  0  0
  -23.2210  -30.1120   22.8460 C   0  0  0  0  0  0  0  0  0  0  0  0
  -21.9220  -29.8020   22.6500 N   0  0  0  0  0  0  0  0  0  0  0  0
  -23.8740  -29.6060   23.7600 O   0  0  0  0  0  0  0  0  0  0  0  0
  -21.4270  -30.2640   21.9000 H   0  0  0  0  0  0  0  0  0  0  0  0
  -18.7720  -27.9680   22.8780 C   0  0  0  0  0  0  0  0  0  0  0  0
  -21.1770  -28.7770   23.4030 C   0  0  0  0  0  3  0  0  0  0  0  0
  -21.6240  -27.3560   22.9870 C   0  0  0  0  0  2  0  0  0  0  0  0
  -20.7520  -26.7480   21.8830 C   0  0  0  0  0  2  0  0  0  0  0  0
  -19.2970  -26.6460   22.3450 C   0  0  0  0  0  2  0  0  0  0  0  0
  -19.6530  -28.9750   23.3590 C   0  0  0  0  0  0  0  0  0  0  0  0
  -19.1090  -30.1920   23.8250 C   0  0  0  0  0  3  0  0  0  0  0  0
  -17.7180  -30.4120   23.8090 C   0  0  0  0  0  3  0  0  0  0  0  0
  -16.8510  -29.4090   23.3400 C   0  0  0  0  0  3  0  0  0  0  0  0
  -17.3770  -28.1900   22.8800 C   0  0  0  0  0  3  0  0  0  0  0  0
  -26.6680  -32.8490   24.0890 C   0  0  0  0  0  3  0  0  0  0  0  0
  -27.2950  -31.9100   25.1960 C   0  0  1  0  0  0  0  0  0  0  0  0
  -26.3150  -31.5430   26.3360 C   0  0  0  0  0  1  0  0  0  0  0  0
  -27.8030  -30.5860   24.5900 C   0  0  0  0  0  1  0  0  0  0  0  0
  -28.5300  -32.5970   25.8250 C   0  0  0  0  0  1  0  0  0  0  0  0
  -26.4140  -34.1860   24.6830 N   0  0  0  0  0  0  0  0  0  0  0  0
  -26.6970  -35.3680   24.1150 C   0  0  0  0  0  0  0  0  0  0  0  0
  -27.2380  -35.4530   23.0110 O   0  0  0  0  0  0  0  0  0  0  0  0
  -25.9120  -34.1920   25.5590 H   0  0  0  0  0  0  0  0  0  0  0  0
  -25.0100  -37.2340   24.3490 C   0  0  0  0  0  1  0  0  0  0  0  0
  -26.3310  -36.6600   24.8850 C   0  0  0  0  0  3  0  0  0  0  0  0
  -28.5900  -37.3650   25.5580 C   0  0  0  0  0  1  0  0  0  0  0  0
  -27.3760  -37.7090   24.8250 N   0  0  0  0  0  0  0  0  0  0  0  0
  -27.0230  -38.5880   25.1950 H   0  0  0  0  0  0  0  0  0  0  0  0
  1  2  2  0
  2  6  1  0
  4  3  1  0
  4  7  1  0
  5  1  1  0
  5  8  1  0
  5  4  1  0
  6  3  1  0
  7 11  2  0
  8 10  1  0
  9  7  1  0
 10 52  1  0
 10  9  1  0
 12 13  1  0
 13 51  1  0
 14 20  1  0
 14 21  1  0
 15 20  1  0
 16 17  1  0
 16 15  1  0
 18 17  1  0
 18 25  1  0
 18 19  1  0
 20 19  1  0
 22 23  2  0
 23 42  1  0
 24 27  1  0
 24 23  1  0
 25 26  1  0
 25 22  1  0
 26 24  2  0
 27 28  1  0
 28 29  2  0
 30 29  1  0
 31 30  2  0
 32 31  1  0
 32 27  2  0
 33 30  1  0
 33 34  1  0
 34 39  2  0
 34 35  1  0
 35 36  2  0
 36 37  1  0
 37 41  1  0
 38 37  2  0
 39 38  1  0
 40 39  1  0
 42 43  1  0
 43 46  1  0
 43 45  1  0
 44 42  2  0
 47 48  1  0
 47 22  1  0
 49 47  1  0
 50 51  1  0
 53 55  1  0
 54 65  2  0
 55 60  1  0
 56 64  1  0
 56 66  1  0
 57 63  1  0
 57 59  1  0
 58 64  1  0
 59 58  1  0
 60 59  2  0
 61 62  1  0
 61 55  2  0
 62 57  2  0
 63 56  1  0
 64 54  1  0
 66 68  2  0
 67 66  1  0
 69 67  1  0
 70 79  2  0
 70 75  1  0
 71 67  1  0
 72 71  1  0
 73 74  1  0
 73 72  1  0
 74 70  1  0
 75 71  1  0
 75 76  2  0
 77 76  1  0
 78 77  2  0
 79 78  1  0
 80 54  1  0
 80 85  1  0
 80 81  1  0
 81 84  1  1
 81 82  1  0
 83 81  1  0
 85 88  1  0
 86 85  1  0
 86 90  1  0
 87 86  2  0
 90 89  1  0
 92 90  1  0
 92 93  1  0
 92 91  1  0
M  ISO  4  13 100  14 100  52 101  53 101
M  END
>  <TORSDO>  (33) 
F 19

>  <SCORE>  (33) 
-10.027

>  <name>  (33) 
33

>  <ligand_id>  (33) 
33

>  <original_smiles>  (33) 
[H]c1c([H])c([H])c2c(c1[H])C([H])([H])C([H])([H])C([H])([H])C2([H])N([H])C(=O)C1([H])N(C(=O)C([H])(N([H])C(=O)C([H])(N([H])C([H])([H])[H])C([H])([H])[H])C(C([H])([H])[H])(C([H])([H])[H])C([H])([H])[H])C([H])([H])c2c([H])c(OC([H])([H])C3([H])C([H])([H])C(=O)c4c([H])c(C(C(=O)N5C([H])([H])C([H])([H])C([H])([H])C([H])(n6nc(-c7c([H])c([H])c(Oc8c([H])c([H])c(F)c([H])c8F)c([H])c7[H])c(C(=O)N([H])[H])c6N([H])[H])C5([H])[H])(C([H])([H])[H])C([H])([H])C([H])([H])[H])c([H])c([H])c4C3([H])[H])c([H])c([H])c2C1([H])[H]

>  <smiles>  (33) 
[H]c1c([H])c([H])c2c(c1[H])C([H])([H])C([H])([H])C([H])([H])C2([H])N([H])C(=O)C1([H])N(C(=O)C([H])(N([H])C(=O)C([H])(N([H])C([H])([H])[H])C([H])([H])[H])C(C([H])([H])[H])(C([H])([H])[H])C([H])([H])[H])C([H])([H])c2c([H])c(OC([H])([H])C3([H])C([H])([H])C(=O)c4c([H])c(C(C(=O)N5C([H])([H])C([H])([H])C([H])([H])C([H])(n6nc(-c7c([H])c([H])c(Oc8c([H])c([H])c(F)c([H])c8F)c([H])c7[H])c(C(=O)N([H])[H])c6N([H])[H])C5([H])[H])(C([H])([H])[H])C([H])([H])C([H])([H])[H])c([H])c([H])c4C3([H])[H])c([H])c([H])c2C1([H])[H]

$$$$
34:0:0
     RDKit          3D

 92101  0  0  1  0  0  0  0  0999 V2000
  -28.6010  -18.0330   19.1760 C   0  0  0  0  0  2  0  0  0  0  0  0
  -28.9510  -19.5240   19.3150 C   0  0  0  0  0  3  0  0  0  0  0  0
  -29.9410  -19.1260   20.4330 C   0  0  0  0  0  3  0  0  0  0  0  0
  -28.8800  -20.3930   20.5340 C   0  0  0  0  0  3  0  0  0  0  0  0
  -29.9190  -17.5800   19.8240 C   0  0  1  0  0  0  0  0  0  0  0  0
  -30.5650  -14.9680   20.4740 C   0  0  0  0  0  0  0  0  0  0  0  0
  -30.4070  -12.6170   19.5650 C   0  0  0  0  0  2  0  0  0  0  0  0
  -29.5240  -12.6440   18.3030 C   0  0  0  0  0  2  0  0  0  0  0  0
  -28.0530  -12.4220   18.6930 C   0  0  0  0  0  2  0  0  0  0  0  0
  -27.6180  -13.3340   19.8720 C   0  0  0  0  0  3  0  0  0  0  0  0
  -28.6420  -13.3410   21.0270 C   0  0  0  0  0  2  0  0  0  0  0  0
  -29.9420  -13.7230   20.4550 N   0  0  0  0  0  0  0  0  0  0  0  0
  -31.7740  -14.9890   20.2180 O   0  0  0  0  0  0  0  0  0  0  0  0
  -29.8060  -16.1740   20.5580 N   0  0  0  0  0  0  0  0  0  0  0  0
  -28.8710  -15.9930   20.8870 H   0  0  0  0  0  0  0  0  0  0  0  0
  -25.2100  -13.9050   20.5230 C   0  0  0  0  0  0  0  0  0  0  0  0
  -24.1400  -13.1280   20.8790 C   0  0  0  0  0  0  0  0  0  0  0  0
  -24.6110  -11.7790   20.8750 C   0  0  0  0  0  0  0  0  0  0  0  0
  -26.2670  -13.0300   20.3300 N   0  0  0  0  0  0  0  0  0  0  0  0
  -25.9130  -11.7470   20.6040 N   0  0  0  0  0  0  0  0  0  0  0  0
  -23.8830  -10.5160   21.0550 C   0  0  0  0  0  0  0  0  0  0  0  0
  -24.2940   -9.5580   22.0070 C   0  0  0  0  0  3  0  0  0  0  0  0
  -23.5670   -8.3610   22.1810 C   0  0  0  0  0  3  0  0  0  0  0  0
  -22.4120   -8.1130   21.3990 C   0  0  0  0  0  0  0  0  0  0  0  0
  -22.0150   -9.0640   20.4420 C   0  0  0  0  0  3  0  0  0  0  0  0
  -22.7450  -10.2520   20.2670 C   0  0  0  0  0  3  0  0  0  0  0  0
  -21.6600   -6.9650   21.4760 O   0  0  0  0  0  0  0  0  0  0  0  0
  -21.5880   -6.2310   22.6300 C   0  0  0  0  0  0  0  0  0  0  0  0
  -21.1380   -6.7940   23.8440 C   0  0  0  0  0  3  0  0  0  0  0  0
  -21.0110   -5.9860   24.9900 C   0  0  0  0  0  3  0  0  0  0  0  0
  -21.3270   -4.6150   24.9250 C   0  0  0  0  0  0  0  0  0  0  0  0
  -21.7690   -4.0520   23.7140 C   0  0  0  0  0  3  0  0  0  0  0  0
  -21.8980   -4.8570   22.5690 C   0  0  0  0  0  0  0  0  0  0  0  0
  -22.3060   -4.3050   21.4010 F   0  0  0  0  0  0  0  0  0  0  0  0
  -21.1980   -3.8340   26.0240 F   0  0  0  0  0  0  0  0  0  0  0  0
  -22.7380  -13.6080   21.1050 C   0  0  0  0  0  0  0  0  0  0  0  0
  -21.9880  -12.9170   21.9550 N   0  0  0  0  0  0  0  0  0  0  0  0
  -22.3170  -14.6300   20.5680 O   0  0  0  0  0  0  0  0  0  0  0  0
  -22.3450  -12.0870   22.4040 H   0  0  0  0  0  0  0  0  0  0  0  0
  -21.0490  -13.2290   22.1610 H   0  0  0  0  0  0  0  0  0  0  0  0
  -25.3680  -15.2710   20.3180 N   0  0  0  0  0  0  0  0  0  0  0  0
  -24.5530  -15.8710   20.2730 H   0  0  0  0  0  0  0  0  0  0  0  0
  -26.1730  -15.6610   19.8460 H   0  0  0  0  0  0  0  0  0  0  0  0
  -30.9790  -17.4260   18.6940 C   0  0  0  0  0  0  0  0  0  0  0  0
  -32.1820  -17.9600   18.8600 N   0  0  0  0  0  0  0  0  0  0  0  0
  -30.7340  -16.7580   17.6870 O   0  0  0  0  0  0  0  0  0  0  0  0
  -32.4030  -18.5020   19.6840 H   0  0  0  0  0  0  0  0  0  0  0  0
  -32.9020  -17.8140   18.1660 H   0  0  0  0  0  0  0  0  0  0  0  0
  -29.2170  -22.0270   20.5780 C   0  0  0  0  0  2  0  0  0  0  0  0
  -28.2470  -23.3140   20.0860 C   0  0  0  0  0  2  0  0  0  0  0  0
  -28.2280  -24.8400   20.7990 C   0  0  0  0  0  2  0  0  0  0  0  0
  -28.2360  -26.2710   20.1980 O   0  0  0  0  0  0  0  0  0  0  0  0
  -24.5630  -31.9200   23.2380 C   0  0  0  0  0  0  0  0  0  0  0  0
  -27.1400  -27.1990   20.2510 C   0  0  0  0  0  0  0  0  0  0  0  0
  -23.3610  -30.5170   21.6040 C   0  0  0  0  0  3  0  0  0  0  0  0
  -24.8050  -28.9270   20.2010 C   0  0  0  0  0  0  0  0  0  0  0  0
  -25.9130  -30.7870   21.4350 C   0  0  0  0  0  2  0  0  0  0  0  0
  -25.9840  -29.3860   20.8010 C   0  0  0  0  0  0  0  0  0  0  0  0
  -27.1540  -28.5400   20.8040 C   0  0  0  0  0  3  0  0  0  0  0  0
  -25.9290  -26.8220   19.6370 C   0  0  0  0  0  3  0  0  0  0  0  0
  -24.7860  -27.6540   19.6060 C   0  0  0  0  0  3  0  0  0  0  0  0
  -23.5780  -29.8260   20.2330 C   0  0  0  0  0  2  0  0  0  0  0  0
  -24.6340  -31.0990   22.1460 N   0  0  0  0  0  0  0  0  0  0  0  0
  -23.4780  -32.2090   23.7660 O   0  0  0  0  0  0  0  0  0  0  0  0
  -22.6870  -29.5170   22.5700 C   0  0  0  0  0  0  0  0  0  0  0  0
  -21.3600  -29.3400   22.4400 N   0  0  0  0  0  0  0  0  0  0  0  0
  -23.3570  -28.8960   23.4010 O   0  0  0  0  0  0  0  0  0  0  0  0
  -20.8790  -29.8780   21.7340 H   0  0  0  0  0  0  0  0  0  0  0  0
  -17.9770  -28.1650   22.9420 C   0  0  0  0  0  0  0  0  0  0  0  0
  -20.5350  -28.4190   23.2210 C   0  0  0  0  0  3  0  0  0  0  0  0
  -20.6360  -26.9780   22.6790 C   0  0  0  0  0  2  0  0  0  0  0  0
  -19.5450  -26.6370   21.6610 C   0  0  0  0  0  2  0  0  0  0  0  0
  -18.1500  -26.8060   22.2800 C   0  0  0  0  0  2  0  0  0  0  0  0
  -19.0970  -28.9280   23.3690 C   0  0  0  0  0  0  0  0  0  0  0  0
  -18.8790  -30.1940   23.9530 C   0  0  0  0  0  3  0  0  0  0  0  0
  -17.5760  -30.6990   24.1120 C   0  0  0  0  0  3  0  0  0  0  0  0
  -16.4720  -29.9310   23.7050 C   0  0  0  0  0  3  0  0  0  0  0  0
  -16.6720  -28.6640   23.1270 C   0  0  0  0  0  3  0  0  0  0  0  0
  -25.8450  -32.5540   23.8620 C   0  0  0  0  0  3  0  0  0  0  0  0
  -26.3450  -31.7990   25.1550 C   0  0  1  0  0  0  0  0  0  0  0  0
  -25.2390  -31.5880   26.2140 C   0  0  0  0  0  1  0  0  0  0  0  0
  -26.9210  -30.4110   24.7940 C   0  0  0  0  0  1  0  0  0  0  0  0
  -27.4920  -32.5960   25.8180 C   0  0  0  0  0  1  0  0  0  0  0  0
  -25.5380  -33.9590   24.1760 N   0  0  0  0  0  0  0  0  0  0  0  0
  -25.8890  -35.0060   23.4190 C   0  0  0  0  0  0  0  0  0  0  0  0
  -26.5710  -34.8910   22.3970 O   0  0  0  0  0  0  0  0  0  0  0  0
  -24.9270  -34.1220   24.9640 H   0  0  0  0  0  0  0  0  0  0  0  0
  -24.1840  -36.8170   23.0300 C   0  0  0  0  0  1  0  0  0  0  0  0
  -25.4060  -36.4020   23.8640 C   0  0  0  0  0  3  0  0  0  0  0  0
  -27.5340  -37.2700   24.7300 C   0  0  0  0  0  1  0  0  0  0  0  0
  -26.4510  -37.4430   23.7640 N   0  0  0  0  0  0  0  0  0  0  0  0
  -26.0510  -38.3660   23.9010 H   0  0  0  0  0  0  0  0  0  0  0  0
  1  5  1  0
  2  1  1  0
  2  3  1  0
  2  4  1  0
  3  4  1  0
  4 49  1  0
  5  3  1  0
  5 14  1  1
  6 14  1  0
  7 12  1  0
  8  9  1  0
  8  7  1  0
  9 10  1  0
 10 19  1  0
 10 11  1  0
 12  6  1  0
 12 11  1  0
 13  6  2  0
 14 15  1  0
 16 17  2  0
 17 36  1  0
 18 17  1  0
 18 21  1  0
 19 16  1  0
 19 20  1  0
 20 18  2  0
 21 22  1  0
 22 23  2  0
 24 27  1  0
 24 23  1  0
 25 24  2  0
 26 25  1  0
 26 21  2  0
 27 28  1  0
 28 29  1  0
 29 30  2  0
 31 30  1  0
 31 35  1  0
 32 31  2  0
 33 28  2  0
 33 32  1  0
 34 33  1  0
 36 37  1  0
 37 40  1  0
 37 39  1  0
 38 36  2  0
 41 16  1  0
 42 41  1  0
 43 41  1  0
 44 45  1  0
 44  5  1  0
 45 47  1  0
 46 44  2  0
 48 45  1  0
 50 49  1  0
 50 51  1  0
 52 54  1  0
 52 51  1  0
 53 64  2  0
 53 79  1  0
 54 59  1  0
 55 63  1  0
 55 65  1  0
 56 62  1  0
 56 58  1  0
 57 63  1  0
 58 59  2  0
 58 57  1  0
 60 54  2  0
 61 60  1  0
 61 56  2  0
 62 55  1  0
 63 53  1  0
 65 67  2  0
 66 65  1  0
 66 70  1  0
 68 66  1  0
 69 78  2  0
 69 74  1  0
 70 74  1  0
 71 70  1  0
 72 73  1  0
 72 71  1  0
 73 69  1  0
 74 75  2  0
 75 76  1  0
 77 76  2  0
 78 77  1  0
 79 84  1  0
 79 80  1  0
 80 83  1  1
 80 81  1  0
 82 80  1  0
 84 87  1  0
 85 89  1  0
 85 84  1  0
 86 85  2  0
 88 89  1  0
 91 89  1  0
 91 92  1  0
 91 90  1  0
M  ISO  4   6 100  14 100  51 101  52 101
M  END
>  <TORSDO>  (34) 
F 20

>  <SCORE>  (34) 
-13.645

>  <name>  (34) 
34

>  <ligand_id>  (34) 
34

>  <original_smiles>  (34) 
[H]c1c([H])c([H])c2c(c1[H])C([H])([H])C([H])([H])C([H])([H])C2([H])N([H])C(=O)C1([H])N(C(=O)C([H])(N([H])C(=O)C([H])(N([H])C([H])([H])[H])C([H])([H])[H])C(C([H])([H])[H])(C([H])([H])[H])C([H])([H])[H])C([H])([H])c2c([H])c(OC([H])([H])C([H])([H])C([H])([H])C3([H])C4([H])C([H])([H])C(C(=O)N([H])[H])(N([H])C(=O)N5C([H])([H])C([H])([H])C([H])([H])C([H])(n6nc(-c7c([H])c([H])c(Oc8c([H])c([H])c(F)c([H])c8F)c([H])c7[H])c(C(=O)N([H])[H])c6N([H])[H])C5([H])[H])C34[H])c([H])c([H])c2C1([H])[H]

>  <smiles>  (34) 
[H]c1c([H])c([H])c2c(c1[H])C([H])([H])C([H])([H])C([H])([H])C2([H])N([H])C(=O)C1([H])N(C(=O)C([H])(N([H])C(=O)C([H])(N([H])C([H])([H])[H])C([H])([H])[H])C(C([H])([H])[H])(C([H])([H])[H])C([H])([H])[H])C([H])([H])c2c([H])c(OC([H])([H])C([H])([H])C([H])([H])C3([H])C4([H])C([H])([H])C(C(=O)N([H])[H])(N([H])C(=O)N5C([H])([H])C([H])([H])C([H])([H])C([H])(n6nc(-c7c([H])c([H])c(Oc8c([H])c([H])c(F)c([H])c8F)c([H])c7[H])c(C(=O)N([H])[H])c6N([H])[H])C5([H])[H])C34[H])c([H])c([H])c2C1([H])[H]

$$$$
35:0:0
     RDKit          3D

 91100  0  0  1  0  0  0  0  0999 V2000
  -30.6340  -20.7070   20.1520 C   0  0  0  0  0  2  0  0  0  0  0  0
  -29.3760  -21.2110   20.8210 C   0  0  0  0  0  3  0  0  0  0  0  0
  -29.4330  -19.7890   20.1450 C   0  0  0  0  0  3  0  0  0  0  0  0
  -28.6960  -22.4330   20.1440 C   0  0  0  0  0  0  0  0  0  0  0  0
  -27.8630  -22.2360   19.2540 O   0  0  0  0  0  0  0  0  0  0  0  0
  -29.0540  -23.9190   20.5360 C   0  0  0  0  0  3  0  0  0  0  0  0
  -28.0480  -25.0340   20.0200 C   0  0  0  0  0  3  0  0  0  0  0  0
  -28.2930  -26.4760   20.2580 O   0  0  0  0  0  0  0  0  0  0  0  0
  -24.5950  -31.8860   23.2520 C   0  0  0  0  0  0  0  0  0  0  0  0
  -27.1840  -27.3340   20.1840 C   0  0  0  0  0  0  0  0  0  0  0  0
  -23.3840  -30.4930   21.6140 C   0  0  0  0  0  3  0  0  0  0  0  0
  -24.8260  -28.9500   20.1790 C   0  0  0  0  0  0  0  0  0  0  0  0
  -25.9240  -30.8070   21.4270 C   0  0  0  0  0  2  0  0  0  0  0  0
  -25.9970  -29.4320   20.7760 C   0  0  0  0  0  0  0  0  0  0  0  0
  -27.1790  -28.6360   20.7720 C   0  0  0  0  0  3  0  0  0  0  0  0
  -25.9920  -26.9140   19.5460 C   0  0  0  0  0  3  0  0  0  0  0  0
  -24.8250  -27.6950   19.5560 C   0  0  0  0  0  3  0  0  0  0  0  0
  -23.5930  -29.8260   20.2310 C   0  0  0  0  0  2  0  0  0  0  0  0
  -24.6530  -31.0790   22.1540 N   0  0  0  0  0  0  0  0  0  0  0  0
  -23.5140  -32.1670   23.7890 O   0  0  0  0  0  0  0  0  0  0  0  0
  -22.7230  -29.4730   22.5730 C   0  0  0  0  0  0  0  0  0  0  0  0
  -21.3960  -29.2990   22.4490 N   0  0  0  0  0  0  0  0  0  0  0  0
  -23.4020  -28.8450   23.3900 O   0  0  0  0  0  0  0  0  0  0  0  0
  -20.9070  -29.8590   21.7640 H   0  0  0  0  0  0  0  0  0  0  0  0
  -18.0180  -28.1030   22.9410 C   0  0  0  0  0  0  0  0  0  0  0  0
  -20.5750  -28.3650   23.2210 C   0  0  0  0  0  3  0  0  0  0  0  0
  -20.6810  -26.9300   22.6540 C   0  0  0  0  0  2  0  0  0  0  0  0
  -19.5820  -26.6010   21.6370 C   0  0  0  0  0  2  0  0  0  0  0  0
  -18.1980  -26.7490   22.2750 C   0  0  0  0  0  2  0  0  0  0  0  0
  -19.1340  -28.8680   23.3720 C   0  0  0  0  0  0  0  0  0  0  0  0
  -18.9120  -30.1340   23.9550 C   0  0  0  0  0  3  0  0  0  0  0  0
  -17.6060  -30.6350   24.1130 C   0  0  0  0  0  3  0  0  0  0  0  0
  -16.5040  -29.8670   23.7000 C   0  0  0  0  0  3  0  0  0  0  0  0
  -16.7110  -28.6030   23.1200 C   0  0  0  0  0  3  0  0  0  0  0  0
  -25.8820  -32.5140   23.8710 C   0  0  0  0  0  3  0  0  0  0  0  0
  -25.5780  -33.9150   24.1990 N   0  0  0  0  0  0  0  0  0  0  0  0
  -25.9090  -34.9650   23.4350 C   0  0  0  0  0  0  0  0  0  0  0  0
  -26.5730  -34.8570   22.4000 O   0  0  0  0  0  0  0  0  0  0  0  0
  -24.9910  -34.0730   25.0050 H   0  0  0  0  0  0  0  0  0  0  0  0
  -24.1830  -36.7600   23.0880 C   0  0  0  0  0  1  0  0  0  0  0  0
  -25.4280  -36.3560   23.8930 C   0  0  0  0  0  3  0  0  0  0  0  0
  -27.5710  -37.2350   24.7040 C   0  0  0  0  0  1  0  0  0  0  0  0
  -26.4630  -37.4060   23.7700 N   0  0  0  0  0  0  0  0  0  0  0  0
  -26.0600  -38.3270   23.9200 H   0  0  0  0  0  0  0  0  0  0  0  0
  -26.3980  -31.7430   25.1470 C   0  0  1  0  0  0  0  0  0  0  0  0
  -25.3070  -31.5120   26.2190 C   0  0  0  0  0  1  0  0  0  0  0  0
  -26.9730  -30.3620   24.7570 C   0  0  0  0  0  1  0  0  0  0  0  0
  -27.5550  -32.5330   25.8030 C   0  0  0  0  0  1  0  0  0  0  0  0
  -29.5450  -18.3610   20.8120 C   0  0  0  0  0  2  0  0  0  0  0  0
  -30.8480  -17.8940   17.9900 C   0  0  0  0  0  2  0  0  0  0  0  0
  -31.5290  -17.4730   19.2890 C   0  0  0  0  0  2  0  0  0  0  0  0
  -29.6220  -17.1100   18.4570 C   0  0  0  0  0  2  0  0  0  0  0  0
  -30.1320  -17.1790   19.9170 C   0  0  2  0  0  0  0  0  0  0  0  0
  -30.6700  -14.6260   20.4040 C   0  0  0  0  0  0  0  0  0  0  0  0
  -30.3610  -12.3970   19.3760 C   0  0  0  0  0  2  0  0  0  0  0  0
  -29.4400  -12.5510   18.1480 C   0  0  0  0  0  2  0  0  0  0  0  0
  -27.9640  -12.4220   18.5670 C   0  0  0  0  0  2  0  0  0  0  0  0
  -27.6080  -13.2910   19.8040 C   0  0  0  0  0  3  0  0  0  0  0  0
  -28.6610  -13.1600   20.9270 C   0  0  0  0  0  2  0  0  0  0  0  0
  -29.9770  -13.4470   20.3420 N   0  0  0  0  0  0  0  0  0  0  0  0
  -31.8660  -14.6420   20.1170 O   0  0  0  0  0  0  0  0  0  0  0  0
  -29.9420  -15.7880   20.5220 N   0  0  0  0  0  0  0  0  0  0  0  0
  -28.9990  -15.6100   20.8370 H   0  0  0  0  0  0  0  0  0  0  0  0
  -25.2140  -13.8970   20.5060 C   0  0  0  0  0  0  0  0  0  0  0  0
  -24.1420  -13.1310   20.8740 C   0  0  0  0  0  0  0  0  0  0  0  0
  -24.6000  -11.7770   20.8570 C   0  0  0  0  0  0  0  0  0  0  0  0
  -26.2570  -13.0130   20.2860 N   0  0  0  0  0  0  0  0  0  0  0  0
  -25.8930  -11.7330   20.5590 N   0  0  0  0  0  0  0  0  0  0  0  0
  -23.8670  -10.5180   21.0510 C   0  0  0  0  0  0  0  0  0  0  0  0
  -24.2980   -9.5460   21.9820 C   0  0  0  0  0  3  0  0  0  0  0  0
  -23.5650   -8.3530   22.1640 C   0  0  0  0  0  3  0  0  0  0  0  0
  -22.3850   -8.1250   21.4160 C   0  0  0  0  0  0  0  0  0  0  0  0
  -21.9730   -9.0840   20.4740 C   0  0  0  0  0  3  0  0  0  0  0  0
  -22.7070  -10.2680   20.2910 C   0  0  0  0  0  3  0  0  0  0  0  0
  -21.6240   -6.9840   21.5070 O   0  0  0  0  0  0  0  0  0  0  0  0
  -21.5910   -6.2310   22.6530 C   0  0  0  0  0  0  0  0  0  0  0  0
  -21.2000   -6.7800   23.8940 C   0  0  0  0  0  3  0  0  0  0  0  0
  -21.1120   -5.9540   25.0330 C   0  0  0  0  0  3  0  0  0  0  0  0
  -21.4040   -4.5800   24.9310 C   0  0  0  0  0  0  0  0  0  0  0  0
  -21.7890   -4.0320   23.6950 C   0  0  0  0  0  3  0  0  0  0  0  0
  -21.8780   -4.8550   22.5590 C   0  0  0  0  0  0  0  0  0  0  0  0
  -22.2280   -4.3170   21.3650 F   0  0  0  0  0  0  0  0  0  0  0  0
  -21.3130   -3.7860   26.0240 F   0  0  0  0  0  0  0  0  0  0  0  0
  -22.7440  -13.6140   21.1300 C   0  0  0  0  0  0  0  0  0  0  0  0
  -22.0050  -12.9290   21.9970 N   0  0  0  0  0  0  0  0  0  0  0  0
  -22.3140  -14.6370   20.5980 O   0  0  0  0  0  0  0  0  0  0  0  0
  -22.3650  -12.1040   22.4530 H   0  0  0  0  0  0  0  0  0  0  0  0
  -21.0660  -13.2370   22.2070 H   0  0  0  0  0  0  0  0  0  0  0  0
  -25.3830  -15.2660   20.3170 N   0  0  0  0  0  0  0  0  0  0  0  0
  -24.6160  -15.9220   20.4120 H   0  0  0  0  0  0  0  0  0  0  0  0
  -26.2310  -15.6990   19.9720 H   0  0  0  0  0  0  0  0  0  0  0  0
  1  2  1  0
  2  4  1  0
  3  1  1  0
  3 49  1  0
  3  2  1  0
  4  6  1  0
  5  4  2  0
  7  8  1  0
  7  6  2  0
  9 20  2  0
 10  8  1  0
 10 15  1  0
 11 19  1  0
 11 21  1  0
 12 18  1  0
 12 14  1  0
 13 19  1  0
 14 13  1  0
 15 14  2  0
 16 17  1  0
 16 10  2  0
 17 12  2  0
 18 11  1  0
 19  9  1  0
 21 23  2  0
 22 21  1  0
 24 22  1  0
 25 34  2  0
 25 30  1  0
 26 22  1  0
 26 30  1  0
 27 26  1  0
 28 29  1  0
 28 27  1  0
 29 25  1  0
 30 31  2  0
 31 32  1  0
 33 32  2  0
 34 33  1  0
 35  9  1  0
 35 36  1  0
 35 45  1  0
 36 39  1  0
 37 41  1  0
 37 36  1  0
 38 37  2  0
 41 40  1  0
 43 41  1  0
 43 44  1  0
 43 42  1  0
 45 48  1  1
 45 46  1  0
 47 45  1  0
 50 52  1  0
 50 51  1  0
 51 53  1  0
 52 53  1  0
 53 62  1  0
 53 49  1  1
 54 62  1  0
 55 60  1  0
 56 57  1  0
 56 55  1  0
 58 57  1  0
 58 67  1  0
 58 59  1  0
 60 54  1  0
 60 59  1  0
 61 54  2  0
 62 63  1  0
 64 65  2  0
 65 84  1  0
 66 65  1  0
 66 69  1  0
 67 64  1  0
 67 68  1  0
 68 66  2  0
 69 70  1  0
 70 71  2  0
 72 75  1  0
 72 71  1  0
 73 72  2  0
 74 73  1  0
 74 69  2  0
 75 76  1  0
 76 77  1  0
 77 78  2  0
 79 78  1  0
 79 83  1  0
 80 79  2  0
 81 76  2  0
 81 80  1  0
 82 81  1  0
 84 85  1  0
 85 88  1  0
 85 87  1  0
 86 84  2  0
 89 90  1  0
 89 64  1  0
 91 89  1  0
M  ISO  4   7 101   8 101  54 100  62 100
M  END
>  <TORSDO>  (35) 
F 21

>  <SCORE>  (35) 
-13.377

>  <name>  (35) 
35

>  <ligand_id>  (35) 
35

>  <original_smiles>  (35) 
[H]c1c([H])c([H])c2c(c1[H])C([H])([H])C([H])([H])C([H])([H])C2([H])N([H])C(=O)C1([H])N(C(=O)C([H])(N([H])C(=O)C([H])(N([H])C([H])([H])[H])C([H])([H])[H])C(C([H])([H])[H])(C([H])([H])[H])C([H])([H])[H])C([H])([H])c2c([H])c(OC([H])([H])C([H])([H])C(=O)C3([H])C([H])([H])C3([H])C([H])([H])C3(N([H])C(=O)N4C([H])([H])C([H])([H])C([H])([H])C([H])(n5nc(-c6c([H])c([H])c(Oc7c([H])c([H])c(F)c([H])c7F)c([H])c6[H])c(C(=O)N([H])[H])c5N([H])[H])C4([H])[H])C([H])([H])C([H])([H])C3([H])[H])c([H])c([H])c2C1([H])[H]

>  <smiles>  (35) 
[H]c1c([H])c([H])c2c(c1[H])C([H])([H])C([H])([H])C([H])([H])C2([H])N([H])C(=O)C1([H])N(C(=O)C([H])(N([H])C(=O)C([H])(N([H])C([H])([H])[H])C([H])([H])[H])C(C([H])([H])[H])(C([H])([H])[H])C([H])([H])[H])C([H])([H])c2c([H])c(OC([H])([H])C([H])([H])C(=O)C3([H])C([H])([H])C3([H])C([H])([H])C3(N([H])C(=O)N4C([H])([H])C([H])([H])C([H])([H])C([H])(n5nc(-c6c([H])c([H])c(Oc7c([H])c([H])c(F)c([H])c7F)c([H])c6[H])c(C(=O)N([H])[H])c5N([H])[H])C4([H])[H])C([H])([H])C([H])([H])C3([H])[H])c([H])c([H])c2C1([H])[H]

$$$$
36:0:0
     RDKit          3D

 95103  0  0  1  0  0  0  0  0999 V2000
  -30.0260  -20.2910   19.2430 C   0  0  0  0  0  2  0  0  0  0  0  0
  -28.6590  -20.7020   21.1760 C   0  0  0  0  0  2  0  0  0  0  0  0
  -29.9370  -21.8130   18.8320 C   0  0  0  0  0  2  0  0  0  0  0  0
  -28.4760  -22.2180   20.7790 C   0  0  0  0  0  2  0  0  0  0  0  0
  -29.9870  -19.9960   20.7780 C   0  0  1  0  0  0  0  0  0  0  0  0
  -28.7250  -22.5370   19.3450 N   0  0  1  0  0  4  0  0  0  0  0  0
  -27.9520  -22.0940   18.8650 H   0  0  0  0  0  0  0  0  0  0  0  0
  -29.9190  -18.4230   21.1310 C   0  0  0  0  0  2  0  0  0  0  0  0
  -30.4760  -17.3450   20.1140 C   0  0  0  0  0  2  0  0  0  0  0  0
  -30.9380  -14.8040   20.3790 C   0  0  0  0  0  0  0  0  0  0  0  0
  -30.7330  -12.5230   19.4310 C   0  0  0  0  0  2  0  0  0  0  0  0
  -29.8290  -12.5980   18.1820 C   0  0  0  0  0  2  0  0  0  0  0  0
  -28.3440  -12.4600   18.5710 C   0  0  0  0  0  2  0  0  0  0  0  0
  -27.9480  -13.3700   19.7650 C   0  0  0  0  0  3  0  0  0  0  0  0
  -28.9770  -13.2900   20.9150 C   0  0  0  0  0  2  0  0  0  0  0  0
  -30.2990  -13.5920   20.3480 N   0  0  0  0  0  0  0  0  0  0  0  0
  -32.1310  -14.9100   20.0840 O   0  0  0  0  0  0  0  0  0  0  0  0
  -30.1500  -15.9150   20.4700 N   0  0  0  0  0  0  0  0  0  0  0  0
  -29.1670  -15.7210   20.5890 H   0  0  0  0  0  0  0  0  0  0  0  0
  -25.5440  -13.9710   20.4510 C   0  0  0  0  0  0  0  0  0  0  0  0
  -24.4660  -13.2040   20.7880 C   0  0  0  0  0  0  0  0  0  0  0  0
  -24.9220  -11.8460   20.7510 C   0  0  0  0  0  0  0  0  0  0  0  0
  -26.5900  -13.0910   20.2250 N   0  0  0  0  0  0  0  0  0  0  0  0
  -26.2170  -11.8090   20.4690 N   0  0  0  0  0  0  0  0  0  0  0  0
  -24.1800  -10.5890   20.9100 C   0  0  0  0  0  0  0  0  0  0  0  0
  -24.5920   -9.6010   21.8300 C   0  0  0  0  0  3  0  0  0  0  0  0
  -23.8520   -8.4060   21.9770 C   0  0  0  0  0  3  0  0  0  0  0  0
  -22.6870   -8.1950   21.2040 C   0  0  0  0  0  0  0  0  0  0  0  0
  -22.2960   -9.1690   20.2720 C   0  0  0  0  0  3  0  0  0  0  0  0
  -23.0330  -10.3550   20.1230 C   0  0  0  0  0  3  0  0  0  0  0  0
  -21.9220   -7.0550   21.2630 O   0  0  0  0  0  0  0  0  0  0  0  0
  -21.8610   -6.2880   22.3970 C   0  0  0  0  0  0  0  0  0  0  0  0
  -21.4270   -6.8180   23.6300 C   0  0  0  0  0  3  0  0  0  0  0  0
  -21.3070   -5.9790   24.7570 C   0  0  0  0  0  3  0  0  0  0  0  0
  -21.6160   -4.6100   24.6510 C   0  0  0  0  0  0  0  0  0  0  0  0
  -22.0360   -4.0770   23.4200 C   0  0  0  0  0  3  0  0  0  0  0  0
  -22.1550   -4.9130   22.2960 C   0  0  0  0  0  0  0  0  0  0  0  0
  -22.5460   -4.3910   21.1100 F   0  0  0  0  0  0  0  0  0  0  0  0
  -21.4920   -3.8020   25.7300 F   0  0  0  0  0  0  0  0  0  0  0  0
  -23.0650  -13.6870   21.0340 C   0  0  0  0  0  0  0  0  0  0  0  0
  -22.3210  -12.9940   21.8860 N   0  0  0  0  0  0  0  0  0  0  0  0
  -22.6390  -14.7140   20.5050 O   0  0  0  0  0  0  0  0  0  0  0  0
  -22.6730  -12.1610   22.3320 H   0  0  0  0  0  0  0  0  0  0  0  0
  -21.3790  -13.3000   22.0990 H   0  0  0  0  0  0  0  0  0  0  0  0
  -25.7230  -15.3440   20.2930 N   0  0  0  0  0  0  0  0  0  0  0  0
  -24.9660  -16.0090   20.4090 H   0  0  0  0  0  0  0  0  0  0  0  0
  -26.5800  -15.7810   19.9770 H   0  0  0  0  0  0  0  0  0  0  0  0
  -31.2070  -20.6320   21.5290 C   0  0  0  0  0  2  0  0  0  0  0  0
  -32.3860  -20.4800   23.8030 C   0  0  0  0  0  1  0  0  0  0  0  0
  -31.0740  -20.8410   23.0790 C   0  0  0  0  0  3  0  0  0  0  0  0
  -30.3120  -22.5310   24.9250 C   0  0  0  0  0  1  0  0  0  0  0  0
  -30.5890  -22.2670   23.4350 C   0  0  0  0  0  2  0  0  0  0  0  0
  -28.6450  -24.0170   18.9400 C   0  0  0  0  0  3  0  0  0  0  0  0
  -28.0280  -25.0900   19.9550 C   0  0  0  0  0  3  0  0  0  0  0  0
  -28.1610  -26.5390   19.6550 O   0  0  0  0  0  0  0  0  0  0  0  0
  -24.5460  -31.7900   23.1030 C   0  0  0  0  0  0  0  0  0  0  0  0
  -27.0370  -27.3710   19.7470 C   0  0  0  0  0  0  0  0  0  0  0  0
  -23.2750  -30.4570   21.4550 C   0  0  0  0  0  3  0  0  0  0  0  0
  -24.6770  -28.9770   19.9160 C   0  0  0  0  0  0  0  0  0  0  0  0
  -25.8080  -30.8000   21.1830 C   0  0  0  0  0  2  0  0  0  0  0  0
  -25.8710  -29.4520   20.4680 C   0  0  0  0  0  0  0  0  0  0  0  0
  -27.0540  -28.6650   20.3630 C   0  0  0  0  0  3  0  0  0  0  0  0
  -25.8170  -26.9520   19.1760 C   0  0  0  0  0  3  0  0  0  0  0  0
  -24.6560  -27.7370   19.2530 C   0  0  0  0  0  3  0  0  0  0  0  0
  -23.4380  -29.8390   20.0430 C   0  0  0  0  0  2  0  0  0  0  0  0
  -24.5640  -31.0240   21.9710 N   0  0  0  0  0  0  0  0  0  0  0  0
  -23.4890  -32.0470   23.6940 O   0  0  0  0  0  0  0  0  0  0  0  0
  -22.6500  -29.3980   22.3920 C   0  0  0  0  0  0  0  0  0  0  0  0
  -21.3190  -29.2250   22.3100 N   0  0  0  0  0  0  0  0  0  0  0  0
  -23.3610  -28.7320   23.1530 O   0  0  0  0  0  0  0  0  0  0  0  0
  -20.8060  -29.8190   21.6750 H   0  0  0  0  0  0  0  0  0  0  0  0
  -17.9560  -28.0160   22.8390 C   0  0  0  0  0  0  0  0  0  0  0  0
  -20.5220  -28.2620   23.0670 C   0  0  0  0  0  3  0  0  0  0  0  0
  -20.6070  -26.8490   22.4400 C   0  0  0  0  0  2  0  0  0  0  0  0
  -19.4810  -26.5660   21.4400 C   0  0  0  0  0  2  0  0  0  0  0  0
  -18.1150  -26.6870   22.1210 C   0  0  0  0  0  2  0  0  0  0  0  0
  -19.0870  -28.7610   23.2690 C   0  0  0  0  0  0  0  0  0  0  0  0
  -18.8850  -30.0060   23.9050 C   0  0  0  0  0  3  0  0  0  0  0  0
  -17.5870  -30.5050   24.1140 C   0  0  0  0  0  3  0  0  0  0  0  0
  -16.4710  -29.7490   23.7170 C   0  0  0  0  0  3  0  0  0  0  0  0
  -16.6590  -28.5080   23.0790 C   0  0  0  0  0  3  0  0  0  0  0  0
  -25.8570  -32.3890   23.6980 C   0  0  0  0  0  3  0  0  0  0  0  0
  -25.5740  -33.7770   24.0920 N   0  0  0  0  0  0  0  0  0  0  0  0
  -25.9020  -34.8540   23.3630 C   0  0  0  0  0  0  0  0  0  0  0  0
  -26.5410  -34.7820   22.3090 O   0  0  0  0  0  0  0  0  0  0  0  0
  -25.0090  -33.9080   24.9160 H   0  0  0  0  0  0  0  0  0  0  0  0
  -24.1900  -36.6730   23.1150 C   0  0  0  0  0  1  0  0  0  0  0  0
  -25.4440  -36.2300   23.8870 C   0  0  0  0  0  3  0  0  0  0  0  0
  -27.6060  -37.0600   24.6930 C   0  0  0  0  0  1  0  0  0  0  0  0
  -26.4860  -37.2730   23.7840 N   0  0  0  0  0  0  0  0  0  0  0  0
  -26.0940  -38.1930   23.9740 H   0  0  0  0  0  0  0  0  0  0  0  0
  -26.4170  -31.5640   24.9210 C   0  0  1  0  0  0  0  0  0  0  0  0
  -25.3580  -31.3080   26.0170 C   0  0  0  0  0  1  0  0  0  0  0  0
  -26.9720  -30.1970   24.4560 C   0  0  0  0  0  1  0  0  0  0  0  0
  -27.6030  -32.3210   25.5640 C   0  0  0  0  0  1  0  0  0  0  0  0
  1  5  1  0
  3  1  1  0
  3  6  1  0
  4  2  1  0
  5  8  1  6
  5  2  1  0
  5 48  1  0
  6  4  1  0
  6  7  1  6
  9 18  1  0
  9  8  1  0
 10 18  1  0
 11 16  1  0
 12 13  1  0
 12 11  1  0
 14 13  1  0
 14 23  1  0
 14 15  1  0
 16 10  1  0
 16 15  1  0
 17 10  2  0
 18 19  1  0
 20 21  2  0
 21 40  1  0
 22 21  1  0
 22 25  1  0
 23 20  1  0
 23 24  1  0
 24 22  2  0
 25 26  1  0
 26 27  2  0
 28 31  1  0
 28 27  1  0
 29 28  2  0
 30 29  1  0
 30 25  2  0
 31 32  1  0
 32 33  1  0
 33 34  2  0
 35 34  1  0
 35 39  1  0
 36 35  2  0
 37 32  2  0
 37 36  1  0
 38 37  1  0
 40 41  1  0
 41 44  1  0
 41 43  1  0
 42 40  2  0
 45 46  1  0
 45 20  1  0
 47 45  1  0
 48 50  1  0
 50 52  1  0
 50 49  1  0
 52 51  1  0
 53  6  1  0
 53 54  2  0
 55 57  1  0
 55 54  1  0
 56 67  2  0
 57 62  1  0
 58 66  1  0
 58 68  1  0
 59 65  1  0
 59 61  1  0
 60 66  1  0
 61 60  1  0
 62 61  2  0
 63 64  1  0
 63 57  2  0
 64 59  2  0
 65 58  1  0
 66 56  1  0
 68 70  2  0
 69 68  1  0
 71 69  1  0
 72 81  2  0
 72 77  1  0
 73 69  1  0
 73 77  1  0
 74 73  1  0
 75 76  1  0
 75 74  1  0
 76 72  1  0
 77 78  2  0
 78 79  1  0
 80 79  2  0
 81 80  1  0
 82 56  1  0
 82 83  1  0
 82 92  1  0
 83 86  1  0
 84 88  1  0
 84 83  1  0
 85 84  2  0
 88 87  1  0
 90 88  1  0
 90 91  1  0
 90 89  1  0
 92 95  1  1
 92 93  1  0
 94 92  1  0
M  ISO  4  10 100  18 100  54 101  55 101
M  END
>  <TORSDO>  (36) 
F 23

>  <SCORE>  (36) 
-12.501

>  <name>  (36) 
36

>  <ligand_id>  (36) 
36

>  <original_smiles>  (36) 
[H]c1c([H])c([H])c2c(c1[H])C([H])([H])C([H])([H])C([H])([H])C2([H])N([H])C(=O)C1([H])N(C(=O)C([H])(N([H])C(=O)C([H])(N([H])C([H])([H])[H])C([H])([H])[H])C(C([H])([H])[H])(C([H])([H])[H])C([H])([H])[H])C([H])([H])c2c([H])c(OC([H])([H])C([H])([H])[N+]3([H])C([H])([H])C([H])([H])C(C([H])([H])C([H])([H])N([H])C(=O)N4C([H])([H])C([H])([H])C([H])([H])C([H])(n5nc(-c6c([H])c([H])c(Oc7c([H])c([H])c(F)c([H])c7F)c([H])c6[H])c(C(=O)N([H])[H])c5N([H])[H])C4([H])[H])(C([H])([H])C([H])(C([H])([H])[H])C([H])([H])C([H])([H])[H])C([H])([H])C3([H])[H])c([H])c([H])c2C1([H])[H]

>  <smiles>  (36) 
[H]c1c([H])c([H])c2c(c1[H])C([H])([H])C([H])([H])C([H])([H])C2([H])N([H])C(=O)C1([H])N(C(=O)C([H])(N([H])C(=O)C([H])(N([H])C([H])([H])[H])C([H])([H])[H])C(C([H])([H])[H])(C([H])([H])[H])C([H])([H])[H])C([H])([H])c2c([H])c(OC([H])([H])C([H])([H])[N+]3([H])C([H])([H])C([H])([H])C(C([H])([H])C([H])([H])N([H])C(=O)N4C([H])([H])C([H])([H])C([H])([H])C([H])(n5nc(-c6c([H])c([H])c(Oc7c([H])c([H])c(F)c([H])c7F)c([H])c6[H])c(C(=O)N([H])[H])c5N([H])[H])C4([H])[H])(C([H])([H])C([H])(C([H])([H])[H])C([H])([H])C([H])([H])[H])C([H])([H])C3([H])[H])c([H])c([H])c2C1([H])[H]

$$$$
37:0:0
     RDKit          3D

 94103  0  0  1  0  0  0  0  0999 V2000
  -29.6300  -20.9540   21.8390 C   0  0  0  0  0  2  0  0  0  0  0  0
  -29.3940  -23.4150   21.9460 C   0  0  0  0  0  2  0  0  0  0  0  0
  -27.6680  -22.0140   20.5230 C   0  0  0  0  0  2  0  0  0  0  0  0
  -29.4480  -22.1400   22.8290 C   0  0  0  0  0  3  0  0  0  0  0  0
  -29.0490  -21.3770   20.4960 C   0  0  1  0  0  0  0  0  0  0  0  0
  -28.7460  -23.0380   20.6200 C   0  0  2  0  0  0  0  0  0  0  0  0
  -30.5130  -22.1990   23.9450 C   0  0  0  0  0  0  0  0  0  0  0  0
  -30.1250  -22.5020   25.1810 N   0  0  0  0  0  0  0  0  0  0  0  0
  -31.6930  -21.9450   23.7140 O   0  0  0  0  0  0  0  0  0  0  0  0
  -29.1610  -22.7210   25.4000 H   0  0  0  0  0  0  0  0  0  0  0  0
  -30.8020  -22.5060   25.9340 H   0  0  0  0  0  0  0  0  0  0  0  0
  -28.9370  -20.0430   19.5210 C   0  0  0  0  0  2  0  0  0  0  0  0
  -29.9820  -18.7280   19.3240 C   0  0  0  0  0  2  0  0  0  0  0  0
  -30.1330  -17.3470   20.2650 C   0  0  0  0  0  2  0  0  0  0  0  0
  -30.6630  -14.6870   19.5860 C   0  0  0  0  0  0  0  0  0  0  0  0
  -30.3820  -12.3540   18.6280 C   0  0  0  0  0  2  0  0  0  0  0  0
  -29.3070  -12.3460   17.5160 C   0  0  0  0  0  2  0  0  0  0  0  0
  -27.8940  -12.1950   18.1150 C   0  0  0  0  0  2  0  0  0  0  0  0
  -27.6620  -13.1200   19.3390 C   0  0  0  0  0  3  0  0  0  0  0  0
  -28.8410  -13.0680   20.3330 C   0  0  0  0  0  2  0  0  0  0  0  0
  -30.0410  -13.4440   19.5780 N   0  0  0  0  0  0  0  0  0  0  0  0
  -31.8400  -14.7480   19.2160 O   0  0  0  0  0  0  0  0  0  0  0  0
  -29.8890  -15.8480   19.8330 N   0  0  0  0  0  0  0  0  0  0  0  0
  -28.9250  -15.5860   19.9720 H   0  0  0  0  0  0  0  0  0  0  0  0
  -25.4290  -13.7830   20.3970 C   0  0  0  0  0  0  0  0  0  0  0  0
  -24.3760  -13.0470   20.8610 C   0  0  0  0  0  0  0  0  0  0  0  0
  -24.7490  -11.6770   20.7010 C   0  0  0  0  0  0  0  0  0  0  0  0
  -26.3790  -12.8650   19.9840 N   0  0  0  0  0  0  0  0  0  0  0  0
  -25.9900  -11.5880   20.2280 N   0  0  0  0  0  0  0  0  0  0  0  0
  -23.9760  -10.4470   20.9140 C   0  0  0  0  0  0  0  0  0  0  0  0
  -24.4140   -9.4430   21.8040 C   0  0  0  0  0  3  0  0  0  0  0  0
  -23.6430   -8.2770   22.0060 C   0  0  0  0  0  3  0  0  0  0  0  0
  -22.4180   -8.1080   21.3180 C   0  0  0  0  0  0  0  0  0  0  0  0
  -21.9980   -9.1010   20.4150 C   0  0  0  0  0  3  0  0  0  0  0  0
  -22.7700  -10.2580   20.2120 C   0  0  0  0  0  3  0  0  0  0  0  0
  -21.6150   -7.0010   21.4330 O   0  0  0  0  0  0  0  0  0  0  0  0
  -21.5520   -6.2730   22.5950 C   0  0  0  0  0  0  0  0  0  0  0  0
  -21.1450   -6.8520   23.8170 C   0  0  0  0  0  3  0  0  0  0  0  0
  -21.0290   -6.0530   24.9700 C   0  0  0  0  0  3  0  0  0  0  0  0
  -21.3130   -4.6750   24.9050 C   0  0  0  0  0  0  0  0  0  0  0  0
  -21.7150   -4.0960   23.6890 C   0  0  0  0  0  3  0  0  0  0  0  0
  -21.8320   -4.8930   22.5370 C   0  0  0  0  0  0  0  0  0  0  0  0
  -22.1980   -4.3250   21.3620 F   0  0  0  0  0  0  0  0  0  0  0  0
  -21.1940   -3.9060   26.0120 F   0  0  0  0  0  0  0  0  0  0  0  0
  -23.0520  -13.5800   21.3280 C   0  0  0  0  0  0  0  0  0  0  0  0
  -22.3980  -12.8730   22.2400 N   0  0  0  0  0  0  0  0  0  0  0  0
  -22.6200  -14.6580   20.9200 O   0  0  0  0  0  0  0  0  0  0  0  0
  -22.7640  -11.9990   22.5840 H   0  0  0  0  0  0  0  0  0  0  0  0
  -21.5130  -13.2060   22.5960 H   0  0  0  0  0  0  0  0  0  0  0  0
  -25.6490  -15.1520   20.2630 N   0  0  0  0  0  0  0  0  0  0  0  0
  -24.9240  -15.8280   20.4800 H   0  0  0  0  0  0  0  0  0  0  0  0
  -26.4290  -15.5560   19.7600 H   0  0  0  0  0  0  0  0  0  0  0  0
  -28.4770  -24.4220   19.7390 C   0  0  0  0  0  2  0  0  0  0  0  0
  -28.4660  -25.8680   20.3100 O   0  0  0  0  0  0  0  0  0  0  0  0
  -24.6620  -31.4310   23.1850 C   0  0  0  0  0  0  0  0  0  0  0  0
  -27.4000  -26.8240   20.1650 C   0  0  0  0  0  0  0  0  0  0  0  0
  -23.5560  -30.1030   21.4270 C   0  0  0  0  0  3  0  0  0  0  0  0
  -25.0830  -28.5710   20.0290 C   0  0  0  0  0  0  0  0  0  0  0  0
  -26.1090  -30.3710   21.4100 C   0  0  0  0  0  2  0  0  0  0  0  0
  -26.2210  -28.9940   20.7310 C   0  0  0  0  0  0  0  0  0  0  0  0
  -27.3730  -28.1350   20.7880 C   0  0  0  0  0  3  0  0  0  0  0  0
  -26.2480  -26.5070   19.4060 C   0  0  0  0  0  3  0  0  0  0  0  0
  -25.1120  -27.3420   19.3500 C   0  0  0  0  0  3  0  0  0  0  0  0
  -23.8520  -29.4690   20.0380 C   0  0  0  0  0  2  0  0  0  0  0  0
  -24.7940  -30.6560   22.0640 N   0  0  0  0  0  0  0  0  0  0  0  0
  -23.5510  -31.7010   23.6620 O   0  0  0  0  0  0  0  0  0  0  0  0
  -22.8150  -29.0700   22.3100 C   0  0  0  0  0  0  0  0  0  0  0  0
  -21.4850  -28.9570   22.1390 N   0  0  0  0  0  0  0  0  0  0  0  0
  -23.4380  -28.3670   23.1100 O   0  0  0  0  0  0  0  0  0  0  0  0
  -21.0390  -29.5820   21.4830 H   0  0  0  0  0  0  0  0  0  0  0  0
  -18.0330  -27.9400   22.5700 C   0  0  0  0  0  0  0  0  0  0  0  0
  -20.6070  -28.0070   22.8330 C   0  0  0  0  0  3  0  0  0  0  0  0
  -20.6110  -26.6290   22.1330 C   0  0  0  0  0  2  0  0  0  0  0  0
  -19.4890  -26.4740   21.1030 C   0  0  0  0  0  2  0  0  0  0  0  0
  -18.1200  -26.6480   21.7710 C   0  0  0  0  0  2  0  0  0  0  0  0
  -19.2030  -28.5860   23.0540 C   0  0  0  0  0  0  0  0  0  0  0  0
  -19.0700  -29.7980   23.7630 C   0  0  0  0  0  3  0  0  0  0  0  0
  -17.8030  -30.3650   23.9930 C   0  0  0  0  0  3  0  0  0  0  0  0
  -16.6490  -29.7170   23.5230 C   0  0  0  0  0  3  0  0  0  0  0  0
  -16.7650  -28.5060   22.8190 C   0  0  0  0  0  3  0  0  0  0  0  0
  -25.9030  -32.0390   23.9090 C   0  0  0  0  0  3  0  0  0  0  0  0
  -25.6060  -33.4490   24.2010 N   0  0  0  0  0  0  0  0  0  0  0  0
  -26.0140  -34.4840   23.4520 C   0  0  0  0  0  0  0  0  0  0  0  0
  -26.7400  -34.3470   22.4630 O   0  0  0  0  0  0  0  0  0  0  0  0
  -24.9640  -33.6290   24.9580 H   0  0  0  0  0  0  0  0  0  0  0  0
  -24.3360  -36.3120   22.9990 C   0  0  0  0  0  1  0  0  0  0  0  0
  -25.5410  -35.8950   23.8600 C   0  0  0  0  0  3  0  0  0  0  0  0
  -27.6580  -36.7580   24.7600 C   0  0  0  0  0  1  0  0  0  0  0  0
  -26.6010  -36.9240   23.7650 N   0  0  0  0  0  0  0  0  0  0  0  0
  -26.2080  -37.8550   23.8760 H   0  0  0  0  0  0  0  0  0  0  0  0
  -26.2760  -31.2680   25.2330 C   0  0  1  0  0  0  0  0  0  0  0  0
  -25.0850  -31.0800   26.2030 C   0  0  0  0  0  1  0  0  0  0  0  0
  -26.8400  -29.8670   24.9040 C   0  0  0  0  0  1  0  0  0  0  0  0
  -27.3980  -32.0280   25.9810 C   0  0  0  0  0  1  0  0  0  0  0  0
  1  4  1  0
  2  4  1  0
  3  6  1  0
  4  7  1  0
  5 12  1  6
  5  3  1  0
  5  6  1  0
  5  1  1  0
  6 53  1  6
  6  2  1  0
  7  8  1  0
  8 10  1  0
  8 11  1  0
  9  7  2  0
 13 12  1  0
 13 14  1  0
 15 23  1  0
 16 21  1  0
 17 18  1  0
 17 16  1  0
 19 18  1  0
 19 28  1  0
 19 20  1  0
 21 15  1  0
 21 20  1  0
 22 15  2  0
 23 24  1  0
 23 14  1  0
 25 26  2  0
 26 45  1  0
 27 26  1  0
 27 30  1  0
 28 29  1  0
 28 25  1  0
 29 27  2  0
 30 31  1  0
 31 32  2  0
 33 36  1  0
 33 32  1  0
 34 33  2  0
 35 34  1  0
 35 30  2  0
 36 37  1  0
 37 38  1  0
 38 39  2  0
 40 39  1  0
 40 44  1  0
 41 40  2  0
 42 37  2  0
 42 41  1  0
 43 42  1  0
 45 46  1  0
 46 48  1  0
 46 49  1  0
 47 45  2  0
 50 25  1  0
 50 51  1  0
 52 50  1  0
 53 54  1  0
 55 66  2  0
 56 54  1  0
 56 61  1  0
 57 65  1  0
 57 67  1  0
 58 64  1  0
 58 60  1  0
 59 65  1  0
 60 61  2  0
 60 59  1  0
 62 56  2  0
 63 62  1  0
 63 58  2  0
 64 57  1  0
 65 55  1  0
 67 69  2  0
 68 67  1  0
 70 68  1  0
 71 80  2  0
 71 76  1  0
 72 68  1  0
 72 76  1  0
 73 72  1  0
 74 75  1  0
 74 73  1  0
 75 71  1  0
 76 77  2  0
 77 78  1  0
 79 78  2  0
 80 79  1  0
 81 55  1  0
 81 82  1  0
 81 91  1  0
 82 85  1  0
 83 87  1  0
 83 82  1  0
 84 83  2  0
 87 86  1  0
 89 87  1  0
 89 90  1  0
 89 88  1  0
 91 94  1  1
 91 92  1  0
 93 91  1  0
M  ISO  4  15 100  23 100  53 101  54 101
M  END
>  <TORSDO>  (37) 
F 21

>  <SCORE>  (37) 
-12.236

>  <name>  (37) 
37

>  <ligand_id>  (37) 
37

>  <original_smiles>  (37) 
[H]c1c([H])c([H])c2c(c1[H])C([H])([H])C([H])([H])C([H])([H])C2([H])N([H])C(=O)C1([H])N(C(=O)C([H])(N([H])C(=O)C([H])(N([H])C([H])([H])[H])C([H])([H])[H])C(C([H])([H])[H])(C([H])([H])[H])C([H])([H])[H])C([H])([H])c2c([H])c(OC([H])([H])C34C([H])([H])C([H])(C(=O)N([H])[H])C([H])([H])C3(C([H])([H])C([H])([H])C([H])([H])N([H])C(=O)N3C([H])([H])C([H])([H])C([H])([H])C([H])(n5nc(-c6c([H])c([H])c(Oc7c([H])c([H])c(F)c([H])c7F)c([H])c6[H])c(C(=O)N([H])[H])c5N([H])[H])C3([H])[H])C4([H])[H])c([H])c([H])c2C1([H])[H]

>  <smiles>  (37) 
[H]c1c([H])c([H])c2c(c1[H])C([H])([H])C([H])([H])C([H])([H])C2([H])N([H])C(=O)C1([H])N(C(=O)C([H])(N([H])C(=O)C([H])(N([H])C([H])([H])[H])C([H])([H])[H])C(C([H])([H])[H])(C([H])([H])[H])C([H])([H])[H])C([H])([H])c2c([H])c(OC([H])([H])C34C([H])([H])C([H])(C(=O)N([H])[H])C([H])([H])C3(C([H])([H])C([H])([H])C([H])([H])N([H])C(=O)N3C([H])([H])C([H])([H])C([H])([H])C([H])(n5nc(-c6c([H])c([H])c(Oc7c([H])c([H])c(F)c([H])c7F)c([H])c6[H])c(C(=O)N([H])[H])c5N([H])[H])C3([H])[H])C4([H])[H])c([H])c([H])c2C1([H])[H]

$$$$
38:0:0
     RDKit          3D

 91100  0  0  1  0  0  0  0  0999 V2000
  -30.7640  -14.5670   20.4260 C   0  0  0  0  0  0  0  0  0  0  0  0
  -30.4560  -12.2960   19.5020 C   0  0  0  0  0  2  0  0  0  0  0  0
  -29.5710  -12.3930   18.2430 C   0  0  0  0  0  2  0  0  0  0  0  0
  -28.0790  -12.2990   18.6260 C   0  0  0  0  0  2  0  0  0  0  0  0
  -27.6970  -13.2300   19.8100 C   0  0  0  0  0  3  0  0  0  0  0  0
  -28.7240  -13.1590   20.9630 C   0  0  0  0  0  2  0  0  0  0  0  0
  -30.0530  -13.4000   20.3910 N   0  0  0  0  0  0  0  0  0  0  0  0
  -31.9600  -14.5980   20.1190 O   0  0  0  0  0  0  0  0  0  0  0  0
  -28.5860  -20.0310   20.4480 C   0  0  0  0  0  0  0  0  0  0  0  0
  -30.8980  -19.5960   20.1260 C   0  0  0  0  0  2  0  0  0  0  0  0
  -29.5940  -17.9720   21.6830 C   0  0  0  0  0  2  0  0  0  0  0  0
  -29.2040  -17.8400   19.2530 C   0  0  0  0  0  2  0  0  0  0  0  0
  -30.5230  -21.0380   19.7020 C   0  0  0  0  0  2  0  0  0  0  0  0
  -30.4640  -16.6800   21.5890 C   0  0  0  0  0  2  0  0  0  0  0  0
  -30.0360  -16.5200   19.2300 C   0  0  0  0  0  2  0  0  0  0  0  0
  -29.5790  -18.8340   20.3860 C   0  0  1  0  0  0  0  0  0  0  0  0
  -29.1320  -21.2200   20.0880 N   0  0  0  0  0  0  0  0  0  0  0  0
  -30.0740  -15.7520   20.5020 N   0  0  0  0  0  0  0  0  0  0  0  0
  -27.4020  -19.8800   20.7670 O   0  0  0  0  0  0  0  0  0  0  0  0
  -25.3020  -13.8770   20.4750 C   0  0  0  0  0  0  0  0  0  0  0  0
  -24.2120  -13.1300   20.8280 C   0  0  0  0  0  0  0  0  0  0  0  0
  -24.6460  -11.7680   20.8170 C   0  0  0  0  0  0  0  0  0  0  0  0
  -26.3340  -12.9750   20.2730 N   0  0  0  0  0  0  0  0  0  0  0  0
  -25.9420  -11.7010   20.5370 N   0  0  0  0  0  0  0  0  0  0  0  0
  -23.8870  -10.5230   21.0050 C   0  0  0  0  0  0  0  0  0  0  0  0
  -24.3020   -9.5370   21.9300 C   0  0  0  0  0  3  0  0  0  0  0  0
  -23.5460   -8.3570   22.1060 C   0  0  0  0  0  3  0  0  0  0  0  0
  -22.3620   -8.1550   21.3570 C   0  0  0  0  0  0  0  0  0  0  0  0
  -21.9660   -9.1280   20.4230 C   0  0  0  0  0  3  0  0  0  0  0  0
  -22.7220  -10.2990   20.2460 C   0  0  0  0  0  3  0  0  0  0  0  0
  -21.5800   -7.0270   21.4410 O   0  0  0  0  0  0  0  0  0  0  0  0
  -21.5390   -6.2620   22.5780 C   0  0  0  0  0  0  0  0  0  0  0  0
  -21.1820   -6.8080   23.8300 C   0  0  0  0  0  3  0  0  0  0  0  0
  -21.0890   -5.9710   24.9610 C   0  0  0  0  0  3  0  0  0  0  0  0
  -21.3390   -4.5920   24.8400 C   0  0  0  0  0  0  0  0  0  0  0  0
  -21.6890   -4.0460   23.5920 C   0  0  0  0  0  3  0  0  0  0  0  0
  -21.7860   -4.8780   22.4630 C   0  0  0  0  0  0  0  0  0  0  0  0
  -22.1040   -4.3450   21.2590 F   0  0  0  0  0  0  0  0  0  0  0  0
  -21.2400   -3.7870   25.9240 F   0  0  0  0  0  0  0  0  0  0  0  0
  -22.8200  -13.6380   21.0660 C   0  0  0  0  0  0  0  0  0  0  0  0
  -22.0650  -12.9710   21.9320 N   0  0  0  0  0  0  0  0  0  0  0  0
  -22.4090  -14.6590   20.5170 O   0  0  0  0  0  0  0  0  0  0  0  0
  -22.4090  -12.1470   22.4040 H   0  0  0  0  0  0  0  0  0  0  0  0
  -21.1280  -13.2920   22.1290 H   0  0  0  0  0  0  0  0  0  0  0  0
  -25.5000  -15.2430   20.2890 N   0  0  0  0  0  0  0  0  0  0  0  0
  -24.7550  -15.9210   20.3980 H   0  0  0  0  0  0  0  0  0  0  0  0
  -26.3810  -15.6620   20.0200 H   0  0  0  0  0  0  0  0  0  0  0  0
  -28.3650  -22.4680   19.7900 C   0  0  0  0  0  2  0  0  0  0  0  0
  -29.0680  -23.8850   19.8680 C   0  0  0  0  0  2  0  0  0  0  0  0
  -28.0670  -25.0470   19.5000 C   0  0  0  0  0  2  0  0  0  0  0  0
  -28.3560  -26.4730   19.7280 O   0  0  0  0  0  0  0  0  0  0  0  0
  -24.5580  -31.6230   23.0380 C   0  0  0  0  0  0  0  0  0  0  0  0
  -27.2350  -27.3180   19.7110 C   0  0  0  0  0  0  0  0  0  0  0  0
  -23.3780  -30.3100   21.3150 C   0  0  0  0  0  3  0  0  0  0  0  0
  -24.8490  -28.8840   19.8000 C   0  0  0  0  0  0  0  0  0  0  0  0
  -25.9140  -30.6800   21.1610 C   0  0  0  0  0  2  0  0  0  0  0  0
  -26.0130  -29.3510   20.4260 C   0  0  0  0  0  0  0  0  0  0  0  0
  -27.2110  -28.5800   20.3730 C   0  0  0  0  0  3  0  0  0  0  0  0
  -26.0430  -26.9090   19.0630 C   0  0  0  0  0  3  0  0  0  0  0  0
  -24.8650  -27.6650   19.1140 C   0  0  0  0  0  3  0  0  0  0  0  0
  -23.6020  -29.7320   19.8970 C   0  0  0  0  0  2  0  0  0  0  0  0
  -24.6350  -30.8840   21.8940 N   0  0  0  0  0  0  0  0  0  0  0  0
  -23.4690  -31.8510   23.5850 O   0  0  0  0  0  0  0  0  0  0  0  0
  -22.7350  -29.2200   22.2070 C   0  0  0  0  0  0  0  0  0  0  0  0
  -21.4050  -29.0570   22.0990 N   0  0  0  0  0  0  0  0  0  0  0  0
  -23.4300  -28.5300   22.9570 O   0  0  0  0  0  0  0  0  0  0  0  0
  -20.9020  -29.6700   21.4710 H   0  0  0  0  0  0  0  0  0  0  0  0
  -18.0300  -27.8700   22.6200 C   0  0  0  0  0  0  0  0  0  0  0  0
  -20.5990  -28.0690   22.8180 C   0  0  0  0  0  3  0  0  0  0  0  0
  -20.6560  -26.6890   22.1220 C   0  0  0  0  0  2  0  0  0  0  0  0
  -19.5160  -26.4660   21.1250 C   0  0  0  0  0  2  0  0  0  0  0  0
  -18.1590  -26.5790   21.8280 C   0  0  0  0  0  2  0  0  0  0  0  0
  -19.1750  -28.5780   23.0700 C   0  0  0  0  0  0  0  0  0  0  0  0
  -18.9980  -29.7910   23.7700 C   0  0  0  0  0  3  0  0  0  0  0  0
  -17.7090  -30.2960   24.0230 C   0  0  0  0  0  3  0  0  0  0  0  0
  -16.5780  -29.5830   23.5890 C   0  0  0  0  0  3  0  0  0  0  0  0
  -16.7390  -28.3710   22.8930 C   0  0  0  0  0  3  0  0  0  0  0  0
  -25.8320  -32.2390   23.6960 C   0  0  0  0  0  3  0  0  0  0  0  0
  -25.4920  -33.6030   24.1250 N   0  0  0  0  0  0  0  0  0  0  0  0
  -25.7820  -34.7140   23.4320 C   0  0  0  0  0  0  0  0  0  0  0  0
  -26.4310  -34.6970   22.3840 O   0  0  0  0  0  0  0  0  0  0  0  0
  -24.9140  -33.6880   24.9480 H   0  0  0  0  0  0  0  0  0  0  0  0
  -23.9890  -36.4700   23.2420 C   0  0  0  0  0  1  0  0  0  0  0  0
  -25.2650  -36.0530   23.9910 C   0  0  0  0  0  3  0  0  0  0  0  0
  -27.3990  -36.9490   24.8130 C   0  0  0  0  0  1  0  0  0  0  0  0
  -26.2610  -37.1450   23.9190 N   0  0  0  0  0  0  0  0  0  0  0  0
  -25.8320  -38.0380   24.1440 H   0  0  0  0  0  0  0  0  0  0  0  0
  -26.3710  -31.3940   24.9150 C   0  0  1  0  0  0  0  0  0  0  0  0
  -25.2930  -31.0660   25.9740 C   0  0  0  0  0  1  0  0  0  0  0  0
  -26.9780  -30.0560   24.4310 C   0  0  0  0  0  1  0  0  0  0  0  0
  -27.5100  -32.1660   25.6230 C   0  0  0  0  0  1  0  0  0  0  0  0
  1 18  1  0
  2  7  1  0
  3  4  1  0
  3  2  1  0
  5  4  1  0
  5 23  1  0
  5  6  1  0
  7  1  1  0
  7  6  1  0
  8  1  2  0
  9 19  2  0
 16 10  1  6
 13 17  1  0
 13 10  1  0
 14 11  1  0
 15 12  1  0
 15 18  1  0
 16 12  1  0
 16  9  1  0
 16 11  1  0
 17  9  1  0
 18 14  1  0
 20 21  2  0
 21 40  1  0
 22 21  1  0
 22 25  1  0
 23 20  1  0
 23 24  1  0
 24 22  2  0
 25 26  1  0
 26 27  2  0
 28 31  1  0
 28 27  1  0
 29 28  2  0
 30 29  1  0
 30 25  2  0
 31 32  1  0
 32 33  1  0
 33 34  2  0
 35 34  1  0
 35 39  1  0
 36 35  2  0
 37 32  2  0
 37 36  1  0
 38 37  1  0
 40 41  1  0
 41 44  1  0
 41 43  1  0
 42 40  2  0
 45 46  1  0
 45 20  1  0
 47 45  1  0
 48 49  1  0
 48 17  1  0
 50 51  1  0
 50 49  1  0
 52 63  2  0
 53 51  1  0
 53 58  1  0
 54 62  1  0
 54 64  1  0
 55 61  1  0
 55 57  1  0
 56 62  1  0
 57 56  1  0
 58 57  2  0
 59 60  1  0
 59 53  2  0
 60 55  2  0
 61 54  1  0
 62 52  1  0
 64 66  2  0
 65 64  1  0
 67 65  1  0
 68 77  2  0
 68 73  1  0
 69 65  1  0
 69 73  1  0
 70 69  1  0
 71 72  1  0
 71 70  1  0
 72 68  1  0
 73 74  2  0
 74 75  1  0
 76 75  2  0
 77 76  1  0
 78 52  1  0
 78 79  1  0
 78 88  1  0
 79 82  1  0
 80 84  1  0
 80 79  1  0
 81 80  2  0
 84 83  1  0
 86 84  1  0
 86 87  1  0
 86 85  1  0
 88 91  1  1
 88 89  1  0
 90 88  1  0
M  ISO  4   1 100  18 100  50 101  51 101
M  END
>  <TORSDO>  (38) 
F 18

>  <SCORE>  (38) 
-13.567

>  <name>  (38) 
38

>  <ligand_id>  (38) 
38

>  <original_smiles>  (38) 
[H]c1c([H])c([H])c2c(c1[H])C([H])([H])C([H])([H])C([H])([H])C2([H])N([H])C(=O)C1([H])N(C(=O)C([H])(N([H])C(=O)C([H])(N([H])C([H])([H])[H])C([H])([H])[H])C(C([H])([H])[H])(C([H])([H])[H])C([H])([H])[H])C([H])([H])c2c([H])c(OC([H])([H])C([H])([H])C([H])([H])N3C(=O)C4(C([H])([H])C3([H])[H])C([H])([H])C([H])([H])N(C(=O)N3C([H])([H])C([H])([H])C([H])([H])C([H])(n5nc(-c6c([H])c([H])c(Oc7c([H])c([H])c(F)c([H])c7F)c([H])c6[H])c(C(=O)N([H])[H])c5N([H])[H])C3([H])[H])C([H])([H])C4([H])[H])c([H])c([H])c2C1([H])[H]

>  <smiles>  (38) 
[H]c1c([H])c([H])c2c(c1[H])C([H])([H])C([H])([H])C([H])([H])C2([H])N([H])C(=O)C1([H])N(C(=O)C([H])(N([H])C(=O)C([H])(N([H])C([H])([H])[H])C([H])([H])[H])C(C([H])([H])[H])(C([H])([H])[H])C([H])([H])[H])C([H])([H])c2c([H])c(OC([H])([H])C([H])([H])C([H])([H])N3C(=O)C4(C([H])([H])C3([H])[H])C([H])([H])C([H])([H])N(C(=O)N3C([H])([H])C([H])([H])C([H])([H])C([H])(n5nc(-c6c([H])c([H])c(Oc7c([H])c([H])c(F)c([H])c7F)c([H])c6[H])c(C(=O)N([H])[H])c5N([H])[H])C3([H])[H])C([H])([H])C4([H])[H])c([H])c([H])c2C1([H])[H]

$$$$
39:0:0
     RDKit          3D

 92101  0  0  1  0  0  0  0  0999 V2000
  -30.0200  -22.7110   19.6640 C   0  0  0  0  0  2  0  0  0  0  0  0
  -30.8240  -20.0360   19.7810 C   0  0  0  0  0  2  0  0  0  0  0  0
  -27.8750  -21.8530   20.3810 C   0  0  0  0  0  2  0  0  0  0  0  0
  -28.6410  -19.1990   19.9490 C   0  0  0  0  0  3  0  0  0  0  0  0
  -29.9260  -21.1960   19.2000 C   0  0  0  0  0  3  0  0  0  0  0  0
  -28.5150  -20.7270   19.4750 C   0  0  0  0  0  3  0  0  0  0  0  0
  -28.6750  -23.2250   20.3070 C   0  0  0  0  0  3  0  0  0  0  0  0
  -30.0740  -18.6690   19.5290 C   0  0  0  0  0  3  0  0  0  0  0  0
  -27.5100  -18.3200   19.3940 C   0  0  0  0  0  0  0  0  0  0  0  0
  -26.0750  -18.7440   19.6760 C   0  0  0  0  0  1  0  0  0  0  0  0
  -27.7430  -17.3030   18.7350 O   0  0  0  0  0  0  0  0  0  0  0  0
  -30.7480  -17.3140   20.1780 C   0  0  0  0  0  2  0  0  0  0  0  0
  -30.8770  -14.6730   19.9030 C   0  0  0  0  0  0  0  0  0  0  0  0
  -30.5460  -12.3610   18.9800 C   0  0  0  0  0  2  0  0  0  0  0  0
  -29.5670  -12.4060   17.7850 C   0  0  0  0  0  2  0  0  0  0  0  0
  -28.1100  -12.3070   18.2770 C   0  0  0  0  0  2  0  0  0  0  0  0
  -27.8110  -13.2580   19.4670 C   0  0  0  0  0  3  0  0  0  0  0  0
  -28.9080  -13.1900   20.5490 C   0  0  0  0  0  2  0  0  0  0  0  0
  -30.1840  -13.4790   19.8850 N   0  0  0  0  0  0  0  0  0  0  0  0
  -32.0720  -14.6750   19.5930 O   0  0  0  0  0  0  0  0  0  0  0  0
  -30.1880  -15.8780   20.0670 N   0  0  0  0  0  0  0  0  0  0  0  0
  -29.1890  -15.7930   20.1900 H   0  0  0  0  0  0  0  0  0  0  0  0
  -25.4890  -13.9600   20.2960 C   0  0  0  0  0  0  0  0  0  0  0  0
  -24.4020  -13.2410   20.7030 C   0  0  0  0  0  0  0  0  0  0  0  0
  -24.7940  -11.8680   20.6480 C   0  0  0  0  0  0  0  0  0  0  0  0
  -26.4780  -13.0330   20.0150 N   0  0  0  0  0  0  0  0  0  0  0  0
  -26.0690  -11.7670   20.2900 N   0  0  0  0  0  0  0  0  0  0  0  0
  -24.0070  -10.6460   20.8580 C   0  0  0  0  0  0  0  0  0  0  0  0
  -24.4060   -9.6600   21.7860 C   0  0  0  0  0  3  0  0  0  0  0  0
  -23.6210   -8.5030   21.9830 C   0  0  0  0  0  3  0  0  0  0  0  0
  -22.4210   -8.3270   21.2540 C   0  0  0  0  0  0  0  0  0  0  0  0
  -22.0400   -9.3020   20.3130 C   0  0  0  0  0  3  0  0  0  0  0  0
  -22.8250  -10.4490   20.1140 C   0  0  0  0  0  3  0  0  0  0  0  0
  -21.6110   -7.2220   21.3600 O   0  0  0  0  0  0  0  0  0  0  0  0
  -21.5270   -6.5020   22.5240 C   0  0  0  0  0  0  0  0  0  0  0  0
  -21.1330   -7.0970   23.7430 C   0  0  0  0  0  3  0  0  0  0  0  0
  -20.9920   -6.3050   24.9010 C   0  0  0  0  0  3  0  0  0  0  0  0
  -21.2370   -4.9200   24.8410 C   0  0  0  0  0  0  0  0  0  0  0  0
  -21.6240   -4.3240   23.6270 C   0  0  0  0  0  3  0  0  0  0  0  0
  -21.7650   -5.1140   22.4720 C   0  0  0  0  0  0  0  0  0  0  0  0
  -22.1160   -4.5310   21.3010 F   0  0  0  0  0  0  0  0  0  0  0  0
  -21.0950   -4.1570   25.9520 F   0  0  0  0  0  0  0  0  0  0  0  0
  -23.0440  -13.7900   21.0290 C   0  0  0  0  0  0  0  0  0  0  0  0
  -22.3200  -13.1380   21.9330 N   0  0  0  0  0  0  0  0  0  0  0  0
  -22.6400  -14.8370   20.5220 O   0  0  0  0  0  0  0  0  0  0  0  0
  -22.6670  -12.2940   22.3640 H   0  0  0  0  0  0  0  0  0  0  0  0
  -21.4110  -13.4870   22.2010 H   0  0  0  0  0  0  0  0  0  0  0  0
  -25.7020  -15.3240   20.1200 N   0  0  0  0  0  0  0  0  0  0  0  0
  -24.9470  -15.9860   20.2460 H   0  0  0  0  0  0  0  0  0  0  0  0
  -26.5490  -15.7710   19.7810 H   0  0  0  0  0  0  0  0  0  0  0  0
  -27.8920  -24.5370   19.6980 C   0  0  0  0  0  2  0  0  0  0  0  0
  -28.1930  -26.0130   19.9280 O   0  0  0  0  0  0  0  0  0  0  0  0
  -24.5190  -31.5420   22.9560 C   0  0  0  0  0  0  0  0  0  0  0  0
  -27.1220  -26.9520   19.8540 C   0  0  0  0  0  0  0  0  0  0  0  0
  -23.3160  -30.1510   21.3120 C   0  0  0  0  0  3  0  0  0  0  0  0
  -24.7700  -28.6220   19.8580 C   0  0  0  0  0  0  0  0  0  0  0  0
  -25.8620  -30.4660   21.1240 C   0  0  0  0  0  2  0  0  0  0  0  0
  -25.9450  -29.0890   20.4590 C   0  0  0  0  0  0  0  0  0  0  0  0
  -27.1240  -28.2670   20.4480 C   0  0  0  0  0  3  0  0  0  0  0  0
  -25.9250  -26.5800   19.2000 C   0  0  0  0  0  3  0  0  0  0  0  0
  -24.7680  -27.3780   19.2150 C   0  0  0  0  0  3  0  0  0  0  0  0
  -23.5280  -29.4920   19.9240 C   0  0  0  0  0  2  0  0  0  0  0  0
  -24.5850  -30.7380   21.8530 N   0  0  0  0  0  0  0  0  0  0  0  0
  -23.4350  -31.8070   23.4950 O   0  0  0  0  0  0  0  0  0  0  0  0
  -22.6640  -29.1190   22.2670 C   0  0  0  0  0  0  0  0  0  0  0  0
  -21.3340  -28.9550   22.1660 N   0  0  0  0  0  0  0  0  0  0  0  0
  -23.3530  -28.4730   23.0610 O   0  0  0  0  0  0  0  0  0  0  0  0
  -20.8370  -29.5300   21.5000 H   0  0  0  0  0  0  0  0  0  0  0  0
  -17.9580  -27.7690   22.7180 C   0  0  0  0  0  0  0  0  0  0  0  0
  -20.5240  -28.0070   22.9340 C   0  0  0  0  0  3  0  0  0  0  0  0
  -20.6020  -26.5860   22.3290 C   0  0  0  0  0  2  0  0  0  0  0  0
  -19.4750  -26.2900   21.3340 C   0  0  0  0  0  2  0  0  0  0  0  0
  -18.1090  -26.4320   22.0110 C   0  0  0  0  0  2  0  0  0  0  0  0
  -19.0920  -28.5150   23.1370 C   0  0  0  0  0  0  0  0  0  0  0  0
  -18.8940  -29.7660   23.7620 C   0  0  0  0  0  3  0  0  0  0  0  0
  -17.5980  -30.2740   23.9660 C   0  0  0  0  0  3  0  0  0  0  0  0
  -16.4780  -29.5230   23.5630 C   0  0  0  0  0  3  0  0  0  0  0  0
  -16.6600  -28.2720   22.9470 C   0  0  0  0  0  3  0  0  0  0  0  0
  -25.7970  -32.1800   23.5790 C   0  0  0  0  0  3  0  0  0  0  0  0
  -26.3710  -31.3590   24.8010 C   0  0  1  0  0  0  0  0  0  0  0  0
  -25.3120  -31.0350   25.8820 C   0  0  0  0  0  1  0  0  0  0  0  0
  -26.9820  -30.0200   24.3230 C   0  0  0  0  0  1  0  0  0  0  0  0
  -27.5170  -32.1530   25.4730 C   0  0  0  0  0  1  0  0  0  0  0  0
  -25.4530  -33.5470   23.9950 N   0  0  0  0  0  0  0  0  0  0  0  0
  -25.7660  -34.6550   23.3120 C   0  0  0  0  0  0  0  0  0  0  0  0
  -26.4420  -34.6350   22.2800 O   0  0  0  0  0  0  0  0  0  0  0  0
  -24.8540  -33.6350   24.8020 H   0  0  0  0  0  0  0  0  0  0  0  0
  -23.9950  -36.4280   23.0760 C   0  0  0  0  0  1  0  0  0  0  0  0
  -25.2470  -35.9980   23.8590 C   0  0  0  0  0  3  0  0  0  0  0  0
  -27.3610  -36.8790   24.7450 C   0  0  0  0  0  1  0  0  0  0  0  0
  -26.2530  -37.0810   23.8140 N   0  0  0  0  0  0  0  0  0  0  0  0
  -25.8270  -37.9810   24.0180 H   0  0  0  0  0  0  0  0  0  0  0  0
  1  7  1  0
  4  9  1  0
  5  6  1  0
  5  1  1  0
  5  2  1  0
  6  4  1  0
  6  3  1  0
  7 51  1  0
  7  3  1  0
  8  2  1  0
  8  4  1  0
  8 12  1  0
  9 10  1  0
 11  9  2  0
 13 21  1  0
 14 19  1  0
 15 16  1  0
 15 14  1  0
 17 16  1  0
 17 26  1  0
 17 18  1  0
 19 13  1  0
 19 18  1  0
 20 13  2  0
 21 12  1  0
 21 22  1  0
 23 24  2  0
 24 43  1  0
 25 24  1  0
 25 28  1  0
 26 27  1  0
 26 23  1  0
 27 25  2  0
 28 29  1  0
 29 30  2  0
 31 34  1  0
 31 30  1  0
 32 31  2  0
 33 32  1  0
 33 28  2  0
 34 35  1  0
 35 36  1  0
 36 37  2  0
 38 37  1  0
 38 42  1  0
 39 38  2  0
 40 35  2  0
 40 39  1  0
 41 40  1  0
 43 44  1  0
 44 47  1  0
 44 46  1  0
 45 43  2  0
 48 49  1  0
 48 23  1  0
 50 48  1  0
 51 52  1  0
 53 64  2  0
 54 52  1  0
 54 59  1  0
 55 63  1  0
 55 65  1  0
 56 62  1  0
 56 58  1  0
 57 63  1  0
 58 57  1  0
 59 58  2  0
 60 61  1  0
 60 54  2  0
 61 56  2  0
 62 55  1  0
 63 53  1  0
 65 67  2  0
 66 65  1  0
 68 66  1  0
 69 78  2  0
 69 74  1  0
 70 66  1  0
 70 74  1  0
 71 70  1  0
 72 73  1  0
 72 71  1  0
 73 69  1  0
 74 75  2  0
 75 76  1  0
 77 76  2  0
 78 77  1  0
 79 53  1  0
 79 84  1  0
 79 80  1  0
 80 83  1  1
 80 81  1  0
 82 80  1  0
 84 87  1  0
 85 89  1  0
 85 84  1  0
 86 85  2  0
 89 88  1  0
 91 89  1  0
 91 92  1  0
 91 90  1  0
M  ISO  4  13 100  21 100  51 101  52 101
M  END
>  <TORSDO>  (39) 
F 19

>  <SCORE>  (39) 
-13.252

>  <name>  (39) 
39

>  <ligand_id>  (39) 
39

>  <original_smiles>  (39) 
[H]c1c([H])c([H])c2c(c1[H])C([H])([H])C([H])([H])C([H])([H])C2([H])N([H])C(=O)C1([H])N(C(=O)C([H])(N([H])C(=O)C([H])(N([H])C([H])([H])[H])C([H])([H])[H])C(C([H])([H])[H])(C([H])([H])[H])C([H])([H])[H])C([H])([H])c2c([H])c(OC([H])([H])C3([H])C([H])([H])C4([H])C([H])([H])C([H])(C([H])([H])N([H])C(=O)N5C([H])([H])C([H])([H])C([H])([H])C([H])(n6nc(-c7c([H])c([H])c(Oc8c([H])c([H])c(F)c([H])c8F)c([H])c7[H])c(C(=O)N([H])[H])c6N([H])[H])C5([H])[H])C([H])(C(=O)C([H])([H])[H])C4([H])C3([H])[H])c([H])c([H])c2C1([H])[H]

>  <smiles>  (39) 
[H]c1c([H])c([H])c2c(c1[H])C([H])([H])C([H])([H])C([H])([H])C2([H])N([H])C(=O)C1([H])N(C(=O)C([H])(N([H])C(=O)C([H])(N([H])C([H])([H])[H])C([H])([H])[H])C(C([H])([H])[H])(C([H])([H])[H])C([H])([H])[H])C([H])([H])c2c([H])c(OC([H])([H])C3([H])C([H])([H])C4([H])C([H])([H])C([H])(C([H])([H])N([H])C(=O)N5C([H])([H])C([H])([H])C([H])([H])C([H])(n6nc(-c7c([H])c([H])c(Oc8c([H])c([H])c(F)c([H])c8F)c([H])c7[H])c(C(=O)N([H])[H])c6N([H])[H])C5([H])[H])C([H])(C(=O)C([H])([H])[H])C4([H])C3([H])[H])c([H])c([H])c2C1([H])[H]

$$$$
40:0:0
     RDKit          3D

 95104  0  0  1  0  0  0  0  0999 V2000
  -30.0390  -22.2730   22.5620 C   0  0  0  0  0  2  0  0  0  0  0  0
  -30.5930  -20.9720   23.1560 C   0  0  0  0  0  2  0  0  0  0  0  0
  -30.7730  -20.8760   20.6700 C   0  0  0  0  0  3  0  0  0  0  0  0
  -29.8690  -19.6730   21.0200 C   0  0  0  0  0  3  0  0  0  0  0  0
  -30.6280  -22.3440   21.1400 C   0  0  0  0  0  3  0  0  0  0  0  0
  -30.9760  -20.1060   21.9660 C   0  0  2  0  0  0  0  0  0  0  0  0
  -32.3170  -19.4170   22.1780 C   0  0  0  0  0  1  0  0  0  0  0  0
  -29.9180  -23.3130   20.2470 N   0  0  0  0  0  4  0  0  0  0  0  0
  -28.9580  -23.0100   20.1860 H   0  0  0  0  0  0  0  0  0  0  0  0
  -30.3060  -23.2210   19.3200 H   0  0  0  0  0  0  0  0  0  0  0  0
  -31.3600  -25.3810   20.4190 C   0  0  0  0  0  1  0  0  0  0  0  0
  -29.9620  -24.7660   20.6600 C   0  0  0  0  0  3  0  0  0  0  0  0
  -28.8560  -25.6290   19.9670 C   0  0  0  0  0  2  0  0  0  0  0  0
  -28.8410  -27.0160   20.3970 O   0  0  0  0  0  0  0  0  0  0  0  0
  -24.6790  -31.9850   23.3840 C   0  0  0  0  0  0  0  0  0  0  0  0
  -27.6430  -27.7150   20.3180 C   0  0  0  0  0  0  0  0  0  0  0  0
  -23.6040  -30.5750   21.6610 C   0  0  0  0  0  3  0  0  0  0  0  0
  -25.1810  -29.1380   20.2620 C   0  0  0  0  0  0  0  0  0  0  0  0
  -26.1220  -31.0420   21.5770 C   0  0  0  0  0  2  0  0  0  0  0  0
  -26.2930  -29.6900   20.9110 C   0  0  0  0  0  0  0  0  0  0  0  0
  -27.5260  -28.9900   20.9310 C   0  0  0  0  0  3  0  0  0  0  0  0
  -26.5110  -27.1930   19.6470 C   0  0  0  0  0  3  0  0  0  0  0  0
  -25.2880  -27.8910   19.6260 C   0  0  0  0  0  3  0  0  0  0  0  0
  -23.8970  -29.9440   20.2760 C   0  0  0  0  0  2  0  0  0  0  0  0
  -24.8170  -31.2160   22.2670 N   0  0  0  0  0  0  0  0  0  0  0  0
  -23.5640  -32.1910   23.8880 O   0  0  0  0  0  0  0  0  0  0  0  0
  -22.9580  -29.5040   22.5710 C   0  0  0  0  0  0  0  0  0  0  0  0
  -21.6520  -29.2530   22.3770 N   0  0  0  0  0  0  0  0  0  0  0  0
  -23.6330  -28.8980   23.4090 O   0  0  0  0  0  0  0  0  0  0  0  0
  -21.1660  -29.7970   21.6780 H   0  0  0  0  0  0  0  0  0  0  0  0
  -18.3290  -27.8680   22.6830 C   0  0  0  0  0  0  0  0  0  0  0  0
  -20.8510  -28.2590   23.0910 C   0  0  0  0  0  3  0  0  0  0  0  0
  -21.0630  -26.8450   22.4990 C   0  0  0  0  0  2  0  0  0  0  0  0
  -20.0320  -26.4820   21.4250 C   0  0  0  0  0  2  0  0  0  0  0  0
  -18.6130  -26.5430   21.9960 C   0  0  0  0  0  2  0  0  0  0  0  0
  -19.3810  -28.6810   23.1830 C   0  0  0  0  0  0  0  0  0  0  0  0
  -19.0620  -29.9190   23.7800 C   0  0  0  0  0  3  0  0  0  0  0  0
  -17.7260  -30.3470   23.8840 C   0  0  0  0  0  3  0  0  0  0  0  0
  -16.6890  -29.5320   23.4000 C   0  0  0  0  0  3  0  0  0  0  0  0
  -16.9900  -28.2950   22.8070 C   0  0  0  0  0  3  0  0  0  0  0  0
  -25.9060  -32.6580   24.0710 C   0  0  0  0  0  3  0  0  0  0  0  0
  -25.5630  -34.0650   24.3160 N   0  0  0  0  0  0  0  0  0  0  0  0
  -25.9310  -35.0840   23.5270 C   0  0  0  0  0  0  0  0  0  0  0  0
  -26.6640  -34.9390   22.5450 O   0  0  0  0  0  0  0  0  0  0  0  0
  -24.9200  -34.2510   25.0720 H   0  0  0  0  0  0  0  0  0  0  0  0
  -24.2000  -36.8260   22.9900 C   0  0  0  0  0  1  0  0  0  0  0  0
  -25.4040  -36.4870   23.8840 C   0  0  0  0  0  3  0  0  0  0  0  0
  -27.4780  -37.4460   24.7760 C   0  0  0  0  0  1  0  0  0  0  0  0
  -26.4270  -37.5500   23.7680 N   0  0  0  0  0  0  0  0  0  0  0  0
  -26.0030  -38.4710   23.8440 H   0  0  0  0  0  0  0  0  0  0  0  0
  -26.3310  -31.9490   25.4160 C   0  0  1  0  0  0  0  0  0  0  0  0
  -25.1600  -31.7240   26.4010 C   0  0  0  0  0  1  0  0  0  0  0  0
  -26.9730  -30.5740   25.1240 C   0  0  0  0  0  1  0  0  0  0  0  0
  -27.4090  -32.7940   26.1370 C   0  0  0  0  0  1  0  0  0  0  0  0
  -28.4880  -17.5650   20.9710 C   0  0  0  0  0  1  0  0  0  0  0  0
  -29.7400  -18.2490   20.3760 C   0  0  0  0  0  3  0  0  0  0  0  0
  -30.9590  -17.2540   20.3970 C   0  0  0  0  0  2  0  0  0  0  0  0
  -31.3260  -14.7420   20.1640 C   0  0  0  0  0  0  0  0  0  0  0  0
  -31.1080  -12.4020   19.3880 C   0  0  0  0  0  2  0  0  0  0  0  0
  -30.2050  -12.3640   18.1380 C   0  0  0  0  0  2  0  0  0  0  0  0
  -28.7140  -12.2900   18.5310 C   0  0  0  0  0  2  0  0  0  0  0  0
  -28.3260  -13.3260   19.6190 C   0  0  0  0  0  3  0  0  0  0  0  0
  -29.3430  -13.3100   20.7820 C   0  0  0  0  0  2  0  0  0  0  0  0
  -30.6790  -13.5420   20.2130 N   0  0  0  0  0  0  0  0  0  0  0  0
  -32.4800  -14.8600   19.7450 O   0  0  0  0  0  0  0  0  0  0  0  0
  -30.5680  -15.8250   20.4500 N   0  0  0  0  0  0  0  0  0  0  0  0
  -29.6220  -15.6300   20.7390 H   0  0  0  0  0  0  0  0  0  0  0  0
  -25.9570  -14.0600   20.3050 C   0  0  0  0  0  0  0  0  0  0  0  0
  -24.8490  -13.3460   20.6750 C   0  0  0  0  0  0  0  0  0  0  0  0
  -25.2430  -11.9730   20.6640 C   0  0  0  0  0  0  0  0  0  0  0  0
  -26.9580  -13.1250   20.0910 N   0  0  0  0  0  0  0  0  0  0  0  0
  -26.5320  -11.8660   20.3670 N   0  0  0  0  0  0  0  0  0  0  0  0
  -24.4520  -10.7510   20.8610 C   0  0  0  0  0  0  0  0  0  0  0  0
  -24.7750   -9.8180   21.8710 C   0  0  0  0  0  3  0  0  0  0  0  0
  -23.9900   -8.6590   22.0550 C   0  0  0  0  0  3  0  0  0  0  0  0
  -22.8650   -8.4270   21.2280 C   0  0  0  0  0  0  0  0  0  0  0  0
  -22.5620   -9.3460   20.2090 C   0  0  0  0  0  3  0  0  0  0  0  0
  -23.3470  -10.4970   20.0230 C   0  0  0  0  0  3  0  0  0  0  0  0
  -22.0610   -7.3170   21.3150 O   0  0  0  0  0  0  0  0  0  0  0  0
  -21.8080   -6.7020   22.5160 C   0  0  0  0  0  0  0  0  0  0  0  0
  -21.2320   -7.3990   23.6010 C   0  0  0  0  0  3  0  0  0  0  0  0
  -20.9260   -6.7130   24.7940 C   0  0  0  0  0  3  0  0  0  0  0  0
  -21.1850   -5.3340   24.9000 C   0  0  0  0  0  0  0  0  0  0  0  0
  -21.7530   -4.6380   23.8180 C   0  0  0  0  0  3  0  0  0  0  0  0
  -22.0610   -5.3220   22.6290 C   0  0  0  0  0  0  0  0  0  0  0  0
  -22.5880   -4.6410   21.5820 F   0  0  0  0  0  0  0  0  0  0  0  0
  -20.8830   -4.6730   26.0430 F   0  0  0  0  0  0  0  0  0  0  0  0
  -23.4750  -13.8940   20.9260 C   0  0  0  0  0  0  0  0  0  0  0  0
  -22.7150  -13.2630   21.8160 N   0  0  0  0  0  0  0  0  0  0  0  0
  -23.0830  -14.9200   20.3700 O   0  0  0  0  0  0  0  0  0  0  0  0
  -23.0460  -12.4340   22.2890 H   0  0  0  0  0  0  0  0  0  0  0  0
  -21.7910  -13.6110   22.0230 H   0  0  0  0  0  0  0  0  0  0  0  0
  -26.1930  -15.4190   20.1110 N   0  0  0  0  0  0  0  0  0  0  0  0
  -25.4580  -16.1110   20.2050 H   0  0  0  0  0  0  0  0  0  0  0  0
  -27.0580  -15.8110   19.7580 H   0  0  0  0  0  0  0  0  0  0  0  0
  1  2  1  0
  3  4  1  0
  3  5  1  0
  3  6  1  0
  4  6  1  0
  5  1  1  0
  6  7  1  1
  6  2  1  0
  8 12  1  0
  8  5  1  0
  9  8  1  0
 10  8  1  0
 11 12  1  0
 13 14  1  0
 13 12  1  0
 15 26  2  0
 15 41  1  0
 16 14  1  0
 16 21  1  0
 17 25  1  0
 17 27  1  0
 18 24  1  0
 18 20  1  0
 19 25  1  0
 20 21  2  0
 20 19  1  0
 22 16  2  0
 23 22  1  0
 23 18  2  0
 24 17  1  0
 25 15  1  0
 27 29  2  0
 28 27  1  0
 28 32  1  0
 30 28  1  0
 31 40  2  0
 31 36  1  0
 32 36  1  0
 33 32  1  0
 34 35  1  0
 34 33  1  0
 35 31  1  0
 36 37  2  0
 37 38  1  0
 39 38  2  0
 40 39  1  0
 41 42  1  0
 41 51  1  0
 42 45  1  0
 43 47  1  0
 43 42  1  0
 44 43  2  0
 46 47  1  0
 49 50  1  0
 49 47  1  0
 49 48  1  0
 51 54  1  1
 51 52  1  0
 53 51  1  0
 56 57  1  0
 56 55  1  0
 56  4  1  0
 57 66  1  0
 58 64  1  0
 58 66  1  0
 59 64  1  0
 60 61  1  0
 60 59  1  0
 61 62  1  0
 62 71  1  0
 62 63  1  0
 64 63  1  0
 65 58  2  0
 66 67  1  0
 68 69  2  0
 69 88  1  0
 70 69  1  0
 70 73  1  0
 71 68  1  0
 71 72  1  0
 72 70  2  0
 73 74  1  0
 74 75  2  0
 76 79  1  0
 76 75  1  0
 77 76  2  0
 78 77  1  0
 78 73  2  0
 79 80  1  0
 80 85  2  0
 80 81  1  0
 81 82  2  0
 82 83  1  0
 83 87  1  0
 84 83  2  0
 85 84  1  0
 86 85  1  0
 88 89  1  0
 89 92  1  0
 89 91  1  0
 90 88  2  0
 93 94  1  0
 93 68  1  0
 95 93  1  0
M  ISO  4  13 101  14 101  58 100  66 100
M  END
>  <TORSDO>  (40) 
F 21

>  <SCORE>  (40) 
-12.515

>  <name>  (40) 
40

>  <ligand_id>  (40) 
40

>  <original_smiles>  (40) 
[H]c1c([H])c([H])c2c(c1[H])C([H])([H])C([H])([H])C([H])([H])C2([H])N([H])C(=O)C1([H])N(C(=O)C([H])(N([H])C(=O)C([H])(N([H])C([H])([H])[H])C([H])([H])[H])C(C([H])([H])[H])(C([H])([H])[H])C([H])([H])[H])C([H])([H])c2c([H])c(OC([H])([H])C([H])(C([H])([H])[H])[N+]([H])([H])C3([H])C([H])([H])C([H])([H])C4(C([H])([H])[H])C([H])(C([H])(C([H])([H])[H])C([H])([H])N([H])C(=O)N5C([H])([H])C([H])([H])C([H])([H])C([H])(n6nc(-c7c([H])c([H])c(Oc8c([H])c([H])c(F)c([H])c8F)c([H])c7[H])c(C(=O)N([H])[H])c6N([H])[H])C5([H])[H])C43[H])c([H])c([H])c2C1([H])[H]

>  <smiles>  (40) 
[H]c1c([H])c([H])c2c(c1[H])C([H])([H])C([H])([H])C([H])([H])C2([H])N([H])C(=O)C1([H])N(C(=O)C([H])(N([H])C(=O)C([H])(N([H])C([H])([H])[H])C([H])([H])[H])C(C([H])([H])[H])(C([H])([H])[H])C([H])([H])[H])C([H])([H])c2c([H])c(OC([H])([H])C([H])(C([H])([H])[H])[N+]([H])([H])C3([H])C([H])([H])C([H])([H])C4(C([H])([H])[H])C([H])(C([H])(C([H])([H])[H])C([H])([H])N([H])C(=O)N5C([H])([H])C([H])([H])C([H])([H])C([H])(n6nc(-c7c([H])c([H])c(Oc8c([H])c([H])c(F)c([H])c8F)c([H])c7[H])c(C(=O)N([H])[H])c6N([H])[H])C5([H])[H])C43[H])c([H])c([H])c2C1([H])[H]

$$$$
41:0:0
     RDKit          3D

 90 99  0  0  1  0  0  0  0  0999 V2000
  -30.3250  -20.8350   19.6510 C   0  0  0  0  0  3  0  0  0  0  0  0
  -29.9140  -22.2600   19.6510 C   0  0  0  0  0  3  0  0  0  0  0  0
  -27.7300  -21.5750   19.8850 C   0  0  0  0  0  3  0  0  0  0  0  0
  -29.4940  -19.6380   19.7620 C   0  0  0  0  0  0  0  0  0  0  0  0
  -28.5660  -22.7650   19.7860 C   0  0  0  0  0  0  0  0  0  0  0  0
  -28.1260  -20.1430   19.8830 C   0  0  0  0  0  0  0  0  0  0  0  0
  -26.9880  -19.1410   20.0230 C   0  0  0  0  0  1  0  0  0  0  0  0
  -30.7160  -15.1530   19.7940 C   0  0  0  0  0  0  0  0  0  0  0  0
  -30.6200  -12.7180   18.9550 C   0  0  0  0  0  2  0  0  0  0  0  0
  -29.6230  -12.5360   17.7850 C   0  0  0  0  0  2  0  0  0  0  0  0
  -28.1980  -12.2990   18.3130 C   0  0  0  0  0  2  0  0  0  0  0  0
  -27.8330  -13.2630   19.4690 C   0  0  0  0  0  3  0  0  0  0  0  0
  -28.9500  -13.3930   20.5260 C   0  0  0  0  0  2  0  0  0  0  0  0
  -30.1470  -13.8590   19.8130 N   0  0  0  0  0  0  0  0  0  0  0  0
  -31.8830  -15.1810   19.3800 O   0  0  0  0  0  0  0  0  0  0  0  0
  -29.8250  -16.6990   21.4840 C   0  0  0  0  0  2  0  0  0  0  0  0
  -30.1710  -18.0300   19.8270 C   0  0  0  0  0  3  0  0  0  0  0  0
  -30.7620  -17.8850   21.2500 C   0  0  0  0  0  3  0  0  0  0  0  0
  -30.7930  -19.0090   22.2820 C   0  0  0  0  0  1  0  0  0  0  0  0
  -29.9720  -16.3940   20.0610 N   0  0  0  0  0  0  0  0  0  0  0  0
  -25.5380  -13.8290   20.4310 C   0  0  0  0  0  0  0  0  0  0  0  0
  -24.4930  -13.0540   20.8460 C   0  0  0  0  0  0  0  0  0  0  0  0
  -24.9290  -11.6980   20.7220 C   0  0  0  0  0  0  0  0  0  0  0  0
  -26.5400  -12.9490   20.0670 N   0  0  0  0  0  0  0  0  0  0  0  0
  -26.1920  -11.6580   20.3080 N   0  0  0  0  0  0  0  0  0  0  0  0
  -24.1950  -10.4410   20.9140 C   0  0  0  0  0  0  0  0  0  0  0  0
  -24.6230   -9.4690   21.8450 C   0  0  0  0  0  3  0  0  0  0  0  0
  -23.8870   -8.2780   22.0270 C   0  0  0  0  0  3  0  0  0  0  0  0
  -22.7080   -8.0520   21.2770 C   0  0  0  0  0  0  0  0  0  0  0  0
  -22.3000   -9.0120   20.3350 C   0  0  0  0  0  3  0  0  0  0  0  0
  -23.0370  -10.1930   20.1510 C   0  0  0  0  0  3  0  0  0  0  0  0
  -21.9430   -6.9150   21.3690 O   0  0  0  0  0  0  0  0  0  0  0  0
  -21.8050   -6.2320   22.5510 C   0  0  0  0  0  0  0  0  0  0  0  0
  -21.2810   -6.8470   23.7090 C   0  0  0  0  0  3  0  0  0  0  0  0
  -21.0930   -6.0900   24.8830 C   0  0  0  0  0  3  0  0  0  0  0  0
  -21.4170   -4.7200   24.8990 C   0  0  0  0  0  0  0  0  0  0  0  0
  -21.9320   -4.1060   23.7440 C   0  0  0  0  0  3  0  0  0  0  0  0
  -22.1230   -4.8590   22.5730 C   0  0  0  0  0  0  0  0  0  0  0  0
  -22.6010   -4.2560   21.4570 F   0  0  0  0  0  0  0  0  0  0  0  0
  -21.2290   -3.9910   26.0240 F   0  0  0  0  0  0  0  0  0  0  0  0
  -23.1300  -13.5420   21.2410 C   0  0  0  0  0  0  0  0  0  0  0  0
  -22.4620  -12.8280   22.1410 N   0  0  0  0  0  0  0  0  0  0  0  0
  -22.6710  -14.5900   20.7900 O   0  0  0  0  0  0  0  0  0  0  0  0
  -22.8480  -11.9790   22.5250 H   0  0  0  0  0  0  0  0  0  0  0  0
  -21.5500  -13.1360   22.4500 H   0  0  0  0  0  0  0  0  0  0  0  0
  -25.7130  -15.2040   20.3040 N   0  0  0  0  0  0  0  0  0  0  0  0
  -24.9670  -15.8620   20.5060 H   0  0  0  0  0  0  0  0  0  0  0  0
  -26.5450  -15.6480   19.9390 H   0  0  0  0  0  0  0  0  0  0  0  0
  -27.8990  -24.3470   19.5840 C   0  0  0  0  0  2  0  0  0  0  0  0
  -28.2890  -25.8680   19.9610 O   0  0  0  0  0  0  0  0  0  0  0  0
  -24.6420  -31.6330   23.0700 C   0  0  0  0  0  0  0  0  0  0  0  0
  -27.2930  -26.9580   19.9040 C   0  0  0  0  0  0  0  0  0  0  0  0
  -23.4880  -30.2890   21.3620 C   0  0  0  0  0  3  0  0  0  0  0  0
  -24.9740  -28.7800   19.8940 C   0  0  0  0  0  0  0  0  0  0  0  0
  -26.0490  -30.5550   21.2560 C   0  0  0  0  0  2  0  0  0  0  0  0
  -26.1470  -29.1790   20.5490 C   0  0  0  0  0  0  0  0  0  0  0  0
  -27.3050  -28.2890   20.5350 C   0  0  0  0  0  3  0  0  0  0  0  0
  -26.0960  -26.7120   19.1920 C   0  0  0  0  0  3  0  0  0  0  0  0
  -24.9730  -27.5670   19.1940 C   0  0  0  0  0  3  0  0  0  0  0  0
  -23.7410  -29.6750   19.9600 C   0  0  0  0  0  2  0  0  0  0  0  0
  -24.7470  -30.8490   21.9500 N   0  0  0  0  0  0  0  0  0  0  0  0
  -23.5430  -31.8830   23.5900 O   0  0  0  0  0  0  0  0  0  0  0  0
  -22.8010  -29.2390   22.2760 C   0  0  0  0  0  0  0  0  0  0  0  0
  -21.4720  -29.0730   22.1400 N   0  0  0  0  0  0  0  0  0  0  0  0
  -23.4700  -28.5800   23.0760 O   0  0  0  0  0  0  0  0  0  0  0  0
  -20.9850  -29.6600   21.4770 H   0  0  0  0  0  0  0  0  0  0  0  0
  -18.0870  -27.8730   22.6350 C   0  0  0  0  0  0  0  0  0  0  0  0
  -20.6540  -28.0980   22.8680 C   0  0  0  0  0  3  0  0  0  0  0  0
  -20.7290  -26.7030   22.2040 C   0  0  0  0  0  2  0  0  0  0  0  0
  -19.6060  -26.4530   21.1930 C   0  0  0  0  0  2  0  0  0  0  0  0
  -18.2360  -26.5680   21.8700 C   0  0  0  0  0  2  0  0  0  0  0  0
  -19.2210  -28.5980   23.0900 C   0  0  0  0  0  0  0  0  0  0  0  0
  -19.0240  -29.8190   23.7700 C   0  0  0  0  0  3  0  0  0  0  0  0
  -17.7260  -30.3180   23.9940 C   0  0  0  0  0  3  0  0  0  0  0  0
  -16.6070  -29.5920   23.5530 C   0  0  0  0  0  3  0  0  0  0  0  0
  -16.7880  -28.3700   22.8810 C   0  0  0  0  0  3  0  0  0  0  0  0
  -25.8970  -32.2670   23.7420 C   0  0  0  0  0  3  0  0  0  0  0  0
  -25.5690  -33.6610   24.0890 N   0  0  0  0  0  0  0  0  0  0  0  0
  -25.8970  -34.7330   23.3560 C   0  0  0  0  0  0  0  0  0  0  0  0
  -26.5750  -34.6560   22.3290 O   0  0  0  0  0  0  0  0  0  0  0  0
  -24.9760  -33.7940   24.8940 H   0  0  0  0  0  0  0  0  0  0  0  0
  -24.1540  -36.5210   23.0330 C   0  0  0  0  0  1  0  0  0  0  0  0
  -25.3960  -36.1100   23.8390 C   0  0  0  0  0  3  0  0  0  0  0  0
  -27.5190  -37.0050   24.6940 C   0  0  0  0  0  1  0  0  0  0  0  0
  -26.4200  -37.1760   23.7470 N   0  0  0  0  0  0  0  0  0  0  0  0
  -26.0010  -38.0890   23.9070 H   0  0  0  0  0  0  0  0  0  0  0  0
  -26.3720  -31.4850   25.0280 C   0  0  1  0  0  0  0  0  0  0  0  0
  -25.2450  -31.2370   26.0570 C   0  0  0  0  0  1  0  0  0  0  0  0
  -26.9720  -30.1110   24.6500 C   0  0  0  0  0  1  0  0  0  0  0  0
  -27.4940  -32.2780   25.7410 C   0  0  0  0  0  1  0  0  0  0  0  0
  1  4  1  0
  2  1  2  0
  2  5  1  0
  4  6  2  0
  5  3  2  0
  6  3  1  0
  6  7  1  0
  8 14  1  0
  8 20  1  0
  9 14  1  0
 10 11  1  0
 10  9  1  0
 12 11  1  0
 12 24  1  0
 12 13  1  0
 14 13  1  0
 15  8  2  0
 17  4  1  0
 17 20  1  0
 17 18  1  0
 18 16  1  0
 18 19  1  0
 20 16  1  0
 21 22  2  0
 22 41  1  0
 23 22  1  0
 23 26  1  0
 24 25  1  0
 24 21  1  0
 25 23  2  0
 26 27  1  0
 27 28  2  0
 29 32  1  0
 29 28  1  0
 30 29  2  0
 31 30  1  0
 31 26  2  0
 32 33  1  0
 33 38  2  0
 33 34  1  0
 34 35  2  0
 35 36  1  0
 36 40  1  0
 37 36  2  0
 38 37  1  0
 39 38  1  0
 41 42  1  0
 42 45  1  0
 42 44  1  0
 43 41  2  0
 46 21  1  0
 46 47  1  0
 48 46  1  0
 49  5  1  0
 49 50  1  0
 51 62  2  0
 52 50  1  0
 52 57  1  0
 53 61  1  0
 53 63  1  0
 54 60  1  0
 54 56  1  0
 55 61  1  0
 56 55  1  0
 57 56  2  0
 58 59  1  0
 58 52  2  0
 59 54  2  0
 60 53  1  0
 61 51  1  0
 63 65  2  0
 64 63  1  0
 66 64  1  0
 67 76  2  0
 67 72  1  0
 68 64  1  0
 68 72  1  0
 69 68  1  0
 70 71  1  0
 70 69  1  0
 71 67  1  0
 72 73  2  0
 73 74  1  0
 75 74  2  0
 76 75  1  0
 77 51  1  0
 77 78  1  0
 77 87  1  0
 78 81  1  0
 79 83  1  0
 79 78  1  0
 80 79  2  0
 83 82  1  0
 85 83  1  0
 85 86  1  0
 85 84  1  0
 87 90  1  1
 87 88  1  0
 89 87  1  0
M  ISO  4   8 100  20 100  49 101  50 101
M  END
>  <TORSDO>  (41) 
F 17

>  <SCORE>  (41) 
-15.281

>  <name>  (41) 
41

>  <ligand_id>  (41) 
41

>  <original_smiles>  (41) 
[H]c1c([H])c([H])c2c(c1[H])C([H])([H])C([H])([H])C([H])([H])C2([H])N([H])C(=O)C1([H])N(C(=O)C([H])(N([H])C(=O)C([H])(N([H])C([H])([H])[H])C([H])([H])[H])C(C([H])([H])[H])(C([H])([H])[H])C([H])([H])[H])C([H])([H])c2c([H])c(OC([H])([H])c3c([H])c([H])c(C4([H])N(C(=O)N5C([H])([H])C([H])([H])C([H])([H])C([H])(n6nc(-c7c([H])c([H])c(Oc8c([H])c([H])c(F)c([H])c8F)c([H])c7[H])c(C(=O)N([H])[H])c6N([H])[H])C5([H])[H])C([H])([H])C4([H])C([H])([H])[H])c(C([H])([H])[H])c3[H])c([H])c([H])c2C1([H])[H]

>  <smiles>  (41) 
[H]c1c([H])c([H])c2c(c1[H])C([H])([H])C([H])([H])C([H])([H])C2([H])N([H])C(=O)C1([H])N(C(=O)C([H])(N([H])C(=O)C([H])(N([H])C([H])([H])[H])C([H])([H])[H])C(C([H])([H])[H])(C([H])([H])[H])C([H])([H])[H])C([H])([H])c2c([H])c(OC([H])([H])c3c([H])c([H])c(C4([H])N(C(=O)N5C([H])([H])C([H])([H])C([H])([H])C([H])(n6nc(-c7c([H])c([H])c(Oc8c([H])c([H])c(F)c([H])c8F)c([H])c7[H])c(C(=O)N([H])[H])c6N([H])[H])C5([H])[H])C([H])([H])C4([H])C([H])([H])[H])c(C([H])([H])[H])c3[H])c([H])c([H])c2C1([H])[H]

$$$$
42:0:0
     RDKit          3D

 95104  0  0  1  0  0  0  0  0999 V2000
  -29.7720  -21.7130   18.5950 C   0  0  0  0  0  3  0  0  0  0  0  0
  -29.1040  -22.9630   20.7210 C   0  0  0  0  0  2  0  0  0  0  0  0
  -29.7380  -21.9750   20.0970 C   0  0  0  0  0  3  0  0  0  0  0  0
  -31.3540  -23.0320   21.5190 C   0  0  0  0  0  2  0  0  0  0  0  0
  -30.1590  -21.6910   22.4680 C   0  0  0  0  0  2  0  0  0  0  0  0
  -30.8400  -21.6430   21.0750 C   0  0  0  0  0  3  0  0  0  0  0  0
  -29.8870  -23.1380   22.0020 C   0  0  2  0  0  0  0  0  0  0  0  0
  -29.4630  -25.6400   22.2510 C   0  0  0  0  0  1  0  0  0  0  0  0
  -29.4260  -24.2620   22.9270 C   0  0  0  0  0  2  0  0  0  0  0  0
  -27.5860  -22.7690   18.0460 C   0  0  0  0  0  1  0  0  0  0  0  0
  -29.0240  -22.7950   17.6910 N   0  0  1  0  0  4  0  0  0  0  0  0
  -29.0280  -22.3620   16.7790 H   0  0  0  0  0  0  0  0  0  0  0  0
  -29.5220  -24.2960   17.3710 C   0  0  0  0  0  2  0  0  0  0  0  0
  -30.4750  -24.8050   16.0580 C   0  0  0  0  0  2  0  0  0  0  0  0
  -32.0120  -25.0970   15.9280 O   0  0  0  0  0  0  0  0  0  0  0  0
  -35.3420  -28.7620   10.4060 C   0  0  0  0  0  0  0  0  0  0  0  0
  -32.7860  -25.1510   14.7100 C   0  0  0  0  0  0  0  0  0  0  0  0
  -34.9700  -26.3430   10.1130 C   0  0  0  0  0  3  0  0  0  0  0  0
  -34.3120  -25.0360   12.2270 C   0  0  0  0  0  0  0  0  0  0  0  0
  -35.2930  -27.3110   12.4720 C   0  0  0  0  0  2  0  0  0  0  0  0
  -34.4020  -26.1800   13.0290 C   0  0  0  0  0  0  0  0  0  0  0  0
  -33.6680  -26.2260   14.2770 C   0  0  0  0  0  3  0  0  0  0  0  0
  -32.7790  -24.0220   13.8580 C   0  0  0  0  0  3  0  0  0  0  0  0
  -33.5150  -23.9590   12.6510 C   0  0  0  0  0  3  0  0  0  0  0  0
  -35.0840  -25.0180   10.9130 C   0  0  0  0  0  2  0  0  0  0  0  0
  -35.1910  -27.5370   10.9950 N   0  0  0  0  0  0  0  0  0  0  0  0
  -35.3190  -28.9000    9.1710 O   0  0  0  0  0  0  0  0  0  0  0  0
  -33.6120  -26.3800    9.3640 C   0  0  0  0  0  0  0  0  0  0  0  0
  -33.5710  -25.8100    8.1460 N   0  0  0  0  0  0  0  0  0  0  0  0
  -32.6210  -26.8930    9.8880 O   0  0  0  0  0  0  0  0  0  0  0  0
  -34.4270  -25.4210    7.7800 H   0  0  0  0  0  0  0  0  0  0  0  0
  -32.4380  -25.0210    4.7950 C   0  0  0  0  0  0  0  0  0  0  0  0
  -32.3860  -25.6850    7.2950 C   0  0  0  0  0  3  0  0  0  0  0  0
  -31.6690  -24.3370    7.5340 C   0  0  0  0  0  2  0  0  0  0  0  0
  -32.1150  -23.2390    6.5640 C   0  0  0  0  0  2  0  0  0  0  0  0
  -31.8470  -23.6560    5.1140 C   0  0  0  0  0  2  0  0  0  0  0  0
  -32.7030  -25.9660    5.8210 C   0  0  0  0  0  0  0  0  0  0  0  0
  -33.2770  -27.2080    5.4730 C   0  0  0  0  0  3  0  0  0  0  0  0
  -33.5850  -27.5110    4.1340 C   0  0  0  0  0  3  0  0  0  0  0  0
  -33.3090  -26.5760    3.1220 C   0  0  0  0  0  3  0  0  0  0  0  0
  -32.7320  -25.3360    3.4510 C   0  0  0  0  0  3  0  0  0  0  0  0
  -35.5750  -30.0510   11.2530 C   0  0  0  0  0  3  0  0  0  0  0  0
  -36.6640  -30.8160   10.6200 N   0  0  0  0  0  0  0  0  0  0  0  0
  -37.9390  -30.8050   11.0280 C   0  0  0  0  0  0  0  0  0  0  0  0
  -38.3120  -30.1920   12.0300 O   0  0  0  0  0  0  0  0  0  0  0  0
  -36.4370  -31.2880    9.7590 H   0  0  0  0  0  0  0  0  0  0  0  0
  -39.7340  -30.6510    9.2720 C   0  0  0  0  0  1  0  0  0  0  0  0
  -38.9610  -31.6050   10.1950 C   0  0  0  0  0  3  0  0  0  0  0  0
  -39.3050  -33.5140   11.7050 C   0  0  0  0  0  1  0  0  0  0  0  0
  -39.9160  -32.3780   11.0180 N   0  0  0  0  0  0  0  0  0  0  0  0
  -40.6800  -32.7290   10.4500 H   0  0  0  0  0  0  0  0  0  0  0  0
  -34.2800  -30.9460   11.3850 C   0  0  1  0  0  0  0  0  0  0  0  0
  -33.6240  -31.2900   10.0250 C   0  0  0  0  0  1  0  0  0  0  0  0
  -33.2180  -30.2430   12.2630 C   0  0  0  0  0  1  0  0  0  0  0  0
  -34.6320  -32.2740   12.0980 C   0  0  0  0  0  1  0  0  0  0  0  0
  -30.4840  -20.2120   18.1520 C   0  0  0  0  0  3  0  0  0  0  0  0
  -31.4980  -19.1170   18.9490 C   0  0  0  0  0  3  0  0  0  0  0  0
  -32.9530  -16.7260   18.8790 C   0  0  0  0  0  0  0  0  0  0  0  0
  -35.0400  -15.5080   18.0930 C   0  0  0  0  0  2  0  0  0  0  0  0
  -35.9290  -16.4220   17.2160 C   0  0  0  0  0  2  0  0  0  0  0  0
  -35.4770  -16.3700   15.7460 C   0  0  0  0  0  2  0  0  0  0  0  0
  -33.9410  -16.5160   15.6000 C   0  0  0  0  0  3  0  0  0  0  0  0
  -33.1800  -15.5910   16.5770 C   0  0  0  0  0  2  0  0  0  0  0  0
  -33.6160  -15.9310   17.9390 N   0  0  0  0  0  0  0  0  0  0  0  0
  -33.4000  -16.7190   20.0300 O   0  0  0  0  0  0  0  0  0  0  0  0
  -31.9400  -17.6550   18.4900 N   0  0  0  0  0  0  0  0  0  0  0  0
  -31.6130  -17.4500   17.5570 H   0  0  0  0  0  0  0  0  0  0  0  0
  -32.8700  -17.2390   13.3890 C   0  0  0  0  0  0  0  0  0  0  0  0
  -32.7540  -16.6190   12.1720 C   0  0  0  0  0  0  0  0  0  0  0  0
  -33.3360  -15.3250   12.3340 C   0  0  0  0  0  0  0  0  0  0  0  0
  -33.5060  -16.3310   14.2190 N   0  0  0  0  0  0  0  0  0  0  0  0
  -33.7250  -15.1470   13.5890 N   0  0  0  0  0  0  0  0  0  0  0  0
  -33.6010  -14.2700   11.3470 C   0  0  0  0  0  0  0  0  0  0  0  0
  -32.9670  -13.0080   11.4220 C   0  0  0  0  0  3  0  0  0  0  0  0
  -33.2230  -12.0190   10.4480 C   0  0  0  0  0  3  0  0  0  0  0  0
  -34.1180  -12.2850    9.3840 C   0  0  0  0  0  0  0  0  0  0  0  0
  -34.7660  -13.5300    9.3290 C   0  0  0  0  0  3  0  0  0  0  0  0
  -34.5140  -14.5130   10.3030 C   0  0  0  0  0  3  0  0  0  0  0  0
  -34.4450  -11.3750    8.4060 O   0  0  0  0  0  0  0  0  0  0  0  0
  -33.5160  -10.5040    7.8940 C   0  0  0  0  0  0  0  0  0  0  0  0
  -32.3680  -10.9560    7.2070 C   0  0  0  0  0  3  0  0  0  0  0  0
  -31.4780  -10.0250    6.6350 C   0  0  0  0  0  3  0  0  0  0  0  0
  -31.7340   -8.6460    6.7440 C   0  0  0  0  0  0  0  0  0  0  0  0
  -32.8790   -8.1950    7.4230 C   0  0  0  0  0  3  0  0  0  0  0  0
  -33.7680   -9.1200    7.9950 C   0  0  0  0  0  0  0  0  0  0  0  0
  -34.8800   -8.6800    8.6300 F   0  0  0  0  0  0  0  0  0  0  0  0
  -30.8820   -7.7530    6.1880 F   0  0  0  0  0  0  0  0  0  0  0  0
  -32.2270  -17.2300   10.9070 C   0  0  0  0  0  0  0  0  0  0  0  0
  -31.5790  -16.4300   10.0620 N   0  0  0  0  0  0  0  0  0  0  0  0
  -32.3430  -18.4330   10.6820 O   0  0  0  0  0  0  0  0  0  0  0  0
  -31.4690  -15.4460   10.2520 H   0  0  0  0  0  0  0  0  0  0  0  0
  -31.1940  -16.8100    9.2110 H   0  0  0  0  0  0  0  0  0  0  0  0
  -32.5190  -18.5020   13.8530 N   0  0  0  0  0  0  0  0  0  0  0  0
  -32.0840  -19.2040   13.2620 H   0  0  0  0  0  0  0  0  0  0  0  0
  -32.7520  -18.8510   14.7730 H   0  0  0  0  0  0  0  0  0  0  0  0
  1 56  1  0
  2  7  1  0
  3  1  1  0
  3  2  1  0
  3  6  1  0
  4  7  1  0
  6  4  1  0
  6  5  1  0
  7  5  1  0
  7  9  1  1
  8  9  1  0
 11 10  1  0
 11  1  1  0
 11 12  1  6
 13 11  1  0
 14 13  1  0
 15 14  1  0
 16 26  1  0
 17 15  1  0
 18 28  1  0
 18 25  1  0
 18 26  1  0
 19 24  2  0
 19 21  1  0
 20 21  1  0
 21 22  2  0
 22 17  1  0
 23 17  2  0
 24 23  1  0
 25 19  1  0
 26 20  1  0
 27 16  2  0
 28 30  2  0
 29 28  1  0
 31 29  1  0
 32 36  1  0
 32 37  1  0
 33 34  1  0
 33 29  1  0
 35 34  1  0
 36 35  1  0
 37 33  1  0
 38 37  2  0
 39 38  1  0
 40 41  1  0
 40 39  2  0
 41 32  2  0
 42 16  1  0
 42 52  1  0
 43 44  1  0
 43 42  1  0
 44 45  2  0
 46 43  1  0
 48 47  1  0
 48 50  1  0
 48 44  1  0
 50 49  1  0
 51 50  1  0
 52 55  1  1
 52 54  1  0
 53 52  1  0
 56 57  2  0
 58 65  2  0
 60 59  1  0
 61 60  1  0
 62 71  1  0
 62 61  1  0
 62 63  1  0
 63 64  1  0
 64 59  1  0
 64 58  1  0
 66 58  1  0
 66 57  1  0
 67 66  1  0
 68 93  1  0
 68 71  1  0
 69 70  1  0
 69 68  2  0
 70 72  2  0
 72 71  1  0
 73 74  1  0
 73 70  1  0
 75 74  2  0
 76 75  1  0
 77 76  2  0
 77 78  1  0
 78 73  2  0
 79 76  1  0
 80 85  1  0
 80 79  1  0
 81 80  2  0
 82 83  2  0
 82 81  1  0
 83 84  1  0
 84 85  2  0
 85 86  1  0
 87 83  1  0
 88 69  1  0
 89 91  1  0
 89 88  1  0
 90 88  2  0
 92 89  1  0
 93 95  1  0
 94 93  1  0
M  ISO  4  14 101  15 101  58 100  66 100
M  END
>  <TORSDO>  (42) 
F 23

>  <SCORE>  (42) 
-2.638

>  <name>  (42) 
42

>  <ligand_id>  (42) 
42

>  <original_smiles>  (42) 
[H]C1=C(C([H])(C([H])([H])C([H])([H])N([H])C(=O)N2C([H])([H])C([H])([H])C([H])([H])C([H])(n3nc(-c4c([H])c([H])c(Oc5c([H])c([H])c(F)c([H])c5F)c([H])c4[H])c(C(=O)N([H])[H])c3N([H])[H])C2([H])[H])[N+]([H])(C([H])([H])[H])C([H])([H])C([H])([H])Oc2c([H])c([H])c3c(c2[H])C([H])([H])N(C(=O)C([H])(N([H])C(=O)C([H])(N([H])C([H])([H])[H])C([H])([H])[H])C(C([H])([H])[H])(C([H])([H])[H])C([H])([H])[H])C([H])(C(=O)N([H])C2([H])c4c([H])c([H])c([H])c([H])c4C([H])([H])C([H])([H])C2([H])[H])C3([H])[H])C2([H])C([H])([H])C1(C([H])([H])C([H])([H])[H])C2([H])[H]

>  <smiles>  (42) 
[H]C1=C(C([H])(C([H])([H])C([H])([H])N([H])C(=O)N2C([H])([H])C([H])([H])C([H])([H])C([H])(n3nc(-c4c([H])c([H])c(Oc5c([H])c([H])c(F)c([H])c5F)c([H])c4[H])c(C(=O)N([H])[H])c3N([H])[H])C2([H])[H])[N+]([H])(C([H])([H])[H])C([H])([H])C([H])([H])Oc2c([H])c([H])c3c(c2[H])C([H])([H])N(C(=O)C([H])(N([H])C(=O)C([H])(N([H])C([H])([H])[H])C([H])([H])[H])C(C([H])([H])[H])(C([H])([H])[H])C([H])([H])[H])C([H])(C(=O)N([H])C2([H])c4c([H])c([H])c([H])c([H])c4C([H])([H])C([H])([H])C2([H])[H])C3([H])[H])C2([H])C([H])([H])C1(C([H])([H])C([H])([H])[H])C2([H])[H]

$$$$
43:0:0
     RDKit          3D

 88 97  0  0  1  0  0  0  0  0999 V2000
  -27.4110  -21.9790   20.8290 C   0  0  0  0  0  2  0  0  0  0  0  0
  -29.9160  -21.6870   19.9350 C   0  0  0  0  0  2  0  0  0  0  0  0
  -28.0240  -21.0090   19.8410 C   0  0  0  0  0  3  0  0  0  0  0  0
  -28.5480  -22.5690   20.0330 C   0  0  1  0  0  0  0  0  0  0  0  0
  -29.3640  -20.1130   20.1680 C   0  0  2  0  0  0  0  0  0  0  0  0
  -29.3300  -19.7060   21.6410 C   0  0  0  0  0  1  0  0  0  0  0  0
  -31.2890  -18.7480   18.8460 C   0  0  0  0  0  1  0  0  0  0  0  0
  -29.8820  -18.5130   19.4100 C   0  0  0  0  0  0  0  0  0  0  0  0
  -30.5820  -15.5730   19.7070 C   0  0  0  0  0  0  0  0  0  0  0  0
  -30.5730  -13.0780   18.9190 C   0  0  0  0  0  2  0  0  0  0  0  0
  -29.5840  -12.7830   17.7600 C   0  0  0  0  0  2  0  0  0  0  0  0
  -28.1800  -12.4820   18.3050 C   0  0  0  0  0  2  0  0  0  0  0  0
  -27.7760  -13.4680   19.4280 C   0  0  0  0  0  3  0  0  0  0  0  0
  -28.8910  -13.6960   20.4740 C   0  0  0  0  0  2  0  0  0  0  0  0
  -30.0510  -14.2390   19.7460 N   0  0  0  0  0  0  0  0  0  0  0  0
  -31.7710  -15.5590   19.3510 O   0  0  0  0  0  0  0  0  0  0  0  0
  -29.8220  -16.8670   19.8710 N   0  0  0  0  0  4  0  0  0  0  0  0
  -28.9060  -16.6540   20.2420 H   0  0  0  0  0  0  0  0  0  0  0  0
  -25.4940  -13.9980   20.4220 C   0  0  0  0  0  0  0  0  0  0  0  0
  -24.4580  -13.2120   20.8390 C   0  0  0  0  0  0  0  0  0  0  0  0
  -24.8990  -11.8600   20.6880 C   0  0  0  0  0  0  0  0  0  0  0  0
  -26.4970  -13.1300   20.0360 N   0  0  0  0  0  0  0  0  0  0  0  0
  -26.1580  -11.8330   20.2610 N   0  0  0  0  0  0  0  0  0  0  0  0
  -24.1700  -10.5970   20.8670 C   0  0  0  0  0  0  0  0  0  0  0  0
  -24.5870   -9.6280   21.8060 C   0  0  0  0  0  3  0  0  0  0  0  0
  -23.8550   -8.4330   21.9750 C   0  0  0  0  0  3  0  0  0  0  0  0
  -22.6910   -8.1990   21.2050 C   0  0  0  0  0  0  0  0  0  0  0  0
  -22.2920   -9.1560   20.2550 C   0  0  0  0  0  3  0  0  0  0  0  0
  -23.0260  -10.3410   20.0850 C   0  0  0  0  0  3  0  0  0  0  0  0
  -21.9320   -7.0550   21.2840 O   0  0  0  0  0  0  0  0  0  0  0  0
  -21.7670   -6.3800   22.4670 C   0  0  0  0  0  0  0  0  0  0  0  0
  -21.1700   -6.9860   23.5950 C   0  0  0  0  0  3  0  0  0  0  0  0
  -20.9580   -6.2340   24.7670 C   0  0  0  0  0  3  0  0  0  0  0  0
  -21.3330   -4.8780   24.8130 C   0  0  0  0  0  0  0  0  0  0  0  0
  -21.9250   -4.2720   23.6890 C   0  0  0  0  0  3  0  0  0  0  0  0
  -22.1370   -5.0210   22.5190 C   0  0  0  0  0  0  0  0  0  0  0  0
  -22.6870   -4.4280   21.4330 F   0  0  0  0  0  0  0  0  0  0  0  0
  -21.1230   -4.1530   25.9360 F   0  0  0  0  0  0  0  0  0  0  0  0
  -23.0970  -13.6880   21.2540 C   0  0  0  0  0  0  0  0  0  0  0  0
  -22.4380  -12.9570   22.1460 N   0  0  0  0  0  0  0  0  0  0  0  0
  -22.6310  -14.7430   20.8240 O   0  0  0  0  0  0  0  0  0  0  0  0
  -22.8310  -12.1030   22.5140 H   0  0  0  0  0  0  0  0  0  0  0  0
  -21.5280  -13.2560   22.4660 H   0  0  0  0  0  0  0  0  0  0  0  0
  -25.6570  -15.3750   20.3100 N   0  0  0  0  0  0  0  0  0  0  0  0
  -24.9080  -16.0230   20.5260 H   0  0  0  0  0  0  0  0  0  0  0  0
  -26.4570  -15.8250   19.8840 H   0  0  0  0  0  0  0  0  0  0  0  0
  -28.1320  -24.2530   19.4440 C   0  0  0  0  0  2  0  0  0  0  0  0
  -28.1920  -25.8850   19.8650 O   0  0  0  0  0  0  0  0  0  0  0  0
  -24.6920  -31.8430   23.0120 C   0  0  0  0  0  0  0  0  0  0  0  0
  -27.1810  -27.0060   19.8020 C   0  0  0  0  0  0  0  0  0  0  0  0
  -23.4540  -30.4620   21.3940 C   0  0  0  0  0  3  0  0  0  0  0  0
  -24.8680  -28.9030   19.8760 C   0  0  0  0  0  0  0  0  0  0  0  0
  -26.0120  -30.6940   21.1580 C   0  0  0  0  0  2  0  0  0  0  0  0
  -26.0730  -29.2940   20.4690 C   0  0  0  0  0  0  0  0  0  0  0  0
  -27.2150  -28.3660   20.4140 C   0  0  0  0  0  3  0  0  0  0  0  0
  -25.9470  -26.7920   19.1440 C   0  0  0  0  0  3  0  0  0  0  0  0
  -24.8330  -27.6740   19.1920 C   0  0  0  0  0  3  0  0  0  0  0  0
  -23.6410  -29.8110   19.9930 C   0  0  0  0  0  2  0  0  0  0  0  0
  -24.7440  -31.0270   21.9080 N   0  0  0  0  0  0  0  0  0  0  0  0
  -23.6190  -32.1110   23.5780 O   0  0  0  0  0  0  0  0  0  0  0  0
  -22.8080  -29.4410   22.3660 C   0  0  0  0  0  0  0  0  0  0  0  0
  -21.4750  -29.2630   22.2930 N   0  0  0  0  0  0  0  0  0  0  0  0
  -23.5130  -28.8080   23.1560 O   0  0  0  0  0  0  0  0  0  0  0  0
  -20.9560  -29.8290   21.6370 H   0  0  0  0  0  0  0  0  0  0  0  0
  -18.1370  -27.9740   22.8950 C   0  0  0  0  0  0  0  0  0  0  0  0
  -20.6980  -28.2960   23.0770 C   0  0  0  0  0  3  0  0  0  0  0  0
  -20.8100  -26.8740   22.4800 C   0  0  0  0  0  2  0  0  0  0  0  0
  -19.6830  -26.5410   21.4970 C   0  0  0  0  0  2  0  0  0  0  0  0
  -18.3200  -26.6420   22.1880 C   0  0  0  0  0  2  0  0  0  0  0  0
  -19.2520  -28.7580   23.2970 C   0  0  0  0  0  0  0  0  0  0  0  0
  -19.0220  -30.0020   23.9240 C   0  0  0  0  0  3  0  0  0  0  0  0
  -17.7120  -30.4660   24.1480 C   0  0  0  0  0  3  0  0  0  0  0  0
  -16.6130  -29.6800   23.7600 C   0  0  0  0  0  3  0  0  0  0  0  0
  -16.8260  -28.4360   23.1390 C   0  0  0  0  0  3  0  0  0  0  0  0
  -25.9760  -32.4940   23.6090 C   0  0  0  0  0  3  0  0  0  0  0  0
  -25.6440  -33.8710   24.0170 N   0  0  0  0  0  0  0  0  0  0  0  0
  -25.9390  -34.9740   23.3170 C   0  0  0  0  0  0  0  0  0  0  0  0
  -26.5860  -34.9410   22.2670 O   0  0  0  0  0  0  0  0  0  0  0  0
  -25.0690  -33.9710   24.8410 H   0  0  0  0  0  0  0  0  0  0  0  0
  -24.1940  -36.7760   23.1000 C   0  0  0  0  0  1  0  0  0  0  0  0
  -25.4480  -36.3290   23.8690 C   0  0  0  0  0  3  0  0  0  0  0  0
  -27.5760  -37.1910   24.7370 C   0  0  0  0  0  1  0  0  0  0  0  0
  -26.4680  -37.3970   23.8090 N   0  0  0  0  0  0  0  0  0  0  0  0
  -26.0520  -38.3030   24.0090 H   0  0  0  0  0  0  0  0  0  0  0  0
  -26.5590  -31.6940   24.8400 C   0  0  1  0  0  0  0  0  0  0  0  0
  -25.5160  -31.3990   25.9440 C   0  0  0  0  0  1  0  0  0  0  0  0
  -27.1590  -30.3430   24.3890 C   0  0  0  0  0  1  0  0  0  0  0  0
  -27.7190  -32.4950   25.4800 C   0  0  0  0  0  1  0  0  0  0  0  0
  2  4  1  0
  2  5  1  0
  3  4  1  0
  3  5  1  0
  3  1  1  0
  4 47  1  6
  4  1  1  0
  5  6  1  1
  7  8  1  0
  8 17  2  0
  8  5  1  0
  9 15  1  0
  9 17  1  0
 10 15  1  0
 11 12  1  0
 11 10  1  0
 13 12  1  0
 13 22  1  0
 13 14  1  0
 15 14  1  0
 16  9  2  0
 17 18  1  0
 19 20  2  0
 20 39  1  0
 21 20  1  0
 21 24  1  0
 22 23  1  0
 22 19  1  0
 23 21  2  0
 24 25  1  0
 25 26  2  0
 27 30  1  0
 27 26  1  0
 28 27  2  0
 29 28  1  0
 29 24  2  0
 30 31  1  0
 31 36  2  0
 31 32  1  0
 32 33  2  0
 33 34  1  0
 34 38  1  0
 35 34  2  0
 36 35  1  0
 37 36  1  0
 39 40  1  0
 40 43  1  0
 40 42  1  0
 41 39  2  0
 44 19  1  0
 44 45  1  0
 46 44  1  0
 47 48  1  0
 49 60  2  0
 50 48  1  0
 50 55  1  0
 51 59  1  0
 51 61  1  0
 52 58  1  0
 52 54  1  0
 53 59  1  0
 54 53  1  0
 55 54  2  0
 56 57  1  0
 56 50  2  0
 57 52  2  0
 58 51  1  0
 59 49  1  0
 61 63  2  0
 62 61  1  0
 64 62  1  0
 65 74  2  0
 65 70  1  0
 66 62  1  0
 66 70  1  0
 67 66  1  0
 68 69  1  0
 68 67  1  0
 69 65  1  0
 70 71  2  0
 71 72  1  0
 73 72  2  0
 74 73  1  0
 75 49  1  0
 75 76  1  0
 75 85  1  0
 76 79  1  0
 77 81  1  0
 77 76  1  0
 78 77  2  0
 81 80  1  0
 83 81  1  0
 83 84  1  0
 83 82  1  0
 85 88  1  1
 85 86  1  0
 87 85  1  0
M  ISO  4   9 100  17 100  47 101  48 101
M  END
>  <TORSDO>  (43) 
F 18

>  <SCORE>  (43) 
-15.234

>  <name>  (43) 
43

>  <ligand_id>  (43) 
43

>  <original_smiles>  (43) 
[H]c1c([H])c([H])c2c(c1[H])C([H])([H])C([H])([H])C([H])([H])C2([H])N([H])C(=O)C1([H])N(C(=O)C([H])(N([H])C(=O)C([H])(N([H])C([H])([H])[H])C([H])([H])[H])C(C([H])([H])[H])(C([H])([H])[H])C([H])([H])[H])C([H])([H])c2c([H])c(OC([H])([H])C34C([H])([H])C3([H])C(C([H])([H])[H])(C([H])(N([H])C(=O)N3C([H])([H])C([H])([H])C([H])([H])C([H])(n5nc(-c6c([H])c([H])c(Oc7c([H])c([H])c(F)c([H])c7F)c([H])c6[H])c(C(=O)N([H])[H])c5N([H])[H])C3([H])[H])C([H])([H])[H])C4([H])[H])c([H])c([H])c2C1([H])[H]

>  <smiles>  (43) 
[H]c1c([H])c([H])c2c(c1[H])C([H])([H])C([H])([H])C([H])([H])C2([H])N([H])C(=O)C1([H])N(C(=O)C([H])(N([H])C(=O)C([H])(N([H])C([H])([H])[H])C([H])([H])[H])C(C([H])([H])[H])(C([H])([H])[H])C([H])([H])[H])C([H])([H])c2c([H])c(OC([H])([H])C34C([H])([H])C3([H])C(C([H])([H])[H])(C([H])(N([H])C(=O)N3C([H])([H])C([H])([H])C([H])([H])C([H])(n5nc(-c6c([H])c([H])c(Oc7c([H])c([H])c(F)c([H])c7F)c([H])c6[H])c(C(=O)N([H])[H])c5N([H])[H])C3([H])[H])C([H])([H])[H])C4([H])[H])c([H])c([H])c2C1([H])[H]

$$$$
44:0:0
     RDKit          3D

 94103  0  0  1  0  0  0  0  0999 V2000
  -29.3690  -20.9760   17.8450 C   0  0  0  0  0  3  0  0  0  0  0  0
  -30.3200  -20.5950   18.8130 C   0  0  0  0  0  3  0  0  0  0  0  0
  -27.9180  -21.8370   19.6170 C   0  0  0  0  0  0  0  0  0  0  0  0
  -28.1100  -21.4650   18.2600 C   0  0  0  0  0  0  0  0  0  0  0  0
  -29.9970  -20.7500   20.1780 C   0  0  0  0  0  0  0  0  0  0  0  0
  -29.0750  -21.9100   20.4330 C   0  0  0  0  0  0  0  0  0  0  0  0
  -26.5750  -22.2500   20.1290 C   0  0  0  0  0  0  0  0  0  0  0  0
  -26.9880  -21.5890   17.2410 C   0  0  0  0  0  2  0  0  0  0  0  0
  -25.4230  -22.2850   19.1220 C   0  0  0  0  0  2  0  0  0  0  0  0
  -25.8990  -22.5740   17.6900 C   0  0  0  0  0  2  0  0  0  0  0  0
  -26.3470  -22.5210   21.3100 O   0  0  0  0  0  0  0  0  0  0  0  0
  -30.0640  -19.2940   20.9560 C   0  0  0  0  0  2  0  0  0  0  0  0
  -30.7970  -17.8980   20.3370 C   0  0  0  0  0  2  0  0  0  0  0  0
  -31.1510  -15.1840   20.4740 C   0  0  0  0  0  0  0  0  0  0  0  0
  -30.9550  -12.8730   19.4610 C   0  0  0  0  0  2  0  0  0  0  0  0
  -30.0500  -12.9150   18.2080 C   0  0  0  0  0  2  0  0  0  0  0  0
  -28.5710  -12.7470   18.6010 C   0  0  0  0  0  2  0  0  0  0  0  0
  -28.1740  -13.6420   19.8040 C   0  0  0  0  0  3  0  0  0  0  0  0
  -29.2040  -13.5760   20.9530 C   0  0  0  0  0  2  0  0  0  0  0  0
  -30.5040  -13.9530   20.3870 N   0  0  0  0  0  0  0  0  0  0  0  0
  -32.3510  -15.2140   20.1820 O   0  0  0  0  0  0  0  0  0  0  0  0
  -30.4290  -16.3930   20.6660 N   0  0  0  0  0  0  0  0  0  0  0  0
  -29.4610  -16.2480   20.9100 H   0  0  0  0  0  0  0  0  0  0  0  0
  -25.7930  -14.2740   20.5000 C   0  0  0  0  0  0  0  0  0  0  0  0
  -24.6990  -13.5220   20.8280 C   0  0  0  0  0  0  0  0  0  0  0  0
  -25.1240  -12.1590   20.7760 C   0  0  0  0  0  0  0  0  0  0  0  0
  -26.8160  -13.3710   20.2630 N   0  0  0  0  0  0  0  0  0  0  0  0
  -26.4220  -12.0920   20.4960 N   0  0  0  0  0  0  0  0  0  0  0  0
  -24.3580  -10.9150   20.9190 C   0  0  0  0  0  0  0  0  0  0  0  0
  -24.7200   -9.9270   21.8610 C   0  0  0  0  0  3  0  0  0  0  0  0
  -23.9530   -8.7480   21.9940 C   0  0  0  0  0  3  0  0  0  0  0  0
  -22.8100   -8.5500   21.1840 C   0  0  0  0  0  0  0  0  0  0  0  0
  -22.4670   -9.5260   20.2320 C   0  0  0  0  0  3  0  0  0  0  0  0
  -23.2340  -10.6950   20.0970 C   0  0  0  0  0  3  0  0  0  0  0  0
  -22.0200   -7.4260   21.2260 O   0  0  0  0  0  0  0  0  0  0  0  0
  -21.8580   -6.7030   22.3800 C   0  0  0  0  0  0  0  0  0  0  0  0
  -21.3070   -7.2760   23.5470 C   0  0  0  0  0  3  0  0  0  0  0  0
  -21.0940   -6.4790   24.6890 C   0  0  0  0  0  3  0  0  0  0  0  0
  -21.4210   -5.1090   24.6640 C   0  0  0  0  0  0  0  0  0  0  0  0
  -21.9630   -4.5350   23.5010 C   0  0  0  0  0  3  0  0  0  0  0  0
  -22.1780   -5.3300   22.3620 C   0  0  0  0  0  0  0  0  0  0  0  0
  -22.6810   -4.7680   21.2370 F   0  0  0  0  0  0  0  0  0  0  0  0
  -21.2080   -4.3420   25.7590 F   0  0  0  0  0  0  0  0  0  0  0  0
  -23.3090  -14.0340   21.0740 C   0  0  0  0  0  0  0  0  0  0  0  0
  -22.5450  -13.3500   21.9200 N   0  0  0  0  0  0  0  0  0  0  0  0
  -22.9110  -15.0740   20.5520 O   0  0  0  0  0  0  0  0  0  0  0  0
  -22.8820  -12.5100   22.3630 H   0  0  0  0  0  0  0  0  0  0  0  0
  -21.6110  -13.6750   22.1260 H   0  0  0  0  0  0  0  0  0  0  0  0
  -25.9980  -15.6430   20.3570 N   0  0  0  0  0  0  0  0  0  0  0  0
  -25.2420  -16.3100   20.4610 H   0  0  0  0  0  0  0  0  0  0  0  0
  -26.8540  -16.0650   20.0230 H   0  0  0  0  0  0  0  0  0  0  0  0
  -29.5090  -23.5010   20.6380 C   0  0  0  0  0  3  0  0  0  0  0  0
  -28.5220  -24.8480   20.3180 C   0  0  0  0  0  3  0  0  0  0  0  0
  -28.7550  -26.3720   20.5500 O   0  0  0  0  0  0  0  0  0  0  0  0
  -24.8170  -31.9490   23.3250 C   0  0  0  0  0  0  0  0  0  0  0  0
  -27.6840  -27.3320   20.4130 C   0  0  0  0  0  0  0  0  0  0  0  0
  -23.7480  -30.5320   21.6140 C   0  0  0  0  0  3  0  0  0  0  0  0
  -25.3140  -29.0120   20.2590 C   0  0  0  0  0  0  0  0  0  0  0  0
  -26.2980  -30.8700   21.5900 C   0  0  0  0  0  2  0  0  0  0  0  0
  -26.4450  -29.4860   20.9350 C   0  0  0  0  0  0  0  0  0  0  0  0
  -27.6320  -28.6610   20.9960 C   0  0  0  0  0  3  0  0  0  0  0  0
  -26.5280  -26.9630   19.6880 C   0  0  0  0  0  3  0  0  0  0  0  0
  -25.3690  -27.7650   19.6190 C   0  0  0  0  0  3  0  0  0  0  0  0
  -24.0610  -29.8730   20.2450 C   0  0  0  0  0  2  0  0  0  0  0  0
  -24.9700  -31.1390   22.2320 N   0  0  0  0  0  0  0  0  0  0  0  0
  -23.6970  -32.1990   23.7940 O   0  0  0  0  0  0  0  0  0  0  0  0
  -23.0460  -29.4990   22.5320 C   0  0  0  0  0  0  0  0  0  0  0  0
  -21.7320  -29.2910   22.3300 N   0  0  0  0  0  0  0  0  0  0  0  0
  -23.6890  -28.8880   23.3900 O   0  0  0  0  0  0  0  0  0  0  0  0
  -21.2700  -29.8370   21.6160 H   0  0  0  0  0  0  0  0  0  0  0  0
  -18.3570  -28.0210   22.6650 C   0  0  0  0  0  0  0  0  0  0  0  0
  -20.8960  -28.3270   23.0490 C   0  0  0  0  0  3  0  0  0  0  0  0
  -21.0500  -26.9060   22.4600 C   0  0  0  0  0  2  0  0  0  0  0  0
  -20.0010  -26.5770   21.3930 C   0  0  0  0  0  2  0  0  0  0  0  0
  -18.5900  -26.6860   21.9770 C   0  0  0  0  0  2  0  0  0  0  0  0
  -19.4400  -28.7980   23.1550 C   0  0  0  0  0  0  0  0  0  0  0  0
  -19.1680  -30.0460   23.7570 C   0  0  0  0  0  3  0  0  0  0  0  0
  -17.8470  -30.5160   23.8750 C   0  0  0  0  0  3  0  0  0  0  0  0
  -16.7770  -29.7370   23.4010 C   0  0  0  0  0  3  0  0  0  0  0  0
  -17.0330  -28.4910   22.8010 C   0  0  0  0  0  3  0  0  0  0  0  0
  -26.0410  -32.6140   24.0240 C   0  0  0  0  0  3  0  0  0  0  0  0
  -26.4940  -31.8580   25.3340 C   0  0  1  0  0  0  0  0  0  0  0  0
  -25.3380  -31.5760   26.3220 C   0  0  0  0  0  1  0  0  0  0  0  0
  -27.1530  -30.5040   24.9850 C   0  0  0  0  0  1  0  0  0  0  0  0
  -27.5650  -32.6920   26.0750 C   0  0  0  0  0  1  0  0  0  0  0  0
  -25.6750  -34.0050   24.3370 N   0  0  0  0  0  0  0  0  0  0  0  0
  -25.9880  -35.0670   23.5830 C   0  0  0  0  0  0  0  0  0  0  0  0
  -26.6820  -34.9800   22.5650 O   0  0  0  0  0  0  0  0  0  0  0  0
  -25.0600  -34.1430   25.1250 H   0  0  0  0  0  0  0  0  0  0  0  0
  -24.1950  -36.7930   23.2090 C   0  0  0  0  0  1  0  0  0  0  0  0
  -25.4490  -36.4420   24.0250 C   0  0  0  0  0  3  0  0  0  0  0  0
  -27.5390  -37.4260   24.8580 C   0  0  0  0  0  1  0  0  0  0  0  0
  -26.4420  -37.5320   23.9010 N   0  0  0  0  0  0  0  0  0  0  0  0
  -25.9990  -38.4380   24.0260 H   0  0  0  0  0  0  0  0  0  0  0  0
  1  4  2  0
  1  2  1  0
  2  5  2  0
  3  7  1  0
  3  6  2  0
  4  3  1  0
  5  6  1  0
  5 12  1  0
  6 52  1  0
  7 11  2  0
  8 10  1  0
  8  4  1  0
  9  7  1  0
 10  9  1  0
 13 22  1  0
 13 12  1  0
 14 22  1  0
 15 20  1  0
 16 17  1  0
 16 15  1  0
 18 17  1  0
 18 27  1  0
 18 19  1  0
 20 14  1  0
 20 19  1  0
 21 14  2  0
 22 23  1  0
 24 25  2  0
 25 44  1  0
 26 25  1  0
 26 29  1  0
 27 28  1  0
 27 24  1  0
 28 26  2  0
 29 30  1  0
 30 31  2  0
 32 35  1  0
 32 31  1  0
 33 32  2  0
 34 33  1  0
 34 29  2  0
 35 36  1  0
 36 37  1  0
 37 38  2  0
 39 38  1  0
 39 43  1  0
 40 39  2  0
 41 36  2  0
 41 40  1  0
 42 41  1  0
 44 45  1  0
 45 48  1  0
 45 47  1  0
 46 44  2  0
 49 50  1  0
 49 24  1  0
 51 49  1  0
 53 54  1  0
 53 52  2  0
 55 66  2  0
 56 54  1  0
 56 61  1  0
 57 65  1  0
 57 67  1  0
 58 60  1  0
 59 65  1  0
 60 61  2  0
 60 59  1  0
 62 56  2  0
 63 62  1  0
 63 58  2  0
 64 58  1  0
 64 57  1  0
 65 55  1  0
 67 69  2  0
 68 67  1  0
 70 68  1  0
 71 80  2  0
 71 76  1  0
 72 68  1  0
 72 76  1  0
 73 72  1  0
 74 75  1  0
 74 73  1  0
 75 71  1  0
 76 77  2  0
 77 78  1  0
 79 78  2  0
 80 79  1  0
 81 55  1  0
 81 86  1  0
 81 82  1  0
 82 85  1  1
 82 83  1  0
 84 82  1  0
 86 89  1  0
 87 91  1  0
 87 86  1  0
 88 87  2  0
 91 90  1  0
 93 91  1  0
 93 94  1  0
 93 92  1  0
M  ISO  4  14 100  22 100  53 101  54 101
M  END
>  <TORSDO>  (44) 
F 20

>  <SCORE>  (44) 
-13.788

>  <name>  (44) 
44

>  <ligand_id>  (44) 
44

>  <original_smiles>  (44) 
[H]c1c([H])c([H])c2c(c1[H])C([H])([H])C([H])([H])C([H])([H])C2([H])N([H])C(=O)C1([H])N(C(=O)C([H])(N([H])C(=O)C([H])(N([H])C([H])([H])[H])C([H])([H])[H])C(C([H])([H])[H])(C([H])([H])[H])C([H])([H])[H])C([H])([H])c2c([H])c(OC([H])([H])C([H])([H])c3c4c(c([H])c([H])c3C([H])([H])C([H])([H])N([H])C(=O)N3C([H])([H])C([H])([H])C([H])([H])C([H])(n5nc(-c6c([H])c([H])c(Oc7c([H])c([H])c(F)c([H])c7F)c([H])c6[H])c(C(=O)N([H])[H])c5N([H])[H])C3([H])[H])C([H])([H])C([H])([H])C([H])([H])C4=O)c([H])c([H])c2C1([H])[H]

>  <smiles>  (44) 
[H]c1c([H])c([H])c2c(c1[H])C([H])([H])C([H])([H])C([H])([H])C2([H])N([H])C(=O)C1([H])N(C(=O)C([H])(N([H])C(=O)C([H])(N([H])C([H])([H])[H])C([H])([H])[H])C(C([H])([H])[H])(C([H])([H])[H])C([H])([H])[H])C([H])([H])c2c([H])c(OC([H])([H])C([H])([H])c3c4c(c([H])c([H])c3C([H])([H])C([H])([H])N([H])C(=O)N3C([H])([H])C([H])([H])C([H])([H])C([H])(n5nc(-c6c([H])c([H])c(Oc7c([H])c([H])c(F)c([H])c7F)c([H])c6[H])c(C(=O)N([H])[H])c5N([H])[H])C3([H])[H])C([H])([H])C([H])([H])C([H])([H])C4=O)c([H])c([H])c2C1([H])[H]

$$$$
45:0:0
     RDKit          3D

 96104  0  0  1  0  0  0  0  0999 V2000
  -30.0680  -21.5180   21.4000 C   0  0  0  0  0  3  0  0  0  0  0  0
  -28.5310  -21.2930   19.6210 C   0  0  0  0  0  3  0  0  0  0  0  0
  -29.2130  -22.1990   20.4870 C   0  0  0  0  0  0  0  0  0  0  0  0
  -30.3200  -20.1000   21.3950 C   0  0  0  0  0  0  0  0  0  0  0  0
  -28.7640  -19.8580   19.5950 C   0  0  0  0  0  0  0  0  0  0  0  0
  -29.7410  -19.1980   20.4360 C   0  0  0  0  0  0  0  0  0  0  0  0
  -31.2970  -19.5840   22.4390 C   0  0  0  0  0  1  0  0  0  0  0  0
  -28.1710  -19.4440   17.1400 C   0  0  0  0  0  1  0  0  0  0  0  0
  -27.9200  -19.0610   18.6080 C   0  0  0  0  0  2  0  0  0  0  0  0
  -30.3210  -24.1710   19.3230 C   0  0  0  0  0  1  0  0  0  0  0  0
  -29.2660  -23.8200   20.3820 C   0  0  0  0  0  3  0  0  0  0  0  0
  -28.0110  -24.8480   20.1820 C   0  0  0  0  0  2  0  0  0  0  0  0
  -28.2330  -26.3550   20.2620 O   0  0  0  0  0  0  0  0  0  0  0  0
  -24.5710  -31.9160   23.2470 C   0  0  0  0  0  0  0  0  0  0  0  0
  -27.1400  -27.2640   20.2090 C   0  0  0  0  0  0  0  0  0  0  0  0
  -23.3570  -30.5160   21.6180 C   0  0  0  0  0  3  0  0  0  0  0  0
  -24.7950  -28.9460   20.1910 C   0  0  0  0  0  0  0  0  0  0  0  0
  -25.9040  -30.8040   21.4280 C   0  0  0  0  0  2  0  0  0  0  0  0
  -25.9740  -29.4160   20.7830 C   0  0  0  0  0  0  0  0  0  0  0  0
  -27.1490  -28.5910   20.7740 C   0  0  0  0  0  3  0  0  0  0  0  0
  -25.9320  -26.8690   19.5910 C   0  0  0  0  0  3  0  0  0  0  0  0
  -24.7820  -27.6820   19.5830 C   0  0  0  0  0  3  0  0  0  0  0  0
  -23.5660  -29.8340   20.2400 C   0  0  0  0  0  2  0  0  0  0  0  0
  -24.6310  -31.0980   22.1540 N   0  0  0  0  0  0  0  0  0  0  0  0
  -23.4900  -32.2010   23.7830 O   0  0  0  0  0  0  0  0  0  0  0  0
  -22.6900  -29.5090   22.5860 C   0  0  0  0  0  0  0  0  0  0  0  0
  -21.3640  -29.3280   22.4580 N   0  0  0  0  0  0  0  0  0  0  0  0
  -23.3650  -28.8930   23.4140 O   0  0  0  0  0  0  0  0  0  0  0  0
  -20.8760  -29.8770   21.7640 H   0  0  0  0  0  0  0  0  0  0  0  0
  -17.9870  -28.1250   22.9660 C   0  0  0  0  0  0  0  0  0  0  0  0
  -20.5450  -28.3950   23.2350 C   0  0  0  0  0  3  0  0  0  0  0  0
  -20.6500  -26.9580   22.6710 C   0  0  0  0  0  2  0  0  0  0  0  0
  -19.5500  -26.6250   21.6580 C   0  0  0  0  0  2  0  0  0  0  0  0
  -18.1670  -26.7720   22.2990 C   0  0  0  0  0  2  0  0  0  0  0  0
  -19.1030  -28.8930   23.3910 C   0  0  0  0  0  0  0  0  0  0  0  0
  -18.8790  -30.1590   23.9750 C   0  0  0  0  0  3  0  0  0  0  0  0
  -17.5730  -30.6570   24.1370 C   0  0  0  0  0  3  0  0  0  0  0  0
  -16.4710  -29.8860   23.7270 C   0  0  0  0  0  3  0  0  0  0  0  0
  -16.6780  -28.6220   23.1470 C   0  0  0  0  0  3  0  0  0  0  0  0
  -25.8560  -32.5480   23.8630 C   0  0  0  0  0  3  0  0  0  0  0  0
  -26.3730  -31.7810   25.1420 C   0  0  1  0  0  0  0  0  0  0  0  0
  -25.2800  -31.5480   26.2120 C   0  0  0  0  0  1  0  0  0  0  0  0
  -26.9550  -30.4010   24.7570 C   0  0  0  0  0  1  0  0  0  0  0  0
  -27.5250  -32.5760   25.8000 C   0  0  0  0  0  1  0  0  0  0  0  0
  -25.5500  -33.9480   24.1930 N   0  0  0  0  0  0  0  0  0  0  0  0
  -25.8780  -35.0000   23.4310 C   0  0  0  0  0  0  0  0  0  0  0  0
  -26.5380  -34.8950   22.3940 O   0  0  0  0  0  0  0  0  0  0  0  0
  -24.9630  -34.1050   24.9980 H   0  0  0  0  0  0  0  0  0  0  0  0
  -24.1550  -36.8010   23.0880 C   0  0  0  0  0  1  0  0  0  0  0  0
  -25.3990  -36.3910   23.8920 C   0  0  0  0  0  3  0  0  0  0  0  0
  -27.5380  -37.2730   24.7160 C   0  0  0  0  0  1  0  0  0  0  0  0
  -26.4350  -37.4410   23.7730 N   0  0  0  0  0  0  0  0  0  0  0  0
  -26.0330  -38.3630   23.9180 H   0  0  0  0  0  0  0  0  0  0  0  0
  -30.3870  -17.7070   20.1840 C   0  0  0  0  0  3  0  0  0  0  0  0
  -29.7150  -16.2640   20.6110 C   0  0  0  0  0  2  0  0  0  0  0  0
  -30.5120  -14.8540   20.3940 C   0  0  0  0  0  0  0  0  0  0  0  0
  -30.3350  -12.5600   19.3950 C   0  0  0  0  0  2  0  0  0  0  0  0
  -29.4020  -12.6220   18.1640 C   0  0  0  0  0  2  0  0  0  0  0  0
  -27.9310  -12.4370   18.5870 C   0  0  0  0  0  2  0  0  0  0  0  0
  -27.5470  -13.3250   19.8000 C   0  0  0  0  0  3  0  0  0  0  0  0
  -28.6020  -13.2620   20.9230 C   0  0  0  0  0  2  0  0  0  0  0  0
  -29.9000  -13.6160   20.3410 N   0  0  0  0  0  0  0  0  0  0  0  0
  -31.7120  -14.9060   20.1100 O   0  0  0  0  0  0  0  0  0  0  0  0
  -25.1650  -13.9070   20.5430 C   0  0  0  0  0  0  0  0  0  0  0  0
  -24.0990  -13.1300   20.9070 C   0  0  0  0  0  0  0  0  0  0  0  0
  -24.5630  -11.7800   20.8680 C   0  0  0  0  0  0  0  0  0  0  0  0
  -26.2060  -13.0290   20.2940 N   0  0  0  0  0  0  0  0  0  0  0  0
  -25.8530  -11.7450   20.5570 N   0  0  0  0  0  0  0  0  0  0  0  0
  -23.8370  -10.5160   21.0500 C   0  0  0  0  0  0  0  0  0  0  0  0
  -24.2580   -9.5500   21.9890 C   0  0  0  0  0  3  0  0  0  0  0  0
  -23.5310   -8.3520   22.1590 C   0  0  0  0  0  3  0  0  0  0  0  0
  -22.3680   -8.1120   21.3890 C   0  0  0  0  0  0  0  0  0  0  0  0
  -21.9660   -9.0670   20.4390 C   0  0  0  0  0  3  0  0  0  0  0  0
  -22.6940  -10.2570   20.2680 C   0  0  0  0  0  3  0  0  0  0  0  0
  -21.6140   -6.9670   21.4680 O   0  0  0  0  0  0  0  0  0  0  0  0
  -21.5390   -6.2310   22.6240 C   0  0  0  0  0  0  0  0  0  0  0  0
  -21.0540   -6.7850   23.8290 C   0  0  0  0  0  3  0  0  0  0  0  0
  -20.9290   -5.9750   24.9750 C   0  0  0  0  0  3  0  0  0  0  0  0
  -21.2780   -4.6120   24.9170 C   0  0  0  0  0  0  0  0  0  0  0  0
  -21.7540   -4.0570   23.7160 C   0  0  0  0  0  3  0  0  0  0  0  0
  -21.8820   -4.8650   22.5720 C   0  0  0  0  0  0  0  0  0  0  0  0
  -22.3200   -4.3210   21.4120 F   0  0  0  0  0  0  0  0  0  0  0  0
  -21.1490   -3.8320   26.0160 F   0  0  0  0  0  0  0  0  0  0  0  0
  -22.7030  -13.6050   21.1810 C   0  0  0  0  0  0  0  0  0  0  0  0
  -21.9720  -12.9030   22.0390 N   0  0  0  0  0  0  0  0  0  0  0  0
  -22.2670  -14.6360   20.6680 O   0  0  0  0  0  0  0  0  0  0  0  0
  -22.3370  -12.0710   22.4780 H   0  0  0  0  0  0  0  0  0  0  0  0
  -21.0330  -13.2020   22.2620 H   0  0  0  0  0  0  0  0  0  0  0  0
  -25.3310  -15.2790   20.3770 N   0  0  0  0  0  0  0  0  0  0  0  0
  -24.5680  -15.9360   20.5060 H   0  0  0  0  0  0  0  0  0  0  0  0
  -26.1860  -15.7220   20.0710 H   0  0  0  0  0  0  0  0  0  0  0  0
  -30.9870  -17.6550   18.7510 C   0  0  0  0  0  2  0  0  0  0  0  0
  -31.8510  -18.8170   18.4700 N   0  0  0  0  0  4  0  0  0  0  0  0
  -31.3350  -19.6680   18.6160 H   0  0  0  0  0  0  0  0  0  0  0  0
  -32.1810  -18.7910   17.5200 H   0  0  0  0  0  0  0  0  0  0  0  0
  -32.6510  -18.8190   19.0790 H   0  0  0  0  0  0  0  0  0  0  0  0
  2  3  1  0
  3  1  2  0
  4  1  1  0
  4  7  1  0
  5  2  2  0
  5  6  1  0
  6  4  2  0
  8  9  1  0
  9  5  1  0
 11 10  1  0
 11  3  1  0
 12 13  1  0
 12 11  1  0
 14 25  2  0
 15 13  1  0
 15 20  1  0
 16 24  1  0
 16 26  1  0
 17 23  1  0
 17 19  1  0
 18 24  1  0
 19 18  1  0
 20 19  2  0
 21 15  2  0
 22 21  1  0
 22 17  2  0
 23 16  1  0
 24 14  1  0
 26 28  2  0
 27 26  1  0
 29 27  1  0
 30 39  2  0
 30 35  1  0
 31 27  1  0
 31 35  1  0
 32 31  1  0
 33 34  1  0
 33 32  1  0
 34 30  1  0
 35 36  2  0
 36 37  1  0
 38 37  2  0
 39 38  1  0
 40 14  1  0
 40 45  1  0
 40 41  1  0
 41 44  1  1
 41 42  1  0
 43 41  1  0
 45 48  1  0
 46 50  1  0
 46 45  1  0
 47 46  2  0
 50 49  1  0
 52 50  1  0
 52 53  1  0
 52 51  1  0
 54 92  1  0
 54  6  1  0
 54 55  1  0
 56 55  1  0
 57 62  1  0
 58 59  1  0
 58 57  1  0
 60 59  1  0
 60 67  1  0
 60 61  1  0
 62 56  1  0
 62 61  1  0
 63 56  2  0
 64 65  2  0
 65 84  1  0
 66 65  1  0
 66 69  1  0
 67 64  1  0
 67 68  1  0
 68 66  2  0
 69 70  1  0
 70 71  2  0
 72 75  1  0
 72 71  1  0
 73 72  2  0
 74 73  1  0
 74 69  2  0
 75 76  1  0
 76 77  1  0
 77 78  2  0
 79 78  1  0
 79 83  1  0
 80 79  2  0
 81 76  2  0
 81 80  1  0
 82 81  1  0
 84 85  1  0
 85 88  1  0
 85 87  1  0
 86 84  2  0
 89 90  1  0
 89 64  1  0
 91 89  1  0
 93 94  1  0
 93 92  1  0
 93 96  1  0
 95 93  1  0
M  ISO  4  12 101  13 101  55 100  56 100
M  END
>  <TORSDO>  (45) 
F 23

>  <SCORE>  (45) 
-13.388

>  <name>  (45) 
45

>  <ligand_id>  (45) 
45

>  <original_smiles>  (45) 
[H]c1c([H])c([H])c2c(c1[H])C([H])([H])C([H])([H])C([H])([H])C2([H])N([H])C(=O)C1([H])N(C(=O)C([H])(N([H])C(=O)C([H])(N([H])C([H])([H])[H])C([H])([H])[H])C(C([H])([H])[H])(C([H])([H])[H])C([H])([H])[H])C([H])([H])c2c([H])c(OC([H])([H])C([H])(c3c([H])c(C([H])([H])[H])c(C([H])(C([H])([H])C(=O)N4C([H])([H])C([H])([H])C([H])([H])C([H])(n5nc(-c6c([H])c([H])c(Oc7c([H])c([H])c(F)c([H])c7F)c([H])c6[H])c(C(=O)N([H])[H])c5N([H])[H])C4([H])[H])C([H])([H])[N+]([H])([H])[H])c(C([H])([H])C([H])([H])[H])c3[H])C([H])([H])[H])c([H])c([H])c2C1([H])[H]

>  <smiles>  (45) 
[H]c1c([H])c([H])c2c(c1[H])C([H])([H])C([H])([H])C([H])([H])C2([H])N([H])C(=O)C1([H])N(C(=O)C([H])(N([H])C(=O)C([H])(N([H])C([H])([H])[H])C([H])([H])[H])C(C([H])([H])[H])(C([H])([H])[H])C([H])([H])[H])C([H])([H])c2c([H])c(OC([H])([H])C([H])(c3c([H])c(C([H])([H])[H])c(C([H])(C([H])([H])C(=O)N4C([H])([H])C([H])([H])C([H])([H])C([H])(n5nc(-c6c([H])c([H])c(Oc7c([H])c([H])c(F)c([H])c7F)c([H])c6[H])c(C(=O)N([H])[H])c5N([H])[H])C4([H])[H])C([H])([H])[N+]([H])([H])[H])c(C([H])([H])C([H])([H])[H])c3[H])C([H])([H])[H])c([H])c([H])c2C1([H])[H]

$$$$
46:0:0
     RDKit          3D

 93101  0  0  1  0  0  0  0  0999 V2000
  -28.7840  -22.1730   19.2230 C   0  0  0  0  0  2  0  0  0  0  0  0
  -28.8970  -18.4380   20.1540 C   0  0  0  0  0  3  0  0  0  0  0  0
  -28.5830  -19.8140   20.1470 C   0  0  0  0  0  3  0  0  0  0  0  0
  -30.4500  -18.8090   18.3240 C   0  0  0  0  0  3  0  0  0  0  0  0
  -29.8290  -17.9240   19.2300 C   0  0  0  0  0  0  0  0  0  0  0  0
  -29.1900  -20.6960   19.2230 C   0  0  0  0  0  0  0  0  0  0  0  0
  -30.1450  -20.1840   18.3080 C   0  0  0  0  0  0  0  0  0  0  0  0
  -30.8480  -21.0690   17.2890 C   0  0  0  0  0  1  0  0  0  0  0  0
  -30.1440  -16.4400   19.0920 C   0  0  0  0  0  2  0  0  0  0  0  0
  -30.6950  -14.4720   20.4000 C   0  0  0  0  0  0  0  0  0  0  0  0
  -30.3860  -12.2830   19.3770 C   0  0  0  0  0  2  0  0  0  0  0  0
  -29.4740  -12.5100   18.1520 C   0  0  0  0  0  2  0  0  0  0  0  0
  -27.9920  -12.3950   18.5550 C   0  0  0  0  0  2  0  0  0  0  0  0
  -27.6390  -13.2430   19.8070 C   0  0  0  0  0  3  0  0  0  0  0  0
  -28.6820  -13.0540   20.9360 C   0  0  0  0  0  2  0  0  0  0  0  0
  -30.0190  -13.2970   20.3760 N   0  0  0  0  0  0  0  0  0  0  0  0
  -31.8990  -14.5630   20.1530 O   0  0  0  0  0  0  0  0  0  0  0  0
  -29.9040  -15.5460   20.2370 N   0  0  0  0  0  0  0  0  0  0  0  0
  -28.9390  -15.4220   20.5000 H   0  0  0  0  0  0  0  0  0  0  0  0
  -25.2350  -13.8650   20.4720 C   0  0  0  0  0  0  0  0  0  0  0  0
  -24.1600  -13.0970   20.8330 C   0  0  0  0  0  0  0  0  0  0  0  0
  -24.6200  -11.7450   20.8290 C   0  0  0  0  0  0  0  0  0  0  0  0
  -26.2820  -12.9790   20.2710 N   0  0  0  0  0  0  0  0  0  0  0  0
  -25.9160  -11.7010   20.5460 N   0  0  0  0  0  0  0  0  0  0  0  0
  -23.8900  -10.4870   21.0220 C   0  0  0  0  0  0  0  0  0  0  0  0
  -24.3100   -9.5270   21.9670 C   0  0  0  0  0  3  0  0  0  0  0  0
  -23.5800   -8.3330   22.1480 C   0  0  0  0  0  3  0  0  0  0  0  0
  -22.4170   -8.0880   21.3820 C   0  0  0  0  0  0  0  0  0  0  0  0
  -22.0160   -9.0360   20.4240 C   0  0  0  0  0  3  0  0  0  0  0  0
  -22.7460  -10.2230   20.2410 C   0  0  0  0  0  3  0  0  0  0  0  0
  -21.6620   -6.9440   21.4690 O   0  0  0  0  0  0  0  0  0  0  0  0
  -21.6060   -6.2070   22.6240 C   0  0  0  0  0  0  0  0  0  0  0  0
  -21.1820   -6.7680   23.8480 C   0  0  0  0  0  3  0  0  0  0  0  0
  -21.0730   -5.9570   24.9950 C   0  0  0  0  0  3  0  0  0  0  0  0
  -21.3780   -4.5830   24.9200 C   0  0  0  0  0  0  0  0  0  0  0  0
  -21.7950   -4.0220   23.7000 C   0  0  0  0  0  3  0  0  0  0  0  0
  -21.9070   -4.8310   22.5560 C   0  0  0  0  0  0  0  0  0  0  0  0
  -22.2880   -4.2810   21.3780 F   0  0  0  0  0  0  0  0  0  0  0  0
  -21.2660   -3.8020   26.0190 F   0  0  0  0  0  0  0  0  0  0  0  0
  -22.7590  -13.5800   21.0730 C   0  0  0  0  0  0  0  0  0  0  0  0
  -22.0170  -12.8950   21.9370 N   0  0  0  0  0  0  0  0  0  0  0  0
  -22.3300  -14.5990   20.5320 O   0  0  0  0  0  0  0  0  0  0  0  0
  -22.3770  -12.0700   22.3940 H   0  0  0  0  0  0  0  0  0  0  0  0
  -21.0750  -13.1970   22.1400 H   0  0  0  0  0  0  0  0  0  0  0  0
  -25.4020  -15.2330   20.2770 N   0  0  0  0  0  0  0  0  0  0  0  0
  -24.6270  -15.8810   20.3430 H   0  0  0  0  0  0  0  0  0  0  0  0
  -26.2480  -15.6690   19.9330 H   0  0  0  0  0  0  0  0  0  0  0  0
  -30.8030  -22.5640   20.8190 C   0  0  0  0  0  1  0  0  0  0  0  0
  -29.4030  -23.0290   20.3620 C   0  0  0  0  0  3  0  0  0  0  0  0
  -29.4120  -24.5240   19.9970 C   0  0  0  0  0  0  0  0  0  0  0  0
  -30.2920  -25.0030   19.2700 O   0  0  0  0  0  0  0  0  0  0  0  0
  -28.2790  -25.3820   20.5660 C   0  0  0  0  0  2  0  0  0  0  0  0
  -28.3890  -26.7440   20.1290 O   0  0  0  0  0  0  0  0  0  0  0  0
  -24.5840  -31.8820   23.2440 C   0  0  0  0  0  0  0  0  0  0  0  0
  -27.2150  -27.4580   20.1460 C   0  0  0  0  0  0  0  0  0  0  0  0
  -23.3680  -30.4800   21.6070 C   0  0  0  0  0  3  0  0  0  0  0  0
  -24.8160  -28.9460   20.1760 C   0  0  0  0  0  0  0  0  0  0  0  0
  -25.8890  -30.8480   21.3930 C   0  0  0  0  0  2  0  0  0  0  0  0
  -25.9740  -29.4760   20.7570 C   0  0  0  0  0  0  0  0  0  0  0  0
  -27.1790  -28.7380   20.7380 C   0  0  0  0  0  3  0  0  0  0  0  0
  -26.0420  -26.9450   19.5490 C   0  0  0  0  0  3  0  0  0  0  0  0
  -24.8440  -27.6800   19.5690 C   0  0  0  0  0  3  0  0  0  0  0  0
  -23.5700  -29.8010   20.2270 C   0  0  0  0  0  2  0  0  0  0  0  0
  -24.6320  -31.0850   22.1410 N   0  0  0  0  0  0  0  0  0  0  0  0
  -23.5060  -32.1520   23.7920 O   0  0  0  0  0  0  0  0  0  0  0  0
  -22.7240  -29.4580   22.5710 C   0  0  0  0  0  0  0  0  0  0  0  0
  -21.3990  -29.2750   22.4520 N   0  0  0  0  0  0  0  0  0  0  0  0
  -23.4140  -28.8300   23.3800 O   0  0  0  0  0  0  0  0  0  0  0  0
  -20.9030  -29.8350   21.7730 H   0  0  0  0  0  0  0  0  0  0  0  0
  -18.0300  -28.0780   22.9610 C   0  0  0  0  0  0  0  0  0  0  0  0
  -20.5880  -28.3350   23.2260 C   0  0  0  0  0  3  0  0  0  0  0  0
  -20.6890  -26.9040   22.6490 C   0  0  0  0  0  2  0  0  0  0  0  0
  -19.5840  -26.5820   21.6380 C   0  0  0  0  0  2  0  0  0  0  0  0
  -18.2050  -26.7270   22.2860 C   0  0  0  0  0  2  0  0  0  0  0  0
  -19.1490  -28.8400   23.3880 C   0  0  0  0  0  0  0  0  0  0  0  0
  -18.9330  -30.1040   23.9780 C   0  0  0  0  0  3  0  0  0  0  0  0
  -17.6300  -30.6080   24.1440 C   0  0  0  0  0  3  0  0  0  0  0  0
  -16.5240  -29.8430   23.7340 C   0  0  0  0  0  3  0  0  0  0  0  0
  -16.7250  -28.5800   23.1490 C   0  0  0  0  0  3  0  0  0  0  0  0
  -25.8740  -32.5120   23.8550 C   0  0  0  0  0  3  0  0  0  0  0  0
  -25.5690  -33.9100   24.1880 N   0  0  0  0  0  0  0  0  0  0  0  0
  -25.9040  -34.9630   23.4280 C   0  0  0  0  0  0  0  0  0  0  0  0
  -26.5750  -34.8580   22.3970 O   0  0  0  0  0  0  0  0  0  0  0  0
  -24.9730  -34.0660   24.9880 H   0  0  0  0  0  0  0  0  0  0  0  0
  -24.1830  -36.7600   23.0680 C   0  0  0  0  0  1  0  0  0  0  0  0
  -25.4190  -36.3520   23.8850 C   0  0  0  0  0  3  0  0  0  0  0  0
  -27.5530  -37.2260   24.7270 C   0  0  0  0  0  1  0  0  0  0  0  0
  -26.4550  -37.4010   23.7800 N   0  0  0  0  0  0  0  0  0  0  0  0
  -26.0510  -38.3210   23.9300 H   0  0  0  0  0  0  0  0  0  0  0  0
  -26.4040  -31.7390   25.1240 C   0  0  1  0  0  0  0  0  0  0  0  0
  -25.3210  -31.5000   26.2020 C   0  0  0  0  0  1  0  0  0  0  0  0
  -26.9840  -30.3630   24.7220 C   0  0  0  0  0  1  0  0  0  0  0  0
  -27.5610  -32.5310   25.7780 C   0  0  0  0  0  1  0  0  0  0  0  0
  1  6  1  0
  1 49  1  0
  3  2  1  0
  4  5  1  0
  5  2  2  0
  6  3  2  0
  7  4  2  0
  7  6  1  0
  8  7  1  0
  9  5  1  0
  9 18  1  0
 11 16  1  0
 12 13  1  0
 12 11  1  0
 14 13  1  0
 14 23  1  0
 14 15  1  0
 16 10  1  0
 16 15  1  0
 17 10  2  0
 18 10  1  0
 18 19  1  0
 20 21  2  0
 21 40  1  0
 22 21  1  0
 22 25  1  0
 23 20  1  0
 23 24  1  0
 24 22  2  0
 25 26  1  0
 26 27  2  0
 28 31  1  0
 28 27  1  0
 29 28  2  0
 30 29  1  0
 30 25  2  0
 31 32  1  0
 32 33  1  0
 33 34  2  0
 35 34  1  0
 35 39  1  0
 36 35  2  0
 37 32  2  0
 37 36  1  0
 38 37  1  0
 40 41  1  0
 41 44  1  0
 41 43  1  0
 42 40  2  0
 45 46  1  0
 45 20  1  0
 47 45  1  0
 49 48  1  0
 50 49  1  0
 50 52  1  0
 51 50  2  0
 53 55  1  0
 53 52  1  0
 54 65  2  0
 55 60  1  0
 56 64  1  0
 56 66  1  0
 57 63  1  0
 57 59  1  0
 58 64  1  0
 59 58  1  0
 60 59  2  0
 61 62  1  0
 61 55  2  0
 62 57  2  0
 63 56  1  0
 64 54  1  0
 66 68  2  0
 67 66  1  0
 69 67  1  0
 70 79  2  0
 70 75  1  0
 71 67  1  0
 71 75  1  0
 72 71  1  0
 73 74  1  0
 73 72  1  0
 74 70  1  0
 75 76  2  0
 76 77  1  0
 78 77  2  0
 79 78  1  0
 80 54  1  0
 80 81  1  0
 80 90  1  0
 81 84  1  0
 82 86  1  0
 82 81  1  0
 83 82  2  0
 86 85  1  0
 88 86  1  0
 88 89  1  0
 88 87  1  0
 90 93  1  1
 90 91  1  0
 92 90  1  0
M  ISO  4  10 100  18 100  52 101  53 101
M  END
>  <TORSDO>  (46) 
F 21

>  <SCORE>  (46) 
-13.522

>  <name>  (46) 
46

>  <ligand_id>  (46) 
46

>  <original_smiles>  (46) 
[H]c1c([H])c([H])c2c(c1[H])C([H])([H])C([H])([H])C([H])([H])C2([H])N([H])C(=O)C1([H])N(C(=O)C([H])(N([H])C(=O)C([H])(N([H])C([H])([H])[H])C([H])([H])[H])C(C([H])([H])[H])(C([H])([H])[H])C([H])([H])[H])C([H])([H])c2c([H])c(OC([H])([H])C(=O)C([H])(C([H])([H])[H])C([H])([H])c3c([H])c([H])c(C([H])([H])N([H])C(=O)N4C([H])([H])C([H])([H])C([H])([H])C([H])(n5nc(-c6c([H])c([H])c(Oc7c([H])c([H])c(F)c([H])c7F)c([H])c6[H])c(C(=O)N([H])[H])c5N([H])[H])C4([H])[H])c([H])c3C([H])([H])[H])c([H])c([H])c2C1([H])[H]

>  <smiles>  (46) 
[H]c1c([H])c([H])c2c(c1[H])C([H])([H])C([H])([H])C([H])([H])C2([H])N([H])C(=O)C1([H])N(C(=O)C([H])(N([H])C(=O)C([H])(N([H])C([H])([H])[H])C([H])([H])[H])C(C([H])([H])[H])(C([H])([H])[H])C([H])([H])[H])C([H])([H])c2c([H])c(OC([H])([H])C(=O)C([H])(C([H])([H])[H])C([H])([H])c3c([H])c([H])c(C([H])([H])N([H])C(=O)N4C([H])([H])C([H])([H])C([H])([H])C([H])(n5nc(-c6c([H])c([H])c(Oc7c([H])c([H])c(F)c([H])c7F)c([H])c6[H])c(C(=O)N([H])[H])c5N([H])[H])C4([H])[H])c([H])c3C([H])([H])[H])c([H])c([H])c2C1([H])[H]

$$$$
47:0:0
     RDKit          3D

 90 99  0  0  1  0  0  0  0  0999 V2000
  -30.4760  -15.1620   20.3840 C   0  0  0  0  0  0  0  0  0  0  0  0
  -30.3810  -12.7610   19.4760 C   0  0  0  0  0  2  0  0  0  0  0  0
  -29.4670  -12.6110   18.2400 C   0  0  0  0  0  2  0  0  0  0  0  0
  -28.0130  -12.3620   18.6760 C   0  0  0  0  0  2  0  0  0  0  0  0
  -27.5710  -13.3320   19.8000 C   0  0  0  0  0  3  0  0  0  0  0  0
  -28.6090  -13.4500   20.9340 C   0  0  0  0  0  2  0  0  0  0  0  0
  -29.8570  -13.8990   20.3040 N   0  0  0  0  0  0  0  0  0  0  0  0
  -31.7050  -15.1260   20.2120 O   0  0  0  0  0  0  0  0  0  0  0  0
  -30.2920  -19.2020   21.0480 C   0  0  0  0  0  2  0  0  0  0  0  0
  -28.2880  -18.6940   19.8780 C   0  0  0  0  0  2  0  0  0  0  0  0
  -29.7590  -22.4660   19.3910 C   0  0  0  0  0  2  0  0  0  0  0  0
  -28.3630  -21.3900   20.9120 C   0  0  0  0  0  2  0  0  0  0  0  0
  -30.2360  -17.5940   21.4700 C   0  0  0  0  0  2  0  0  0  0  0  0
  -28.9770  -17.2310   19.5150 C   0  0  0  0  0  2  0  0  0  0  0  0
  -28.4440  -22.8730   20.1050 C   0  0  0  0  0  3  0  0  0  0  0  0
  -29.7400  -20.8990   19.0660 C   0  0  0  0  0  3  0  0  0  0  0  0
  -29.1390  -20.0300   20.2500 C   0  0  1  0  0  0  0  0  0  0  0  0
  -29.7940  -16.4540   20.5430 N   0  0  0  0  0  0  0  0  0  0  0  0
  -25.1990  -13.9110   20.5310 C   0  0  0  0  0  0  0  0  0  0  0  0
  -24.1300  -13.1390   20.8860 C   0  0  0  0  0  0  0  0  0  0  0  0
  -24.5940  -11.7890   20.8740 C   0  0  0  0  0  0  0  0  0  0  0  0
  -26.2390  -13.0310   20.3010 N   0  0  0  0  0  0  0  0  0  0  0  0
  -25.8890  -11.7480   20.5780 N   0  0  0  0  0  0  0  0  0  0  0  0
  -23.8630  -10.5280   21.0630 C   0  0  0  0  0  0  0  0  0  0  0  0
  -24.2870   -9.5590   22.0000 C   0  0  0  0  0  3  0  0  0  0  0  0
  -23.5550   -8.3660   22.1740 C   0  0  0  0  0  3  0  0  0  0  0  0
  -22.3830   -8.1340   21.4140 C   0  0  0  0  0  0  0  0  0  0  0  0
  -21.9800   -9.0910   20.4670 C   0  0  0  0  0  3  0  0  0  0  0  0
  -22.7130  -10.2760   20.2910 C   0  0  0  0  0  3  0  0  0  0  0  0
  -21.6210   -6.9940   21.5020 O   0  0  0  0  0  0  0  0  0  0  0  0
  -21.5650   -6.2530   22.6550 C   0  0  0  0  0  0  0  0  0  0  0  0
  -21.1490   -6.8150   23.8800 C   0  0  0  0  0  3  0  0  0  0  0  0
  -21.0420   -6.0000   25.0270 C   0  0  0  0  0  3  0  0  0  0  0  0
  -21.3400   -4.6290   24.9470 C   0  0  0  0  0  0  0  0  0  0  0  0
  -21.7460   -4.0660   23.7230 C   0  0  0  0  0  3  0  0  0  0  0  0
  -21.8570   -4.8760   22.5810 C   0  0  0  0  0  0  0  0  0  0  0  0
  -22.2330   -4.3260   21.4010 F   0  0  0  0  0  0  0  0  0  0  0  0
  -21.2250   -3.8430   26.0440 F   0  0  0  0  0  0  0  0  0  0  0  0
  -22.7290  -13.6200   21.1350 C   0  0  0  0  0  0  0  0  0  0  0  0
  -21.9920  -12.9350   22.0000 N   0  0  0  0  0  0  0  0  0  0  0  0
  -22.3010  -14.6410   20.5970 O   0  0  0  0  0  0  0  0  0  0  0  0
  -22.3510  -12.1050   22.4500 H   0  0  0  0  0  0  0  0  0  0  0  0
  -21.0530  -13.2430   22.2160 H   0  0  0  0  0  0  0  0  0  0  0  0
  -25.3690  -15.2830   20.3550 N   0  0  0  0  0  0  0  0  0  0  0  0
  -24.6050  -15.9360   20.4920 H   0  0  0  0  0  0  0  0  0  0  0  0
  -26.2390  -15.7320   20.1020 H   0  0  0  0  0  0  0  0  0  0  0  0
  -28.9580  -20.7120   17.8970 O   0  0  0  0  0  0  0  0  0  0  0  0
  -28.0450  -20.6850   18.1630 H   0  0  0  0  0  0  0  0  0  0  0  0
  -28.1460  -24.4900   20.7550 C   0  0  0  0  0  2  0  0  0  0  0  0
  -28.3100  -26.0240   20.2870 O   0  0  0  0  0  0  0  0  0  0  0  0
  -24.6740  -31.8870   23.2410 C   0  0  0  0  0  0  0  0  0  0  0  0
  -27.2690  -27.0590   20.2970 C   0  0  0  0  0  0  0  0  0  0  0  0
  -23.4910  -30.4630   21.6160 C   0  0  0  0  0  3  0  0  0  0  0  0
  -24.9530  -28.8640   20.2230 C   0  0  0  0  0  0  0  0  0  0  0  0
  -26.0510  -30.7170   21.4610 C   0  0  0  0  0  2  0  0  0  0  0  0
  -26.1350  -29.3060   20.8270 C   0  0  0  0  0  0  0  0  0  0  0  0
  -27.2980  -28.4260   20.8320 C   0  0  0  0  0  3  0  0  0  0  0  0
  -26.0550  -26.7370   19.6580 C   0  0  0  0  0  3  0  0  0  0  0  0
  -24.9310  -27.5960   19.6200 C   0  0  0  0  0  3  0  0  0  0  0  0
  -23.7270  -29.7710   20.2480 C   0  0  0  0  0  2  0  0  0  0  0  0
  -24.7590  -31.0470   22.1620 N   0  0  0  0  0  0  0  0  0  0  0  0
  -23.5820  -32.1700   23.7590 O   0  0  0  0  0  0  0  0  0  0  0  0
  -22.8080  -29.4690   22.5890 C   0  0  0  0  0  0  0  0  0  0  0  0
  -21.4800  -29.2900   22.4630 N   0  0  0  0  0  0  0  0  0  0  0  0
  -23.4810  -28.8580   23.4230 O   0  0  0  0  0  0  0  0  0  0  0  0
  -20.9920  -29.8360   21.7670 H   0  0  0  0  0  0  0  0  0  0  0  0
  -18.1080  -28.0590   22.9670 C   0  0  0  0  0  0  0  0  0  0  0  0
  -20.6630  -28.3560   23.2430 C   0  0  0  0  0  3  0  0  0  0  0  0
  -20.7840  -26.9170   22.6920 C   0  0  0  0  0  2  0  0  0  0  0  0
  -19.6940  -26.5650   21.6760 C   0  0  0  0  0  2  0  0  0  0  0  0
  -18.3060  -26.7020   22.3090 C   0  0  0  0  0  2  0  0  0  0  0  0
  -19.2160  -28.8400   23.3910 C   0  0  0  0  0  0  0  0  0  0  0  0
  -18.9780  -30.1040   23.9720 C   0  0  0  0  0  3  0  0  0  0  0  0
  -17.6660  -30.5920   24.1250 C   0  0  0  0  0  3  0  0  0  0  0  0
  -16.5730  -29.8090   23.7170 C   0  0  0  0  0  3  0  0  0  0  0  0
  -16.7940  -28.5440   23.1430 C   0  0  0  0  0  3  0  0  0  0  0  0
  -25.9390  -32.5430   23.8670 C   0  0  0  0  0  3  0  0  0  0  0  0
  -25.6090  -33.9420   24.1930 N   0  0  0  0  0  0  0  0  0  0  0  0
  -25.9240  -35.0010   23.4360 C   0  0  0  0  0  0  0  0  0  0  0  0
  -26.5910  -34.9060   22.4030 O   0  0  0  0  0  0  0  0  0  0  0  0
  -25.0110  -34.0900   24.9930 H   0  0  0  0  0  0  0  0  0  0  0  0
  -24.1690  -36.7770   23.1040 C   0  0  0  0  0  1  0  0  0  0  0  0
  -25.4250  -36.3850   23.8980 C   0  0  0  0  0  3  0  0  0  0  0  0
  -27.5580  -37.3010   24.7020 C   0  0  0  0  0  1  0  0  0  0  0  0
  -26.4440  -37.4500   23.7700 N   0  0  0  0  0  0  0  0  0  0  0  0
  -26.0260  -38.3650   23.9200 H   0  0  0  0  0  0  0  0  0  0  0  0
  -26.4560  -31.7890   25.1540 C   0  0  1  0  0  0  0  0  0  0  0  0
  -25.3600  -31.5570   26.2200 C   0  0  0  0  0  1  0  0  0  0  0  0
  -27.0500  -30.4100   24.7860 C   0  0  0  0  0  1  0  0  0  0  0  0
  -27.5970  -32.5980   25.8150 C   0  0  0  0  0  1  0  0  0  0  0  0
  1 18  1  0
  2  7  1  0
  3  4  1  0
  3  2  1  0
  5  4  1  0
  5 22  1  0
  5  6  1  0
  7  1  1  0
  7  6  1  0
  8  1  2  0
  9 13  1  0
 11 15  1  0
 14 10  1  0
 14 18  1  0
 15 49  1  0
 15 12  1  0
 16 47  1  0
 16 11  1  0
 16 17  1  0
 17 10  1  6
 17 12  1  0
 17  9  1  0
 18 13  1  0
 19 20  2  0
 20 39  1  0
 21 20  1  0
 21 24  1  0
 22 19  1  0
 22 23  1  0
 23 21  2  0
 24 25  1  0
 25 26  2  0
 27 30  1  0
 27 26  1  0
 28 27  2  0
 29 28  1  0
 29 24  2  0
 30 31  1  0
 31 32  1  0
 32 33  2  0
 34 33  1  0
 34 38  1  0
 35 34  2  0
 36 31  2  0
 36 35  1  0
 37 36  1  0
 39 40  1  0
 40 43  1  0
 40 42  1  0
 41 39  2  0
 44 45  1  0
 44 19  1  0
 46 44  1  0
 47 48  1  0
 50 52  1  0
 50 49  1  0
 51 62  2  0
 52 57  1  0
 53 61  1  0
 53 63  1  0
 54 60  1  0
 54 56  1  0
 55 61  1  0
 56 57  2  0
 56 55  1  0
 58 52  2  0
 59 58  1  0
 59 54  2  0
 60 53  1  0
 61 51  1  0
 63 65  2  0
 64 63  1  0
 66 64  1  0
 67 76  2  0
 67 72  1  0
 68 64  1  0
 68 72  1  0
 69 68  1  0
 70 71  1  0
 70 69  1  0
 71 67  1  0
 72 73  2  0
 73 74  1  0
 75 74  2  0
 76 75  1  0
 77 51  1  0
 77 78  1  0
 77 87  1  0
 78 81  1  0
 79 83  1  0
 79 78  1  0
 80 79  2  0
 83 82  1  0
 85 83  1  0
 85 86  1  0
 85 84  1  0
 87 90  1  1
 87 88  1  0
 89 87  1  0
M  ISO  4   1 100  18 100  49 101  50 101
M  END
>  <TORSDO>  (47) 
F 17

>  <SCORE>  (47) 
-16.157

>  <name>  (47) 
47

>  <ligand_id>  (47) 
47

>  <original_smiles>  (47) 
[H]OC1([H])C([H])([H])C([H])(C([H])([H])Oc2c([H])c([H])c3c(c2[H])C([H])([H])N(C(=O)C([H])(N([H])C(=O)C([H])(N([H])C([H])([H])[H])C([H])([H])[H])C(C([H])([H])[H])(C([H])([H])[H])C([H])([H])[H])C([H])(C(=O)N([H])C2([H])c4c([H])c([H])c([H])c([H])c4C([H])([H])C([H])([H])C2([H])[H])C3([H])[H])C([H])([H])C12C([H])([H])C([H])([H])N(C(=O)N1C([H])([H])C([H])([H])C([H])([H])C([H])(n3nc(-c4c([H])c([H])c(Oc5c([H])c([H])c(F)c([H])c5F)c([H])c4[H])c(C(=O)N([H])[H])c3N([H])[H])C1([H])[H])C([H])([H])C2([H])[H]

>  <smiles>  (47) 
[H]OC1([H])C([H])([H])C([H])(C([H])([H])Oc2c([H])c([H])c3c(c2[H])C([H])([H])N(C(=O)C([H])(N([H])C(=O)C([H])(N([H])C([H])([H])[H])C([H])([H])[H])C(C([H])([H])[H])(C([H])([H])[H])C([H])([H])[H])C([H])(C(=O)N([H])C2([H])c4c([H])c([H])c([H])c([H])c4C([H])([H])C([H])([H])C2([H])[H])C3([H])[H])C([H])([H])C12C([H])([H])C([H])([H])N(C(=O)N1C([H])([H])C([H])([H])C([H])([H])C([H])(n3nc(-c4c([H])c([H])c(Oc5c([H])c([H])c(F)c([H])c5F)c([H])c4[H])c(C(=O)N([H])[H])c3N([H])[H])C1([H])[H])C([H])([H])C2([H])[H]

$$$$
48:0:0
     RDKit          3D

 91101  0  0  1  0  0  0  0  0999 V2000
  -30.5330  -15.7720   20.4980 C   0  0  0  0  0  0  0  0  0  0  0  0
  -30.5570  -13.2950   19.5910 C   0  0  0  0  0  2  0  0  0  0  0  0
  -29.6830  -12.9530   18.3560 C   0  0  0  0  0  2  0  0  0  0  0  0
  -28.2510  -12.6030   18.7850 C   0  0  0  0  0  2  0  0  0  0  0  0
  -27.7260  -13.5760   19.8660 C   0  0  0  0  0  3  0  0  0  0  0  0
  -28.7420  -13.8620   20.9940 C   0  0  0  0  0  2  0  0  0  0  0  0
  -29.9320  -14.4620   20.3500 N   0  0  0  0  0  0  0  0  0  0  0  0
  -31.7700  -15.6410   20.4600 O   0  0  0  0  0  0  0  0  0  0  0  0
  -31.0960  -21.0910   20.4330 C   0  0  0  0  0  2  0  0  0  0  0  0
  -30.4010  -22.4890   20.0860 C   0  0  0  0  0  2  0  0  0  0  0  0
  -28.2760  -21.1680   19.6320 C   0  0  0  0  0  2  0  0  0  0  0  0
  -29.1500  -21.2860   21.6520 C   0  0  0  0  0  2  0  0  0  0  0  0
  -30.4720  -18.4880   21.3460 C   0  0  0  0  0  2  0  0  0  0  0  0
  -29.1820  -19.7480   19.7080 C   0  0  0  0  0  3  0  0  0  0  0  0
  -28.8770  -18.0760   19.8080 C   0  0  0  0  0  3  0  0  0  0  0  0
  -30.0010  -20.0710   20.8920 C   0  0  2  0  0  0  0  0  0  0  0  0
  -28.9020  -22.4560   20.5130 C   0  0  1  0  0  0  0  0  0  0  0  0
  -29.9250  -17.1910   20.5970 N   0  0  0  0  0  0  0  0  0  0  0  0
  -25.3360  -14.0710   20.5710 C   0  0  0  0  0  0  0  0  0  0  0  0
  -24.2810  -13.2700   20.9000 C   0  0  0  0  0  0  0  0  0  0  0  0
  -24.7800  -11.9300   20.8820 C   0  0  0  0  0  0  0  0  0  0  0  0
  -26.4030  -13.2200   20.3550 N   0  0  0  0  0  0  0  0  0  0  0  0
  -26.0810  -11.9260   20.6120 N   0  0  0  0  0  0  0  0  0  0  0  0
  -24.0720  -10.6520   21.0420 C   0  0  0  0  0  0  0  0  0  0  0  0
  -24.4610   -9.7090   22.0190 C   0  0  0  0  0  3  0  0  0  0  0  0
  -23.7480   -8.4990   22.1680 C   0  0  0  0  0  3  0  0  0  0  0  0
  -22.6330   -8.2250   21.3430 C   0  0  0  0  0  0  0  0  0  0  0  0
  -22.2650   -9.1570   20.3560 C   0  0  0  0  0  3  0  0  0  0  0  0
  -22.9790  -10.3570   20.2040 C   0  0  0  0  0  3  0  0  0  0  0  0
  -21.8980   -7.0650   21.4000 O   0  0  0  0  0  0  0  0  0  0  0  0
  -21.7400   -6.3700   22.5730 C   0  0  0  0  0  0  0  0  0  0  0  0
  -21.1480   -6.9560   23.7120 C   0  0  0  0  0  3  0  0  0  0  0  0
  -20.9410   -6.1850   24.8730 C   0  0  0  0  0  3  0  0  0  0  0  0
  -21.3180   -4.8280   24.8940 C   0  0  0  0  0  0  0  0  0  0  0  0
  -21.9050   -4.2430   23.7590 C   0  0  0  0  0  3  0  0  0  0  0  0
  -22.1130   -5.0110   22.6010 C   0  0  0  0  0  0  0  0  0  0  0  0
  -22.6590   -4.4360   21.5020 F   0  0  0  0  0  0  0  0  0  0  0  0
  -21.1150   -4.0850   26.0070 F   0  0  0  0  0  0  0  0  0  0  0  0
  -22.8650  -13.7170   21.1180 C   0  0  0  0  0  0  0  0  0  0  0  0
  -22.1250  -13.0110   21.9630 N   0  0  0  0  0  0  0  0  0  0  0  0
  -22.4270  -14.7310   20.5760 O   0  0  0  0  0  0  0  0  0  0  0  0
  -22.4940  -12.1900   22.4200 H   0  0  0  0  0  0  0  0  0  0  0  0
  -21.1740  -13.2930   22.1550 H   0  0  0  0  0  0  0  0  0  0  0  0
  -25.4730  -15.4460   20.4060 N   0  0  0  0  0  0  0  0  0  0  0  0
  -24.6850  -16.0770   20.4990 H   0  0  0  0  0  0  0  0  0  0  0  0
  -26.3200  -15.9130   20.1090 H   0  0  0  0  0  0  0  0  0  0  0  0
  -27.3850  -18.1650   17.7290 C   0  0  0  0  0  1  0  0  0  0  0  0
  -29.7760  -17.3840   17.4720 C   0  0  0  0  0  1  0  0  0  0  0  0
  -28.5600  -17.4580   18.4200 C   0  0  0  0  0  3  0  0  0  0  0  0
  -28.0530  -24.1660   20.5950 C   0  0  0  0  0  2  0  0  0  0  0  0
  -28.3020  -25.8690   20.6560 O   0  0  0  0  0  0  0  0  0  0  0  0
  -24.7470  -32.1220   23.4070 C   0  0  0  0  0  0  0  0  0  0  0  0
  -27.3190  -27.0440   20.5630 C   0  0  0  0  0  0  0  0  0  0  0  0
  -23.5820  -30.6940   21.7800 C   0  0  0  0  0  3  0  0  0  0  0  0
  -25.0480  -29.0260   20.4270 C   0  0  0  0  0  0  0  0  0  0  0  0
  -26.1590  -30.8500   21.6910 C   0  0  0  0  0  2  0  0  0  0  0  0
  -26.2310  -29.4120   21.0670 C   0  0  0  0  0  0  0  0  0  0  0  0
  -27.3570  -28.4460   21.1030 C   0  0  0  0  0  3  0  0  0  0  0  0
  -26.1020  -26.8460   19.8690 C   0  0  0  0  0  3  0  0  0  0  0  0
  -25.0160  -27.7660   19.8060 C   0  0  0  0  0  3  0  0  0  0  0  0
  -23.8400  -29.9720   20.4280 C   0  0  0  0  0  2  0  0  0  0  0  0
  -24.8520  -31.2540   22.3460 N   0  0  0  0  0  0  0  0  0  0  0  0
  -23.6470  -32.4350   23.8950 O   0  0  0  0  0  0  0  0  0  0  0  0
  -22.8530  -29.7330   22.7590 C   0  0  0  0  0  0  0  0  0  0  0  0
  -21.5350  -29.5240   22.5710 N   0  0  0  0  0  0  0  0  0  0  0  0
  -23.4840  -29.1740   23.6600 O   0  0  0  0  0  0  0  0  0  0  0  0
  -21.0760  -30.0250   21.8230 H   0  0  0  0  0  0  0  0  0  0  0  0
  -18.1670  -28.2210   22.9600 C   0  0  0  0  0  0  0  0  0  0  0  0
  -20.6980  -28.5980   23.3450 C   0  0  0  0  0  3  0  0  0  0  0  0
  -20.8800  -27.1430   22.8540 C   0  0  0  0  0  2  0  0  0  0  0  0
  -19.8490  -26.7280   21.7990 C   0  0  0  0  0  2  0  0  0  0  0  0
  -18.4300  -26.8490   22.3610 C   0  0  0  0  0  2  0  0  0  0  0  0
  -19.2320  -29.0470   23.4070 C   0  0  0  0  0  0  0  0  0  0  0  0
  -18.9320  -30.3240   23.9310 C   0  0  0  0  0  3  0  0  0  0  0  0
  -17.6010  -30.7770   24.0080 C   0  0  0  0  0  3  0  0  0  0  0  0
  -16.5510  -29.9500   23.5750 C   0  0  0  0  0  3  0  0  0  0  0  0
  -16.8340  -28.6740   23.0560 C   0  0  0  0  0  3  0  0  0  0  0  0
  -26.0030  -32.7810   24.0530 C   0  0  0  0  0  3  0  0  0  0  0  0
  -25.6750  -34.1860   24.3650 N   0  0  0  0  0  0  0  0  0  0  0  0
  -25.9680  -35.2370   23.5880 C   0  0  0  0  0  0  0  0  0  0  0  0
  -26.6030  -35.1270   22.5360 O   0  0  0  0  0  0  0  0  0  0  0  0
  -25.1030  -34.3420   25.1820 H   0  0  0  0  0  0  0  0  0  0  0  0
  -24.1910  -37.0000   23.3100 C   0  0  0  0  0  1  0  0  0  0  0  0
  -25.4870  -36.6300   24.0480 C   0  0  0  0  0  3  0  0  0  0  0  0
  -27.6460  -37.5840   24.7330 C   0  0  0  0  0  1  0  0  0  0  0  0
  -26.4910  -37.6980   23.8450 N   0  0  0  0  0  0  0  0  0  0  0  0
  -26.0740  -38.6160   23.9840 H   0  0  0  0  0  0  0  0  0  0  0  0
  -26.4840  -32.0400   25.3630 C   0  0  1  0  0  0  0  0  0  0  0  0
  -25.3530  -31.7850   26.3880 C   0  0  0  0  0  1  0  0  0  0  0  0
  -27.1200  -30.6730   25.0240 C   0  0  0  0  0  1  0  0  0  0  0  0
  -27.5850  -32.8720   26.0610 C   0  0  0  0  0  1  0  0  0  0  0  0
  1 18  1  0
  2  7  1  0
  3  4  1  0
  3  2  1  0
  5  4  1  0
  5 22  1  0
  5  6  1  0
  7  1  1  0
  7  6  1  0
  8  1  2  0
 10  9  1  0
 10 17  1  0
 11 17  1  0
 14 11  1  0
 14 15  1  0
 14 16  1  0
 15 49  1  0
 15 18  1  0
 16  9  1  6
 16 13  1  0
 16 12  1  0
 17 50  1  1
 17 12  1  0
 18 13  1  0
 19 20  2  0
 20 39  1  0
 21 20  1  0
 21 24  1  0
 22 19  1  0
 22 23  1  0
 23 21  2  0
 24 25  1  0
 25 26  2  0
 27 30  1  0
 27 26  1  0
 28 27  2  0
 29 28  1  0
 29 24  2  0
 30 31  1  0
 31 36  2  0
 31 32  1  0
 32 33  2  0
 33 34  1  0
 34 38  1  0
 35 34  2  0
 36 35  1  0
 37 36  1  0
 39 40  1  0
 40 43  1  0
 40 42  1  0
 41 39  2  0
 44 45  1  0
 44 19  1  0
 46 44  1  0
 47 49  1  0
 48 49  1  0
 50 51  1  0
 52 63  2  0
 53 51  1  0
 53 58  1  0
 54 62  1  0
 54 64  1  0
 55 61  1  0
 55 57  1  0
 56 62  1  0
 57 58  2  0
 57 56  1  0
 59 53  2  0
 60 59  1  0
 60 55  2  0
 61 54  1  0
 62 52  1  0
 64 66  2  0
 65 64  1  0
 67 65  1  0
 68 77  2  0
 68 73  1  0
 69 65  1  0
 69 73  1  0
 70 69  1  0
 71 72  1  0
 71 70  1  0
 72 68  1  0
 73 74  2  0
 74 75  1  0
 76 75  2  0
 77 76  1  0
 78 52  1  0
 78 79  1  0
 78 88  1  0
 79 82  1  0
 80 84  1  0
 80 79  1  0
 81 80  2  0
 84 83  1  0
 86 87  1  0
 86 84  1  0
 86 85  1  0
 88 91  1  1
 88 89  1  0
 90 88  1  0
M  ISO  4   1 100  18 100  50 101  51 101
M  END
>  <TORSDO>  (48) 
F 17

>  <SCORE>  (48) 
-15.162

>  <name>  (48) 
48

>  <ligand_id>  (48) 
48

>  <original_smiles>  (48) 
[H]c1c([H])c([H])c2c(c1[H])C([H])([H])C([H])([H])C([H])([H])C2([H])N([H])C(=O)C1([H])N(C(=O)C([H])(N([H])C(=O)C([H])(N([H])C([H])([H])[H])C([H])([H])[H])C(C([H])([H])[H])(C([H])([H])[H])C([H])([H])[H])C([H])([H])c2c([H])c(OC([H])([H])C34C([H])([H])C([H])([H])C5(C([H])([H])N(C(=O)N6C([H])([H])C([H])([H])C([H])([H])C([H])(n7nc(-c8c([H])c([H])c(Oc9c([H])c([H])c(F)c([H])c9F)c([H])c8[H])c(C(=O)N([H])[H])c7N([H])[H])C6([H])[H])C([H])(C([H])(C([H])([H])[H])C([H])([H])[H])C5([H])C3([H])[H])C4([H])[H])c([H])c([H])c2C1([H])[H]

>  <smiles>  (48) 
[H]c1c([H])c([H])c2c(c1[H])C([H])([H])C([H])([H])C([H])([H])C2([H])N([H])C(=O)C1([H])N(C(=O)C([H])(N([H])C(=O)C([H])(N([H])C([H])([H])[H])C([H])([H])[H])C(C([H])([H])[H])(C([H])([H])[H])C([H])([H])[H])C([H])([H])c2c([H])c(OC([H])([H])C34C([H])([H])C([H])([H])C5(C([H])([H])N(C(=O)N6C([H])([H])C([H])([H])C([H])([H])C([H])(n7nc(-c8c([H])c([H])c(Oc9c([H])c([H])c(F)c([H])c9F)c([H])c8[H])c(C(=O)N([H])[H])c7N([H])[H])C6([H])[H])C([H])(C([H])(C([H])([H])[H])C([H])([H])[H])C5([H])C3([H])[H])C4([H])[H])c([H])c([H])c2C1([H])[H]

$$$$
49:0:0
     RDKit          3D

 94102  0  0  1  0  0  0  0  0999 V2000
  -29.3790  -18.9540   19.0050 C   0  0  0  0  0  3  0  0  0  0  0  0
  -30.3960  -18.2120   21.4600 C   0  0  0  0  0  3  0  0  0  0  0  0
  -29.6840  -20.0120   19.9000 C   0  0  0  0  0  0  0  0  0  0  0  0
  -29.5550  -17.5770   19.2970 C   0  0  0  0  0  0  0  0  0  0  0  0
  -30.2590  -19.6100   21.1420 C   0  0  0  0  0  0  0  0  0  0  0  0
  -30.0490  -17.1580   20.5600 C   0  0  0  0  0  0  0  0  0  0  0  0
  -29.1640  -16.5830   18.2220 C   0  0  0  0  0  1  0  0  0  0  0  0
  -30.7840  -14.6970   20.5170 C   0  0  0  0  0  0  0  0  0  0  0  0
  -30.5870  -12.4580   19.4550 C   0  0  0  0  0  2  0  0  0  0  0  0
  -29.6670  -12.5850   18.2220 C   0  0  0  0  0  2  0  0  0  0  0  0
  -28.1870  -12.4280   18.6210 C   0  0  0  0  0  2  0  0  0  0  0  0
  -27.8050  -13.2810   19.8600 C   0  0  0  0  0  3  0  0  0  0  0  0
  -28.8430  -13.1320   20.9910 C   0  0  0  0  0  2  0  0  0  0  0  0
  -30.1630  -13.4760   20.4400 N   0  0  0  0  0  0  0  0  0  0  0  0
  -31.9320  -14.8590   20.0980 O   0  0  0  0  0  0  0  0  0  0  0  0
  -30.0370  -15.7510   20.9690 N   0  0  0  0  0  0  0  0  0  0  0  0
  -29.1960  -15.4600   21.4470 H   0  0  0  0  0  0  0  0  0  0  0  0
  -25.3880  -13.8780   20.4870 C   0  0  0  0  0  0  0  0  0  0  0  0
  -24.3140  -13.1020   20.8360 C   0  0  0  0  0  0  0  0  0  0  0  0
  -24.7850  -11.7550   20.8330 C   0  0  0  0  0  0  0  0  0  0  0  0
  -26.4450  -13.0000   20.3070 N   0  0  0  0  0  0  0  0  0  0  0  0
  -26.0830  -11.7180   20.5640 N   0  0  0  0  0  0  0  0  0  0  0  0
  -24.0590  -10.4920   21.0170 C   0  0  0  0  0  0  0  0  0  0  0  0
  -24.4670   -9.5430   21.9790 C   0  0  0  0  0  3  0  0  0  0  0  0
  -23.7460   -8.3420   22.1510 C   0  0  0  0  0  3  0  0  0  0  0  0
  -22.6030   -8.0810   21.3590 C   0  0  0  0  0  0  0  0  0  0  0  0
  -22.2150   -9.0190   20.3850 C   0  0  0  0  0  3  0  0  0  0  0  0
  -22.9370  -10.2110   20.2130 C   0  0  0  0  0  3  0  0  0  0  0  0
  -21.8580   -6.9290   21.4360 O   0  0  0  0  0  0  0  0  0  0  0  0
  -21.7610   -6.2120   22.6040 C   0  0  0  0  0  0  0  0  0  0  0  0
  -21.2470   -6.7840   23.7880 C   0  0  0  0  0  3  0  0  0  0  0  0
  -21.0980   -5.9930   24.9440 C   0  0  0  0  0  3  0  0  0  0  0  0
  -21.4530   -4.6310   24.9150 C   0  0  0  0  0  0  0  0  0  0  0  0
  -21.9590   -4.0580   23.7360 C   0  0  0  0  0  3  0  0  0  0  0  0
  -22.1100   -4.8480   22.5820 C   0  0  0  0  0  0  0  0  0  0  0  0
  -22.5760   -4.2870   21.4400 F   0  0  0  0  0  0  0  0  0  0  0  0
  -21.3030   -3.8670   26.0240 F   0  0  0  0  0  0  0  0  0  0  0  0
  -22.9080  -13.5740   21.0660 C   0  0  0  0  0  0  0  0  0  0  0  0
  -22.1630  -12.8770   21.9170 N   0  0  0  0  0  0  0  0  0  0  0  0
  -22.4760  -14.5920   20.5290 O   0  0  0  0  0  0  0  0  0  0  0  0
  -22.5240  -12.0490   22.3640 H   0  0  0  0  0  0  0  0  0  0  0  0
  -21.2170  -13.1710   22.1160 H   0  0  0  0  0  0  0  0  0  0  0  0
  -25.5420  -15.2460   20.2870 N   0  0  0  0  0  0  0  0  0  0  0  0
  -24.7480  -15.8770   20.3300 H   0  0  0  0  0  0  0  0  0  0  0  0
  -26.3880  -15.6990   19.9630 H   0  0  0  0  0  0  0  0  0  0  0  0
  -32.1690  -21.1310   21.8440 C   0  0  0  0  0  1  0  0  0  0  0  0
  -30.7550  -20.6260   22.1630 C   0  0  0  0  0  2  0  0  0  0  0  0
  -29.2890  -21.4350   19.3390 C   0  0  0  0  0  2  0  0  0  0  0  0
  -29.3240  -22.8960   20.0080 C   0  0  0  0  0  2  0  0  0  0  0  0
  -26.9140  -23.7210   19.7890 C   0  0  0  0  0  1  0  0  0  0  0  0
  -28.4180  -23.7160   17.7490 C   0  0  0  0  0  1  0  0  0  0  0  0
  -28.3630  -23.9890   19.2920 C   0  0  2  0  0  0  0  0  0  0  0  0
  -28.7470  -25.5680   19.3660 C   0  0  0  0  0  2  0  0  0  0  0  0
  -28.3820  -26.5700   20.3800 O   0  0  0  0  0  0  0  0  0  0  0  0
  -24.5570  -31.9220   23.2930 C   0  0  0  0  0  0  0  0  0  0  0  0
  -27.2620  -27.4070   20.2560 C   0  0  0  0  0  0  0  0  0  0  0  0
  -23.3880  -30.5240   21.6240 C   0  0  0  0  0  3  0  0  0  0  0  0
  -24.8740  -28.9910   20.2130 C   0  0  0  0  0  0  0  0  0  0  0  0
  -25.9240  -30.8570   21.4880 C   0  0  0  0  0  2  0  0  0  0  0  0
  -26.0230  -29.4770   20.8540 C   0  0  0  0  0  0  0  0  0  0  0  0
  -27.2050  -28.6840   20.8910 C   0  0  0  0  0  3  0  0  0  0  0  0
  -26.1080  -26.9920   19.5610 C   0  0  0  0  0  3  0  0  0  0  0  0
  -24.9210  -27.7470   19.5620 C   0  0  0  0  0  3  0  0  0  0  0  0
  -23.6320  -29.8610   20.2430 C   0  0  0  0  0  2  0  0  0  0  0  0
  -24.6420  -31.1170   22.1930 N   0  0  0  0  0  0  0  0  0  0  0  0
  -23.4660  -32.1940   23.8110 O   0  0  0  0  0  0  0  0  0  0  0  0
  -22.7160  -29.4980   22.5670 C   0  0  0  0  0  0  0  0  0  0  0  0
  -21.3940  -29.3100   22.4110 N   0  0  0  0  0  0  0  0  0  0  0  0
  -23.3820  -28.8730   23.3960 O   0  0  0  0  0  0  0  0  0  0  0  0
  -20.9100  -29.8730   21.7280 H   0  0  0  0  0  0  0  0  0  0  0  0
  -18.0210  -28.0870   22.8540 C   0  0  0  0  0  0  0  0  0  0  0  0
  -20.5710  -28.3640   23.1660 C   0  0  0  0  0  3  0  0  0  0  0  0
  -20.6920  -26.9330   22.5940 C   0  0  0  0  0  2  0  0  0  0  0  0
  -19.6130  -26.6030   21.5570 C   0  0  0  0  0  2  0  0  0  0  0  0
  -18.2180  -26.7380   22.1770 C   0  0  0  0  0  2  0  0  0  0  0  0
  -19.1270  -28.8560   23.3040 C   0  0  0  0  0  0  0  0  0  0  0  0
  -18.8920  -30.1150   23.8960 C   0  0  0  0  0  3  0  0  0  0  0  0
  -17.5820  -30.6110   24.0400 C   0  0  0  0  0  3  0  0  0  0  0  0
  -16.4900  -29.8410   23.6030 C   0  0  0  0  0  3  0  0  0  0  0  0
  -16.7100  -28.5810   23.0170 C   0  0  0  0  0  3  0  0  0  0  0  0
  -25.8270  -32.5590   23.9330 C   0  0  0  0  0  3  0  0  0  0  0  0
  -25.5190  -33.9640   24.2290 N   0  0  0  0  0  0  0  0  0  0  0  0
  -25.8690  -35.0010   23.4560 C   0  0  0  0  0  0  0  0  0  0  0  0
  -26.5570  -34.8760   22.4390 O   0  0  0  0  0  0  0  0  0  0  0  0
  -24.9140  -34.1390   25.0170 H   0  0  0  0  0  0  0  0  0  0  0  0
  -24.1550  -36.7970   23.0340 C   0  0  0  0  0  1  0  0  0  0  0  0
  -25.3750  -36.3980   23.8810 C   0  0  0  0  0  3  0  0  0  0  0  0
  -27.4870  -37.2930   24.7510 C   0  0  0  0  0  1  0  0  0  0  0  0
  -26.4120  -37.4470   23.7780 N   0  0  0  0  0  0  0  0  0  0  0  0
  -26.0060  -38.3710   23.8980 H   0  0  0  0  0  0  0  0  0  0  0  0
  -26.3080  -31.8090   25.2360 C   0  0  1  0  0  0  0  0  0  0  0  0
  -25.1900  -31.5890   26.2800 C   0  0  0  0  0  1  0  0  0  0  0  0
  -26.8960  -30.4220   24.8810 C   0  0  0  0  0  1  0  0  0  0  0  0
  -27.4410  -32.6120   25.9180 C   0  0  0  0  0  1  0  0  0  0  0  0
  1  4  2  0
  1  3  1  0
  3  5  2  0
  4  6  1  0
  5  2  1  0
  5 47  1  0
  6 16  1  0
  6  2  2  0
  7  4  1  0
  8 16  1  0
  9 14  1  0
 10 11  1  0
 10  9  1  0
 12 11  1  0
 12 21  1  0
 12 13  1  0
 14  8  1  0
 14 13  1  0
 15  8  2  0
 16 17  1  0
 18 19  2  0
 19 38  1  0
 20 19  1  0
 20 23  1  0
 21 18  1  0
 21 22  1  0
 22 20  2  0
 23 24  1  0
 24 25  2  0
 26 29  1  0
 26 25  1  0
 27 26  2  0
 28 27  1  0
 28 23  2  0
 29 30  1  0
 30 31  1  0
 31 32  2  0
 33 32  1  0
 33 37  1  0
 34 33  2  0
 35 30  2  0
 35 34  1  0
 36 35  1  0
 38 39  1  0
 39 42  1  0
 39 41  1  0
 40 38  2  0
 43 44  1  0
 43 18  1  0
 45 43  1  0
 46 47  1  0
 48  3  1  0
 48 49  1  0
 52 51  1  6
 52 53  1  0
 52 50  1  0
 52 49  1  0
 53 54  1  0
 55 66  2  0
 56 54  1  0
 56 61  1  0
 57 65  1  0
 57 67  1  0
 58 64  1  0
 58 60  1  0
 59 65  1  0
 60 61  2  0
 60 59  1  0
 62 63  1  0
 62 56  2  0
 63 58  2  0
 64 57  1  0
 65 55  1  0
 67 69  2  0
 68 67  1  0
 70 68  1  0
 71 80  2  0
 71 76  1  0
 72 68  1  0
 72 76  1  0
 73 72  1  0
 74 75  1  0
 74 73  1  0
 75 71  1  0
 76 77  2  0
 77 78  1  0
 79 78  2  0
 80 79  1  0
 81 55  1  0
 81 82  1  0
 81 91  1  0
 82 85  1  0
 83 87  1  0
 83 82  1  0
 84 83  2  0
 87 86  1  0
 89 87  1  0
 89 90  1  0
 89 88  1  0
 91 94  1  1
 91 92  1  0
 93 91  1  0
M  ISO  4   8 100  16 100  53 101  54 101
M  END
>  <TORSDO>  (49) 
F 21

>  <SCORE>  (49) 
-13.121

>  <name>  (49) 
49

>  <ligand_id>  (49) 
49

>  <original_smiles>  (49) 
[H]c1c([H])c([H])c2c(c1[H])C([H])([H])C([H])([H])C([H])([H])C2([H])N([H])C(=O)C1([H])N(C(=O)C([H])(N([H])C(=O)C([H])(N([H])C([H])([H])[H])C([H])([H])[H])C(C([H])([H])[H])(C([H])([H])[H])C([H])([H])[H])C([H])([H])c2c([H])c(OC([H])([H])C(C([H])([H])[H])(C([H])([H])[H])C([H])([H])C([H])([H])c3c([H])c(C([H])([H])[H])c(N([H])C(=O)N4C([H])([H])C([H])([H])C([H])([H])C([H])(n5nc(-c6c([H])c([H])c(Oc7c([H])c([H])c(F)c([H])c7F)c([H])c6[H])c(C(=O)N([H])[H])c5N([H])[H])C4([H])[H])c([H])c3C([H])([H])C([H])([H])[H])c([H])c([H])c2C1([H])[H]

>  <smiles>  (49) 
[H]c1c([H])c([H])c2c(c1[H])C([H])([H])C([H])([H])C([H])([H])C2([H])N([H])C(=O)C1([H])N(C(=O)C([H])(N([H])C(=O)C([H])(N([H])C([H])([H])[H])C([H])([H])[H])C(C([H])([H])[H])(C([H])([H])[H])C([H])([H])[H])C([H])([H])c2c([H])c(OC([H])([H])C(C([H])([H])[H])(C([H])([H])[H])C([H])([H])C([H])([H])c3c([H])c(C([H])([H])[H])c(N([H])C(=O)N4C([H])([H])C([H])([H])C([H])([H])C([H])(n5nc(-c6c([H])c([H])c(Oc7c([H])c([H])c(F)c([H])c7F)c([H])c6[H])c(C(=O)N([H])[H])c5N([H])[H])C4([H])[H])c([H])c3C([H])([H])C([H])([H])[H])c([H])c([H])c2C1([H])[H]

$$$$
50:0:0
     RDKit          3D

 94103  0  0  1  0  0  0  0  0999 V2000
  -28.0220  -20.8580   20.6310 C   0  0  0  0  0  2  0  0  0  0  0  0
  -30.6670  -19.9730   19.0600 C   0  0  0  0  0  2  0  0  0  0  0  0
  -29.1470  -21.8450   20.1880 C   0  0  0  0  0  3  0  0  0  0  0  0
  -28.4350  -19.3170   20.4050 C   0  0  0  0  0  3  0  0  0  0  0  0
  -30.3430  -20.7750   20.2910 C   0  0  0  0  0  3  0  0  0  0  0  0
  -29.9570  -19.2020   20.1560 C   0  0  2  0  0  0  0  0  0  0  0  0
  -27.5890  -18.6420   19.3100 C   0  0  0  0  0  0  0  0  0  0  0  0
  -26.2680  -18.6910   19.4430 N   0  0  0  0  0  0  0  0  0  0  0  0
  -28.1060  -18.0550   18.3610 O   0  0  0  0  0  0  0  0  0  0  0  0
  -25.8510  -19.1530   20.2390 H   0  0  0  0  0  0  0  0  0  0  0  0
  -25.6680  -18.2800   18.7440 H   0  0  0  0  0  0  0  0  0  0  0  0
  -29.1470  -23.3840   20.8350 C   0  0  0  0  0  0  0  0  0  0  0  0
  -29.8820  -23.5850   21.8050 O   0  0  0  0  0  0  0  0  0  0  0  0
  -28.2460  -24.6640   20.2810 C   0  0  0  0  0  2  0  0  0  0  0  0
  -28.4640  -26.1470   20.7270 O   0  0  0  0  0  0  0  0  0  0  0  0
  -24.6710  -31.9090   23.3510 C   0  0  0  0  0  0  0  0  0  0  0  0
  -27.4170  -27.1310   20.5720 C   0  0  0  0  0  0  0  0  0  0  0  0
  -23.5600  -30.4640   21.6930 C   0  0  0  0  0  3  0  0  0  0  0  0
  -25.0840  -28.8630   20.3800 C   0  0  0  0  0  0  0  0  0  0  0  0
  -26.1180  -30.7390   21.6460 C   0  0  0  0  0  2  0  0  0  0  0  0
  -26.2290  -29.3300   21.0370 C   0  0  0  0  0  0  0  0  0  0  0  0
  -27.3960  -28.4790   21.1170 C   0  0  0  0  0  3  0  0  0  0  0  0
  -26.2480  -26.7690   19.8660 C   0  0  0  0  0  3  0  0  0  0  0  0
  -25.1070  -27.5960   19.7790 C   0  0  0  0  0  3  0  0  0  0  0  0
  -23.8520  -29.7540   20.3450 C   0  0  0  0  0  2  0  0  0  0  0  0
  -24.8010  -31.0600   22.2860 N   0  0  0  0  0  0  0  0  0  0  0  0
  -23.5590  -32.1990   23.8180 O   0  0  0  0  0  0  0  0  0  0  0  0
  -22.8400  -29.4780   22.6470 C   0  0  0  0  0  0  0  0  0  0  0  0
  -21.5180  -29.3020   22.4650 N   0  0  0  0  0  0  0  0  0  0  0  0
  -23.4750  -28.8730   23.5150 O   0  0  0  0  0  0  0  0  0  0  0  0
  -21.0620  -29.8440   21.7450 H   0  0  0  0  0  0  0  0  0  0  0  0
  -18.1100  -28.1470   22.8830 C   0  0  0  0  0  0  0  0  0  0  0  0
  -20.6650  -28.3820   23.2220 C   0  0  0  0  0  3  0  0  0  0  0  0
  -20.7650  -26.9420   22.6670 C   0  0  0  0  0  2  0  0  0  0  0  0
  -19.6890  -26.6200   21.6240 C   0  0  0  0  0  2  0  0  0  0  0  0
  -18.2910  -26.7890   22.2250 C   0  0  0  0  0  2  0  0  0  0  0  0
  -19.2250  -28.9010   23.3370 C   0  0  0  0  0  0  0  0  0  0  0  0
  -19.0040  -30.1700   23.9130 C   0  0  0  0  0  3  0  0  0  0  0  0
  -17.6990  -30.6860   24.0400 C   0  0  0  0  0  3  0  0  0  0  0  0
  -16.5990  -29.9290   23.6020 C   0  0  0  0  0  3  0  0  0  0  0  0
  -16.8050  -28.6620   23.0290 C   0  0  0  0  0  3  0  0  0  0  0  0
  -25.9140  -32.5710   24.0200 C   0  0  0  0  0  3  0  0  0  0  0  0
  -26.3630  -31.8430   25.3480 C   0  0  1  0  0  0  0  0  0  0  0  0
  -25.2070  -31.6050   26.3460 C   0  0  0  0  0  1  0  0  0  0  0  0
  -27.0020  -30.4720   25.0330 C   0  0  0  0  0  1  0  0  0  0  0  0
  -27.4500  -32.6800   26.0620 C   0  0  0  0  0  1  0  0  0  0  0  0
  -25.5810  -33.9770   24.2950 N   0  0  0  0  0  0  0  0  0  0  0  0
  -25.9320  -35.0130   23.5170 C   0  0  0  0  0  0  0  0  0  0  0  0
  -26.6350  -34.8830   22.5130 O   0  0  0  0  0  0  0  0  0  0  0  0
  -24.9670  -34.1540   25.0760 H   0  0  0  0  0  0  0  0  0  0  0  0
  -24.1970  -36.7780   23.0670 C   0  0  0  0  0  1  0  0  0  0  0  0
  -25.4230  -36.4120   23.9200 C   0  0  0  0  0  3  0  0  0  0  0  0
  -27.5270  -37.3480   24.7720 C   0  0  0  0  0  1  0  0  0  0  0  0
  -26.4490  -37.4710   23.7940 N   0  0  0  0  0  0  0  0  0  0  0  0
  -26.0290  -38.3910   23.8990 H   0  0  0  0  0  0  0  0  0  0  0  0
  -30.7340  -17.7720   20.5800 C   0  0  0  0  0  2  0  0  0  0  0  0
  -30.9950  -15.0450   20.3310 C   0  0  0  0  0  0  0  0  0  0  0  0
  -30.8280  -12.7070   19.3610 C   0  0  0  0  0  2  0  0  0  0  0  0
  -29.9120  -12.6810   18.1160 C   0  0  0  0  0  2  0  0  0  0  0  0
  -28.4400  -12.5000   18.5280 C   0  0  0  0  0  2  0  0  0  0  0  0
  -28.0340  -13.4340   19.6990 C   0  0  0  0  0  3  0  0  0  0  0  0
  -29.0710  -13.4230   20.8420 C   0  0  0  0  0  2  0  0  0  0  0  0
  -30.3570  -13.8090   20.2480 N   0  0  0  0  0  0  0  0  0  0  0  0
  -32.2080  -15.0650   20.0970 O   0  0  0  0  0  0  0  0  0  0  0  0
  -30.2670  -16.2630   20.4730 N   0  0  0  0  0  0  0  0  0  0  0  0
  -29.2700  -16.1310   20.5630 H   0  0  0  0  0  0  0  0  0  0  0  0
  -25.6640  -14.0640   20.4250 C   0  0  0  0  0  0  0  0  0  0  0  0
  -24.5700  -13.3130   20.7560 C   0  0  0  0  0  0  0  0  0  0  0  0
  -24.9940  -11.9500   20.6970 C   0  0  0  0  0  0  0  0  0  0  0  0
  -26.6820  -13.1620   20.1730 N   0  0  0  0  0  0  0  0  0  0  0  0
  -26.2890  -11.8820   20.4050 N   0  0  0  0  0  0  0  0  0  0  0  0
  -24.2270  -10.7070   20.8440 C   0  0  0  0  0  0  0  0  0  0  0  0
  -24.5860   -9.7230   21.7910 C   0  0  0  0  0  3  0  0  0  0  0  0
  -23.8190   -8.5460   21.9280 C   0  0  0  0  0  3  0  0  0  0  0  0
  -22.6770   -8.3450   21.1170 C   0  0  0  0  0  0  0  0  0  0  0  0
  -22.3360   -9.3160   20.1590 C   0  0  0  0  0  3  0  0  0  0  0  0
  -23.1040  -10.4850   20.0210 C   0  0  0  0  0  3  0  0  0  0  0  0
  -21.8880   -7.2210   21.1620 O   0  0  0  0  0  0  0  0  0  0  0  0
  -21.7080   -6.5140   22.3230 C   0  0  0  0  0  0  0  0  0  0  0  0
  -21.1610   -7.1090   23.4810 C   0  0  0  0  0  3  0  0  0  0  0  0
  -20.9310   -6.3300   24.6320 C   0  0  0  0  0  3  0  0  0  0  0  0
  -21.2360   -4.9550   24.6240 C   0  0  0  0  0  0  0  0  0  0  0  0
  -21.7740   -4.3590   23.4700 C   0  0  0  0  0  3  0  0  0  0  0  0
  -22.0070   -5.1370   22.3220 C   0  0  0  0  0  0  0  0  0  0  0  0
  -22.5070   -4.5540   21.2060 F   0  0  0  0  0  0  0  0  0  0  0  0
  -21.0060   -4.2020   25.7260 F   0  0  0  0  0  0  0  0  0  0  0  0
  -23.1820  -13.8270   21.0120 C   0  0  0  0  0  0  0  0  0  0  0  0
  -22.4270  -13.1480   21.8670 N   0  0  0  0  0  0  0  0  0  0  0  0
  -22.7800  -14.8660   20.4910 O   0  0  0  0  0  0  0  0  0  0  0  0
  -22.7670  -12.3060   22.3090 H   0  0  0  0  0  0  0  0  0  0  0  0
  -21.4960  -13.4740   22.0840 H   0  0  0  0  0  0  0  0  0  0  0  0
  -25.8670  -15.4330   20.2950 N   0  0  0  0  0  0  0  0  0  0  0  0
  -25.1200  -16.0950   20.4660 H   0  0  0  0  0  0  0  0  0  0  0  0
  -26.7150  -15.8840   19.9710 H   0  0  0  0  0  0  0  0  0  0  0  0
  2  6  1  0
  3  5  1  0
  3  1  1  0
  3 12  1  0
  4  7  1  0
  4  1  1  0
  5  2  1  0
  6  5  1  0
  6  4  1  0
  6 56  1  1
  7  8  1  0
  8 10  1  0
  9  7  2  0
 11  8  1  0
 12 13  2  0
 14 15  1  0
 14 12  1  0
 16 27  2  0
 17 15  1  0
 17 22  1  0
 18 26  1  0
 18 28  1  0
 19 21  1  0
 20 26  1  0
 21 22  2  0
 21 20  1  0
 23 17  2  0
 24 23  1  0
 24 19  2  0
 25 19  1  0
 25 18  1  0
 26 16  1  0
 28 30  2  0
 29 28  1  0
 31 29  1  0
 32 41  2  0
 32 37  1  0
 33 29  1  0
 33 37  1  0
 34 33  1  0
 35 36  1  0
 35 34  1  0
 36 32  1  0
 37 38  2  0
 38 39  1  0
 40 39  2  0
 41 40  1  0
 42 16  1  0
 42 47  1  0
 42 43  1  0
 43 46  1  1
 43 44  1  0
 45 43  1  0
 47 50  1  0
 48 52  1  0
 48 47  1  0
 49 48  2  0
 52 51  1  0
 54 55  1  0
 54 52  1  0
 54 53  1  0
 57 65  1  0
 58 63  1  0
 59 60  1  0
 59 58  1  0
 61 60  1  0
 61 70  1  0
 61 62  1  0
 63 57  1  0
 63 62  1  0
 64 57  2  0
 65 66  1  0
 65 56  1  0
 67 68  2  0
 68 87  1  0
 69 68  1  0
 69 72  1  0
 70 71  1  0
 70 67  1  0
 71 69  2  0
 72 73  1  0
 73 74  2  0
 75 78  1  0
 75 74  1  0
 76 75  2  0
 77 76  1  0
 77 72  2  0
 78 79  1  0
 79 80  1  0
 80 81  2  0
 82 81  1  0
 82 86  1  0
 83 82  2  0
 84 79  2  0
 84 83  1  0
 85 84  1  0
 87 88  1  0
 88 91  1  0
 88 90  1  0
 89 87  2  0
 92 67  1  0
 92 93  1  0
 94 92  1  0
M  ISO  4  14 101  15 101  57 100  65 100
M  END
>  <TORSDO>  (50) 
F 20

>  <SCORE>  (50) 
-13.741

>  <name>  (50) 
50

>  <ligand_id>  (50) 
50

>  <original_smiles>  (50) 
[H]c1c([H])c([H])c2c(c1[H])C([H])([H])C([H])([H])C([H])([H])C2([H])N([H])C(=O)C1([H])N(C(=O)C([H])(N([H])C(=O)C([H])(N([H])C([H])([H])[H])C([H])([H])[H])C(C([H])([H])[H])(C([H])([H])[H])C([H])([H])[H])C([H])([H])c2c([H])c(OC([H])([H])C(=O)C3([H])C([H])([H])C([H])(C(=O)N([H])[H])C4(C([H])([H])N([H])C(=O)N5C([H])([H])C([H])([H])C([H])([H])C([H])(n6nc(-c7c([H])c([H])c(Oc8c([H])c([H])c(F)c([H])c8F)c([H])c7[H])c(C(=O)N([H])[H])c6N([H])[H])C5([H])[H])C([H])([H])C34[H])c([H])c([H])c2C1([H])[H]

>  <smiles>  (50) 
[H]c1c([H])c([H])c2c(c1[H])C([H])([H])C([H])([H])C([H])([H])C2([H])N([H])C(=O)C1([H])N(C(=O)C([H])(N([H])C(=O)C([H])(N([H])C([H])([H])[H])C([H])([H])[H])C(C([H])([H])[H])(C([H])([H])[H])C([H])([H])[H])C([H])([H])c2c([H])c(OC([H])([H])C(=O)C3([H])C([H])([H])C([H])(C(=O)N([H])[H])C4(C([H])([H])N([H])C(=O)N5C([H])([H])C([H])([H])C([H])([H])C([H])(n6nc(-c7c([H])c([H])c(Oc8c([H])c([H])c(F)c([H])c8F)c([H])c7[H])c(C(=O)N([H])[H])c6N([H])[H])C5([H])[H])C([H])([H])C34[H])c([H])c([H])c2C1([H])[H]

$$$$
51:0:0
     RDKit          3D

 95104  0  0  1  0  0  0  0  0999 V2000
  -29.0220  -22.5400   19.9170 C   0  0  0  0  0  2  0  0  0  0  0  0
  -28.0910  -24.3570   21.2410 C   0  0  0  0  0  3  0  0  0  0  0  0
  -30.1690  -23.3960   20.4030 C   0  0  0  0  0  3  0  0  0  0  0  0
  -29.6300  -24.6740   21.0130 C   0  0  0  0  0  3  0  0  0  0  0  0
  -27.7460  -23.3900   20.0810 C   0  0  0  0  0  3  0  0  0  0  0  0
  -30.5660  -24.6670   19.7220 C   0  0  0  0  0  3  0  0  0  0  0  0
  -26.2710  -27.7480   20.6780 C   0  0  0  0  0  0  0  0  0  0  0  0
  -24.7930  -29.2990   19.4230 C   0  0  0  0  0  2  0  0  0  0  0  0
  -23.7110  -28.4570   18.7140 C   0  0  0  0  0  2  0  0  0  0  0  0
  -24.2070  -27.9900   17.3310 C   0  0  0  0  0  2  0  0  0  0  0  0
  -25.6320  -27.3770   17.3860 C   0  0  0  0  0  3  0  0  0  0  0  0
  -26.6040  -28.2530   18.2080 C   0  0  0  0  0  2  0  0  0  0  0  0
  -26.0080  -28.4610   19.5350 N   0  0  0  0  0  0  0  0  0  0  0  0
  -25.8060  -28.1340   21.7550 O   0  0  0  0  0  0  0  0  0  0  0  0
  -26.9920  -25.4810   21.4350 C   0  0  0  0  0  0  0  0  0  0  0  0
  -26.9210  -26.5400   20.5480 N   0  0  0  0  0  0  0  0  0  0  0  0
  -26.2400  -25.3680   22.4090 O   0  0  0  0  0  0  0  0  0  0  0  0
  -27.4220  -26.4170   19.6830 H   0  0  0  0  0  0  0  0  0  0  0  0
  -27.3080  -26.4300   15.6870 C   0  0  0  0  0  0  0  0  0  0  0  0
  -27.2920  -26.3630   14.3200 C   0  0  0  0  0  0  0  0  0  0  0  0
  -26.0850  -27.0050   13.9080 C   0  0  0  0  0  0  0  0  0  0  0  0
  -26.1470  -27.0930   16.0490 N   0  0  0  0  0  0  0  0  0  0  0  0
  -25.4390  -27.4920   14.9610 N   0  0  0  0  0  0  0  0  0  0  0  0
  -25.4790  -27.1340   12.5750 C   0  0  0  0  0  0  0  0  0  0  0  0
  -25.8030  -28.2070   11.7170 C   0  0  0  0  0  3  0  0  0  0  0  0
  -25.2230  -28.2980   10.4330 C   0  0  0  0  0  3  0  0  0  0  0  0
  -24.3110  -27.3070    9.9940 C   0  0  0  0  0  0  0  0  0  0  0  0
  -23.9750  -26.2540   10.8620 C   0  0  0  0  0  3  0  0  0  0  0  0
  -24.5500  -26.1680   12.1410 C   0  0  0  0  0  3  0  0  0  0  0  0
  -23.6800  -27.3270    8.7750 O   0  0  0  0  0  0  0  0  0  0  0  0
  -24.2200  -26.7140    7.6730 C   0  0  0  0  0  0  0  0  0  0  0  0
  -23.9420  -25.3660    7.3580 C   0  0  0  0  0  3  0  0  0  0  0  0
  -24.4640  -24.7980    6.1790 C   0  0  0  0  0  3  0  0  0  0  0  0
  -25.2540  -25.5740    5.3100 C   0  0  0  0  0  0  0  0  0  0  0  0
  -25.5260  -26.9190    5.6200 C   0  0  0  0  0  3  0  0  0  0  0  0
  -25.0070  -27.4880    6.7970 C   0  0  0  0  0  0  0  0  0  0  0  0
  -25.2560  -28.7890    7.0790 F   0  0  0  0  0  0  0  0  0  0  0  0
  -25.7480  -25.0310    4.1740 F   0  0  0  0  0  0  0  0  0  0  0  0
  -28.2890  -25.6510   13.4500 C   0  0  0  0  0  0  0  0  0  0  0  0
  -28.7720  -26.3120   12.4050 N   0  0  0  0  0  0  0  0  0  0  0  0
  -28.6810  -24.5180   13.7240 O   0  0  0  0  0  0  0  0  0  0  0  0
  -28.4650  -27.2490   12.1900 H   0  0  0  0  0  0  0  0  0  0  0  0
  -29.4580  -25.8730   11.8080 H   0  0  0  0  0  0  0  0  0  0  0  0
  -28.1960  -25.9640   16.6520 N   0  0  0  0  0  0  0  0  0  0  0  0
  -29.0200  -25.4260   16.4070 H   0  0  0  0  0  0  0  0  0  0  0  0
  -28.0260  -25.9930   17.6490 H   0  0  0  0  0  0  0  0  0  0  0  0
  -26.4600  -22.5380   20.2630 C   0  0  0  0  0  2  0  0  0  0  0  0
  -24.1780  -23.6000   20.0890 C   0  0  0  0  0  1  0  0  0  0  0  0
  -25.3020  -22.8990   19.3050 C   0  0  0  0  0  3  0  0  0  0  0  0
  -24.7240  -23.9840   17.0270 C   0  0  0  0  0  1  0  0  0  0  0  0
  -25.7780  -23.7730   18.1230 C   0  0  0  0  0  2  0  0  0  0  0  0
  -32.1140  -24.9930   19.6770 C   0  0  0  0  0  2  0  0  0  0  0  0
  -32.9310  -24.8940   18.3000 C   0  0  0  0  0  2  0  0  0  0  0  0
  -33.2140  -23.4250   17.7410 C   0  0  0  0  0  2  0  0  0  0  0  0
  -33.4290  -23.1370   16.2950 O   0  0  0  0  0  0  0  0  0  0  0  0
  -32.3400  -18.4760   10.8780 C   0  0  0  0  0  0  0  0  0  0  0  0
  -32.5560  -22.2280   15.6630 C   0  0  0  0  0  0  0  0  0  0  0  0
  -30.3300  -19.3680   11.9970 C   0  0  0  0  0  3  0  0  0  0  0  0
  -30.7230  -20.5560   14.2260 C   0  0  0  0  0  0  0  0  0  0  0  0
  -32.5330  -19.1190   13.2910 C   0  0  0  0  0  2  0  0  0  0  0  0
  -32.0970  -20.2890   14.1660 C   0  0  0  0  0  0  0  0  0  0  0  0
  -33.0140  -21.1140   14.8880 C   0  0  0  0  0  3  0  0  0  0  0  0
  -31.1550  -22.4140   15.7350 C   0  0  0  0  0  3  0  0  0  0  0  0
  -30.2510  -21.6090   15.0200 C   0  0  0  0  0  3  0  0  0  0  0  0
  -29.7930  -19.6740   13.4190 C   0  0  0  0  0  2  0  0  0  0  0  0
  -31.7780  -18.9850   12.0130 N   0  0  0  0  0  0  0  0  0  0  0  0
  -31.6700  -18.2980    9.8510 O   0  0  0  0  0  0  0  0  0  0  0  0
  -30.0220  -20.5680   11.0690 C   0  0  0  0  0  0  0  0  0  0  0  0
  -28.7850  -20.6290   10.5460 N   0  0  0  0  0  0  0  0  0  0  0  0
  -30.8790  -21.4290   10.8510 O   0  0  0  0  0  0  0  0  0  0  0  0
  -28.1420  -19.8830   10.7660 H   0  0  0  0  0  0  0  0  0  0  0  0
  -25.7670  -22.0210    9.1170 C   0  0  0  0  0  0  0  0  0  0  0  0
  -28.2700  -21.6900    9.6790 C   0  0  0  0  0  3  0  0  0  0  0  0
  -28.1720  -23.0330   10.4410 C   0  0  0  0  0  2  0  0  0  0  0  0
  -26.7930  -23.2710   11.0650 C   0  0  0  0  0  2  0  0  0  0  0  0
  -25.7060  -23.2660    9.9860 C   0  0  0  0  0  2  0  0  0  0  0  0
  -26.9670  -21.2730    8.9860 C   0  0  0  0  0  0  0  0  0  0  0  0
  -26.9600  -20.1060    8.1920 C   0  0  0  0  0  3  0  0  0  0  0  0
  -25.7870  -19.6860    7.5370 C   0  0  0  0  0  3  0  0  0  0  0  0
  -24.6060  -20.4390    7.6590 C   0  0  0  0  0  3  0  0  0  0  0  0
  -24.6000  -21.6060    8.4450 C   0  0  0  0  0  3  0  0  0  0  0  0
  -33.8450  -18.0710   10.8240 C   0  0  0  0  0  3  0  0  0  0  0  0
  -33.9280  -16.7520   10.1830 N   0  0  0  0  0  0  0  0  0  0  0  0
  -33.7840  -15.5840   10.8220 C   0  0  0  0  0  0  0  0  0  0  0  0
  -33.6330  -15.5040   12.0440 O   0  0  0  0  0  0  0  0  0  0  0  0
  -33.9950  -16.7420    9.1750 H   0  0  0  0  0  0  0  0  0  0  0  0
  -32.4040  -14.0130    9.4240 C   0  0  0  0  0  1  0  0  0  0  0  0
  -33.8120  -14.2990    9.9720 C   0  0  0  0  0  3  0  0  0  0  0  0
  -35.7670  -13.0320   10.7470 C   0  0  0  0  0  1  0  0  0  0  0  0
  -34.3090  -13.1170   10.7080 N   0  0  0  0  0  0  0  0  0  0  0  0
  -33.9540  -12.2590   10.2940 H   0  0  0  0  0  0  0  0  0  0  0  0
  -34.7430  -19.1190   10.0580 C   0  0  1  0  0  0  0  0  0  0  0  0
  -34.7830  -18.9020    8.5280 C   0  0  0  0  0  1  0  0  0  0  0  0
  -34.2440  -20.5600   10.3150 C   0  0  0  0  0  1  0  0  0  0  0  0
  -36.1930  -19.0530   10.5910 C   0  0  0  0  0  1  0  0  0  0  0  0
  1  5  1  0
  2 15  1  0
  3  1  1  0
  3  4  1  0
  4  2  1  0
  5 47  1  0
  5  2  1  0
  6  3  1  0
  6  4  1  0
  7 14  2  0
  8 13  1  0
  9  8  1  0
 10 11  1  0
 10  9  1  0
 11 12  1  0
 12 13  1  0
 13  7  1  0
 15 17  2  0
 16  7  1  0
 16 15  1  0
 18 16  1  0
 19 22  1  0
 19 44  1  0
 20 19  2  0
 21 20  1  0
 21 23  2  0
 22 11  1  0
 23 22  1  0
 24 21  1  0
 25 24  2  0
 26 25  1  0
 27 26  2  0
 27 28  1  0
 28 29  2  0
 29 24  1  0
 30 27  1  0
 31 30  1  0
 32 31  1  0
 33 32  2  0
 34 35  2  0
 34 33  1  0
 35 36  1  0
 36 37  1  0
 36 31  2  0
 38 34  1  0
 39 41  2  0
 39 20  1  0
 40 39  1  0
 42 40  1  0
 43 40  1  0
 44 46  1  0
 45 44  1  0
 49 48  1  0
 49 47  1  0
 50 51  1  0
 51 49  1  0
 52  6  1  0
 53 52  1  0
 54 53  1  0
 55 54  1  0
 56 66  1  0
 57 63  1  0
 57 55  1  0
 58 66  1  0
 58 65  1  0
 59 64  1  0
 60 61  1  0
 61 59  2  0
 61 62  1  0
 62 57  2  0
 64 63  2  0
 65 59  1  0
 66 60  1  0
 67 56  2  0
 68 58  1  0
 69 71  1  0
 69 68  1  0
 70 68  2  0
 72 76  1  0
 73 74  1  0
 73 69  1  0
 74 75  1  0
 76 75  1  0
 77 72  1  0
 77 73  1  0
 78 77  2  0
 79 80  2  0
 79 78  1  0
 80 81  1  0
 81 72  2  0
 82 56  1  0
 83 84  1  0
 83 82  1  0
 84 85  2  0
 86 83  1  0
 87 88  1  0
 88 90  1  0
 88 84  1  0
 90 89  1  0
 91 90  1  0
 92 94  1  6
 92 95  1  0
 92 82  1  0
 93 92  1  0
M  ISO  4   7 100  16 100  54 101  55 101
M  END
>  <TORSDO>  (51) 
F 22

>  <SCORE>  (51) 
-4.436

>  <name>  (51) 
51

>  <ligand_id>  (51) 
51

>  <original_smiles>  (51) 
[H]c1c([H])c([H])c2c(c1[H])C([H])([H])C([H])([H])C([H])([H])C2([H])N([H])C(=O)C1([H])N(C(=O)C([H])(N([H])C(=O)C([H])(N([H])C([H])([H])[H])C([H])([H])[H])C(C([H])([H])[H])(C([H])([H])[H])C([H])([H])[H])C([H])([H])c2c([H])c(OC([H])([H])C([H])([H])C([H])([H])C3([H])C4([H])C([H])([H])C([H])(C([H])([H])C([H])(C([H])([H])[H])C([H])([H])C([H])([H])[H])C([H])(C(=O)N([H])C(=O)N5C([H])([H])C([H])([H])C([H])([H])C([H])(n6nc(-c7c([H])c([H])c(Oc8c([H])c([H])c(F)c([H])c8F)c([H])c7[H])c(C(=O)N([H])[H])c6N([H])[H])C5([H])[H])C34[H])c([H])c([H])c2C1([H])[H]

>  <smiles>  (51) 
[H]c1c([H])c([H])c2c(c1[H])C([H])([H])C([H])([H])C([H])([H])C2([H])N([H])C(=O)C1([H])N(C(=O)C([H])(N([H])C(=O)C([H])(N([H])C([H])([H])[H])C([H])([H])[H])C(C([H])([H])[H])(C([H])([H])[H])C([H])([H])[H])C([H])([H])c2c([H])c(OC([H])([H])C([H])([H])C([H])([H])C3([H])C4([H])C([H])([H])C([H])(C([H])([H])C([H])(C([H])([H])[H])C([H])([H])C([H])([H])[H])C([H])(C(=O)N([H])C(=O)N5C([H])([H])C([H])([H])C([H])([H])C([H])(n6nc(-c7c([H])c([H])c(Oc8c([H])c([H])c(F)c([H])c8F)c([H])c7[H])c(C(=O)N([H])[H])c6N([H])[H])C5([H])[H])C34[H])c([H])c([H])c2C1([H])[H]

$$$$
52:0:0
     RDKit          3D

 89 98  0  0  1  0  0  0  0  0999 V2000
  -30.6400  -21.9880   21.1100 C   0  0  0  0  0  2  0  0  0  0  0  0
  -28.9040  -22.1880   22.0830 C   0  0  0  0  0  2  0  0  0  0  0  0
  -28.6270  -22.2500   19.6650 C   0  0  0  0  0  2  0  0  0  0  0  0
  -29.7560  -23.2500   21.3590 C   0  0  0  0  0  3  0  0  0  0  0  0
  -29.1020  -23.7180   20.0530 C   0  0  0  0  0  3  0  0  0  0  0  0
  -29.2540  -21.3740   20.8090 C   0  0  1  0  0  0  0  0  0  0  0  0
  -28.0100  -24.9120   20.0760 C   0  0  0  0  0  2  0  0  0  0  0  0
  -28.3020  -26.3880   20.1710 O   0  0  0  0  0  0  0  0  0  0  0  0
  -24.6350  -31.9020   23.1990 C   0  0  0  0  0  0  0  0  0  0  0  0
  -27.2050  -27.2890   20.1310 C   0  0  0  0  0  0  0  0  0  0  0  0
  -23.4200  -30.5070   21.5690 C   0  0  0  0  0  3  0  0  0  0  0  0
  -24.8570  -28.9540   20.1350 C   0  0  0  0  0  0  0  0  0  0  0  0
  -25.9660  -30.8040   21.3770 C   0  0  0  0  0  2  0  0  0  0  0  0
  -26.0370  -29.4230   20.7250 C   0  0  0  0  0  0  0  0  0  0  0  0
  -27.2150  -28.6050   20.7100 C   0  0  0  0  0  3  0  0  0  0  0  0
  -25.9920  -26.8940   19.5150 C   0  0  0  0  0  3  0  0  0  0  0  0
  -24.8400  -27.6980   19.5190 C   0  0  0  0  0  3  0  0  0  0  0  0
  -23.6260  -29.8360   20.1880 C   0  0  0  0  0  2  0  0  0  0  0  0
  -24.6940  -31.0890   22.1040 N   0  0  0  0  0  0  0  0  0  0  0  0
  -23.5540  -32.1830   23.7370 O   0  0  0  0  0  0  0  0  0  0  0  0
  -22.7580  -29.4910   22.5320 C   0  0  0  0  0  0  0  0  0  0  0  0
  -21.4320  -29.3100   22.4080 N   0  0  0  0  0  0  0  0  0  0  0  0
  -23.4380  -28.8680   23.3520 O   0  0  0  0  0  0  0  0  0  0  0  0
  -20.9410  -29.8640   21.7200 H   0  0  0  0  0  0  0  0  0  0  0  0
  -18.0570  -28.1080   22.9210 C   0  0  0  0  0  0  0  0  0  0  0  0
  -20.6160  -28.3750   23.1850 C   0  0  0  0  0  3  0  0  0  0  0  0
  -20.7190  -26.9400   22.6180 C   0  0  0  0  0  2  0  0  0  0  0  0
  -19.6160  -26.6100   21.6080 C   0  0  0  0  0  2  0  0  0  0  0  0
  -18.2350  -26.7550   22.2520 C   0  0  0  0  0  2  0  0  0  0  0  0
  -19.1740  -28.8750   23.3440 C   0  0  0  0  0  0  0  0  0  0  0  0
  -18.9520  -30.1400   23.9290 C   0  0  0  0  0  3  0  0  0  0  0  0
  -17.6470  -30.6380   24.0970 C   0  0  0  0  0  3  0  0  0  0  0  0
  -16.5440  -29.8690   23.6880 C   0  0  0  0  0  3  0  0  0  0  0  0
  -16.7490  -28.6050   23.1050 C   0  0  0  0  0  3  0  0  0  0  0  0
  -25.9200  -32.5340   23.8120 C   0  0  0  0  0  3  0  0  0  0  0  0
  -26.4480  -31.7580   25.0810 C   0  0  1  0  0  0  0  0  0  0  0  0
  -25.3640  -31.5160   26.1580 C   0  0  0  0  0  1  0  0  0  0  0  0
  -27.0290  -30.3810   24.6840 C   0  0  0  0  0  1  0  0  0  0  0  0
  -27.6050  -32.5510   25.7350 C   0  0  0  0  0  1  0  0  0  0  0  0
  -25.6100  -33.9300   24.1520 N   0  0  0  0  0  0  0  0  0  0  0  0
  -25.9280  -34.9880   23.3930 C   0  0  0  0  0  0  0  0  0  0  0  0
  -26.5810  -34.8910   22.3520 O   0  0  0  0  0  0  0  0  0  0  0  0
  -25.0270  -34.0780   24.9630 H   0  0  0  0  0  0  0  0  0  0  0  0
  -24.1870  -36.7770   23.0780 C   0  0  0  0  0  1  0  0  0  0  0  0
  -25.4440  -36.3730   23.8650 C   0  0  0  0  0  3  0  0  0  0  0  0
  -27.5900  -37.2610   24.6640 C   0  0  0  0  0  1  0  0  0  0  0  0
  -26.4710  -37.4300   23.7400 N   0  0  0  0  0  0  0  0  0  0  0  0
  -26.0640  -38.3480   23.9000 H   0  0  0  0  0  0  0  0  0  0  0  0
  -28.9740  -19.7780   20.9050 C   0  0  0  0  0  2  0  0  0  0  0  0
  -29.8120  -18.6150   20.1610 C   0  0  0  0  0  2  0  0  0  0  0  0
  -30.2650  -17.2870   20.9800 C   0  0  0  0  0  2  0  0  0  0  0  0
  -30.6040  -14.7480   20.3190 C   0  0  0  0  0  0  0  0  0  0  0  0
  -30.3720  -12.4930   19.2640 C   0  0  0  0  0  2  0  0  0  0  0  0
  -29.4190  -12.5790   18.0520 C   0  0  0  0  0  2  0  0  0  0  0  0
  -27.9510  -12.4200   18.4960 C   0  0  0  0  0  2  0  0  0  0  0  0
  -27.5980  -13.3060   19.7200 C   0  0  0  0  0  3  0  0  0  0  0  0
  -28.6650  -13.1930   20.8310 C   0  0  0  0  0  2  0  0  0  0  0  0
  -29.9580  -13.5380   20.2250 N   0  0  0  0  0  0  0  0  0  0  0  0
  -31.7930  -14.8460   20.0060 O   0  0  0  0  0  0  0  0  0  0  0  0
  -29.8440  -15.8720   20.5940 N   0  0  0  0  0  0  0  0  0  0  0  0
  -28.8640  -15.6730   20.7290 H   0  0  0  0  0  0  0  0  0  0  0  0
  -25.2140  -13.9160   20.4530 C   0  0  0  0  0  0  0  0  0  0  0  0
  -24.1470  -13.1500   20.8330 C   0  0  0  0  0  0  0  0  0  0  0  0
  -24.6040  -11.7950   20.8120 C   0  0  0  0  0  0  0  0  0  0  0  0
  -26.2540  -13.0300   20.2190 N   0  0  0  0  0  0  0  0  0  0  0  0
  -25.8930  -11.7510   20.4980 N   0  0  0  0  0  0  0  0  0  0  0  0
  -23.8730  -10.5380   21.0120 C   0  0  0  0  0  0  0  0  0  0  0  0
  -24.3090   -9.5710   21.9440 C   0  0  0  0  0  3  0  0  0  0  0  0
  -23.5770   -8.3780   22.1340 C   0  0  0  0  0  3  0  0  0  0  0  0
  -22.3950   -8.1460   21.3900 C   0  0  0  0  0  0  0  0  0  0  0  0
  -21.9790   -9.1020   20.4480 C   0  0  0  0  0  3  0  0  0  0  0  0
  -22.7100  -10.2850   20.2570 C   0  0  0  0  0  3  0  0  0  0  0  0
  -21.6340   -7.0060   21.4890 O   0  0  0  0  0  0  0  0  0  0  0  0
  -21.5990   -6.2620   22.6410 C   0  0  0  0  0  0  0  0  0  0  0  0
  -21.2020   -6.8190   23.8770 C   0  0  0  0  0  3  0  0  0  0  0  0
  -21.1140   -6.0010   25.0220 C   0  0  0  0  0  3  0  0  0  0  0  0
  -21.4110   -4.6290   24.9320 C   0  0  0  0  0  0  0  0  0  0  0  0
  -21.8010   -4.0710   23.7020 C   0  0  0  0  0  3  0  0  0  0  0  0
  -21.8910   -4.8860   22.5590 C   0  0  0  0  0  0  0  0  0  0  0  0
  -22.2470   -4.3390   21.3710 F   0  0  0  0  0  0  0  0  0  0  0  0
  -21.3190   -3.8420   26.0300 F   0  0  0  0  0  0  0  0  0  0  0  0
  -22.7520  -13.6350   21.1050 C   0  0  0  0  0  0  0  0  0  0  0  0
  -22.0250  -12.9480   21.9790 N   0  0  0  0  0  0  0  0  0  0  0  0
  -22.3180  -14.6570   20.5770 O   0  0  0  0  0  0  0  0  0  0  0  0
  -22.3910  -12.1200   22.4260 H   0  0  0  0  0  0  0  0  0  0  0  0
  -21.0900  -13.2550   22.2060 H   0  0  0  0  0  0  0  0  0  0  0  0
  -25.3820  -15.2850   20.2630 N   0  0  0  0  0  0  0  0  0  0  0  0
  -24.6130  -15.9390   20.3630 H   0  0  0  0  0  0  0  0  0  0  0  0
  -26.2230  -15.7170   19.9030 H   0  0  0  0  0  0  0  0  0  0  0  0
  3  5  1  0
  3  6  1  0
  4  1  1  0
  4  2  1  0
  5  7  1  0
  5  4  1  0
  6 49  1  1
  6  1  1  0
  6  2  1  0
  7  8  1  0
  9 20  2  0
 10  8  1  0
 10 15  1  0
 11 19  1  0
 11 21  1  0
 12 18  1  0
 12 14  1  0
 13 19  1  0
 14 13  1  0
 15 14  2  0
 16 17  1  0
 16 10  2  0
 17 12  2  0
 18 11  1  0
 19  9  1  0
 21 23  2  0
 22 21  1  0
 24 22  1  0
 25 34  2  0
 25 30  1  0
 26 22  1  0
 26 30  1  0
 27 26  1  0
 28 29  1  0
 28 27  1  0
 29 25  1  0
 30 31  2  0
 31 32  1  0
 33 32  2  0
 34 33  1  0
 35  9  1  0
 35 40  1  0
 35 36  1  0
 36 39  1  1
 36 37  1  0
 38 36  1  0
 40 43  1  0
 41 45  1  0
 41 40  1  0
 42 41  2  0
 45 44  1  0
 47 45  1  0
 47 48  1  0
 47 46  1  0
 50 49  1  0
 50 51  1  0
 52 60  1  0
 53 58  1  0
 54 55  1  0
 54 53  1  0
 56 55  1  0
 56 65  1  0
 56 57  1  0
 58 52  1  0
 58 57  1  0
 59 52  2  0
 60 61  1  0
 60 51  1  0
 62 63  2  0
 63 82  1  0
 64 63  1  0
 64 67  1  0
 65 62  1  0
 65 66  1  0
 66 64  2  0
 67 68  1  0
 68 69  2  0
 70 73  1  0
 70 69  1  0
 71 70  2  0
 72 71  1  0
 72 67  2  0
 73 74  1  0
 74 75  1  0
 75 76  2  0
 77 76  1  0
 77 81  1  0
 78 77  2  0
 79 74  2  0
 79 78  1  0
 80 79  1  0
 82 83  1  0
 83 86  1  0
 83 85  1  0
 84 82  2  0
 87 88  1  0
 87 62  1  0
 89 87  1  0
M  ISO  4   7 101   8 101  52 100  60 100
M  END
>  <TORSDO>  (52) 
F 20

>  <SCORE>  (52) 
-13.810

>  <name>  (52) 
52

>  <ligand_id>  (52) 
52

>  <original_smiles>  (52) 
[H]c1c([H])c([H])c2c(c1[H])C([H])([H])C([H])([H])C([H])([H])C2([H])N([H])C(=O)C1([H])N(C(=O)C([H])(N([H])C(=O)C([H])(N([H])C([H])([H])[H])C([H])([H])[H])C(C([H])([H])[H])(C([H])([H])[H])C([H])([H])[H])C([H])([H])c2c([H])c(OC([H])([H])C3([H])C([H])([H])C4(C([H])([H])C([H])([H])C([H])([H])N([H])C(=O)N5C([H])([H])C([H])([H])C([H])([H])C([H])(n6nc(-c7c([H])c([H])c(Oc8c([H])c([H])c(F)c([H])c8F)c([H])c7[H])c(C(=O)N([H])[H])c6N([H])[H])C5([H])[H])C([H])([H])C3([H])C4([H])[H])c([H])c([H])c2C1([H])[H]

>  <smiles>  (52) 
[H]c1c([H])c([H])c2c(c1[H])C([H])([H])C([H])([H])C([H])([H])C2([H])N([H])C(=O)C1([H])N(C(=O)C([H])(N([H])C(=O)C([H])(N([H])C([H])([H])[H])C([H])([H])[H])C(C([H])([H])[H])(C([H])([H])[H])C([H])([H])[H])C([H])([H])c2c([H])c(OC([H])([H])C3([H])C([H])([H])C4(C([H])([H])C([H])([H])C([H])([H])N([H])C(=O)N5C([H])([H])C([H])([H])C([H])([H])C([H])(n6nc(-c7c([H])c([H])c(Oc8c([H])c([H])c(F)c([H])c8F)c([H])c7[H])c(C(=O)N([H])[H])c6N([H])[H])C5([H])[H])C([H])([H])C3([H])C4([H])[H])c([H])c([H])c2C1([H])[H]

$$$$
53:0:0
     RDKit          3D

 94102  0  0  1  0  0  0  0  0999 V2000
  -28.5640  -21.1260   20.3420 N   0  0  0  0  0  4  0  0  0  0  0  0
  -27.9220  -20.9410   19.5860 H   0  0  0  0  0  0  0  0  0  0  0  0
  -28.0350  -21.0810   21.2000 H   0  0  0  0  0  0  0  0  0  0  0  0
  -29.0850  -22.5540   20.1550 C   0  0  0  0  0  2  0  0  0  0  0  0
  -26.7390  -23.5550   20.9980 C   0  0  0  0  0  2  0  0  0  0  0  0
  -27.7990  -24.0370   21.9490 C   0  0  0  0  0  2  0  0  0  0  0  0
  -28.1530  -23.8090   20.4890 C   0  0  1  0  0  0  0  0  0  0  0  0
  -28.4410  -25.1220   19.6360 C   0  0  0  0  0  2  0  0  0  0  0  0
  -28.3730  -26.5010   20.1950 O   0  0  0  0  0  0  0  0  0  0  0  0
  -24.6390  -31.8780   23.2230 C   0  0  0  0  0  0  0  0  0  0  0  0
  -27.2390  -27.3250   20.1370 C   0  0  0  0  0  0  0  0  0  0  0  0
  -23.4290  -30.4830   21.5810 C   0  0  0  0  0  3  0  0  0  0  0  0
  -24.8770  -28.9390   20.1370 C   0  0  0  0  0  0  0  0  0  0  0  0
  -25.9630  -30.8040   21.3880 C   0  0  0  0  0  2  0  0  0  0  0  0
  -26.0410  -29.4230   20.7420 C   0  0  0  0  0  0  0  0  0  0  0  0
  -27.2200  -28.6230   20.7420 C   0  0  0  0  0  3  0  0  0  0  0  0
  -26.0520  -26.8990   19.5000 C   0  0  0  0  0  3  0  0  0  0  0  0
  -24.8860  -27.6840   19.5060 C   0  0  0  0  0  3  0  0  0  0  0  0
  -23.6370  -29.8070   20.1990 C   0  0  0  0  0  2  0  0  0  0  0  0
  -24.6960  -31.0730   22.1210 N   0  0  0  0  0  0  0  0  0  0  0  0
  -23.5570  -32.1520   23.7630 O   0  0  0  0  0  0  0  0  0  0  0  0
  -22.7740  -29.4600   22.5430 C   0  0  0  0  0  0  0  0  0  0  0  0
  -21.4470  -29.2830   22.4240 N   0  0  0  0  0  0  0  0  0  0  0  0
  -23.4610  -28.8320   23.3540 O   0  0  0  0  0  0  0  0  0  0  0  0
  -20.9520  -29.8500   21.7490 H   0  0  0  0  0  0  0  0  0  0  0  0
  -18.0740  -28.0840   22.9330 C   0  0  0  0  0  0  0  0  0  0  0  0
  -20.6330  -28.3400   23.1920 C   0  0  0  0  0  3  0  0  0  0  0  0
  -20.7320  -26.9130   22.6080 C   0  0  0  0  0  2  0  0  0  0  0  0
  -19.6250  -26.5970   21.5980 C   0  0  0  0  0  2  0  0  0  0  0  0
  -18.2460  -26.7370   22.2510 C   0  0  0  0  0  2  0  0  0  0  0  0
  -19.1940  -28.8430   23.3620 C   0  0  0  0  0  0  0  0  0  0  0  0
  -18.9820  -30.1040   23.9620 C   0  0  0  0  0  3  0  0  0  0  0  0
  -17.6790  -30.6060   24.1350 C   0  0  0  0  0  3  0  0  0  0  0  0
  -16.5720  -29.8450   23.7210 C   0  0  0  0  0  3  0  0  0  0  0  0
  -16.7710  -28.5850   23.1290 C   0  0  0  0  0  3  0  0  0  0  0  0
  -25.9250  -32.5120   23.8400 C   0  0  0  0  0  3  0  0  0  0  0  0
  -25.6100  -33.9020   24.1930 N   0  0  0  0  0  0  0  0  0  0  0  0
  -25.9290  -34.9670   23.4450 C   0  0  0  0  0  0  0  0  0  0  0  0
  -26.5910  -34.8820   22.4070 O   0  0  0  0  0  0  0  0  0  0  0  0
  -25.0220  -34.0390   25.0040 H   0  0  0  0  0  0  0  0  0  0  0  0
  -24.1880  -36.7560   23.1370 C   0  0  0  0  0  1  0  0  0  0  0  0
  -25.4400  -36.3450   23.9290 C   0  0  0  0  0  3  0  0  0  0  0  0
  -27.5800  -37.2350   24.7420 C   0  0  0  0  0  1  0  0  0  0  0  0
  -26.4630  -37.4080   23.8160 N   0  0  0  0  0  0  0  0  0  0  0  0
  -26.0520  -38.3220   23.9800 H   0  0  0  0  0  0  0  0  0  0  0  0
  -26.4500  -31.7270   25.1040 C   0  0  1  0  0  0  0  0  0  0  0  0
  -25.3600  -31.4790   26.1730 C   0  0  0  0  0  1  0  0  0  0  0  0
  -27.0380  -30.3530   24.6990 C   0  0  0  0  0  1  0  0  0  0  0  0
  -27.5980  -32.5170   25.7730 C   0  0  0  0  0  1  0  0  0  0  0  0
  -29.6030  -20.0030   20.3840 C   0  0  0  0  0  2  0  0  0  0  0  0
  -29.1290  -18.4370   20.3440 C   0  0  0  0  0  2  0  0  0  0  0  0
  -29.8190  -17.1460   19.6150 C   0  0  0  0  0  0  0  0  0  0  0  0
  -30.5030  -14.6300   19.9580 C   0  0  0  0  0  0  0  0  0  0  0  0
  -30.1800  -12.4140   18.9260 C   0  0  0  0  0  2  0  0  0  0  0  0
  -29.1890  -12.6140   17.7640 C   0  0  0  0  0  2  0  0  0  0  0  0
  -27.7490  -12.4370   18.2800 C   0  0  0  0  0  2  0  0  0  0  0  0
  -27.4670  -13.2530   19.5720 C   0  0  0  0  0  3  0  0  0  0  0  0
  -28.5890  -13.0890   20.6210 C   0  0  0  0  0  2  0  0  0  0  0  0
  -29.8540  -13.4250   19.9590 N   0  0  0  0  0  0  0  0  0  0  0  0
  -31.6180  -14.6920   19.4530 O   0  0  0  0  0  0  0  0  0  0  0  0
  -29.7940  -15.7720   20.2850 N   0  0  0  0  0  4  0  0  0  0  0  0
  -28.9520  -15.5860   20.8120 H   0  0  0  0  0  0  0  0  0  0  0  0
  -25.1160  -13.8010   20.4440 C   0  0  0  0  0  0  0  0  0  0  0  0
  -24.0870  -13.0090   20.8670 C   0  0  0  0  0  0  0  0  0  0  0  0
  -24.5640  -11.6640   20.7900 C   0  0  0  0  0  0  0  0  0  0  0  0
  -26.1540  -12.9430   20.1300 N   0  0  0  0  0  0  0  0  0  0  0  0
  -25.8320  -11.6480   20.3970 N   0  0  0  0  0  0  0  0  0  0  0  0
  -23.8660  -10.3910   21.0120 C   0  0  0  0  0  0  0  0  0  0  0  0
  -24.3410   -9.4430   21.9440 C   0  0  0  0  0  3  0  0  0  0  0  0
  -23.6430   -8.2340   22.1520 C   0  0  0  0  0  3  0  0  0  0  0  0
  -22.4580   -7.9630   21.4280 C   0  0  0  0  0  0  0  0  0  0  0  0
  -21.9990   -8.9030   20.4880 C   0  0  0  0  0  3  0  0  0  0  0  0
  -22.6970  -10.1040   20.2790 C   0  0  0  0  0  3  0  0  0  0  0  0
  -21.7280   -6.8040   21.5470 O   0  0  0  0  0  0  0  0  0  0  0  0
  -21.6910   -6.0950   22.7200 C   0  0  0  0  0  0  0  0  0  0  0  0
  -21.2570   -6.6790   23.9310 C   0  0  0  0  0  3  0  0  0  0  0  0
  -21.1650   -5.8960   25.0970 C   0  0  0  0  0  3  0  0  0  0  0  0
  -21.5000   -4.5280   25.0580 C   0  0  0  0  0  0  0  0  0  0  0  0
  -21.9290   -3.9450   23.8530 C   0  0  0  0  0  3  0  0  0  0  0  0
  -22.0220   -4.7250   22.6880 C   0  0  0  0  0  0  0  0  0  0  0  0
  -22.4140   -4.1520   21.5250 F   0  0  0  0  0  0  0  0  0  0  0  0
  -21.4040   -3.7740   26.1770 F   0  0  0  0  0  0  0  0  0  0  0  0
  -22.7060  -13.4660   21.2350 C   0  0  0  0  0  0  0  0  0  0  0  0
  -22.0490  -12.7640   22.1500 N   0  0  0  0  0  0  0  0  0  0  0  0
  -22.2250  -14.4900   20.7470 O   0  0  0  0  0  0  0  0  0  0  0  0
  -22.4510  -11.9400   22.5720 H   0  0  0  0  0  0  0  0  0  0  0  0
  -21.1270  -13.0580   22.4370 H   0  0  0  0  0  0  0  0  0  0  0  0
  -25.2460  -15.1770   20.2780 N   0  0  0  0  0  0  0  0  0  0  0  0
  -24.4600  -15.7990   20.4320 H   0  0  0  0  0  0  0  0  0  0  0  0
  -26.0550  -15.6440   19.8890 H   0  0  0  0  0  0  0  0  0  0  0  0
  -31.1130  -17.5290   18.8080 C   0  0  0  0  0  2  0  0  0  0  0  0
  -33.3660  -16.9070   19.9920 C   0  0  0  0  0  1  0  0  0  0  0  0
  -33.1390  -19.0830   18.7900 C   0  0  0  0  0  1  0  0  0  0  0  0
  -32.3750  -18.0090   19.5870 C   0  0  0  0  0  3  0  0  0  0  0  0
  1 50  1  0
  1  3  1  0
  2  1  1  0
  4  1  1  0
  7  4  1  1
  5  6  1  0
  7  5  1  0
  7  6  1  0
  8  9  1  0
  8  7  1  0
 10 21  2  0
 11  9  1  0
 11 16  1  0
 12 20  1  0
 12 22  1  0
 13 19  1  0
 13 15  1  0
 14 20  1  0
 15 14  1  0
 16 15  2  0
 17 18  1  0
 17 11  2  0
 18 13  2  0
 19 12  1  0
 20 10  1  0
 22 24  2  0
 23 22  1  0
 25 23  1  0
 26 35  2  0
 26 31  1  0
 27 23  1  0
 27 31  1  0
 28 27  1  0
 29 30  1  0
 29 28  1  0
 30 26  1  0
 31 32  2  0
 32 33  1  0
 34 33  2  0
 35 34  1  0
 36 10  1  0
 36 37  1  0
 36 46  1  0
 37 40  1  0
 38 42  1  0
 38 37  1  0
 39 38  2  0
 42 41  1  0
 44 42  1  0
 44 45  1  0
 44 43  1  0
 46 49  1  1
 46 47  1  0
 48 46  1  0
 51 50  1  0
 52 61  2  0
 52 51  1  0
 53 59  1  0
 53 61  1  0
 54 59  1  0
 55 56  1  0
 55 54  1  0
 57 56  1  0
 57 66  1  0
 57 58  1  0
 59 58  1  0
 60 53  2  0
 61 62  1  0
 63 64  2  0
 64 83  1  0
 65 64  1  0
 65 68  1  0
 66 67  1  0
 66 63  1  0
 67 65  2  0
 68 69  1  0
 69 70  2  0
 71 74  1  0
 71 70  1  0
 72 71  2  0
 73 72  1  0
 73 68  2  0
 74 75  1  0
 75 76  1  0
 76 77  2  0
 78 77  1  0
 78 82  1  0
 79 78  2  0
 80 75  2  0
 80 79  1  0
 81 80  1  0
 83 84  1  0
 84 87  1  0
 84 86  1  0
 85 83  2  0
 88 89  1  0
 88 63  1  0
 90 88  1  0
 91 94  1  0
 91 52  1  0
 93 94  1  0
 94 92  1  0
M  ISO  4   8 101   9 101  53 100  61 100
M  END
>  <TORSDO>  (53) 
F 24

>  <SCORE>  (53) 
-12.156

>  <name>  (53) 
53

>  <ligand_id>  (53) 
53

>  <original_smiles>  (53) 
[H]c1c([H])c([H])c2c(c1[H])C([H])([H])C([H])([H])C([H])([H])C2([H])N([H])C(=O)C1([H])N(C(=O)C([H])(N([H])C(=O)C([H])(N([H])C([H])([H])[H])C([H])([H])[H])C(C([H])([H])[H])(C([H])([H])[H])C([H])([H])[H])C([H])([H])c2c([H])c(OC([H])([H])C3(C([H])([H])[N+]([H])([H])C([H])([H])C([H])([H])C([H])(N([H])C(=O)N4C([H])([H])C([H])([H])C([H])([H])C([H])(n5nc(-c6c([H])c([H])c(Oc7c([H])c([H])c(F)c([H])c7F)c([H])c6[H])c(C(=O)N([H])[H])c5N([H])[H])C4([H])[H])C([H])([H])C([H])(C([H])([H])[H])C([H])([H])[H])C([H])([H])C3([H])[H])c([H])c([H])c2C1([H])[H]

>  <smiles>  (53) 
[H]c1c([H])c([H])c2c(c1[H])C([H])([H])C([H])([H])C([H])([H])C2([H])N([H])C(=O)C1([H])N(C(=O)C([H])(N([H])C(=O)C([H])(N([H])C([H])([H])[H])C([H])([H])[H])C(C([H])([H])[H])(C([H])([H])[H])C([H])([H])[H])C([H])([H])c2c([H])c(OC([H])([H])C3(C([H])([H])[N+]([H])([H])C([H])([H])C([H])([H])C([H])(N([H])C(=O)N4C([H])([H])C([H])([H])C([H])([H])C([H])(n5nc(-c6c([H])c([H])c(Oc7c([H])c([H])c(F)c([H])c7F)c([H])c6[H])c(C(=O)N([H])[H])c5N([H])[H])C4([H])[H])C([H])([H])C([H])(C([H])([H])[H])C([H])([H])[H])C([H])([H])C3([H])[H])c([H])c([H])c2C1([H])[H]

$$$$
54:0:0
     RDKit          3D

 88 97  0  0  1  0  0  0  0  0999 V2000
  -30.5920  -19.7880   20.5400 C   0  0  0  0  0  2  0  0  0  0  0  0
  -29.7130  -21.0210   21.0650 C   0  0  0  0  0  3  0  0  0  0  0  0
  -28.5150  -20.2490   20.4650 C   0  0  0  0  0  3  0  0  0  0  0  0
  -28.5640  -22.0630   20.6050 C   0  0  0  0  0  3  0  0  0  0  0  0
  -29.5030  -18.8170   19.9590 C   0  0  2  0  0  0  0  0  0  0  0  0
  -30.2710  -15.7150   20.2100 C   0  0  0  0  0  0  0  0  0  0  0  0
  -30.3500  -13.1670   19.4000 C   0  0  0  0  0  2  0  0  0  0  0  0
  -29.4490  -12.7970   18.1870 C   0  0  0  0  0  2  0  0  0  0  0  0
  -28.0250  -12.4500   18.6450 C   0  0  0  0  0  2  0  0  0  0  0  0
  -27.5330  -13.4390   19.7250 C   0  0  0  0  0  3  0  0  0  0  0  0
  -28.5740  -13.7300   20.8360 C   0  0  0  0  0  2  0  0  0  0  0  0
  -29.7520  -14.3450   20.1830 N   0  0  0  0  0  0  0  0  0  0  0  0
  -31.4870  -15.6560   19.9370 O   0  0  0  0  0  0  0  0  0  0  0  0
  -29.5200  -17.0730   20.3710 N   0  0  0  0  0  0  0  0  0  0  0  0
  -28.5870  -16.8330   20.6670 H   0  0  0  0  0  0  0  0  0  0  0  0
  -25.1850  -13.9670   20.5290 C   0  0  0  0  0  0  0  0  0  0  0  0
  -24.1270  -13.1860   20.8980 C   0  0  0  0  0  0  0  0  0  0  0  0
  -24.5910  -11.8350   20.8380 C   0  0  0  0  0  0  0  0  0  0  0  0
  -26.2210  -13.0960   20.2540 N   0  0  0  0  0  0  0  0  0  0  0  0
  -25.8810  -11.8050   20.5090 N   0  0  0  0  0  0  0  0  0  0  0  0
  -23.8600  -10.5740   21.0140 C   0  0  0  0  0  0  0  0  0  0  0  0
  -24.2950   -9.5860   21.9250 C   0  0  0  0  0  3  0  0  0  0  0  0
  -23.5590   -8.3930   22.0940 C   0  0  0  0  0  3  0  0  0  0  0  0
  -22.3730   -8.1790   21.3510 C   0  0  0  0  0  0  0  0  0  0  0  0
  -21.9570   -9.1550   20.4290 C   0  0  0  0  0  3  0  0  0  0  0  0
  -22.6930  -10.3390   20.2590 C   0  0  0  0  0  3  0  0  0  0  0  0
  -21.6070   -7.0400   21.4310 O   0  0  0  0  0  0  0  0  0  0  0  0
  -21.5690   -6.2770   22.5710 C   0  0  0  0  0  0  0  0  0  0  0  0
  -21.1520   -6.8090   23.8110 C   0  0  0  0  0  3  0  0  0  0  0  0
  -21.0610   -5.9710   24.9410 C   0  0  0  0  0  3  0  0  0  0  0  0
  -21.3760   -4.6040   24.8320 C   0  0  0  0  0  0  0  0  0  0  0  0
  -21.7860   -4.0720   23.5970 C   0  0  0  0  0  3  0  0  0  0  0  0
  -21.8800   -4.9050   22.4690 C   0  0  0  0  0  0  0  0  0  0  0  0
  -22.2540   -4.3820   21.2760 F   0  0  0  0  0  0  0  0  0  0  0  0
  -21.2820   -3.7980   25.9150 F   0  0  0  0  0  0  0  0  0  0  0  0
  -22.7350  -13.6660   21.1860 C   0  0  0  0  0  0  0  0  0  0  0  0
  -22.0110  -12.9610   22.0480 N   0  0  0  0  0  0  0  0  0  0  0  0
  -22.3000  -14.7010   20.6840 O   0  0  0  0  0  0  0  0  0  0  0  0
  -22.3770  -12.1220   22.4750 H   0  0  0  0  0  0  0  0  0  0  0  0
  -21.0760  -13.2640   22.2850 H   0  0  0  0  0  0  0  0  0  0  0  0
  -25.3460  -15.3410   20.3680 N   0  0  0  0  0  0  0  0  0  0  0  0
  -24.5750  -15.9890   20.4840 H   0  0  0  0  0  0  0  0  0  0  0  0
  -26.1740  -15.7750   19.9840 H   0  0  0  0  0  0  0  0  0  0  0  0
  -29.4800  -18.7920   18.4330 C   0  0  0  0  0  0  0  0  0  0  0  0
  -29.3090  -20.1260   17.7070 C   0  0  0  0  0  1  0  0  0  0  0  0
  -29.5900  -17.7820   17.7310 O   0  0  0  0  0  0  0  0  0  0  0  0
  -28.1850  -23.8490   19.9880 C   0  0  0  0  0  2  0  0  0  0  0  0
  -28.1720  -25.5640   20.4240 O   0  0  0  0  0  0  0  0  0  0  0  0
  -24.6500  -31.8760   23.2410 C   0  0  0  0  0  0  0  0  0  0  0  0
  -27.2030  -26.7780   20.2970 C   0  0  0  0  0  0  0  0  0  0  0  0
  -23.4740  -30.4640   21.6070 C   0  0  0  0  0  3  0  0  0  0  0  0
  -24.9320  -28.8090   20.2100 C   0  0  0  0  0  0  0  0  0  0  0  0
  -26.0520  -30.6090   21.5010 C   0  0  0  0  0  2  0  0  0  0  0  0
  -26.1210  -29.1710   20.8530 C   0  0  0  0  0  0  0  0  0  0  0  0
  -27.2360  -28.1810   20.8680 C   0  0  0  0  0  3  0  0  0  0  0  0
  -25.9850  -26.6310   19.5850 C   0  0  0  0  0  3  0  0  0  0  0  0
  -24.9040  -27.5660   19.5530 C   0  0  0  0  0  3  0  0  0  0  0  0
  -23.7220  -29.7560   20.2430 C   0  0  0  0  0  2  0  0  0  0  0  0
  -24.7480  -31.0160   22.1680 N   0  0  0  0  0  0  0  0  0  0  0  0
  -23.5540  -32.1760   23.7450 O   0  0  0  0  0  0  0  0  0  0  0  0
  -22.7540  -29.4930   22.5830 C   0  0  0  0  0  0  0  0  0  0  0  0
  -21.4220  -29.3360   22.4530 N   0  0  0  0  0  0  0  0  0  0  0  0
  -23.4070  -28.8780   23.4300 O   0  0  0  0  0  0  0  0  0  0  0  0
  -20.9440  -29.8830   21.7510 H   0  0  0  0  0  0  0  0  0  0  0  0
  -18.0350  -28.1190   22.9590 C   0  0  0  0  0  0  0  0  0  0  0  0
  -20.5940  -28.4050   23.2300 C   0  0  0  0  0  3  0  0  0  0  0  0
  -20.7030  -26.9660   22.6710 C   0  0  0  0  0  2  0  0  0  0  0  0
  -19.6090  -26.6290   21.6540 C   0  0  0  0  0  2  0  0  0  0  0  0
  -18.2240  -26.7690   22.2890 C   0  0  0  0  0  2  0  0  0  0  0  0
  -19.1480  -28.8940   23.3860 C   0  0  0  0  0  0  0  0  0  0  0  0
  -18.9140  -30.1540   23.9780 C   0  0  0  0  0  3  0  0  0  0  0  0
  -17.6040  -30.6420   24.1420 C   0  0  0  0  0  3  0  0  0  0  0  0
  -16.5070  -29.8670   23.7280 C   0  0  0  0  0  3  0  0  0  0  0  0
  -16.7240  -28.6070   23.1430 C   0  0  0  0  0  3  0  0  0  0  0  0
  -25.9090  -32.5330   23.8840 C   0  0  0  0  0  3  0  0  0  0  0  0
  -25.5830  -33.9380   24.2010 N   0  0  0  0  0  0  0  0  0  0  0  0
  -25.9190  -34.9990   23.4540 C   0  0  0  0  0  0  0  0  0  0  0  0
  -26.5920  -34.8970   22.4260 O   0  0  0  0  0  0  0  0  0  0  0  0
  -24.9820  -34.0890   24.9980 H   0  0  0  0  0  0  0  0  0  0  0  0
  -24.1920  -36.8020   23.1130 C   0  0  0  0  0  1  0  0  0  0  0  0
  -25.4360  -36.3900   23.9160 C   0  0  0  0  0  3  0  0  0  0  0  0
  -27.5710  -37.2840   24.7400 C   0  0  0  0  0  1  0  0  0  0  0  0
  -26.4680  -37.4450   23.7980 N   0  0  0  0  0  0  0  0  0  0  0  0
  -26.0610  -38.3650   23.9390 H   0  0  0  0  0  0  0  0  0  0  0  0
  -26.3950  -31.7910   25.1910 C   0  0  1  0  0  0  0  0  0  0  0  0
  -25.2770  -31.5800   26.2420 C   0  0  0  0  0  1  0  0  0  0  0  0
  -26.9840  -30.4040   24.8560 C   0  0  0  0  0  1  0  0  0  0  0  0
  -27.5320  -32.5980   25.8600 C   0  0  0  0  0  1  0  0  0  0  0  0
  2  1  1  0
  3  4  1  0
  3  2  1  0
  4  2  1  0
  5 14  1  1
  5  3  1  0
  5  1  1  0
  6 14  1  0
  7 12  1  0
  8  9  1  0
  8  7  1  0
  9 10  1  0
 10 19  1  0
 10 11  1  0
 12  6  1  0
 12 11  1  0
 13  6  2  0
 14 15  1  0
 16 17  2  0
 17 36  1  0
 18 17  1  0
 18 21  1  0
 19 20  1  0
 19 16  1  0
 20 18  2  0
 21 22  1  0
 22 23  2  0
 24 27  1  0
 24 23  1  0
 25 24  2  0
 26 25  1  0
 26 21  2  0
 27 28  1  0
 28 29  1  0
 29 30  2  0
 31 30  1  0
 31 35  1  0
 32 31  2  0
 33 28  2  0
 33 32  1  0
 34 33  1  0
 36 37  1  0
 37 40  1  0
 37 39  1  0
 38 36  2  0
 41 42  1  0
 41 16  1  0
 43 41  1  0
 44  5  1  0
 45 44  1  0
 46 44  2  0
 47 48  1  0
 47  4  1  0
 49 60  2  0
 49 75  1  0
 50 48  1  0
 50 55  1  0
 51 59  1  0
 51 61  1  0
 52 58  1  0
 52 54  1  0
 53 59  1  0
 54 55  2  0
 54 53  1  0
 56 50  2  0
 57 56  1  0
 57 52  2  0
 58 51  1  0
 59 49  1  0
 61 63  2  0
 62 61  1  0
 62 66  1  0
 64 62  1  0
 65 74  2  0
 65 70  1  0
 66 70  1  0
 67 66  1  0
 68 69  1  0
 68 67  1  0
 69 65  1  0
 70 71  2  0
 71 72  1  0
 73 72  2  0
 74 73  1  0
 75 76  1  0
 75 85  1  0
 76 79  1  0
 77 81  1  0
 77 76  1  0
 78 77  2  0
 80 81  1  0
 83 81  1  0
 83 84  1  0
 83 82  1  0
 85 88  1  1
 85 86  1  0
 87 85  1  0
M  ISO  4   6 100  14 100  47 101  48 101
M  END
>  <TORSDO>  (54) 
F 18

>  <SCORE>  (54) 
-16.109

>  <name>  (54) 
54

>  <ligand_id>  (54) 
54

>  <original_smiles>  (54) 
[H]c1c([H])c([H])c2c(c1[H])C([H])([H])C([H])([H])C([H])([H])C2([H])N([H])C(=O)C1([H])N(C(=O)C([H])(N([H])C(=O)C([H])(N([H])C([H])([H])[H])C([H])([H])[H])C(C([H])([H])[H])(C([H])([H])[H])C([H])([H])[H])C([H])([H])c2c([H])c(OC([H])([H])C3([H])C4([H])C([H])([H])C(C(=O)C([H])([H])[H])(N([H])C(=O)N5C([H])([H])C([H])([H])C([H])([H])C([H])(n6nc(-c7c([H])c([H])c(Oc8c([H])c([H])c(F)c([H])c8F)c([H])c7[H])c(C(=O)N([H])[H])c6N([H])[H])C5([H])[H])C34[H])c([H])c([H])c2C1([H])[H]

>  <smiles>  (54) 
[H]c1c([H])c([H])c2c(c1[H])C([H])([H])C([H])([H])C([H])([H])C2([H])N([H])C(=O)C1([H])N(C(=O)C([H])(N([H])C(=O)C([H])(N([H])C([H])([H])[H])C([H])([H])[H])C(C([H])([H])[H])(C([H])([H])[H])C([H])([H])[H])C([H])([H])c2c([H])c(OC([H])([H])C3([H])C4([H])C([H])([H])C(C(=O)C([H])([H])[H])(N([H])C(=O)N5C([H])([H])C([H])([H])C([H])([H])C([H])(n6nc(-c7c([H])c([H])c(Oc8c([H])c([H])c(F)c([H])c8F)c([H])c7[H])c(C(=O)N([H])[H])c6N([H])[H])C5([H])[H])C34[H])c([H])c([H])c2C1([H])[H]

$$$$
55:0:0
     RDKit          3D

 90 97  0  0  1  0  0  0  0  0999 V2000
  -29.0100  -22.9340   20.7480 N   0  0  0  0  0  4  0  0  0  0  0  0
  -28.1100  -22.8190   21.1860 H   0  0  0  0  0  0  0  0  0  0  0  0
  -28.9420  -22.5670   19.8110 H   0  0  0  0  0  0  0  0  0  0  0  0
  -29.9840  -22.1110   21.5150 C   0  0  0  0  0  2  0  0  0  0  0  0
  -29.5260  -20.6490   21.8360 C   0  0  0  0  0  2  0  0  0  0  0  0
  -29.7350  -19.5930   20.7190 C   0  0  0  0  0  3  0  0  0  0  0  0
  -29.7560  -18.1000   21.2070 C   0  0  0  0  0  3  0  0  0  0  0  0
  -31.9090  -17.3830   20.0450 C   0  0  0  0  0  1  0  0  0  0  0  0
  -30.3940  -17.0800   20.2120 C   0  0  0  0  0  3  0  0  0  0  0  0
  -30.7310  -14.5310   20.1350 C   0  0  0  0  0  0  0  0  0  0  0  0
  -30.3020  -12.3820   19.0110 C   0  0  0  0  0  2  0  0  0  0  0  0
  -29.3300  -12.6250   17.8400 C   0  0  0  0  0  2  0  0  0  0  0  0
  -27.8730  -12.5110   18.3260 C   0  0  0  0  0  2  0  0  0  0  0  0
  -27.5980  -13.3410   19.6100 C   0  0  0  0  0  3  0  0  0  0  0  0
  -28.6970  -13.1180   20.6760 C   0  0  0  0  0  2  0  0  0  0  0  0
  -29.9990  -13.3850   20.0510 N   0  0  0  0  0  0  0  0  0  0  0  0
  -31.8640  -14.5870   19.6580 O   0  0  0  0  0  0  0  0  0  0  0  0
  -30.0890  -15.6520   20.5520 N   0  0  0  0  0  0  0  0  0  0  0  0
  -29.1670  -15.4800   20.9270 H   0  0  0  0  0  0  0  0  0  0  0  0
  -25.2370  -13.9600   20.4180 C   0  0  0  0  0  0  0  0  0  0  0  0
  -24.1750  -13.1940   20.8210 C   0  0  0  0  0  0  0  0  0  0  0  0
  -24.6240  -11.8390   20.7680 C   0  0  0  0  0  0  0  0  0  0  0  0
  -26.2640  -13.0720   20.1430 N   0  0  0  0  0  0  0  0  0  0  0  0
  -25.9030  -11.7910   20.4140 N   0  0  0  0  0  0  0  0  0  0  0  0
  -23.8950  -10.5810   20.9770 C   0  0  0  0  0  0  0  0  0  0  0  0
  -24.3530   -9.6050   21.8880 C   0  0  0  0  0  3  0  0  0  0  0  0
  -23.6250   -8.4120   22.0850 C   0  0  0  0  0  3  0  0  0  0  0  0
  -22.4240   -8.1860   21.3740 C   0  0  0  0  0  0  0  0  0  0  0  0
  -21.9830   -9.1510   20.4490 C   0  0  0  0  0  3  0  0  0  0  0  0
  -22.7110  -10.3360   20.2500 C   0  0  0  0  0  3  0  0  0  0  0  0
  -21.6640   -7.0460   21.4820 O   0  0  0  0  0  0  0  0  0  0  0  0
  -21.6500   -6.2980   22.6300 C   0  0  0  0  0  0  0  0  0  0  0  0
  -21.2850   -6.8510   23.8770 C   0  0  0  0  0  3  0  0  0  0  0  0
  -21.2200   -6.0290   25.0200 C   0  0  0  0  0  3  0  0  0  0  0  0
  -21.5040   -4.6540   24.9180 C   0  0  0  0  0  0  0  0  0  0  0  0
  -21.8590   -4.0990   23.6750 C   0  0  0  0  0  3  0  0  0  0  0  0
  -21.9300   -4.9190   22.5350 C   0  0  0  0  0  0  0  0  0  0  0  0
  -22.2520   -4.3750   21.3360 F   0  0  0  0  0  0  0  0  0  0  0  0
  -21.4330   -3.8620   26.0130 F   0  0  0  0  0  0  0  0  0  0  0  0
  -22.7920  -13.6800   21.1450 C   0  0  0  0  0  0  0  0  0  0  0  0
  -22.0900  -12.9880   22.0350 N   0  0  0  0  0  0  0  0  0  0  0  0
  -22.3430  -14.7100   20.6440 O   0  0  0  0  0  0  0  0  0  0  0  0
  -22.4670  -12.1560   22.4670 H   0  0  0  0  0  0  0  0  0  0  0  0
  -21.1610  -13.2930   22.2890 H   0  0  0  0  0  0  0  0  0  0  0  0
  -25.4060  -15.3310   20.2400 N   0  0  0  0  0  0  0  0  0  0  0  0
  -24.6490  -15.9910   20.3820 H   0  0  0  0  0  0  0  0  0  0  0  0
  -26.2420  -15.7600   19.8650 H   0  0  0  0  0  0  0  0  0  0  0  0
  -29.3280  -24.3970   20.6830 C   0  0  0  0  0  2  0  0  0  0  0  0
  -28.1920  -25.2320   20.0360 C   0  0  0  0  0  2  0  0  0  0  0  0
  -28.3590  -26.6660   20.1510 O   0  0  0  0  0  0  0  0  0  0  0  0
  -24.5800  -31.8930   23.2060 C   0  0  0  0  0  0  0  0  0  0  0  0
  -27.1980  -27.4270   20.1090 C   0  0  0  0  0  0  0  0  0  0  0  0
  -23.3640  -30.4890   21.5750 C   0  0  0  0  0  3  0  0  0  0  0  0
  -24.8050  -28.9570   20.1360 C   0  0  0  0  0  0  0  0  0  0  0  0
  -25.8920  -30.8420   21.3630 C   0  0  0  0  0  2  0  0  0  0  0  0
  -25.9730  -29.4710   20.7170 C   0  0  0  0  0  0  0  0  0  0  0  0
  -27.1700  -28.7160   20.6990 C   0  0  0  0  0  3  0  0  0  0  0  0
  -26.0110  -26.9470   19.5040 C   0  0  0  0  0  3  0  0  0  0  0  0
  -24.8230  -27.6970   19.5220 C   0  0  0  0  0  3  0  0  0  0  0  0
  -23.5620  -29.8150   20.1940 C   0  0  0  0  0  2  0  0  0  0  0  0
  -24.6310  -31.0900   22.1050 N   0  0  0  0  0  0  0  0  0  0  0  0
  -23.5030  -32.1640   23.7510 O   0  0  0  0  0  0  0  0  0  0  0  0
  -22.7200  -29.4670   22.5380 C   0  0  0  0  0  0  0  0  0  0  0  0
  -21.3940  -29.2800   22.4190 N   0  0  0  0  0  0  0  0  0  0  0  0
  -23.4090  -28.8430   23.3500 O   0  0  0  0  0  0  0  0  0  0  0  0
  -20.8990  -29.8380   21.7370 H   0  0  0  0  0  0  0  0  0  0  0  0
  -18.0260  -28.0750   22.9320 C   0  0  0  0  0  0  0  0  0  0  0  0
  -20.5840  -28.3430   23.1950 C   0  0  0  0  0  3  0  0  0  0  0  0
  -20.6890  -26.9100   22.6250 C   0  0  0  0  0  2  0  0  0  0  0  0
  -19.5840  -26.5800   21.6150 C   0  0  0  0  0  2  0  0  0  0  0  0
  -18.2040  -26.7240   22.2620 C   0  0  0  0  0  2  0  0  0  0  0  0
  -19.1440  -28.8420   23.3570 C   0  0  0  0  0  0  0  0  0  0  0  0
  -18.9230  -30.1070   23.9410 C   0  0  0  0  0  3  0  0  0  0  0  0
  -17.6180  -30.6070   24.1070 C   0  0  0  0  0  3  0  0  0  0  0  0
  -16.5140  -29.8370   23.7000 C   0  0  0  0  0  3  0  0  0  0  0  0
  -16.7190  -28.5730   23.1180 C   0  0  0  0  0  3  0  0  0  0  0  0
  -25.8710  -32.5230   23.8150 C   0  0  0  0  0  3  0  0  0  0  0  0
  -26.4020  -31.7500   25.0830 C   0  0  1  0  0  0  0  0  0  0  0  0
  -25.3220  -31.5080   26.1620 C   0  0  0  0  0  1  0  0  0  0  0  0
  -26.9830  -30.3740   24.6810 C   0  0  0  0  0  1  0  0  0  0  0  0
  -27.5580  -32.5450   25.7350 C   0  0  0  0  0  1  0  0  0  0  0  0
  -25.5620  -33.9200   24.1500 N   0  0  0  0  0  0  0  0  0  0  0  0
  -25.8890  -34.9730   23.3890 C   0  0  0  0  0  0  0  0  0  0  0  0
  -26.5520  -34.8720   22.3550 O   0  0  0  0  0  0  0  0  0  0  0  0
  -24.9700  -34.0740   24.9520 H   0  0  0  0  0  0  0  0  0  0  0  0
  -24.1560  -36.7630   23.0450 C   0  0  0  0  0  1  0  0  0  0  0  0
  -25.4010  -36.3590   23.8510 C   0  0  0  0  0  3  0  0  0  0  0  0
  -27.5390  -37.2440   24.6720 C   0  0  0  0  0  1  0  0  0  0  0  0
  -26.4310  -37.4140   23.7360 N   0  0  0  0  0  0  0  0  0  0  0  0
  -26.0250  -38.3350   23.8880 H   0  0  0  0  0  0  0  0  0  0  0  0
  1  2  1  0
  1  4  1  0
  3  1  1  0
  4  5  1  0
  6  7  2  0
  6  5  1  0
  9  8  1  0
  9 18  1  0
  9  7  1  0
 10 18  1  0
 11 16  1  0
 12 13  1  0
 12 11  1  0
 14 13  1  0
 14 23  1  0
 14 15  1  0
 16 10  1  0
 16 15  1  0
 17 10  2  0
 18 19  1  0
 20 21  2  0
 21 40  1  0
 22 21  1  0
 22 25  1  0
 23 24  1  0
 23 20  1  0
 24 22  2  0
 25 26  1  0
 26 27  2  0
 28 31  1  0
 28 27  1  0
 29 28  2  0
 30 29  1  0
 30 25  2  0
 31 32  1  0
 32 33  1  0
 33 34  2  0
 35 34  1  0
 35 39  1  0
 36 35  2  0
 37 32  2  0
 37 36  1  0
 38 37  1  0
 40 41  1  0
 41 44  1  0
 41 43  1  0
 42 40  2  0
 45 46  1  0
 45 20  1  0
 47 45  1  0
 48  1  1  0
 49 50  1  0
 49 48  1  0
 51 62  2  0
 52 50  1  0
 52 57  1  0
 53 61  1  0
 53 63  1  0
 54 60  1  0
 54 56  1  0
 55 61  1  0
 56 55  1  0
 57 56  2  0
 58 59  1  0
 58 52  2  0
 59 54  2  0
 60 53  1  0
 61 51  1  0
 63 65  2  0
 64 63  1  0
 66 64  1  0
 67 76  2  0
 67 72  1  0
 68 64  1  0
 68 72  1  0
 69 68  1  0
 70 71  1  0
 70 69  1  0
 71 67  1  0
 72 73  2  0
 73 74  1  0
 75 74  2  0
 76 75  1  0
 77 51  1  0
 77 82  1  0
 77 78  1  0
 78 81  1  1
 78 79  1  0
 80 78  1  0
 82 85  1  0
 83 87  1  0
 83 82  1  0
 84 83  2  0
 87 86  1  0
 89 87  1  0
 89 90  1  0
 89 88  1  0
M  ISO  4  10 100  18 100  49 101  50 101
M  END
>  <TORSDO>  (55) 
F 23

>  <SCORE>  (55) 
-12.394

>  <name>  (55) 
55

>  <ligand_id>  (55) 
55

>  <original_smiles>  (55) 
[H]c1c([H])c([H])c2c(c1[H])C([H])([H])C([H])([H])C([H])([H])C2([H])N([H])C(=O)C1([H])N(C(=O)C([H])(N([H])C(=O)C([H])(N([H])C([H])([H])[H])C([H])([H])[H])C(C([H])([H])[H])(C([H])([H])[H])C([H])([H])[H])C([H])([H])c2c([H])c(OC([H])([H])C([H])([H])[N+]([H])([H])C([H])([H])C([H])([H])C([H])([H])C([H])([H])C([H])(N([H])C(=O)N3C([H])([H])C([H])([H])C([H])([H])C([H])(n4nc(-c5c([H])c([H])c(Oc6c([H])c([H])c(F)c([H])c6F)c([H])c5[H])c(C(=O)N([H])[H])c4N([H])[H])C3([H])[H])C([H])([H])[H])c([H])c([H])c2C1([H])[H]

>  <smiles>  (55) 
[H]c1c([H])c([H])c2c(c1[H])C([H])([H])C([H])([H])C([H])([H])C2([H])N([H])C(=O)C1([H])N(C(=O)C([H])(N([H])C(=O)C([H])(N([H])C([H])([H])[H])C([H])([H])[H])C(C([H])([H])[H])(C([H])([H])[H])C([H])([H])[H])C([H])([H])c2c([H])c(OC([H])([H])C([H])([H])[N+]([H])([H])C([H])([H])C([H])([H])C([H])([H])C([H])([H])C([H])(N([H])C(=O)N3C([H])([H])C([H])([H])C([H])([H])C([H])(n4nc(-c5c([H])c([H])c(Oc6c([H])c([H])c(F)c([H])c6F)c([H])c5[H])c(C(=O)N([H])[H])c4N([H])[H])C3([H])[H])C([H])([H])[H])c([H])c([H])c2C1([H])[H]

$$$$
56:0:0
     RDKit          3D

 97106  0  0  1  0  0  0  0  0999 V2000
  -27.5500  -20.9370   21.4080 C   0  0  0  0  0  3  0  0  0  0  0  0
  -28.5640  -20.0020   21.1350 C   0  0  0  0  0  3  0  0  0  0  0  0
  -29.7920  -21.7210   19.8960 C   0  0  0  0  0  3  0  0  0  0  0  0
  -27.6660  -22.2470   20.9230 C   0  0  0  0  0  0  0  0  0  0  0  0
  -28.7740  -22.7170   20.2100 C   0  0  0  0  0  0  0  0  0  0  0  0
  -29.7010  -20.3300   20.3620 C   0  0  0  0  0  0  0  0  0  0  0  0
  -26.5480  -23.2370   20.9460 C   0  0  0  0  0  2  0  0  0  0  0  0
  -26.9140  -24.1870   19.8010 C   0  0  0  0  0  2  0  0  0  0  0  0
  -28.4630  -24.2040   19.6760 C   0  0  0  0  0  3  0  0  0  0  0  0
  -28.9400  -25.5670   20.4260 C   0  0  0  0  0  2  0  0  0  0  0  0
  -28.8210  -26.9640   19.8570 O   0  0  0  0  0  0  0  0  0  0  0  0
  -24.7750  -31.8730   23.3980 C   0  0  0  0  0  0  0  0  0  0  0  0
  -27.6570  -27.7570   19.9520 C   0  0  0  0  0  0  0  0  0  0  0  0
  -23.6650  -30.5820   21.6090 C   0  0  0  0  0  3  0  0  0  0  0  0
  -25.2160  -29.2630   20.0520 C   0  0  0  0  0  0  0  0  0  0  0  0
  -26.1860  -31.0460   21.4980 C   0  0  0  0  0  2  0  0  0  0  0  0
  -26.3480  -29.7370   20.7280 C   0  0  0  0  0  0  0  0  0  0  0  0
  -27.5700  -28.9930   20.6750 C   0  0  0  0  0  3  0  0  0  0  0  0
  -26.5230  -27.3900   19.2020 C   0  0  0  0  0  3  0  0  0  0  0  0
  -25.3090  -28.0970   19.2760 C   0  0  0  0  0  3  0  0  0  0  0  0
  -23.9300  -30.0600   20.1710 C   0  0  0  0  0  2  0  0  0  0  0  0
  -24.8930  -31.1830   22.2250 N   0  0  0  0  0  0  0  0  0  0  0  0
  -23.6750  -32.0350   23.9440 O   0  0  0  0  0  0  0  0  0  0  0  0
  -23.0540  -29.4400   22.4560 C   0  0  0  0  0  0  0  0  0  0  0  0
  -21.7450  -29.1900   22.2810 N   0  0  0  0  0  0  0  0  0  0  0  0
  -23.7570  -28.7850   23.2310 O   0  0  0  0  0  0  0  0  0  0  0  0
  -21.2350  -29.7750   21.6340 H   0  0  0  0  0  0  0  0  0  0  0  0
  -18.4520  -27.7140   22.5630 C   0  0  0  0  0  0  0  0  0  0  0  0
  -20.9760  -28.1330   22.9410 C   0  0  0  0  0  3  0  0  0  0  0  0
  -21.2000  -26.7680   22.2500 C   0  0  0  0  0  2  0  0  0  0  0  0
  -20.1540  -26.4560   21.1760 C   0  0  0  0  0  2  0  0  0  0  0  0
  -18.7470  -26.4450   21.7820 C   0  0  0  0  0  2  0  0  0  0  0  0
  -19.4980  -28.5160   23.0930 C   0  0  0  0  0  0  0  0  0  0  0  0
  -19.1690  -29.7020   23.7830 C   0  0  0  0  0  3  0  0  0  0  0  0
  -17.8260  -30.0920   23.9460 C   0  0  0  0  0  3  0  0  0  0  0  0
  -16.7940  -29.2880   23.4310 C   0  0  0  0  0  3  0  0  0  0  0  0
  -17.1070  -28.1010   22.7460 C   0  0  0  0  0  3  0  0  0  0  0  0
  -26.0160  -32.5110   24.0940 C   0  0  0  0  0  3  0  0  0  0  0  0
  -25.6770  -33.9050   24.4160 N   0  0  0  0  0  0  0  0  0  0  0  0
  -26.0310  -34.9670   23.6790 C   0  0  0  0  0  0  0  0  0  0  0  0
  -26.7470  -34.8750   22.6770 O   0  0  0  0  0  0  0  0  0  0  0  0
  -25.0460  -34.0480   25.1910 H   0  0  0  0  0  0  0  0  0  0  0  0
  -24.2950  -36.7400   23.2680 C   0  0  0  0  0  1  0  0  0  0  0  0
  -25.5120  -36.3490   24.1220 C   0  0  0  0  0  3  0  0  0  0  0  0
  -27.5990  -37.2610   25.0370 C   0  0  0  0  0  1  0  0  0  0  0  0
  -26.5360  -37.4150   24.0490 N   0  0  0  0  0  0  0  0  0  0  0  0
  -26.1130  -38.3310   24.1750 H   0  0  0  0  0  0  0  0  0  0  0  0
  -26.4650  -31.7350   25.3940 C   0  0  1  0  0  0  0  0  0  0  0  0
  -25.3110  -31.4700   26.3890 C   0  0  0  0  0  1  0  0  0  0  0  0
  -27.0920  -30.3690   25.0290 C   0  0  0  0  0  1  0  0  0  0  0  0
  -27.5620  -32.5380   26.1310 C   0  0  0  0  0  1  0  0  0  0  0  0
  -30.7450  -19.1220   20.2020 C   0  0  0  0  0  3  0  0  0  0  0  0
  -32.0770  -19.5550   19.5400 C   0  0  0  0  0  2  0  0  0  0  0  0
  -33.1640  -20.0870   20.5050 C   0  0  0  0  0  2  0  0  0  0  0  0
  -32.9670  -21.4900   20.9120 N   0  0  0  0  0  4  0  0  0  0  0  0
  -33.0190  -22.1030   20.1180 H   0  0  0  0  0  0  0  0  0  0  0  0
  -33.6950  -21.7570   21.5510 H   0  0  0  0  0  0  0  0  0  0  0  0
  -32.0830  -21.6140   21.3740 H   0  0  0  0  0  0  0  0  0  0  0  0
  -30.2350  -17.7220   19.5650 C   0  0  0  0  0  2  0  0  0  0  0  0
  -31.2280  -15.2740   19.9300 C   0  0  0  0  0  0  0  0  0  0  0  0
  -31.0520  -12.9390   19.0580 C   0  0  0  0  0  2  0  0  0  0  0  0
  -30.0890  -12.9450   17.8490 C   0  0  0  0  0  2  0  0  0  0  0  0
  -28.6250  -12.7940   18.3090 C   0  0  0  0  0  2  0  0  0  0  0  0
  -28.2720  -13.7420   19.4850 C   0  0  0  0  0  3  0  0  0  0  0  0
  -29.3480  -13.6990   20.5950 C   0  0  0  0  0  2  0  0  0  0  0  0
  -30.6430  -14.0280   19.9770 N   0  0  0  0  0  0  0  0  0  0  0  0
  -32.3550  -15.4150   19.4470 O   0  0  0  0  0  0  0  0  0  0  0  0
  -30.4360  -16.3630   20.2460 N   0  0  0  0  0  0  0  0  0  0  0  0
  -29.6230  -16.0790   20.7740 H   0  0  0  0  0  0  0  0  0  0  0  0
  -25.9250  -14.3870   20.3010 C   0  0  0  0  0  0  0  0  0  0  0  0
  -24.8490  -13.6340   20.6910 C   0  0  0  0  0  0  0  0  0  0  0  0
  -25.2710  -12.2710   20.6120 C   0  0  0  0  0  0  0  0  0  0  0  0
  -26.9340  -13.4830   20.0100 N   0  0  0  0  0  0  0  0  0  0  0  0
  -26.5500  -12.2040   20.2590 N   0  0  0  0  0  0  0  0  0  0  0  0
  -24.5150  -11.0260   20.8010 C   0  0  0  0  0  0  0  0  0  0  0  0
  -24.9120  -10.0580   21.7490 C   0  0  0  0  0  3  0  0  0  0  0  0
  -24.1580   -8.8770   21.9250 C   0  0  0  0  0  3  0  0  0  0  0  0
  -22.9940   -8.6560   21.1520 C   0  0  0  0  0  0  0  0  0  0  0  0
  -22.6150   -9.6130   20.1940 C   0  0  0  0  0  3  0  0  0  0  0  0
  -23.3700  -10.7850   20.0170 C   0  0  0  0  0  3  0  0  0  0  0  0
  -22.2130   -7.5280   21.2370 O   0  0  0  0  0  0  0  0  0  0  0  0
  -22.0420   -6.8580   22.4220 C   0  0  0  0  0  0  0  0  0  0  0  0
  -21.4840   -7.4850   23.5580 C   0  0  0  0  0  3  0  0  0  0  0  0
  -21.2610   -6.7410   24.7330 C   0  0  0  0  0  3  0  0  0  0  0  0
  -21.5860   -5.3730   24.7740 C   0  0  0  0  0  0  0  0  0  0  0  0
  -22.1360   -4.7460   23.6420 C   0  0  0  0  0  3  0  0  0  0  0  0
  -22.3610   -5.4860   22.4690 C   0  0  0  0  0  0  0  0  0  0  0  0
  -22.8710   -4.8730   21.3740 F   0  0  0  0  0  0  0  0  0  0  0  0
  -21.3650   -4.6550   25.9010 F   0  0  0  0  0  0  0  0  0  0  0  0
  -23.4760  -14.1440   21.0200 C   0  0  0  0  0  0  0  0  0  0  0  0
  -22.7700  -13.4660   21.9180 N   0  0  0  0  0  0  0  0  0  0  0  0
  -23.0390  -15.1770   20.5160 O   0  0  0  0  0  0  0  0  0  0  0  0
  -23.1370  -12.6290   22.3480 H   0  0  0  0  0  0  0  0  0  0  0  0
  -21.8490  -13.7870   22.1800 H   0  0  0  0  0  0  0  0  0  0  0  0
  -26.1240  -15.7550   20.1490 N   0  0  0  0  0  0  0  0  0  0  0  0
  -25.3870  -16.4320   20.3060 H   0  0  0  0  0  0  0  0  0  0  0  0
  -26.9720  -16.1720   19.7860 H   0  0  0  0  0  0  0  0  0  0  0  0
  2  1  1  0
  3  5  2  0
  3  6  1  0
  4  7  1  0
  4  1  2  0
  5  4  1  0
  6  2  2  0
  8  7  1  0
  9  8  1  0
  9  5  1  0
  9 10  1  0
 11 13  1  0
 11 10  1  0
 12 23  2  0
 13 18  1  0
 14 22  1  0
 14 24  1  0
 15 21  1  0
 15 17  1  0
 16 22  1  0
 17 16  1  0
 18 17  2  0
 19 20  1  0
 19 13  2  0
 20 15  2  0
 21 14  1  0
 22 12  1  0
 24 26  2  0
 25 24  1  0
 27 25  1  0
 28 37  2  0
 28 33  1  0
 29 25  1  0
 29 33  1  0
 30 29  1  0
 31 32  1  0
 31 30  1  0
 32 28  1  0
 33 34  2  0
 34 35  1  0
 36 35  2  0
 37 36  1  0
 38 12  1  0
 38 39  1  0
 38 48  1  0
 39 42  1  0
 40 44  1  0
 40 39  1  0
 41 40  2  0
 44 43  1  0
 46 44  1  0
 46 47  1  0
 46 45  1  0
 48 51  1  1
 48 49  1  0
 50 48  1  0
 52 53  1  0
 52  6  1  0
 53 54  1  0
 54 55  1  0
 55 58  1  0
 55 57  1  0
 56 55  1  0
 59 52  1  0
 59 68  1  0
 60 66  1  0
 60 68  1  0
 61 66  1  0
 62 63  1  0
 62 61  1  0
 64 63  1  0
 64 73  1  0
 64 65  1  0
 66 65  1  0
 67 60  2  0
 68 69  1  0
 70 71  2  0
 71 90  1  0
 72 71  1  0
 72 75  1  0
 73 74  1  0
 73 70  1  0
 74 72  2  0
 75 76  1  0
 76 77  2  0
 78 81  1  0
 78 77  1  0
 79 78  2  0
 80 79  1  0
 80 75  2  0
 81 82  1  0
 82 87  2  0
 82 83  1  0
 83 84  2  0
 84 85  1  0
 85 89  1  0
 86 85  2  0
 87 86  1  0
 88 87  1  0
 90 91  1  0
 91 94  1  0
 91 93  1  0
 92 90  2  0
 95 70  1  0
 95 96  1  0
 97 95  1  0
M  ISO  4  10 101  11 101  60 100  68 100
M  END
>  <TORSDO>  (56) 
F 22

>  <SCORE>  (56) 
-11.028

>  <name>  (56) 
56

>  <ligand_id>  (56) 
56

>  <original_smiles>  (56) 
[H]c1c([H])c([H])c2c(c1[H])C([H])([H])C([H])([H])C([H])([H])C2([H])N([H])C(=O)C1([H])N(C(=O)C([H])(N([H])C(=O)C([H])(N([H])C([H])([H])[H])C([H])([H])[H])C(C([H])([H])[H])(C([H])([H])[H])C([H])([H])[H])C([H])([H])c2c([H])c(OC([H])([H])C3([H])c4c([H])c(C([H])(C([H])([H])N([H])C(=O)N5C([H])([H])C([H])([H])C([H])([H])C([H])(n6nc(-c7c([H])c([H])c(Oc8c([H])c([H])c(F)c([H])c8F)c([H])c7[H])c(C(=O)N([H])[H])c6N([H])[H])C5([H])[H])C([H])([H])C([H])([H])[N+]([H])([H])[H])c([H])c([H])c4C([H])([H])C3([H])[H])c([H])c([H])c2C1([H])[H]

>  <smiles>  (56) 
[H]c1c([H])c([H])c2c(c1[H])C([H])([H])C([H])([H])C([H])([H])C2([H])N([H])C(=O)C1([H])N(C(=O)C([H])(N([H])C(=O)C([H])(N([H])C([H])([H])[H])C([H])([H])[H])C(C([H])([H])[H])(C([H])([H])[H])C([H])([H])[H])C([H])([H])c2c([H])c(OC([H])([H])C3([H])c4c([H])c(C([H])(C([H])([H])N([H])C(=O)N5C([H])([H])C([H])([H])C([H])([H])C([H])(n6nc(-c7c([H])c([H])c(Oc8c([H])c([H])c(F)c([H])c8F)c([H])c7[H])c(C(=O)N([H])[H])c6N([H])[H])C5([H])[H])C([H])([H])C([H])([H])[N+]([H])([H])[H])c([H])c([H])c4C([H])([H])C3([H])[H])c([H])c([H])c2C1([H])[H]

$$$$
57:0:0
     RDKit          3D

 91100  0  0  1  0  0  0  0  0999 V2000
  -30.4050  -19.4330   18.6650 C   0  0  0  0  0  2  0  0  0  0  0  0
  -28.7020  -21.4450   18.4300 C   0  0  0  0  0  2  0  0  0  0  0  0
  -30.4740  -22.0670   19.1810 C   0  0  0  0  0  2  0  0  0  0  0  0
  -29.2410  -20.4040   20.7420 C   0  0  0  0  0  2  0  0  0  0  0  0
  -30.1190  -20.8980   18.2280 C   0  0  0  0  0  3  0  0  0  0  0  0
  -29.6340  -18.9730   19.9380 C   0  0  0  0  0  3  0  0  0  0  0  0
  -29.1150  -21.8260   19.8760 C   0  0  2  0  0  0  0  0  0  0  0  0
  -28.2310  -23.1820   20.4130 C   0  0  0  0  0  2  0  0  0  0  0  0
  -28.7620  -24.7160   20.8680 C   0  0  0  0  0  2  0  0  0  0  0  0
  -28.5610  -26.1670   20.3370 O   0  0  0  0  0  0  0  0  0  0  0  0
  -24.7030  -31.7950   23.2440 C   0  0  0  0  0  0  0  0  0  0  0  0
  -27.4230  -27.0430   20.4090 C   0  0  0  0  0  0  0  0  0  0  0  0
  -23.5690  -30.3550   21.5930 C   0  0  0  0  0  3  0  0  0  0  0  0
  -25.0720  -28.7450   20.2700 C   0  0  0  0  0  0  0  0  0  0  0  0
  -26.1220  -30.6450   21.4980 C   0  0  0  0  0  2  0  0  0  0  0  0
  -26.2290  -29.2330   20.8930 C   0  0  0  0  0  0  0  0  0  0  0  0
  -27.4090  -28.4000   20.9340 C   0  0  0  0  0  3  0  0  0  0  0  0
  -26.2340  -26.6390   19.7720 C   0  0  0  0  0  3  0  0  0  0  0  0
  -25.0840  -27.4610   19.7010 C   0  0  0  0  0  3  0  0  0  0  0  0
  -23.8420  -29.6400   20.2430 C   0  0  0  0  0  2  0  0  0  0  0  0
  -24.8170  -30.9560   22.1680 N   0  0  0  0  0  0  0  0  0  0  0  0
  -23.5990  -32.0810   23.7310 O   0  0  0  0  0  0  0  0  0  0  0  0
  -22.8650  -29.3660   22.5540 C   0  0  0  0  0  0  0  0  0  0  0  0
  -21.5440  -29.1810   22.3830 N   0  0  0  0  0  0  0  0  0  0  0  0
  -23.5120  -28.7670   23.4170 O   0  0  0  0  0  0  0  0  0  0  0  0
  -21.0770  -29.7180   21.6660 H   0  0  0  0  0  0  0  0  0  0  0  0
  -18.1610  -27.9490   22.7760 C   0  0  0  0  0  0  0  0  0  0  0  0
  -20.7030  -28.2530   23.1460 C   0  0  0  0  0  3  0  0  0  0  0  0
  -20.8470  -26.8070   22.6200 C   0  0  0  0  0  2  0  0  0  0  0  0
  -19.7960  -26.4430   21.5660 C   0  0  0  0  0  2  0  0  0  0  0  0
  -18.3850  -26.5850   22.1440 C   0  0  0  0  0  2  0  0  0  0  0  0
  -19.2490  -28.7390   23.2310 C   0  0  0  0  0  0  0  0  0  0  0  0
  -18.9870  -30.0140   23.7780 C   0  0  0  0  0  3  0  0  0  0  0  0
  -17.6680  -30.4980   23.8760 C   0  0  0  0  0  3  0  0  0  0  0  0
  -16.5940  -29.7060   23.4350 C   0  0  0  0  0  3  0  0  0  0  0  0
  -16.8410  -28.4340   22.8910 C   0  0  0  0  0  3  0  0  0  0  0  0
  -25.9550  -32.4520   23.9020 C   0  0  0  0  0  3  0  0  0  0  0  0
  -26.4300  -31.7040   25.2070 C   0  0  1  0  0  0  0  0  0  0  0  0
  -25.3030  -31.4800   26.2420 C   0  0  0  0  0  1  0  0  0  0  0  0
  -27.0350  -30.3260   24.8560 C   0  0  0  0  0  1  0  0  0  0  0  0
  -27.5540  -32.5160   25.8950 C   0  0  0  0  0  1  0  0  0  0  0  0
  -25.6190  -33.8510   24.2070 N   0  0  0  0  0  0  0  0  0  0  0  0
  -25.9640  -34.9020   23.4490 C   0  0  0  0  0  0  0  0  0  0  0  0
  -26.6610  -34.7940   22.4350 O   0  0  0  0  0  0  0  0  0  0  0  0
  -24.9990  -34.0060   24.9870 H   0  0  0  0  0  0  0  0  0  0  0  0
  -24.2210  -36.6710   23.0420 C   0  0  0  0  0  1  0  0  0  0  0  0
  -25.4520  -36.2890   23.8800 C   0  0  0  0  0  3  0  0  0  0  0  0
  -27.5620  -37.2110   24.7350 C   0  0  0  0  0  1  0  0  0  0  0  0
  -26.4720  -37.3560   23.7730 N   0  0  0  0  0  0  0  0  0  0  0  0
  -26.0510  -38.2720   23.9080 H   0  0  0  0  0  0  0  0  0  0  0  0
  -30.3520  -17.5950   20.6350 C   0  0  0  0  0  3  0  0  0  0  0  0
  -30.8240  -14.8880   20.1550 C   0  0  0  0  0  0  0  0  0  0  0  0
  -30.6290  -12.5340   19.2240 C   0  0  0  0  0  2  0  0  0  0  0  0
  -29.6730  -12.4930   18.0100 C   0  0  0  0  0  2  0  0  0  0  0  0
  -28.2090  -12.3450   18.4650 C   0  0  0  0  0  2  0  0  0  0  0  0
  -27.8490  -13.2950   19.6350 C   0  0  0  0  0  3  0  0  0  0  0  0
  -28.9210  -13.2780   20.7430 C   0  0  0  0  0  2  0  0  0  0  0  0
  -30.1880  -13.6510   20.1020 N   0  0  0  0  0  0  0  0  0  0  0  0
  -32.0430  -14.9090   19.9530 O   0  0  0  0  0  0  0  0  0  0  0  0
  -30.0620  -16.0890   20.2350 N   0  0  0  0  0  0  0  0  0  0  0  0
  -29.0730  -15.8900   20.1980 H   0  0  0  0  0  0  0  0  0  0  0  0
  -25.4960  -13.9700   20.3880 C   0  0  0  0  0  0  0  0  0  0  0  0
  -24.4080  -13.2360   20.7740 C   0  0  0  0  0  0  0  0  0  0  0  0
  -24.8250  -11.8700   20.7560 C   0  0  0  0  0  0  0  0  0  0  0  0
  -26.5060  -13.0530   20.1520 N   0  0  0  0  0  0  0  0  0  0  0  0
  -26.1120  -11.7850   20.4400 N   0  0  0  0  0  0  0  0  0  0  0  0
  -24.0560  -10.6350   20.9600 C   0  0  0  0  0  0  0  0  0  0  0  0
  -24.4540   -9.6680   21.9070 C   0  0  0  0  0  3  0  0  0  0  0  0
  -23.6880   -8.4980   22.1020 C   0  0  0  0  0  3  0  0  0  0  0  0
  -22.5090   -8.2900   21.3490 C   0  0  0  0  0  0  0  0  0  0  0  0
  -22.1290   -9.2460   20.3910 C   0  0  0  0  0  3  0  0  0  0  0  0
  -22.8940  -10.4060   20.1950 C   0  0  0  0  0  3  0  0  0  0  0  0
  -21.7160   -7.1720   21.4530 O   0  0  0  0  0  0  0  0  0  0  0  0
  -21.6290   -6.4570   22.6210 C   0  0  0  0  0  0  0  0  0  0  0  0
  -21.2150   -7.0530   23.8310 C   0  0  0  0  0  3  0  0  0  0  0  0
  -21.0750   -6.2670   24.9920 C   0  0  0  0  0  3  0  0  0  0  0  0
  -21.3350   -4.8850   24.9430 C   0  0  0  0  0  0  0  0  0  0  0  0
  -21.7380   -4.2860   23.7350 C   0  0  0  0  0  3  0  0  0  0  0  0
  -21.8810   -5.0700   22.5770 C   0  0  0  0  0  0  0  0  0  0  0  0
  -22.2520   -4.4860   21.4120 F   0  0  0  0  0  0  0  0  0  0  0  0
  -21.1910   -4.1270   26.0540 F   0  0  0  0  0  0  0  0  0  0  0  0
  -23.0300  -13.7650   21.0460 C   0  0  0  0  0  0  0  0  0  0  0  0
  -22.2840  -13.1060   21.9280 N   0  0  0  0  0  0  0  0  0  0  0  0
  -22.6230  -14.7930   20.5080 O   0  0  0  0  0  0  0  0  0  0  0  0
  -22.6270  -12.2720   22.3800 H   0  0  0  0  0  0  0  0  0  0  0  0
  -21.3580  -13.4400   22.1530 H   0  0  0  0  0  0  0  0  0  0  0  0
  -25.7020  -15.3320   20.1920 N   0  0  0  0  0  0  0  0  0  0  0  0
  -24.9480  -16.0050   20.2840 H   0  0  0  0  0  0  0  0  0  0  0  0
  -26.5480  -15.7390   19.8160 H   0  0  0  0  0  0  0  0  0  0  0  0
  -31.0110  -16.7310   23.0160 C   0  0  0  0  0  1  0  0  0  0  0  0
  -30.1670  -17.7000   22.1680 C   0  0  0  0  0  2  0  0  0  0  0  0
  1  6  1  0
  2  7  1  0
  3  7  1  0
  5  2  1  0
  5  1  1  0
  5  3  1  0
  6 51  1  0
  6  4  1  0
  7  8  1  1
  7  4  1  0
  8  9  1  0
 10 12  1  0
 10  9  1  0
 11 22  2  0
 12 17  1  0
 13 21  1  0
 13 23  1  0
 14 16  1  0
 15 21  1  0
 16 17  2  0
 16 15  1  0
 18 12  2  0
 19 18  1  0
 19 14  2  0
 20 14  1  0
 20 13  1  0
 21 11  1  0
 23 25  2  0
 24 23  1  0
 26 24  1  0
 27 36  2  0
 27 32  1  0
 28 24  1  0
 28 32  1  0
 29 28  1  0
 30 31  1  0
 30 29  1  0
 31 27  1  0
 32 33  2  0
 33 34  1  0
 35 34  2  0
 36 35  1  0
 37 11  1  0
 37 42  1  0
 37 38  1  0
 38 41  1  1
 38 39  1  0
 40 38  1  0
 42 45  1  0
 43 47  1  0
 43 42  1  0
 44 43  2  0
 47 46  1  0
 49 47  1  0
 49 50  1  0
 49 48  1  0
 51 91  1  0
 52 60  1  0
 53 58  1  0
 54 55  1  0
 54 53  1  0
 56 55  1  0
 56 65  1  0
 56 57  1  0
 58 52  1  0
 58 57  1  0
 59 52  2  0
 60 51  1  0
 61 60  1  0
 62 63  2  0
 63 82  1  0
 64 63  1  0
 64 67  1  0
 65 62  1  0
 65 66  1  0
 66 64  2  0
 67 68  1  0
 68 69  2  0
 70 73  1  0
 70 69  1  0
 71 70  2  0
 72 71  1  0
 72 67  2  0
 73 74  1  0
 74 75  1  0
 75 76  2  0
 77 76  1  0
 77 81  1  0
 78 77  2  0
 79 74  2  0
 79 78  1  0
 80 79  1  0
 82 83  1  0
 83 86  1  0
 83 85  1  0
 84 82  2  0
 87 88  1  0
 87 62  1  0
 89 87  1  0
 91 90  1  0
M  ISO  4   9 101  10 101  52 100  60 100
M  END
>  <TORSDO>  (57) 
F 20

>  <SCORE>  (57) 
-13.963

>  <name>  (57) 
57

>  <ligand_id>  (57) 
57

>  <original_smiles>  (57) 
[H]c1c([H])c([H])c2c(c1[H])C([H])([H])C([H])([H])C([H])([H])C2([H])N([H])C(=O)C1([H])N(C(=O)C([H])(N([H])C(=O)C([H])(N([H])C([H])([H])[H])C([H])([H])[H])C(C([H])([H])[H])(C([H])([H])[H])C([H])([H])[H])C([H])([H])c2c([H])c(OC([H])([H])C([H])([H])C34C([H])([H])C([H])(C([H])([H])C([H])(C([H])(N([H])C(=O)N5C([H])([H])C([H])([H])C([H])([H])C([H])(n6nc(-c7c([H])c([H])c(Oc8c([H])c([H])c(F)c([H])c8F)c([H])c7[H])c(C(=O)N([H])[H])c6N([H])[H])C5([H])[H])C([H])([H])C([H])([H])[H])C3([H])[H])C4([H])[H])c([H])c([H])c2C1([H])[H]

>  <smiles>  (57) 
[H]c1c([H])c([H])c2c(c1[H])C([H])([H])C([H])([H])C([H])([H])C2([H])N([H])C(=O)C1([H])N(C(=O)C([H])(N([H])C(=O)C([H])(N([H])C([H])([H])[H])C([H])([H])[H])C(C([H])([H])[H])(C([H])([H])[H])C([H])([H])[H])C([H])([H])c2c([H])c(OC([H])([H])C([H])([H])C34C([H])([H])C([H])(C([H])([H])C([H])(C([H])(N([H])C(=O)N5C([H])([H])C([H])([H])C([H])([H])C([H])(n6nc(-c7c([H])c([H])c(Oc8c([H])c([H])c(F)c([H])c8F)c([H])c7[H])c(C(=O)N([H])[H])c6N([H])[H])C5([H])[H])C([H])([H])C([H])([H])[H])C3([H])[H])C4([H])[H])c([H])c([H])c2C1([H])[H]

$$$$
58:0:0
     RDKit          3D

 90100  0  0  1  0  0  0  0  0999 V2000
  -29.3610  -20.1350   22.2020 C   0  0  0  0  0  2  0  0  0  0  0  0
  -28.6010  -19.1310   20.1090 C   0  0  0  0  0  2  0  0  0  0  0  0
  -28.4420  -20.4000   20.9910 C   0  0  1  0  0  0  0  0  0  0  0  0
  -30.3530  -20.2540   21.0170 C   0  0  2  0  0  0  0  0  0  0  0  0
  -30.1280  -18.9390   20.1560 C   0  0  0  0  0  3  0  0  0  0  0  0
  -29.4560  -21.5800   20.7540 C   0  0  0  0  0  3  0  0  0  0  0  0
  -29.3160  -21.8840   18.2020 C   0  0  0  0  0  1  0  0  0  0  0  0
  -29.5050  -22.6210   19.5360 C   0  0  0  0  0  3  0  0  0  0  0  0
  -28.5840  -23.9760   19.5080 C   0  0  0  0  0  2  0  0  0  0  0  0
  -28.7250  -25.2530   20.4800 C   0  0  0  0  0  2  0  0  0  0  0  0
  -28.6780  -26.6750   20.0020 O   0  0  0  0  0  0  0  0  0  0  0  0
  -24.6300  -31.8060   23.1750 C   0  0  0  0  0  0  0  0  0  0  0  0
  -27.5040  -27.4480   20.0420 C   0  0  0  0  0  0  0  0  0  0  0  0
  -23.5250  -30.4150   21.4590 C   0  0  0  0  0  3  0  0  0  0  0  0
  -25.0740  -28.9660   20.0230 C   0  0  0  0  0  0  0  0  0  0  0  0
  -26.0520  -30.8460   21.3440 C   0  0  0  0  0  2  0  0  0  0  0  0
  -26.2080  -29.4880   20.6590 C   0  0  0  0  0  0  0  0  0  0  0  0
  -27.4280  -28.7460   20.6490 C   0  0  0  0  0  3  0  0  0  0  0  0
  -26.3470  -26.9740   19.3950 C   0  0  0  0  0  3  0  0  0  0  0  0
  -25.1460  -27.7190   19.3790 C   0  0  0  0  0  3  0  0  0  0  0  0
  -23.8020  -29.7910   20.0640 C   0  0  0  0  0  2  0  0  0  0  0  0
  -24.7530  -31.0390   22.0510 N   0  0  0  0  0  0  0  0  0  0  0  0
  -23.5230  -32.0150   23.6940 O   0  0  0  0  0  0  0  0  0  0  0  0
  -22.8840  -29.3400   22.3700 C   0  0  0  0  0  0  0  0  0  0  0  0
  -21.5680  -29.1170   22.2110 N   0  0  0  0  0  0  0  0  0  0  0  0
  -23.5720  -28.7100   23.1770 O   0  0  0  0  0  0  0  0  0  0  0  0
  -21.0710  -29.6800   21.5350 H   0  0  0  0  0  0  0  0  0  0  0  0
  -18.2270  -27.7930   22.6250 C   0  0  0  0  0  0  0  0  0  0  0  0
  -20.7730  -28.1190   22.9290 C   0  0  0  0  0  3  0  0  0  0  0  0
  -20.9250  -26.7200   22.2890 C   0  0  0  0  0  2  0  0  0  0  0  0
  -19.8410  -26.4120   21.2510 C   0  0  0  0  0  2  0  0  0  0  0  0
  -18.4510  -26.4830   21.8880 C   0  0  0  0  0  2  0  0  0  0  0  0
  -19.3180  -28.5690   23.1010 C   0  0  0  0  0  0  0  0  0  0  0  0
  -19.0550  -29.7940   23.7510 C   0  0  0  0  0  3  0  0  0  0  0  0
  -17.7330  -30.2460   23.9280 C   0  0  0  0  0  3  0  0  0  0  0  0
  -16.6570  -29.4680   23.4690 C   0  0  0  0  0  3  0  0  0  0  0  0
  -16.9050  -28.2420   22.8240 C   0  0  0  0  0  3  0  0  0  0  0  0
  -25.8670  -32.4720   23.8510 C   0  0  0  0  0  3  0  0  0  0  0  0
  -26.3470  -31.7160   25.1500 C   0  0  1  0  0  0  0  0  0  0  0  0
  -25.2150  -31.4450   26.1690 C   0  0  0  0  0  1  0  0  0  0  0  0
  -26.9860  -30.3560   24.7870 C   0  0  0  0  0  1  0  0  0  0  0  0
  -27.4430  -32.5420   25.8640 C   0  0  0  0  0  1  0  0  0  0  0  0
  -25.5090  -33.8630   24.1670 N   0  0  0  0  0  0  0  0  0  0  0  0
  -25.8490  -34.9260   23.4250 C   0  0  0  0  0  0  0  0  0  0  0  0
  -26.5680  -34.8400   22.4250 O   0  0  0  0  0  0  0  0  0  0  0  0
  -24.8780  -34.0010   24.9420 H   0  0  0  0  0  0  0  0  0  0  0  0
  -24.0970  -36.6770   22.9960 C   0  0  0  0  0  1  0  0  0  0  0  0
  -25.3100  -36.3010   23.8620 C   0  0  0  0  0  3  0  0  0  0  0  0
  -27.3800  -37.2410   24.7900 C   0  0  0  0  0  1  0  0  0  0  0  0
  -26.3210  -37.3790   23.7940 N   0  0  0  0  0  0  0  0  0  0  0  0
  -25.8870  -38.2900   23.9180 H   0  0  0  0  0  0  0  0  0  0  0  0
  -30.7600  -17.5540   20.7670 C   0  0  0  0  0  2  0  0  0  0  0  0
  -31.0070  -14.9840   20.2040 C   0  0  0  0  0  0  0  0  0  0  0  0
  -30.7600  -12.7130   19.1820 C   0  0  0  0  0  2  0  0  0  0  0  0
  -29.8040  -12.7920   17.9730 C   0  0  0  0  0  2  0  0  0  0  0  0
  -28.3430  -12.6250   18.4320 C   0  0  0  0  0  2  0  0  0  0  0  0
  -27.9940  -13.5250   19.6470 C   0  0  0  0  0  3  0  0  0  0  0  0
  -29.0670  -13.4360   20.7510 C   0  0  0  0  0  2  0  0  0  0  0  0
  -30.3530  -13.7740   20.1310 N   0  0  0  0  0  0  0  0  0  0  0  0
  -32.1980  -15.0550   19.8850 O   0  0  0  0  0  0  0  0  0  0  0  0
  -30.2690  -16.1350   20.4560 N   0  0  0  0  0  0  0  0  0  0  0  0
  -29.2840  -15.9810   20.6060 H   0  0  0  0  0  0  0  0  0  0  0  0
  -25.6410  -14.1530   20.4530 C   0  0  0  0  0  0  0  0  0  0  0  0
  -24.5650  -13.3950   20.8250 C   0  0  0  0  0  0  0  0  0  0  0  0
  -24.9920  -12.0340   20.7430 C   0  0  0  0  0  0  0  0  0  0  0  0
  -26.6550  -13.2550   20.1610 N   0  0  0  0  0  0  0  0  0  0  0  0
  -26.2750  -11.9730   20.4010 N   0  0  0  0  0  0  0  0  0  0  0  0
  -24.2390  -10.7850   20.9140 C   0  0  0  0  0  0  0  0  0  0  0  0
  -24.6260   -9.8120   21.8600 C   0  0  0  0  0  3  0  0  0  0  0  0
  -23.8740   -8.6270   22.0180 C   0  0  0  0  0  3  0  0  0  0  0  0
  -22.7210   -8.4090   21.2280 C   0  0  0  0  0  0  0  0  0  0  0  0
  -22.3520   -9.3700   20.2710 C   0  0  0  0  0  3  0  0  0  0  0  0
  -23.1050  -10.5460   20.1120 C   0  0  0  0  0  3  0  0  0  0  0  0
  -21.9450   -7.2780   21.2940 O   0  0  0  0  0  0  0  0  0  0  0  0
  -21.7950   -6.5730   22.4620 C   0  0  0  0  0  0  0  0  0  0  0  0
  -21.2630   -7.1680   23.6270 C   0  0  0  0  0  3  0  0  0  0  0  0
  -21.0610   -6.3910   24.7840 C   0  0  0  0  0  3  0  0  0  0  0  0
  -21.3830   -5.0200   24.7780 C   0  0  0  0  0  0  0  0  0  0  0  0
  -21.9100   -4.4260   23.6180 C   0  0  0  0  0  3  0  0  0  0  0  0
  -22.1120   -5.2000   22.4620 C   0  0  0  0  0  0  0  0  0  0  0  0
  -22.6000   -4.6180   21.3400 F   0  0  0  0  0  0  0  0  0  0  0  0
  -21.1840   -4.2710   25.8870 F   0  0  0  0  0  0  0  0  0  0  0  0
  -23.1870  -13.8990   21.1410 C   0  0  0  0  0  0  0  0  0  0  0  0
  -22.4630  -13.2040   22.0110 N   0  0  0  0  0  0  0  0  0  0  0  0
  -22.7610  -14.9440   20.6510 O   0  0  0  0  0  0  0  0  0  0  0  0
  -22.8210  -12.3580   22.4310 H   0  0  0  0  0  0  0  0  0  0  0  0
  -21.5390  -13.5240   22.2630 H   0  0  0  0  0  0  0  0  0  0  0  0
  -25.8350  -15.5240   20.3130 N   0  0  0  0  0  0  0  0  0  0  0  0
  -25.0850  -16.1900   20.4650 H   0  0  0  0  0  0  0  0  0  0  0  0
  -26.6710  -15.9510   19.9350 H   0  0  0  0  0  0  0  0  0  0  0  0
  2  5  1  0
  3  2  1  6
  3  4  1  0
  3  1  1  0
  4  1  1  1
  5 52  1  0
  5  4  1  0
  6  8  1  0
  6  3  1  0
  6  4  1  0
  8  7  1  0
  9  8  1  0
  9 10  1  0
 11 13  1  0
 11 10  1  0
 12 23  2  0
 13 18  1  0
 14 22  1  0
 14 24  1  0
 15 21  1  0
 15 17  1  0
 16 22  1  0
 17 16  1  0
 18 17  2  0
 19 13  2  0
 20 19  1  0
 20 15  2  0
 21 14  1  0
 22 12  1  0
 24 26  2  0
 25 24  1  0
 27 25  1  0
 28 37  2  0
 28 33  1  0
 29 25  1  0
 29 33  1  0
 30 29  1  0
 31 32  1  0
 31 30  1  0
 32 28  1  0
 33 34  2  0
 34 35  1  0
 36 35  2  0
 37 36  1  0
 38 12  1  0
 38 43  1  0
 38 39  1  0
 39 42  1  1
 39 40  1  0
 41 39  1  0
 43 46  1  0
 44 48  1  0
 44 43  1  0
 45 44  2  0
 48 47  1  0
 50 48  1  0
 50 51  1  0
 50 49  1  0
 53 61  1  0
 54 59  1  0
 55 56  1  0
 55 54  1  0
 57 56  1  0
 57 66  1  0
 57 58  1  0
 59 53  1  0
 59 58  1  0
 60 53  2  0
 61 62  1  0
 61 52  1  0
 63 64  2  0
 64 83  1  0
 65 64  1  0
 65 68  1  0
 66 67  1  0
 66 63  1  0
 67 65  2  0
 68 69  1  0
 69 70  2  0
 71 74  1  0
 71 70  1  0
 72 71  2  0
 73 72  1  0
 73 68  2  0
 74 75  1  0
 75 76  1  0
 76 77  2  0
 78 77  1  0
 78 82  1  0
 79 78  2  0
 80 75  2  0
 80 79  1  0
 81 80  1  0
 83 84  1  0
 84 87  1  0
 84 86  1  0
 85 83  2  0
 88 63  1  0
 88 89  1  0
 90 88  1  0
M  ISO  4  10 101  11 101  53 100  61 100
M  END
>  <TORSDO>  (58) 
F 20

>  <SCORE>  (58) 
-12.491

>  <name>  (58) 
58

>  <ligand_id>  (58) 
58

>  <original_smiles>  (58) 
[H]c1c([H])c([H])c2c(c1[H])C([H])([H])C([H])([H])C([H])([H])C2([H])N([H])C(=O)C1([H])N(C(=O)C([H])(N([H])C(=O)C([H])(N([H])C([H])([H])[H])C([H])([H])[H])C(C([H])([H])[H])(C([H])([H])[H])C([H])([H])[H])C([H])([H])c2c([H])c(OC([H])([H])C([H])([H])C([H])(C([H])([H])[H])C3([H])C4([H])C([H])([H])C([H])(C([H])([H])N([H])C(=O)N5C([H])([H])C([H])([H])C([H])([H])C([H])(n6nc(-c7c([H])c([H])c(Oc8c([H])c([H])c(F)c([H])c8F)c([H])c7[H])c(C(=O)N([H])[H])c6N([H])[H])C5([H])[H])C3([H])C4([H])[H])c([H])c([H])c2C1([H])[H]

>  <smiles>  (58) 
[H]c1c([H])c([H])c2c(c1[H])C([H])([H])C([H])([H])C([H])([H])C2([H])N([H])C(=O)C1([H])N(C(=O)C([H])(N([H])C(=O)C([H])(N([H])C([H])([H])[H])C([H])([H])[H])C(C([H])([H])[H])(C([H])([H])[H])C([H])([H])[H])C([H])([H])c2c([H])c(OC([H])([H])C([H])([H])C([H])(C([H])([H])[H])C3([H])C4([H])C([H])([H])C([H])(C([H])([H])N([H])C(=O)N5C([H])([H])C([H])([H])C([H])([H])C([H])(n6nc(-c7c([H])c([H])c(Oc8c([H])c([H])c(F)c([H])c8F)c([H])c7[H])c(C(=O)N([H])[H])c6N([H])[H])C5([H])[H])C3([H])C4([H])[H])c([H])c([H])c2C1([H])[H]

$$$$
59:0:0
     RDKit          3D

 88 97  0  0  1  0  0  0  0  0999 V2000
  -29.0930  -21.3700   22.4270 C   0  0  0  0  0  2  0  0  0  0  0  0
  -29.9500  -20.1560   21.9640 C   0  0  0  0  0  2  0  0  0  0  0  0
  -28.4430  -22.0090   21.1930 C   0  0  0  0  0  3  0  0  0  0  0  0
  -29.0350  -21.3680   19.9510 C   0  0  0  0  0  3  0  0  0  0  0  0
  -29.4200  -19.7790   20.5680 C   0  0  0  0  0  3  0  0  0  0  0  0
  -29.0870  -23.0890   20.3650 C   0  0  0  0  0  3  0  0  0  0  0  0
  -31.6770  -18.6500   19.7230 C   0  0  0  0  0  1  0  0  0  0  0  0
  -30.1750  -18.3340   19.8620 C   0  0  0  0  0  0  0  0  0  0  0  0
  -30.6770  -15.4380   20.0380 C   0  0  0  0  0  0  0  0  0  0  0  0
  -30.5630  -13.0180   19.1370 C   0  0  0  0  0  2  0  0  0  0  0  0
  -29.6200  -12.8570   17.9140 C   0  0  0  0  0  2  0  0  0  0  0  0
  -28.1650  -12.6360   18.3600 C   0  0  0  0  0  2  0  0  0  0  0  0
  -27.7520  -13.5540   19.5360 C   0  0  0  0  0  3  0  0  0  0  0  0
  -28.8310  -13.6750   20.6420 C   0  0  0  0  0  2  0  0  0  0  0  0
  -30.0690  -14.1510   20.0010 N   0  0  0  0  0  0  0  0  0  0  0  0
  -31.8710  -15.4210   19.7120 O   0  0  0  0  0  0  0  0  0  0  0  0
  -29.9750  -16.7190   20.2350 N   0  0  0  0  0  4  0  0  0  0  0  0
  -29.0360  -16.5410   20.5680 H   0  0  0  0  0  0  0  0  0  0  0  0
  -25.3870  -14.0780   20.3420 C   0  0  0  0  0  0  0  0  0  0  0  0
  -24.3420  -13.2910   20.7310 C   0  0  0  0  0  0  0  0  0  0  0  0
  -24.8180  -11.9460   20.6810 C   0  0  0  0  0  0  0  0  0  0  0  0
  -26.4330  -13.2170   20.0670 N   0  0  0  0  0  0  0  0  0  0  0  0
  -26.1040  -11.9250   20.3390 N   0  0  0  0  0  0  0  0  0  0  0  0
  -24.1030  -10.6770   20.8820 C   0  0  0  0  0  0  0  0  0  0  0  0
  -24.5030   -9.7430   21.8610 C   0  0  0  0  0  3  0  0  0  0  0  0
  -23.7830   -8.5410   22.0440 C   0  0  0  0  0  3  0  0  0  0  0  0
  -22.6440   -8.2630   21.2480 C   0  0  0  0  0  0  0  0  0  0  0  0
  -22.2670   -9.1870   20.2610 C   0  0  0  0  0  3  0  0  0  0  0  0
  -22.9880  -10.3790   20.0750 C   0  0  0  0  0  3  0  0  0  0  0  0
  -21.8970   -7.1120   21.3410 O   0  0  0  0  0  0  0  0  0  0  0  0
  -21.7450   -6.4490   22.5340 C   0  0  0  0  0  0  0  0  0  0  0  0
  -21.1550   -7.0610   23.6580 C   0  0  0  0  0  3  0  0  0  0  0  0
  -20.9490   -6.3140   24.8370 C   0  0  0  0  0  3  0  0  0  0  0  0
  -21.3270   -4.9600   24.8930 C   0  0  0  0  0  0  0  0  0  0  0  0
  -21.9090   -4.3480   23.7660 C   0  0  0  0  0  3  0  0  0  0  0  0
  -22.1130   -5.0890   22.5920 C   0  0  0  0  0  0  0  0  0  0  0  0
  -22.6550   -4.4870   21.5060 F   0  0  0  0  0  0  0  0  0  0  0  0
  -21.1220   -4.2440   26.0210 F   0  0  0  0  0  0  0  0  0  0  0  0
  -22.9430  -13.7530   21.0240 C   0  0  0  0  0  0  0  0  0  0  0  0
  -22.2360  -13.0570   21.9070 N   0  0  0  0  0  0  0  0  0  0  0  0
  -22.4880  -14.7670   20.5010 O   0  0  0  0  0  0  0  0  0  0  0  0
  -22.6220  -12.2420   22.3580 H   0  0  0  0  0  0  0  0  0  0  0  0
  -21.2940  -13.3420   22.1290 H   0  0  0  0  0  0  0  0  0  0  0  0
  -25.5350  -15.4490   20.1690 N   0  0  0  0  0  0  0  0  0  0  0  0
  -24.7590  -16.0870   20.3060 H   0  0  0  0  0  0  0  0  0  0  0  0
  -26.3360  -15.8810   19.7270 H   0  0  0  0  0  0  0  0  0  0  0  0
  -28.1510  -24.5330   19.9850 C   0  0  0  0  0  2  0  0  0  0  0  0
  -28.3340  -26.1360   20.1840 O   0  0  0  0  0  0  0  0  0  0  0  0
  -24.5800  -31.8910   23.1790 C   0  0  0  0  0  0  0  0  0  0  0  0
  -27.2790  -27.1720   20.1090 C   0  0  0  0  0  0  0  0  0  0  0  0
  -23.4270  -30.5100   21.4940 C   0  0  0  0  0  3  0  0  0  0  0  0
  -24.9250  -28.9620   20.0630 C   0  0  0  0  0  0  0  0  0  0  0  0
  -25.9810  -30.7900   21.3700 C   0  0  0  0  0  2  0  0  0  0  0  0
  -26.0910  -29.3940   20.7010 C   0  0  0  0  0  0  0  0  0  0  0  0
  -27.2650  -28.5210   20.7020 C   0  0  0  0  0  3  0  0  0  0  0  0
  -26.0780  -26.8730   19.4270 C   0  0  0  0  0  3  0  0  0  0  0  0
  -24.9360  -27.7180   19.4120 C   0  0  0  0  0  3  0  0  0  0  0  0
  -23.6810  -29.8500   20.1100 C   0  0  0  0  0  2  0  0  0  0  0  0
  -24.6820  -31.0890   22.0690 N   0  0  0  0  0  0  0  0  0  0  0  0
  -23.4820  -32.1490   23.6960 O   0  0  0  0  0  0  0  0  0  0  0  0
  -22.7340  -29.4880   22.4320 C   0  0  0  0  0  0  0  0  0  0  0  0
  -21.4140  -29.2900   22.2700 N   0  0  0  0  0  0  0  0  0  0  0  0
  -23.3940  -28.8680   23.2700 O   0  0  0  0  0  0  0  0  0  0  0  0
  -20.9340  -29.8450   21.5750 H   0  0  0  0  0  0  0  0  0  0  0  0
  -18.0490  -27.9930   22.6810 C   0  0  0  0  0  0  0  0  0  0  0  0
  -20.5960  -28.3180   23.0050 C   0  0  0  0  0  3  0  0  0  0  0  0
  -20.7440  -26.8990   22.4080 C   0  0  0  0  0  2  0  0  0  0  0  0
  -19.6740  -26.5680   21.3630 C   0  0  0  0  0  2  0  0  0  0  0  0
  -18.2770  -26.6640   21.9830 C   0  0  0  0  0  2  0  0  0  0  0  0
  -19.1380  -28.7780   23.1470 C   0  0  0  0  0  0  0  0  0  0  0  0
  -18.8720  -30.0210   23.7640 C   0  0  0  0  0  3  0  0  0  0  0  0
  -17.5520  -30.4810   23.9120 C   0  0  0  0  0  3  0  0  0  0  0  0
  -16.4770  -29.6950   23.4630 C   0  0  0  0  0  3  0  0  0  0  0  0
  -16.7270  -28.4510   22.8550 C   0  0  0  0  0  3  0  0  0  0  0  0
  -25.8350  -32.5360   23.8430 C   0  0  0  0  0  3  0  0  0  0  0  0
  -25.4960  -33.9230   24.1970 N   0  0  0  0  0  0  0  0  0  0  0  0
  -25.8150  -35.0010   23.4680 C   0  0  0  0  0  0  0  0  0  0  0  0
  -26.4900  -34.9300   22.4360 O   0  0  0  0  0  0  0  0  0  0  0  0
  -24.8880  -34.0450   24.9950 H   0  0  0  0  0  0  0  0  0  0  0  0
  -24.0710  -36.7910   23.1580 C   0  0  0  0  0  1  0  0  0  0  0  0
  -25.3140  -36.3730   23.9590 C   0  0  0  0  0  3  0  0  0  0  0  0
  -27.4300  -37.2800   24.8130 C   0  0  0  0  0  1  0  0  0  0  0  0
  -26.3310  -37.4420   23.8660 N   0  0  0  0  0  0  0  0  0  0  0  0
  -25.9120  -38.3540   24.0190 H   0  0  0  0  0  0  0  0  0  0  0  0
  -26.3260  -31.7520   25.1210 C   0  0  1  0  0  0  0  0  0  0  0  0
  -25.2100  -31.4770   26.1570 C   0  0  0  0  0  1  0  0  0  0  0  0
  -26.9420  -30.3910   24.7250 C   0  0  0  0  0  1  0  0  0  0  0  0
  -27.4420  -32.5540   25.8280 C   0  0  0  0  0  1  0  0  0  0  0  0
  2  1  1  0
  3  1  1  0
  4  6  1  0
  4  5  1  0
  4  3  1  0
  5  2  1  0
  6  3  1  0
  7  8  1  0
  8 17  2  0
  8  5  1  0
  9 17  1  0
 10 15  1  0
 11 12  1  0
 11 10  1  0
 12 13  1  0
 13 22  1  0
 13 14  1  0
 15  9  1  0
 15 14  1  0
 16  9  2  0
 17 18  1  0
 19 20  2  0
 20 39  1  0
 21 20  1  0
 21 24  1  0
 22 23  1  0
 22 19  1  0
 23 21  2  0
 24 25  1  0
 25 26  2  0
 27 30  1  0
 27 26  1  0
 28 27  2  0
 29 28  1  0
 29 24  2  0
 30 31  1  0
 31 36  2  0
 31 32  1  0
 32 33  2  0
 33 34  1  0
 34 38  1  0
 35 34  2  0
 36 35  1  0
 37 36  1  0
 39 40  1  0
 40 43  1  0
 40 42  1  0
 41 39  2  0
 44 45  1  0
 44 19  1  0
 46 44  1  0
 47 48  1  0
 47  6  1  0
 49 60  2  0
 49 75  1  0
 50 48  1  0
 50 55  1  0
 51 59  1  0
 51 61  1  0
 52 58  1  0
 52 54  1  0
 53 59  1  0
 54 55  2  0
 54 53  1  0
 56 50  2  0
 57 56  1  0
 57 52  2  0
 58 51  1  0
 59 49  1  0
 61 63  2  0
 62 61  1  0
 62 66  1  0
 64 62  1  0
 65 74  2  0
 65 70  1  0
 66 70  1  0
 67 66  1  0
 68 69  1  0
 68 67  1  0
 69 65  1  0
 70 71  2  0
 71 72  1  0
 73 72  2  0
 74 73  1  0
 75 76  1  0
 75 85  1  0
 76 79  1  0
 77 81  1  0
 77 76  1  0
 78 77  2  0
 80 81  1  0
 83 81  1  0
 83 84  1  0
 83 82  1  0
 85 88  1  1
 85 86  1  0
 87 85  1  0
M  ISO  4   9 100  17 100  47 101  48 101
M  END
>  <TORSDO>  (59) 
F 18

>  <SCORE>  (59) 
-14.973

>  <name>  (59) 
59

>  <ligand_id>  (59) 
59

>  <original_smiles>  (59) 
[H]c1c([H])c([H])c2c(c1[H])C([H])([H])C([H])([H])C([H])([H])C2([H])N([H])C(=O)C1([H])N(C(=O)C([H])(N([H])C(=O)C([H])(N([H])C([H])([H])[H])C([H])([H])[H])C(C([H])([H])[H])(C([H])([H])[H])C([H])([H])[H])C([H])([H])c2c([H])c(OC([H])([H])C3([H])C4([H])C([H])([H])C([H])([H])C([H])(C([H])(N([H])C(=O)N5C([H])([H])C([H])([H])C([H])([H])C([H])(n6nc(-c7c([H])c([H])c(Oc8c([H])c([H])c(F)c([H])c8F)c([H])c7[H])c(C(=O)N([H])[H])c6N([H])[H])C5([H])[H])C([H])([H])[H])C34[H])c([H])c([H])c2C1([H])[H]

>  <smiles>  (59) 
[H]c1c([H])c([H])c2c(c1[H])C([H])([H])C([H])([H])C([H])([H])C2([H])N([H])C(=O)C1([H])N(C(=O)C([H])(N([H])C(=O)C([H])(N([H])C([H])([H])[H])C([H])([H])[H])C(C([H])([H])[H])(C([H])([H])[H])C([H])([H])[H])C([H])([H])c2c([H])c(OC([H])([H])C3([H])C4([H])C([H])([H])C([H])([H])C([H])(C([H])(N([H])C(=O)N5C([H])([H])C([H])([H])C([H])([H])C([H])(n6nc(-c7c([H])c([H])c(Oc8c([H])c([H])c(F)c([H])c8F)c([H])c7[H])c(C(=O)N([H])[H])c6N([H])[H])C5([H])[H])C([H])([H])[H])C34[H])c([H])c([H])c2C1([H])[H]

$$$$
60:0:0
     RDKit          3D

 89 97  0  0  1  0  0  0  0  0999 V2000
  -28.6170  -21.5190   20.6200 C   0  0  0  0  0  0  0  0  0  0  0  0
  -27.8260  -21.4070   21.5590 O   0  0  0  0  0  0  0  0  0  0  0  0
  -30.6000  -15.2170   20.1530 C   0  0  0  0  0  0  0  0  0  0  0  0
  -30.4100  -12.8510   19.2130 C   0  0  0  0  0  2  0  0  0  0  0  0
  -29.4560  -12.7220   18.0060 C   0  0  0  0  0  2  0  0  0  0  0  0
  -28.0200  -12.4610   18.4860 C   0  0  0  0  0  2  0  0  0  0  0  0
  -27.6140  -13.4100   19.6450 C   0  0  0  0  0  3  0  0  0  0  0  0
  -28.6960  -13.5320   20.7380 C   0  0  0  0  0  2  0  0  0  0  0  0
  -29.9260  -13.9830   20.0730 N   0  0  0  0  0  0  0  0  0  0  0  0
  -31.8150  -15.1310   19.9310 O   0  0  0  0  0  0  0  0  0  0  0  0
  -30.4250  -19.3160   20.8090 C   0  0  0  0  0  2  0  0  0  0  0  0
  -28.2770  -18.7260   20.1320 C   0  0  0  0  0  2  0  0  0  0  0  0
  -30.9350  -17.7730   20.5290 C   0  0  0  0  0  2  0  0  0  0  0  0
  -28.7340  -17.1590   19.8260 C   0  0  0  0  0  2  0  0  0  0  0  0
  -29.2310  -20.0350   20.0140 C   0  0  1  0  0  0  0  0  0  0  0  0
  -30.0270  -16.5550   20.3420 N   0  0  0  0  0  0  0  0  0  0  0  0
  -25.2730  -13.9510   20.5080 C   0  0  0  0  0  0  0  0  0  0  0  0
  -24.2290  -13.1630   20.9020 C   0  0  0  0  0  0  0  0  0  0  0  0
  -24.6970  -11.8160   20.8220 C   0  0  0  0  0  0  0  0  0  0  0  0
  -26.3080  -13.0840   20.2010 N   0  0  0  0  0  0  0  0  0  0  0  0
  -25.9770  -11.7930   20.4620 N   0  0  0  0  0  0  0  0  0  0  0  0
  -23.9800  -10.5480   21.0090 C   0  0  0  0  0  0  0  0  0  0  0  0
  -24.4260   -9.5760   21.9300 C   0  0  0  0  0  3  0  0  0  0  0  0
  -23.7060   -8.3750   22.1080 C   0  0  0  0  0  3  0  0  0  0  0  0
  -22.5260   -8.1390   21.3630 C   0  0  0  0  0  0  0  0  0  0  0  0
  -22.0990   -9.1000   20.4300 C   0  0  0  0  0  3  0  0  0  0  0  0
  -22.8190  -10.2920   20.2510 C   0  0  0  0  0  3  0  0  0  0  0  0
  -21.7760   -6.9910   21.4510 O   0  0  0  0  0  0  0  0  0  0  0  0
  -21.7180   -6.2550   22.6070 C   0  0  0  0  0  0  0  0  0  0  0  0
  -21.2400   -6.8040   23.8170 C   0  0  0  0  0  3  0  0  0  0  0  0
  -21.1310   -5.9920   24.9640 C   0  0  0  0  0  3  0  0  0  0  0  0
  -21.4900   -4.6320   24.9010 C   0  0  0  0  0  0  0  0  0  0  0  0
  -21.9620   -4.0830   23.6960 C   0  0  0  0  0  3  0  0  0  0  0  0
  -22.0720   -4.8920   22.5520 C   0  0  0  0  0  0  0  0  0  0  0  0
  -22.5080   -4.3530   21.3870 F   0  0  0  0  0  0  0  0  0  0  0  0
  -21.3770   -3.8490   25.9990 F   0  0  0  0  0  0  0  0  0  0  0  0
  -22.8400  -13.6330   21.2260 C   0  0  0  0  0  0  0  0  0  0  0  0
  -22.1370  -12.9170   22.0980 N   0  0  0  0  0  0  0  0  0  0  0  0
  -22.3890  -14.6690   20.7430 O   0  0  0  0  0  0  0  0  0  0  0  0
  -22.5160  -12.0810   22.5160 H   0  0  0  0  0  0  0  0  0  0  0  0
  -21.2040  -13.2140   22.3520 H   0  0  0  0  0  0  0  0  0  0  0  0
  -25.4150  -15.3250   20.3550 N   0  0  0  0  0  0  0  0  0  0  0  0
  -24.6310  -15.9520   20.5010 H   0  0  0  0  0  0  0  0  0  0  0  0
  -26.2370  -15.7910   19.9930 H   0  0  0  0  0  0  0  0  0  0  0  0
  -29.9950  -19.3160   17.5410 C   0  0  0  0  0  1  0  0  0  0  0  0
  -29.5940  -20.4040   18.5470 C   0  0  0  0  0  2  0  0  0  0  0  0
  -28.9230  -23.1220   20.1390 C   0  0  0  0  0  3  0  0  0  0  0  0
  -27.9530  -24.5460   20.4020 C   0  0  0  0  0  3  0  0  0  0  0  0
  -28.2430  -26.1170   20.2440 O   0  0  0  0  0  0  0  0  0  0  0  0
  -24.6430  -31.9150   23.2720 C   0  0  0  0  0  0  0  0  0  0  0  0
  -27.2060  -27.1520   20.2120 C   0  0  0  0  0  0  0  0  0  0  0  0
  -23.4430  -30.5230   21.6340 C   0  0  0  0  0  3  0  0  0  0  0  0
  -24.8880  -28.9530   20.1940 C   0  0  0  0  0  0  0  0  0  0  0  0
  -26.0020  -30.7790   21.4600 C   0  0  0  0  0  2  0  0  0  0  0  0
  -26.0760  -29.3820   20.7980 C   0  0  0  0  0  0  0  0  0  0  0  0
  -27.2350  -28.5010   20.7820 C   0  0  0  0  0  3  0  0  0  0  0  0
  -25.9890  -26.8510   19.5580 C   0  0  0  0  0  3  0  0  0  0  0  0
  -24.8620  -27.7040   19.5550 C   0  0  0  0  0  3  0  0  0  0  0  0
  -23.6640  -29.8580   20.2510 C   0  0  0  0  0  2  0  0  0  0  0  0
  -24.7170  -31.0960   22.1760 N   0  0  0  0  0  0  0  0  0  0  0  0
  -23.5580  -32.1930   23.8050 O   0  0  0  0  0  0  0  0  0  0  0  0
  -22.7690  -29.5110   22.5950 C   0  0  0  0  0  0  0  0  0  0  0  0
  -21.4420  -29.3250   22.4650 N   0  0  0  0  0  0  0  0  0  0  0  0
  -23.4430  -28.8940   23.4220 O   0  0  0  0  0  0  0  0  0  0  0  0
  -20.9540  -29.8730   21.7700 H   0  0  0  0  0  0  0  0  0  0  0  0
  -18.0730  -28.0800   22.9600 C   0  0  0  0  0  0  0  0  0  0  0  0
  -20.6280  -28.3810   23.2370 C   0  0  0  0  0  3  0  0  0  0  0  0
  -20.7520  -26.9490   22.6660 C   0  0  0  0  0  2  0  0  0  0  0  0
  -19.6570  -26.6080   21.6500 C   0  0  0  0  0  2  0  0  0  0  0  0
  -18.2720  -26.7330   22.2870 C   0  0  0  0  0  2  0  0  0  0  0  0
  -19.1780  -28.8600   23.3920 C   0  0  0  0  0  0  0  0  0  0  0  0
  -18.9360  -30.1180   23.9850 C   0  0  0  0  0  3  0  0  0  0  0  0
  -17.6220  -30.5960   24.1510 C   0  0  0  0  0  3  0  0  0  0  0  0
  -16.5320  -29.8150   23.7320 C   0  0  0  0  0  3  0  0  0  0  0  0
  -16.7580  -28.5580   23.1420 C   0  0  0  0  0  3  0  0  0  0  0  0
  -25.9170  -32.5580   23.8960 C   0  0  0  0  0  3  0  0  0  0  0  0
  -26.4200  -31.8050   25.1890 C   0  0  1  0  0  0  0  0  0  0  0  0
  -25.3170  -31.5870   26.2520 C   0  0  0  0  0  1  0  0  0  0  0  0
  -26.9990  -30.4180   24.8280 C   0  0  0  0  0  1  0  0  0  0  0  0
  -27.5620  -32.6090   25.8520 C   0  0  0  0  0  1  0  0  0  0  0  0
  -25.6040  -33.9610   24.2130 N   0  0  0  0  0  0  0  0  0  0  0  0
  -25.9350  -35.0110   23.4500 C   0  0  0  0  0  0  0  0  0  0  0  0
  -26.6010  -34.9010   22.4160 O   0  0  0  0  0  0  0  0  0  0  0  0
  -25.0110  -34.1210   25.0130 H   0  0  0  0  0  0  0  0  0  0  0  0
  -24.2110  -36.8130   23.0960 C   0  0  0  0  0  1  0  0  0  0  0  0
  -25.4530  -36.4050   23.9030 C   0  0  0  0  0  3  0  0  0  0  0  0
  -27.5880  -37.2930   24.7300 C   0  0  0  0  0  1  0  0  0  0  0  0
  -26.4880  -37.4550   23.7840 N   0  0  0  0  0  0  0  0  0  0  0  0
  -26.0830  -38.3770   23.9240 H   0  0  0  0  0  0  0  0  0  0  0  0
  1  2  2  0
  3 16  1  0
  4  9  1  0
  5  6  1  0
  5  4  1  0
  7  6  1  0
  7 20  1  0
  7  8  1  0
  9  3  1  0
  9  8  1  0
 10  3  2  0
 13 11  1  0
 14 12  1  0
 14 16  1  0
 15 46  1  6
 15 12  1  0
 15  1  1  0
 15 11  1  0
 16 13  1  0
 17 18  2  0
 18 37  1  0
 19 18  1  0
 19 22  1  0
 20 21  1  0
 20 17  1  0
 21 19  2  0
 22 23  1  0
 23 24  2  0
 25 28  1  0
 25 24  1  0
 26 25  2  0
 27 26  1  0
 27 22  2  0
 28 29  1  0
 29 30  1  0
 30 31  2  0
 32 31  1  0
 32 36  1  0
 33 32  2  0
 34 29  2  0
 34 33  1  0
 35 34  1  0
 37 38  1  0
 38 41  1  0
 38 40  1  0
 39 37  2  0
 42 43  1  0
 42 17  1  0
 44 42  1  0
 45 46  1  0
 47 48  2  0
 47  1  1  0
 49 48  1  0
 50 61  2  0
 51 49  1  0
 51 56  1  0
 52 60  1  0
 52 62  1  0
 53 59  1  0
 53 55  1  0
 54 60  1  0
 55 54  1  0
 56 55  2  0
 57 51  2  0
 58 57  1  0
 58 53  2  0
 59 52  1  0
 60 50  1  0
 62 64  2  0
 63 62  1  0
 65 63  1  0
 66 75  2  0
 66 71  1  0
 67 63  1  0
 67 71  1  0
 68 67  1  0
 69 70  1  0
 69 68  1  0
 70 66  1  0
 71 72  2  0
 72 73  1  0
 74 73  2  0
 75 74  1  0
 76 50  1  0
 76 81  1  0
 76 77  1  0
 77 80  1  1
 77 78  1  0
 79 77  1  0
 81 84  1  0
 82 86  1  0
 82 81  1  0
 83 82  2  0
 86 85  1  0
 88 86  1  0
 88 89  1  0
 88 87  1  0
M  ISO  4   3 100  16 100  48 101  49 101
M  END
>  <TORSDO>  (60) 
F 19

>  <SCORE>  (60) 
-15.860

>  <name>  (60) 
60

>  <ligand_id>  (60) 
60

>  <original_smiles>  (60) 
[H]c1c([H])c([H])c2c(c1[H])C([H])([H])C([H])([H])C([H])([H])C2([H])N([H])C(=O)C1([H])N(C(=O)C([H])(N([H])C(=O)C([H])(N([H])C([H])([H])[H])C([H])([H])[H])C(C([H])([H])[H])(C([H])([H])[H])C([H])([H])[H])C([H])([H])c2c([H])c(OC([H])([H])C([H])([H])C(=O)C3(C([H])([H])C([H])([H])[H])C([H])([H])C([H])([H])N(C(=O)N4C([H])([H])C([H])([H])C([H])([H])C([H])(n5nc(-c6c([H])c([H])c(Oc7c([H])c([H])c(F)c([H])c7F)c([H])c6[H])c(C(=O)N([H])[H])c5N([H])[H])C4([H])[H])C([H])([H])C3([H])[H])c([H])c([H])c2C1([H])[H]

>  <smiles>  (60) 
[H]c1c([H])c([H])c2c(c1[H])C([H])([H])C([H])([H])C([H])([H])C2([H])N([H])C(=O)C1([H])N(C(=O)C([H])(N([H])C(=O)C([H])(N([H])C([H])([H])[H])C([H])([H])[H])C(C([H])([H])[H])(C([H])([H])[H])C([H])([H])[H])C([H])([H])c2c([H])c(OC([H])([H])C([H])([H])C(=O)C3(C([H])([H])C([H])([H])[H])C([H])([H])C([H])([H])N(C(=O)N4C([H])([H])C([H])([H])C([H])([H])C([H])(n5nc(-c6c([H])c([H])c(Oc7c([H])c([H])c(F)c([H])c7F)c([H])c6[H])c(C(=O)N([H])[H])c5N([H])[H])C4([H])[H])C([H])([H])C3([H])[H])c([H])c([H])c2C1([H])[H]

$$$$
61:0:0
     RDKit          3D

 90 99  0  0  1  0  0  0  0  0999 V2000
  -31.6980  -20.6960   22.6480 C   0  0  0  0  0  2  0  0  0  0  0  0
  -30.6200  -21.7300   22.3110 C   0  0  0  0  0  2  0  0  0  0  0  0
  -30.1720  -18.6460   22.1860 C   0  0  0  0  0  2  0  0  0  0  0  0
  -31.3710  -19.5070   21.7710 C   0  0  0  0  0  3  0  0  0  0  0  0
  -30.5780  -19.9450   20.5220 C   0  0  0  0  0  3  0  0  0  0  0  0
  -30.2890  -21.5030   20.8250 C   0  0  0  0  0  3  0  0  0  0  0  0
  -29.8200  -18.5350   20.7140 C   0  0  0  0  0  3  0  0  0  0  0  0
  -29.0800  -22.4020   20.3110 C   0  0  0  0  0  2  0  0  0  0  0  0
  -29.2820  -23.9910   20.4980 C   0  0  0  0  0  3  0  0  0  0  0  0
  -28.1470  -25.0150   20.0520 C   0  0  0  0  0  3  0  0  0  0  0  0
  -28.3590  -26.4740   20.2440 O   0  0  0  0  0  0  0  0  0  0  0  0
  -24.6170  -31.8760   23.2430 C   0  0  0  0  0  0  0  0  0  0  0  0
  -27.2410  -27.3270   20.1820 C   0  0  0  0  0  0  0  0  0  0  0  0
  -23.4190  -30.4810   21.5960 C   0  0  0  0  0  3  0  0  0  0  0  0
  -24.8750  -28.9400   20.1670 C   0  0  0  0  0  0  0  0  0  0  0  0
  -25.9590  -30.8050   21.4190 C   0  0  0  0  0  2  0  0  0  0  0  0
  -26.0420  -29.4290   20.7680 C   0  0  0  0  0  0  0  0  0  0  0  0
  -27.2280  -28.6330   20.7650 C   0  0  0  0  0  3  0  0  0  0  0  0
  -26.0480  -26.8970   19.5560 C   0  0  0  0  0  3  0  0  0  0  0  0
  -24.8810  -27.6800   19.5520 C   0  0  0  0  0  3  0  0  0  0  0  0
  -23.6370  -29.8120   20.2140 C   0  0  0  0  0  2  0  0  0  0  0  0
  -24.6840  -31.0710   22.1430 N   0  0  0  0  0  0  0  0  0  0  0  0
  -23.5310  -32.1500   23.7750 O   0  0  0  0  0  0  0  0  0  0  0  0
  -22.7550  -29.4590   22.5510 C   0  0  0  0  0  0  0  0  0  0  0  0
  -21.4290  -29.2870   22.4270 N   0  0  0  0  0  0  0  0  0  0  0  0
  -23.4350  -28.8250   23.3640 O   0  0  0  0  0  0  0  0  0  0  0  0
  -20.9400  -29.8500   21.7450 H   0  0  0  0  0  0  0  0  0  0  0  0
  -18.0460  -28.1140   22.9360 C   0  0  0  0  0  0  0  0  0  0  0  0
  -20.6070  -28.3500   23.1950 C   0  0  0  0  0  3  0  0  0  0  0  0
  -20.6950  -26.9230   22.6060 C   0  0  0  0  0  2  0  0  0  0  0  0
  -19.5850  -26.6180   21.5960 C   0  0  0  0  0  2  0  0  0  0  0  0
  -18.2080  -26.7690   22.2480 C   0  0  0  0  0  2  0  0  0  0  0  0
  -19.1720  -28.8630   23.3660 C   0  0  0  0  0  0  0  0  0  0  0  0
  -18.9660  -30.1230   23.9690 C   0  0  0  0  0  3  0  0  0  0  0  0
  -17.6650  -30.6320   24.1490 C   0  0  0  0  0  3  0  0  0  0  0  0
  -16.5530  -29.8780   23.7350 C   0  0  0  0  0  3  0  0  0  0  0  0
  -16.7440  -28.6220   23.1320 C   0  0  0  0  0  3  0  0  0  0  0  0
  -25.8960  -32.5080   23.8690 C   0  0  0  0  0  3  0  0  0  0  0  0
  -26.4080  -31.7350   25.1470 C   0  0  1  0  0  0  0  0  0  0  0  0
  -25.3110  -31.4980   26.2110 C   0  0  0  0  0  1  0  0  0  0  0  0
  -26.9920  -30.3580   24.7560 C   0  0  0  0  0  1  0  0  0  0  0  0
  -27.5560  -32.5290   25.8140 C   0  0  0  0  0  1  0  0  0  0  0  0
  -25.5850  -33.9060   24.2010 N   0  0  0  0  0  0  0  0  0  0  0  0
  -25.9140  -34.9600   23.4420 C   0  0  0  0  0  0  0  0  0  0  0  0
  -26.5800  -34.8590   22.4090 O   0  0  0  0  0  0  0  0  0  0  0  0
  -24.9910  -34.0590   25.0030 H   0  0  0  0  0  0  0  0  0  0  0  0
  -24.1780  -36.7490   23.1010 C   0  0  0  0  0  1  0  0  0  0  0  0
  -25.4270  -36.3480   23.9040 C   0  0  0  0  0  3  0  0  0  0  0  0
  -27.5640  -37.2390   24.7190 C   0  0  0  0  0  1  0  0  0  0  0  0
  -26.4550  -37.4030   23.7840 N   0  0  0  0  0  0  0  0  0  0  0  0
  -26.0470  -38.3220   23.9340 H   0  0  0  0  0  0  0  0  0  0  0  0
  -30.3770  -17.2250   19.9880 C   0  0  0  0  0  2  0  0  0  0  0  0
  -30.7170  -14.6910   20.2180 C   0  0  0  0  0  0  0  0  0  0  0  0
  -30.3900  -12.4800   19.1400 C   0  0  0  0  0  2  0  0  0  0  0  0
  -29.4290  -12.6570   17.9450 C   0  0  0  0  0  2  0  0  0  0  0  0
  -27.9660  -12.5140   18.4040 C   0  0  0  0  0  2  0  0  0  0  0  0
  -27.6530  -13.3570   19.6720 C   0  0  0  0  0  3  0  0  0  0  0  0
  -28.7380  -13.1900   20.7600 C   0  0  0  0  0  2  0  0  0  0  0  0
  -30.0350  -13.5020   20.1480 N   0  0  0  0  0  0  0  0  0  0  0  0
  -31.8840  -14.7640   19.8240 O   0  0  0  0  0  0  0  0  0  0  0  0
  -30.0060  -15.8380   20.4740 N   0  0  0  0  0  0  0  0  0  0  0  0
  -29.0590  -15.7120   20.7960 H   0  0  0  0  0  0  0  0  0  0  0  0
  -25.2810  -13.9680   20.4410 C   0  0  0  0  0  0  0  0  0  0  0  0
  -24.2160  -13.2020   20.8290 C   0  0  0  0  0  0  0  0  0  0  0  0
  -24.6680  -11.8470   20.7890 C   0  0  0  0  0  0  0  0  0  0  0  0
  -26.3140  -13.0800   20.1850 N   0  0  0  0  0  0  0  0  0  0  0  0
  -25.9520  -11.8000   20.4560 N   0  0  0  0  0  0  0  0  0  0  0  0
  -23.9350  -10.5900   20.9900 C   0  0  0  0  0  0  0  0  0  0  0  0
  -24.3780   -9.6160   21.9110 C   0  0  0  0  0  3  0  0  0  0  0  0
  -23.6470   -8.4240   22.1000 C   0  0  0  0  0  3  0  0  0  0  0  0
  -22.4570   -8.1970   21.3700 C   0  0  0  0  0  0  0  0  0  0  0  0
  -22.0310   -9.1590   20.4370 C   0  0  0  0  0  3  0  0  0  0  0  0
  -22.7630  -10.3430   20.2460 C   0  0  0  0  0  3  0  0  0  0  0  0
  -21.6940   -7.0590   21.4720 O   0  0  0  0  0  0  0  0  0  0  0  0
  -21.6630   -6.3120   22.6230 C   0  0  0  0  0  0  0  0  0  0  0  0
  -21.2700   -6.8670   23.8600 C   0  0  0  0  0  3  0  0  0  0  0  0
  -21.1860   -6.0490   25.0030 C   0  0  0  0  0  3  0  0  0  0  0  0
  -21.4830   -4.6760   24.9110 C   0  0  0  0  0  0  0  0  0  0  0  0
  -21.8680   -4.1200   23.6780 C   0  0  0  0  0  3  0  0  0  0  0  0
  -21.9540   -4.9360   22.5370 C   0  0  0  0  0  0  0  0  0  0  0  0
  -22.3050   -4.3910   21.3470 F   0  0  0  0  0  0  0  0  0  0  0  0
  -21.3940   -3.8870   26.0070 F   0  0  0  0  0  0  0  0  0  0  0  0
  -22.8280  -13.6890   21.1260 C   0  0  0  0  0  0  0  0  0  0  0  0
  -22.1130  -13.0000   22.0090 N   0  0  0  0  0  0  0  0  0  0  0  0
  -22.3880  -14.7160   20.6110 O   0  0  0  0  0  0  0  0  0  0  0  0
  -22.4820  -12.1710   22.4490 H   0  0  0  0  0  0  0  0  0  0  0  0
  -21.1800  -13.3070   22.2460 H   0  0  0  0  0  0  0  0  0  0  0  0
  -25.4530  -15.3370   20.2580 N   0  0  0  0  0  0  0  0  0  0  0  0
  -24.6900  -15.9970   20.3740 H   0  0  0  0  0  0  0  0  0  0  0  0
  -26.2930  -15.7660   19.8920 H   0  0  0  0  0  0  0  0  0  0  0  0
  2  1  1  0
  4  3  1  0
  4  1  1  0
  5  7  1  0
  5  6  1  0
  5  4  1  0
  6  2  1  0
  7  3  1  0
  8  9  1  0
  8  6  1  0
 10 11  1  0
 10  9  2  0
 12 23  2  0
 12 38  1  0
 13 11  1  0
 13 18  1  0
 14 22  1  0
 14 24  1  0
 15 21  1  0
 15 17  1  0
 16 22  1  0
 17 16  1  0
 18 17  2  0
 19 13  2  0
 20 19  1  0
 20 15  2  0
 21 14  1  0
 22 12  1  0
 24 26  2  0
 25 24  1  0
 25 29  1  0
 27 25  1  0
 28 37  2  0
 28 33  1  0
 29 33  1  0
 30 29  1  0
 31 32  1  0
 31 30  1  0
 32 28  1  0
 33 34  2  0
 34 35  1  0
 36 35  2  0
 37 36  1  0
 38 43  1  0
 38 39  1  0
 39 42  1  1
 39 40  1  0
 41 39  1  0
 43 46  1  0
 44 48  1  0
 44 43  1  0
 45 44  2  0
 47 48  1  0
 50 48  1  0
 50 51  1  0
 50 49  1  0
 52 61  1  0
 52  7  1  0
 53 61  1  0
 54 59  1  0
 55 56  1  0
 55 54  1  0
 56 57  1  0
 57 66  1  0
 57 58  1  0
 59 53  1  0
 59 58  1  0
 60 53  2  0
 61 62  1  0
 63 64  2  0
 64 83  1  0
 65 64  1  0
 65 68  1  0
 66 63  1  0
 66 67  1  0
 67 65  2  0
 68 69  1  0
 69 70  2  0
 71 74  1  0
 71 70  1  0
 72 71  2  0
 73 72  1  0
 73 68  2  0
 74 75  1  0
 75 76  1  0
 76 77  2  0
 78 77  1  0
 78 82  1  0
 79 78  2  0
 80 75  2  0
 80 79  1  0
 81 80  1  0
 83 84  1  0
 84 87  1  0
 84 86  1  0
 85 83  2  0
 88 89  1  0
 88 63  1  0
 90 88  1  0
M  ISO  4  10 101  11 101  53 100  61 100
M  END
>  <TORSDO>  (61) 
F 20

>  <SCORE>  (61) 
-13.595

>  <name>  (61) 
61

>  <ligand_id>  (61) 
61

>  <original_smiles>  (61) 
[H]c1c([H])c([H])c2c(c1[H])C([H])([H])C([H])([H])C([H])([H])C2([H])N([H])C(=O)C1([H])N(C(=O)C([H])(N([H])C(=O)C([H])(N([H])C([H])([H])[H])C([H])([H])[H])C(C([H])([H])[H])(C([H])([H])[H])C([H])([H])[H])C([H])([H])c2c([H])c(OC([H])([H])C([H])([H])C([H])([H])C3([H])C([H])([H])C([H])([H])C4([H])C([H])([H])C([H])(C([H])([H])N([H])C(=O)N5C([H])([H])C([H])([H])C([H])([H])C([H])(n6nc(-c7c([H])c([H])c(Oc8c([H])c([H])c(F)c([H])c8F)c([H])c7[H])c(C(=O)N([H])[H])c6N([H])[H])C5([H])[H])C34[H])c([H])c([H])c2C1([H])[H]

>  <smiles>  (61) 
[H]c1c([H])c([H])c2c(c1[H])C([H])([H])C([H])([H])C([H])([H])C2([H])N([H])C(=O)C1([H])N(C(=O)C([H])(N([H])C(=O)C([H])(N([H])C([H])([H])[H])C([H])([H])[H])C(C([H])([H])[H])(C([H])([H])[H])C([H])([H])[H])C([H])([H])c2c([H])c(OC([H])([H])C([H])([H])C([H])([H])C3([H])C([H])([H])C([H])([H])C4([H])C([H])([H])C([H])(C([H])([H])N([H])C(=O)N5C([H])([H])C([H])([H])C([H])([H])C([H])(n6nc(-c7c([H])c([H])c(Oc8c([H])c([H])c(F)c([H])c8F)c([H])c7[H])c(C(=O)N([H])[H])c6N([H])[H])C5([H])[H])C34[H])c([H])c([H])c2C1([H])[H]

$$$$
62:0:0
     RDKit          3D

 92100  0  0  1  0  0  0  0  0999 V2000
  -28.3040  -21.7410   21.7100 C   0  0  0  0  0  0  0  0  0  0  0  0
  -28.0990  -23.2170   21.4080 C   0  0  0  0  0  2  0  0  0  0  0  0
  -29.1480  -22.1190   19.4860 C   0  0  0  0  0  2  0  0  0  0  0  0
  -28.8520  -20.9840   20.5050 C   0  0  0  0  0  3  0  0  0  0  0  0
  -29.0430  -23.4810   20.2280 C   0  0  0  0  0  3  0  0  0  0  0  0
  -28.0660  -21.2270   22.8050 O   0  0  0  0  0  0  0  0  0  0  0  0
  -30.0510  -20.0640   20.9010 C   0  0  0  0  0  2  0  0  0  0  0  0
  -30.1860  -18.7360   20.1320 C   0  0  0  0  0  0  0  0  0  0  0  0
  -29.2500  -18.2810   19.4660 O   0  0  0  0  0  0  0  0  0  0  0  0
  -31.5370  -17.9890   20.2130 C   0  0  0  0  0  2  0  0  0  0  0  0
  -31.5770  -16.7310   21.1310 C   0  0  0  0  0  2  0  0  0  0  0  0
  -31.3300  -14.6580   19.6720 C   0  0  0  0  0  0  0  0  0  0  0  0
  -30.9420  -12.4200   18.6850 C   0  0  0  0  0  2  0  0  0  0  0  0
  -29.8960  -12.4340   17.5520 C   0  0  0  0  0  2  0  0  0  0  0  0
  -28.4670  -12.3190   18.1160 C   0  0  0  0  0  2  0  0  0  0  0  0
  -28.2080  -13.3290   19.2660 C   0  0  0  0  0  3  0  0  0  0  0  0
  -29.3390  -13.2350   20.3130 C   0  0  0  0  0  2  0  0  0  0  0  0
  -30.6180  -13.5000   19.6300 N   0  0  0  0  0  0  0  0  0  0  0  0
  -32.3010  -14.8840   18.9430 O   0  0  0  0  0  0  0  0  0  0  0  0
  -30.9190  -15.5120   20.6240 N   0  0  0  0  0  0  0  0  0  0  0  0
  -30.1190  -15.1910   21.1510 H   0  0  0  0  0  0  0  0  0  0  0  0
  -25.9490  -14.0650   20.2600 C   0  0  0  0  0  0  0  0  0  0  0  0
  -24.8750  -13.3480   20.7120 C   0  0  0  0  0  0  0  0  0  0  0  0
  -25.2310  -11.9700   20.5670 C   0  0  0  0  0  0  0  0  0  0  0  0
  -26.8940  -13.1260   19.8710 N   0  0  0  0  0  0  0  0  0  0  0  0
  -26.4710  -11.8600   20.1080 N   0  0  0  0  0  0  0  0  0  0  0  0
  -24.4450  -10.7500   20.7830 C   0  0  0  0  0  0  0  0  0  0  0  0
  -24.8400   -9.7740   21.7250 C   0  0  0  0  0  3  0  0  0  0  0  0
  -24.0580   -8.6160   21.9230 C   0  0  0  0  0  3  0  0  0  0  0  0
  -22.8660   -8.4320   21.1840 C   0  0  0  0  0  0  0  0  0  0  0  0
  -22.4950   -9.3920   20.2260 C   0  0  0  0  0  3  0  0  0  0  0  0
  -23.2750  -10.5410   20.0250 C   0  0  0  0  0  3  0  0  0  0  0  0
  -22.0560   -7.3280   21.2930 O   0  0  0  0  0  0  0  0  0  0  0  0
  -21.8720   -6.6880   22.4920 C   0  0  0  0  0  0  0  0  0  0  0  0
  -21.3430   -7.3530   23.6200 C   0  0  0  0  0  3  0  0  0  0  0  0
  -21.1050   -6.6390   24.8110 C   0  0  0  0  0  3  0  0  0  0  0  0
  -21.3830   -5.2620   24.8740 C   0  0  0  0  0  0  0  0  0  0  0  0
  -21.9060   -4.5960   23.7520 C   0  0  0  0  0  3  0  0  0  0  0  0
  -22.1470   -5.3070   22.5630 C   0  0  0  0  0  0  0  0  0  0  0  0
  -22.6290   -4.6570   21.4760 F   0  0  0  0  0  0  0  0  0  0  0  0
  -21.1500   -4.5720   26.0160 F   0  0  0  0  0  0  0  0  0  0  0  0
  -23.5560  -13.9000   21.1700 C   0  0  0  0  0  0  0  0  0  0  0  0
  -22.8890  -13.2090   22.0840 N   0  0  0  0  0  0  0  0  0  0  0  0
  -23.1350  -14.9800   20.7510 O   0  0  0  0  0  0  0  0  0  0  0  0
  -23.2500  -12.3320   22.4400 H   0  0  0  0  0  0  0  0  0  0  0  0
  -22.0070  -13.5560   22.4360 H   0  0  0  0  0  0  0  0  0  0  0  0
  -26.1910  -15.4290   20.1320 N   0  0  0  0  0  0  0  0  0  0  0  0
  -25.5000  -16.1270   20.3800 H   0  0  0  0  0  0  0  0  0  0  0  0
  -27.0240  -15.8300   19.7220 H   0  0  0  0  0  0  0  0  0  0  0  0
  -28.6260  -24.6880   19.3410 C   0  0  0  0  0  2  0  0  0  0  0  0
  -28.6510  -26.0500   20.0750 C   0  0  0  0  0  2  0  0  0  0  0  0
  -28.3910  -27.1420   19.1850 O   0  0  0  0  0  0  0  0  0  0  0  0
  -24.6660  -31.6960   23.2000 C   0  0  0  0  0  0  0  0  0  0  0  0
  -27.2010  -27.7980   19.3940 C   0  0  0  0  0  0  0  0  0  0  0  0
  -23.3800  -30.4610   21.4850 C   0  0  0  0  0  3  0  0  0  0  0  0
  -24.7640  -29.1680   19.7810 C   0  0  0  0  0  0  0  0  0  0  0  0
  -25.8650  -30.9540   21.1410 C   0  0  0  0  0  2  0  0  0  0  0  0
  -25.9460  -29.6780   20.3280 C   0  0  0  0  0  0  0  0  0  0  0  0
  -27.1710  -29.0020   20.1300 C   0  0  0  0  0  3  0  0  0  0  0  0
  -26.0040  -27.2870   18.8550 C   0  0  0  0  0  3  0  0  0  0  0  0
  -24.7840  -27.9690   19.0410 C   0  0  0  0  0  3  0  0  0  0  0  0
  -23.5020  -29.9630   20.0200 C   0  0  0  0  0  2  0  0  0  0  0  0
  -24.6610  -31.0450   22.0030 N   0  0  0  0  0  0  0  0  0  0  0  0
  -23.6230  -31.8500   23.8500 O   0  0  0  0  0  0  0  0  0  0  0  0
  -22.8350  -29.3040   22.3550 C   0  0  0  0  0  0  0  0  0  0  0  0
  -21.5290  -29.0260   22.2270 N   0  0  0  0  0  0  0  0  0  0  0  0
  -23.5860  -28.6660   23.0980 O   0  0  0  0  0  0  0  0  0  0  0  0
  -20.9810  -29.6080   21.6070 H   0  0  0  0  0  0  0  0  0  0  0  0
  -18.3120  -27.4150   22.5540 C   0  0  0  0  0  0  0  0  0  0  0  0
  -20.8140  -27.9490   22.9070 C   0  0  0  0  0  3  0  0  0  0  0  0
  -21.0960  -26.5830   22.2420 C   0  0  0  0  0  2  0  0  0  0  0  0
  -20.0530  -26.1920   21.1910 C   0  0  0  0  0  2  0  0  0  0  0  0
  -18.6570  -26.1330   21.8170 C   0  0  0  0  0  2  0  0  0  0  0  0
  -19.3240  -28.2740   23.0560 C   0  0  0  0  0  0  0  0  0  0  0  0
  -18.9500  -29.4660   23.7150 C   0  0  0  0  0  3  0  0  0  0  0  0
  -17.5890  -29.8000   23.8790 C   0  0  0  0  0  3  0  0  0  0  0  0
  -16.5920  -28.9390   23.3930 C   0  0  0  0  0  3  0  0  0  0  0  0
  -16.9510  -27.7490   22.7380 C   0  0  0  0  0  3  0  0  0  0  0  0
  -25.9780  -32.2910   23.8000 C   0  0  0  0  0  3  0  0  0  0  0  0
  -25.6800  -33.6600   24.2440 N   0  0  0  0  0  0  0  0  0  0  0  0
  -25.9790  -34.7640   23.5460 C   0  0  0  0  0  0  0  0  0  0  0  0
  -26.6070  -34.7400   22.4860 O   0  0  0  0  0  0  0  0  0  0  0  0
  -25.1250  -33.7560   25.0800 H   0  0  0  0  0  0  0  0  0  0  0  0
  -24.2300  -36.5630   23.3870 C   0  0  0  0  0  1  0  0  0  0  0  0
  -25.5030  -36.1150   24.1210 C   0  0  0  0  0  3  0  0  0  0  0  0
  -27.6620  -36.9570   24.9300 C   0  0  0  0  0  1  0  0  0  0  0  0
  -26.5270  -37.1800   24.0390 N   0  0  0  0  0  0  0  0  0  0  0  0
  -26.1220  -38.0840   24.2640 H   0  0  0  0  0  0  0  0  0  0  0  0
  -26.5630  -31.4370   24.9900 C   0  0  1  0  0  0  0  0  0  0  0  0
  -25.5230  -31.1000   26.0860 C   0  0  0  0  0  1  0  0  0  0  0  0
  -27.1490  -30.1060   24.4650 C   0  0  0  0  0  1  0  0  0  0  0  0
  -27.7330  -32.1990   25.6570 C   0  0  0  0  0  1  0  0  0  0  0  0
  1  6  2  0
  2  1  1  0
  3  5  1  0
  3  4  1  0
  4  7  1  0
  4  1  1  0
  5 50  1  0
  5  2  1  0
  8 10  1  0
  8  7  1  0
  9  8  2  0
 10 11  1  0
 12 20  1  0
 13 18  1  0
 14 15  1  0
 14 13  1  0
 16 15  1  0
 16 25  1  0
 16 17  1  0
 18 12  1  0
 18 17  1  0
 19 12  2  0
 20 11  1  0
 20 21  1  0
 22 23  2  0
 23 42  1  0
 24 23  1  0
 24 27  1  0
 25 26  1  0
 25 22  1  0
 26 24  2  0
 27 28  1  0
 28 29  2  0
 30 33  1  0
 30 29  1  0
 31 30  2  0
 32 31  1  0
 32 27  2  0
 33 34  1  0
 34 39  2  0
 34 35  1  0
 35 36  2  0
 36 37  1  0
 37 41  1  0
 38 37  2  0
 39 38  1  0
 40 39  1  0
 42 43  1  0
 43 46  1  0
 43 45  1  0
 44 42  2  0
 47 22  1  0
 47 48  1  0
 49 47  1  0
 50 51  1  0
 52 54  1  0
 52 51  1  0
 53 64  2  0
 54 59  1  0
 55 63  1  0
 55 65  1  0
 56 62  1  0
 56 58  1  0
 57 63  1  0
 58 57  1  0
 59 58  2  0
 60 61  1  0
 60 54  2  0
 61 56  2  0
 62 55  1  0
 63 53  1  0
 65 67  2  0
 66 65  1  0
 68 66  1  0
 69 78  2  0
 69 74  1  0
 70 66  1  0
 70 74  1  0
 71 70  1  0
 72 73  1  0
 72 71  1  0
 73 69  1  0
 74 75  2  0
 75 76  1  0
 77 76  2  0
 78 77  1  0
 79 53  1  0
 79 80  1  0
 79 89  1  0
 80 83  1  0
 81 85  1  0
 81 80  1  0
 82 81  2  0
 85 84  1  0
 87 85  1  0
 87 88  1  0
 87 86  1  0
 89 92  1  1
 89 90  1  0
 91 89  1  0
M  ISO  4  12 100  20 100  51 101  52 101
M  END
>  <TORSDO>  (62) 
F 22

>  <SCORE>  (62) 
-10.274

>  <name>  (62) 
62

>  <ligand_id>  (62) 
62

>  <original_smiles>  (62) 
[H]c1c([H])c([H])c2c(c1[H])C([H])([H])C([H])([H])C([H])([H])C2([H])N([H])C(=O)C1([H])N(C(=O)C([H])(N([H])C(=O)C([H])(N([H])C([H])([H])[H])C([H])([H])[H])C(C([H])([H])[H])(C([H])([H])[H])C([H])([H])[H])C([H])([H])c2c([H])c(OC([H])([H])C([H])([H])C3([H])C([H])([H])C(=O)C([H])(C([H])([H])C(=O)C([H])([H])C([H])([H])N([H])C(=O)N4C([H])([H])C([H])([H])C([H])([H])C([H])(n5nc(-c6c([H])c([H])c(Oc7c([H])c([H])c(F)c([H])c7F)c([H])c6[H])c(C(=O)N([H])[H])c5N([H])[H])C4([H])[H])C3([H])[H])c([H])c([H])c2C1([H])[H]

>  <smiles>  (62) 
[H]c1c([H])c([H])c2c(c1[H])C([H])([H])C([H])([H])C([H])([H])C2([H])N([H])C(=O)C1([H])N(C(=O)C([H])(N([H])C(=O)C([H])(N([H])C([H])([H])[H])C([H])([H])[H])C(C([H])([H])[H])(C([H])([H])[H])C([H])([H])[H])C([H])([H])c2c([H])c(OC([H])([H])C([H])([H])C3([H])C([H])([H])C(=O)C([H])(C([H])([H])C(=O)C([H])([H])C([H])([H])N([H])C(=O)N4C([H])([H])C([H])([H])C([H])([H])C([H])(n5nc(-c6c([H])c([H])c(Oc7c([H])c([H])c(F)c([H])c7F)c([H])c6[H])c(C(=O)N([H])[H])c5N([H])[H])C4([H])[H])C3([H])[H])c([H])c([H])c2C1([H])[H]

$$$$
63:0:0
     RDKit          3D

 90 99  0  0  1  0  0  0  0  0999 V2000
  -30.0320  -21.7370   19.7860 C   0  0  0  0  0  2  0  0  0  0  0  0
  -29.2510  -22.7180   20.2810 C   0  0  0  0  0  3  0  0  0  0  0  0
  -29.6430  -21.0470   22.2800 C   0  0  0  0  0  2  0  0  0  0  0  0
  -28.7440  -21.8750   21.3950 C   0  0  0  0  0  3  0  0  0  0  0  0
  -29.6030  -20.7220   20.8120 C   0  0  2  0  0  0  0  0  0  0  0  0
  -29.3750  -24.2220   20.1970 C   0  0  0  0  0  0  0  0  0  0  0  0
  -30.4830  -24.7700   20.1920 O   0  0  0  0  0  0  0  0  0  0  0  0
  -28.1040  -25.1160   20.0660 C   0  0  0  0  0  2  0  0  0  0  0  0
  -28.3340  -26.5670   20.1620 O   0  0  0  0  0  0  0  0  0  0  0  0
  -24.5960  -31.8890   23.2380 C   0  0  0  0  0  0  0  0  0  0  0  0
  -27.1960  -27.3780   20.1380 C   0  0  0  0  0  0  0  0  0  0  0  0
  -23.3800  -30.4950   21.6020 C   0  0  0  0  0  3  0  0  0  0  0  0
  -24.8200  -28.9560   20.1630 C   0  0  0  0  0  0  0  0  0  0  0  0
  -25.9140  -30.8270   21.3980 C   0  0  0  0  0  2  0  0  0  0  0  0
  -25.9910  -29.4540   20.7470 C   0  0  0  0  0  0  0  0  0  0  0  0
  -27.1840  -28.6760   20.7260 C   0  0  0  0  0  3  0  0  0  0  0  0
  -25.9960  -26.9230   19.5390 C   0  0  0  0  0  3  0  0  0  0  0  0
  -24.8220  -27.6950   19.5530 C   0  0  0  0  0  3  0  0  0  0  0  0
  -23.5810  -29.8250   20.2190 C   0  0  0  0  0  2  0  0  0  0  0  0
  -24.6490  -31.0860   22.1360 N   0  0  0  0  0  0  0  0  0  0  0  0
  -23.5160  -32.1650   23.7810 O   0  0  0  0  0  0  0  0  0  0  0  0
  -22.7280  -29.4720   22.5630 C   0  0  0  0  0  0  0  0  0  0  0  0
  -21.4030  -29.2850   22.4370 N   0  0  0  0  0  0  0  0  0  0  0  0
  -23.4120  -28.8510   23.3810 O   0  0  0  0  0  0  0  0  0  0  0  0
  -20.9110  -29.8410   21.7500 H   0  0  0  0  0  0  0  0  0  0  0  0
  -18.0370  -28.0580   22.9240 C   0  0  0  0  0  0  0  0  0  0  0  0
  -20.5900  -28.3440   23.2080 C   0  0  0  0  0  3  0  0  0  0  0  0
  -20.7090  -26.9100   22.6440 C   0  0  0  0  0  2  0  0  0  0  0  0
  -19.6180  -26.5690   21.6260 C   0  0  0  0  0  2  0  0  0  0  0  0
  -18.2300  -26.7060   22.2600 C   0  0  0  0  0  2  0  0  0  0  0  0
  -19.1450  -28.8350   23.3540 C   0  0  0  0  0  0  0  0  0  0  0  0
  -18.9100  -30.1000   23.9330 C   0  0  0  0  0  3  0  0  0  0  0  0
  -17.6000  -30.5910   24.0870 C   0  0  0  0  0  3  0  0  0  0  0  0
  -16.5060  -29.8120   23.6730 C   0  0  0  0  0  3  0  0  0  0  0  0
  -16.7240  -28.5480   23.0960 C   0  0  0  0  0  3  0  0  0  0  0  0
  -25.8840  -32.5190   23.8510 C   0  0  0  0  0  3  0  0  0  0  0  0
  -25.5770  -33.9150   24.1890 N   0  0  0  0  0  0  0  0  0  0  0  0
  -25.8970  -34.9700   23.4270 C   0  0  0  0  0  0  0  0  0  0  0  0
  -26.5540  -34.8710   22.3870 O   0  0  0  0  0  0  0  0  0  0  0  0
  -24.9910  -34.0670   24.9960 H   0  0  0  0  0  0  0  0  0  0  0  0
  -24.1600  -36.7600   23.1020 C   0  0  0  0  0  1  0  0  0  0  0  0
  -25.4130  -36.3570   23.8940 C   0  0  0  0  0  3  0  0  0  0  0  0
  -27.5580  -37.2440   24.6950 C   0  0  0  0  0  1  0  0  0  0  0  0
  -26.4410  -37.4120   23.7680 N   0  0  0  0  0  0  0  0  0  0  0  0
  -26.0350  -38.3310   23.9260 H   0  0  0  0  0  0  0  0  0  0  0  0
  -26.4120  -31.7430   25.1190 C   0  0  1  0  0  0  0  0  0  0  0  0
  -25.3280  -31.5000   26.1950 C   0  0  0  0  0  1  0  0  0  0  0  0
  -26.9920  -30.3660   24.7180 C   0  0  0  0  0  1  0  0  0  0  0  0
  -27.5670  -32.5360   25.7730 C   0  0  0  0  0  1  0  0  0  0  0  0
  -29.0250  -19.3440   20.3690 C   0  0  0  0  0  2  0  0  0  0  0  0
  -30.0070  -18.1410   20.0800 C   0  0  0  0  0  2  0  0  0  0  0  0
  -30.2800  -17.0690   21.2030 C   0  0  0  0  0  2  0  0  0  0  0  0
  -30.6340  -14.6050   20.4880 C   0  0  0  0  0  0  0  0  0  0  0  0
  -30.3720  -12.4120   19.3570 C   0  0  0  0  0  2  0  0  0  0  0  0
  -29.4290  -12.5760   18.1440 C   0  0  0  0  0  2  0  0  0  0  0  0
  -27.9550  -12.4330   18.5720 C   0  0  0  0  0  2  0  0  0  0  0  0
  -27.6090  -13.2860   19.8200 C   0  0  0  0  0  3  0  0  0  0  0  0
  -28.6600  -13.0930   20.9350 C   0  0  0  0  0  2  0  0  0  0  0  0
  -29.9770  -13.4140   20.3630 N   0  0  0  0  0  0  0  0  0  0  0  0
  -31.7930  -14.7600   20.0960 O   0  0  0  0  0  0  0  0  0  0  0  0
  -29.8830  -15.6560   20.9160 N   0  0  0  0  0  0  0  0  0  0  0  0
  -28.9310  -15.4180   21.1530 H   0  0  0  0  0  0  0  0  0  0  0  0
  -25.2150  -13.9090   20.5200 C   0  0  0  0  0  0  0  0  0  0  0  0
  -24.1400  -13.1460   20.8860 C   0  0  0  0  0  0  0  0  0  0  0  0
  -24.5920  -11.7910   20.8640 C   0  0  0  0  0  0  0  0  0  0  0  0
  -26.2540  -13.0200   20.2960 N   0  0  0  0  0  0  0  0  0  0  0  0
  -25.8850  -11.7410   20.5640 N   0  0  0  0  0  0  0  0  0  0  0  0
  -23.8580  -10.5340   21.0540 C   0  0  0  0  0  0  0  0  0  0  0  0
  -24.2880   -9.5590   21.9810 C   0  0  0  0  0  3  0  0  0  0  0  0
  -23.5550   -8.3670   22.1580 C   0  0  0  0  0  3  0  0  0  0  0  0
  -22.3760   -8.1410   21.4090 C   0  0  0  0  0  0  0  0  0  0  0  0
  -21.9640   -9.1040   20.4710 C   0  0  0  0  0  3  0  0  0  0  0  0
  -22.6980  -10.2880   20.2920 C   0  0  0  0  0  3  0  0  0  0  0  0
  -21.6130   -7.0020   21.4960 O   0  0  0  0  0  0  0  0  0  0  0  0
  -21.5750   -6.2480   22.6410 C   0  0  0  0  0  0  0  0  0  0  0  0
  -21.1770   -6.7930   23.8800 C   0  0  0  0  0  3  0  0  0  0  0  0
  -21.0850   -5.9670   25.0180 C   0  0  0  0  0  3  0  0  0  0  0  0
  -21.3810   -4.5940   24.9160 C   0  0  0  0  0  0  0  0  0  0  0  0
  -21.7730   -4.0470   23.6810 C   0  0  0  0  0  3  0  0  0  0  0  0
  -21.8660   -4.8710   22.5460 C   0  0  0  0  0  0  0  0  0  0  0  0
  -22.2240   -4.3350   21.3540 F   0  0  0  0  0  0  0  0  0  0  0  0
  -21.2850   -3.7970   26.0060 F   0  0  0  0  0  0  0  0  0  0  0  0
  -22.7440  -13.6330   21.1490 C   0  0  0  0  0  0  0  0  0  0  0  0
  -22.0080  -12.9430   22.0120 N   0  0  0  0  0  0  0  0  0  0  0  0
  -22.3160  -14.6590   20.6210 O   0  0  0  0  0  0  0  0  0  0  0  0
  -22.3690  -12.1140   22.4600 H   0  0  0  0  0  0  0  0  0  0  0  0
  -21.0700  -13.2500   22.2310 H   0  0  0  0  0  0  0  0  0  0  0  0
  -25.3910  -15.2780   20.3370 N   0  0  0  0  0  0  0  0  0  0  0  0
  -24.6260  -15.9380   20.4360 H   0  0  0  0  0  0  0  0  0  0  0  0
  -26.2400  -15.7100   19.9970 H   0  0  0  0  0  0  0  0  0  0  0  0
  1  2  1  0
  1  5  1  0
  2  6  1  0
  2  4  1  0
  4  3  1  0
  5 50  1  1
  5  4  1  0
  5  3  1  0
  7  6  2  0
  8  9  1  0
  8  6  1  0
 10 21  2  0
 11  9  1  0
 11 16  1  0
 12 20  1  0
 12 22  1  0
 13 19  1  0
 13 15  1  0
 14 20  1  0
 15 14  1  0
 16 15  2  0
 17 18  1  0
 17 11  2  0
 18 13  2  0
 19 12  1  0
 20 10  1  0
 22 24  2  0
 23 22  1  0
 25 23  1  0
 26 35  2  0
 26 31  1  0
 27 23  1  0
 27 31  1  0
 28 27  1  0
 29 30  1  0
 29 28  1  0
 30 26  1  0
 31 32  2  0
 32 33  1  0
 34 33  2  0
 35 34  1  0
 36 10  1  0
 36 37  1  0
 36 46  1  0
 37 40  1  0
 38 42  1  0
 38 37  1  0
 39 38  2  0
 42 41  1  0
 44 42  1  0
 44 45  1  0
 44 43  1  0
 46 49  1  1
 46 47  1  0
 48 46  1  0
 51 50  1  0
 51 52  1  0
 53 61  1  0
 54 59  1  0
 55 56  1  0
 55 54  1  0
 57 56  1  0
 57 66  1  0
 57 58  1  0
 59 53  1  0
 59 58  1  0
 60 53  2  0
 61 62  1  0
 61 52  1  0
 63 64  2  0
 64 83  1  0
 65 64  1  0
 65 68  1  0
 66 63  1  0
 66 67  1  0
 67 65  2  0
 68 69  1  0
 69 70  2  0
 71 74  1  0
 71 70  1  0
 72 71  2  0
 73 72  1  0
 73 68  2  0
 74 75  1  0
 75 76  1  0
 76 77  2  0
 78 77  1  0
 78 82  1  0
 79 78  2  0
 80 75  2  0
 80 79  1  0
 81 80  1  0
 83 84  1  0
 84 87  1  0
 84 86  1  0
 85 83  2  0
 88 89  1  0
 88 63  1  0
 90 88  1  0
M  ISO  4   8 101   9 101  53 100  61 100
M  END
>  <TORSDO>  (63) 
F 21

>  <SCORE>  (63) 
-13.519

>  <name>  (63) 
63

>  <ligand_id>  (63) 
63

>  <original_smiles>  (63) 
[H]C1=C(C(=O)C([H])([H])Oc2c([H])c([H])c3c(c2[H])C([H])([H])N(C(=O)C([H])(N([H])C(=O)C([H])(N([H])C([H])([H])[H])C([H])([H])[H])C(C([H])([H])[H])(C([H])([H])[H])C([H])([H])[H])C([H])(C(=O)N([H])C2([H])c4c([H])c([H])c([H])c([H])c4C([H])([H])C([H])([H])C2([H])[H])C3([H])[H])C2([H])C([H])([H])C12C([H])([H])C([H])([H])C([H])([H])N([H])C(=O)N1C([H])([H])C([H])([H])C([H])([H])C([H])(n2nc(-c3c([H])c([H])c(Oc4c([H])c([H])c(F)c([H])c4F)c([H])c3[H])c(C(=O)N([H])[H])c2N([H])[H])C1([H])[H]

>  <smiles>  (63) 
[H]C1=C(C(=O)C([H])([H])Oc2c([H])c([H])c3c(c2[H])C([H])([H])N(C(=O)C([H])(N([H])C(=O)C([H])(N([H])C([H])([H])[H])C([H])([H])[H])C(C([H])([H])[H])(C([H])([H])[H])C([H])([H])[H])C([H])(C(=O)N([H])C2([H])c4c([H])c([H])c([H])c([H])c4C([H])([H])C([H])([H])C2([H])[H])C3([H])[H])C2([H])C([H])([H])C12C([H])([H])C([H])([H])C([H])([H])N([H])C(=O)N1C([H])([H])C([H])([H])C([H])([H])C([H])(n2nc(-c3c([H])c([H])c(Oc4c([H])c([H])c(F)c([H])c4F)c([H])c3[H])c(C(=O)N([H])[H])c2N([H])[H])C1([H])[H]

$$$$
64:0:0
     RDKit          3D

 94103  0  0  1  0  0  0  0  0999 V2000
  -29.2620  -19.1220   20.7270 C   0  0  0  0  0  3  0  0  0  0  0  0
  -29.0980  -17.7170   20.7960 C   0  0  0  0  0  3  0  0  0  0  0  0
  -31.4970  -17.4160   21.1670 C   0  0  0  0  0  3  0  0  0  0  0  0
  -30.5550  -19.6580   20.8740 C   0  0  0  0  0  0  0  0  0  0  0  0
  -31.6390  -18.8160   21.1050 C   0  0  0  0  0  0  0  0  0  0  0  0
  -30.2070  -16.8520   20.9920 C   0  0  0  0  0  0  0  0  0  0  0  0
  -32.9130  -19.5940   21.2720 C   0  0  0  0  0  2  0  0  0  0  0  0
  -32.5250  -21.0140   20.8060 C   0  0  0  0  0  2  0  0  0  0  0  0
  -30.9730  -21.1210   20.8370 C   0  0  0  0  0  3  0  0  0  0  0  0
  -30.6540  -14.4740   20.4140 C   0  0  0  0  0  0  0  0  0  0  0  0
  -30.3160  -12.3570   19.1920 C   0  0  0  0  0  2  0  0  0  0  0  0
  -29.3560  -12.6150   18.0120 C   0  0  0  0  0  2  0  0  0  0  0  0
  -27.8880  -12.4780   18.4620 C   0  0  0  0  0  2  0  0  0  0  0  0
  -27.5810  -13.2780   19.7560 C   0  0  0  0  0  3  0  0  0  0  0  0
  -28.6490  -13.0000   20.8380 C   0  0  0  0  0  2  0  0  0  0  0  0
  -29.9710  -13.3060   20.2620 N   0  0  0  0  0  0  0  0  0  0  0  0
  -31.7650  -14.6660   19.9090 O   0  0  0  0  0  0  0  0  0  0  0  0
  -29.9710  -15.4470   21.0460 N   0  0  0  0  0  0  0  0  0  0  0  0
  -29.0550  -15.1640   21.3600 H   0  0  0  0  0  0  0  0  0  0  0  0
  -25.1880  -13.8890   20.4850 C   0  0  0  0  0  0  0  0  0  0  0  0
  -24.1220  -13.1180   20.8650 C   0  0  0  0  0  0  0  0  0  0  0  0
  -24.5810  -11.7660   20.8290 C   0  0  0  0  0  0  0  0  0  0  0  0
  -26.2300  -13.0060   20.2450 N   0  0  0  0  0  0  0  0  0  0  0  0
  -25.8680  -11.7250   20.5070 N   0  0  0  0  0  0  0  0  0  0  0  0
  -23.8550  -10.5050   21.0250 C   0  0  0  0  0  0  0  0  0  0  0  0
  -24.2960   -9.5370   21.9550 C   0  0  0  0  0  3  0  0  0  0  0  0
  -23.5720   -8.3400   22.1390 C   0  0  0  0  0  3  0  0  0  0  0  0
  -22.3930   -8.1010   21.3930 C   0  0  0  0  0  0  0  0  0  0  0  0
  -21.9720   -9.0580   20.4520 C   0  0  0  0  0  3  0  0  0  0  0  0
  -22.6960  -10.2470   20.2660 C   0  0  0  0  0  3  0  0  0  0  0  0
  -21.6400   -6.9560   21.4870 O   0  0  0  0  0  0  0  0  0  0  0  0
  -21.6000   -6.2120   22.6390 C   0  0  0  0  0  0  0  0  0  0  0  0
  -21.1830   -6.7660   23.8690 C   0  0  0  0  0  3  0  0  0  0  0  0
  -21.0920   -5.9480   25.0130 C   0  0  0  0  0  3  0  0  0  0  0  0
  -21.4070   -4.5780   24.9290 C   0  0  0  0  0  0  0  0  0  0  0  0
  -21.8180   -4.0250   23.7030 C   0  0  0  0  0  3  0  0  0  0  0  0
  -21.9110   -4.8400   22.5600 C   0  0  0  0  0  0  0  0  0  0  0  0
  -22.2860   -4.2970   21.3770 F   0  0  0  0  0  0  0  0  0  0  0  0
  -21.3120   -3.7910   26.0250 F   0  0  0  0  0  0  0  0  0  0  0  0
  -22.7290  -13.5970   21.1520 C   0  0  0  0  0  0  0  0  0  0  0  0
  -22.0080  -12.8990   22.0230 N   0  0  0  0  0  0  0  0  0  0  0  0
  -22.2870  -14.6250   20.6410 O   0  0  0  0  0  0  0  0  0  0  0  0
  -22.3780  -12.0670   22.4590 H   0  0  0  0  0  0  0  0  0  0  0  0
  -21.0730  -13.2010   22.2580 H   0  0  0  0  0  0  0  0  0  0  0  0
  -25.3530  -15.2590   20.3030 N   0  0  0  0  0  0  0  0  0  0  0  0
  -24.5830  -15.9120   20.4050 H   0  0  0  0  0  0  0  0  0  0  0  0
  -26.1900  -15.6890   19.9330 H   0  0  0  0  0  0  0  0  0  0  0  0
  -30.3440  -21.9420   19.6750 C   0  0  0  0  0  2  0  0  0  0  0  0
  -30.9450  -23.3480   19.4560 C   0  0  0  0  0  0  0  0  0  0  0  0
  -32.0870  -23.3940   18.4580 C   0  0  0  0  0  1  0  0  0  0  0  0
  -30.5900  -24.4520   20.0000 N   0  0  0  0  0  0  0  0  0  0  0  0
  -29.5010  -24.5530   20.9610 C   0  0  0  0  0  2  0  0  0  0  0  0
  -28.2730  -25.2640   20.3520 C   0  0  0  0  0  2  0  0  0  0  0  0
  -28.4360  -26.6900   20.2650 O   0  0  0  0  0  0  0  0  0  0  0  0
  -24.6030  -31.8960   23.2380 C   0  0  0  0  0  0  0  0  0  0  0  0
  -27.2670  -27.4260   20.2170 C   0  0  0  0  0  0  0  0  0  0  0  0
  -23.4050  -30.4750   21.6070 C   0  0  0  0  0  3  0  0  0  0  0  0
  -24.8680  -28.9290   20.2010 C   0  0  0  0  0  0  0  0  0  0  0  0
  -25.9320  -30.8380   21.4140 C   0  0  0  0  0  2  0  0  0  0  0  0
  -26.0240  -29.4630   20.7850 C   0  0  0  0  0  0  0  0  0  0  0  0
  -27.2270  -28.7200   20.7860 C   0  0  0  0  0  3  0  0  0  0  0  0
  -26.0910  -26.9120   19.6210 C   0  0  0  0  0  3  0  0  0  0  0  0
  -24.8970  -27.6540   19.6160 C   0  0  0  0  0  3  0  0  0  0  0  0
  -23.6200  -29.7840   20.2350 C   0  0  0  0  0  2  0  0  0  0  0  0
  -24.6650  -31.0860   22.1440 N   0  0  0  0  0  0  0  0  0  0  0  0
  -23.5200  -32.1720   23.7720 O   0  0  0  0  0  0  0  0  0  0  0  0
  -22.7540  -29.4620   22.5750 C   0  0  0  0  0  0  0  0  0  0  0  0
  -21.4290  -29.2790   22.4470 N   0  0  0  0  0  0  0  0  0  0  0  0
  -23.4360  -28.8430   23.3960 O   0  0  0  0  0  0  0  0  0  0  0  0
  -20.9400  -29.8300   21.7540 H   0  0  0  0  0  0  0  0  0  0  0  0
  -18.0500  -28.1080   22.9610 C   0  0  0  0  0  0  0  0  0  0  0  0
  -20.6100  -28.3510   23.2240 C   0  0  0  0  0  3  0  0  0  0  0  0
  -20.7030  -26.9160   22.6540 C   0  0  0  0  0  2  0  0  0  0  0  0
  -19.5960  -26.5970   21.6450 C   0  0  0  0  0  2  0  0  0  0  0  0
  -18.2160  -26.7550   22.2900 C   0  0  0  0  0  2  0  0  0  0  0  0
  -19.1750  -28.8650   23.3850 C   0  0  0  0  0  0  0  0  0  0  0  0
  -18.9670  -30.1320   23.9690 C   0  0  0  0  0  3  0  0  0  0  0  0
  -17.6660  -30.6440   24.1360 C   0  0  0  0  0  3  0  0  0  0  0  0
  -16.5550  -29.8850   23.7300 C   0  0  0  0  0  3  0  0  0  0  0  0
  -16.7480  -28.6190   23.1480 C   0  0  0  0  0  3  0  0  0  0  0  0
  -25.8870  -32.5350   23.8550 C   0  0  0  0  0  3  0  0  0  0  0  0
  -26.4060  -31.7740   25.1360 C   0  0  1  0  0  0  0  0  0  0  0  0
  -25.3130  -31.5390   26.2040 C   0  0  0  0  0  1  0  0  0  0  0  0
  -26.9940  -30.3970   24.7510 C   0  0  0  0  0  1  0  0  0  0  0  0
  -27.5530  -32.5770   25.7930 C   0  0  0  0  0  1  0  0  0  0  0  0
  -25.5740  -33.9350   24.1720 N   0  0  0  0  0  0  0  0  0  0  0  0
  -25.9080  -34.9810   23.4050 C   0  0  0  0  0  0  0  0  0  0  0  0
  -26.5830  -34.8700   22.3780 O   0  0  0  0  0  0  0  0  0  0  0  0
  -24.9760  -34.0960   24.9700 H   0  0  0  0  0  0  0  0  0  0  0  0
  -24.1790  -36.7660   23.0220 C   0  0  0  0  0  1  0  0  0  0  0  0
  -25.4140  -36.3720   23.8480 C   0  0  0  0  0  3  0  0  0  0  0  0
  -27.5400  -37.2640   24.6910 C   0  0  0  0  0  1  0  0  0  0  0  0
  -26.4460  -37.4250   23.7370 N   0  0  0  0  0  0  0  0  0  0  0  0
  -26.0370  -38.3460   23.8750 H   0  0  0  0  0  0  0  0  0  0  0  0
  1  2  2  0
  1  4  1  0
  2  6  1  0
  4  5  2  0
  5  3  1  0
  5  7  1  0
  6 18  1  0
  6  3  2  0
  8  9  1  0
  8  7  1  0
  9 48  1  0
  9  4  1  0
 10 18  1  0
 11 16  1  0
 12 13  1  0
 12 11  1  0
 14 13  1  0
 14 23  1  0
 14 15  1  0
 16 10  1  0
 16 15  1  0
 17 10  2  0
 18 19  1  0
 20 21  2  0
 21 40  1  0
 22 21  1  0
 22 25  1  0
 23 20  1  0
 23 24  1  0
 24 22  2  0
 25 26  1  0
 26 27  2  0
 28 31  1  0
 28 27  1  0
 29 28  2  0
 30 29  1  0
 30 25  2  0
 31 32  1  0
 32 33  1  0
 33 34  2  0
 35 34  1  0
 35 39  1  0
 36 35  2  0
 37 32  2  0
 37 36  1  0
 38 37  1  0
 40 41  1  0
 41 44  1  0
 41 43  1  0
 42 40  2  0
 45 46  1  0
 45 20  1  0
 47 45  1  0
 49 48  1  0
 49 51  2  0
 50 49  1  0
 51 52  1  0
 53 52  1  0
 54 53  1  0
 55 66  2  0
 56 54  1  0
 56 61  1  0
 57 65  1  0
 57 67  1  0
 58 64  1  0
 58 60  1  0
 59 65  1  0
 60 61  2  0
 60 59  1  0
 62 56  2  0
 63 62  1  0
 63 58  2  0
 64 57  1  0
 65 55  1  0
 67 69  2  0
 68 67  1  0
 70 68  1  0
 71 80  2  0
 71 76  1  0
 72 68  1  0
 72 76  1  0
 73 72  1  0
 74 75  1  0
 74 73  1  0
 75 71  1  0
 76 77  2  0
 77 78  1  0
 79 78  2  0
 80 79  1  0
 81 55  1  0
 81 86  1  0
 81 82  1  0
 82 85  1  1
 82 83  1  0
 84 82  1  0
 86 89  1  0
 87 91  1  0
 87 86  1  0
 88 87  2  0
 91 90  1  0
 93 91  1  0
 93 94  1  0
 93 92  1  0
M  ISO  4  10 100  18 100  53 101  54 101
M  END
>  <TORSDO>  (64) 
F 20

>  <SCORE>  (64) 
-14.232

>  <name>  (64) 
64

>  <ligand_id>  (64) 
64

>  <original_smiles>  (64) 
[H]c1c([H])c([H])c2c(c1[H])C([H])([H])C([H])([H])C([H])([H])C2([H])N([H])C(=O)C1([H])N(C(=O)C([H])(N([H])C(=O)C([H])(N([H])C([H])([H])[H])C([H])([H])[H])C(C([H])([H])[H])(C([H])([H])[H])C([H])([H])[H])C([H])([H])c2c([H])c(OC([H])([H])C([H])([H])N=C(C([H])([H])[H])C([H])([H])C3([H])c4c([H])c([H])c(N([H])C(=O)N5C([H])([H])C([H])([H])C([H])([H])C([H])(n6nc(-c7c([H])c([H])c(Oc8c([H])c([H])c(F)c([H])c8F)c([H])c7[H])c(C(=O)N([H])[H])c6N([H])[H])C5([H])[H])c([H])c4C([H])([H])C3([H])[H])c([H])c([H])c2C1([H])[H]

>  <smiles>  (64) 
[H]c1c([H])c([H])c2c(c1[H])C([H])([H])C([H])([H])C([H])([H])C2([H])N([H])C(=O)C1([H])N(C(=O)C([H])(N([H])C(=O)C([H])(N([H])C([H])([H])[H])C([H])([H])[H])C(C([H])([H])[H])(C([H])([H])[H])C([H])([H])[H])C([H])([H])c2c([H])c(OC([H])([H])C([H])([H])N=C(C([H])([H])[H])C([H])([H])C3([H])c4c([H])c([H])c(N([H])C(=O)N5C([H])([H])C([H])([H])C([H])([H])C([H])(n6nc(-c7c([H])c([H])c(Oc8c([H])c([H])c(F)c([H])c8F)c([H])c7[H])c(C(=O)N([H])[H])c6N([H])[H])C5([H])[H])c([H])c4C([H])([H])C3([H])[H])c([H])c([H])c2C1([H])[H]

$$$$
65:0:0
     RDKit          3D

 91 99  0  0  1  0  0  0  0  0999 V2000
  -30.6220  -20.6810   19.4800 C   0  0  0  0  0  3  0  0  0  0  0  0
  -31.1130  -19.3610   19.6830 C   0  0  0  0  0  3  0  0  0  0  0  0
  -28.4070  -19.9170   20.0410 C   0  0  0  0  0  3  0  0  0  0  0  0
  -29.2530  -20.9920   19.6560 C   0  0  0  0  0  0  0  0  0  0  0  0
  -30.2720  -18.2820   20.0640 C   0  0  0  0  0  0  0  0  0  0  0  0
  -28.8950  -18.5910   20.2470 C   0  0  0  0  0  0  0  0  0  0  0  0
  -27.9190  -17.5110   20.6810 C   0  0  0  0  0  1  0  0  0  0  0  0
  -28.6540  -22.3670   19.2060 C   0  0  0  0  0  2  0  0  0  0  0  0
  -28.9190  -23.7430   19.9210 C   0  0  0  0  0  0  0  0  0  0  0  0
  -29.7590  -23.8810   20.8170 O   0  0  0  0  0  0  0  0  0  0  0  0
  -28.0280  -24.9260   19.4030 C   0  0  0  0  0  2  0  0  0  0  0  0
  -28.2910  -26.3120   19.8390 O   0  0  0  0  0  0  0  0  0  0  0  0
  -24.5690  -31.6360   22.9770 C   0  0  0  0  0  0  0  0  0  0  0  0
  -27.1790  -27.1700   19.7980 C   0  0  0  0  0  0  0  0  0  0  0  0
  -23.3550  -30.2560   21.3320 C   0  0  0  0  0  3  0  0  0  0  0  0
  -24.8000  -28.7590   19.8550 C   0  0  0  0  0  0  0  0  0  0  0  0
  -25.8900  -30.6040   21.1220 C   0  0  0  0  0  2  0  0  0  0  0  0
  -25.9730  -29.2410   20.4490 C   0  0  0  0  0  0  0  0  0  0  0  0
  -27.1650  -28.4560   20.4190 C   0  0  0  0  0  3  0  0  0  0  0  0
  -25.9800  -26.7580   19.1590 C   0  0  0  0  0  3  0  0  0  0  0  0
  -24.8040  -27.5210   19.2030 C   0  0  0  0  0  3  0  0  0  0  0  0
  -23.5560  -29.6150   19.9360 C   0  0  0  0  0  2  0  0  0  0  0  0
  -24.6250  -30.8480   21.8670 N   0  0  0  0  0  0  0  0  0  0  0  0
  -23.4900  -31.8940   23.5300 O   0  0  0  0  0  0  0  0  0  0  0  0
  -22.7200  -29.2110   22.2800 C   0  0  0  0  0  0  0  0  0  0  0  0
  -21.3890  -29.0410   22.1850 N   0  0  0  0  0  0  0  0  0  0  0  0
  -23.4190  -28.5590   23.0590 O   0  0  0  0  0  0  0  0  0  0  0  0
  -20.8840  -29.6190   21.5290 H   0  0  0  0  0  0  0  0  0  0  0  0
  -18.0140  -27.8920   22.7960 C   0  0  0  0  0  0  0  0  0  0  0  0
  -20.5870  -28.0890   22.9550 C   0  0  0  0  0  3  0  0  0  0  0  0
  -20.6310  -26.6800   22.3180 C   0  0  0  0  0  2  0  0  0  0  0  0
  -19.4770  -26.4220   21.3450 C   0  0  0  0  0  2  0  0  0  0  0  0
  -18.1300  -26.5690   22.0590 C   0  0  0  0  0  2  0  0  0  0  0  0
  -19.1690  -28.6130   23.2020 C   0  0  0  0  0  0  0  0  0  0  0  0
  -19.0050  -29.8540   23.8550 C   0  0  0  0  0  3  0  0  0  0  0  0
  -17.7210  -30.3750   24.1010 C   0  0  0  0  0  3  0  0  0  0  0  0
  -16.5820  -29.6500   23.7100 C   0  0  0  0  0  3  0  0  0  0  0  0
  -16.7300  -28.4100   23.0630 C   0  0  0  0  0  3  0  0  0  0  0  0
  -25.8550  -32.2700   23.5910 C   0  0  0  0  0  3  0  0  0  0  0  0
  -26.4480  -31.4320   24.7890 C   0  0  1  0  0  0  0  0  0  0  0  0
  -25.4070  -31.0770   25.8760 C   0  0  0  0  0  1  0  0  0  0  0  0
  -27.0670  -30.1100   24.2810 C   0  0  0  0  0  1  0  0  0  0  0  0
  -27.5930  -32.2250   25.4650 C   0  0  0  0  0  1  0  0  0  0  0  0
  -25.5120  -33.6300   24.0280 N   0  0  0  0  0  0  0  0  0  0  0  0
  -25.7790  -34.7440   23.3330 C   0  0  0  0  0  0  0  0  0  0  0  0
  -26.4120  -34.7360   22.2740 O   0  0  0  0  0  0  0  0  0  0  0  0
  -24.9430  -33.7080   24.8580 H   0  0  0  0  0  0  0  0  0  0  0  0
  -23.9830  -36.4970   23.1630 C   0  0  0  0  0  1  0  0  0  0  0  0
  -25.2630  -36.0790   23.9030 C   0  0  0  0  0  3  0  0  0  0  0  0
  -27.3900  -36.9810   24.7360 C   0  0  0  0  0  1  0  0  0  0  0  0
  -26.2560  -37.1730   23.8340 N   0  0  0  0  0  0  0  0  0  0  0  0
  -25.8250  -38.0650   24.0550 H   0  0  0  0  0  0  0  0  0  0  0  0
  -30.9170  -16.9010   20.4280 C   0  0  0  0  0  2  0  0  0  0  0  0
  -30.8350  -14.4580   19.7430 C   0  0  0  0  0  0  0  0  0  0  0  0
  -30.4140  -12.2240   18.7490 C   0  0  0  0  0  2  0  0  0  0  0  0
  -29.3840  -12.3430   17.6090 C   0  0  0  0  0  2  0  0  0  0  0  0
  -27.9500  -12.2310   18.1640 C   0  0  0  0  0  2  0  0  0  0  0  0
  -27.7130  -13.1440   19.3970 C   0  0  0  0  0  3  0  0  0  0  0  0
  -28.8580  -13.0230   20.4280 C   0  0  0  0  0  2  0  0  0  0  0  0
  -30.1190  -13.2920   19.7250 N   0  0  0  0  0  0  0  0  0  0  0  0
  -31.9610  -14.5180   19.2430 O   0  0  0  0  0  0  0  0  0  0  0  0
  -30.2250  -15.5930   20.1950 N   0  0  0  0  0  0  0  0  0  0  0  0
  -29.2770  -15.5050   20.5230 H   0  0  0  0  0  0  0  0  0  0  0  0
  -25.4350  -13.8120   20.3790 C   0  0  0  0  0  0  0  0  0  0  0  0
  -24.3710  -13.0700   20.8140 C   0  0  0  0  0  0  0  0  0  0  0  0
  -24.7570  -11.7020   20.6720 C   0  0  0  0  0  0  0  0  0  0  0  0
  -26.4050  -12.8980   20.0010 N   0  0  0  0  0  0  0  0  0  0  0  0
  -26.0090  -11.6200   20.2370 N   0  0  0  0  0  0  0  0  0  0  0  0
  -23.9870  -10.4670   20.8700 C   0  0  0  0  0  0  0  0  0  0  0  0
  -24.4110   -9.4690   21.7760 C   0  0  0  0  0  3  0  0  0  0  0  0
  -23.6430   -8.3000   21.9630 C   0  0  0  0  0  3  0  0  0  0  0  0
  -22.4370   -8.1190   21.2440 C   0  0  0  0  0  0  0  0  0  0  0  0
  -22.0320   -9.1050   20.3270 C   0  0  0  0  0  3  0  0  0  0  0  0
  -22.8000  -10.2660   20.1380 C   0  0  0  0  0  3  0  0  0  0  0  0
  -21.6400   -7.0040   21.3430 O   0  0  0  0  0  0  0  0  0  0  0  0
  -21.5590   -6.2780   22.5040 C   0  0  0  0  0  0  0  0  0  0  0  0
  -21.1010   -6.8500   23.7100 C   0  0  0  0  0  3  0  0  0  0  0  0
  -20.9670   -6.0500   24.8630 C   0  0  0  0  0  3  0  0  0  0  0  0
  -21.2810   -4.6800   24.8090 C   0  0  0  0  0  0  0  0  0  0  0  0
  -21.7310   -4.1060   23.6080 C   0  0  0  0  0  3  0  0  0  0  0  0
  -21.8660   -4.9020   22.4570 C   0  0  0  0  0  0  0  0  0  0  0  0
  -22.2800   -4.3410   21.2960 F   0  0  0  0  0  0  0  0  0  0  0  0
  -21.1440   -3.9090   25.9140 F   0  0  0  0  0  0  0  0  0  0  0  0
  -23.0320  -13.5970   21.2440 C   0  0  0  0  0  0  0  0  0  0  0  0
  -22.3610  -12.8970   22.1510 N   0  0  0  0  0  0  0  0  0  0  0  0
  -22.5950  -14.6620   20.8110 O   0  0  0  0  0  0  0  0  0  0  0  0
  -22.7290  -12.0340   22.5220 H   0  0  0  0  0  0  0  0  0  0  0  0
  -21.4660  -13.2310   22.4810 H   0  0  0  0  0  0  0  0  0  0  0  0
  -25.6520  -15.1800   20.2510 N   0  0  0  0  0  0  0  0  0  0  0  0
  -24.9270  -15.8600   20.4560 H   0  0  0  0  0  0  0  0  0  0  0  0
  -26.4700  -15.5930   19.8230 H   0  0  0  0  0  0  0  0  0  0  0  0
  1  4  2  0
  1  2  1  0
  2  5  2  0
  3  6  2  0
  4  3  1  0
  5  6  1  0
  5 53  1  0
  6  7  1  0
  8  4  1  0
  8  9  1  0
  9 10  2  0
 11 12  1  0
 11  9  1  0
 13 24  2  0
 14 12  1  0
 14 19  1  0
 15 23  1  0
 15 25  1  0
 16 22  1  0
 16 18  1  0
 17 23  1  0
 18 17  1  0
 19 18  2  0
 20 21  1  0
 20 14  2  0
 21 16  2  0
 22 15  1  0
 23 13  1  0
 25 27  2  0
 26 25  1  0
 28 26  1  0
 29 38  2  0
 29 34  1  0
 30 26  1  0
 30 34  1  0
 31 30  1  0
 32 33  1  0
 32 31  1  0
 33 29  1  0
 34 35  2  0
 35 36  1  0
 37 36  2  0
 38 37  1  0
 39 13  1  0
 39 44  1  0
 39 40  1  0
 40 43  1  1
 40 41  1  0
 42 40  1  0
 44 47  1  0
 45 49  1  0
 45 44  1  0
 46 45  2  0
 49 48  1  0
 51 49  1  0
 51 52  1  0
 51 50  1  0
 54 62  1  0
 55 60  1  0
 56 57  1  0
 56 55  1  0
 58 57  1  0
 58 67  1  0
 58 59  1  0
 60 54  1  0
 60 59  1  0
 61 54  2  0
 62 53  1  0
 62 63  1  0
 64 65  2  0
 65 84  1  0
 66 65  1  0
 66 69  1  0
 67 68  1  0
 67 64  1  0
 68 66  2  0
 69 70  1  0
 70 71  2  0
 72 75  1  0
 72 71  1  0
 73 72  2  0
 74 73  1  0
 74 69  2  0
 75 76  1  0
 76 77  1  0
 77 78  2  0
 79 78  1  0
 79 83  1  0
 80 79  2  0
 81 76  2  0
 81 80  1  0
 82 81  1  0
 84 85  1  0
 85 88  1  0
 85 87  1  0
 86 84  2  0
 89 64  1  0
 89 90  1  0
 91 89  1  0
M  ISO  4  11 101  12 101  54 100  62 100
M  END
>  <TORSDO>  (65) 
F 20

>  <SCORE>  (65) 
-13.000

>  <name>  (65) 
65

>  <ligand_id>  (65) 
65

>  <original_smiles>  (65) 
[H]c1c([H])c([H])c2c(c1[H])C([H])([H])C([H])([H])C([H])([H])C2([H])N([H])C(=O)C1([H])N(C(=O)C([H])(N([H])C(=O)C([H])(N([H])C([H])([H])[H])C([H])([H])[H])C(C([H])([H])[H])(C([H])([H])[H])C([H])([H])[H])C([H])([H])c2c([H])c(OC([H])([H])C(=O)C([H])([H])c3c([H])c([H])c(C([H])([H])N([H])C(=O)N4C([H])([H])C([H])([H])C([H])([H])C([H])(n5nc(-c6c([H])c([H])c(Oc7c([H])c([H])c(F)c([H])c7F)c([H])c6[H])c(C(=O)N([H])[H])c5N([H])[H])C4([H])[H])c(C([H])([H])[H])c3[H])c([H])c([H])c2C1([H])[H]

>  <smiles>  (65) 
[H]c1c([H])c([H])c2c(c1[H])C([H])([H])C([H])([H])C([H])([H])C2([H])N([H])C(=O)C1([H])N(C(=O)C([H])(N([H])C(=O)C([H])(N([H])C([H])([H])[H])C([H])([H])[H])C(C([H])([H])[H])(C([H])([H])[H])C([H])([H])[H])C([H])([H])c2c([H])c(OC([H])([H])C(=O)C([H])([H])c3c([H])c([H])c(C([H])([H])N([H])C(=O)N4C([H])([H])C([H])([H])C([H])([H])C([H])(n5nc(-c6c([H])c([H])c(Oc7c([H])c([H])c(F)c([H])c7F)c([H])c6[H])c(C(=O)N([H])[H])c5N([H])[H])C4([H])[H])c(C([H])([H])[H])c3[H])c([H])c([H])c2C1([H])[H]

$$$$
66:0:0
     RDKit          3D

 95103  0  0  1  0  0  0  0  0999 V2000
  -32.1330  -19.8590   19.5920 C   0  0  0  0  0  2  0  0  0  0  0  0
  -32.2320  -20.0220   21.1100 C   0  0  0  0  0  2  0  0  0  0  0  0
  -31.2000  -18.6670   19.3490 C   0  0  0  0  0  2  0  0  0  0  0  0
  -31.2950  -18.9620   21.7150 C   0  0  0  0  0  3  0  0  0  0  0  0
  -30.2910  -18.5290   20.5980 C   0  0  2  0  0  0  0  0  0  0  0  0
  -30.8640  -14.7780   20.0640 C   0  0  0  0  0  0  0  0  0  0  0  0
  -30.5250  -12.5820   18.9330 C   0  0  0  0  0  2  0  0  0  0  0  0
  -29.5220  -12.7420   17.7740 C   0  0  0  0  0  2  0  0  0  0  0  0
  -28.0790  -12.5710   18.2870 C   0  0  0  0  0  2  0  0  0  0  0  0
  -27.7950  -13.3830   19.5790 C   0  0  0  0  0  3  0  0  0  0  0  0
  -28.9210  -13.2370   20.6210 C   0  0  0  0  0  2  0  0  0  0  0  0
  -30.1710  -13.5980   19.9470 N   0  0  0  0  0  0  0  0  0  0  0  0
  -32.0560  -14.8040   19.7550 O   0  0  0  0  0  0  0  0  0  0  0  0
  -29.9410  -16.9580   20.8520 C   0  0  0  0  0  0  0  0  0  0  0  0
  -30.1760  -15.9700   19.9220 N   0  0  0  0  0  0  0  0  0  0  0  0
  -29.4850  -16.6600   21.9590 O   0  0  0  0  0  0  0  0  0  0  0  0
  -30.5020  -16.4200   19.0820 H   0  0  0  0  0  0  0  0  0  0  0  0
  -25.4600  -13.9380   20.4760 C   0  0  0  0  0  0  0  0  0  0  0  0
  -24.4180  -13.1500   20.8810 C   0  0  0  0  0  0  0  0  0  0  0  0
  -24.8780  -11.8010   20.7720 C   0  0  0  0  0  0  0  0  0  0  0  0
  -26.4860  -13.0710   20.1440 N   0  0  0  0  0  0  0  0  0  0  0  0
  -26.1480  -11.7780   20.3850 N   0  0  0  0  0  0  0  0  0  0  0  0
  -24.1620  -10.5320   20.9610 C   0  0  0  0  0  0  0  0  0  0  0  0
  -24.5930   -9.5760   21.9070 C   0  0  0  0  0  3  0  0  0  0  0  0
  -23.8790   -8.3720   22.0830 C   0  0  0  0  0  3  0  0  0  0  0  0
  -22.7210   -8.1140   21.3120 C   0  0  0  0  0  0  0  0  0  0  0  0
  -22.3100   -9.0590   20.3530 C   0  0  0  0  0  3  0  0  0  0  0  0
  -23.0240  -10.2550   20.1760 C   0  0  0  0  0  3  0  0  0  0  0  0
  -21.9790   -6.9610   21.3950 O   0  0  0  0  0  0  0  0  0  0  0  0
  -21.8470   -6.2740   22.5750 C   0  0  0  0  0  0  0  0  0  0  0  0
  -21.2720   -6.8660   23.7210 C   0  0  0  0  0  3  0  0  0  0  0  0
  -21.0920   -6.1030   24.8920 C   0  0  0  0  0  3  0  0  0  0  0  0
  -21.4730   -4.7480   24.9160 C   0  0  0  0  0  0  0  0  0  0  0  0
  -22.0410   -4.1550   23.7740 C   0  0  0  0  0  3  0  0  0  0  0  0
  -22.2230   -4.9160   22.6060 C   0  0  0  0  0  0  0  0  0  0  0  0
  -22.7500   -4.3340   21.5010 F   0  0  0  0  0  0  0  0  0  0  0  0
  -21.2930   -4.0120   26.0370 F   0  0  0  0  0  0  0  0  0  0  0  0
  -23.0400  -13.6150   21.2490 C   0  0  0  0  0  0  0  0  0  0  0  0
  -22.3600  -12.8830   22.1260 N   0  0  0  0  0  0  0  0  0  0  0  0
  -22.5750  -14.6590   20.7950 O   0  0  0  0  0  0  0  0  0  0  0  0
  -22.7540  -12.0420   22.5210 H   0  0  0  0  0  0  0  0  0  0  0  0
  -21.4330  -13.1710   22.4080 H   0  0  0  0  0  0  0  0  0  0  0  0
  -25.6130  -15.3140   20.3370 N   0  0  0  0  0  0  0  0  0  0  0  0
  -24.8550  -15.9630   20.5180 H   0  0  0  0  0  0  0  0  0  0  0  0
  -26.4560  -15.7680   20.0070 H   0  0  0  0  0  0  0  0  0  0  0  0
  -30.6890  -19.3840   22.9940 N   0  0  0  0  0  4  0  0  0  0  0  0
  -30.0740  -20.1670   22.8530 H   0  0  0  0  0  0  0  0  0  0  0  0
  -31.4040  -19.6500   23.6490 H   0  0  0  0  0  0  0  0  0  0  0  0
  -30.1580  -18.6330   23.4010 H   0  0  0  0  0  0  0  0  0  0  0  0
  -29.0450  -19.5800   20.4540 C   0  0  0  0  0  2  0  0  0  0  0  0
  -28.8920  -21.1240   20.9920 C   0  0  0  0  0  2  0  0  0  0  0  0
  -29.4990  -22.4540   20.3130 C   0  0  0  0  0  2  0  0  0  0  0  0
  -28.6250  -23.8110   20.0820 C   0  0  0  0  0  2  0  0  0  0  0  0
  -28.6640  -25.1050   21.0450 C   0  0  0  0  0  2  0  0  0  0  0  0
  -28.6830  -26.5120   20.5280 O   0  0  0  0  0  0  0  0  0  0  0  0
  -24.5920  -31.8590   23.2510 C   0  0  0  0  0  0  0  0  0  0  0  0
  -27.5210  -27.3010   20.4750 C   0  0  0  0  0  0  0  0  0  0  0  0
  -23.5330  -30.3880   21.5740 C   0  0  0  0  0  3  0  0  0  0  0  0
  -25.1130  -28.8430   20.2790 C   0  0  0  0  0  0  0  0  0  0  0  0
  -26.0660  -30.7840   21.5270 C   0  0  0  0  0  2  0  0  0  0  0  0
  -26.2290  -29.3880   20.9280 C   0  0  0  0  0  0  0  0  0  0  0  0
  -27.4390  -28.6310   21.0060 C   0  0  0  0  0  3  0  0  0  0  0  0
  -26.3800  -26.8040   19.8130 C   0  0  0  0  0  3  0  0  0  0  0  0
  -25.1930  -27.5600   19.7100 C   0  0  0  0  0  3  0  0  0  0  0  0
  -23.8500  -29.6830   20.2270 C   0  0  0  0  0  2  0  0  0  0  0  0
  -24.7470  -31.0280   22.1780 N   0  0  0  0  0  0  0  0  0  0  0  0
  -23.4700  -32.1120   23.7140 O   0  0  0  0  0  0  0  0  0  0  0  0
  -22.8430  -29.3750   22.5190 C   0  0  0  0  0  0  0  0  0  0  0  0
  -21.5250  -29.1830   22.3400 N   0  0  0  0  0  0  0  0  0  0  0  0
  -23.4950  -28.7650   23.3700 O   0  0  0  0  0  0  0  0  0  0  0  0
  -21.0600  -29.7240   21.6240 H   0  0  0  0  0  0  0  0  0  0  0  0
  -18.1310  -28.0030   22.7620 C   0  0  0  0  0  0  0  0  0  0  0  0
  -20.6860  -28.2420   23.0830 C   0  0  0  0  0  3  0  0  0  0  0  0
  -20.7900  -26.8170   22.4920 C   0  0  0  0  0  2  0  0  0  0  0  0
  -19.7060  -26.5140   21.4540 C   0  0  0  0  0  2  0  0  0  0  0  0
  -18.3120  -26.6600   22.0730 C   0  0  0  0  0  2  0  0  0  0  0  0
  -19.2460  -28.7530   23.2230 C   0  0  0  0  0  0  0  0  0  0  0  0
  -19.0250  -30.0090   23.8270 C   0  0  0  0  0  3  0  0  0  0  0  0
  -17.7210  -30.5170   23.9740 C   0  0  0  0  0  3  0  0  0  0  0  0
  -16.6190  -29.7640   23.5300 C   0  0  0  0  0  3  0  0  0  0  0  0
  -16.8260  -28.5080   22.9310 C   0  0  0  0  0  3  0  0  0  0  0  0
  -25.8130  -32.5470   23.9360 C   0  0  0  0  0  3  0  0  0  0  0  0
  -25.4400  -33.9390   24.2210 N   0  0  0  0  0  0  0  0  0  0  0  0
  -25.7810  -34.9910   23.4610 C   0  0  0  0  0  0  0  0  0  0  0  0
  -26.5100  -34.8900   22.4710 O   0  0  0  0  0  0  0  0  0  0  0  0
  -24.7970  -34.0900   24.9850 H   0  0  0  0  0  0  0  0  0  0  0  0
  -24.0240  -36.7220   22.9710 C   0  0  0  0  0  1  0  0  0  0  0  0
  -25.2240  -36.3700   23.8640 C   0  0  0  0  0  3  0  0  0  0  0  0
  -27.2720  -37.3370   24.8120 C   0  0  0  0  0  1  0  0  0  0  0  0
  -26.2310  -37.4520   23.7950 N   0  0  0  0  0  0  0  0  0  0  0  0
  -25.7890  -38.3620   23.8930 H   0  0  0  0  0  0  0  0  0  0  0  0
  -26.2740  -31.8160   25.2580 C   0  0  1  0  0  0  0  0  0  0  0  0
  -25.1240  -31.5550   26.2570 C   0  0  0  0  0  1  0  0  0  0  0  0
  -26.9300  -30.4560   24.9260 C   0  0  0  0  0  1  0  0  0  0  0  0
  -27.3530  -32.6600   25.9750 C   0  0  0  0  0  1  0  0  0  0  0  0
  1  2  1  0
  2  4  1  0
  3  1  1  0
  3  5  1  0
  4 46  1  0
  5 50  1  6
  5 14  1  0
  5  4  1  0
  7 12  1  0
  8  9  1  0
  8  7  1  0
 10  9  1  0
 10 21  1  0
 10 11  1  0
 12  6  1  0
 12 11  1  0
 13  6  2  0
 14 16  2  0
 15  6  1  0
 15 14  1  0
 17 15  1  0
 18 19  2  0
 19 38  1  0
 20 19  1  0
 20 23  1  0
 21 22  1  0
 21 18  1  0
 22 20  2  0
 23 24  1  0
 24 25  2  0
 26 29  1  0
 26 25  1  0
 27 26  2  0
 28 27  1  0
 28 23  2  0
 29 30  1  0
 30 35  2  0
 30 31  1  0
 31 32  2  0
 32 33  1  0
 33 37  1  0
 34 33  2  0
 35 34  1  0
 36 35  1  0
 38 39  1  0
 39 42  1  0
 39 41  1  0
 40 38  2  0
 43 18  1  0
 43 44  1  0
 45 43  1  0
 46 49  1  0
 46 48  1  0
 47 46  1  0
 50 51  1  0
 52 51  1  0
 53 52  1  0
 53 54  1  0
 55 54  1  0
 56 67  2  0
 57 55  1  0
 57 62  1  0
 58 66  1  0
 58 68  1  0
 59 61  1  0
 60 66  1  0
 61 62  2  0
 61 60  1  0
 63 57  2  0
 64 63  1  0
 64 59  2  0
 65 59  1  0
 65 58  1  0
 66 56  1  0
 68 70  2  0
 69 68  1  0
 71 69  1  0
 72 81  2  0
 72 77  1  0
 73 69  1  0
 73 77  1  0
 74 73  1  0
 75 76  1  0
 75 74  1  0
 76 72  1  0
 77 78  2  0
 78 79  1  0
 80 79  2  0
 81 80  1  0
 82 56  1  0
 82 83  1  0
 82 92  1  0
 83 86  1  0
 84 88  1  0
 84 83  1  0
 85 84  2  0
 88 87  1  0
 90 88  1  0
 90 91  1  0
 90 89  1  0
 92 95  1  1
 92 93  1  0
 94 92  1  0
M  ISO  4   6 100  15 100  54 101  55 101
M  END
>  <TORSDO>  (66) 
F 22

>  <SCORE>  (66) 
-13.374

>  <name>  (66) 
66

>  <ligand_id>  (66) 
66

>  <original_smiles>  (66) 
[H]c1c([H])c([H])c2c(c1[H])C([H])([H])C([H])([H])C([H])([H])C2([H])N([H])C(=O)C1([H])N(C(=O)C([H])(N([H])C(=O)C([H])(N([H])C([H])([H])[H])C([H])([H])[H])C(C([H])([H])[H])(C([H])([H])[H])C([H])([H])[H])C([H])([H])c2c([H])c(OC([H])([H])C([H])([H])C([H])([H])C([H])([H])C([H])([H])C3(C(=O)N([H])C(=O)N4C([H])([H])C([H])([H])C([H])([H])C([H])(n5nc(-c6c([H])c([H])c(Oc7c([H])c([H])c(F)c([H])c7F)c([H])c6[H])c(C(=O)N([H])[H])c5N([H])[H])C4([H])[H])C([H])([H])C([H])([H])C([H])([H])C3([H])[N+]([H])([H])[H])c([H])c([H])c2C1([H])[H]

>  <smiles>  (66) 
[H]c1c([H])c([H])c2c(c1[H])C([H])([H])C([H])([H])C([H])([H])C2([H])N([H])C(=O)C1([H])N(C(=O)C([H])(N([H])C(=O)C([H])(N([H])C([H])([H])[H])C([H])([H])[H])C(C([H])([H])[H])(C([H])([H])[H])C([H])([H])[H])C([H])([H])c2c([H])c(OC([H])([H])C([H])([H])C([H])([H])C([H])([H])C([H])([H])C3(C(=O)N([H])C(=O)N4C([H])([H])C([H])([H])C([H])([H])C([H])(n5nc(-c6c([H])c([H])c(Oc7c([H])c([H])c(F)c([H])c7F)c([H])c6[H])c(C(=O)N([H])[H])c5N([H])[H])C4([H])[H])C([H])([H])C([H])([H])C([H])([H])C3([H])[N+]([H])([H])[H])c([H])c([H])c2C1([H])[H]

$$$$
67:0:0
     RDKit          3D

 91100  0  0  1  0  0  0  0  0999 V2000
  -30.8320  -20.8270   20.4910 C   0  0  0  0  0  2  0  0  0  0  0  0
  -30.6520  -22.3740   20.3770 C   0  0  0  0  0  2  0  0  0  0  0  0
  -28.5780  -20.6870   21.5440 C   0  0  0  0  0  2  0  0  0  0  0  0
  -28.8740  -21.3030   19.2890 C   0  0  0  0  0  2  0  0  0  0  0  0
  -28.3770  -22.2350   21.4080 C   0  0  0  0  0  3  0  0  0  0  0  0
  -29.4130  -20.2490   20.3170 C   0  0  1  0  0  0  0  0  0  0  0  0
  -29.1430  -22.6130   20.1080 C   0  0  1  0  0  0  0  0  0  0  0  0
  -26.8800  -22.6010   21.4050 C   0  0  0  0  0  1  0  0  0  0  0  0
  -29.3060  -18.6690   19.9560 C   0  0  0  0  0  3  0  0  0  0  0  0
  -30.2060  -17.5450   20.6800 C   0  0  0  0  0  3  0  0  0  0  0  0
  -30.6600  -14.9890   20.1580 C   0  0  0  0  0  0  0  0  0  0  0  0
  -30.4480  -12.7570   19.0610 C   0  0  0  0  0  2  0  0  0  0  0  0
  -29.4470  -12.8670   17.8910 C   0  0  0  0  0  2  0  0  0  0  0  0
  -28.0010  -12.6600   18.3870 C   0  0  0  0  0  2  0  0  0  0  0  0
  -27.6790  -13.5000   19.6520 C   0  0  0  0  0  3  0  0  0  0  0  0
  -28.7900  -13.3720   20.7150 C   0  0  0  0  0  2  0  0  0  0  0  0
  -30.0530  -13.7600   20.0730 N   0  0  0  0  0  0  0  0  0  0  0  0
  -31.8260  -15.1390   19.7840 O   0  0  0  0  0  0  0  0  0  0  0  0
  -29.8650  -16.0720   20.4850 N   0  0  0  0  0  0  0  0  0  0  0  0
  -28.9130  -15.8230   20.7060 H   0  0  0  0  0  0  0  0  0  0  0  0
  -25.3170  -14.0370   20.5000 C   0  0  0  0  0  0  0  0  0  0  0  0
  -24.2820  -13.2350   20.8990 C   0  0  0  0  0  0  0  0  0  0  0  0
  -24.7640  -11.8940   20.8130 C   0  0  0  0  0  0  0  0  0  0  0  0
  -26.3620  -13.1790   20.1940 N   0  0  0  0  0  0  0  0  0  0  0  0
  -26.0390  -11.8850   20.4440 N   0  0  0  0  0  0  0  0  0  0  0  0
  -24.0670  -10.6150   21.0030 C   0  0  0  0  0  0  0  0  0  0  0  0
  -24.5330   -9.6480   21.9200 C   0  0  0  0  0  3  0  0  0  0  0  0
  -23.8350   -8.4350   22.0990 C   0  0  0  0  0  3  0  0  0  0  0  0
  -22.6560   -8.1790   21.3590 C   0  0  0  0  0  0  0  0  0  0  0  0
  -22.2080   -9.1360   20.4300 C   0  0  0  0  0  3  0  0  0  0  0  0
  -22.9090  -10.3400   20.2510 C   0  0  0  0  0  3  0  0  0  0  0  0
  -21.9270   -7.0190   21.4480 O   0  0  0  0  0  0  0  0  0  0  0  0
  -21.8880   -6.2790   22.6020 C   0  0  0  0  0  0  0  0  0  0  0  0
  -21.4250   -6.8250   23.8200 C   0  0  0  0  0  3  0  0  0  0  0  0
  -21.3340   -6.0100   24.9670 C   0  0  0  0  0  3  0  0  0  0  0  0
  -21.6970   -4.6510   24.8970 C   0  0  0  0  0  0  0  0  0  0  0  0
  -22.1530   -4.1060   23.6850 C   0  0  0  0  0  3  0  0  0  0  0  0
  -22.2440   -4.9170   22.5400 C   0  0  0  0  0  0  0  0  0  0  0  0
  -22.6640   -4.3820   21.3680 F   0  0  0  0  0  0  0  0  0  0  0  0
  -21.6030   -3.8670   25.9960 F   0  0  0  0  0  0  0  0  0  0  0  0
  -22.8910  -13.6830   21.2460 C   0  0  0  0  0  0  0  0  0  0  0  0
  -22.2140  -12.9540   22.1260 N   0  0  0  0  0  0  0  0  0  0  0  0
  -22.4150  -14.7140   20.7730 O   0  0  0  0  0  0  0  0  0  0  0  0
  -22.6140  -12.1200   22.5300 H   0  0  0  0  0  0  0  0  0  0  0  0
  -21.2840  -13.2350   22.4000 H   0  0  0  0  0  0  0  0  0  0  0  0
  -25.4500  -15.4130   20.3490 N   0  0  0  0  0  0  0  0  0  0  0  0
  -24.6710  -16.0450   20.5000 H   0  0  0  0  0  0  0  0  0  0  0  0
  -26.2600  -15.8750   19.9580 H   0  0  0  0  0  0  0  0  0  0  0  0
  -28.8210  -24.0600   19.4290 C   0  0  0  0  0  3  0  0  0  0  0  0
  -28.7280  -25.4210   20.2860 C   0  0  0  0  0  3  0  0  0  0  0  0
  -28.6480  -26.7700   19.6540 O   0  0  0  0  0  0  0  0  0  0  0  0
  -24.6440  -31.7850   23.0290 C   0  0  0  0  0  0  0  0  0  0  0  0
  -27.4700  -27.5290   19.7340 C   0  0  0  0  0  0  0  0  0  0  0  0
  -23.4980  -30.3990   21.3340 C   0  0  0  0  0  3  0  0  0  0  0  0
  -25.0150  -28.9970   19.8230 C   0  0  0  0  0  0  0  0  0  0  0  0
  -26.0110  -30.8740   21.1340 C   0  0  0  0  0  2  0  0  0  0  0  0
  -26.1620  -29.5310   20.4240 C   0  0  0  0  0  0  0  0  0  0  0  0
  -27.3940  -28.8130   20.3620 C   0  0  0  0  0  3  0  0  0  0  0  0
  -26.2990  -27.0370   19.1250 C   0  0  0  0  0  3  0  0  0  0  0  0
  -25.0860  -27.7560   19.1640 C   0  0  0  0  0  3  0  0  0  0  0  0
  -23.7310  -29.7980   19.9230 C   0  0  0  0  0  2  0  0  0  0  0  0
  -24.7370  -31.0360   21.8900 N   0  0  0  0  0  0  0  0  0  0  0  0
  -23.5540  -31.9720   23.5890 O   0  0  0  0  0  0  0  0  0  0  0  0
  -22.9070  -29.3030   22.2540 C   0  0  0  0  0  0  0  0  0  0  0  0
  -21.5890  -29.0660   22.1420 N   0  0  0  0  0  0  0  0  0  0  0  0
  -23.6330  -28.6710   23.0250 O   0  0  0  0  0  0  0  0  0  0  0  0
  -21.0600  -29.6310   21.4940 H   0  0  0  0  0  0  0  0  0  0  0  0
  -18.2840  -27.6890   22.6550 C   0  0  0  0  0  0  0  0  0  0  0  0
  -20.8350  -28.0490   22.8770 C   0  0  0  0  0  3  0  0  0  0  0  0
  -20.9850  -26.6600   22.2150 C   0  0  0  0  0  2  0  0  0  0  0  0
  -19.8710  -26.3470   21.2110 C   0  0  0  0  0  2  0  0  0  0  0  0
  -18.5010  -26.3910   21.8950 C   0  0  0  0  0  2  0  0  0  0  0  0
  -19.3790  -28.4760   23.1010 C   0  0  0  0  0  0  0  0  0  0  0  0
  -19.1200  -29.6900   23.7730 C   0  0  0  0  0  3  0  0  0  0  0  0
  -17.7990  -30.1200   24.0020 C   0  0  0  0  0  3  0  0  0  0  0  0
  -16.7190  -29.3310   23.5700 C   0  0  0  0  0  3  0  0  0  0  0  0
  -16.9620  -28.1160   22.9030 C   0  0  0  0  0  3  0  0  0  0  0  0
  -25.8960  -32.4590   23.6670 C   0  0  0  0  0  3  0  0  0  0  0  0
  -26.4560  -31.6730   24.9160 C   0  0  1  0  0  0  0  0  0  0  0  0
  -25.3820  -31.3540   25.9830 C   0  0  0  0  0  1  0  0  0  0  0  0
  -27.0960  -30.3350   24.4780 C   0  0  0  0  0  1  0  0  0  0  0  0
  -27.5740  -32.4970   25.5960 C   0  0  0  0  0  1  0  0  0  0  0  0
  -25.5190  -33.8280   24.0460 N   0  0  0  0  0  0  0  0  0  0  0  0
  -25.8050  -34.9230   23.3290 C   0  0  0  0  0  0  0  0  0  0  0  0
  -26.4830  -34.8900   22.2980 O   0  0  0  0  0  0  0  0  0  0  0  0
  -24.9150  -33.9250   24.8490 H   0  0  0  0  0  0  0  0  0  0  0  0
  -23.9940  -36.6450   23.0380 C   0  0  0  0  0  1  0  0  0  0  0  0
  -25.2540  -36.2700   23.8350 C   0  0  0  0  0  3  0  0  0  0  0  0
  -27.3440  -37.2260   24.7000 C   0  0  0  0  0  1  0  0  0  0  0  0
  -26.2350  -37.3740   23.7610 N   0  0  0  0  0  0  0  0  0  0  0  0
  -25.7860  -38.2680   23.9410 H   0  0  0  0  0  0  0  0  0  0  0  0
  2  1  1  0
  4  7  1  0
  4  6  1  0
  5  8  1  0
  5  3  1  0
  6  9  1  6
  6  1  1  0
  6  3  1  0
  7 49  1  6
  7  2  1  0
  7  5  1  0
  9 10  2  0
 11 19  1  0
 12 17  1  0
 13 14  1  0
 13 12  1  0
 15 14  1  0
 15 24  1  0
 15 16  1  0
 17 11  1  0
 17 16  1  0
 18 11  2  0
 19 10  1  0
 19 20  1  0
 21 22  2  0
 22 41  1  0
 23 22  1  0
 23 26  1  0
 24 25  1  0
 24 21  1  0
 25 23  2  0
 26 27  1  0
 27 28  2  0
 29 32  1  0
 29 28  1  0
 30 29  2  0
 31 30  1  0
 31 26  2  0
 32 33  1  0
 33 34  1  0
 34 35  2  0
 36 35  1  0
 36 40  1  0
 37 36  2  0
 38 33  2  0
 38 37  1  0
 39 38  1  0
 41 42  1  0
 42 45  1  0
 42 44  1  0
 43 41  2  0
 46 21  1  0
 46 47  1  0
 48 46  1  0
 49 50  2  0
 51 53  1  0
 51 50  1  0
 52 63  2  0
 53 58  1  0
 54 62  1  0
 54 64  1  0
 55 61  1  0
 55 57  1  0
 56 62  1  0
 57 56  1  0
 58 57  2  0
 59 60  1  0
 59 53  2  0
 60 55  2  0
 61 54  1  0
 62 52  1  0
 64 66  2  0
 65 64  1  0
 67 65  1  0
 68 77  2  0
 68 73  1  0
 69 65  1  0
 69 73  1  0
 70 69  1  0
 71 72  1  0
 71 70  1  0
 72 68  1  0
 73 74  2  0
 74 75  1  0
 76 75  2  0
 77 76  1  0
 78 52  1  0
 78 83  1  0
 78 79  1  0
 79 82  1  1
 79 80  1  0
 81 79  1  0
 83 86  1  0
 84 88  1  0
 84 83  1  0
 85 84  2  0
 88 87  1  0
 90 88  1  0
 90 91  1  0
 90 89  1  0
M  ISO  4  11 100  19 100  50 101  51 101
M  END
>  <TORSDO>  (67) 
F 20

>  <SCORE>  (67) 
-12.820

>  <name>  (67) 
67

>  <ligand_id>  (67) 
67

>  <original_smiles>  (67) 
[H]c1c([H])c([H])c2c(c1[H])C([H])([H])C([H])([H])C([H])([H])C2([H])N([H])C(=O)C1([H])N(C(=O)C([H])(N([H])C(=O)C([H])(N([H])C([H])([H])[H])C([H])([H])[H])C(C([H])([H])[H])(C([H])([H])[H])C([H])([H])[H])C([H])([H])c2c([H])c(OC([H])([H])C([H])([H])C34C([H])([H])C([H])([H])C(C([H])([H])C([H])([H])N([H])C(=O)N5C([H])([H])C([H])([H])C([H])([H])C([H])(n6nc(-c7c([H])c([H])c(Oc8c([H])c([H])c(F)c([H])c8F)c([H])c7[H])c(C(=O)N([H])[H])c6N([H])[H])C5([H])[H])(C([H])([H])C3([H])C([H])([H])[H])C4([H])[H])c([H])c([H])c2C1([H])[H]

>  <smiles>  (67) 
[H]c1c([H])c([H])c2c(c1[H])C([H])([H])C([H])([H])C([H])([H])C2([H])N([H])C(=O)C1([H])N(C(=O)C([H])(N([H])C(=O)C([H])(N([H])C([H])([H])[H])C([H])([H])[H])C(C([H])([H])[H])(C([H])([H])[H])C([H])([H])[H])C([H])([H])c2c([H])c(OC([H])([H])C([H])([H])C34C([H])([H])C([H])([H])C(C([H])([H])C([H])([H])N([H])C(=O)N5C([H])([H])C([H])([H])C([H])([H])C([H])(n6nc(-c7c([H])c([H])c(Oc8c([H])c([H])c(F)c([H])c8F)c([H])c7[H])c(C(=O)N([H])[H])c6N([H])[H])C5([H])[H])(C([H])([H])C3([H])C([H])([H])[H])C4([H])[H])c([H])c([H])c2C1([H])[H]

$$$$
68:0:0
     RDKit          3D

 91100  0  0  1  0  0  0  0  0999 V2000
  -28.9750  -22.7590   19.8540 C   0  0  0  0  0  0  0  0  0  0  0  0
  -28.9100  -21.2970   20.1670 N   0  0  0  0  0  4  0  0  0  0  0  0
  -29.7360  -23.0660   18.9360 O   0  0  0  0  0  0  0  0  0  0  0  0
  -28.3420  -21.1860   20.9990 H   0  0  0  0  0  0  0  0  0  0  0  0
  -28.1010  -24.1450   20.5240 C   0  0  0  0  0  2  0  0  0  0  0  0
  -28.3420  -25.7810   20.3440 O   0  0  0  0  0  0  0  0  0  0  0  0
  -24.5200  -31.7140   23.1640 C   0  0  0  0  0  0  0  0  0  0  0  0
  -27.2980  -26.8570   20.2940 C   0  0  0  0  0  0  0  0  0  0  0  0
  -23.4160  -30.2730   21.5020 C   0  0  0  0  0  3  0  0  0  0  0  0
  -24.9530  -28.6880   20.1490 C   0  0  0  0  0  0  0  0  0  0  0  0
  -25.9840  -30.5440   21.4410 C   0  0  0  0  0  2  0  0  0  0  0  0
  -26.1110  -29.1280   20.8010 C   0  0  0  0  0  0  0  0  0  0  0  0
  -27.2800  -28.2360   20.8430 C   0  0  0  0  0  3  0  0  0  0  0  0
  -26.1010  -26.5680   19.5990 C   0  0  0  0  0  3  0  0  0  0  0  0
  -24.9730  -27.4280   19.5290 C   0  0  0  0  0  3  0  0  0  0  0  0
  -23.7070  -29.5760   20.1450 C   0  0  0  0  0  2  0  0  0  0  0  0
  -24.6590  -30.8730   22.0870 N   0  0  0  0  0  0  0  0  0  0  0  0
  -23.4080  -31.9820   23.6440 O   0  0  0  0  0  0  0  0  0  0  0  0
  -22.7150  -29.2700   22.4550 C   0  0  0  0  0  0  0  0  0  0  0  0
  -21.3900  -29.0860   22.3010 N   0  0  0  0  0  0  0  0  0  0  0  0
  -23.3700  -28.6550   23.3000 O   0  0  0  0  0  0  0  0  0  0  0  0
  -20.9140  -29.6310   21.5960 H   0  0  0  0  0  0  0  0  0  0  0  0
  -18.0150  -27.8340   22.7470 C   0  0  0  0  0  0  0  0  0  0  0  0
  -20.5660  -28.1390   23.0580 C   0  0  0  0  0  3  0  0  0  0  0  0
  -20.6970  -26.7080   22.4870 C   0  0  0  0  0  2  0  0  0  0  0  0
  -19.6210  -26.3690   21.4500 C   0  0  0  0  0  2  0  0  0  0  0  0
  -18.2240  -26.4910   22.0680 C   0  0  0  0  0  2  0  0  0  0  0  0
  -19.1130  -28.6140   23.1960 C   0  0  0  0  0  0  0  0  0  0  0  0
  -18.8620  -29.8690   23.7920 C   0  0  0  0  0  3  0  0  0  0  0  0
  -17.5460  -30.3450   23.9420 C   0  0  0  0  0  3  0  0  0  0  0  0
  -16.4620  -29.5610   23.5070 C   0  0  0  0  0  3  0  0  0  0  0  0
  -16.6970  -28.3070   22.9170 C   0  0  0  0  0  3  0  0  0  0  0  0
  -25.7530  -32.3940   23.8330 C   0  0  0  0  0  3  0  0  0  0  0  0
  -26.2350  -31.6550   25.1420 C   0  0  1  0  0  0  0  0  0  0  0  0
  -25.1030  -31.4020   26.1670 C   0  0  0  0  0  1  0  0  0  0  0  0
  -26.8700  -30.2860   24.8060 C   0  0  0  0  0  1  0  0  0  0  0  0
  -27.3360  -32.4900   25.8400 C   0  0  0  0  0  1  0  0  0  0  0  0
  -25.3860  -33.7870   24.1470 N   0  0  0  0  0  0  0  0  0  0  0  0
  -25.7110  -34.8530   23.4040 C   0  0  0  0  0  0  0  0  0  0  0  0
  -26.4100  -34.7690   22.3910 O   0  0  0  0  0  0  0  0  0  0  0  0
  -24.7670  -33.9260   24.9320 H   0  0  0  0  0  0  0  0  0  0  0  0
  -23.9400  -36.6010   23.0160 C   0  0  0  0  0  1  0  0  0  0  0  0
  -25.1770  -36.2290   23.8510 C   0  0  0  0  0  3  0  0  0  0  0  0
  -27.2690  -37.1750   24.7230 C   0  0  0  0  0  1  0  0  0  0  0  0
  -26.1810  -37.3130   23.7570 N   0  0  0  0  0  0  0  0  0  0  0  0
  -25.7460  -38.2200   23.8960 H   0  0  0  0  0  0  0  0  0  0  0  0
  -29.1800  -19.7640   19.4840 C   0  0  0  0  0  0  0  0  0  0  0  0
  -30.4950  -15.3260   19.5400 C   0  0  0  0  0  0  0  0  0  0  0  0
  -30.3240  -12.9050   18.5440 C   0  0  0  0  0  2  0  0  0  0  0  0
  -29.2590  -12.7700   17.4240 C   0  0  0  0  0  2  0  0  0  0  0  0
  -27.8500  -12.5220   17.9990 C   0  0  0  0  0  2  0  0  0  0  0  0
  -27.5790  -13.3760   19.2600 C   0  0  0  0  0  3  0  0  0  0  0  0
  -28.7680  -13.4090   20.2350 C   0  0  0  0  0  2  0  0  0  0  0  0
  -29.9090  -14.0090   19.5000 N   0  0  0  0  0  0  0  0  0  0  0  0
  -31.6320  -15.3220   19.0400 O   0  0  0  0  0  0  0  0  0  0  0  0
  -31.2930  -17.7250   22.3250 C   0  0  0  0  0  2  0  0  0  0  0  0
  -29.2320  -16.4950   21.2960 C   0  0  0  0  0  2  0  0  0  0  0  0
  -29.7970  -17.5350   22.2260 C   0  0  0  0  0  3  0  0  0  0  0  0
  -30.4510  -18.6050   21.4290 C   0  0  0  0  0  3  0  0  0  0  0  0
  -30.1370  -18.3010   19.9840 C   0  0  0  0  0  3  0  0  0  0  0  0
  -29.8270  -16.6220   19.9510 N   0  0  0  0  0  0  0  0  0  0  0  0
  -25.3670  -13.9150   20.4050 C   0  0  0  0  0  0  0  0  0  0  0  0
  -24.3420  -13.1350   20.8630 C   0  0  0  0  0  0  0  0  0  0  0  0
  -24.7480  -11.7810   20.6450 C   0  0  0  0  0  0  0  0  0  0  0  0
  -26.3260  -13.0410   19.9270 N   0  0  0  0  0  0  0  0  0  0  0  0
  -25.9760  -11.7450   20.1350 N   0  0  0  0  0  0  0  0  0  0  0  0
  -24.0060  -10.5280   20.8370 C   0  0  0  0  0  0  0  0  0  0  0  0
  -24.4950   -9.4940   21.6640 C   0  0  0  0  0  3  0  0  0  0  0  0
  -23.7490   -8.3080   21.8490 C   0  0  0  0  0  3  0  0  0  0  0  0
  -22.4990   -8.1490   21.2040 C   0  0  0  0  0  0  0  0  0  0  0  0
  -22.0280   -9.1710   20.3610 C   0  0  0  0  0  3  0  0  0  0  0  0
  -22.7750  -10.3480   20.1760 C   0  0  0  0  0  3  0  0  0  0  0  0
  -21.7170   -7.0230   21.3010 O   0  0  0  0  0  0  0  0  0  0  0  0
  -21.7130   -6.2440   22.4300 C   0  0  0  0  0  0  0  0  0  0  0  0
  -21.3850   -6.7740   23.6970 C   0  0  0  0  0  3  0  0  0  0  0  0
  -21.3250   -5.9250   24.8200 C   0  0  0  0  0  3  0  0  0  0  0  0
  -21.5840   -4.5480   24.6780 C   0  0  0  0  0  0  0  0  0  0  0  0
  -21.9090   -4.0200   23.4160 C   0  0  0  0  0  3  0  0  0  0  0  0
  -21.9710   -4.8650   22.2960 C   0  0  0  0  0  0  0  0  0  0  0  0
  -22.2630   -4.3480   21.0780 F   0  0  0  0  0  0  0  0  0  0  0  0
  -21.5210   -3.7320   25.7560 F   0  0  0  0  0  0  0  0  0  0  0  0
  -23.0200  -13.6220   21.3770 C   0  0  0  0  0  0  0  0  0  0  0  0
  -22.4120  -12.8850   22.2980 N   0  0  0  0  0  0  0  0  0  0  0  0
  -22.5430  -14.6910   20.9980 O   0  0  0  0  0  0  0  0  0  0  0  0
  -22.8240  -12.0230   22.6280 H   0  0  0  0  0  0  0  0  0  0  0  0
  -21.5270  -13.1850   22.6780 H   0  0  0  0  0  0  0  0  0  0  0  0
  -25.5560  -15.2930   20.3310 N   0  0  0  0  0  0  0  0  0  0  0  0
  -24.8470  -15.9550   20.6200 H   0  0  0  0  0  0  0  0  0  0  0  0
  -26.3540  -15.7370   19.8940 H   0  0  0  0  0  0  0  0  0  0  0  0
  -28.0680  -20.4170   17.2370 C   0  0  0  0  0  1  0  0  0  0  0  0
  -29.3330  -19.9130   17.9570 C   0  0  0  0  0  2  0  0  0  0  0  0
  1  2  1  0
  1  5  1  0
  2  4  1  0
  3  1  2  0
  6  5  1  0
  7 18  2  0
  8  6  1  0
  8 13  1  0
  9 17  1  0
  9 19  1  0
 10 12  1  0
 11 17  1  0
 12 13  2  0
 12 11  1  0
 14  8  2  0
 15 14  1  0
 15 10  2  0
 16 10  1  0
 16  9  1  0
 17  7  1  0
 19 21  2  0
 20 19  1  0
 22 20  1  0
 23 32  2  0
 23 28  1  0
 24 20  1  0
 24 28  1  0
 25 24  1  0
 26 27  1  0
 26 25  1  0
 27 23  1  0
 28 29  2  0
 29 30  1  0
 31 30  2  0
 32 31  1  0
 33  7  1  0
 33 38  1  0
 33 34  1  0
 34 37  1  1
 34 35  1  0
 36 34  1  0
 38 41  1  0
 39 43  1  0
 39 38  1  0
 40 39  2  0
 43 42  1  0
 45 43  1  0
 45 46  1  0
 45 44  1  0
 47  2  2  0
 48 61  1  0
 49 54  1  0
 50 51  1  0
 50 49  1  0
 52 51  1  0
 52 65  1  0
 52 53  1  0
 54 48  1  0
 54 53  1  0
 55 48  2  0
 58 57  1  0
 58 56  1  0
 59 58  1  0
 59 56  1  0
 60 47  1  0
 60 59  1  0
 61 60  1  0
 61 57  1  0
 62 63  2  0
 63 82  1  0
 64 67  1  0
 64 63  1  0
 65 66  1  0
 65 62  1  0
 66 64  2  0
 67 68  1  0
 68 69  2  0
 70 73  1  0
 70 69  1  0
 71 70  2  0
 72 71  1  0
 72 67  2  0
 73 74  1  0
 74 75  1  0
 75 76  2  0
 77 76  1  0
 77 81  1  0
 78 77  2  0
 79 74  2  0
 79 78  1  0
 80 79  1  0
 82 83  1  0
 83 85  1  0
 83 86  1  0
 84 82  2  0
 87 62  1  0
 87 88  1  0
 89 87  1  0
 90 91  1  0
 91 47  1  0
M  ISO  4   5 101   6 101  48 100  61 100
M  END
>  <TORSDO>  (68) 
F 19

>  <SCORE>  (68) 
-14.414

>  <name>  (68) 
68

>  <ligand_id>  (68) 
68

>  <original_smiles>  (68) 
[H]c1c([H])c([H])c2c(c1[H])C([H])([H])C([H])([H])C([H])([H])C2([H])N([H])C(=O)C1([H])N(C(=O)C([H])(N([H])C(=O)C([H])(N([H])C([H])([H])[H])C([H])([H])[H])C(C([H])([H])[H])(C([H])([H])[H])C([H])([H])[H])C([H])([H])c2c([H])c(OC([H])([H])C(=O)N([H])C([H])(C([H])([H])C([H])([H])[H])C3([H])N(C(=O)N4C([H])([H])C([H])([H])C([H])([H])C([H])(n5nc(-c6c([H])c([H])c(Oc7c([H])c([H])c(F)c([H])c7F)c([H])c6[H])c(C(=O)N([H])[H])c5N([H])[H])C4([H])[H])C([H])([H])C4([H])C([H])([H])C34[H])c([H])c([H])c2C1([H])[H]

>  <smiles>  (68) 
[H]c1c([H])c([H])c2c(c1[H])C([H])([H])C([H])([H])C([H])([H])C2([H])N([H])C(=O)C1([H])N(C(=O)C([H])(N([H])C(=O)C([H])(N([H])C([H])([H])[H])C([H])([H])[H])C(C([H])([H])[H])(C([H])([H])[H])C([H])([H])[H])C([H])([H])c2c([H])c(OC([H])([H])C(=O)N([H])C([H])(C([H])([H])C([H])([H])[H])C3([H])N(C(=O)N4C([H])([H])C([H])([H])C([H])([H])C([H])(n5nc(-c6c([H])c([H])c(Oc7c([H])c([H])c(F)c([H])c7F)c([H])c6[H])c(C(=O)N([H])[H])c5N([H])[H])C4([H])[H])C([H])([H])C4([H])C([H])([H])C34[H])c([H])c([H])c2C1([H])[H]

$$$$
69:0:0
     RDKit          3D

 90 99  0  0  1  0  0  0  0  0999 V2000
  -30.8400  -21.2130   19.8930 C   0  0  0  0  0  0  0  0  0  0  0  0
  -30.9170  -22.2300   18.7640 C   0  0  0  0  0  2  0  0  0  0  0  0
  -30.0080  -23.4150   19.1340 C   0  0  0  0  0  2  0  0  0  0  0  0
  -29.5170  -21.6320   22.0420 C   0  0  0  0  0  2  0  0  0  0  0  0
  -29.7890  -23.1120   21.7350 C   0  0  0  0  0  2  0  0  0  0  0  0
  -29.4830  -21.2710   20.5560 C   0  0  1  0  0  0  0  0  0  0  0  0
  -29.1300  -23.0330   20.3280 C   0  0  2  0  0  0  0  0  0  0  0  0
  -31.8300  -20.5420   20.1960 O   0  0  0  0  0  0  0  0  0  0  0  0
  -28.9870  -19.5910   20.2510 C   0  0  0  0  0  3  0  0  0  0  0  0
  -29.9730  -18.1090   20.4500 C   0  0  0  0  0  3  0  0  0  0  0  0
  -30.4040  -15.2430   20.2950 C   0  0  0  0  0  0  0  0  0  0  0  0
  -30.3650  -12.8260   19.3880 C   0  0  0  0  0  2  0  0  0  0  0  0
  -29.4380  -12.6630   18.1570 C   0  0  0  0  0  2  0  0  0  0  0  0
  -27.9900  -12.3930   18.6050 C   0  0  0  0  0  2  0  0  0  0  0  0
  -27.5470  -13.3410   19.7470 C   0  0  0  0  0  3  0  0  0  0  0  0
  -28.6000  -13.4600   20.8680 C   0  0  0  0  0  2  0  0  0  0  0  0
  -29.8320  -13.9500   20.2330 N   0  0  0  0  0  0  0  0  0  0  0  0
  -31.6220  -15.2600   20.0730 O   0  0  0  0  0  0  0  0  0  0  0  0
  -29.6360  -16.4920   20.4070 N   0  0  0  0  0  0  0  0  0  0  0  0
  -28.6510  -16.3000   20.5100 H   0  0  0  0  0  0  0  0  0  0  0  0
  -25.1730  -13.8840   20.5080 C   0  0  0  0  0  0  0  0  0  0  0  0
  -24.1170  -13.0990   20.8770 C   0  0  0  0  0  0  0  0  0  0  0  0
  -24.5930  -11.7520   20.8410 C   0  0  0  0  0  0  0  0  0  0  0  0
  -26.2210  -13.0160   20.2600 N   0  0  0  0  0  0  0  0  0  0  0  0
  -25.8840  -11.7270   20.5280 N   0  0  0  0  0  0  0  0  0  0  0  0
  -23.8750  -10.4840   21.0270 C   0  0  0  0  0  0  0  0  0  0  0  0
  -24.3080   -9.5200   21.9630 C   0  0  0  0  0  3  0  0  0  0  0  0
  -23.5880   -8.3180   22.1390 C   0  0  0  0  0  3  0  0  0  0  0  0
  -22.4210   -8.0730   21.3780 C   0  0  0  0  0  0  0  0  0  0  0  0
  -22.0070   -9.0250   20.4300 C   0  0  0  0  0  3  0  0  0  0  0  0
  -22.7280  -10.2180   20.2530 C   0  0  0  0  0  3  0  0  0  0  0  0
  -21.6740   -6.9220   21.4610 O   0  0  0  0  0  0  0  0  0  0  0  0
  -21.6130   -6.1850   22.6170 C   0  0  0  0  0  0  0  0  0  0  0  0
  -21.1470   -6.7380   23.8300 C   0  0  0  0  0  3  0  0  0  0  0  0
  -21.0380   -5.9270   24.9770 C   0  0  0  0  0  3  0  0  0  0  0  0
  -21.3830   -4.5640   24.9110 C   0  0  0  0  0  0  0  0  0  0  0  0
  -21.8420   -4.0100   23.7030 C   0  0  0  0  0  3  0  0  0  0  0  0
  -21.9540   -4.8190   22.5590 C   0  0  0  0  0  0  0  0  0  0  0  0
  -22.3770   -4.2760   21.3910 F   0  0  0  0  0  0  0  0  0  0  0  0
  -21.2710   -3.7820   26.0110 F   0  0  0  0  0  0  0  0  0  0  0  0
  -22.7170  -13.5660   21.1470 C   0  0  0  0  0  0  0  0  0  0  0  0
  -21.9940  -12.8650   22.0130 N   0  0  0  0  0  0  0  0  0  0  0  0
  -22.2740  -14.5880   20.6260 O   0  0  0  0  0  0  0  0  0  0  0  0
  -22.3650  -12.0400   22.4590 H   0  0  0  0  0  0  0  0  0  0  0  0
  -21.0550  -13.1610   22.2360 H   0  0  0  0  0  0  0  0  0  0  0  0
  -25.3250  -15.2570   20.3330 N   0  0  0  0  0  0  0  0  0  0  0  0
  -24.5470  -15.9000   20.4310 H   0  0  0  0  0  0  0  0  0  0  0  0
  -26.1580  -15.6980   19.9640 H   0  0  0  0  0  0  0  0  0  0  0  0
  -27.9440  -24.3460   20.3230 C   0  0  0  0  0  2  0  0  0  0  0  0
  -28.1880  -25.9620   20.3460 O   0  0  0  0  0  0  0  0  0  0  0  0
  -24.6470  -31.9150   23.2480 C   0  0  0  0  0  0  0  0  0  0  0  0
  -27.1680  -27.0320   20.2780 C   0  0  0  0  0  0  0  0  0  0  0  0
  -23.4420  -30.5160   21.6200 C   0  0  0  0  0  3  0  0  0  0  0  0
  -24.8790  -28.8970   20.2100 C   0  0  0  0  0  0  0  0  0  0  0  0
  -26.0070  -30.7220   21.4670 C   0  0  0  0  0  2  0  0  0  0  0  0
  -26.0670  -29.3100   20.8250 C   0  0  0  0  0  0  0  0  0  0  0  0
  -27.2100  -28.3980   20.8310 C   0  0  0  0  0  3  0  0  0  0  0  0
  -25.9510  -26.7570   19.6180 C   0  0  0  0  0  3  0  0  0  0  0  0
  -24.8430  -27.6400   19.5860 C   0  0  0  0  0  3  0  0  0  0  0  0
  -23.6650  -29.8230   20.2480 C   0  0  0  0  0  2  0  0  0  0  0  0
  -24.7210  -31.0770   22.1650 N   0  0  0  0  0  0  0  0  0  0  0  0
  -23.5600  -32.2150   23.7680 O   0  0  0  0  0  0  0  0  0  0  0  0
  -22.7440  -29.5300   22.5920 C   0  0  0  0  0  0  0  0  0  0  0  0
  -21.4140  -29.3700   22.4650 N   0  0  0  0  0  0  0  0  0  0  0  0
  -23.4060  -28.9090   23.4270 O   0  0  0  0  0  0  0  0  0  0  0  0
  -20.9340  -29.9230   21.7670 H   0  0  0  0  0  0  0  0  0  0  0  0
  -18.0240  -28.1840   22.9740 C   0  0  0  0  0  0  0  0  0  0  0  0
  -20.5850  -28.4440   23.2420 C   0  0  0  0  0  3  0  0  0  0  0  0
  -20.6810  -27.0050   22.6820 C   0  0  0  0  0  2  0  0  0  0  0  0
  -19.5810  -26.6770   21.6690 C   0  0  0  0  0  2  0  0  0  0  0  0
  -18.1980  -26.8310   22.3080 C   0  0  0  0  0  2  0  0  0  0  0  0
  -19.1440  -28.9490   23.3990 C   0  0  0  0  0  0  0  0  0  0  0  0
  -18.9260  -30.2150   23.9850 C   0  0  0  0  0  3  0  0  0  0  0  0
  -17.6210  -30.7170   24.1490 C   0  0  0  0  0  3  0  0  0  0  0  0
  -16.5160  -29.9510   23.7390 C   0  0  0  0  0  3  0  0  0  0  0  0
  -16.7180  -28.6870   23.1580 C   0  0  0  0  0  3  0  0  0  0  0  0
  -25.9230  -32.5530   23.8760 C   0  0  0  0  0  3  0  0  0  0  0  0
  -26.4290  -31.7870   25.1610 C   0  0  1  0  0  0  0  0  0  0  0  0
  -25.3310  -31.5600   26.2260 C   0  0  0  0  0  1  0  0  0  0  0  0
  -27.0080  -30.4030   24.7860 C   0  0  0  0  0  1  0  0  0  0  0  0
  -27.5810  -32.5800   25.8240 C   0  0  0  0  0  1  0  0  0  0  0  0
  -25.6120  -33.9540   24.2110 N   0  0  0  0  0  0  0  0  0  0  0  0
  -25.9230  -35.0130   23.4510 C   0  0  0  0  0  0  0  0  0  0  0  0
  -26.5660  -34.9120   22.4020 O   0  0  0  0  0  0  0  0  0  0  0  0
  -25.0370  -34.1050   25.0260 H   0  0  0  0  0  0  0  0  0  0  0  0
  -24.1760  -36.8030   23.1650 C   0  0  0  0  0  1  0  0  0  0  0  0
  -25.4490  -36.4000   23.9260 C   0  0  0  0  0  3  0  0  0  0  0  0
  -27.6070  -37.3020   24.6780 C   0  0  0  0  0  1  0  0  0  0  0  0
  -26.4720  -37.4580   23.7720 N   0  0  0  0  0  0  0  0  0  0  0  0
  -26.0670  -38.3780   23.9270 H   0  0  0  0  0  0  0  0  0  0  0  0
  1  8  2  0
  1  6  1  0
  2  3  1  0
  2  1  1  0
  3  7  1  0
  5  4  1  0
  6  9  1  1
  6  4  1  0
  7 49  1  1
  7  6  1  0
  7  5  1  0
  9 10  2  0
 11 19  1  0
 12 17  1  0
 13 14  1  0
 13 12  1  0
 15 14  1  0
 15 24  1  0
 15 16  1  0
 17 11  1  0
 17 16  1  0
 18 11  2  0
 19 10  1  0
 19 20  1  0
 21 22  2  0
 22 41  1  0
 23 22  1  0
 23 26  1  0
 24 21  1  0
 24 25  1  0
 25 23  2  0
 26 27  1  0
 27 28  2  0
 29 32  1  0
 29 28  1  0
 30 29  2  0
 31 30  1  0
 31 26  2  0
 32 33  1  0
 33 34  1  0
 34 35  2  0
 36 35  1  0
 36 40  1  0
 37 36  2  0
 38 33  2  0
 38 37  1  0
 39 38  1  0
 41 42  1  0
 42 45  1  0
 42 44  1  0
 43 41  2  0
 46 47  1  0
 46 21  1  0
 48 46  1  0
 49 50  1  0
 51 62  2  0
 52 50  1  0
 52 57  1  0
 53 61  1  0
 53 63  1  0
 54 60  1  0
 54 56  1  0
 55 61  1  0
 56 57  2  0
 56 55  1  0
 58 52  2  0
 59 58  1  0
 59 54  2  0
 60 53  1  0
 61 51  1  0
 63 65  2  0
 64 63  1  0
 66 64  1  0
 67 76  2  0
 67 72  1  0
 68 64  1  0
 68 72  1  0
 69 68  1  0
 70 71  1  0
 70 69  1  0
 71 67  1  0
 72 73  2  0
 73 74  1  0
 75 74  2  0
 76 75  1  0
 77 51  1  0
 77 82  1  0
 77 78  1  0
 78 81  1  1
 78 79  1  0
 80 78  1  0
 82 85  1  0
 83 87  1  0
 83 82  1  0
 84 83  2  0
 87 86  1  0
 89 87  1  0
 89 90  1  0
 89 88  1  0
M  ISO  4  11 100  19 100  49 101  50 101
M  END
>  <TORSDO>  (69) 
F 19

>  <SCORE>  (69) 
-16.087

>  <name>  (69) 
69

>  <ligand_id>  (69) 
69

>  <original_smiles>  (69) 
[H]c1c([H])c([H])c2c(c1[H])C([H])([H])C([H])([H])C([H])([H])C2([H])N([H])C(=O)C1([H])N(C(=O)C([H])(N([H])C(=O)C([H])(N([H])C([H])([H])[H])C([H])([H])[H])C(C([H])([H])[H])(C([H])([H])[H])C([H])([H])[H])C([H])([H])c2c([H])c(OC([H])([H])C34C([H])([H])C([H])([H])C(=O)C3(C([H])([H])C([H])([H])N([H])C(=O)N3C([H])([H])C([H])([H])C([H])([H])C([H])(n5nc(-c6c([H])c([H])c(Oc7c([H])c([H])c(F)c([H])c7F)c([H])c6[H])c(C(=O)N([H])[H])c5N([H])[H])C3([H])[H])C([H])([H])C4([H])[H])c([H])c([H])c2C1([H])[H]

>  <smiles>  (69) 
[H]c1c([H])c([H])c2c(c1[H])C([H])([H])C([H])([H])C([H])([H])C2([H])N([H])C(=O)C1([H])N(C(=O)C([H])(N([H])C(=O)C([H])(N([H])C([H])([H])[H])C([H])([H])[H])C(C([H])([H])[H])(C([H])([H])[H])C([H])([H])[H])C([H])([H])c2c([H])c(OC([H])([H])C34C([H])([H])C([H])([H])C(=O)C3(C([H])([H])C([H])([H])N([H])C(=O)N3C([H])([H])C([H])([H])C([H])([H])C([H])(n5nc(-c6c([H])c([H])c(Oc7c([H])c([H])c(F)c([H])c7F)c([H])c6[H])c(C(=O)N([H])[H])c5N([H])[H])C3([H])[H])C([H])([H])C4([H])[H])c([H])c([H])c2C1([H])[H]

$$$$
70:0:0
     RDKit          3D

 95104  0  0  1  0  0  0  0  0999 V2000
  -30.6160  -19.1630   18.6220 C   0  0  0  0  0  0  0  0  0  0  0  0
  -30.3300  -20.5130   18.8790 N   0  0  0  0  0  0  0  0  0  0  0  0
  -30.5500  -18.7390   17.4700 O   0  0  0  0  0  0  0  0  0  0  0  0
  -30.4500  -20.7010   19.8720 H   0  0  0  0  0  0  0  0  0  0  0  0
  -31.7800  -15.8340   19.1200 C   0  0  0  0  0  0  0  0  0  0  0  0
  -31.5840  -13.4180   18.3810 C   0  0  0  0  0  2  0  0  0  0  0  0
  -30.5090  -13.2540   17.2820 C   0  0  0  0  0  2  0  0  0  0  0  0
  -29.1180  -13.0370   17.9070 C   0  0  0  0  0  2  0  0  0  0  0  0
  -28.8170  -14.0780   19.0110 C   0  0  0  0  0  3  0  0  0  0  0  0
  -29.9900  -14.2330   20.0000 C   0  0  0  0  0  2  0  0  0  0  0  0
  -31.2090  -14.5730   19.2380 N   0  0  0  0  0  0  0  0  0  0  0  0
  -32.7220  -16.0110   18.3390 O   0  0  0  0  0  0  0  0  0  0  0  0
  -30.9360  -18.2650   19.8150 C   0  0  0  0  0  0  0  0  0  0  0  0
  -30.7490  -18.7040   21.0760 C   0  0  0  0  0  0  0  0  0  0  0  0
  -30.2650  -18.3760   24.0960 C   0  0  0  0  0  2  0  0  0  0  0  0
  -31.6660  -18.3100   23.4690 C   0  0  0  0  0  2  0  0  0  0  0  0
  -29.8190  -17.3550   23.0450 C   0  0  0  0  0  2  0  0  0  0  0  0
  -31.7260  -16.6290   21.3760 C   0  0  0  0  0  2  0  0  0  0  0  0
  -31.0410  -17.7200   22.1820 C   0  0  1  0  0  0  0  0  0  0  0  0
  -31.3240  -16.8440   19.9610 N   0  0  0  0  0  0  0  0  0  0  0  0
  -26.6330  -14.6920   20.2130 C   0  0  0  0  0  0  0  0  0  0  0  0
  -25.6060  -13.9320   20.7050 C   0  0  0  0  0  0  0  0  0  0  0  0
  -25.9790  -12.5710   20.4760 C   0  0  0  0  0  0  0  0  0  0  0  0
  -27.5660  -13.8000   19.7090 N   0  0  0  0  0  0  0  0  0  0  0  0
  -27.1910  -12.5130   19.9380 N   0  0  0  0  0  0  0  0  0  0  0  0
  -25.2280  -11.3270   20.6970 C   0  0  0  0  0  0  0  0  0  0  0  0
  -25.5920  -10.4110   21.7090 C   0  0  0  0  0  3  0  0  0  0  0  0
  -24.8420   -9.2310   21.9140 C   0  0  0  0  0  3  0  0  0  0  0  0
  -23.7200   -8.9550   21.0970 C   0  0  0  0  0  0  0  0  0  0  0  0
  -23.3760   -9.8560   20.0750 C   0  0  0  0  0  3  0  0  0  0  0  0
  -24.1240  -11.0270   19.8730 C   0  0  0  0  0  3  0  0  0  0  0  0
  -22.9580   -7.8160   21.2010 O   0  0  0  0  0  0  0  0  0  0  0  0
  -22.5540   -7.3260   22.4160 C   0  0  0  0  0  0  0  0  0  0  0  0
  -21.8330   -8.1210   23.3350 C   0  0  0  0  0  3  0  0  0  0  0  0
  -21.3790   -7.5590   24.5470 C   0  0  0  0  0  3  0  0  0  0  0  0
  -21.6310   -6.2040   24.8360 C   0  0  0  0  0  0  0  0  0  0  0  0
  -22.3410   -5.4100   23.9180 C   0  0  0  0  0  3  0  0  0  0  0  0
  -22.8000   -5.9700   22.7130 C   0  0  0  0  0  0  0  0  0  0  0  0
  -23.4690   -5.1970   21.8240 F   0  0  0  0  0  0  0  0  0  0  0  0
  -21.1880   -5.6610   25.9920 F   0  0  0  0  0  0  0  0  0  0  0  0
  -24.3100  -14.4350   21.2710 C   0  0  0  0  0  0  0  0  0  0  0  0
  -23.6750  -13.6630   22.1480 N   0  0  0  0  0  0  0  0  0  0  0  0
  -23.8730  -15.5460   20.9770 O   0  0  0  0  0  0  0  0  0  0  0  0
  -24.0430  -12.7570   22.4040 H   0  0  0  0  0  0  0  0  0  0  0  0
  -22.8200  -13.9840   22.5760 H   0  0  0  0  0  0  0  0  0  0  0  0
  -26.8440  -16.0660   20.1170 N   0  0  0  0  0  0  0  0  0  0  0  0
  -26.1370  -16.7470   20.3740 H   0  0  0  0  0  0  0  0  0  0  0  0
  -27.6380  -16.4710   19.6370 H   0  0  0  0  0  0  0  0  0  0  0  0
  -30.3710  -19.9120   21.5280 O   0  0  0  0  0  0  0  0  0  0  0  0
  -30.3280  -19.8380   22.4740 H   0  0  0  0  0  0  0  0  0  0  0  0
  -29.5360  -21.6070   18.1280 C   0  0  0  0  0  2  0  0  0  0  0  0
  -29.8440  -23.2060   18.3440 C   0  0  0  0  0  2  0  0  0  0  0  0
  -28.7390  -24.3880   18.6940 C   0  0  0  0  0  2  0  0  0  0  0  0
  -28.4540  -25.7110   17.7720 C   0  0  0  0  0  2  0  0  0  0  0  0
  -28.2870  -27.1200   18.3110 O   0  0  0  0  0  0  0  0  0  0  0  0
  -24.4280  -31.3370   22.7890 C   0  0  0  0  0  0  0  0  0  0  0  0
  -27.0740  -27.8290   18.5270 C   0  0  0  0  0  0  0  0  0  0  0  0
  -23.1760  -30.1890   20.9990 C   0  0  0  0  0  3  0  0  0  0  0  0
  -24.5800  -29.1650   19.1100 C   0  0  0  0  0  0  0  0  0  0  0  0
  -25.6390  -30.8260   20.6440 C   0  0  0  0  0  2  0  0  0  0  0  0
  -25.7660  -29.6380   19.6880 C   0  0  0  0  0  0  0  0  0  0  0  0
  -27.0070  -28.9920   19.3730 C   0  0  0  0  0  3  0  0  0  0  0  0
  -25.8530  -27.4140   17.9510 C   0  0  0  0  0  3  0  0  0  0  0  0
  -24.6300  -28.0690   18.2290 C   0  0  0  0  0  3  0  0  0  0  0  0
  -23.2840  -29.8670   19.4840 C   0  0  0  0  0  2  0  0  0  0  0  0
  -24.4380  -30.7950   21.5340 N   0  0  0  0  0  0  0  0  0  0  0  0
  -23.3950  -31.3660   23.4730 O   0  0  0  0  0  0  0  0  0  0  0  0
  -22.7330  -28.9180   21.7630 C   0  0  0  0  0  0  0  0  0  0  0  0
  -21.4400  -28.5630   21.6550 N   0  0  0  0  0  0  0  0  0  0  0  0
  -23.5470  -28.2620   22.4170 O   0  0  0  0  0  0  0  0  0  0  0  0
  -20.8310  -29.1630   21.1170 H   0  0  0  0  0  0  0  0  0  0  0  0
  -18.3460  -26.7040   21.9260 C   0  0  0  0  0  0  0  0  0  0  0  0
  -20.8200  -27.3780   22.2500 C   0  0  0  0  0  3  0  0  0  0  0  0
  -21.1660  -26.1020   21.4500 C   0  0  0  0  0  2  0  0  0  0  0  0
  -20.1180  -25.7510   20.3890 C   0  0  0  0  0  2  0  0  0  0  0  0
  -18.7470  -25.5370   21.0380 C   0  0  0  0  0  2  0  0  0  0  0  0
  -19.3170  -27.5780   22.4800 C   0  0  0  0  0  0  0  0  0  0  0  0
  -18.8860  -28.6660   23.2700 C   0  0  0  0  0  3  0  0  0  0  0  0
  -17.5150  -28.8870   23.5050 C   0  0  0  0  0  3  0  0  0  0  0  0
  -16.5590  -28.0080   22.9650 C   0  0  0  0  0  3  0  0  0  0  0  0
  -16.9770  -26.9190   22.1830 C   0  0  0  0  0  3  0  0  0  0  0  0
  -25.7110  -31.9730   23.4100 C   0  0  0  0  0  3  0  0  0  0  0  0
  -25.3410  -33.2920   23.9460 N   0  0  0  0  0  0  0  0  0  0  0  0
  -25.6260  -34.4610   23.3610 C   0  0  0  0  0  0  0  0  0  0  0  0
  -26.2970  -34.5440   22.3290 O   0  0  0  0  0  0  0  0  0  0  0  0
  -24.7480  -33.2970   24.7630 H   0  0  0  0  0  0  0  0  0  0  0  0
  -23.8510  -36.2430   23.2370 C   0  0  0  0  0  1  0  0  0  0  0  0
  -25.0770  -35.7440   24.0180 C   0  0  0  0  0  3  0  0  0  0  0  0
  -27.1550  -36.5340   25.0570 C   0  0  0  0  0  1  0  0  0  0  0  0
  -26.0770  -36.8270   24.1190 N   0  0  0  0  0  0  0  0  0  0  0  0
  -25.6380  -37.6990   24.4000 H   0  0  0  0  0  0  0  0  0  0  0  0
  -26.3530  -31.0830   24.5470 C   0  0  1  0  0  0  0  0  0  0  0  0
  -25.3450  -30.6320   25.6310 C   0  0  0  0  0  1  0  0  0  0  0  0
  -27.0010  -29.8140   23.9470 C   0  0  0  0  0  1  0  0  0  0  0  0
  -27.4870  -31.8670   25.2480 C   0  0  0  0  0  1  0  0  0  0  0  0
  1  2  1  0
  1 13  1  0
  2  4  1  0
  3  1  2  0
  5 11  1  0
  5 20  1  0
  6 11  1  0
  7  8  1  0
  7  6  1  0
  9  8  1  0
  9 24  1  0
  9 10  1  0
 11 10  1  0
 12  5  2  0
 13 20  1  0
 13 14  2  0
 14 49  1  0
 14 19  1  0
 16 15  1  0
 17 15  1  0
 19 18  1  6
 19 17  1  0
 19 16  1  0
 20 18  1  0
 21 22  2  0
 22 41  1  0
 23 26  1  0
 23 22  1  0
 24 25  1  0
 24 21  1  0
 25 23  2  0
 26 27  1  0
 27 28  2  0
 29 32  1  0
 29 28  1  0
 30 29  2  0
 31 30  1  0
 31 26  2  0
 32 33  1  0
 33 38  2  0
 33 34  1  0
 34 35  2  0
 35 36  1  0
 36 40  1  0
 37 36  2  0
 38 37  1  0
 39 38  1  0
 41 42  1  0
 42 44  1  0
 42 45  1  0
 43 41  2  0
 46 21  1  0
 46 47  1  0
 48 46  1  0
 49 50  1  0
 51 52  1  0
 51  2  1  0
 52 53  1  0
 54 55  1  0
 54 53  1  0
 55 57  1  0
 56 67  2  0
 57 62  1  0
 58 66  1  0
 58 68  1  0
 59 65  1  0
 59 61  1  0
 60 66  1  0
 61 60  1  0
 62 61  2  0
 63 64  1  0
 63 57  2  0
 64 59  2  0
 65 58  1  0
 66 56  1  0
 68 70  2  0
 69 68  1  0
 71 69  1  0
 72 81  2  0
 72 77  1  0
 73 69  1  0
 73 77  1  0
 74 73  1  0
 75 76  1  0
 75 74  1  0
 76 72  1  0
 77 78  2  0
 78 79  1  0
 80 79  2  0
 81 80  1  0
 82 56  1  0
 82 83  1  0
 82 92  1  0
 83 86  1  0
 84 83  1  0
 84 88  1  0
 85 84  2  0
 88 87  1  0
 88 90  1  0
 90 91  1  0
 90 89  1  0
 92 95  1  1
 92 93  1  0
 94 92  1  0
M  ISO  4   5 100  20 100  54 101  55 101
M  END
>  <TORSDO>  (70) 
F 21

>  <SCORE>  (70) 
-4.537

>  <name>  (70) 
70

>  <ligand_id>  (70) 
70

>  <original_smiles>  (70) 
[H]OC1=C(C(=O)N([H])C([H])([H])C([H])([H])C([H])([H])C([H])([H])Oc2c([H])c([H])c3c(c2[H])C([H])([H])N(C(=O)C([H])(N([H])C(=O)C([H])(N([H])C([H])([H])[H])C([H])([H])[H])C(C([H])([H])[H])(C([H])([H])[H])C([H])([H])[H])C([H])(C(=O)N([H])C2([H])c4c([H])c([H])c([H])c([H])c4C([H])([H])C([H])([H])C2([H])[H])C3([H])[H])N(C(=O)N2C([H])([H])C([H])([H])C([H])([H])C([H])(n3nc(-c4c([H])c([H])c(Oc5c([H])c([H])c(F)c([H])c5F)c([H])c4[H])c(C(=O)N([H])[H])c3N([H])[H])C2([H])[H])C([H])([H])C12C([H])([H])C([H])([H])C2([H])[H]

>  <smiles>  (70) 
[H]OC1=C(C(=O)N([H])C([H])([H])C([H])([H])C([H])([H])C([H])([H])Oc2c([H])c([H])c3c(c2[H])C([H])([H])N(C(=O)C([H])(N([H])C(=O)C([H])(N([H])C([H])([H])[H])C([H])([H])[H])C(C([H])([H])[H])(C([H])([H])[H])C([H])([H])[H])C([H])(C(=O)N([H])C2([H])c4c([H])c([H])c([H])c([H])c4C([H])([H])C([H])([H])C2([H])[H])C3([H])[H])N(C(=O)N2C([H])([H])C([H])([H])C([H])([H])C([H])(n3nc(-c4c([H])c([H])c(Oc5c([H])c([H])c(F)c([H])c5F)c([H])c4[H])c(C(=O)N([H])[H])c3N([H])[H])C2([H])[H])C([H])([H])C12C([H])([H])C([H])([H])C2([H])[H]

$$$$
71:0:0
     RDKit          3D

 94103  0  0  1  0  0  0  0  0999 V2000
  -28.8640  -21.1280   19.1310 C   0  0  0  0  0  2  0  0  0  0  0  0
  -29.7540  -19.9270   19.5000 C   0  0  0  0  0  3  0  0  0  0  0  0
  -30.0200  -20.0480   20.9670 C   0  0  0  0  0  3  0  0  0  0  0  0
  -29.0200  -22.2180   20.2460 C   0  0  0  0  0  3  0  0  0  0  0  0
  -29.4480  -18.6870   20.3980 C   0  0  1  0  0  0  0  0  0  0  0  0
  -28.0300  -18.2740   20.7680 C   0  0  0  0  0  1  0  0  0  0  0  0
  -29.6390  -21.8330   22.6810 C   0  0  0  0  0  1  0  0  0  0  0  0
  -29.1610  -21.2440   21.4050 N   0  0  2  0  0  4  0  0  0  0  0  0
  -28.2390  -20.8820   21.5950 H   0  0  0  0  0  0  0  0  0  0  0  0
  -27.5320  -23.7340   18.7710 C   0  0  0  0  0  1  0  0  0  0  0  0
  -27.9450  -23.5030   20.2570 C   0  0  1  0  0  0  0  0  0  0  0  0
  -25.4800  -24.0130   21.1870 C   0  0  0  0  0  1  0  0  0  0  0  0
  -26.6740  -23.0400   21.0660 C   0  0  0  0  0  2  0  0  0  0  0  0
  -28.4710  -24.9640   20.8440 C   0  0  0  0  0  2  0  0  0  0  0  0
  -28.4790  -26.3510   20.2040 O   0  0  0  0  0  0  0  0  0  0  0  0
  -24.5600  -31.7760   23.1420 C   0  0  0  0  0  0  0  0  0  0  0  0
  -27.3690  -27.2300   20.1930 C   0  0  0  0  0  0  0  0  0  0  0  0
  -23.4590  -30.3610   21.4460 C   0  0  0  0  0  3  0  0  0  0  0  0
  -25.0020  -28.8600   20.0640 C   0  0  0  0  0  0  0  0  0  0  0  0
  -26.0000  -30.7220   21.3750 C   0  0  0  0  0  2  0  0  0  0  0  0
  -26.1360  -29.3440   20.7280 C   0  0  0  0  0  0  0  0  0  0  0  0
  -27.3270  -28.5430   20.7820 C   0  0  0  0  0  3  0  0  0  0  0  0
  -26.2260  -26.8440   19.4730 C   0  0  0  0  0  3  0  0  0  0  0  0
  -25.0580  -27.6210   19.4190 C   0  0  0  0  0  3  0  0  0  0  0  0
  -23.7400  -29.6980   20.0750 C   0  0  0  0  0  2  0  0  0  0  0  0
  -24.6900  -30.9730   22.0410 N   0  0  0  0  0  0  0  0  0  0  0  0
  -23.4500  -32.0210   23.6330 O   0  0  0  0  0  0  0  0  0  0  0  0
  -22.7850  -29.3180   22.3690 C   0  0  0  0  0  0  0  0  0  0  0  0
  -21.4630  -29.1420   22.2140 N   0  0  0  0  0  0  0  0  0  0  0  0
  -23.4500  -28.6700   23.1820 O   0  0  0  0  0  0  0  0  0  0  0  0
  -20.9870  -29.7190   21.5350 H   0  0  0  0  0  0  0  0  0  0  0  0
  -18.0740  -27.9610   22.6760 C   0  0  0  0  0  0  0  0  0  0  0  0
  -20.6370  -28.1790   22.9430 C   0  0  0  0  0  3  0  0  0  0  0  0
  -20.7230  -26.7760   22.2990 C   0  0  0  0  0  2  0  0  0  0  0  0
  -19.6090  -26.5070   21.2800 C   0  0  0  0  0  2  0  0  0  0  0  0
  -18.2290  -26.6420   21.9310 C   0  0  0  0  0  2  0  0  0  0  0  0
  -19.2050  -28.6900   23.1310 C   0  0  0  0  0  0  0  0  0  0  0  0
  -19.0060  -29.9250   23.7830 C   0  0  0  0  0  3  0  0  0  0  0  0
  -17.7110  -30.4340   23.9850 C   0  0  0  0  0  3  0  0  0  0  0  0
  -16.5940  -29.7020   23.5480 C   0  0  0  0  0  3  0  0  0  0  0  0
  -16.7750  -28.4690   22.9000 C   0  0  0  0  0  3  0  0  0  0  0  0
  -25.8000  -32.4340   23.8210 C   0  0  0  0  0  3  0  0  0  0  0  0
  -26.2780  -31.6720   25.1190 C   0  0  1  0  0  0  0  0  0  0  0  0
  -25.1400  -31.3970   26.1320 C   0  0  0  0  0  1  0  0  0  0  0  0
  -26.9280  -30.3190   24.7510 C   0  0  0  0  0  1  0  0  0  0  0  0
  -27.3630  -32.5100   25.8420 C   0  0  0  0  0  1  0  0  0  0  0  0
  -25.4400  -33.8240   24.1480 N   0  0  0  0  0  0  0  0  0  0  0  0
  -25.7560  -34.8870   23.3990 C   0  0  0  0  0  0  0  0  0  0  0  0
  -26.4460  -34.8050   22.3800 O   0  0  0  0  0  0  0  0  0  0  0  0
  -24.8560  -33.9640   24.9590 H   0  0  0  0  0  0  0  0  0  0  0  0
  -23.9760  -36.6270   23.0210 C   0  0  0  0  0  1  0  0  0  0  0  0
  -25.2160  -36.2600   23.8510 C   0  0  0  0  0  3  0  0  0  0  0  0
  -27.2990  -37.2140   24.7320 C   0  0  0  0  0  1  0  0  0  0  0  0
  -26.2180  -37.3440   23.7600 N   0  0  0  0  0  0  0  0  0  0  0  0
  -25.7790  -38.2500   23.8960 H   0  0  0  0  0  0  0  0  0  0  0  0
  -30.3930  -17.3790   20.2560 C   0  0  0  0  0  2  0  0  0  0  0  0
  -30.6690  -14.7710   19.9240 C   0  0  0  0  0  0  0  0  0  0  0  0
  -30.4010  -12.4750   18.9390 C   0  0  0  0  0  2  0  0  0  0  0  0
  -29.3820  -12.5230   17.7790 C   0  0  0  0  0  2  0  0  0  0  0  0
  -27.9450  -12.3570   18.3160 C   0  0  0  0  0  2  0  0  0  0  0  0
  -27.6620  -13.2650   19.5420 C   0  0  0  0  0  3  0  0  0  0  0  0
  -28.7900  -13.1920   20.5890 C   0  0  0  0  0  2  0  0  0  0  0  0
  -30.0390  -13.5450   19.9010 N   0  0  0  0  0  0  0  0  0  0  0  0
  -31.8230  -14.8670   19.4940 O   0  0  0  0  0  0  0  0  0  0  0  0
  -29.9390  -15.9100   20.2570 N   0  0  0  0  0  0  0  0  0  0  0  0
  -28.9870  -15.7470   20.5500 H   0  0  0  0  0  0  0  0  0  0  0  0
  -25.3570  -13.8810   20.4730 C   0  0  0  0  0  0  0  0  0  0  0  0
  -24.3000  -13.1170   20.8890 C   0  0  0  0  0  0  0  0  0  0  0  0
  -24.7220  -11.7600   20.7650 C   0  0  0  0  0  0  0  0  0  0  0  0
  -26.3520  -12.9870   20.1220 N   0  0  0  0  0  0  0  0  0  0  0  0
  -25.9840  -11.7030   20.3600 N   0  0  0  0  0  0  0  0  0  0  0  0
  -23.9790  -10.5060   20.9590 C   0  0  0  0  0  0  0  0  0  0  0  0
  -24.4060   -9.5270   21.8840 C   0  0  0  0  0  3  0  0  0  0  0  0
  -23.6610   -8.3410   22.0650 C   0  0  0  0  0  3  0  0  0  0  0  0
  -22.4770   -8.1260   21.3200 C   0  0  0  0  0  0  0  0  0  0  0  0
  -22.0710   -9.0930   20.3850 C   0  0  0  0  0  3  0  0  0  0  0  0
  -22.8150  -10.2700   20.2030 C   0  0  0  0  0  3  0  0  0  0  0  0
  -21.7010   -6.9960   21.4120 O   0  0  0  0  0  0  0  0  0  0  0  0
  -21.5860   -6.2940   22.5850 C   0  0  0  0  0  0  0  0  0  0  0  0
  -21.0510   -6.8790   23.7530 C   0  0  0  0  0  3  0  0  0  0  0  0
  -20.8890   -6.1040   24.9180 C   0  0  0  0  0  3  0  0  0  0  0  0
  -21.2480   -4.7440   24.9140 C   0  0  0  0  0  0  0  0  0  0  0  0
  -21.7760   -4.1580   23.7510 C   0  0  0  0  0  3  0  0  0  0  0  0
  -21.9420   -4.9310   22.5880 C   0  0  0  0  0  0  0  0  0  0  0  0
  -22.4330   -4.3570   21.4620 F   0  0  0  0  0  0  0  0  0  0  0  0
  -21.0850   -3.9960   26.0310 F   0  0  0  0  0  0  0  0  0  0  0  0
  -22.9430  -13.6150   21.2920 C   0  0  0  0  0  0  0  0  0  0  0  0
  -22.2700  -12.8980   22.1860 N   0  0  0  0  0  0  0  0  0  0  0  0
  -22.4960  -14.6730   20.8530 O   0  0  0  0  0  0  0  0  0  0  0  0
  -22.6530  -12.0360   22.5490 H   0  0  0  0  0  0  0  0  0  0  0  0
  -21.3670  -13.2140   22.5100 H   0  0  0  0  0  0  0  0  0  0  0  0
  -25.5430  -15.2510   20.3370 N   0  0  0  0  0  0  0  0  0  0  0  0
  -24.8000  -15.9140   20.5240 H   0  0  0  0  0  0  0  0  0  0  0  0
  -26.3530  -15.6790   19.9070 H   0  0  0  0  0  0  0  0  0  0  0  0
  1  4  1  0
  2  1  1  0
  2  5  1  0
  2  3  1  0
  3  8  1  0
  4 11  1  0
  4  8  1  0
  5  6  1  1
  5  3  1  0
  8  9  1  1
  8  7  1  0
 11 10  1  6
 11 14  1  0
 11 13  1  0
 13 12  1  0
 15 14  1  0
 16 27  2  0
 17 15  1  0
 17 22  1  0
 18 26  1  0
 18 28  1  0
 19 25  1  0
 19 21  1  0
 20 26  1  0
 21 22  2  0
 21 20  1  0
 23 17  2  0
 24 23  1  0
 24 19  2  0
 25 18  1  0
 26 16  1  0
 28 30  2  0
 29 28  1  0
 31 29  1  0
 32 41  2  0
 32 37  1  0
 33 29  1  0
 33 37  1  0
 34 33  1  0
 35 36  1  0
 35 34  1  0
 36 32  1  0
 37 38  2  0
 38 39  1  0
 40 39  2  0
 41 40  1  0
 42 16  1  0
 42 47  1  0
 42 43  1  0
 43 46  1  1
 43 44  1  0
 45 43  1  0
 47 50  1  0
 48 52  1  0
 48 47  1  0
 49 48  2  0
 52 51  1  0
 54 52  1  0
 54 55  1  0
 54 53  1  0
 56 65  1  0
 56  5  1  0
 57 65  1  0
 58 63  1  0
 59 60  1  0
 59 58  1  0
 61 60  1  0
 61 70  1  0
 61 62  1  0
 63 57  1  0
 63 62  1  0
 64 57  2  0
 65 66  1  0
 67 68  2  0
 68 87  1  0
 69 68  1  0
 69 72  1  0
 70 71  1  0
 70 67  1  0
 71 69  2  0
 72 73  1  0
 73 74  2  0
 75 78  1  0
 75 74  1  0
 76 75  2  0
 77 76  1  0
 77 72  2  0
 78 79  1  0
 79 84  2  0
 79 80  1  0
 80 81  2  0
 82 81  1  0
 82 86  1  0
 83 82  2  0
 84 83  1  0
 85 84  1  0
 87 88  1  0
 88 91  1  0
 88 90  1  0
 89 87  2  0
 92 67  1  0
 92 93  1  0
 94 92  1  0
M  ISO  4  14 101  15 101  57 100  65 100
M  END
>  <TORSDO>  (71) 
F 20

>  <SCORE>  (71) 
-13.780

>  <name>  (71) 
71

>  <ligand_id>  (71) 
71

>  <original_smiles>  (71) 
[H]c1c([H])c([H])c2c(c1[H])C([H])([H])C([H])([H])C([H])([H])C2([H])N([H])C(=O)C1([H])N(C(=O)C([H])(N([H])C(=O)C([H])(N([H])C([H])([H])[H])C([H])([H])[H])C(C([H])([H])[H])(C([H])([H])[H])C([H])([H])[H])C([H])([H])c2c([H])c(OC([H])([H])C(C([H])([H])[H])(C([H])([H])C([H])([H])[H])C3([H])C([H])([H])C4([H])C(C([H])([H])[H])(C([H])([H])N([H])C(=O)N5C([H])([H])C([H])([H])C([H])([H])C([H])(n6nc(-c7c([H])c([H])c(Oc8c([H])c([H])c(F)c([H])c8F)c([H])c7[H])c(C(=O)N([H])[H])c6N([H])[H])C5([H])[H])C4([H])[N+]3([H])C([H])([H])[H])c([H])c([H])c2C1([H])[H]

>  <smiles>  (71) 
[H]c1c([H])c([H])c2c(c1[H])C([H])([H])C([H])([H])C([H])([H])C2([H])N([H])C(=O)C1([H])N(C(=O)C([H])(N([H])C(=O)C([H])(N([H])C([H])([H])[H])C([H])([H])[H])C(C([H])([H])[H])(C([H])([H])[H])C([H])([H])[H])C([H])([H])c2c([H])c(OC([H])([H])C(C([H])([H])[H])(C([H])([H])C([H])([H])[H])C3([H])C([H])([H])C4([H])C(C([H])([H])[H])(C([H])([H])N([H])C(=O)N5C([H])([H])C([H])([H])C([H])([H])C([H])(n6nc(-c7c([H])c([H])c(Oc8c([H])c([H])c(F)c([H])c8F)c([H])c7[H])c(C(=O)N([H])[H])c6N([H])[H])C5([H])[H])C4([H])[N+]3([H])C([H])([H])[H])c([H])c([H])c2C1([H])[H]

$$$$
72:0:0
     RDKit          3D

 97105  0  0  1  0  0  0  0  0999 V2000
  -30.0140  -19.1710   18.8400 C   0  0  0  0  0  3  0  0  0  0  0  0
  -28.5200  -18.7800   20.6780 C   0  0  0  0  0  3  0  0  0  0  0  0
  -30.5490  -17.8590   18.9880 C   0  0  0  0  0  3  0  0  0  0  0  0
  -29.0540  -17.4680   20.8250 C   0  0  0  0  0  3  0  0  0  0  0  0
  -29.0000  -19.6750   19.6960 C   0  0  0  0  0  0  0  0  0  0  0  0
  -30.1060  -16.9610   20.0000 C   0  0  0  0  0  0  0  0  0  0  0  0
  -28.3330  -21.0670   19.4430 C   0  0  0  0  0  3  0  0  0  0  0  0
  -28.5440  -22.3010   20.4290 C   0  0  0  0  0  3  0  0  0  0  0  0
  -26.2640  -23.3330   20.2140 C   0  0  0  0  0  1  0  0  0  0  0  0
  -28.1090  -24.0560   18.6200 C   0  0  0  0  0  1  0  0  0  0  0  0
  -27.7710  -23.6620   20.0720 C   0  0  2  0  0  0  0  0  0  0  0  0
  -28.1180  -24.9140   21.0100 C   0  0  0  0  0  2  0  0  0  0  0  0
  -28.2340  -26.2820   20.4630 O   0  0  0  0  0  0  0  0  0  0  0  0
  -24.3650  -31.6640   23.2940 C   0  0  0  0  0  0  0  0  0  0  0  0
  -27.1070  -27.0990   20.4100 C   0  0  0  0  0  0  0  0  0  0  0  0
  -23.2340  -30.2480   21.6150 C   0  0  0  0  0  3  0  0  0  0  0  0
  -24.7460  -28.6850   20.2750 C   0  0  0  0  0  0  0  0  0  0  0  0
  -25.7740  -30.5730   21.5410 C   0  0  0  0  0  2  0  0  0  0  0  0
  -25.8810  -29.1850   20.9270 C   0  0  0  0  0  0  0  0  0  0  0  0
  -27.0660  -28.3980   20.9950 C   0  0  0  0  0  3  0  0  0  0  0  0
  -25.9750  -26.6690   19.6950 C   0  0  0  0  0  3  0  0  0  0  0  0
  -24.7930  -27.4290   19.6490 C   0  0  0  0  0  3  0  0  0  0  0  0
  -23.5080  -29.5570   20.2550 C   0  0  0  0  0  2  0  0  0  0  0  0
  -24.4740  -30.8450   22.2090 N   0  0  0  0  0  0  0  0  0  0  0  0
  -23.2580  -31.9460   23.7750 O   0  0  0  0  0  0  0  0  0  0  0  0
  -22.5310  -29.2410   22.5550 C   0  0  0  0  0  0  0  0  0  0  0  0
  -21.2150  -29.0500   22.3580 N   0  0  0  0  0  0  0  0  0  0  0  0
  -23.1700  -28.6320   23.4170 O   0  0  0  0  0  0  0  0  0  0  0  0
  -20.7610  -29.5920   21.6370 H   0  0  0  0  0  0  0  0  0  0  0  0
  -17.8210  -27.8510   22.6990 C   0  0  0  0  0  0  0  0  0  0  0  0
  -20.3610  -28.1200   23.0970 C   0  0  0  0  0  3  0  0  0  0  0  0
  -20.4980  -26.6830   22.5450 C   0  0  0  0  0  2  0  0  0  0  0  0
  -19.4500  -26.3440   21.4800 C   0  0  0  0  0  2  0  0  0  0  0  0
  -18.0360  -26.4950   22.0500 C   0  0  0  0  0  2  0  0  0  0  0  0
  -18.9150  -28.6210   23.1760 C   0  0  0  0  0  0  0  0  0  0  0  0
  -18.6640  -29.8910   23.7390 C   0  0  0  0  0  3  0  0  0  0  0  0
  -17.3520  -30.3930   23.8300 C   0  0  0  0  0  3  0  0  0  0  0  0
  -16.2720  -29.6200   23.3700 C   0  0  0  0  0  3  0  0  0  0  0  0
  -16.5070  -28.3510   22.8110 C   0  0  0  0  0  3  0  0  0  0  0  0
  -25.6210  -32.3000   23.9650 C   0  0  0  0  0  3  0  0  0  0  0  0
  -26.0870  -31.5320   25.2620 C   0  0  1  0  0  0  0  0  0  0  0  0
  -24.9440  -31.2670   26.2700 C   0  0  0  0  0  1  0  0  0  0  0  0
  -26.7180  -30.1700   24.8910 C   0  0  0  0  0  1  0  0  0  0  0  0
  -27.1860  -32.3450   25.9840 C   0  0  0  0  0  1  0  0  0  0  0  0
  -25.2950  -33.6980   24.2790 N   0  0  0  0  0  0  0  0  0  0  0  0
  -25.6430  -34.7480   23.5230 C   0  0  0  0  0  0  0  0  0  0  0  0
  -26.3410  -34.6440   22.5110 O   0  0  0  0  0  0  0  0  0  0  0  0
  -24.6780  -33.8540   25.0620 H   0  0  0  0  0  0  0  0  0  0  0  0
  -23.9170  -36.5300   23.1150 C   0  0  0  0  0  1  0  0  0  0  0  0
  -25.1380  -36.1360   23.9600 C   0  0  0  0  0  3  0  0  0  0  0  0
  -27.2440  -37.0350   24.8430 C   0  0  0  0  0  1  0  0  0  0  0  0
  -26.1680  -37.1930   23.8700 N   0  0  0  0  0  0  0  0  0  0  0  0
  -25.7530  -38.1110   24.0040 H   0  0  0  0  0  0  0  0  0  0  0  0
  -30.8950  -15.6180   20.3400 C   0  0  1  0  0  0  0  0  0  0  0  0
  -30.8230  -14.4640   19.2050 C   0  0  0  0  0  0  0  0  0  0  0  0
  -30.1010  -12.3830   18.0170 C   0  0  0  0  0  2  0  0  0  0  0  0
  -28.9620  -12.6480   17.0110 C   0  0  0  0  0  2  0  0  0  0  0  0
  -27.5940  -12.5300   17.7040 C   0  0  0  0  0  2  0  0  0  0  0  0
  -27.5450  -13.3340   19.0260 C   0  0  0  0  0  3  0  0  0  0  0  0
  -28.7760  -13.0350   19.9030 C   0  0  0  0  0  2  0  0  0  0  0  0
  -29.9950  -13.3570   19.1390 N   0  0  0  0  0  0  0  0  0  0  0  0
  -31.6770  -14.5680   18.3170 O   0  0  0  0  0  0  0  0  0  0  0  0
  -25.3940  -14.0220   20.2540 C   0  0  0  0  0  0  0  0  0  0  0  0
  -24.3660  -13.2900   20.7830 C   0  0  0  0  0  0  0  0  0  0  0  0
  -24.7090  -11.9190   20.5750 C   0  0  0  0  0  0  0  0  0  0  0  0
  -26.2990  -13.1000   19.7530 N   0  0  0  0  0  0  0  0  0  0  0  0
  -25.9050  -11.8250   20.0050 N   0  0  0  0  0  0  0  0  0  0  0  0
  -23.9410  -10.6930   20.8310 C   0  0  0  0  0  0  0  0  0  0  0  0
  -24.4260   -9.6820   21.6920 C   0  0  0  0  0  3  0  0  0  0  0  0
  -23.6600   -8.5220   21.9360 C   0  0  0  0  0  3  0  0  0  0  0  0
  -22.3970   -8.3630   21.3190 C   0  0  0  0  0  0  0  0  0  0  0  0
  -21.9290   -9.3610   20.4470 C   0  0  0  0  0  3  0  0  0  0  0  0
  -22.6940  -10.5130   20.2000 C   0  0  0  0  0  3  0  0  0  0  0  0
  -21.5950   -7.2580   21.4770 O   0  0  0  0  0  0  0  0  0  0  0  0
  -21.5690   -6.5470   22.6510 C   0  0  0  0  0  0  0  0  0  0  0  0
  -21.2340   -7.1550   23.8820 C   0  0  0  0  0  3  0  0  0  0  0  0
  -21.1530   -6.3740   25.0530 C   0  0  0  0  0  3  0  0  0  0  0  0
  -21.3960   -4.9890   24.9950 C   0  0  0  0  0  0  0  0  0  0  0  0
  -21.7250   -4.3820   23.7690 C   0  0  0  0  0  3  0  0  0  0  0  0
  -21.8090   -5.1590   22.6000 C   0  0  0  0  0  0  0  0  0  0  0  0
  -22.1040   -4.5660   21.4190 F   0  0  0  0  0  0  0  0  0  0  0  0
  -21.3100   -4.2380   26.1180 F   0  0  0  0  0  0  0  0  0  0  0  0
  -23.0930  -13.8300   21.3670 C   0  0  0  0  0  0  0  0  0  0  0  0
  -22.5190  -13.1330   22.3420 N   0  0  0  0  0  0  0  0  0  0  0  0
  -22.6220  -14.9030   20.9930 O   0  0  0  0  0  0  0  0  0  0  0  0
  -22.9140  -12.2620   22.6650 H   0  0  0  0  0  0  0  0  0  0  0  0
  -21.6720  -13.4740   22.7720 H   0  0  0  0  0  0  0  0  0  0  0  0
  -25.6270  -15.3890   20.1360 N   0  0  0  0  0  0  0  0  0  0  0  0
  -24.9520  -16.0820   20.4430 H   0  0  0  0  0  0  0  0  0  0  0  0
  -26.4310  -15.7980   19.6750 H   0  0  0  0  0  0  0  0  0  0  0  0
  -32.7750  -17.3470   21.1940 C   0  0  0  0  0  1  0  0  0  0  0  0
  -32.4100  -16.0760   20.3870 C   0  0  0  0  0  2  0  0  0  0  0  0
  -30.5790  -15.1160   21.7970 C   0  0  0  0  0  2  0  0  0  0  0  0
  -31.2510  -13.8640   22.2230 N   0  0  0  0  0  4  0  0  0  0  0  0
  -30.9830  -13.0630   21.6810 H   0  0  0  0  0  0  0  0  0  0  0  0
  -31.0150  -13.6710   23.1810 H   0  0  0  0  0  0  0  0  0  0  0  0
  -32.2510  -13.9570   22.1850 H   0  0  0  0  0  0  0  0  0  0  0  0
  1  3  2  0
  1  5  1  0
  2  4  1  0
  3  6  1  0
  5  2  2  0
  6 54  1  0
  6  4  2  0
  7  5  1  0
  7  8  2  0
 11 10  1  6
 11  9  1  0
 11  8  1  0
 11 12  1  0
 13 12  1  0
 14 25  2  0
 15 13  1  0
 15 20  1  0
 16 24  1  0
 16 26  1  0
 17 19  1  0
 18 24  1  0
 19 20  2  0
 19 18  1  0
 21 15  2  0
 22 21  1  0
 22 17  2  0
 23 17  1  0
 23 16  1  0
 24 14  1  0
 26 28  2  0
 27 26  1  0
 29 27  1  0
 30 39  2  0
 30 35  1  0
 31 27  1  0
 31 35  1  0
 32 31  1  0
 33 34  1  0
 33 32  1  0
 34 30  1  0
 35 36  2  0
 36 37  1  0
 38 37  2  0
 39 38  1  0
 40 14  1  0
 40 45  1  0
 40 41  1  0
 41 44  1  1
 41 42  1  0
 43 41  1  0
 45 48  1  0
 46 50  1  0
 46 45  1  0
 47 46  2  0
 50 49  1  0
 52 50  1  0
 52 53  1  0
 52 51  1  0
 54 92  1  1
 54 93  1  0
 55 54  1  0
 56 61  1  0
 57 58  1  0
 57 56  1  0
 59 58  1  0
 59 66  1  0
 59 60  1  0
 61 55  1  0
 61 60  1  0
 62 55  2  0
 63 64  2  0
 64 83  1  0
 65 64  1  0
 65 68  1  0
 66 67  1  0
 66 63  1  0
 67 65  2  0
 68 69  1  0
 69 70  2  0
 71 74  1  0
 71 70  1  0
 72 71  2  0
 73 72  1  0
 73 68  2  0
 74 75  1  0
 75 76  1  0
 76 77  2  0
 78 77  1  0
 78 82  1  0
 79 78  2  0
 80 75  2  0
 80 79  1  0
 81 80  1  0
 83 84  1  0
 84 86  1  0
 84 87  1  0
 85 83  2  0
 88 63  1  0
 88 89  1  0
 90 88  1  0
 92 91  1  0
 93 94  1  0
 94 96  1  0
 95 94  1  0
 97 94  1  0
M  ISO  4  12 101  13 101  54 100  55 100
M  END
>  <TORSDO>  (72) 
F 24

>  <SCORE>  (72) 
-8.862

>  <name>  (72) 
72

>  <ligand_id>  (72) 
72

>  <original_smiles>  (72) 
[H]c1c([H])c([H])c2c(c1[H])C([H])([H])C([H])([H])C([H])([H])C2([H])N([H])C(=O)C1([H])N(C(=O)C([H])(N([H])C(=O)C([H])(N([H])C([H])([H])[H])C([H])([H])[H])C(C([H])([H])[H])(C([H])([H])[H])C([H])([H])[H])C([H])([H])c2c([H])c(OC([H])([H])C(C([H])([H])[H])(C([H])([H])[H])C([H])([H])C([H])([H])c3c([H])c([H])c(C(C(=O)N4C([H])([H])C([H])([H])C([H])([H])C([H])(n5nc(-c6c([H])c([H])c(Oc7c([H])c([H])c(F)c([H])c7F)c([H])c6[H])c(C(=O)N([H])[H])c5N([H])[H])C4([H])[H])(C([H])([H])C([H])([H])[H])C([H])([H])[N+]([H])([H])[H])c([H])c3[H])c([H])c([H])c2C1([H])[H]

>  <smiles>  (72) 
[H]c1c([H])c([H])c2c(c1[H])C([H])([H])C([H])([H])C([H])([H])C2([H])N([H])C(=O)C1([H])N(C(=O)C([H])(N([H])C(=O)C([H])(N([H])C([H])([H])[H])C([H])([H])[H])C(C([H])([H])[H])(C([H])([H])[H])C([H])([H])[H])C([H])([H])c2c([H])c(OC([H])([H])C(C([H])([H])[H])(C([H])([H])[H])C([H])([H])C([H])([H])c3c([H])c([H])c(C(C(=O)N4C([H])([H])C([H])([H])C([H])([H])C([H])(n5nc(-c6c([H])c([H])c(Oc7c([H])c([H])c(F)c([H])c7F)c([H])c6[H])c(C(=O)N([H])[H])c5N([H])[H])C4([H])[H])(C([H])([H])C([H])([H])[H])C([H])([H])[N+]([H])([H])[H])c([H])c3[H])c([H])c([H])c2C1([H])[H]

$$$$
73:0:0
     RDKit          3D

 95104  0  0  1  0  0  0  0  0999 V2000
  -27.3500  -22.6730   19.8750 C   0  0  0  0  0  2  0  0  0  0  0  0
  -26.8850  -21.2710   20.1930 C   0  0  0  0  0  2  0  0  0  0  0  0
  -29.6310  -21.7280   19.3830 C   0  0  0  0  0  2  0  0  0  0  0  0
  -28.8420  -22.7930   20.1990 C   0  0  0  0  0  3  0  0  0  0  0  0
  -27.6500  -20.2070   19.3830 C   0  0  0  0  0  3  0  0  0  0  0  0
  -29.1540  -20.3130   19.5580 N   0  0  1  0  0  4  0  0  0  0  0  0
  -29.3580  -20.0660   20.5160 H   0  0  0  0  0  0  0  0  0  0  0  0
  -25.7980  -18.4240   18.9800 C   0  0  0  0  0  1  0  0  0  0  0  0
  -27.0380  -18.8490   19.7920 C   0  0  0  0  0  2  0  0  0  0  0  0
  -29.2950  -24.2490   19.9320 C   0  0  0  0  0  2  0  0  0  0  0  0
  -28.7170  -25.2690   20.9430 C   0  0  0  0  0  2  0  0  0  0  0  0
  -28.7210  -26.5910   20.4110 O   0  0  0  0  0  0  0  0  0  0  0  0
  -24.6460  -31.7070   23.2080 C   0  0  0  0  0  0  0  0  0  0  0  0
  -27.5070  -27.2380   20.4000 C   0  0  0  0  0  0  0  0  0  0  0  0
  -23.5200  -30.2070   21.5910 C   0  0  0  0  0  3  0  0  0  0  0  0
  -25.0560  -28.6400   20.2870 C   0  0  0  0  0  0  0  0  0  0  0  0
  -26.0380  -30.6290   21.4480 C   0  0  0  0  0  2  0  0  0  0  0  0
  -26.1800  -29.2360   20.8740 C   0  0  0  0  0  0  0  0  0  0  0  0
  -27.4080  -28.5460   20.9160 C   0  0  0  0  0  3  0  0  0  0  0  0
  -26.3640  -26.6340   19.8300 C   0  0  0  0  0  3  0  0  0  0  0  0
  -25.1430  -27.3350   19.7650 C   0  0  0  0  0  3  0  0  0  0  0  0
  -23.7860  -29.4640   20.2540 C   0  0  0  0  0  2  0  0  0  0  0  0
  -24.7500  -30.8660   22.1410 N   0  0  0  0  0  0  0  0  0  0  0  0
  -23.5430  -31.9770   23.7050 O   0  0  0  0  0  0  0  0  0  0  0  0
  -22.8630  -29.2170   22.5780 C   0  0  0  0  0  0  0  0  0  0  0  0
  -21.5540  -28.9770   22.3990 N   0  0  0  0  0  0  0  0  0  0  0  0
  -23.5290  -28.6630   23.4560 O   0  0  0  0  0  0  0  0  0  0  0  0
  -21.0780  -29.4750   21.6580 H   0  0  0  0  0  0  0  0  0  0  0  0
  -18.2040  -27.6910   22.8110 C   0  0  0  0  0  0  0  0  0  0  0  0
  -20.7370  -28.0510   23.1800 C   0  0  0  0  0  3  0  0  0  0  0  0
  -20.9120  -26.5970   22.6830 C   0  0  0  0  0  2  0  0  0  0  0  0
  -19.8690  -26.1870   21.6400 C   0  0  0  0  0  2  0  0  0  0  0  0
  -18.4560  -26.3170   22.2140 C   0  0  0  0  0  2  0  0  0  0  0  0
  -19.2760  -28.5120   23.2500 C   0  0  0  0  0  0  0  0  0  0  0  0
  -18.9910  -29.7950   23.7630 C   0  0  0  0  0  3  0  0  0  0  0  0
  -17.6650  -30.2590   23.8450 C   0  0  0  0  0  3  0  0  0  0  0  0
  -16.6060  -29.4370   23.4240 C   0  0  0  0  0  3  0  0  0  0  0  0
  -16.8770  -28.1560   22.9120 C   0  0  0  0  0  3  0  0  0  0  0  0
  -25.9000  -32.3920   23.8380 C   0  0  0  0  0  3  0  0  0  0  0  0
  -25.5240  -33.7680   24.1840 N   0  0  0  0  0  0  0  0  0  0  0  0
  -25.7850  -34.8410   23.4240 C   0  0  0  0  0  0  0  0  0  0  0  0
  -26.4380  -34.7780   22.3780 O   0  0  0  0  0  0  0  0  0  0  0  0
  -24.9410  -33.8880   24.9990 H   0  0  0  0  0  0  0  0  0  0  0  0
  -23.9410  -36.5240   23.1340 C   0  0  0  0  0  1  0  0  0  0  0  0
  -25.2330  -36.1980   23.8990 C   0  0  0  0  0  3  0  0  0  0  0  0
  -27.3410  -37.2080   24.6500 C   0  0  0  0  0  1  0  0  0  0  0  0
  -26.1960  -37.3100   23.7490 N   0  0  0  0  0  0  0  0  0  0  0  0
  -25.7430  -38.2050   23.9130 H   0  0  0  0  0  0  0  0  0  0  0  0
  -26.4580  -31.6290   25.1030 C   0  0  1  0  0  0  0  0  0  0  0  0
  -25.3660  -31.2410   26.1250 C   0  0  0  0  0  1  0  0  0  0  0  0
  -27.1910  -30.3330   24.6800 C   0  0  0  0  0  1  0  0  0  0  0  0
  -27.5040  -32.5080   25.8280 C   0  0  0  0  0  1  0  0  0  0  0  0
  -29.9550  -19.3800   18.6730 C   0  0  0  0  0  2  0  0  0  0  0  0
  -30.9710  -18.4130   19.3880 C   0  0  0  0  0  2  0  0  0  0  0  0
  -31.8580  -14.7330   19.8270 C   0  0  0  0  0  0  0  0  0  0  0  0
  -31.3910  -12.4350   18.9940 C   0  0  0  0  0  2  0  0  0  0  0  0
  -30.4460  -12.4300   17.7660 C   0  0  0  0  0  2  0  0  0  0  0  0
  -28.9860  -12.8350   18.0830 C   0  0  0  0  0  2  0  0  0  0  0  0
  -28.7130  -12.9350   19.5820 C   0  0  0  0  0  3  0  0  0  0  0  0
  -29.8090  -13.3760   20.5600 C   0  0  0  0  0  2  0  0  0  0  0  0
  -31.0800  -13.6020   19.8500 N   0  0  0  0  0  0  0  0  0  0  0  0
  -32.9410  -14.7430   19.2420 O   0  0  0  0  0  0  0  0  0  0  0  0
  -29.2690  -16.6820   21.1120 C   0  0  0  0  0  2  0  0  0  0  0  0
  -29.2520  -16.5690   19.5670 C   0  0  0  0  0  2  0  0  0  0  0  0
  -30.6990  -16.2380   21.4860 C   0  0  0  0  0  2  0  0  0  0  0  0
  -30.6850  -16.8660   19.2100 C   0  0  0  0  0  3  0  0  0  0  0  0
  -31.3050  -15.9380   20.1880 N   0  0  0  0  0  0  0  0  0  0  0  0
  -26.3900  -14.1070   20.2400 C   0  0  0  0  0  0  0  0  0  0  0  0
  -25.2450  -13.4730   20.6550 C   0  0  0  0  0  0  0  0  0  0  0  0
  -25.5440  -12.0850   20.6260 C   0  0  0  0  0  0  0  0  0  0  0  0
  -27.3270  -13.0820   20.0270 N   0  0  0  0  0  0  0  0  0  0  0  0
  -26.7890  -11.8850   20.3020 N   0  0  0  0  0  0  0  0  0  0  0  0
  -24.7360  -10.8960   20.8250 C   0  0  0  0  0  0  0  0  0  0  0  0
  -25.1060   -9.9250   21.7800 C   0  0  0  0  0  3  0  0  0  0  0  0
  -24.3170   -8.7720   21.9520 C   0  0  0  0  0  3  0  0  0  0  0  0
  -23.1530   -8.5910   21.1690 C   0  0  0  0  0  0  0  0  0  0  0  0
  -22.8120   -9.5510   20.1980 C   0  0  0  0  0  3  0  0  0  0  0  0
  -23.6000  -10.6960   20.0220 C   0  0  0  0  0  3  0  0  0  0  0  0
  -22.3340   -7.4970   21.2610 O   0  0  0  0  0  0  0  0  0  0  0  0
  -22.0950   -6.8830   22.4630 C   0  0  0  0  0  0  0  0  0  0  0  0
  -21.5570   -7.5820   23.5650 C   0  0  0  0  0  3  0  0  0  0  0  0
  -21.2600   -6.8930   24.7580 C   0  0  0  0  0  3  0  0  0  0  0  0
  -21.4890   -5.5070   24.8450 C   0  0  0  0  0  0  0  0  0  0  0  0
  -22.0230   -4.8100   23.7480 C   0  0  0  0  0  3  0  0  0  0  0  0
  -22.3230   -5.4970   22.5590 C   0  0  0  0  0  0  0  0  0  0  0  0
  -22.8150   -4.8180   21.4950 F   0  0  0  0  0  0  0  0  0  0  0  0
  -21.1960   -4.8420   25.9890 F   0  0  0  0  0  0  0  0  0  0  0  0
  -23.9100  -14.0860   20.9690 C   0  0  0  0  0  0  0  0  0  0  0  0
  -23.1660  -13.4780   21.8880 N   0  0  0  0  0  0  0  0  0  0  0  0
  -23.5360  -15.1270   20.4330 O   0  0  0  0  0  0  0  0  0  0  0  0
  -23.4800  -12.6350   22.3430 H   0  0  0  0  0  0  0  0  0  0  0  0
  -22.2730  -13.8720   22.1460 H   0  0  0  0  0  0  0  0  0  0  0  0
  -26.6490  -15.4500   20.0280 N   0  0  0  0  0  0  0  0  0  0  0  0
  -25.9430  -16.1660   20.1490 H   0  0  0  0  0  0  0  0  0  0  0  0
  -27.5490  -15.8130   19.7420 H   0  0  0  0  0  0  0  0  0  0  0  0
  1  2  1  0
  1  4  1  0
  3  6  1  0
  3  4  1  0
  4 10  1  0
  5  6  1  0
  5  9  1  0
  5  2  1  0
  6  7  1  1
  8  9  1  0
 10 11  1  0
 12 11  1  0
 13 24  2  0
 14 12  1  0
 14 19  1  0
 15 23  1  0
 15 25  1  0
 16 18  1  0
 17 23  1  0
 18 19  2  0
 18 17  1  0
 20 14  2  0
 21 20  1  0
 21 16  2  0
 22 16  1  0
 22 15  1  0
 23 13  1  0
 25 27  2  0
 26 25  1  0
 28 26  1  0
 29 38  2  0
 29 34  1  0
 30 26  1  0
 30 34  1  0
 31 30  1  0
 32 33  1  0
 32 31  1  0
 33 29  1  0
 34 35  2  0
 35 36  1  0
 37 36  2  0
 38 37  1  0
 39 13  1  0
 39 40  1  0
 39 49  1  0
 40 43  1  0
 41 45  1  0
 41 40  1  0
 42 41  2  0
 45 44  1  0
 47 45  1  0
 47 48  1  0
 47 46  1  0
 49 52  1  1
 49 50  1  0
 51 49  1  0
 53 54  1  0
 53  6  1  0
 55 61  1  0
 55 67  1  0
 56 61  1  0
 57 58  1  0
 57 56  1  0
 59 58  1  0
 59 71  1  0
 59 60  1  0
 61 60  1  0
 62 55  2  0
 63 65  1  0
 64 63  1  0
 66 54  1  0
 66 64  1  0
 66 67  1  0
 67 65  1  0
 68 69  2  0
 69 88  1  0
 70 69  1  0
 70 73  1  0
 71 68  1  0
 71 72  1  0
 72 70  2  0
 73 74  1  0
 74 75  2  0
 76 79  1  0
 76 75  1  0
 77 76  2  0
 78 77  1  0
 78 73  2  0
 79 80  1  0
 80 85  2  0
 80 81  1  0
 81 82  2  0
 82 83  1  0
 83 87  1  0
 84 83  2  0
 85 84  1  0
 86 85  1  0
 88 89  1  0
 89 92  1  0
 89 91  1  0
 90 88  2  0
 93 94  1  0
 93 68  1  0
 95 93  1  0
M  ISO  4  11 101  12 101  55 100  67 100
M  END
>  <TORSDO>  (73) 
F 21

>  <SCORE>  (73) 
-11.173

>  <name>  (73) 
73

>  <ligand_id>  (73) 
73

>  <original_smiles>  (73) 
[H]c1c([H])c([H])c2c(c1[H])C([H])([H])C([H])([H])C([H])([H])C2([H])N([H])C(=O)C1([H])N(C(=O)C([H])(N([H])C(=O)C([H])(N([H])C([H])([H])[H])C([H])([H])[H])C(C([H])([H])[H])(C([H])([H])[H])C([H])([H])[H])C([H])([H])c2c([H])c(OC([H])([H])C([H])([H])C3([H])C([H])([H])C([H])([H])C([H])(C([H])([H])C([H])([H])[H])[N+]([H])(C([H])([H])C([H])([H])C4([H])N(C(=O)N5C([H])([H])C([H])([H])C([H])([H])C([H])(n6nc(-c7c([H])c([H])c(Oc8c([H])c([H])c(F)c([H])c8F)c([H])c7[H])c(C(=O)N([H])[H])c6N([H])[H])C5([H])[H])C([H])([H])C([H])([H])C4([H])[H])C3([H])[H])c([H])c([H])c2C1([H])[H]

>  <smiles>  (73) 
[H]c1c([H])c([H])c2c(c1[H])C([H])([H])C([H])([H])C([H])([H])C2([H])N([H])C(=O)C1([H])N(C(=O)C([H])(N([H])C(=O)C([H])(N([H])C([H])([H])[H])C([H])([H])[H])C(C([H])([H])[H])(C([H])([H])[H])C([H])([H])[H])C([H])([H])c2c([H])c(OC([H])([H])C([H])([H])C3([H])C([H])([H])C([H])([H])C([H])(C([H])([H])C([H])([H])[H])[N+]([H])(C([H])([H])C([H])([H])C4([H])N(C(=O)N5C([H])([H])C([H])([H])C([H])([H])C([H])(n6nc(-c7c([H])c([H])c(Oc8c([H])c([H])c(F)c([H])c8F)c([H])c7[H])c(C(=O)N([H])[H])c6N([H])[H])C5([H])[H])C([H])([H])C([H])([H])C4([H])[H])C3([H])[H])c([H])c([H])c2C1([H])[H]

$$$$
74:0:0
     RDKit          3D

 89 98  0  0  1  0  0  0  0  0999 V2000
  -32.1650  -19.8230   20.7010 C   0  0  0  0  0  2  0  0  0  0  0  0
  -30.6550  -21.6430   19.5220 C   0  0  0  0  0  2  0  0  0  0  0  0
  -31.4640  -21.1450   20.7010 C   0  0  0  0  0  3  0  0  0  0  0  0
  -30.7790  -19.9300   21.3060 C   0  0  0  0  0  3  0  0  0  0  0  0
  -29.1980  -21.3420   19.8950 C   0  0  0  0  0  3  0  0  0  0  0  0
  -29.4620  -19.7030   20.5760 C   0  0  0  0  0  3  0  0  0  0  0  0
  -30.2170  -18.1270   18.4410 C   0  0  0  0  0  1  0  0  0  0  0  0
  -29.5190  -18.0840   19.8100 C   0  0  0  0  0  0  0  0  0  0  0  0
  -30.4250  -15.2970   20.1650 C   0  0  0  0  0  0  0  0  0  0  0  0
  -30.3760  -12.8720   19.2860 C   0  0  0  0  0  2  0  0  0  0  0  0
  -29.4390  -12.7290   18.0600 C   0  0  0  0  0  2  0  0  0  0  0  0
  -27.9940  -12.4630   18.5140 C   0  0  0  0  0  2  0  0  0  0  0  0
  -27.5690  -13.4010   19.6710 C   0  0  0  0  0  3  0  0  0  0  0  0
  -28.6330  -13.5040   20.7870 C   0  0  0  0  0  2  0  0  0  0  0  0
  -29.8710  -13.9910   20.1600 N   0  0  0  0  0  0  0  0  0  0  0  0
  -31.6110  -15.3300   19.8050 O   0  0  0  0  0  0  0  0  0  0  0  0
  -29.6530  -16.5310   20.3860 N   0  0  0  0  0  4  0  0  0  0  0  0
  -28.7870  -16.2740   20.8380 H   0  0  0  0  0  0  0  0  0  0  0  0
  -25.1970  -13.9430   20.4370 C   0  0  0  0  0  0  0  0  0  0  0  0
  -24.1460  -13.1570   20.8220 C   0  0  0  0  0  0  0  0  0  0  0  0
  -24.6270  -11.8120   20.7950 C   0  0  0  0  0  0  0  0  0  0  0  0
  -26.2470  -13.0780   20.1900 N   0  0  0  0  0  0  0  0  0  0  0  0
  -25.9160  -11.7890   20.4710 N   0  0  0  0  0  0  0  0  0  0  0  0
  -23.9150  -10.5430   21.0000 C   0  0  0  0  0  0  0  0  0  0  0  0
  -24.3630   -9.5860   21.9370 C   0  0  0  0  0  3  0  0  0  0  0  0
  -23.6490   -8.3840   22.1310 C   0  0  0  0  0  3  0  0  0  0  0  0
  -22.4710   -8.1300   21.3900 C   0  0  0  0  0  0  0  0  0  0  0  0
  -22.0400   -9.0760   20.4420 C   0  0  0  0  0  3  0  0  0  0  0  0
  -22.7550  -10.2700   20.2460 C   0  0  0  0  0  3  0  0  0  0  0  0
  -21.7260   -6.9800   21.4930 O   0  0  0  0  0  0  0  0  0  0  0  0
  -21.6940   -6.2440   22.6510 C   0  0  0  0  0  0  0  0  0  0  0  0
  -21.2700   -6.8040   23.8760 C   0  0  0  0  0  3  0  0  0  0  0  0
  -21.1860   -5.9950   25.0270 C   0  0  0  0  0  3  0  0  0  0  0  0
  -21.5160   -4.6290   24.9540 C   0  0  0  0  0  0  0  0  0  0  0  0
  -21.9320   -4.0690   23.7330 C   0  0  0  0  0  3  0  0  0  0  0  0
  -22.0190   -4.8750   22.5850 C   0  0  0  0  0  0  0  0  0  0  0  0
  -22.4000   -4.3260   21.4060 F   0  0  0  0  0  0  0  0  0  0  0  0
  -21.4290   -3.8500   26.0580 F   0  0  0  0  0  0  0  0  0  0  0  0
  -22.7470  -13.6220   21.1000 C   0  0  0  0  0  0  0  0  0  0  0  0
  -22.0330  -12.9230   21.9750 N   0  0  0  0  0  0  0  0  0  0  0  0
  -22.2970  -14.6410   20.5780 O   0  0  0  0  0  0  0  0  0  0  0  0
  -22.4120  -12.0990   22.4170 H   0  0  0  0  0  0  0  0  0  0  0  0
  -21.0940  -13.2160   22.2060 H   0  0  0  0  0  0  0  0  0  0  0  0
  -25.3430  -15.3140   20.2480 N   0  0  0  0  0  0  0  0  0  0  0  0
  -24.5670  -15.9580   20.3530 H   0  0  0  0  0  0  0  0  0  0  0  0
  -26.1760  -15.7560   19.8800 H   0  0  0  0  0  0  0  0  0  0  0  0
  -28.6980  -22.9040   20.6010 C   0  0  0  0  0  2  0  0  0  0  0  0
  -28.2500  -24.4680   19.8740 C   0  0  0  0  0  2  0  0  0  0  0  0
  -28.2660  -26.0290   20.3520 O   0  0  0  0  0  0  0  0  0  0  0  0
  -24.6510  -31.9100   23.2560 C   0  0  0  0  0  0  0  0  0  0  0  0
  -27.2350  -27.0850   20.2330 C   0  0  0  0  0  0  0  0  0  0  0  0
  -23.4620  -30.5090   21.6180 C   0  0  0  0  0  3  0  0  0  0  0  0
  -24.9180  -28.9220   20.1870 C   0  0  0  0  0  0  0  0  0  0  0  0
  -26.0240  -30.7460   21.4660 C   0  0  0  0  0  2  0  0  0  0  0  0
  -26.0990  -29.3410   20.8090 C   0  0  0  0  0  0  0  0  0  0  0  0
  -27.2500  -28.4410   20.8130 C   0  0  0  0  0  3  0  0  0  0  0  0
  -26.0270  -26.8090   19.5520 C   0  0  0  0  0  3  0  0  0  0  0  0
  -24.9040  -27.6760   19.5410 C   0  0  0  0  0  3  0  0  0  0  0  0
  -23.6910  -29.8300   20.2390 C   0  0  0  0  0  2  0  0  0  0  0  0
  -24.7330  -31.0820   22.1670 N   0  0  0  0  0  0  0  0  0  0  0  0
  -23.5630  -32.1940   23.7810 O   0  0  0  0  0  0  0  0  0  0  0  0
  -22.7780  -29.5070   22.5830 C   0  0  0  0  0  0  0  0  0  0  0  0
  -21.4490  -29.3330   22.4570 N   0  0  0  0  0  0  0  0  0  0  0  0
  -23.4480  -28.8860   23.4120 O   0  0  0  0  0  0  0  0  0  0  0  0
  -20.9610  -29.8850   21.7650 H   0  0  0  0  0  0  0  0  0  0  0  0
  -18.0760  -28.0990   22.9570 C   0  0  0  0  0  0  0  0  0  0  0  0
  -20.6320  -28.3910   23.2300 C   0  0  0  0  0  3  0  0  0  0  0  0
  -20.7500  -26.9570   22.6610 C   0  0  0  0  0  2  0  0  0  0  0  0
  -19.6540  -26.6190   21.6440 C   0  0  0  0  0  2  0  0  0  0  0  0
  -18.2690  -26.7510   22.2830 C   0  0  0  0  0  2  0  0  0  0  0  0
  -19.1850  -28.8760   23.3870 C   0  0  0  0  0  0  0  0  0  0  0  0
  -18.9480  -30.1350   23.9790 C   0  0  0  0  0  3  0  0  0  0  0  0
  -17.6350  -30.6180   24.1450 C   0  0  0  0  0  3  0  0  0  0  0  0
  -16.5430  -29.8390   23.7290 C   0  0  0  0  0  3  0  0  0  0  0  0
  -16.7630  -28.5800   23.1410 C   0  0  0  0  0  3  0  0  0  0  0  0
  -25.9220  -32.5580   23.8870 C   0  0  0  0  0  3  0  0  0  0  0  0
  -26.4220  -31.8060   25.1830 C   0  0  1  0  0  0  0  0  0  0  0  0
  -25.3160  -31.5880   26.2440 C   0  0  0  0  0  1  0  0  0  0  0  0
  -27.0050  -30.4200   24.8280 C   0  0  0  0  0  1  0  0  0  0  0  0
  -27.5660  -32.6080   25.8450 C   0  0  0  0  0  1  0  0  0  0  0  0
  -25.6050  -33.9600   24.2060 N   0  0  0  0  0  0  0  0  0  0  0  0
  -25.9330  -35.0140   23.4460 C   0  0  0  0  0  0  0  0  0  0  0  0
  -26.6000  -34.9060   22.4140 O   0  0  0  0  0  0  0  0  0  0  0  0
  -25.0110  -34.1150   25.0080 H   0  0  0  0  0  0  0  0  0  0  0  0
  -24.2010  -36.8090   23.1030 C   0  0  0  0  0  1  0  0  0  0  0  0
  -25.4510  -36.4060   23.9020 C   0  0  0  0  0  3  0  0  0  0  0  0
  -27.5910  -37.3040   24.7080 C   0  0  0  0  0  1  0  0  0  0  0  0
  -26.4810  -37.4600   23.7730 N   0  0  0  0  0  0  0  0  0  0  0  0
  -26.0740  -38.3810   23.9150 H   0  0  0  0  0  0  0  0  0  0  0  0
  1  3  1  0
  2  5  1  0
  3  2  1  0
  3  4  1  0
  4  1  1  0
  5  6  1  0
  5 47  1  0
  6  8  1  0
  6  4  1  0
  7  8  1  0
  8 17  2  0
  9 17  1  0
 10 15  1  0
 11 12  1  0
 11 10  1  0
 13 12  1  0
 13 22  1  0
 13 14  1  0
 15  9  1  0
 15 14  1  0
 16  9  2  0
 17 18  1  0
 19 20  2  0
 20 39  1  0
 21 20  1  0
 21 24  1  0
 22 19  1  0
 22 23  1  0
 23 21  2  0
 24 25  1  0
 25 26  2  0
 27 30  1  0
 27 26  1  0
 28 27  2  0
 29 28  1  0
 29 24  2  0
 30 31  1  0
 31 32  1  0
 32 33  2  0
 34 33  1  0
 34 38  1  0
 35 34  2  0
 36 31  2  0
 36 35  1  0
 37 36  1  0
 39 40  1  0
 40 43  1  0
 40 42  1  0
 41 39  2  0
 44 45  1  0
 44 19  1  0
 46 44  1  0
 48 49  1  0
 48 47  1  0
 50 61  2  0
 51 49  1  0
 51 56  1  0
 52 60  1  0
 52 62  1  0
 53 59  1  0
 53 55  1  0
 54 60  1  0
 55 56  2  0
 55 54  1  0
 57 51  2  0
 58 57  1  0
 58 53  2  0
 59 52  1  0
 60 50  1  0
 62 64  2  0
 63 62  1  0
 65 63  1  0
 66 75  2  0
 66 71  1  0
 67 63  1  0
 67 71  1  0
 68 67  1  0
 69 70  1  0
 69 68  1  0
 70 66  1  0
 71 72  2  0
 72 73  1  0
 74 73  2  0
 75 74  1  0
 76 50  1  0
 76 81  1  0
 76 77  1  0
 77 80  1  1
 77 78  1  0
 79 77  1  0
 81 84  1  0
 82 86  1  0
 82 81  1  0
 83 82  2  0
 86 85  1  0
 88 86  1  0
 88 89  1  0
 88 87  1  0
M  ISO  4   9 100  17 100  48 101  49 101
M  END
>  <TORSDO>  (74) 
F 19

>  <SCORE>  (74) 
-15.795

>  <name>  (74) 
74

>  <ligand_id>  (74) 
74

>  <original_smiles>  (74) 
[H]c1c([H])c([H])c2c(c1[H])C([H])([H])C([H])([H])C([H])([H])C2([H])N([H])C(=O)C1([H])N(C(=O)C([H])(N([H])C(=O)C([H])(N([H])C([H])([H])[H])C([H])([H])[H])C(C([H])([H])[H])(C([H])([H])[H])C([H])([H])[H])C([H])([H])c2c([H])c(OC([H])([H])C([H])([H])C3([H])C([H])([H])C4([H])C([H])([H])C4([H])C3([H])C([H])(N([H])C(=O)N3C([H])([H])C([H])([H])C([H])([H])C([H])(n4nc(-c5c([H])c([H])c(Oc6c([H])c([H])c(F)c([H])c6F)c([H])c5[H])c(C(=O)N([H])[H])c4N([H])[H])C3([H])[H])C([H])([H])[H])c([H])c([H])c2C1([H])[H]

>  <smiles>  (74) 
[H]c1c([H])c([H])c2c(c1[H])C([H])([H])C([H])([H])C([H])([H])C2([H])N([H])C(=O)C1([H])N(C(=O)C([H])(N([H])C(=O)C([H])(N([H])C([H])([H])[H])C([H])([H])[H])C(C([H])([H])[H])(C([H])([H])[H])C([H])([H])[H])C([H])([H])c2c([H])c(OC([H])([H])C([H])([H])C3([H])C([H])([H])C4([H])C([H])([H])C4([H])C3([H])C([H])(N([H])C(=O)N3C([H])([H])C([H])([H])C([H])([H])C([H])(n4nc(-c5c([H])c([H])c(Oc6c([H])c([H])c(F)c([H])c6F)c([H])c5[H])c(C(=O)N([H])[H])c4N([H])[H])C3([H])[H])C([H])([H])[H])c([H])c([H])c2C1([H])[H]

$$$$
75:0:0
     RDKit          3D

 91100  0  0  1  0  0  0  0  0999 V2000
  -29.8520  -20.5800   19.5630 C   0  0  0  0  0  0  0  0  0  0  0  0
  -28.9930  -21.7060   19.7430 N   0  0  0  0  0  0  0  0  0  0  0  0
  -31.0620  -20.7970   19.5360 O   0  0  0  0  0  0  0  0  0  0  0  0
  -28.0080  -21.4730   19.7320 H   0  0  0  0  0  0  0  0  0  0  0  0
  -27.2550  -17.5600   20.1780 C   0  0  0  0  0  2  0  0  0  0  0  0
  -28.4500  -18.8430   18.1950 C   0  0  0  0  0  2  0  0  0  0  0  0
  -27.2770  -18.6380   19.1220 C   0  0  0  0  0  3  0  0  0  0  0  0
  -28.2110  -18.7280   20.3070 C   0  0  0  0  0  3  0  0  0  0  0  0
  -29.4080  -18.9720   19.3900 C   0  0  2  0  0  0  0  0  0  0  0  0
  -30.5140  -17.7000   19.5670 C   0  0  0  0  0  2  0  0  0  0  0  0
  -30.9270  -14.9870   19.8490 C   0  0  0  0  0  0  0  0  0  0  0  0
  -30.7990  -12.5530   19.1570 C   0  0  0  0  0  2  0  0  0  0  0  0
  -29.8480  -12.3660   17.9510 C   0  0  0  0  0  2  0  0  0  0  0  0
  -28.3960  -12.1860   18.4280 C   0  0  0  0  0  2  0  0  0  0  0  0
  -27.9930  -13.2350   19.4960 C   0  0  0  0  0  3  0  0  0  0  0  0
  -29.0610  -13.3910   20.6010 C   0  0  0  0  0  2  0  0  0  0  0  0
  -30.3240  -13.7340   19.9370 N   0  0  0  0  0  0  0  0  0  0  0  0
  -32.1200  -15.0180   19.5350 O   0  0  0  0  0  0  0  0  0  0  0  0
  -30.1620  -16.1870   19.9030 N   0  0  0  0  0  0  0  0  0  0  0  0
  -29.1960  -16.0360   20.1470 H   0  0  0  0  0  0  0  0  0  0  0  0
  -25.6630  -13.8940   20.3230 C   0  0  0  0  0  0  0  0  0  0  0  0
  -24.5850  -13.1530   20.7220 C   0  0  0  0  0  0  0  0  0  0  0  0
  -24.9990  -11.7870   20.6640 C   0  0  0  0  0  0  0  0  0  0  0  0
  -26.6650  -12.9800   20.0410 N   0  0  0  0  0  0  0  0  0  0  0  0
  -26.2760  -11.7070   20.3120 N   0  0  0  0  0  0  0  0  0  0  0  0
  -24.2320  -10.5500   20.8660 C   0  0  0  0  0  0  0  0  0  0  0  0
  -24.6090   -9.5980   21.8390 C   0  0  0  0  0  3  0  0  0  0  0  0
  -23.8430   -8.4270   22.0290 C   0  0  0  0  0  3  0  0  0  0  0  0
  -22.6870   -8.2000   21.2450 C   0  0  0  0  0  0  0  0  0  0  0  0
  -22.3310   -9.1390   20.2600 C   0  0  0  0  0  3  0  0  0  0  0  0
  -23.0960  -10.3010   20.0690 C   0  0  0  0  0  3  0  0  0  0  0  0
  -21.8980   -7.0790   21.3400 O   0  0  0  0  0  0  0  0  0  0  0  0
  -21.7170   -6.4270   22.5330 C   0  0  0  0  0  0  0  0  0  0  0  0
  -21.1840   -7.0800   23.6660 C   0  0  0  0  0  3  0  0  0  0  0  0
  -20.9490   -6.3550   24.8520 C   0  0  0  0  0  3  0  0  0  0  0  0
  -21.2370   -4.9770   24.9040 C   0  0  0  0  0  0  0  0  0  0  0  0
  -21.7630   -4.3240   23.7750 C   0  0  0  0  0  3  0  0  0  0  0  0
  -21.9990   -5.0470   22.5930 C   0  0  0  0  0  0  0  0  0  0  0  0
  -22.4850   -4.4080   21.5020 F   0  0  0  0  0  0  0  0  0  0  0  0
  -21.0070   -4.2790   26.0410 F   0  0  0  0  0  0  0  0  0  0  0  0
  -23.2160  -13.6770   21.0430 C   0  0  0  0  0  0  0  0  0  0  0  0
  -22.5050  -13.0150   21.9470 N   0  0  0  0  0  0  0  0  0  0  0  0
  -22.7900  -14.7090   20.5250 O   0  0  0  0  0  0  0  0  0  0  0  0
  -22.8650  -12.1800   22.3860 H   0  0  0  0  0  0  0  0  0  0  0  0
  -21.5870  -13.3480   22.2060 H   0  0  0  0  0  0  0  0  0  0  0  0
  -25.8710  -15.2590   20.1480 N   0  0  0  0  0  0  0  0  0  0  0  0
  -25.1280  -15.9370   20.2800 H   0  0  0  0  0  0  0  0  0  0  0  0
  -26.7100  -15.6680   19.7590 H   0  0  0  0  0  0  0  0  0  0  0  0
  -29.2940  -23.2410   20.0370 C   0  0  0  0  0  3  0  0  0  0  0  0
  -28.1650  -24.5040   20.0680 C   0  0  0  0  0  3  0  0  0  0  0  0
  -28.4140  -26.0460   20.2370 O   0  0  0  0  0  0  0  0  0  0  0  0
  -24.6330  -31.6400   23.2610 C   0  0  0  0  0  0  0  0  0  0  0  0
  -27.3490  -27.0250   20.1850 C   0  0  0  0  0  0  0  0  0  0  0  0
  -23.5020  -30.2860   21.5430 C   0  0  0  0  0  3  0  0  0  0  0  0
  -25.0080  -28.7620   20.1250 C   0  0  0  0  0  0  0  0  0  0  0  0
  -26.0580  -30.5700   21.4730 C   0  0  0  0  0  2  0  0  0  0  0  0
  -26.1640  -29.2000   20.7810 C   0  0  0  0  0  0  0  0  0  0  0  0
  -27.3380  -28.3510   20.7890 C   0  0  0  0  0  3  0  0  0  0  0  0
  -26.1620  -26.6990   19.4910 C   0  0  0  0  0  3  0  0  0  0  0  0
  -25.0220  -27.5270   19.4650 C   0  0  0  0  0  3  0  0  0  0  0  0
  -23.7690  -29.6440   20.1570 C   0  0  0  0  0  2  0  0  0  0  0  0
  -24.7490  -30.8530   22.1470 N   0  0  0  0  0  0  0  0  0  0  0  0
  -23.5280  -31.9010   23.7600 O   0  0  0  0  0  0  0  0  0  0  0  0
  -22.7950  -29.2510   22.4530 C   0  0  0  0  0  0  0  0  0  0  0  0
  -21.4750  -29.0700   22.2690 N   0  0  0  0  0  0  0  0  0  0  0  0
  -23.4390  -28.6120   23.2890 O   0  0  0  0  0  0  0  0  0  0  0  0
  -21.0140  -29.6250   21.5590 H   0  0  0  0  0  0  0  0  0  0  0  0
  -18.0860  -27.8500   22.6510 C   0  0  0  0  0  0  0  0  0  0  0  0
  -20.6370  -28.1060   22.9850 C   0  0  0  0  0  3  0  0  0  0  0  0
  -20.7550  -26.6970   22.3590 C   0  0  0  0  0  2  0  0  0  0  0  0
  -19.6770  -26.4110   21.3090 C   0  0  0  0  0  2  0  0  0  0  0  0
  -18.2800  -26.5300   21.9250 C   0  0  0  0  0  2  0  0  0  0  0  0
  -19.1920  -28.5980   23.1350 C   0  0  0  0  0  0  0  0  0  0  0  0
  -18.9570  -29.8350   23.7730 C   0  0  0  0  0  3  0  0  0  0  0  0
  -17.6460  -30.3230   23.9340 C   0  0  0  0  0  3  0  0  0  0  0  0
  -16.5530  -29.5730   23.4650 C   0  0  0  0  0  3  0  0  0  0  0  0
  -16.7750  -28.3380   22.8280 C   0  0  0  0  0  3  0  0  0  0  0  0
  -25.8840  -32.2670   23.9490 C   0  0  0  0  0  3  0  0  0  0  0  0
  -26.3080  -31.5150   25.2720 C   0  0  1  0  0  0  0  0  0  0  0  0
  -25.1480  -31.3070   26.2730 C   0  0  0  0  0  1  0  0  0  0  0  0
  -26.9020  -30.1240   24.9510 C   0  0  0  0  0  1  0  0  0  0  0  0
  -27.4220  -32.3110   25.9950 C   0  0  0  0  0  1  0  0  0  0  0  0
  -25.5750  -33.6760   24.2400 N   0  0  0  0  0  0  0  0  0  0  0  0
  -25.9460  -34.7150   23.4810 C   0  0  0  0  0  0  0  0  0  0  0  0
  -26.6520  -34.5890   22.4760 O   0  0  0  0  0  0  0  0  0  0  0  0
  -24.9540  -33.8470   25.0170 H   0  0  0  0  0  0  0  0  0  0  0  0
  -24.2440  -36.5200   23.0570 C   0  0  0  0  0  1  0  0  0  0  0  0
  -25.4620  -36.1170   23.9030 C   0  0  0  0  0  3  0  0  0  0  0  0
  -27.5810  -37.0050   24.7700 C   0  0  0  0  0  1  0  0  0  0  0  0
  -26.5060  -37.1600   23.7940 N   0  0  0  0  0  0  0  0  0  0  0  0
  -26.1040  -38.0870   23.9090 H   0  0  0  0  0  0  0  0  0  0  0  0
  1  2  1  0
  2 49  1  0
  3  1  2  0
  4  2  1  0
  6  9  1  0
  7  6  1  0
  7  5  1  0
  7  8  1  0
  8  5  1  0
  9  1  1  0
  9 10  1  6
  9  8  1  0
 10 19  1  0
 11 19  1  0
 11 17  1  0
 12 17  1  0
 13 14  1  0
 13 12  1  0
 15 14  1  0
 15 24  1  0
 15 16  1  0
 17 16  1  0
 18 11  2  0
 19 20  1  0
 21 22  2  0
 22 41  1  0
 23 22  1  0
 23 26  1  0
 24 25  1  0
 24 21  1  0
 25 23  2  0
 26 27  1  0
 27 28  2  0
 29 32  1  0
 29 28  1  0
 30 29  2  0
 31 30  1  0
 31 26  2  0
 32 33  1  0
 33 38  2  0
 33 34  1  0
 34 35  2  0
 35 36  1  0
 36 40  1  0
 37 36  2  0
 38 37  1  0
 39 38  1  0
 41 42  1  0
 42 45  1  0
 42 44  1  0
 43 41  2  0
 46 47  1  0
 46 21  1  0
 48 46  1  0
 49 50  2  0
 50 51  1  0
 52 63  2  0
 53 51  1  0
 53 58  1  0
 54 62  1  0
 54 64  1  0
 55 61  1  0
 55 57  1  0
 56 62  1  0
 57 58  2  0
 57 56  1  0
 59 53  2  0
 60 59  1  0
 60 55  2  0
 61 54  1  0
 62 52  1  0
 64 66  2  0
 65 64  1  0
 67 65  1  0
 68 77  2  0
 68 73  1  0
 69 65  1  0
 69 73  1  0
 70 69  1  0
 71 72  1  0
 71 70  1  0
 72 68  1  0
 73 74  2  0
 74 75  1  0
 76 75  2  0
 77 76  1  0
 78 52  1  0
 78 83  1  0
 78 79  1  0
 79 82  1  1
 79 80  1  0
 81 79  1  0
 83 86  1  0
 84 88  1  0
 84 83  1  0
 85 84  2  0
 88 87  1  0
 90 88  1  0
 90 91  1  0
 90 89  1  0
M  ISO  4  11 100  19 100  50 101  51 101
M  END
>  <TORSDO>  (75) 
F 20

>  <SCORE>  (75) 
-14.958

>  <name>  (75) 
75

>  <ligand_id>  (75) 
75

>  <original_smiles>  (75) 
[H]c1c([H])c([H])c2c(c1[H])C([H])([H])C([H])([H])C([H])([H])C2([H])N([H])C(=O)C1([H])N(C(=O)C([H])(N([H])C(=O)C([H])(N([H])C([H])([H])[H])C([H])([H])[H])C(C([H])([H])[H])(C([H])([H])[H])C([H])([H])[H])C([H])([H])c2c([H])c(OC([H])([H])C([H])([H])N([H])C(=O)C3(C([H])([H])N([H])C(=O)N4C([H])([H])C([H])([H])C([H])([H])C([H])(n5nc(-c6c([H])c([H])c(Oc7c([H])c([H])c(F)c([H])c7F)c([H])c6[H])c(C(=O)N([H])[H])c5N([H])[H])C4([H])[H])C([H])([H])C4([H])C([H])([H])C43[H])c([H])c([H])c2C1([H])[H]

>  <smiles>  (75) 
[H]c1c([H])c([H])c2c(c1[H])C([H])([H])C([H])([H])C([H])([H])C2([H])N([H])C(=O)C1([H])N(C(=O)C([H])(N([H])C(=O)C([H])(N([H])C([H])([H])[H])C([H])([H])[H])C(C([H])([H])[H])(C([H])([H])[H])C([H])([H])[H])C([H])([H])c2c([H])c(OC([H])([H])C([H])([H])N([H])C(=O)C3(C([H])([H])N([H])C(=O)N4C([H])([H])C([H])([H])C([H])([H])C([H])(n5nc(-c6c([H])c([H])c(Oc7c([H])c([H])c(F)c([H])c7F)c([H])c6[H])c(C(=O)N([H])[H])c5N([H])[H])C4([H])[H])C([H])([H])C4([H])C([H])([H])C43[H])c([H])c([H])c2C1([H])[H]

$$$$
76:0:0
     RDKit          3D

 93101  0  0  1  0  0  0  0  0999 V2000
  -25.9190  -23.2760   21.5230 C   0  0  0  0  0  3  0  0  0  0  0  0
  -26.1070  -21.9060   21.3750 C   0  0  0  0  0  3  0  0  0  0  0  0
  -26.8830  -24.1630   21.0230 C   0  0  0  0  0  3  0  0  0  0  0  0
  -27.2800  -21.4330   20.7930 C   0  0  0  0  0  3  0  0  0  0  0  0
  -28.0990  -23.7620   20.4080 C   0  0  0  0  0  0  0  0  0  0  0  0
  -28.3620  -22.2440   20.3560 C   0  0  0  0  0  0  0  0  0  0  0  0
  -28.8110  -25.1230   19.8060 C   0  0  0  0  0  2  0  0  0  0  0  0
  -28.6760  -26.6040   20.3490 O   0  0  0  0  0  0  0  0  0  0  0  0
  -24.7370  -32.0300   23.4100 C   0  0  0  0  0  0  0  0  0  0  0  0
  -27.5880  -27.5530   20.2360 C   0  0  0  0  0  0  0  0  0  0  0  0
  -23.6510  -30.6660   21.6670 C   0  0  0  0  0  3  0  0  0  0  0  0
  -25.2030  -29.2250   20.2070 C   0  0  0  0  0  0  0  0  0  0  0  0
  -26.2000  -31.0420   21.6030 C   0  0  0  0  0  2  0  0  0  0  0  0
  -26.3460  -29.6880   20.8740 C   0  0  0  0  0  0  0  0  0  0  0  0
  -27.5370  -28.8650   20.8690 C   0  0  0  0  0  3  0  0  0  0  0  0
  -26.4210  -27.2010   19.5310 C   0  0  0  0  0  3  0  0  0  0  0  0
  -25.2560  -28.0000   19.5230 C   0  0  0  0  0  3  0  0  0  0  0  0
  -23.9370  -30.0650   20.2640 C   0  0  0  0  0  2  0  0  0  0  0  0
  -24.8800  -31.2700   22.2800 N   0  0  0  0  0  0  0  0  0  0  0  0
  -23.6230  -32.2410   23.9150 O   0  0  0  0  0  0  0  0  0  0  0  0
  -22.9970  -29.5830   22.5610 C   0  0  0  0  0  0  0  0  0  0  0  0
  -21.6890  -29.3360   22.3720 N   0  0  0  0  0  0  0  0  0  0  0  0
  -23.6740  -28.9660   23.3870 O   0  0  0  0  0  0  0  0  0  0  0  0
  -21.1990  -29.8940   21.6860 H   0  0  0  0  0  0  0  0  0  0  0  0
  -18.3700  -27.9040   22.6680 C   0  0  0  0  0  0  0  0  0  0  0  0
  -20.8940  -28.3200   23.0670 C   0  0  0  0  0  3  0  0  0  0  0  0
  -21.1120  -26.9160   22.4540 C   0  0  0  0  0  2  0  0  0  0  0  0
  -20.0820  -26.5600   21.3770 C   0  0  0  0  0  2  0  0  0  0  0  0
  -18.6650  -26.5950   21.9540 C   0  0  0  0  0  2  0  0  0  0  0  0
  -19.4160  -28.7200   23.1750 C   0  0  0  0  0  0  0  0  0  0  0  0
  -19.0850  -29.9420   23.8010 C   0  0  0  0  0  3  0  0  0  0  0  0
  -17.7430  -30.3480   23.9270 C   0  0  0  0  0  3  0  0  0  0  0  0
  -16.7130  -29.5320   23.4300 C   0  0  0  0  0  3  0  0  0  0  0  0
  -17.0260  -28.3110   22.8070 C   0  0  0  0  0  3  0  0  0  0  0  0
  -25.9670  -32.6950   24.1020 C   0  0  0  0  0  3  0  0  0  0  0  0
  -25.6130  -34.0930   24.4020 N   0  0  0  0  0  0  0  0  0  0  0  0
  -25.9540  -35.1470   23.6500 C   0  0  0  0  0  0  0  0  0  0  0  0
  -26.6670  -35.0470   22.6470 O   0  0  0  0  0  0  0  0  0  0  0  0
  -24.9910  -34.2410   25.1830 H   0  0  0  0  0  0  0  0  0  0  0  0
  -24.1950  -36.8920   23.2160 C   0  0  0  0  0  1  0  0  0  0  0  0
  -25.4180  -36.5300   24.0730 C   0  0  0  0  0  3  0  0  0  0  0  0
  -27.4980  -37.4820   24.9660 C   0  0  0  0  0  1  0  0  0  0  0  0
  -26.4290  -37.6060   23.9780 N   0  0  0  0  0  0  0  0  0  0  0  0
  -25.9960  -38.5170   24.0950 H   0  0  0  0  0  0  0  0  0  0  0  0
  -26.4060  -31.9510   25.4250 C   0  0  1  0  0  0  0  0  0  0  0  0
  -25.2400  -31.6940   26.4100 C   0  0  0  0  0  1  0  0  0  0  0  0
  -27.0520  -30.5850   25.1020 C   0  0  0  0  0  1  0  0  0  0  0  0
  -27.4820  -32.7810   26.1610 C   0  0  0  0  0  1  0  0  0  0  0  0
  -29.6180  -21.2160   20.0010 C   0  0  0  0  0  3  0  0  0  0  0  0
  -30.7300  -21.7000   20.8190 N   0  0  0  0  0  4  0  0  0  0  0  0
  -30.4910  -21.6120   21.7890 H   0  0  0  0  0  0  0  0  0  0  0  0
  -30.8740  -22.6700   20.6110 H   0  0  0  0  0  0  0  0  0  0  0  0
  -31.5840  -21.2090   20.6300 H   0  0  0  0  0  0  0  0  0  0  0  0
  -29.4710  -19.4970   20.1980 C   0  0  0  0  0  3  0  0  0  0  0  0
  -30.5890  -18.2200   20.1260 C   0  0  0  0  0  3  0  0  0  0  0  0
  -31.0190  -15.4910   20.4030 C   0  0  0  0  0  0  0  0  0  0  0  0
  -30.9320  -13.0970   19.5810 C   0  0  0  0  0  2  0  0  0  0  0  0
  -30.0520  -12.9990   18.3150 C   0  0  0  0  0  2  0  0  0  0  0  0
  -28.5700  -12.8020   18.6860 C   0  0  0  0  0  2  0  0  0  0  0  0
  -28.1090  -13.7620   19.8140 C   0  0  0  0  0  3  0  0  0  0  0  0
  -29.1240  -13.8470   20.9780 C   0  0  0  0  0  2  0  0  0  0  0  0
  -30.4170  -14.2300   20.3970 N   0  0  0  0  0  0  0  0  0  0  0  0
  -32.2350  -15.5340   20.2050 O   0  0  0  0  0  0  0  0  0  0  0  0
  -30.2440  -16.6870   20.3940 N   0  0  0  0  0  0  0  0  0  0  0  0
  -29.2600  -16.5030   20.5180 H   0  0  0  0  0  0  0  0  0  0  0  0
  -25.7130  -14.3440   20.4910 C   0  0  0  0  0  0  0  0  0  0  0  0
  -24.6240  -13.5700   20.8020 C   0  0  0  0  0  0  0  0  0  0  0  0
  -25.0770  -12.2140   20.7520 C   0  0  0  0  0  0  0  0  0  0  0  0
  -26.7540  -13.4610   20.2680 N   0  0  0  0  0  0  0  0  0  0  0  0
  -26.3790  -12.1720   20.4910 N   0  0  0  0  0  0  0  0  0  0  0  0
  -24.3270  -10.9560   20.8790 C   0  0  0  0  0  0  0  0  0  0  0  0
  -24.6610   -9.9920   21.8560 C   0  0  0  0  0  3  0  0  0  0  0  0
  -23.9120   -8.8030   21.9720 C   0  0  0  0  0  3  0  0  0  0  0  0
  -22.8160   -8.5630   21.1080 C   0  0  0  0  0  0  0  0  0  0  0  0
  -22.5020   -9.5170   20.1220 C   0  0  0  0  0  3  0  0  0  0  0  0
  -23.2530  -10.6980   20.0040 C   0  0  0  0  0  3  0  0  0  0  0  0
  -22.0450   -7.4270   21.1340 O   0  0  0  0  0  0  0  0  0  0  0  0
  -21.7970   -6.7490   22.3030 C   0  0  0  0  0  0  0  0  0  0  0  0
  -21.1660   -7.3680   23.4030 C   0  0  0  0  0  3  0  0  0  0  0  0
  -20.8690   -6.6170   24.5570 C   0  0  0  0  0  3  0  0  0  0  0  0
  -21.1920   -5.2490   24.6110 C   0  0  0  0  0  0  0  0  0  0  0  0
  -21.8110   -4.6270   23.5130 C   0  0  0  0  0  3  0  0  0  0  0  0
  -22.1110   -5.3760   22.3600 C   0  0  0  0  0  0  0  0  0  0  0  0
  -22.6920   -4.7670   21.2980 F   0  0  0  0  0  0  0  0  0  0  0  0
  -20.8970   -4.5260   25.7170 F   0  0  0  0  0  0  0  0  0  0  0  0
  -23.2260  -14.0550   21.0330 C   0  0  0  0  0  0  0  0  0  0  0  0
  -22.4640  -13.3530   21.8670 N   0  0  0  0  0  0  0  0  0  0  0  0
  -22.8140  -15.0930   20.5130 O   0  0  0  0  0  0  0  0  0  0  0  0
  -22.8110  -12.5140   22.3050 H   0  0  0  0  0  0  0  0  0  0  0  0
  -21.5220  -13.6590   22.0660 H   0  0  0  0  0  0  0  0  0  0  0  0
  -25.8960  -15.7150   20.3450 N   0  0  0  0  0  0  0  0  0  0  0  0
  -25.1310  -16.3760   20.4160 H   0  0  0  0  0  0  0  0  0  0  0  0
  -26.7460  -16.1380   19.9960 H   0  0  0  0  0  0  0  0  0  0  0  0
  2  1  1  0
  3  1  2  0
  4  2  2  0
  5  3  1  0
  6  5  2  0
  6  4  1  0
  7  8  1  0
  7  5  1  0
  9 20  2  0
 10  8  1  0
 10 15  1  0
 11 19  1  0
 11 21  1  0
 12 18  1  0
 12 14  1  0
 13 19  1  0
 14 13  1  0
 15 14  2  0
 16 10  2  0
 17 16  1  0
 17 12  2  0
 18 11  1  0
 19  9  1  0
 21 23  2  0
 22 21  1  0
 24 22  1  0
 25 34  2  0
 25 30  1  0
 26 22  1  0
 26 30  1  0
 27 26  1  0
 28 29  1  0
 28 27  1  0
 29 25  1  0
 30 31  2  0
 31 32  1  0
 33 32  2  0
 34 33  1  0
 35  9  1  0
 35 36  1  0
 35 45  1  0
 36 39  1  0
 37 41  1  0
 37 36  1  0
 38 37  2  0
 41 40  1  0
 43 41  1  0
 43 44  1  0
 43 42  1  0
 45 48  1  1
 45 46  1  0
 47 45  1  0
 49 54  1  0
 49  6  1  0
 49 50  1  0
 50 51  1  0
 52 50  1  0
 53 50  1  0
 55 54  2  0
 55 64  1  0
 57 62  1  0
 58 59  1  0
 58 57  1  0
 60 59  1  0
 60 69  1  0
 60 61  1  0
 62 56  1  0
 62 61  1  0
 63 56  2  0
 64 56  1  0
 64 65  1  0
 66 67  2  0
 67 86  1  0
 68 67  1  0
 68 71  1  0
 69 70  1  0
 69 66  1  0
 70 68  2  0
 71 72  1  0
 72 73  2  0
 74 77  1  0
 74 73  1  0
 75 74  2  0
 76 75  1  0
 76 71  2  0
 77 78  1  0
 78 83  2  0
 78 79  1  0
 79 80  2  0
 80 81  1  0
 81 85  1  0
 82 81  2  0
 83 82  1  0
 84 83  1  0
 86 87  1  0
 87 90  1  0
 87 89  1  0
 88 86  2  0
 91 92  1  0
 91 66  1  0
 93 91  1  0
M  ISO  4   7 101   8 101  56 100  64 100
M  END
>  <TORSDO>  (76) 
F 21

>  <SCORE>  (76) 
-11.245

>  <name>  (76) 
76

>  <ligand_id>  (76) 
76

>  <original_smiles>  (76) 
[H]c1c([H])c([H])c(C([H])(C([H])([H])C([H])([H])N([H])C(=O)N2C([H])([H])C([H])([H])C([H])([H])C([H])(n3nc(-c4c([H])c([H])c(Oc5c([H])c([H])c(F)c([H])c5F)c([H])c4[H])c(C(=O)N([H])[H])c3N([H])[H])C2([H])[H])[N+]([H])([H])[H])c(C([H])([H])Oc2c([H])c([H])c3c(c2[H])C([H])([H])N(C(=O)C([H])(N([H])C(=O)C([H])(N([H])C([H])([H])[H])C([H])([H])[H])C(C([H])([H])[H])(C([H])([H])[H])C([H])([H])[H])C([H])(C(=O)N([H])C2([H])c4c([H])c([H])c([H])c([H])c4C([H])([H])C([H])([H])C2([H])[H])C3([H])[H])c1[H]

>  <smiles>  (76) 
[H]c1c([H])c([H])c(C([H])(C([H])([H])C([H])([H])N([H])C(=O)N2C([H])([H])C([H])([H])C([H])([H])C([H])(n3nc(-c4c([H])c([H])c(Oc5c([H])c([H])c(F)c([H])c5F)c([H])c4[H])c(C(=O)N([H])[H])c3N([H])[H])C2([H])[H])[N+]([H])([H])[H])c(C([H])([H])Oc2c([H])c([H])c3c(c2[H])C([H])([H])N(C(=O)C([H])(N([H])C(=O)C([H])(N([H])C([H])([H])[H])C([H])([H])[H])C(C([H])([H])[H])(C([H])([H])[H])C([H])([H])[H])C([H])(C(=O)N([H])C2([H])c4c([H])c([H])c([H])c([H])c4C([H])([H])C([H])([H])C2([H])[H])C3([H])[H])c1[H]

$$$$
77:0:0
     RDKit          3D

 90 97  0  0  1  0  0  0  0  0999 V2000
  -29.0100  -22.9340   20.7480 N   0  0  0  0  0  4  0  0  0  0  0  0
  -28.1100  -22.8190   21.1860 H   0  0  0  0  0  0  0  0  0  0  0  0
  -28.9420  -22.5670   19.8110 H   0  0  0  0  0  0  0  0  0  0  0  0
  -29.9840  -22.1110   21.5150 C   0  0  0  0  0  2  0  0  0  0  0  0
  -29.5260  -20.6490   21.8360 C   0  0  0  0  0  2  0  0  0  0  0  0
  -29.7350  -19.5930   20.7190 C   0  0  0  0  0  3  0  0  0  0  0  0
  -29.7560  -18.1000   21.2070 C   0  0  0  0  0  3  0  0  0  0  0  0
  -31.9090  -17.3830   20.0450 C   0  0  0  0  0  1  0  0  0  0  0  0
  -30.3940  -17.0800   20.2120 C   0  0  0  0  0  3  0  0  0  0  0  0
  -30.7310  -14.5310   20.1350 C   0  0  0  0  0  0  0  0  0  0  0  0
  -30.3020  -12.3820   19.0110 C   0  0  0  0  0  2  0  0  0  0  0  0
  -29.3300  -12.6250   17.8400 C   0  0  0  0  0  2  0  0  0  0  0  0
  -27.8730  -12.5110   18.3260 C   0  0  0  0  0  2  0  0  0  0  0  0
  -27.5980  -13.3410   19.6100 C   0  0  0  0  0  3  0  0  0  0  0  0
  -28.6970  -13.1180   20.6760 C   0  0  0  0  0  2  0  0  0  0  0  0
  -29.9990  -13.3850   20.0510 N   0  0  0  0  0  0  0  0  0  0  0  0
  -31.8640  -14.5870   19.6580 O   0  0  0  0  0  0  0  0  0  0  0  0
  -30.0890  -15.6520   20.5520 N   0  0  0  0  0  0  0  0  0  0  0  0
  -29.1670  -15.4800   20.9270 H   0  0  0  0  0  0  0  0  0  0  0  0
  -25.2370  -13.9600   20.4180 C   0  0  0  0  0  0  0  0  0  0  0  0
  -24.1750  -13.1940   20.8210 C   0  0  0  0  0  0  0  0  0  0  0  0
  -24.6240  -11.8390   20.7680 C   0  0  0  0  0  0  0  0  0  0  0  0
  -26.2640  -13.0720   20.1430 N   0  0  0  0  0  0  0  0  0  0  0  0
  -25.9030  -11.7910   20.4140 N   0  0  0  0  0  0  0  0  0  0  0  0
  -23.8950  -10.5810   20.9770 C   0  0  0  0  0  0  0  0  0  0  0  0
  -24.3530   -9.6050   21.8880 C   0  0  0  0  0  3  0  0  0  0  0  0
  -23.6250   -8.4120   22.0850 C   0  0  0  0  0  3  0  0  0  0  0  0
  -22.4240   -8.1860   21.3740 C   0  0  0  0  0  0  0  0  0  0  0  0
  -21.9830   -9.1510   20.4490 C   0  0  0  0  0  3  0  0  0  0  0  0
  -22.7110  -10.3360   20.2500 C   0  0  0  0  0  3  0  0  0  0  0  0
  -21.6640   -7.0460   21.4820 O   0  0  0  0  0  0  0  0  0  0  0  0
  -21.6500   -6.2980   22.6300 C   0  0  0  0  0  0  0  0  0  0  0  0
  -21.2850   -6.8510   23.8770 C   0  0  0  0  0  3  0  0  0  0  0  0
  -21.2200   -6.0290   25.0200 C   0  0  0  0  0  3  0  0  0  0  0  0
  -21.5040   -4.6540   24.9180 C   0  0  0  0  0  0  0  0  0  0  0  0
  -21.8590   -4.0990   23.6750 C   0  0  0  0  0  3  0  0  0  0  0  0
  -21.9300   -4.9190   22.5350 C   0  0  0  0  0  0  0  0  0  0  0  0
  -22.2520   -4.3750   21.3360 F   0  0  0  0  0  0  0  0  0  0  0  0
  -21.4330   -3.8620   26.0130 F   0  0  0  0  0  0  0  0  0  0  0  0
  -22.7920  -13.6800   21.1450 C   0  0  0  0  0  0  0  0  0  0  0  0
  -22.0900  -12.9880   22.0350 N   0  0  0  0  0  0  0  0  0  0  0  0
  -22.3430  -14.7100   20.6440 O   0  0  0  0  0  0  0  0  0  0  0  0
  -22.4670  -12.1560   22.4670 H   0  0  0  0  0  0  0  0  0  0  0  0
  -21.1610  -13.2930   22.2890 H   0  0  0  0  0  0  0  0  0  0  0  0
  -25.4060  -15.3310   20.2400 N   0  0  0  0  0  0  0  0  0  0  0  0
  -24.6490  -15.9910   20.3820 H   0  0  0  0  0  0  0  0  0  0  0  0
  -26.2420  -15.7600   19.8650 H   0  0  0  0  0  0  0  0  0  0  0  0
  -29.3280  -24.3970   20.6830 C   0  0  0  0  0  2  0  0  0  0  0  0
  -28.1920  -25.2320   20.0360 C   0  0  0  0  0  2  0  0  0  0  0  0
  -28.3590  -26.6660   20.1510 O   0  0  0  0  0  0  0  0  0  0  0  0
  -24.5800  -31.8930   23.2060 C   0  0  0  0  0  0  0  0  0  0  0  0
  -27.1980  -27.4270   20.1090 C   0  0  0  0  0  0  0  0  0  0  0  0
  -23.3640  -30.4890   21.5750 C   0  0  0  0  0  3  0  0  0  0  0  0
  -24.8050  -28.9570   20.1360 C   0  0  0  0  0  0  0  0  0  0  0  0
  -25.8920  -30.8420   21.3630 C   0  0  0  0  0  2  0  0  0  0  0  0
  -25.9730  -29.4710   20.7170 C   0  0  0  0  0  0  0  0  0  0  0  0
  -27.1700  -28.7160   20.6990 C   0  0  0  0  0  3  0  0  0  0  0  0
  -26.0110  -26.9470   19.5040 C   0  0  0  0  0  3  0  0  0  0  0  0
  -24.8230  -27.6970   19.5220 C   0  0  0  0  0  3  0  0  0  0  0  0
  -23.5620  -29.8150   20.1940 C   0  0  0  0  0  2  0  0  0  0  0  0
  -24.6310  -31.0900   22.1050 N   0  0  0  0  0  0  0  0  0  0  0  0
  -23.5030  -32.1640   23.7510 O   0  0  0  0  0  0  0  0  0  0  0  0
  -22.7200  -29.4670   22.5380 C   0  0  0  0  0  0  0  0  0  0  0  0
  -21.3940  -29.2800   22.4190 N   0  0  0  0  0  0  0  0  0  0  0  0
  -23.4090  -28.8430   23.3500 O   0  0  0  0  0  0  0  0  0  0  0  0
  -20.8990  -29.8380   21.7370 H   0  0  0  0  0  0  0  0  0  0  0  0
  -18.0260  -28.0750   22.9320 C   0  0  0  0  0  0  0  0  0  0  0  0
  -20.5840  -28.3430   23.1950 C   0  0  0  0  0  3  0  0  0  0  0  0
  -20.6890  -26.9100   22.6250 C   0  0  0  0  0  2  0  0  0  0  0  0
  -19.5840  -26.5800   21.6150 C   0  0  0  0  0  2  0  0  0  0  0  0
  -18.2040  -26.7240   22.2620 C   0  0  0  0  0  2  0  0  0  0  0  0
  -19.1440  -28.8420   23.3570 C   0  0  0  0  0  0  0  0  0  0  0  0
  -18.9230  -30.1070   23.9410 C   0  0  0  0  0  3  0  0  0  0  0  0
  -17.6180  -30.6070   24.1070 C   0  0  0  0  0  3  0  0  0  0  0  0
  -16.5140  -29.8370   23.7000 C   0  0  0  0  0  3  0  0  0  0  0  0
  -16.7190  -28.5730   23.1180 C   0  0  0  0  0  3  0  0  0  0  0  0
  -25.8710  -32.5230   23.8150 C   0  0  0  0  0  3  0  0  0  0  0  0
  -26.4020  -31.7500   25.0830 C   0  0  1  0  0  0  0  0  0  0  0  0
  -25.3220  -31.5080   26.1620 C   0  0  0  0  0  1  0  0  0  0  0  0
  -26.9830  -30.3740   24.6810 C   0  0  0  0  0  1  0  0  0  0  0  0
  -27.5580  -32.5450   25.7350 C   0  0  0  0  0  1  0  0  0  0  0  0
  -25.5620  -33.9200   24.1500 N   0  0  0  0  0  0  0  0  0  0  0  0
  -25.8890  -34.9730   23.3890 C   0  0  0  0  0  0  0  0  0  0  0  0
  -26.5520  -34.8720   22.3550 O   0  0  0  0  0  0  0  0  0  0  0  0
  -24.9700  -34.0740   24.9520 H   0  0  0  0  0  0  0  0  0  0  0  0
  -24.1560  -36.7630   23.0450 C   0  0  0  0  0  1  0  0  0  0  0  0
  -25.4010  -36.3590   23.8510 C   0  0  0  0  0  3  0  0  0  0  0  0
  -27.5390  -37.2440   24.6720 C   0  0  0  0  0  1  0  0  0  0  0  0
  -26.4310  -37.4140   23.7360 N   0  0  0  0  0  0  0  0  0  0  0  0
  -26.0250  -38.3350   23.8880 H   0  0  0  0  0  0  0  0  0  0  0  0
  1  2  1  0
  1  4  1  0
  3  1  1  0
  4  5  1  0
  6  7  2  0
  6  5  1  0
  9  8  1  0
  9 18  1  0
  9  7  1  0
 10 18  1  0
 11 16  1  0
 12 13  1  0
 12 11  1  0
 14 13  1  0
 14 23  1  0
 14 15  1  0
 16 10  1  0
 16 15  1  0
 17 10  2  0
 18 19  1  0
 20 21  2  0
 21 40  1  0
 22 21  1  0
 22 25  1  0
 23 24  1  0
 23 20  1  0
 24 22  2  0
 25 26  1  0
 26 27  2  0
 28 31  1  0
 28 27  1  0
 29 28  2  0
 30 29  1  0
 30 25  2  0
 31 32  1  0
 32 33  1  0
 33 34  2  0
 35 34  1  0
 35 39  1  0
 36 35  2  0
 37 32  2  0
 37 36  1  0
 38 37  1  0
 40 41  1  0
 41 44  1  0
 41 43  1  0
 42 40  2  0
 45 46  1  0
 45 20  1  0
 47 45  1  0
 48  1  1  0
 49 50  1  0
 49 48  1  0
 51 62  2  0
 52 50  1  0
 52 57  1  0
 53 61  1  0
 53 63  1  0
 54 60  1  0
 54 56  1  0
 55 61  1  0
 56 55  1  0
 57 56  2  0
 58 59  1  0
 58 52  2  0
 59 54  2  0
 60 53  1  0
 61 51  1  0
 63 65  2  0
 64 63  1  0
 66 64  1  0
 67 76  2  0
 67 72  1  0
 68 64  1  0
 68 72  1  0
 69 68  1  0
 70 71  1  0
 70 69  1  0
 71 67  1  0
 72 73  2  0
 73 74  1  0
 75 74  2  0
 76 75  1  0
 77 51  1  0
 77 82  1  0
 77 78  1  0
 78 81  1  1
 78 79  1  0
 80 78  1  0
 82 85  1  0
 83 87  1  0
 83 82  1  0
 84 83  2  0
 87 86  1  0
 89 87  1  0
 89 90  1  0
 89 88  1  0
M  ISO  4  10 100  18 100  49 101  50 101
M  END
>  <TORSDO>  (77) 
F 23

>  <SCORE>  (77) 
-12.394

>  <name>  (77) 
77

>  <ligand_id>  (77) 
77

>  <original_smiles>  (77) 
[H]c1c([H])c([H])c2c(c1[H])C([H])([H])C([H])([H])C([H])([H])C2([H])N([H])C(=O)C1([H])N(C(=O)C([H])(N([H])C(=O)C([H])(N([H])C([H])([H])[H])C([H])([H])[H])C(C([H])([H])[H])(C([H])([H])[H])C([H])([H])[H])C([H])([H])c2c([H])c(OC([H])([H])C([H])([H])[N+]([H])([H])C([H])([H])C([H])([H])C([H])([H])C([H])([H])C([H])(N([H])C(=O)N3C([H])([H])C([H])([H])C([H])([H])C([H])(n4nc(-c5c([H])c([H])c(Oc6c([H])c([H])c(F)c([H])c6F)c([H])c5[H])c(C(=O)N([H])[H])c4N([H])[H])C3([H])[H])C([H])([H])[H])c([H])c([H])c2C1([H])[H]

>  <smiles>  (77) 
[H]c1c([H])c([H])c2c(c1[H])C([H])([H])C([H])([H])C([H])([H])C2([H])N([H])C(=O)C1([H])N(C(=O)C([H])(N([H])C(=O)C([H])(N([H])C([H])([H])[H])C([H])([H])[H])C(C([H])([H])[H])(C([H])([H])[H])C([H])([H])[H])C([H])([H])c2c([H])c(OC([H])([H])C([H])([H])[N+]([H])([H])C([H])([H])C([H])([H])C([H])([H])C([H])([H])C([H])(N([H])C(=O)N3C([H])([H])C([H])([H])C([H])([H])C([H])(n4nc(-c5c([H])c([H])c(Oc6c([H])c([H])c(F)c([H])c6F)c([H])c5[H])c(C(=O)N([H])[H])c4N([H])[H])C3([H])[H])C([H])([H])[H])c([H])c([H])c2C1([H])[H]

$$$$
78:0:0
     RDKit          3D

 90 99  0  0  1  0  0  0  0  0999 V2000
  -30.1530  -21.4190   18.8780 C   0  0  0  0  0  2  0  0  0  0  0  0
  -31.4410  -20.2240   20.8530 C   0  0  0  0  0  2  0  0  0  0  0  0
  -31.0010  -20.2870   19.4090 C   0  0  0  0  0  3  0  0  0  0  0  0
  -29.1240  -21.2110   19.9920 C   0  0  0  0  0  3  0  0  0  0  0  0
  -29.9900  -19.9750   20.4850 C   0  0  2  0  0  0  0  0  0  0  0  0
  -28.8450  -22.4200   21.0000 C   0  0  0  0  0  2  0  0  0  0  0  0
  -29.1870  -23.9700   20.6890 C   0  0  0  0  0  2  0  0  0  0  0  0
  -28.2700  -24.6920   18.4390 C   0  0  0  0  0  1  0  0  0  0  0  0
  -28.1700  -24.9560   19.9530 C   0  0  0  0  0  3  0  0  0  0  0  0
  -28.3360  -26.4260   20.1960 O   0  0  0  0  0  0  0  0  0  0  0  0
  -24.6440  -31.8700   23.2310 C   0  0  0  0  0  0  0  0  0  0  0  0
  -27.2170  -27.2880   20.1530 C   0  0  0  0  0  0  0  0  0  0  0  0
  -23.4250  -30.4760   21.6010 C   0  0  0  0  0  3  0  0  0  0  0  0
  -24.8610  -28.9270   20.1640 C   0  0  0  0  0  0  0  0  0  0  0  0
  -25.9680  -30.7860   21.3990 C   0  0  0  0  0  2  0  0  0  0  0  0
  -26.0390  -29.4080   20.7470 C   0  0  0  0  0  0  0  0  0  0  0  0
  -27.2210  -28.6020   20.7270 C   0  0  0  0  0  3  0  0  0  0  0  0
  -26.0040  -26.8660   19.5600 C   0  0  0  0  0  3  0  0  0  0  0  0
  -24.8460  -27.6630   19.5600 C   0  0  0  0  0  3  0  0  0  0  0  0
  -23.6280  -29.8060   20.2190 C   0  0  0  0  0  2  0  0  0  0  0  0
  -24.6990  -31.0610   22.1340 N   0  0  0  0  0  0  0  0  0  0  0  0
  -23.5640  -32.1470   23.7740 O   0  0  0  0  0  0  0  0  0  0  0  0
  -22.7700  -29.4570   22.5640 C   0  0  0  0  0  0  0  0  0  0  0  0
  -21.4430  -29.2780   22.4430 N   0  0  0  0  0  0  0  0  0  0  0  0
  -23.4530  -28.8320   23.3780 O   0  0  0  0  0  0  0  0  0  0  0  0
  -20.9510  -29.8350   21.7580 H   0  0  0  0  0  0  0  0  0  0  0  0
  -18.0700  -28.0700   22.9520 C   0  0  0  0  0  0  0  0  0  0  0  0
  -20.6280  -28.3410   23.2190 C   0  0  0  0  0  3  0  0  0  0  0  0
  -20.7350  -26.9060   22.6500 C   0  0  0  0  0  2  0  0  0  0  0  0
  -19.6330  -26.5740   21.6380 C   0  0  0  0  0  2  0  0  0  0  0  0
  -18.2520  -26.7170   22.2830 C   0  0  0  0  0  2  0  0  0  0  0  0
  -19.1870  -28.8390   23.3760 C   0  0  0  0  0  0  0  0  0  0  0  0
  -18.9630  -30.1040   23.9610 C   0  0  0  0  0  3  0  0  0  0  0  0
  -17.6560  -30.6000   24.1270 C   0  0  0  0  0  3  0  0  0  0  0  0
  -16.5550  -29.8280   23.7170 C   0  0  0  0  0  3  0  0  0  0  0  0
  -16.7630  -28.5650   23.1350 C   0  0  0  0  0  3  0  0  0  0  0  0
  -25.9310  -32.5020   23.8450 C   0  0  0  0  0  3  0  0  0  0  0  0
  -25.6220  -33.8980   24.1840 N   0  0  0  0  0  0  0  0  0  0  0  0
  -25.9410  -34.9550   23.4260 C   0  0  0  0  0  0  0  0  0  0  0  0
  -26.5980  -34.8590   22.3850 O   0  0  0  0  0  0  0  0  0  0  0  0
  -25.0420  -34.0480   24.9960 H   0  0  0  0  0  0  0  0  0  0  0  0
  -24.2030  -36.7450   23.1050 C   0  0  0  0  0  1  0  0  0  0  0  0
  -25.4560  -36.3400   23.8970 C   0  0  0  0  0  3  0  0  0  0  0  0
  -27.6010  -37.2270   24.7020 C   0  0  0  0  0  1  0  0  0  0  0  0
  -26.4850  -37.3980   23.7760 N   0  0  0  0  0  0  0  0  0  0  0  0
  -26.0780  -38.3160   23.9360 H   0  0  0  0  0  0  0  0  0  0  0  0
  -26.4590  -31.7260   25.1140 C   0  0  1  0  0  0  0  0  0  0  0  0
  -25.3770  -31.4850   26.1910 C   0  0  0  0  0  1  0  0  0  0  0  0
  -27.0370  -30.3490   24.7130 C   0  0  0  0  0  1  0  0  0  0  0  0
  -27.6150  -32.5190   25.7670 C   0  0  0  0  0  1  0  0  0  0  0  0
  -29.3730  -18.5040   20.5460 C   0  0  0  0  0  3  0  0  0  0  0  0
  -30.3880  -17.2550   20.6400 C   0  0  0  0  0  3  0  0  0  0  0  0
  -30.6040  -14.6860   20.3990 C   0  0  0  0  0  0  0  0  0  0  0  0
  -30.3500  -12.4410   19.3550 C   0  0  0  0  0  2  0  0  0  0  0  0
  -29.4030  -12.5500   18.1410 C   0  0  0  0  0  2  0  0  0  0  0  0
  -27.9360  -12.3850   18.5830 C   0  0  0  0  0  2  0  0  0  0  0  0
  -27.5810  -13.2630   19.8150 C   0  0  0  0  0  3  0  0  0  0  0  0
  -28.6490  -13.1520   20.9250 C   0  0  0  0  0  2  0  0  0  0  0  0
  -29.9470  -13.4840   20.3240 N   0  0  0  0  0  0  0  0  0  0  0  0
  -31.7830  -14.7760   20.0450 O   0  0  0  0  0  0  0  0  0  0  0  0
  -29.8770  -15.8240   20.6710 N   0  0  0  0  0  0  0  0  0  0  0  0
  -28.9080  -15.6840   20.9160 H   0  0  0  0  0  0  0  0  0  0  0  0
  -25.2000  -13.8570   20.5610 C   0  0  0  0  0  0  0  0  0  0  0  0
  -24.1350  -13.0830   20.9370 C   0  0  0  0  0  0  0  0  0  0  0  0
  -24.5960  -11.7310   20.8990 C   0  0  0  0  0  0  0  0  0  0  0  0
  -26.2400  -12.9760   20.3150 N   0  0  0  0  0  0  0  0  0  0  0  0
  -25.8850  -11.6930   20.5810 N   0  0  0  0  0  0  0  0  0  0  0  0
  -23.8690  -10.4690   21.0910 C   0  0  0  0  0  0  0  0  0  0  0  0
  -24.3170   -9.4890   22.0050 C   0  0  0  0  0  3  0  0  0  0  0  0
  -23.5890   -8.2930   22.1830 C   0  0  0  0  0  3  0  0  0  0  0  0
  -22.4010   -8.0670   21.4500 C   0  0  0  0  0  0  0  0  0  0  0  0
  -21.9730   -9.0350   20.5240 C   0  0  0  0  0  3  0  0  0  0  0  0
  -22.7000  -10.2230   20.3420 C   0  0  0  0  0  3  0  0  0  0  0  0
  -21.6430   -6.9240   21.5390 O   0  0  0  0  0  0  0  0  0  0  0  0
  -21.6260   -6.1600   22.6790 C   0  0  0  0  0  0  0  0  0  0  0  0
  -21.2510   -6.6970   23.9290 C   0  0  0  0  0  3  0  0  0  0  0  0
  -21.1810   -5.8600   25.0610 C   0  0  0  0  0  3  0  0  0  0  0  0
  -21.4730   -4.4880   24.9440 C   0  0  0  0  0  0  0  0  0  0  0  0
  -21.8400   -3.9510   23.6980 C   0  0  0  0  0  3  0  0  0  0  0  0
  -21.9130   -4.7840   22.5670 C   0  0  0  0  0  0  0  0  0  0  0  0
  -22.2470   -4.2570   21.3650 F   0  0  0  0  0  0  0  0  0  0  0  0
  -21.3960   -3.6830   26.0290 F   0  0  0  0  0  0  0  0  0  0  0  0
  -22.7410  -13.5610   21.2210 C   0  0  0  0  0  0  0  0  0  0  0  0
  -22.0180  -12.8640   22.0910 N   0  0  0  0  0  0  0  0  0  0  0  0
  -22.3010  -14.5880   20.7060 O   0  0  0  0  0  0  0  0  0  0  0  0
  -22.3860  -12.0330   22.5310 H   0  0  0  0  0  0  0  0  0  0  0  0
  -21.0830  -13.1660   22.3240 H   0  0  0  0  0  0  0  0  0  0  0  0
  -25.3630  -15.2280   20.3850 N   0  0  0  0  0  0  0  0  0  0  0  0
  -24.5950  -15.8810   20.4950 H   0  0  0  0  0  0  0  0  0  0  0  0
  -26.2040  -15.6640   20.0280 H   0  0  0  0  0  0  0  0  0  0  0  0
  1  4  1  0
  3  1  1  0
  3  5  1  0
  3  2  1  0
  4  5  1  0
  4  6  1  0
  5 51  1  6
  5  2  1  0
  7  6  1  0
  9  8  1  0
  9 10  1  0
  9  7  1  0
 11 22  2  0
 12 10  1  0
 12 17  1  0
 13 21  1  0
 13 23  1  0
 14 20  1  0
 14 16  1  0
 15 21  1  0
 16 15  1  0
 17 16  2  0
 18 19  1  0
 18 12  2  0
 19 14  2  0
 20 13  1  0
 21 11  1  0
 23 25  2  0
 24 23  1  0
 26 24  1  0
 27 36  2  0
 27 32  1  0
 28 24  1  0
 28 32  1  0
 29 28  1  0
 30 31  1  0
 30 29  1  0
 31 27  1  0
 32 33  2  0
 33 34  1  0
 35 34  2  0
 36 35  1  0
 37 11  1  0
 37 38  1  0
 37 47  1  0
 38 41  1  0
 39 43  1  0
 39 38  1  0
 40 39  2  0
 43 42  1  0
 45 43  1  0
 45 46  1  0
 45 44  1  0
 47 50  1  1
 47 48  1  0
 49 47  1  0
 51 52  2  0
 52 61  1  0
 53 61  1  0
 54 59  1  0
 55 56  1  0
 55 54  1  0
 57 56  1  0
 57 66  1  0
 57 58  1  0
 59 53  1  0
 59 58  1  0
 60 53  2  0
 61 62  1  0
 63 64  2  0
 64 83  1  0
 65 64  1  0
 65 68  1  0
 66 63  1  0
 66 67  1  0
 67 65  2  0
 68 69  1  0
 69 70  2  0
 71 74  1  0
 71 70  1  0
 72 71  2  0
 73 72  1  0
 73 68  2  0
 74 75  1  0
 75 76  1  0
 76 77  2  0
 78 77  1  0
 78 82  1  0
 79 78  2  0
 80 75  2  0
 80 79  1  0
 81 80  1  0
 83 84  1  0
 84 87  1  0
 84 86  1  0
 85 83  2  0
 88 89  1  0
 88 63  1  0
 90 88  1  0
M  ISO  4   9 101  10 101  53 100  61 100
M  END
>  <TORSDO>  (78) 
F 21

>  <SCORE>  (78) 
-13.431

>  <name>  (78) 
78

>  <ligand_id>  (78) 
78

>  <original_smiles>  (78) 
[H]c1c([H])c([H])c2c(c1[H])C([H])([H])C([H])([H])C([H])([H])C2([H])N([H])C(=O)C1([H])N(C(=O)C([H])(N([H])C(=O)C([H])(N([H])C([H])([H])[H])C([H])([H])[H])C(C([H])([H])[H])(C([H])([H])[H])C([H])([H])[H])C([H])([H])c2c([H])c(OC([H])(C([H])([H])[H])C([H])([H])C([H])([H])C3([H])C([H])([H])C4([H])C([H])([H])C34C([H])([H])C([H])([H])N([H])C(=O)N3C([H])([H])C([H])([H])C([H])([H])C([H])(n4nc(-c5c([H])c([H])c(Oc6c([H])c([H])c(F)c([H])c6F)c([H])c5[H])c(C(=O)N([H])[H])c4N([H])[H])C3([H])[H])c([H])c([H])c2C1([H])[H]

>  <smiles>  (78) 
[H]c1c([H])c([H])c2c(c1[H])C([H])([H])C([H])([H])C([H])([H])C2([H])N([H])C(=O)C1([H])N(C(=O)C([H])(N([H])C(=O)C([H])(N([H])C([H])([H])[H])C([H])([H])[H])C(C([H])([H])[H])(C([H])([H])[H])C([H])([H])[H])C([H])([H])c2c([H])c(OC([H])(C([H])([H])[H])C([H])([H])C([H])([H])C3([H])C([H])([H])C4([H])C([H])([H])C34C([H])([H])C([H])([H])N([H])C(=O)N3C([H])([H])C([H])([H])C([H])([H])C([H])(n4nc(-c5c([H])c([H])c(Oc6c([H])c([H])c(F)c([H])c6F)c([H])c5[H])c(C(=O)N([H])[H])c4N([H])[H])C3([H])[H])c([H])c([H])c2C1([H])[H]

$$$$
79:0:0
     RDKit          3D

 94103  0  0  1  0  0  0  0  0999 V2000
  -29.1370  -21.2800   18.6260 C   0  0  0  0  0  1  0  0  0  0  0  0
  -27.6210  -20.9590   20.5880 C   0  0  0  0  0  1  0  0  0  0  0  0
  -29.0560  -21.3500   20.1690 C   0  0  2  0  0  0  0  0  0  0  0  0
  -29.2940  -22.8010   20.6250 N   0  0  0  0  0  4  0  0  0  0  0  0
  -29.0170  -22.8480   21.5960 H   0  0  0  0  0  0  0  0  0  0  0  0
  -30.2910  -22.9650   20.6170 H   0  0  0  0  0  0  0  0  0  0  0  0
  -28.6510  -23.9920   19.8880 C   0  0  0  0  0  2  0  0  0  0  0  0
  -28.6210  -25.4050   20.6500 C   0  0  0  0  0  2  0  0  0  0  0  0
  -28.5610  -26.6960   19.9160 O   0  0  0  0  0  0  0  0  0  0  0  0
  -24.6610  -31.8710   23.1420 C   0  0  0  0  0  0  0  0  0  0  0  0
  -27.4010  -27.4790   19.9690 C   0  0  0  0  0  0  0  0  0  0  0  0
  -23.4920  -30.4830   21.4670 C   0  0  0  0  0  3  0  0  0  0  0  0
  -24.9840  -29.0090   20.0000 C   0  0  0  0  0  0  0  0  0  0  0  0
  -26.0170  -30.8850   21.2810 C   0  0  0  0  0  2  0  0  0  0  0  0
  -26.1380  -29.5250   20.6020 C   0  0  0  0  0  0  0  0  0  0  0  0
  -27.3520  -28.7750   20.5720 C   0  0  0  0  0  3  0  0  0  0  0  0
  -26.2270  -27.0060   19.3520 C   0  0  0  0  0  3  0  0  0  0  0  0
  -25.0310  -27.7540   19.3640 C   0  0  0  0  0  3  0  0  0  0  0  0
  -23.7210  -29.8450   20.0700 C   0  0  0  0  0  2  0  0  0  0  0  0
  -24.7410  -31.0960   22.0210 N   0  0  0  0  0  0  0  0  0  0  0  0
  -23.5720  -32.1030   23.6880 O   0  0  0  0  0  0  0  0  0  0  0  0
  -22.8620  -29.4230   22.4020 C   0  0  0  0  0  0  0  0  0  0  0  0
  -21.5400  -29.2170   22.2780 N   0  0  0  0  0  0  0  0  0  0  0  0
  -23.5630  -28.7880   23.1960 O   0  0  0  0  0  0  0  0  0  0  0  0
  -21.0340  -29.7830   21.6110 H   0  0  0  0  0  0  0  0  0  0  0  0
  -18.1950  -27.9360   22.7760 C   0  0  0  0  0  0  0  0  0  0  0  0
  -20.7500  -28.2390   23.0260 C   0  0  0  0  0  3  0  0  0  0  0  0
  -20.8750  -26.8300   22.4010 C   0  0  0  0  0  2  0  0  0  0  0  0
  -19.7670  -26.5190   21.3880 C   0  0  0  0  0  2  0  0  0  0  0  0
  -18.3910  -26.6150   22.0510 C   0  0  0  0  0  2  0  0  0  0  0  0
  -19.3040  -28.7060   23.2190 C   0  0  0  0  0  0  0  0  0  0  0  0
  -19.0660  -29.9440   23.8560 C   0  0  0  0  0  3  0  0  0  0  0  0
  -17.7540  -30.4120   24.0540 C   0  0  0  0  0  3  0  0  0  0  0  0
  -16.6600  -29.6380   23.6290 C   0  0  0  0  0  3  0  0  0  0  0  0
  -16.8830  -28.4020   22.9960 C   0  0  0  0  0  3  0  0  0  0  0  0
  -25.9280  -32.5210   23.7790 C   0  0  0  0  0  3  0  0  0  0  0  0
  -25.5810  -33.9030   24.1430 N   0  0  0  0  0  0  0  0  0  0  0  0
  -25.8960  -34.9840   23.4160 C   0  0  0  0  0  0  0  0  0  0  0  0
  -26.5790  -34.9230   22.3900 O   0  0  0  0  0  0  0  0  0  0  0  0
  -24.9770  -34.0200   24.9440 H   0  0  0  0  0  0  0  0  0  0  0  0
  -24.1470  -36.7600   23.0720 C   0  0  0  0  0  1  0  0  0  0  0  0
  -25.3710  -36.3480   23.9050 C   0  0  0  0  0  3  0  0  0  0  0  0
  -27.4620  -37.2450   24.8320 C   0  0  0  0  0  1  0  0  0  0  0  0
  -26.3880  -37.4210   23.8580 N   0  0  0  0  0  0  0  0  0  0  0  0
  -25.9600  -38.3290   24.0180 H   0  0  0  0  0  0  0  0  0  0  0  0
  -26.4650  -31.7340   25.0380 C   0  0  1  0  0  0  0  0  0  0  0  0
  -25.3800  -31.4430   26.1010 C   0  0  0  0  0  1  0  0  0  0  0  0
  -27.0870  -30.3820   24.6170 C   0  0  0  0  0  1  0  0  0  0  0  0
  -27.5950  -32.5450   25.7180 C   0  0  0  0  0  1  0  0  0  0  0  0
  -30.1170  -20.2780   20.7780 C   0  0  0  0  0  2  0  0  0  0  0  0
  -29.8430  -18.7000   20.8470 C   0  0  0  0  0  0  0  0  0  0  0  0
  -28.8270  -18.3170   21.4350 O   0  0  0  0  0  0  0  0  0  0  0  0
  -31.0240  -15.0200   20.4260 C   0  0  0  0  0  0  0  0  0  0  0  0
  -30.8580  -12.6730   19.6020 C   0  0  0  0  0  2  0  0  0  0  0  0
  -29.9720  -12.5740   18.3400 C   0  0  0  0  0  2  0  0  0  0  0  0
  -28.4660  -12.5360   18.6960 C   0  0  0  0  0  2  0  0  0  0  0  0
  -28.0440  -13.4820   19.8570 C   0  0  0  0  0  3  0  0  0  0  0  0
  -29.0670  -13.4960   21.0090 C   0  0  0  0  0  2  0  0  0  0  0  0
  -30.3740  -13.8040   20.4180 N   0  0  0  0  0  0  0  0  0  0  0  0
  -32.2560  -15.0470   20.4140 O   0  0  0  0  0  0  0  0  0  0  0  0
  -31.7980  -17.2210   17.6940 C   0  0  0  0  0  2  0  0  0  0  0  0
  -29.6690  -16.1770   18.7730 C   0  0  0  0  0  2  0  0  0  0  0  0
  -30.8560  -17.6140   20.2280 C   0  0  0  0  0  3  0  0  0  0  0  0
  -30.3110  -17.2730   17.9380 C   0  0  0  0  0  3  0  0  0  0  0  0
  -31.2080  -18.0660   18.8030 C   0  0  0  0  0  3  0  0  0  0  0  0
  -30.3020  -16.1820   20.1190 N   0  0  0  0  0  0  0  0  0  0  0  0
  -25.6590  -14.1500   20.5080 C   0  0  0  0  0  0  0  0  0  0  0  0
  -24.5590  -13.4020   20.8290 C   0  0  0  0  0  0  0  0  0  0  0  0
  -24.9920  -12.0410   20.8190 C   0  0  0  0  0  0  0  0  0  0  0  0
  -26.6870  -13.2390   20.3140 N   0  0  0  0  0  0  0  0  0  0  0  0
  -26.2920  -11.9690   20.5700 N   0  0  0  0  0  0  0  0  0  0  0  0
  -24.2340  -10.7970   20.9730 C   0  0  0  0  0  0  0  0  0  0  0  0
  -24.6010   -9.8240   21.9290 C   0  0  0  0  0  3  0  0  0  0  0  0
  -23.8460   -8.6420   22.0710 C   0  0  0  0  0  3  0  0  0  0  0  0
  -22.7100   -8.4240   21.2570 C   0  0  0  0  0  0  0  0  0  0  0  0
  -22.3620   -9.3830   20.2900 C   0  0  0  0  0  3  0  0  0  0  0  0
  -23.1180  -10.5580   20.1450 C   0  0  0  0  0  3  0  0  0  0  0  0
  -21.9300   -7.2930   21.3090 O   0  0  0  0  0  0  0  0  0  0  0  0
  -21.7820   -6.5760   22.4670 C   0  0  0  0  0  0  0  0  0  0  0  0
  -21.2430   -7.1530   23.6380 C   0  0  0  0  0  3  0  0  0  0  0  0
  -21.0440   -6.3610   24.7860 C   0  0  0  0  0  3  0  0  0  0  0  0
  -21.3730   -4.9920   24.7640 C   0  0  0  0  0  0  0  0  0  0  0  0
  -21.9060   -4.4150   23.5980 C   0  0  0  0  0  3  0  0  0  0  0  0
  -22.1070   -5.2040   22.4530 C   0  0  0  0  0  0  0  0  0  0  0  0
  -22.6000   -4.6400   21.3250 F   0  0  0  0  0  0  0  0  0  0  0  0
  -21.1740   -4.2280   25.8650 F   0  0  0  0  0  0  0  0  0  0  0  0
  -23.1630  -13.9120   21.0410 C   0  0  0  0  0  0  0  0  0  0  0  0
  -22.3850  -13.2390   21.8810 N   0  0  0  0  0  0  0  0  0  0  0  0
  -22.7700  -14.9430   20.4950 O   0  0  0  0  0  0  0  0  0  0  0  0
  -22.7130  -12.4080   22.3480 H   0  0  0  0  0  0  0  0  0  0  0  0
  -21.4470  -13.5650   22.0650 H   0  0  0  0  0  0  0  0  0  0  0  0
  -25.8620  -15.5170   20.3470 N   0  0  0  0  0  0  0  0  0  0  0  0
  -25.1120  -16.1900   20.4610 H   0  0  0  0  0  0  0  0  0  0  0  0
  -26.7590  -15.9490   20.1620 H   0  0  0  0  0  0  0  0  0  0  0  0
  3  1  1  6
  3  2  1  0
  3  4  1  0
  3 50  1  0
  4  5  1  0
  6  4  1  0
  7  4  1  0
  7  8  1  0
  9 11  1  0
  9  8  1  0
 10 21  2  0
 11 16  1  0
 12 20  1  0
 12 22  1  0
 13 19  1  0
 13 15  1  0
 14 20  1  0
 15 14  1  0
 16 15  2  0
 17 18  1  0
 17 11  2  0
 18 13  2  0
 19 12  1  0
 20 10  1  0
 22 24  2  0
 23 22  1  0
 25 23  1  0
 26 35  2  0
 26 31  1  0
 27 23  1  0
 27 31  1  0
 28 27  1  0
 29 30  1  0
 29 28  1  0
 30 26  1  0
 31 32  2  0
 32 33  1  0
 34 33  2  0
 35 34  1  0
 36 10  1  0
 36 37  1  0
 36 46  1  0
 37 40  1  0
 38 42  1  0
 38 37  1  0
 39 38  2  0
 42 41  1  0
 44 42  1  0
 44 45  1  0
 44 43  1  0
 46 49  1  1
 46 47  1  0
 48 46  1  0
 50 51  1  0
 51 52  2  0
 54 59  1  0
 55 56  1  0
 55 54  1  0
 57 56  1  0
 57 70  1  0
 57 58  1  0
 59 53  1  0
 59 58  1  0
 60 53  2  0
 62 66  1  0
 63 51  1  0
 64 61  1  0
 64 62  1  0
 64 65  1  0
 65 61  1  0
 65 63  1  0
 66 63  1  0
 66 53  1  0
 67 68  2  0
 68 87  1  0
 69 68  1  0
 69 72  1  0
 70 67  1  0
 70 71  1  0
 71 69  2  0
 72 73  1  0
 73 74  2  0
 75 78  1  0
 75 74  1  0
 76 75  2  0
 77 76  1  0
 77 72  2  0
 78 79  1  0
 79 80  1  0
 80 81  2  0
 82 81  1  0
 82 86  1  0
 83 82  2  0
 84 79  2  0
 84 83  1  0
 85 84  1  0
 87 88  1  0
 88 91  1  0
 88 90  1  0
 89 87  2  0
 92 93  1  0
 92 67  1  0
 94 92  1  0
M  ISO  4   8 101   9 101  53 100  66 100
M  END
>  <TORSDO>  (79) 
F 21

>  <SCORE>  (79) 
-12.120

>  <name>  (79) 
79

>  <ligand_id>  (79) 
79

>  <original_smiles>  (79) 
[H]c1c([H])c([H])c2c(c1[H])C([H])([H])C([H])([H])C([H])([H])C2([H])N([H])C(=O)C1([H])N(C(=O)C([H])(N([H])C(=O)C([H])(N([H])C([H])([H])[H])C([H])([H])[H])C(C([H])([H])[H])(C([H])([H])[H])C([H])([H])[H])C([H])([H])c2c([H])c(OC([H])([H])C([H])([H])[N+]([H])([H])C(C([H])([H])[H])(C([H])([H])[H])C([H])([H])C(=O)C3([H])N(C(=O)N4C([H])([H])C([H])([H])C([H])([H])C([H])(n5nc(-c6c([H])c([H])c(Oc7c([H])c([H])c(F)c([H])c7F)c([H])c6[H])c(C(=O)N([H])[H])c5N([H])[H])C4([H])[H])C([H])([H])C4([H])C([H])([H])C34[H])c([H])c([H])c2C1([H])[H]

>  <smiles>  (79) 
[H]c1c([H])c([H])c2c(c1[H])C([H])([H])C([H])([H])C([H])([H])C2([H])N([H])C(=O)C1([H])N(C(=O)C([H])(N([H])C(=O)C([H])(N([H])C([H])([H])[H])C([H])([H])[H])C(C([H])([H])[H])(C([H])([H])[H])C([H])([H])[H])C([H])([H])c2c([H])c(OC([H])([H])C([H])([H])[N+]([H])([H])C(C([H])([H])[H])(C([H])([H])[H])C([H])([H])C(=O)C3([H])N(C(=O)N4C([H])([H])C([H])([H])C([H])([H])C([H])(n5nc(-c6c([H])c([H])c(Oc7c([H])c([H])c(F)c([H])c7F)c([H])c6[H])c(C(=O)N([H])[H])c5N([H])[H])C4([H])[H])C([H])([H])C4([H])C([H])([H])C34[H])c([H])c([H])c2C1([H])[H]

$$$$
80:0:0
     RDKit          3D

 92101  0  0  1  0  0  0  0  0999 V2000
  -28.1030  -20.6030   19.9220 N   0  0  0  0  0  4  0  0  0  0  0  0
  -27.2040  -20.3580   19.5350 H   0  0  0  0  0  0  0  0  0  0  0  0
  -28.8090  -20.3600   19.2470 H   0  0  0  0  0  0  0  0  0  0  0  0
  -30.4200  -18.5230   20.1230 C   0  0  0  0  0  2  0  0  0  0  0  0
  -29.7120  -19.2340   21.2580 C   0  0  0  0  0  3  0  0  0  0  0  0
  -28.5070  -18.3220   21.0650 C   0  0  0  0  0  3  0  0  0  0  0  0
  -29.2340  -17.5780   19.9570 C   0  0  0  0  0  3  0  0  0  0  0  0
  -28.3290  -19.8300   21.1660 C   0  0  0  0  0  3  0  0  0  0  0  0
  -29.4160  -16.0790   20.2530 C   0  0  0  0  0  2  0  0  0  0  0  0
  -31.0700  -14.3570   19.2830 C   0  0  0  0  0  0  0  0  0  0  0  0
  -30.6290  -12.0980   18.4260 C   0  0  0  0  0  2  0  0  0  0  0  0
  -29.5190  -12.1630   17.3590 C   0  0  0  0  0  2  0  0  0  0  0  0
  -28.1300  -12.0500   18.0170 C   0  0  0  0  0  2  0  0  0  0  0  0
  -27.9590  -13.0230   19.2130 C   0  0  0  0  0  3  0  0  0  0  0  0
  -29.1690  -12.9280   20.1710 C   0  0  0  0  0  2  0  0  0  0  0  0
  -30.3720  -13.1910   19.3760 N   0  0  0  0  0  0  0  0  0  0  0  0
  -32.1740  -14.4210   18.7430 O   0  0  0  0  0  0  0  0  0  0  0  0
  -30.3810  -15.5120   19.3130 N   0  0  0  0  0  0  0  0  0  0  0  0
  -30.8950  -16.2300   18.8260 H   0  0  0  0  0  0  0  0  0  0  0  0
  -25.7920  -13.7300   20.4120 C   0  0  0  0  0  0  0  0  0  0  0  0
  -24.7440  -13.0010   20.9050 C   0  0  0  0  0  0  0  0  0  0  0  0
  -25.0710  -11.6310   20.6650 C   0  0  0  0  0  0  0  0  0  0  0  0
  -26.6950  -12.8050   19.9120 N   0  0  0  0  0  0  0  0  0  0  0  0
  -26.2770  -11.5330   20.1220 N   0  0  0  0  0  0  0  0  0  0  0  0
  -24.2810  -10.4100   20.8650 C   0  0  0  0  0  0  0  0  0  0  0  0
  -24.6710   -9.4240   21.7980 C   0  0  0  0  0  3  0  0  0  0  0  0
  -23.8850   -8.2660   21.9850 C   0  0  0  0  0  3  0  0  0  0  0  0
  -22.6970   -8.0870   21.2390 C   0  0  0  0  0  0  0  0  0  0  0  0
  -22.3270   -9.0610   20.2930 C   0  0  0  0  0  3  0  0  0  0  0  0
  -23.1130  -10.2100   20.1050 C   0  0  0  0  0  3  0  0  0  0  0  0
  -21.8840   -6.9840   21.3360 O   0  0  0  0  0  0  0  0  0  0  0  0
  -21.6640   -6.3560   22.5360 C   0  0  0  0  0  0  0  0  0  0  0  0
  -21.1030   -7.0350   23.6400 C   0  0  0  0  0  3  0  0  0  0  0  0
  -20.8300   -6.3350   24.8320 C   0  0  0  0  0  3  0  0  0  0  0  0
  -21.1060   -4.9570   24.9200 C   0  0  0  0  0  0  0  0  0  0  0  0
  -21.6600   -4.2790   23.8200 C   0  0  0  0  0  3  0  0  0  0  0  0
  -21.9340   -4.9770   22.6300 C   0  0  0  0  0  0  0  0  0  0  0  0
  -22.4480   -4.3140   21.5660 F   0  0  0  0  0  0  0  0  0  0  0  0
  -20.8370   -4.2830   26.0610 F   0  0  0  0  0  0  0  0  0  0  0  0
  -23.4650  -13.5430   21.4720 C   0  0  0  0  0  0  0  0  0  0  0  0
  -22.8640  -12.8290   22.4170 N   0  0  0  0  0  0  0  0  0  0  0  0
  -23.0180  -14.6320   21.1150 O   0  0  0  0  0  0  0  0  0  0  0  0
  -23.2420  -11.9450   22.7250 H   0  0  0  0  0  0  0  0  0  0  0  0
  -22.0120  -13.1690   22.8410 H   0  0  0  0  0  0  0  0  0  0  0  0
  -26.0380  -15.0970   20.3250 N   0  0  0  0  0  0  0  0  0  0  0  0
  -25.3590  -15.7870   20.6220 H   0  0  0  0  0  0  0  0  0  0  0  0
  -26.8150  -15.4990   19.8170 H   0  0  0  0  0  0  0  0  0  0  0  0
  -28.1380  -22.0630   20.1710 C   0  0  0  0  0  2  0  0  0  0  0  0
  -28.1950  -22.9360   18.8970 C   0  0  0  0  0  2  0  0  0  0  0  0
  -28.2100  -24.4370   19.2610 C   0  0  0  0  0  2  0  0  0  0  0  0
  -28.4000  -25.3880   18.0650 C   0  0  0  0  0  2  0  0  0  0  0  0
  -28.3490  -26.7540   18.4880 O   0  0  0  0  0  0  0  0  0  0  0  0
  -24.6480  -31.2080   22.6240 C   0  0  0  0  0  0  0  0  0  0  0  0
  -27.1260  -27.3570   18.7110 C   0  0  0  0  0  0  0  0  0  0  0  0
  -23.3310  -29.9660   20.9400 C   0  0  0  0  0  3  0  0  0  0  0  0
  -24.6830  -28.7030   19.1890 C   0  0  0  0  0  0  0  0  0  0  0  0
  -25.8070  -30.4780   20.5420 C   0  0  0  0  0  2  0  0  0  0  0  0
  -25.8750  -29.2090   19.7210 C   0  0  0  0  0  0  0  0  0  0  0  0
  -27.0970  -28.5410   19.4820 C   0  0  0  0  0  3  0  0  0  0  0  0
  -25.9070  -26.8550   18.1920 C   0  0  0  0  0  3  0  0  0  0  0  0
  -24.6940  -27.5220   18.4300 C   0  0  0  0  0  3  0  0  0  0  0  0
  -23.4200  -29.4820   19.4700 C   0  0  0  0  0  2  0  0  0  0  0  0
  -24.6190  -30.5590   21.4270 N   0  0  0  0  0  0  0  0  0  0  0  0
  -23.6190  -31.3510   23.2990 O   0  0  0  0  0  0  0  0  0  0  0  0
  -22.8280  -28.7960   21.8150 C   0  0  0  0  0  0  0  0  0  0  0  0
  -21.5190  -28.5110   21.7310 N   0  0  0  0  0  0  0  0  0  0  0  0
  -23.6090  -28.1520   22.5210 O   0  0  0  0  0  0  0  0  0  0  0  0
  -20.9480  -29.0860   21.1280 H   0  0  0  0  0  0  0  0  0  0  0  0
  -18.3000  -26.9470   22.2200 C   0  0  0  0  0  0  0  0  0  0  0  0
  -20.8290  -27.4310   22.4360 C   0  0  0  0  0  3  0  0  0  0  0  0
  -21.0460  -26.0740   21.7250 C   0  0  0  0  0  2  0  0  0  0  0  0
  -19.9380  -25.7370   20.7220 C   0  0  0  0  0  2  0  0  0  0  0  0
  -18.5770  -25.6860   21.4190 C   0  0  0  0  0  2  0  0  0  0  0  0
  -19.3550  -27.7740   22.6850 C   0  0  0  0  0  0  0  0  0  0  0  0
  -19.0410  -28.9520   23.3930 C   0  0  0  0  0  3  0  0  0  0  0  0
  -17.7040  -29.3080   23.6460 C   0  0  0  0  0  3  0  0  0  0  0  0
  -16.6620  -28.4770   23.1970 C   0  0  0  0  0  3  0  0  0  0  0  0
  -16.9610  -27.2980   22.4890 C   0  0  0  0  0  3  0  0  0  0  0  0
  -25.9660  -31.8210   23.1920 C   0  0  0  0  0  3  0  0  0  0  0  0
  -25.6230  -33.1070   23.8130 N   0  0  0  0  0  0  0  0  0  0  0  0
  -25.8180  -34.3040   23.2410 C   0  0  0  0  0  0  0  0  0  0  0  0
  -26.3780  -34.4410   22.1500 O   0  0  0  0  0  0  0  0  0  0  0  0
  -25.1100  -33.0670   24.6810 H   0  0  0  0  0  0  0  0  0  0  0  0
  -23.9800  -36.0140   23.3860 C   0  0  0  0  0  1  0  0  0  0  0  0
  -25.3080  -35.5430   23.9990 C   0  0  0  0  0  3  0  0  0  0  0  0
  -27.4630  -36.3910   24.8140 C   0  0  0  0  0  1  0  0  0  0  0  0
  -26.2740  -36.6620   24.0110 N   0  0  0  0  0  0  0  0  0  0  0  0
  -25.8400  -37.5110   24.3650 H   0  0  0  0  0  0  0  0  0  0  0  0
  -26.6960  -30.8780   24.2260 C   0  0  1  0  0  0  0  0  0  0  0  0
  -25.7680  -30.3440   25.3420 C   0  0  0  0  0  1  0  0  0  0  0  0
  -27.3200  -29.6610   23.5060 C   0  0  0  0  0  1  0  0  0  0  0  0
  -27.8620  -31.6400   24.8980 C   0  0  0  0  0  1  0  0  0  0  0  0
  1 48  1  0
  1  8  1  0
  2  1  1  0
  3  1  1  0
  5  4  1  0
  6  8  1  0
  6  5  1  0
  7  4  1  0
  7  9  1  0
  7  6  1  0
  8  5  1  0
 10 18  1  0
 10 16  1  0
 11 16  1  0
 12 13  1  0
 12 11  1  0
 13 14  1  0
 14 23  1  0
 14 15  1  0
 16 15  1  0
 17 10  2  0
 18  9  1  0
 19 18  1  0
 20 21  2  0
 21 40  1  0
 22 25  1  0
 22 21  1  0
 23 24  1  0
 23 20  1  0
 24 22  2  0
 25 26  1  0
 26 27  2  0
 28 31  1  0
 28 27  1  0
 29 28  2  0
 30 29  1  0
 30 25  2  0
 31 32  1  0
 32 37  2  0
 32 33  1  0
 33 34  2  0
 34 35  1  0
 35 39  1  0
 36 35  2  0
 37 36  1  0
 38 37  1  0
 40 41  1  0
 41 43  1  0
 41 44  1  0
 42 40  2  0
 45 20  1  0
 45 46  1  0
 47 45  1  0
 49 50  1  0
 49 48  1  0
 51 52  1  0
 51 50  1  0
 52 54  1  0
 53 79  1  0
 53 64  2  0
 54 59  1  0
 55 63  1  0
 55 65  1  0
 56 62  1  0
 56 58  1  0
 57 63  1  0
 58 57  1  0
 59 58  2  0
 60 61  1  0
 60 54  2  0
 61 56  2  0
 62 55  1  0
 63 53  1  0
 65 67  2  0
 66 65  1  0
 66 70  1  0
 68 66  1  0
 69 78  2  0
 69 74  1  0
 70 74  1  0
 71 70  1  0
 72 73  1  0
 72 71  1  0
 73 69  1  0
 74 75  2  0
 75 76  1  0
 77 76  2  0
 78 77  1  0
 79 80  1  0
 79 89  1  0
 80 83  1  0
 81 80  1  0
 81 85  1  0
 82 81  2  0
 84 85  1  0
 85 87  1  0
 87 88  1  0
 87 86  1  0
 89 92  1  1
 89 90  1  0
 91 89  1  0
M  ISO  4  10 100  18 100  51 101  52 101
M  END
>  <TORSDO>  (80) 
F 22

>  <SCORE>  (80) 
-8.708

>  <name>  (80) 
80

>  <ligand_id>  (80) 
80

>  <original_smiles>  (80) 
[H]c1c([H])c([H])c2c(c1[H])C([H])([H])C([H])([H])C([H])([H])C2([H])N([H])C(=O)C1([H])N(C(=O)C([H])(N([H])C(=O)C([H])(N([H])C([H])([H])[H])C([H])([H])[H])C(C([H])([H])[H])(C([H])([H])[H])C([H])([H])[H])C([H])([H])c2c([H])c(OC([H])([H])C([H])([H])C([H])([H])C([H])([H])[N+]([H])([H])C3([H])C4([H])C([H])([H])C([H])(C([H])([H])N([H])C(=O)N5C([H])([H])C([H])([H])C([H])([H])C([H])(n6nc(-c7c([H])c([H])c(Oc8c([H])c([H])c(F)c([H])c8F)c([H])c7[H])c(C(=O)N([H])[H])c6N([H])[H])C5([H])[H])C43[H])c([H])c([H])c2C1([H])[H]

>  <smiles>  (80) 
[H]c1c([H])c([H])c2c(c1[H])C([H])([H])C([H])([H])C([H])([H])C2([H])N([H])C(=O)C1([H])N(C(=O)C([H])(N([H])C(=O)C([H])(N([H])C([H])([H])[H])C([H])([H])[H])C(C([H])([H])[H])(C([H])([H])[H])C([H])([H])[H])C([H])([H])c2c([H])c(OC([H])([H])C([H])([H])C([H])([H])C([H])([H])[N+]([H])([H])C3([H])C4([H])C([H])([H])C([H])(C([H])([H])N([H])C(=O)N5C([H])([H])C([H])([H])C([H])([H])C([H])(n6nc(-c7c([H])c([H])c(Oc8c([H])c([H])c(F)c([H])c8F)c([H])c7[H])c(C(=O)N([H])[H])c6N([H])[H])C5([H])[H])C43[H])c([H])c([H])c2C1([H])[H]

$$$$
81:0:0
     RDKit          3D

 94103  0  0  1  0  0  0  0  0999 V2000
  -31.3140  -19.1560   20.0510 C   0  0  0  0  0  3  0  0  0  0  0  0
  -29.1550  -18.0520   20.0110 C   0  0  0  0  0  3  0  0  0  0  0  0
  -30.7110  -20.3740   19.6710 C   0  0  0  0  0  3  0  0  0  0  0  0
  -28.5480  -19.2790   19.6350 C   0  0  0  0  0  3  0  0  0  0  0  0
  -30.5500  -17.9780   20.2320 C   0  0  0  0  0  0  0  0  0  0  0  0
  -29.3160  -20.4590   19.4660 C   0  0  0  0  0  0  0  0  0  0  0  0
  -30.8150  -14.5370   19.6730 C   0  0  0  0  0  0  0  0  0  0  0  0
  -30.2490  -12.4670   18.4240 C   0  0  0  0  0  2  0  0  0  0  0  0
  -29.1820  -12.7110   17.3390 C   0  0  0  0  0  2  0  0  0  0  0  0
  -27.7680  -12.5600   17.9270 C   0  0  0  0  0  2  0  0  0  0  0  0
  -27.5910  -13.3730   19.2330 C   0  0  0  0  0  3  0  0  0  0  0  0
  -28.7540  -13.1210   20.2100 C   0  0  0  0  0  2  0  0  0  0  0  0
  -30.0310  -13.4200   19.5330 N   0  0  0  0  0  0  0  0  0  0  0  0
  -31.7040  -14.7860   18.8510 O   0  0  0  0  0  0  0  0  0  0  0  0
  -31.5860  -15.5950   22.9090 C   0  0  0  0  0  2  0  0  0  0  0  0
  -31.5710  -16.9730   22.2890 C   0  0  0  0  0  2  0  0  0  0  0  0
  -30.5280  -14.8590   22.0990 C   0  0  0  0  0  2  0  0  0  0  0  0
  -31.2520  -16.7300   20.8070 C   0  0  0  0  0  3  0  0  0  0  0  0
  -30.5900  -15.3880   20.7240 N   0  0  0  0  0  0  0  0  0  0  0  0
  -25.3300  -13.9960   20.2930 C   0  0  0  0  0  0  0  0  0  0  0  0
  -24.2910  -13.2300   20.7510 C   0  0  0  0  0  0  0  0  0  0  0  0
  -24.6950  -11.8710   20.5750 C   0  0  0  0  0  0  0  0  0  0  0  0
  -26.3000  -13.1030   19.8660 N   0  0  0  0  0  0  0  0  0  0  0  0
  -25.9300  -11.8170   20.0950 N   0  0  0  0  0  0  0  0  0  0  0  0
  -23.9540  -10.6210   20.7790 C   0  0  0  0  0  0  0  0  0  0  0  0
  -24.4090   -9.6280   21.6770 C   0  0  0  0  0  3  0  0  0  0  0  0
  -23.6690   -8.4420   21.8690 C   0  0  0  0  0  3  0  0  0  0  0  0
  -22.4590   -8.2390   21.1650 C   0  0  0  0  0  0  0  0  0  0  0  0
  -22.0220   -9.2180   20.2560 C   0  0  0  0  0  3  0  0  0  0  0  0
  -22.7620  -10.3960   20.0620 C   0  0  0  0  0  3  0  0  0  0  0  0
  -21.6870   -7.1070   21.2680 O   0  0  0  0  0  0  0  0  0  0  0  0
  -21.6010   -6.3990   22.4390 C   0  0  0  0  0  0  0  0  0  0  0  0
  -21.1390   -6.9890   23.6350 C   0  0  0  0  0  3  0  0  0  0  0  0
  -21.0000   -6.2070   24.8000 C   0  0  0  0  0  3  0  0  0  0  0  0
  -21.3140   -4.8360   24.7690 C   0  0  0  0  0  0  0  0  0  0  0  0
  -21.7710   -4.2450   23.5770 C   0  0  0  0  0  3  0  0  0  0  0  0
  -21.9110   -5.0230   22.4150 C   0  0  0  0  0  0  0  0  0  0  0  0
  -22.3310   -4.4450   21.2650 F   0  0  0  0  0  0  0  0  0  0  0  0
  -21.1750   -4.0820   25.8840 F   0  0  0  0  0  0  0  0  0  0  0  0
  -22.9600  -13.7280   21.2350 C   0  0  0  0  0  0  0  0  0  0  0  0
  -22.3300  -13.0010   22.1520 N   0  0  0  0  0  0  0  0  0  0  0  0
  -22.4910  -14.7920   20.8350 O   0  0  0  0  0  0  0  0  0  0  0  0
  -22.7250  -12.1380   22.4950 H   0  0  0  0  0  0  0  0  0  0  0  0
  -21.4420  -13.3130   22.5170 H   0  0  0  0  0  0  0  0  0  0  0  0
  -25.5220  -15.3700   20.1850 N   0  0  0  0  0  0  0  0  0  0  0  0
  -24.8050  -16.0390   20.4410 H   0  0  0  0  0  0  0  0  0  0  0  0
  -26.3430  -15.8030   19.7800 H   0  0  0  0  0  0  0  0  0  0  0  0
  -28.6860  -21.7860   18.9940 C   0  0  0  0  0  2  0  0  0  0  0  0
  -28.6260  -22.8620   20.0220 N   0  0  0  0  0  4  0  0  0  0  0  0
  -29.4980  -22.8510   20.5260 H   0  0  0  0  0  0  0  0  0  0  0  0
  -27.8990  -22.6170   20.6750 H   0  0  0  0  0  0  0  0  0  0  0  0
  -28.3890  -24.2460   19.4840 C   0  0  0  0  0  2  0  0  0  0  0  0
  -28.2610  -25.3450   20.5820 C   0  0  0  0  0  2  0  0  0  0  0  0
  -28.3410  -26.7040   20.0910 O   0  0  0  0  0  0  0  0  0  0  0  0
  -24.5730  -31.9180   23.2020 C   0  0  0  0  0  0  0  0  0  0  0  0
  -27.1750  -27.4460   20.1160 C   0  0  0  0  0  0  0  0  0  0  0  0
  -23.3450  -30.5040   21.5870 C   0  0  0  0  0  3  0  0  0  0  0  0
  -24.7800  -28.9580   20.1500 C   0  0  0  0  0  0  0  0  0  0  0  0
  -25.8680  -30.8650   21.3460 C   0  0  0  0  0  2  0  0  0  0  0  0
  -25.9480  -29.4880   20.7130 C   0  0  0  0  0  0  0  0  0  0  0  0
  -27.1510  -28.7430   20.6850 C   0  0  0  0  0  3  0  0  0  0  0  0
  -25.9900  -26.9300   19.5490 C   0  0  0  0  0  3  0  0  0  0  0  0
  -24.7970  -27.6790   19.5630 C   0  0  0  0  0  3  0  0  0  0  0  0
  -23.5350  -29.8150   20.2090 C   0  0  0  0  0  2  0  0  0  0  0  0
  -24.6150  -31.1110   22.1030 N   0  0  0  0  0  0  0  0  0  0  0  0
  -23.4990  -32.1910   23.7570 O   0  0  0  0  0  0  0  0  0  0  0  0
  -22.7110  -29.4880   22.5630 C   0  0  0  0  0  0  0  0  0  0  0  0
  -21.3890  -29.2780   22.4360 N   0  0  0  0  0  0  0  0  0  0  0  0
  -23.4040  -28.8890   23.3910 O   0  0  0  0  0  0  0  0  0  0  0  0
  -20.8920  -29.8140   21.7390 H   0  0  0  0  0  0  0  0  0  0  0  0
  -18.0390  -28.0210   22.9370 C   0  0  0  0  0  0  0  0  0  0  0  0
  -20.5900  -28.3380   23.2190 C   0  0  0  0  0  3  0  0  0  0  0  0
  -20.7250  -26.8980   22.6700 C   0  0  0  0  0  2  0  0  0  0  0  0
  -19.6360  -26.5350   21.6550 C   0  0  0  0  0  2  0  0  0  0  0  0
  -18.2480  -26.6630   22.2890 C   0  0  0  0  0  2  0  0  0  0  0  0
  -19.1390  -28.8140   23.3590 C   0  0  0  0  0  0  0  0  0  0  0  0
  -18.8900  -30.0840   23.9250 C   0  0  0  0  0  3  0  0  0  0  0  0
  -17.5750  -30.5610   24.0730 C   0  0  0  0  0  3  0  0  0  0  0  0
  -16.4890  -29.7660   23.6680 C   0  0  0  0  0  3  0  0  0  0  0  0
  -16.7220  -28.4970   23.1050 C   0  0  0  0  0  3  0  0  0  0  0  0
  -25.8670  -32.5550   23.7990 C   0  0  0  0  0  3  0  0  0  0  0  0
  -26.4270  -31.7710   25.0490 C   0  0  1  0  0  0  0  0  0  0  0  0
  -25.3590  -31.4720   26.1250 C   0  0  0  0  0  1  0  0  0  0  0  0
  -27.0490  -30.4230   24.6120 C   0  0  0  0  0  1  0  0  0  0  0  0
  -27.5620  -32.5860   25.7140 C   0  0  0  0  0  1  0  0  0  0  0  0
  -25.5520  -33.9440   24.1560 N   0  0  0  0  0  0  0  0  0  0  0  0
  -25.8480  -35.0100   23.4000 C   0  0  0  0  0  0  0  0  0  0  0  0
  -26.4870  -34.9280   22.3480 O   0  0  0  0  0  0  0  0  0  0  0  0
  -24.9800  -34.0820   24.9770 H   0  0  0  0  0  0  0  0  0  0  0  0
  -24.0890  -36.7850   23.1180 C   0  0  0  0  0  1  0  0  0  0  0  0
  -25.3570  -36.3870   23.8900 C   0  0  0  0  0  3  0  0  0  0  0  0
  -27.5000  -37.2910   24.6770 C   0  0  0  0  0  1  0  0  0  0  0  0
  -26.3740  -37.4530   23.7610 N   0  0  0  0  0  0  0  0  0  0  0  0
  -25.9600  -38.3670   23.9260 H   0  0  0  0  0  0  0  0  0  0  0  0
  1  5  1  0
  2  5  2  0
  3  1  2  0
  4  2  1  0
  6  4  2  0
  6  3  1  0
  7 19  1  0
  8 13  1  0
  9 10  1  0
  9  8  1  0
 11 10  1  0
 11 23  1  0
 11 12  1  0
 13  7  1  0
 13 12  1  0
 14  7  2  0
 16 15  1  0
 17 15  1  0
 18  5  1  0
 18 16  1  0
 19 18  1  0
 19 17  1  0
 20 21  2  0
 21 40  1  0
 22 21  1  0
 22 25  1  0
 23 24  1  0
 23 20  1  0
 24 22  2  0
 25 26  1  0
 26 27  2  0
 28 31  1  0
 28 27  1  0
 29 28  2  0
 30 29  1  0
 30 25  2  0
 31 32  1  0
 32 33  1  0
 33 34  2  0
 35 34  1  0
 35 39  1  0
 36 35  2  0
 37 32  2  0
 37 36  1  0
 38 37  1  0
 40 41  1  0
 41 43  1  0
 41 44  1  0
 42 40  2  0
 45 20  1  0
 45 46  1  0
 47 45  1  0
 48  6  1  0
 48 49  1  0
 49 50  1  0
 49 51  1  0
 52 49  1  0
 52 53  1  0
 54 56  1  0
 54 53  1  0
 55 66  2  0
 56 61  1  0
 57 65  1  0
 57 67  1  0
 58 64  1  0
 58 60  1  0
 59 65  1  0
 60 59  1  0
 61 60  2  0
 62 63  1  0
 62 56  2  0
 63 58  2  0
 64 57  1  0
 65 55  1  0
 67 69  2  0
 68 67  1  0
 70 68  1  0
 71 80  2  0
 71 76  1  0
 72 68  1  0
 72 76  1  0
 73 72  1  0
 74 75  1  0
 74 73  1  0
 75 71  1  0
 76 77  2  0
 77 78  1  0
 79 78  2  0
 80 79  1  0
 81 55  1  0
 81 86  1  0
 81 82  1  0
 82 85  1  1
 82 83  1  0
 84 82  1  0
 86 89  1  0
 87 91  1  0
 87 86  1  0
 88 87  2  0
 91 90  1  0
 93 91  1  0
 93 94  1  0
 93 92  1  0
M  ISO  4   7 100  19 100  53 101  54 101
M  END
>  <TORSDO>  (81) 
F 20

>  <SCORE>  (81) 
-10.116

>  <name>  (81) 
81

>  <ligand_id>  (81) 
81

>  <original_smiles>  (81) 
[H]c1c([H])c([H])c2c(c1[H])C([H])([H])C([H])([H])C([H])([H])C2([H])N([H])C(=O)C1([H])N(C(=O)C([H])(N([H])C(=O)C([H])(N([H])C([H])([H])[H])C([H])([H])[H])C(C([H])([H])[H])(C([H])([H])[H])C([H])([H])[H])C([H])([H])c2c([H])c(OC([H])([H])C([H])([H])[N+]([H])([H])C([H])([H])c3c([H])c([H])c(C4([H])N(C(=O)N5C([H])([H])C([H])([H])C([H])([H])C([H])(n6nc(-c7c([H])c([H])c(Oc8c([H])c([H])c(F)c([H])c8F)c([H])c7[H])c(C(=O)N([H])[H])c6N([H])[H])C5([H])[H])C([H])([H])C([H])([H])C4([H])[H])c([H])c3[H])c([H])c([H])c2C1([H])[H]

>  <smiles>  (81) 
[H]c1c([H])c([H])c2c(c1[H])C([H])([H])C([H])([H])C([H])([H])C2([H])N([H])C(=O)C1([H])N(C(=O)C([H])(N([H])C(=O)C([H])(N([H])C([H])([H])[H])C([H])([H])[H])C(C([H])([H])[H])(C([H])([H])[H])C([H])([H])[H])C([H])([H])c2c([H])c(OC([H])([H])C([H])([H])[N+]([H])([H])C([H])([H])c3c([H])c([H])c(C4([H])N(C(=O)N5C([H])([H])C([H])([H])C([H])([H])C([H])(n6nc(-c7c([H])c([H])c(Oc8c([H])c([H])c(F)c([H])c8F)c([H])c7[H])c(C(=O)N([H])[H])c6N([H])[H])C5([H])[H])C([H])([H])C([H])([H])C4([H])[H])c([H])c3[H])c([H])c([H])c2C1([H])[H]

$$$$
82:0:0
     RDKit          3D

 90 99  0  0  1  0  0  0  0  0999 V2000
  -28.9810  -21.4130   20.2370 N   0  0  0  0  0  4  0  0  0  0  0  0
  -28.5230  -21.2970   19.3450 H   0  0  0  0  0  0  0  0  0  0  0  0
  -28.2600  -21.2520   20.9250 H   0  0  0  0  0  0  0  0  0  0  0  0
  -30.7720  -20.1480   21.6710 C   0  0  0  0  0  1  0  0  0  0  0  0
  -29.9790  -20.0830   20.3540 C   0  0  0  0  0  3  0  0  0  0  0  0
  -30.4220  -15.4700   20.2360 C   0  0  0  0  0  0  0  0  0  0  0  0
  -30.4820  -12.9880   19.3620 C   0  0  0  0  0  2  0  0  0  0  0  0
  -29.5400  -12.6340   18.1740 C   0  0  0  0  0  2  0  0  0  0  0  0
  -28.1370  -12.2300   18.6640 C   0  0  0  0  0  2  0  0  0  0  0  0
  -27.6350  -13.2350   19.7060 C   0  0  0  0  0  3  0  0  0  0  0  0
  -28.6990  -13.5090   20.8210 C   0  0  0  0  0  2  0  0  0  0  0  0
  -29.8910  -14.1210   20.1790 N   0  0  0  0  0  0  0  0  0  0  0  0
  -31.6460  -15.4710   20.0290 O   0  0  0  0  0  0  0  0  0  0  0  0
  -26.9470  -18.6660   19.0520 C   0  0  0  0  0  2  0  0  0  0  0  0
  -28.1560  -16.5760   20.1680 C   0  0  0  0  0  2  0  0  0  0  0  0
  -27.6430  -17.3290   18.9680 C   0  0  0  0  0  3  0  0  0  0  0  0
  -28.4500  -18.5650   18.9470 C   0  0  0  0  0  3  0  0  0  0  0  0
  -29.3610  -18.4440   20.1440 C   0  0  0  0  0  3  0  0  0  0  0  0
  -29.6070  -16.7550   20.3250 N   0  0  0  0  0  0  0  0  0  0  0  0
  -25.2590  -13.8580   20.4740 C   0  0  0  0  0  0  0  0  0  0  0  0
  -24.2010  -13.0870   20.8620 C   0  0  0  0  0  0  0  0  0  0  0  0
  -24.6740  -11.7440   20.8440 C   0  0  0  0  0  0  0  0  0  0  0  0
  -26.3050  -12.9730   20.2370 N   0  0  0  0  0  0  0  0  0  0  0  0
  -25.9630  -11.7010   20.5330 N   0  0  0  0  0  0  0  0  0  0  0  0
  -23.9560  -10.4830   21.0320 C   0  0  0  0  0  0  0  0  0  0  0  0
  -24.3890   -9.5310   21.9780 C   0  0  0  0  0  3  0  0  0  0  0  0
  -23.6740   -8.3280   22.1550 C   0  0  0  0  0  3  0  0  0  0  0  0
  -22.5140   -8.0740   21.3860 C   0  0  0  0  0  0  0  0  0  0  0  0
  -22.1010   -9.0180   20.4290 C   0  0  0  0  0  3  0  0  0  0  0  0
  -22.8170  -10.2110   20.2490 C   0  0  0  0  0  3  0  0  0  0  0  0
  -21.7690   -6.9270   21.4770 O   0  0  0  0  0  0  0  0  0  0  0  0
  -21.6950   -6.2130   22.6470 C   0  0  0  0  0  0  0  0  0  0  0  0
  -21.1840   -6.7750   23.8370 C   0  0  0  0  0  3  0  0  0  0  0  0
  -21.0660   -5.9850   24.9970 C   0  0  0  0  0  3  0  0  0  0  0  0
  -21.4450   -4.6300   24.9660 C   0  0  0  0  0  0  0  0  0  0  0  0
  -21.9500   -4.0660   23.7810 C   0  0  0  0  0  3  0  0  0  0  0  0
  -22.0740   -4.8550   22.6240 C   0  0  0  0  0  0  0  0  0  0  0  0
  -22.5440   -4.3030   21.4810 F   0  0  0  0  0  0  0  0  0  0  0  0
  -21.3260   -3.8660   26.0770 F   0  0  0  0  0  0  0  0  0  0  0  0
  -22.8040  -13.5650   21.1250 C   0  0  0  0  0  0  0  0  0  0  0  0
  -22.0800  -12.8800   22.0020 N   0  0  0  0  0  0  0  0  0  0  0  0
  -22.3560  -14.5820   20.5920 O   0  0  0  0  0  0  0  0  0  0  0  0
  -22.4480  -12.0620   22.4660 H   0  0  0  0  0  0  0  0  0  0  0  0
  -21.1410  -13.1850   22.2240 H   0  0  0  0  0  0  0  0  0  0  0  0
  -25.3810  -15.2260   20.2730 N   0  0  0  0  0  0  0  0  0  0  0  0
  -24.5850  -15.8490   20.3670 H   0  0  0  0  0  0  0  0  0  0  0  0
  -26.2060  -15.6930   19.9220 H   0  0  0  0  0  0  0  0  0  0  0  0
  -29.2890  -23.0380   20.3410 C   0  0  0  0  0  3  0  0  0  0  0  0
  -28.1520  -24.4110   20.2100 C   0  0  0  0  0  3  0  0  0  0  0  0
  -28.3220  -26.0320   20.3420 O   0  0  0  0  0  0  0  0  0  0  0  0
  -24.6730  -31.9210   23.2760 C   0  0  0  0  0  0  0  0  0  0  0  0
  -27.2650  -27.0720   20.2840 C   0  0  0  0  0  0  0  0  0  0  0  0
  -23.4830  -30.5180   21.6340 C   0  0  0  0  0  3  0  0  0  0  0  0
  -24.9390  -28.9060   20.2330 C   0  0  0  0  0  0  0  0  0  0  0  0
  -26.0460  -30.7410   21.4950 C   0  0  0  0  0  2  0  0  0  0  0  0
  -26.1220  -29.3320   20.8460 C   0  0  0  0  0  0  0  0  0  0  0  0
  -27.2790  -28.4360   20.8470 C   0  0  0  0  0  3  0  0  0  0  0  0
  -26.0460  -26.7820   19.6280 C   0  0  0  0  0  3  0  0  0  0  0  0
  -24.9220  -27.6480   19.6060 C   0  0  0  0  0  3  0  0  0  0  0  0
  -23.7180  -29.8200   20.2660 C   0  0  0  0  0  2  0  0  0  0  0  0
  -24.7540  -31.0840   22.1890 N   0  0  0  0  0  0  0  0  0  0  0  0
  -23.5810  -32.2150   23.7900 O   0  0  0  0  0  0  0  0  0  0  0  0
  -22.7770  -29.5330   22.6030 C   0  0  0  0  0  0  0  0  0  0  0  0
  -21.4490  -29.3650   22.4650 N   0  0  0  0  0  0  0  0  0  0  0  0
  -23.4340  -28.9170   23.4460 O   0  0  0  0  0  0  0  0  0  0  0  0
  -20.9710  -29.9210   21.7680 H   0  0  0  0  0  0  0  0  0  0  0  0
  -18.0610  -28.1510   22.9380 C   0  0  0  0  0  0  0  0  0  0  0  0
  -20.6170  -28.4310   23.2320 C   0  0  0  0  0  3  0  0  0  0  0  0
  -20.7290  -26.9930   22.6740 C   0  0  0  0  0  2  0  0  0  0  0  0
  -19.6410  -26.6560   21.6480 C   0  0  0  0  0  2  0  0  0  0  0  0
  -18.2510  -26.7990   22.2740 C   0  0  0  0  0  2  0  0  0  0  0  0
  -19.1710  -28.9240   23.3750 C   0  0  0  0  0  0  0  0  0  0  0  0
  -18.9360  -30.1880   23.9580 C   0  0  0  0  0  3  0  0  0  0  0  0
  -17.6260  -30.6810   24.1040 C   0  0  0  0  0  3  0  0  0  0  0  0
  -16.5310  -29.9070   23.6830 C   0  0  0  0  0  3  0  0  0  0  0  0
  -16.7500  -28.6430   23.1080 C   0  0  0  0  0  3  0  0  0  0  0  0
  -25.9430  -32.5570   23.9160 C   0  0  0  0  0  3  0  0  0  0  0  0
  -26.4240  -31.8050   25.2180 C   0  0  1  0  0  0  0  0  0  0  0  0
  -25.3100  -31.6020   26.2720 C   0  0  0  0  0  1  0  0  0  0  0  0
  -27.0000  -30.4130   24.8730 C   0  0  0  0  0  1  0  0  0  0  0  0
  -27.5690  -32.6020   25.8890 C   0  0  0  0  0  1  0  0  0  0  0  0
  -25.6390  -33.9650   24.2280 N   0  0  0  0  0  0  0  0  0  0  0  0
  -25.9770  -35.0110   23.4620 C   0  0  0  0  0  0  0  0  0  0  0  0
  -26.6430  -34.8900   22.4290 O   0  0  0  0  0  0  0  0  0  0  0  0
  -25.0460  -34.1300   25.0280 H   0  0  0  0  0  0  0  0  0  0  0  0
  -24.2650  -36.8220   23.1070 C   0  0  0  0  0  1  0  0  0  0  0  0
  -25.5090  -36.4100   23.9100 C   0  0  0  0  0  3  0  0  0  0  0  0
  -27.6570  -37.2930   24.7150 C   0  0  0  0  0  1  0  0  0  0  0  0
  -26.5510  -37.4520   23.7730 N   0  0  0  0  0  0  0  0  0  0  0  0
  -26.1560  -38.3790   23.9020 H   0  0  0  0  0  0  0  0  0  0  0  0
  1 48  1  0
  1  5  1  0
  1  3  1  0
  2  1  1  0
  5  4  1  0
  6 19  1  0
  7 12  1  0
  8  9  1  0
  8  7  1  0
 10  9  1  0
 10 23  1  0
 10 11  1  0
 12  6  1  0
 12 11  1  0
 13  6  2  0
 15 19  1  0
 16 14  1  0
 16 15  1  0
 17 16  1  0
 17 14  1  0
 17 18  1  0
 18 19  1  0
 18  5  1  0
 20 21  2  0
 21 40  1  0
 22 21  1  0
 22 25  1  0
 23 20  1  0
 23 24  1  0
 24 22  2  0
 25 26  1  0
 26 27  2  0
 28 31  1  0
 28 27  1  0
 29 28  2  0
 30 29  1  0
 30 25  2  0
 31 32  1  0
 32 33  1  0
 33 34  2  0
 35 34  1  0
 35 39  1  0
 36 35  2  0
 37 32  2  0
 37 36  1  0
 38 37  1  0
 40 41  1  0
 41 44  1  0
 41 43  1  0
 42 40  2  0
 45 46  1  0
 45 20  1  0
 47 45  1  0
 49 48  2  0
 49 50  1  0
 51 62  2  0
 52 50  1  0
 52 57  1  0
 53 61  1  0
 53 63  1  0
 54 60  1  0
 54 56  1  0
 55 61  1  0
 56 57  2  0
 56 55  1  0
 58 52  2  0
 59 58  1  0
 59 54  2  0
 60 53  1  0
 61 51  1  0
 63 65  2  0
 64 63  1  0
 66 64  1  0
 67 76  2  0
 67 72  1  0
 68 64  1  0
 68 72  1  0
 69 68  1  0
 70 71  1  0
 70 69  1  0
 71 67  1  0
 72 73  2  0
 73 74  1  0
 75 74  2  0
 76 75  1  0
 77 51  1  0
 77 82  1  0
 77 78  1  0
 78 81  1  1
 78 79  1  0
 80 78  1  0
 82 85  1  0
 83 87  1  0
 83 82  1  0
 84 83  2  0
 87 86  1  0
 89 90  1  0
 89 87  1  0
 89 88  1  0
M  ISO  4   6 100  19 100  49 101  50 101
M  END
>  <TORSDO>  (82) 
F 19

>  <SCORE>  (82) 
-15.626

>  <name>  (82) 
82

>  <ligand_id>  (82) 
82

>  <original_smiles>  (82) 
[H]c1c([H])c([H])c2c(c1[H])C([H])([H])C([H])([H])C([H])([H])C2([H])N([H])C(=O)C1([H])N(C(=O)C([H])(N([H])C(=O)C([H])(N([H])C([H])([H])[H])C([H])([H])[H])C(C([H])([H])[H])(C([H])([H])[H])C([H])([H])[H])C([H])([H])c2c([H])c(OC([H])([H])C([H])([H])[N+]([H])([H])C([H])(C([H])([H])[H])C3([H])N(C(=O)N4C([H])([H])C([H])([H])C([H])([H])C([H])(n5nc(-c6c([H])c([H])c(Oc7c([H])c([H])c(F)c([H])c7F)c([H])c6[H])c(C(=O)N([H])[H])c5N([H])[H])C4([H])[H])C([H])([H])C4([H])C([H])([H])C34[H])c([H])c([H])c2C1([H])[H]

>  <smiles>  (82) 
[H]c1c([H])c([H])c2c(c1[H])C([H])([H])C([H])([H])C([H])([H])C2([H])N([H])C(=O)C1([H])N(C(=O)C([H])(N([H])C(=O)C([H])(N([H])C([H])([H])[H])C([H])([H])[H])C(C([H])([H])[H])(C([H])([H])[H])C([H])([H])[H])C([H])([H])c2c([H])c(OC([H])([H])C([H])([H])[N+]([H])([H])C([H])(C([H])([H])[H])C3([H])N(C(=O)N4C([H])([H])C([H])([H])C([H])([H])C([H])(n5nc(-c6c([H])c([H])c(Oc7c([H])c([H])c(F)c([H])c7F)c([H])c6[H])c(C(=O)N([H])[H])c5N([H])[H])C4([H])[H])C([H])([H])C4([H])C([H])([H])C34[H])c([H])c([H])c2C1([H])[H]

$$$$
83:0:0
     RDKit          3D

 90 99  0  0  1  0  0  0  0  0999 V2000
  -25.6670  -19.2920   19.5570 C   0  0  0  0  0  2  0  0  0  0  0  0
  -27.0170  -18.6430   19.8490 C   0  0  0  0  0  2  0  0  0  0  0  0
  -26.9240  -20.4870   17.5260 C   0  0  0  0  0  2  0  0  0  0  0  0
  -28.4580  -20.2670   17.5770 C   0  0  0  0  0  2  0  0  0  0  0  0
  -26.4530  -20.4730   18.9720 C   0  0  0  0  0  3  0  0  0  0  0  0
  -27.6510  -20.0550   19.8220 C   0  0  0  0  0  3  0  0  0  0  0  0
  -28.9540  -20.3390   19.0570 C   0  0  2  0  0  0  0  0  0  0  0  0
  -29.1830  -22.1850   19.3240 C   0  0  0  0  0  0  0  0  0  0  0  0
  -30.3330  -22.4540   19.6880 O   0  0  0  0  0  0  0  0  0  0  0  0
  -28.1210  -23.7160   19.2020 C   0  0  0  0  0  2  0  0  0  0  0  0
  -28.3110  -25.4270   19.5750 O   0  0  0  0  0  0  0  0  0  0  0  0
  -24.5980  -31.4050   22.8820 C   0  0  0  0  0  0  0  0  0  0  0  0
  -27.3210  -26.6230   19.5810 C   0  0  0  0  0  0  0  0  0  0  0  0
  -23.4780  -30.0840   21.1360 C   0  0  0  0  0  3  0  0  0  0  0  0
  -24.9960  -28.5880   19.6360 C   0  0  0  0  0  0  0  0  0  0  0  0
  -26.0550  -30.3140   21.0680 C   0  0  0  0  0  2  0  0  0  0  0  0
  -26.1720  -28.9310   20.3130 C   0  0  0  0  0  0  0  0  0  0  0  0
  -27.3170  -27.9810   20.2590 C   0  0  0  0  0  3  0  0  0  0  0  0
  -26.1080  -26.4940   18.8610 C   0  0  0  0  0  3  0  0  0  0  0  0
  -25.0050  -27.3960   18.8890 C   0  0  0  0  0  3  0  0  0  0  0  0
  -23.7620  -29.4970   19.7240 C   0  0  0  0  0  2  0  0  0  0  0  0
  -24.7320  -30.6320   21.7490 N   0  0  0  0  0  0  0  0  0  0  0  0
  -23.4900  -31.6280   23.3980 O   0  0  0  0  0  0  0  0  0  0  0  0
  -22.7860  -29.0170   22.0270 C   0  0  0  0  0  0  0  0  0  0  0  0
  -21.4540  -28.8560   21.9040 N   0  0  0  0  0  0  0  0  0  0  0  0
  -23.4590  -28.3360   22.8040 O   0  0  0  0  0  0  0  0  0  0  0  0
  -20.9620  -29.4550   21.2550 H   0  0  0  0  0  0  0  0  0  0  0  0
  -18.0840  -27.5820   22.3710 C   0  0  0  0  0  0  0  0  0  0  0  0
  -20.6480  -27.8510   22.6070 C   0  0  0  0  0  3  0  0  0  0  0  0
  -20.7470  -26.4740   21.9090 C   0  0  0  0  0  2  0  0  0  0  0  0
  -19.6300  -26.2330   20.8890 C   0  0  0  0  0  2  0  0  0  0  0  0
  -18.2580  -26.3040   21.5670 C   0  0  0  0  0  2  0  0  0  0  0  0
  -19.2050  -28.3160   22.8460 C   0  0  0  0  0  0  0  0  0  0  0  0
  -18.9830  -29.5100   23.5640 C   0  0  0  0  0  3  0  0  0  0  0  0
  -17.6760  -29.9750   23.8070 C   0  0  0  0  0  3  0  0  0  0  0  0
  -16.5710  -29.2380   23.3470 C   0  0  0  0  0  3  0  0  0  0  0  0
  -16.7760  -28.0440   22.6330 C   0  0  0  0  0  3  0  0  0  0  0  0
  -25.8300  -32.0530   23.5800 C   0  0  0  0  0  3  0  0  0  0  0  0
  -26.3030  -31.2590   24.8610 C   0  0  1  0  0  0  0  0  0  0  0  0
  -25.1790  -31.0230   25.8970 C   0  0  0  0  0  1  0  0  0  0  0  0
  -26.8740  -29.8770   24.4780 C   0  0  0  0  0  1  0  0  0  0  0  0
  -27.4500  -32.0250   25.5590 C   0  0  0  0  0  1  0  0  0  0  0  0
  -25.4680  -33.4340   23.9570 N   0  0  0  0  0  0  0  0  0  0  0  0
  -25.8150  -34.5370   23.2800 C   0  0  0  0  0  0  0  0  0  0  0  0
  -26.5310  -34.5000   22.2770 O   0  0  0  0  0  0  0  0  0  0  0  0
  -24.8370  -33.5330   24.7380 H   0  0  0  0  0  0  0  0  0  0  0  0
  -24.0680  -36.3270   22.9670 C   0  0  0  0  0  1  0  0  0  0  0  0
  -25.2900  -35.8960   23.7940 C   0  0  0  0  0  3  0  0  0  0  0  0
  -27.3710  -36.7920   24.7510 C   0  0  0  0  0  1  0  0  0  0  0  0
  -26.3070  -36.9740   23.7670 N   0  0  0  0  0  0  0  0  0  0  0  0
  -25.8760  -37.8810   23.9270 H   0  0  0  0  0  0  0  0  0  0  0  0
  -30.0720  -18.7600   19.2660 C   0  0  0  0  0  2  0  0  0  0  0  0
  -30.7360  -15.6540   19.5080 C   0  0  0  0  0  0  0  0  0  0  0  0
  -30.8540  -13.0430   18.9790 C   0  0  0  0  0  2  0  0  0  0  0  0
  -29.9240  -12.5110   17.8520 C   0  0  0  0  0  2  0  0  0  0  0  0
  -28.5190  -12.2050   18.4000 C   0  0  0  0  0  2  0  0  0  0  0  0
  -28.0430  -13.3040   19.3760 C   0  0  0  0  0  3  0  0  0  0  0  0
  -29.1120  -13.7350   20.4030 C   0  0  0  0  0  2  0  0  0  0  0  0
  -30.2390  -14.2870   19.6220 N   0  0  0  0  0  0  0  0  0  0  0  0
  -31.9670  -15.6010   19.3310 O   0  0  0  0  0  0  0  0  0  0  0  0
  -29.9360  -16.9870   19.4140 N   0  0  0  0  0  0  0  0  0  0  0  0
  -28.9610  -16.7470   19.5050 H   0  0  0  0  0  0  0  0  0  0  0  0
  -25.7900  -13.9160   20.3780 C   0  0  0  0  0  0  0  0  0  0  0  0
  -24.7180  -13.1750   20.7880 C   0  0  0  0  0  0  0  0  0  0  0  0
  -25.1000  -11.8080   20.6300 C   0  0  0  0  0  0  0  0  0  0  0  0
  -26.7550  -13.0070   19.9890 N   0  0  0  0  0  0  0  0  0  0  0  0
  -26.3600  -11.7260   20.2090 N   0  0  0  0  0  0  0  0  0  0  0  0
  -24.3140  -10.5770   20.8000 C   0  0  0  0  0  0  0  0  0  0  0  0
  -24.7220   -9.5510   21.6810 C   0  0  0  0  0  3  0  0  0  0  0  0
  -23.9330   -8.3930   21.8440 C   0  0  0  0  0  3  0  0  0  0  0  0
  -22.7250   -8.2500   21.1250 C   0  0  0  0  0  0  0  0  0  0  0  0
  -22.3320   -9.2630   20.2320 C   0  0  0  0  0  3  0  0  0  0  0  0
  -23.1220  -10.4130   20.0660 C   0  0  0  0  0  3  0  0  0  0  0  0
  -21.9090   -7.1460   21.2010 O   0  0  0  0  0  0  0  0  0  0  0  0
  -21.8080   -6.4000   22.3490 C   0  0  0  0  0  0  0  0  0  0  0  0
  -21.3300   -6.9530   23.5570 C   0  0  0  0  0  3  0  0  0  0  0  0
  -21.1750   -6.1350   24.6930 C   0  0  0  0  0  3  0  0  0  0  0  0
  -21.4930   -4.7650   24.6230 C   0  0  0  0  0  0  0  0  0  0  0  0
  -21.9650   -4.2110   23.4180 C   0  0  0  0  0  3  0  0  0  0  0  0
  -22.1180   -5.0270   22.2840 C   0  0  0  0  0  0  0  0  0  0  0  0
  -22.5530   -4.4860   21.1200 F   0  0  0  0  0  0  0  0  0  0  0  0
  -21.3390   -3.9750   25.7110 F   0  0  0  0  0  0  0  0  0  0  0  0
  -23.3770  -13.7120   21.1960 C   0  0  0  0  0  0  0  0  0  0  0  0
  -22.6830  -13.0150   22.0870 N   0  0  0  0  0  0  0  0  0  0  0  0
  -22.9630  -14.7850   20.7590 O   0  0  0  0  0  0  0  0  0  0  0  0
  -23.0380  -12.1470   22.4640 H   0  0  0  0  0  0  0  0  0  0  0  0
  -21.7840  -13.3550   22.3990 H   0  0  0  0  0  0  0  0  0  0  0  0
  -26.0160  -15.2850   20.2680 N   0  0  0  0  0  0  0  0  0  0  0  0
  -25.3010  -15.9680   20.4860 H   0  0  0  0  0  0  0  0  0  0  0  0
  -26.8370  -15.6920   19.8440 H   0  0  0  0  0  0  0  0  0  0  0  0
  1  2  1  0
  3  4  1  0
  4  7  1  0
  5  3  1  0
  5  1  1  0
  5  6  1  0
  6  2  1  0
  7 52  1  6
  7  8  1  0
  7  6  1  0
  8  9  2  0
 10  8  1  0
 10 11  1  0
 11 13  1  0
 12 23  2  0
 13 18  1  0
 14 22  1  0
 14 24  1  0
 15 21  1  0
 15 17  1  0
 16 22  1  0
 17 16  1  0
 18 17  2  0
 19 20  1  0
 19 13  2  0
 20 15  2  0
 21 14  1  0
 22 12  1  0
 24 26  2  0
 25 24  1  0
 27 25  1  0
 28 37  2  0
 28 33  1  0
 29 25  1  0
 29 33  1  0
 30 29  1  0
 31 32  1  0
 31 30  1  0
 32 28  1  0
 33 34  2  0
 34 35  1  0
 36 35  2  0
 37 36  1  0
 38 12  1  0
 38 43  1  0
 38 39  1  0
 39 42  1  1
 39 40  1  0
 41 39  1  0
 43 46  1  0
 44 48  1  0
 44 43  1  0
 45 44  2  0
 48 47  1  0
 50 48  1  0
 50 51  1  0
 50 49  1  0
 52 61  1  0
 53 59  1  0
 54 59  1  0
 55 56  1  0
 55 54  1  0
 57 56  1  0
 57 66  1  0
 57 58  1  0
 59 58  1  0
 60 53  2  0
 61 62  1  0
 61 53  1  0
 63 64  2  0
 64 83  1  0
 65 64  1  0
 65 68  1  0
 66 67  1  0
 66 63  1  0
 67 65  2  0
 68 69  1  0
 69 70  2  0
 71 74  1  0
 71 70  1  0
 72 71  2  0
 73 72  1  0
 73 68  2  0
 74 75  1  0
 75 76  1  0
 76 77  2  0
 78 77  1  0
 78 82  1  0
 79 78  2  0
 80 75  2  0
 80 79  1  0
 81 80  1  0
 83 84  1  0
 84 87  1  0
 84 86  1  0
 85 83  2  0
 88 63  1  0
 88 89  1  0
 90 88  1  0
M  ISO  4  10 101  11 101  53 100  61 100
M  END
>  <TORSDO>  (83) 
F 19

>  <SCORE>  (83) 
-13.693

>  <name>  (83) 
83

>  <ligand_id>  (83) 
83

>  <original_smiles>  (83) 
[H]c1c([H])c([H])c2c(c1[H])C([H])([H])C([H])([H])C([H])([H])C2([H])N([H])C(=O)C1([H])N(C(=O)C([H])(N([H])C(=O)C([H])(N([H])C([H])([H])[H])C([H])([H])[H])C(C([H])([H])[H])(C([H])([H])[H])C([H])([H])[H])C([H])([H])c2c([H])c(OC([H])([H])C(=O)C3(C([H])([H])N([H])C(=O)N4C([H])([H])C([H])([H])C([H])([H])C([H])(n5nc(-c6c([H])c([H])c(Oc7c([H])c([H])c(F)c([H])c7F)c([H])c6[H])c(C(=O)N([H])[H])c5N([H])[H])C4([H])[H])C([H])([H])C([H])([H])C4([H])C([H])([H])C([H])([H])C43[H])c([H])c([H])c2C1([H])[H]

>  <smiles>  (83) 
[H]c1c([H])c([H])c2c(c1[H])C([H])([H])C([H])([H])C([H])([H])C2([H])N([H])C(=O)C1([H])N(C(=O)C([H])(N([H])C(=O)C([H])(N([H])C([H])([H])[H])C([H])([H])[H])C(C([H])([H])[H])(C([H])([H])[H])C([H])([H])[H])C([H])([H])c2c([H])c(OC([H])([H])C(=O)C3(C([H])([H])N([H])C(=O)N4C([H])([H])C([H])([H])C([H])([H])C([H])(n5nc(-c6c([H])c([H])c(Oc7c([H])c([H])c(F)c([H])c7F)c([H])c6[H])c(C(=O)N([H])[H])c5N([H])[H])C4([H])[H])C([H])([H])C([H])([H])C4([H])C([H])([H])C([H])([H])C43[H])c([H])c([H])c2C1([H])[H]

$$$$
84:0:0
     RDKit          3D

 93102  0  0  1  0  0  0  0  0999 V2000
  -27.6460  -20.8410   19.5820 C   0  0  0  0  0  2  0  0  0  0  0  0
  -26.8150  -23.0240   20.8490 C   0  0  0  0  0  2  0  0  0  0  0  0
  -29.3350  -22.1390   20.6890 C   0  0  0  0  0  2  0  0  0  0  0  0
  -27.2410  -22.3370   19.5780 C   0  0  0  0  0  3  0  0  0  0  0  0
  -29.1580  -20.6540   19.9490 C   0  0  2  0  0  0  0  0  0  0  0  0
  -28.2070  -23.2560   20.3190 C   0  0  1  0  0  0  0  0  0  0  0  0
  -30.0340  -20.7440   18.6740 C   0  0  0  0  0  0  0  0  0  0  0  0
  -31.3210  -20.4360   18.7830 N   0  0  0  0  0  0  0  0  0  0  0  0
  -29.5800  -21.1290   17.5990 O   0  0  0  0  0  0  0  0  0  0  0  0
  -31.7020  -20.1450   19.6710 H   0  0  0  0  0  0  0  0  0  0  0  0
  -31.9320  -20.5010   17.9820 H   0  0  0  0  0  0  0  0  0  0  0  0
  -29.4250  -19.1170   20.6660 C   0  0  0  0  0  2  0  0  0  0  0  0
  -30.0120  -17.6930   19.9410 C   0  0  0  0  0  2  0  0  0  0  0  0
  -30.5790  -15.0070   20.2140 C   0  0  0  0  0  0  0  0  0  0  0  0
  -30.4460  -12.6580   19.2730 C   0  0  0  0  0  2  0  0  0  0  0  0
  -29.5050  -12.6420   18.0470 C   0  0  0  0  0  2  0  0  0  0  0  0
  -28.0480  -12.4190   18.4920 C   0  0  0  0  0  2  0  0  0  0  0  0
  -27.6500  -13.3340   19.6800 C   0  0  0  0  0  3  0  0  0  0  0  0
  -28.7140  -13.3360   20.8010 C   0  0  0  0  0  2  0  0  0  0  0  0
  -29.9860  -13.7450   20.1920 N   0  0  0  0  0  0  0  0  0  0  0  0
  -31.7570  -15.0790   19.8480 O   0  0  0  0  0  0  0  0  0  0  0  0
  -29.8160  -16.1920   20.4280 N   0  0  0  0  0  0  0  0  0  0  0  0
  -28.8930  -15.9990   20.7920 H   0  0  0  0  0  0  0  0  0  0  0  0
  -25.2710  -13.9040   20.4350 C   0  0  0  0  0  0  0  0  0  0  0  0
  -24.2130  -13.1260   20.8150 C   0  0  0  0  0  0  0  0  0  0  0  0
  -24.6840  -11.7770   20.7870 C   0  0  0  0  0  0  0  0  0  0  0  0
  -26.3170  -13.0300   20.1860 N   0  0  0  0  0  0  0  0  0  0  0  0
  -25.9730  -11.7460   20.4650 N   0  0  0  0  0  0  0  0  0  0  0  0
  -23.9660  -10.5120   20.9900 C   0  0  0  0  0  0  0  0  0  0  0  0
  -24.4000   -9.5540   21.9320 C   0  0  0  0  0  3  0  0  0  0  0  0
  -23.6780   -8.3550   22.1190 C   0  0  0  0  0  3  0  0  0  0  0  0
  -22.5090   -8.1060   21.3630 C   0  0  0  0  0  0  0  0  0  0  0  0
  -22.0940   -9.0510   20.4080 C   0  0  0  0  0  3  0  0  0  0  0  0
  -22.8170  -10.2410   20.2180 C   0  0  0  0  0  3  0  0  0  0  0  0
  -21.7610   -6.9560   21.4590 O   0  0  0  0  0  0  0  0  0  0  0  0
  -21.7040   -6.2290   22.6200 C   0  0  0  0  0  0  0  0  0  0  0  0
  -21.2430   -6.7930   23.8300 C   0  0  0  0  0  3  0  0  0  0  0  0
  -21.1300   -5.9910   24.9820 C   0  0  0  0  0  3  0  0  0  0  0  0
  -21.4750   -4.6260   24.9290 C   0  0  0  0  0  0  0  0  0  0  0  0
  -21.9310   -4.0620   23.7250 C   0  0  0  0  0  3  0  0  0  0  0  0
  -22.0410   -4.8610   22.5730 C   0  0  0  0  0  0  0  0  0  0  0  0
  -22.4600   -4.3080   21.4090 F   0  0  0  0  0  0  0  0  0  0  0  0
  -21.3610   -3.8550   26.0350 F   0  0  0  0  0  0  0  0  0  0  0  0
  -22.8160  -13.5980   21.0990 C   0  0  0  0  0  0  0  0  0  0  0  0
  -22.0960  -12.8990   21.9700 N   0  0  0  0  0  0  0  0  0  0  0  0
  -22.3720  -14.6220   20.5820 O   0  0  0  0  0  0  0  0  0  0  0  0
  -22.4660  -12.0720   22.4160 H   0  0  0  0  0  0  0  0  0  0  0  0
  -21.1620  -13.2020   22.2030 H   0  0  0  0  0  0  0  0  0  0  0  0
  -25.4280  -15.2770   20.2530 N   0  0  0  0  0  0  0  0  0  0  0  0
  -24.6600  -15.9290   20.3640 H   0  0  0  0  0  0  0  0  0  0  0  0
  -26.2680  -15.7140   19.8960 H   0  0  0  0  0  0  0  0  0  0  0  0
  -28.4900  -24.8130   19.7680 C   0  0  0  0  0  2  0  0  0  0  0  0
  -28.2970  -26.2380   20.3680 O   0  0  0  0  0  0  0  0  0  0  0  0
  -24.6000  -31.8780   23.2310 C   0  0  0  0  0  0  0  0  0  0  0  0
  -27.2120  -27.1740   20.2180 C   0  0  0  0  0  0  0  0  0  0  0  0
  -23.4070  -30.4700   21.5900 C   0  0  0  0  0  3  0  0  0  0  0  0
  -24.8670  -28.8990   20.1660 C   0  0  0  0  0  0  0  0  0  0  0  0
  -25.9560  -30.7510   21.4300 C   0  0  0  0  0  2  0  0  0  0  0  0
  -26.0390  -29.3590   20.7780 C   0  0  0  0  0  0  0  0  0  0  0  0
  -27.2030  -28.5100   20.7900 C   0  0  0  0  0  3  0  0  0  0  0  0
  -26.0180  -26.8070   19.5610 C   0  0  0  0  0  3  0  0  0  0  0  0
  -24.8710  -27.6360   19.5410 C   0  0  0  0  0  3  0  0  0  0  0  0
  -23.6330  -29.7870   20.2110 C   0  0  0  0  0  2  0  0  0  0  0  0
  -24.6740  -31.0570   22.1380 N   0  0  0  0  0  0  0  0  0  0  0  0
  -23.5140  -32.1600   23.7580 O   0  0  0  0  0  0  0  0  0  0  0  0
  -22.7330  -29.4650   22.5570 C   0  0  0  0  0  0  0  0  0  0  0  0
  -21.4070  -29.2880   22.4310 N   0  0  0  0  0  0  0  0  0  0  0  0
  -23.4070  -28.8450   23.3850 O   0  0  0  0  0  0  0  0  0  0  0  0
  -20.9210  -29.8410   21.7390 H   0  0  0  0  0  0  0  0  0  0  0  0
  -18.0300  -28.0740   22.9280 C   0  0  0  0  0  0  0  0  0  0  0  0
  -20.5870  -28.3480   23.2020 C   0  0  0  0  0  3  0  0  0  0  0  0
  -20.6970  -26.9150   22.6300 C   0  0  0  0  0  2  0  0  0  0  0  0
  -19.5990  -26.5840   21.6140 C   0  0  0  0  0  2  0  0  0  0  0  0
  -18.2140  -26.7260   22.2540 C   0  0  0  0  0  2  0  0  0  0  0  0
  -19.1440  -28.8440   23.3590 C   0  0  0  0  0  0  0  0  0  0  0  0
  -18.9160  -30.1050   23.9490 C   0  0  0  0  0  3  0  0  0  0  0  0
  -17.6080  -30.5980   24.1130 C   0  0  0  0  0  3  0  0  0  0  0  0
  -16.5080  -29.8240   23.7000 C   0  0  0  0  0  3  0  0  0  0  0  0
  -16.7200  -28.5660   23.1120 C   0  0  0  0  0  3  0  0  0  0  0  0
  -25.8770  -32.5200   23.8580 C   0  0  0  0  0  3  0  0  0  0  0  0
  -26.3860  -31.7600   25.1450 C   0  0  1  0  0  0  0  0  0  0  0  0
  -25.2870  -31.5350   26.2090 C   0  0  0  0  0  1  0  0  0  0  0  0
  -26.9730  -30.3800   24.7730 C   0  0  0  0  0  1  0  0  0  0  0  0
  -27.5290  -32.5630   25.8100 C   0  0  0  0  0  1  0  0  0  0  0  0
  -25.5610  -33.9200   24.1870 N   0  0  0  0  0  0  0  0  0  0  0  0
  -25.8910  -34.9770   23.4330 C   0  0  0  0  0  0  0  0  0  0  0  0
  -26.5590  -34.8750   22.4020 O   0  0  0  0  0  0  0  0  0  0  0  0
  -24.9700  -34.0710   24.9910 H   0  0  0  0  0  0  0  0  0  0  0  0
  -24.1650  -36.7730   23.0770 C   0  0  0  0  0  1  0  0  0  0  0  0
  -25.4030  -36.3640   23.8920 C   0  0  0  0  0  3  0  0  0  0  0  0
  -27.5310  -37.2490   24.7390 C   0  0  0  0  0  1  0  0  0  0  0  0
  -26.4360  -37.4170   23.7880 N   0  0  0  0  0  0  0  0  0  0  0  0
  -26.0300  -38.3360   23.9350 H   0  0  0  0  0  0  0  0  0  0  0  0
  1  5  1  0
  4  1  1  0
  4  6  1  0
  4  2  1  0
  5 12  1  1
  5  3  1  0
  6 52  1  6
  6  3  1  0
  6  2  1  0
  7  8  1  0
  7  5  1  0
  8 10  1  0
  9  7  2  0
 11  8  1  0
 13 22  1  0
 13 12  1  0
 14 22  1  0
 15 20  1  0
 16 17  1  0
 16 15  1  0
 18 17  1  0
 18 27  1  0
 18 19  1  0
 20 14  1  0
 20 19  1  0
 21 14  2  0
 22 23  1  0
 24 25  2  0
 25 44  1  0
 26 25  1  0
 26 29  1  0
 27 24  1  0
 27 28  1  0
 28 26  2  0
 29 30  1  0
 30 31  2  0
 32 35  1  0
 32 31  1  0
 33 32  2  0
 34 33  1  0
 34 29  2  0
 35 36  1  0
 36 37  1  0
 37 38  2  0
 39 38  1  0
 39 43  1  0
 40 39  2  0
 41 36  2  0
 41 40  1  0
 42 41  1  0
 44 45  1  0
 45 48  1  0
 45 47  1  0
 46 44  2  0
 49 50  1  0
 49 24  1  0
 51 49  1  0
 52 53  1  0
 54 65  2  0
 55 53  1  0
 55 60  1  0
 56 64  1  0
 56 66  1  0
 57 63  1  0
 57 59  1  0
 58 64  1  0
 59 60  2  0
 59 58  1  0
 61 55  2  0
 62 61  1  0
 62 57  2  0
 63 56  1  0
 64 54  1  0
 66 68  2  0
 67 66  1  0
 69 67  1  0
 70 79  2  0
 70 75  1  0
 71 67  1  0
 71 75  1  0
 72 71  1  0
 73 74  1  0
 73 72  1  0
 74 70  1  0
 75 76  2  0
 76 77  1  0
 78 77  2  0
 79 78  1  0
 80 54  1  0
 80 85  1  0
 80 81  1  0
 81 84  1  1
 81 82  1  0
 83 81  1  0
 85 88  1  0
 86 90  1  0
 86 85  1  0
 87 86  2  0
 90 89  1  0
 92 90  1  0
 92 93  1  0
 92 91  1  0
M  ISO  4  14 100  22 100  52 101  53 101
M  END
>  <TORSDO>  (84) 
F 20

>  <SCORE>  (84) 
-14.821

>  <name>  (84) 
84

>  <ligand_id>  (84) 
84

>  <original_smiles>  (84) 
[H]c1c([H])c([H])c2c(c1[H])C([H])([H])C([H])([H])C([H])([H])C2([H])N([H])C(=O)C1([H])N(C(=O)C([H])(N([H])C(=O)C([H])(N([H])C([H])([H])[H])C([H])([H])[H])C(C([H])([H])[H])(C([H])([H])[H])C([H])([H])[H])C([H])([H])c2c([H])c(OC([H])([H])C34C([H])([H])C3([H])C([H])([H])C(C(=O)N([H])[H])(C([H])([H])C([H])([H])N([H])C(=O)N3C([H])([H])C([H])([H])C([H])([H])C([H])(n5nc(-c6c([H])c([H])c(Oc7c([H])c([H])c(F)c([H])c7F)c([H])c6[H])c(C(=O)N([H])[H])c5N([H])[H])C3([H])[H])C4([H])[H])c([H])c([H])c2C1([H])[H]

>  <smiles>  (84) 
[H]c1c([H])c([H])c2c(c1[H])C([H])([H])C([H])([H])C([H])([H])C2([H])N([H])C(=O)C1([H])N(C(=O)C([H])(N([H])C(=O)C([H])(N([H])C([H])([H])[H])C([H])([H])[H])C(C([H])([H])[H])(C([H])([H])[H])C([H])([H])[H])C([H])([H])c2c([H])c(OC([H])([H])C34C([H])([H])C3([H])C([H])([H])C(C(=O)N([H])[H])(C([H])([H])C([H])([H])N([H])C(=O)N3C([H])([H])C([H])([H])C([H])([H])C([H])(n5nc(-c6c([H])c([H])c(Oc7c([H])c([H])c(F)c([H])c7F)c([H])c6[H])c(C(=O)N([H])[H])c5N([H])[H])C3([H])[H])C4([H])[H])c([H])c([H])c2C1([H])[H]

$$$$
85:0:0
     RDKit          3D

 89 97  0  0  1  0  0  0  0  0999 V2000
  -28.6320  -23.2990   18.3960 C   0  0  0  0  0  1  0  0  0  0  0  0
  -30.5490  -23.7960   19.9240 C   0  0  0  0  0  1  0  0  0  0  0  0
  -29.0670  -23.3950   19.8680 C   0  0  2  0  0  0  0  0  0  0  0  0
  -28.9750  -21.8290   20.5020 C   0  0  0  0  0  3  0  0  0  0  0  0
  -29.6700  -20.4380   19.8420 C   0  0  0  0  0  3  0  0  0  0  0  0
  -30.7280  -14.9700   19.9560 C   0  0  0  0  0  0  0  0  0  0  0  0
  -30.4650  -12.6570   18.9430 C   0  0  0  0  0  2  0  0  0  0  0  0
  -29.4550  -12.6430   17.7720 C   0  0  0  0  0  2  0  0  0  0  0  0
  -28.0230  -12.4260   18.2940 C   0  0  0  0  0  2  0  0  0  0  0  0
  -27.7020  -13.3250   19.5150 C   0  0  0  0  0  3  0  0  0  0  0  0
  -28.8320  -13.3040   20.5710 C   0  0  0  0  0  2  0  0  0  0  0  0
  -30.0590  -13.7420   19.8890 N   0  0  0  0  0  0  0  0  0  0  0  0
  -31.9060  -14.9620   19.5770 O   0  0  0  0  0  0  0  0  0  0  0  0
  -28.4670  -18.0880   20.6290 C   0  0  0  0  0  2  0  0  0  0  0  0
  -28.8210  -16.5670   20.8280 C   0  0  0  0  0  2  0  0  0  0  0  0
  -30.5950  -17.6610   19.8040 C   0  0  0  0  0  2  0  0  0  0  0  0
  -29.7740  -18.8920   20.5170 C   0  0  1  0  0  0  0  0  0  0  0  0
  -30.3640  -19.0860   21.9270 C   0  0  0  0  0  1  0  0  0  0  0  0
  -30.0830  -16.2410   20.1440 N   0  0  0  0  0  0  0  0  0  0  0  0
  -25.3740  -13.9060   20.4180 C   0  0  0  0  0  0  0  0  0  0  0  0
  -24.3320  -13.1300   20.8380 C   0  0  0  0  0  0  0  0  0  0  0  0
  -24.7830  -11.7780   20.7420 C   0  0  0  0  0  0  0  0  0  0  0  0
  -26.3960  -13.0280   20.0930 N   0  0  0  0  0  0  0  0  0  0  0  0
  -26.0520  -11.7410   20.3530 N   0  0  0  0  0  0  0  0  0  0  0  0
  -24.0570  -10.5180   20.9400 C   0  0  0  0  0  0  0  0  0  0  0  0
  -24.4990   -9.5470   21.8650 C   0  0  0  0  0  3  0  0  0  0  0  0
  -23.7710   -8.3530   22.0520 C   0  0  0  0  0  3  0  0  0  0  0  0
  -22.5850   -8.1220   21.3140 C   0  0  0  0  0  0  0  0  0  0  0  0
  -22.1620   -9.0810   20.3770 C   0  0  0  0  0  3  0  0  0  0  0  0
  -22.8910  -10.2670   20.1880 C   0  0  0  0  0  3  0  0  0  0  0  0
  -21.8260   -6.9800   21.4100 O   0  0  0  0  0  0  0  0  0  0  0  0
  -21.7450   -6.2680   22.5800 C   0  0  0  0  0  0  0  0  0  0  0  0
  -21.2860   -6.8560   23.7790 C   0  0  0  0  0  3  0  0  0  0  0  0
  -21.1520   -6.0700   24.9420 C   0  0  0  0  0  3  0  0  0  0  0  0
  -21.4670   -4.6980   24.9050 C   0  0  0  0  0  0  0  0  0  0  0  0
  -21.9190   -4.1100   23.7100 C   0  0  0  0  0  3  0  0  0  0  0  0
  -22.0550   -4.8940   22.5500 C   0  0  0  0  0  0  0  0  0  0  0  0
  -22.4700   -4.3190   21.3960 F   0  0  0  0  0  0  0  0  0  0  0  0
  -21.3310   -3.9410   26.0190 F   0  0  0  0  0  0  0  0  0  0  0  0
  -22.9600  -13.6120   21.2070 C   0  0  0  0  0  0  0  0  0  0  0  0
  -22.2820  -12.9030   22.1030 N   0  0  0  0  0  0  0  0  0  0  0  0
  -22.5000  -14.6530   20.7400 O   0  0  0  0  0  0  0  0  0  0  0  0
  -22.6690  -12.0610   22.5060 H   0  0  0  0  0  0  0  0  0  0  0  0
  -21.3640  -13.2070   22.3920 H   0  0  0  0  0  0  0  0  0  0  0  0
  -25.5190  -15.2790   20.2550 N   0  0  0  0  0  0  0  0  0  0  0  0
  -24.7520  -15.9190   20.4270 H   0  0  0  0  0  0  0  0  0  0  0  0
  -26.3250  -15.7310   19.8460 H   0  0  0  0  0  0  0  0  0  0  0  0
  -28.2140  -24.7020   20.5030 C   0  0  0  0  0  2  0  0  0  0  0  0
  -28.4230  -26.2100   20.1880 O   0  0  0  0  0  0  0  0  0  0  0  0
  -24.5930  -31.7790   23.1270 C   0  0  0  0  0  0  0  0  0  0  0  0
  -27.3320  -27.1450   20.1480 C   0  0  0  0  0  0  0  0  0  0  0  0
  -23.4560  -30.3640   21.4580 C   0  0  0  0  0  3  0  0  0  0  0  0
  -24.9660  -28.8240   20.0630 C   0  0  0  0  0  0  0  0  0  0  0  0
  -26.0040  -30.6900   21.3460 C   0  0  0  0  0  2  0  0  0  0  0  0
  -26.1210  -29.3010   20.6960 C   0  0  0  0  0  0  0  0  0  0  0  0
  -27.3080  -28.4790   20.7190 C   0  0  0  0  0  3  0  0  0  0  0  0
  -26.1540  -26.7650   19.4730 C   0  0  0  0  0  3  0  0  0  0  0  0
  -24.9940  -27.5690   19.4360 C   0  0  0  0  0  3  0  0  0  0  0  0
  -23.7190  -29.6950   20.0830 C   0  0  0  0  0  2  0  0  0  0  0  0
  -24.7030  -30.9670   22.0330 N   0  0  0  0  0  0  0  0  0  0  0  0
  -23.4900  -32.0400   23.6340 O   0  0  0  0  0  0  0  0  0  0  0  0
  -22.7790  -29.3410   22.4020 C   0  0  0  0  0  0  0  0  0  0  0  0
  -21.4530  -29.1620   22.2640 N   0  0  0  0  0  0  0  0  0  0  0  0
  -23.4490  -28.7100   23.2240 O   0  0  0  0  0  0  0  0  0  0  0  0
  -20.9690  -29.7240   21.5780 H   0  0  0  0  0  0  0  0  0  0  0  0
  -18.0760  -27.9380   22.7310 C   0  0  0  0  0  0  0  0  0  0  0  0
  -20.6320  -28.2100   23.0170 C   0  0  0  0  0  3  0  0  0  0  0  0
  -20.7450  -26.7860   22.4240 C   0  0  0  0  0  2  0  0  0  0  0  0
  -19.6510  -26.4710   21.3990 C   0  0  0  0  0  2  0  0  0  0  0  0
  -18.2640  -26.5990   22.0360 C   0  0  0  0  0  2  0  0  0  0  0  0
  -19.1880  -28.7010   23.1770 C   0  0  0  0  0  0  0  0  0  0  0  0
  -18.9580  -29.9530   23.7880 C   0  0  0  0  0  3  0  0  0  0  0  0
  -17.6480  -30.4430   23.9550 C   0  0  0  0  0  3  0  0  0  0  0  0
  -16.5510  -29.6770   23.5230 C   0  0  0  0  0  3  0  0  0  0  0  0
  -16.7660  -28.4260   22.9170 C   0  0  0  0  0  3  0  0  0  0  0  0
  -25.8440  -32.4380   23.7830 C   0  0  0  0  0  3  0  0  0  0  0  0
  -26.3520  -31.6650   25.0640 C   0  0  1  0  0  0  0  0  0  0  0  0
  -25.2430  -31.3950   26.1070 C   0  0  0  0  0  1  0  0  0  0  0  0
  -26.9720  -30.3040   24.6740 C   0  0  0  0  0  1  0  0  0  0  0  0
  -27.4720  -32.4780   25.7550 C   0  0  0  0  0  1  0  0  0  0  0  0
  -25.4920  -33.8240   24.1280 N   0  0  0  0  0  0  0  0  0  0  0  0
  -25.8120  -34.8990   23.3940 C   0  0  0  0  0  0  0  0  0  0  0  0
  -26.5020  -34.8290   22.3730 O   0  0  0  0  0  0  0  0  0  0  0  0
  -24.8800  -33.9510   24.9200 H   0  0  0  0  0  0  0  0  0  0  0  0
  -24.0480  -36.6600   23.0450 C   0  0  0  0  0  1  0  0  0  0  0  0
  -25.2870  -36.2700   23.8680 C   0  0  0  0  0  3  0  0  0  0  0  0
  -27.3870  -37.1910   24.7440 C   0  0  0  0  0  1  0  0  0  0  0  0
  -26.2960  -37.3480   23.7870 N   0  0  0  0  0  0  0  0  0  0  0  0
  -25.8650  -38.2560   23.9410 H   0  0  0  0  0  0  0  0  0  0  0  0
  3  1  1  6
  3  2  1  0
  3  4  1  0
  3 48  1  0
  5  4  2  0
  5 17  1  0
  6 19  1  0
  7 12  1  0
  8  9  1  0
  8  7  1  0
 10  9  1  0
 10 23  1  0
 10 11  1  0
 12  6  1  0
 12 11  1  0
 13  6  2  0
 14 15  1  0
 16 19  1  0
 16 17  1  0
 17 14  1  0
 17 18  1  1
 19 15  1  0
 20 21  2  0
 21 40  1  0
 22 21  1  0
 22 25  1  0
 23 24  1  0
 23 20  1  0
 24 22  2  0
 25 26  1  0
 26 27  2  0
 28 31  1  0
 28 27  1  0
 29 28  2  0
 30 29  1  0
 30 25  2  0
 31 32  1  0
 32 33  1  0
 33 34  2  0
 35 34  1  0
 35 39  1  0
 36 35  2  0
 37 32  2  0
 37 36  1  0
 38 37  1  0
 40 41  1  0
 41 44  1  0
 41 43  1  0
 42 40  2  0
 45 20  1  0
 45 46  1  0
 47 45  1  0
 49 48  1  0
 50 61  2  0
 51 49  1  0
 51 56  1  0
 52 60  1  0
 52 62  1  0
 53 59  1  0
 53 55  1  0
 54 60  1  0
 55 56  2  0
 55 54  1  0
 57 51  2  0
 58 57  1  0
 58 53  2  0
 59 52  1  0
 60 50  1  0
 62 64  2  0
 63 62  1  0
 65 63  1  0
 66 75  2  0
 66 71  1  0
 67 63  1  0
 67 71  1  0
 68 67  1  0
 69 70  1  0
 69 68  1  0
 70 66  1  0
 71 72  2  0
 72 73  1  0
 74 73  2  0
 75 74  1  0
 76 50  1  0
 76 81  1  0
 76 77  1  0
 77 80  1  1
 77 78  1  0
 79 77  1  0
 81 84  1  0
 82 86  1  0
 82 81  1  0
 83 82  2  0
 86 85  1  0
 88 86  1  0
 88 89  1  0
 88 87  1  0
M  ISO  4   6 100  19 100  48 101  49 101
M  END
>  <TORSDO>  (85) 
F 19

>  <SCORE>  (85) 
-13.775

>  <name>  (85) 
85

>  <ligand_id>  (85) 
85

>  <original_smiles>  (85) 
[H]c1c([H])c([H])c2c(c1[H])C([H])([H])C([H])([H])C([H])([H])C2([H])N([H])C(=O)C1([H])N(C(=O)C([H])(N([H])C(=O)C([H])(N([H])C([H])([H])[H])C([H])([H])[H])C(C([H])([H])[H])(C([H])([H])[H])C([H])([H])[H])C([H])([H])c2c([H])c(OC([H])([H])C(C([H])([H])[H])(C([H])([H])[H])C([H])([H])C([H])([H])C3(C([H])([H])[H])C([H])([H])N(C(=O)N4C([H])([H])C([H])([H])C([H])([H])C([H])(n5nc(-c6c([H])c([H])c(Oc7c([H])c([H])c(F)c([H])c7F)c([H])c6[H])c(C(=O)N([H])[H])c5N([H])[H])C4([H])[H])C([H])([H])C3([H])[H])c([H])c([H])c2C1([H])[H]

>  <smiles>  (85) 
[H]c1c([H])c([H])c2c(c1[H])C([H])([H])C([H])([H])C([H])([H])C2([H])N([H])C(=O)C1([H])N(C(=O)C([H])(N([H])C(=O)C([H])(N([H])C([H])([H])[H])C([H])([H])[H])C(C([H])([H])[H])(C([H])([H])[H])C([H])([H])[H])C([H])([H])c2c([H])c(OC([H])([H])C(C([H])([H])[H])(C([H])([H])[H])C([H])([H])C([H])([H])C3(C([H])([H])[H])C([H])([H])N(C(=O)N4C([H])([H])C([H])([H])C([H])([H])C([H])(n5nc(-c6c([H])c([H])c(Oc7c([H])c([H])c(F)c([H])c7F)c([H])c6[H])c(C(=O)N([H])[H])c5N([H])[H])C4([H])[H])C([H])([H])C3([H])[H])c([H])c([H])c2C1([H])[H]

$$$$
86:0:0
     RDKit          3D

 92101  0  0  1  0  0  0  0  0999 V2000
  -32.1380  -21.1500   22.0510 C   0  0  0  0  0  2  0  0  0  0  0  0
  -30.9050  -21.9500   22.4420 C   0  0  0  0  0  2  0  0  0  0  0  0
  -31.3110  -19.7600   19.9480 C   0  0  0  0  0  2  0  0  0  0  0  0
  -31.2290  -20.1110   21.4180 C   0  0  0  0  0  3  0  0  0  0  0  0
  -29.9890  -20.9840   21.6380 C   0  0  0  0  0  3  0  0  0  0  0  0
  -29.8320  -19.6850   19.5680 C   0  0  0  0  0  3  0  0  0  0  0  0
  -29.2740  -21.2630   20.2680 C   0  0  0  0  0  3  0  0  0  0  0  0
  -28.7820  -23.6430   21.4200 C   0  0  0  0  0  1  0  0  0  0  0  0
  -29.3350  -23.0870   20.0670 C   0  0  0  0  0  3  0  0  0  0  0  0
  -28.6700  -24.4630   19.1710 C   0  0  0  0  0  2  0  0  0  0  0  0
  -28.7060  -26.0490   19.5710 O   0  0  0  0  0  0  0  0  0  0  0  0
  -24.6830  -31.4520   22.8740 C   0  0  0  0  0  0  0  0  0  0  0  0
  -27.6110  -27.0440   19.5470 C   0  0  0  0  0  0  0  0  0  0  0  0
  -23.6080  -30.0990   21.1180 C   0  0  0  0  0  3  0  0  0  0  0  0
  -25.1800  -28.7210   19.6000 C   0  0  0  0  0  0  0  0  0  0  0  0
  -26.1470  -30.5200   21.0200 C   0  0  0  0  0  2  0  0  0  0  0  0
  -26.3250  -29.1740   20.2650 C   0  0  0  0  0  0  0  0  0  0  0  0
  -27.5350  -28.3560   20.2170 C   0  0  0  0  0  3  0  0  0  0  0  0
  -26.4290  -26.7320   18.8420 C   0  0  0  0  0  3  0  0  0  0  0  0
  -25.2520  -27.5210   18.8710 C   0  0  0  0  0  3  0  0  0  0  0  0
  -23.8960  -29.5400   19.6990 C   0  0  0  0  0  2  0  0  0  0  0  0
  -24.8320  -30.7130   21.7290 N   0  0  0  0  0  0  0  0  0  0  0  0
  -23.5720  -31.6220   23.4000 O   0  0  0  0  0  0  0  0  0  0  0  0
  -22.9790  -28.9860   21.9970 C   0  0  0  0  0  0  0  0  0  0  0  0
  -21.6590  -28.7640   21.8680 N   0  0  0  0  0  0  0  0  0  0  0  0
  -23.6860  -28.3270   22.7640 O   0  0  0  0  0  0  0  0  0  0  0  0
  -21.1410  -29.3540   21.2330 H   0  0  0  0  0  0  0  0  0  0  0  0
  -18.3380  -27.3790   22.3320 C   0  0  0  0  0  0  0  0  0  0  0  0
  -20.8920  -27.7210   22.5570 C   0  0  0  0  0  3  0  0  0  0  0  0
  -21.0310  -26.3600   21.8370 C   0  0  0  0  0  2  0  0  0  0  0  0
  -19.9130  -26.0970   20.8230 C   0  0  0  0  0  2  0  0  0  0  0  0
  -18.5460  -26.1170   21.5130 C   0  0  0  0  0  2  0  0  0  0  0  0
  -19.4380  -28.1420   22.8080 C   0  0  0  0  0  0  0  0  0  0  0  0
  -19.1850  -29.3230   23.5380 C   0  0  0  0  0  3  0  0  0  0  0  0
  -17.8670  -29.7460   23.7920 C   0  0  0  0  0  3  0  0  0  0  0  0
  -16.7830  -28.9810   23.3290 C   0  0  0  0  0  3  0  0  0  0  0  0
  -17.0190  -27.7990   22.6040 C   0  0  0  0  0  3  0  0  0  0  0  0
  -25.8990  -32.1310   23.5730 C   0  0  0  0  0  3  0  0  0  0  0  0
  -26.4230  -31.3250   24.8260 C   0  0  1  0  0  0  0  0  0  0  0  0
  -25.3190  -30.9770   25.8520 C   0  0  0  0  0  1  0  0  0  0  0  0
  -27.0850  -29.9970   24.3900 C   0  0  0  0  0  1  0  0  0  0  0  0
  -27.5150  -32.1420   25.5550 C   0  0  0  0  0  1  0  0  0  0  0  0
  -25.4910  -33.4880   23.9760 N   0  0  0  0  0  0  0  0  0  0  0  0
  -25.7640  -34.6050   23.2890 C   0  0  0  0  0  0  0  0  0  0  0  0
  -26.4480  -34.6060   22.2630 O   0  0  0  0  0  0  0  0  0  0  0  0
  -24.8790  -33.5560   24.7750 H   0  0  0  0  0  0  0  0  0  0  0  0
  -23.9180  -36.3010   23.0360 C   0  0  0  0  0  1  0  0  0  0  0  0
  -25.1880  -35.9330   23.8220 C   0  0  0  0  0  3  0  0  0  0  0  0
  -27.2630  -36.9130   24.7000 C   0  0  0  0  0  1  0  0  0  0  0  0
  -26.1490  -37.0570   23.7660 N   0  0  0  0  0  0  0  0  0  0  0  0
  -25.6840  -37.9410   23.9630 H   0  0  0  0  0  0  0  0  0  0  0  0
  -29.4670  -17.9940   20.1000 C   0  0  0  0  0  3  0  0  0  0  0  0
  -30.6420  -15.2840   19.7330 C   0  0  0  0  0  0  0  0  0  0  0  0
  -30.6210  -12.8150   18.9520 C   0  0  0  0  0  2  0  0  0  0  0  0
  -29.6420  -12.5440   17.7840 C   0  0  0  0  0  2  0  0  0  0  0  0
  -28.2190  -12.2830   18.3110 C   0  0  0  0  0  2  0  0  0  0  0  0
  -27.7970  -13.3100   19.3930 C   0  0  0  0  0  3  0  0  0  0  0  0
  -28.8970  -13.5100   20.4520 C   0  0  0  0  0  2  0  0  0  0  0  0
  -30.0850  -13.9830   19.7220 N   0  0  0  0  0  0  0  0  0  0  0  0
  -31.8740  -15.3160   19.6140 O   0  0  0  0  0  0  0  0  0  0  0  0
  -29.8350  -16.4880   19.5140 N   0  0  0  0  0  0  0  0  0  0  0  0
  -28.9890  -16.1380   19.0880 H   0  0  0  0  0  0  0  0  0  0  0  0
  -25.4740  -13.9000   20.2780 C   0  0  0  0  0  0  0  0  0  0  0  0
  -24.4220  -13.1310   20.6960 C   0  0  0  0  0  0  0  0  0  0  0  0
  -24.8740  -11.7770   20.6340 C   0  0  0  0  0  0  0  0  0  0  0  0
  -26.4930  -13.0130   19.9750 N   0  0  0  0  0  0  0  0  0  0  0  0
  -26.1480  -11.7300   20.2580 N   0  0  0  0  0  0  0  0  0  0  0  0
  -24.1460  -10.5190   20.8530 C   0  0  0  0  0  0  0  0  0  0  0  0
  -24.5880   -9.5600   21.7890 C   0  0  0  0  0  3  0  0  0  0  0  0
  -23.8570   -8.3690   21.9940 C   0  0  0  0  0  3  0  0  0  0  0  0
  -22.6710   -8.1310   21.2600 C   0  0  0  0  0  0  0  0  0  0  0  0
  -22.2490   -9.0790   20.3090 C   0  0  0  0  0  3  0  0  0  0  0  0
  -22.9790  -10.2610   20.1060 C   0  0  0  0  0  3  0  0  0  0  0  0
  -21.9110   -6.9910   21.3710 O   0  0  0  0  0  0  0  0  0  0  0  0
  -21.8210   -6.2980   22.5510 C   0  0  0  0  0  0  0  0  0  0  0  0
  -21.3740   -6.9120   23.7430 C   0  0  0  0  0  3  0  0  0  0  0  0
  -21.2320   -6.1490   24.9200 C   0  0  0  0  0  3  0  0  0  0  0  0
  -21.5230   -4.7720   24.9060 C   0  0  0  0  0  0  0  0  0  0  0  0
  -21.9680   -4.1580   23.7230 C   0  0  0  0  0  3  0  0  0  0  0  0
  -22.1130   -4.9190   22.5480 C   0  0  0  0  0  0  0  0  0  0  0  0
  -22.5160   -4.3170   21.4030 F   0  0  0  0  0  0  0  0  0  0  0  0
  -21.3830   -4.0370   26.0340 F   0  0  0  0  0  0  0  0  0  0  0  0
  -23.0450  -13.6200   21.0330 C   0  0  0  0  0  0  0  0  0  0  0  0
  -22.3560  -12.9420   21.9440 N   0  0  0  0  0  0  0  0  0  0  0  0
  -22.5870  -14.6420   20.5250 O   0  0  0  0  0  0  0  0  0  0  0  0
  -22.7300  -12.1100   22.3750 H   0  0  0  0  0  0  0  0  0  0  0  0
  -21.4330  -13.2600   22.2060 H   0  0  0  0  0  0  0  0  0  0  0  0
  -25.6410  -15.2680   20.0980 N   0  0  0  0  0  0  0  0  0  0  0  0
  -24.9020  -15.9430   20.2580 H   0  0  0  0  0  0  0  0  0  0  0  0
  -26.4960  -15.6920   19.7640 H   0  0  0  0  0  0  0  0  0  0  0  0
  -27.0370  -18.9810   20.4880 C   0  0  0  0  0  1  0  0  0  0  0  0
  -27.9350  -17.7940   20.1530 C   0  0  0  0  0  2  0  0  0  0  0  0
  1  2  1  0
  4  3  1  0
  4  5  1  0
  4  1  1  0
  5  2  1  0
  6  3  1  0
  6 52  1  0
  6  7  1  0
  7  9  1  0
  7  5  1  0
  9  8  1  0
 10 11  1  0
 10  9  1  0
 12 23  2  0
 13 11  1  0
 13 18  1  0
 14 22  1  0
 14 24  1  0
 15 21  1  0
 15 17  1  0
 16 22  1  0
 17 16  1  0
 18 17  2  0
 19 20  1  0
 19 13  2  0
 20 15  2  0
 21 14  1  0
 22 12  1  0
 24 26  2  0
 25 24  1  0
 27 25  1  0
 28 37  2  0
 28 33  1  0
 29 25  1  0
 29 33  1  0
 30 29  1  0
 31 32  1  0
 31 30  1  0
 32 28  1  0
 33 34  2  0
 34 35  1  0
 36 35  2  0
 37 36  1  0
 38 12  1  0
 38 43  1  0
 38 39  1  0
 39 42  1  1
 39 40  1  0
 41 39  1  0
 43 46  1  0
 44 48  1  0
 44 43  1  0
 45 44  2  0
 48 47  1  0
 50 48  1  0
 50 51  1  0
 50 49  1  0
 52 92  1  0
 54 59  1  0
 55 56  1  0
 55 54  1  0
 57 56  1  0
 57 66  1  0
 57 58  1  0
 59 53  1  0
 59 58  1  0
 60 53  2  0
 61 53  1  0
 61 52  1  0
 62 61  1  0
 63 64  2  0
 64 83  1  0
 65 64  1  0
 65 68  1  0
 66 67  1  0
 66 63  1  0
 67 65  2  0
 68 69  1  0
 69 70  2  0
 71 74  1  0
 71 70  1  0
 72 71  2  0
 73 72  1  0
 73 68  2  0
 74 75  1  0
 75 76  1  0
 76 77  2  0
 78 77  1  0
 78 82  1  0
 79 78  2  0
 80 75  2  0
 80 79  1  0
 81 80  1  0
 83 84  1  0
 84 87  1  0
 84 86  1  0
 85 83  2  0
 88 89  1  0
 88 63  1  0
 90 88  1  0
 92 91  1  0
M  ISO  4  10 101  11 101  53 100  61 100
M  END
>  <TORSDO>  (86) 
F 20

>  <SCORE>  (86) 
-13.656

>  <name>  (86) 
86

>  <ligand_id>  (86) 
86

>  <original_smiles>  (86) 
[H]c1c([H])c([H])c2c(c1[H])C([H])([H])C([H])([H])C([H])([H])C2([H])N([H])C(=O)C1([H])N(C(=O)C([H])(N([H])C(=O)C([H])(N([H])C([H])([H])[H])C([H])([H])[H])C(C([H])([H])[H])(C([H])([H])[H])C([H])([H])[H])C([H])([H])c2c([H])c(OC([H])([H])C([H])(C([H])([H])[H])C3([H])C([H])(C([H])(N([H])C(=O)N4C([H])([H])C([H])([H])C([H])([H])C([H])(n5nc(-c6c([H])c([H])c(Oc7c([H])c([H])c(F)c([H])c7F)c([H])c6[H])c(C(=O)N([H])[H])c5N([H])[H])C4([H])[H])C([H])([H])C([H])([H])[H])C([H])([H])C4([H])C([H])([H])C([H])([H])C43[H])c([H])c([H])c2C1([H])[H]

>  <smiles>  (86) 
[H]c1c([H])c([H])c2c(c1[H])C([H])([H])C([H])([H])C([H])([H])C2([H])N([H])C(=O)C1([H])N(C(=O)C([H])(N([H])C(=O)C([H])(N([H])C([H])([H])[H])C([H])([H])[H])C(C([H])([H])[H])(C([H])([H])[H])C([H])([H])[H])C([H])([H])c2c([H])c(OC([H])([H])C([H])(C([H])([H])[H])C3([H])C([H])(C([H])(N([H])C(=O)N4C([H])([H])C([H])([H])C([H])([H])C([H])(n5nc(-c6c([H])c([H])c(Oc7c([H])c([H])c(F)c([H])c7F)c([H])c6[H])c(C(=O)N([H])[H])c5N([H])[H])C4([H])[H])C([H])([H])C([H])([H])[H])C([H])([H])C4([H])C([H])([H])C([H])([H])C43[H])c([H])c([H])c2C1([H])[H]

$$$$
87:0:0
     RDKit          3D

 89 98  0  0  1  0  0  0  0  0999 V2000
  -28.9390  -21.9100   21.7850 C   0  0  0  0  0  2  0  0  0  0  0  0
  -27.1000  -23.7210   21.2160 C   0  0  0  0  0  2  0  0  0  0  0  0
  -28.7150  -22.5100   19.4530 C   0  0  0  0  0  2  0  0  0  0  0  0
  -28.4870  -23.3760   21.6860 C   0  0  0  0  0  3  0  0  0  0  0  0
  -28.6800  -21.2400   20.4100 C   0  0  0  0  0  3  0  0  0  0  0  0
  -28.2650  -23.7810   20.2450 C   0  0  2  0  0  0  0  0  0  0  0  0
  -29.5860  -19.9530   20.0660 C   0  0  0  0  0  2  0  0  0  0  0  0
  -29.2000  -18.4800   20.5890 C   0  0  0  0  0  3  0  0  0  0  0  0
  -30.2190  -17.2720   20.2810 C   0  0  0  0  0  3  0  0  0  0  0  0
  -30.5840  -14.7070   20.3200 C   0  0  0  0  0  0  0  0  0  0  0  0
  -30.3540  -12.4620   19.2770 C   0  0  0  0  0  2  0  0  0  0  0  0
  -29.4050  -12.5810   18.0640 C   0  0  0  0  0  2  0  0  0  0  0  0
  -27.9370  -12.4160   18.5060 C   0  0  0  0  0  2  0  0  0  0  0  0
  -27.5850  -13.2840   19.7440 C   0  0  0  0  0  3  0  0  0  0  0  0
  -28.6520  -13.1520   20.8550 C   0  0  0  0  0  2  0  0  0  0  0  0
  -29.9480  -13.4930   20.2580 N   0  0  0  0  0  0  0  0  0  0  0  0
  -31.7570  -14.8200   19.9520 O   0  0  0  0  0  0  0  0  0  0  0  0
  -29.8260  -15.8330   20.5710 N   0  0  0  0  0  0  0  0  0  0  0  0
  -28.8730  -15.6700   20.8600 H   0  0  0  0  0  0  0  0  0  0  0  0
  -25.1980  -13.8810   20.4790 C   0  0  0  0  0  0  0  0  0  0  0  0
  -24.1350  -13.1090   20.8570 C   0  0  0  0  0  0  0  0  0  0  0  0
  -24.5960  -11.7580   20.8270 C   0  0  0  0  0  0  0  0  0  0  0  0
  -26.2410  -13.0010   20.2410 N   0  0  0  0  0  0  0  0  0  0  0  0
  -25.8850  -11.7180   20.5110 N   0  0  0  0  0  0  0  0  0  0  0  0
  -23.8710  -10.4970   21.0230 C   0  0  0  0  0  0  0  0  0  0  0  0
  -24.3150   -9.5250   21.9460 C   0  0  0  0  0  3  0  0  0  0  0  0
  -23.5890   -8.3290   22.1320 C   0  0  0  0  0  3  0  0  0  0  0  0
  -22.4040   -8.0970   21.3940 C   0  0  0  0  0  0  0  0  0  0  0  0
  -21.9790   -9.0570   20.4600 C   0  0  0  0  0  3  0  0  0  0  0  0
  -22.7050  -10.2440   20.2720 C   0  0  0  0  0  3  0  0  0  0  0  0
  -21.6490   -6.9530   21.4890 O   0  0  0  0  0  0  0  0  0  0  0  0
  -21.6260   -6.1970   22.6350 C   0  0  0  0  0  0  0  0  0  0  0  0
  -21.2380   -6.7420   23.8790 C   0  0  0  0  0  3  0  0  0  0  0  0
  -21.1620   -5.9140   25.0170 C   0  0  0  0  0  3  0  0  0  0  0  0
  -21.4650   -4.5440   24.9110 C   0  0  0  0  0  0  0  0  0  0  0  0
  -21.8450   -3.9990   23.6730 C   0  0  0  0  0  3  0  0  0  0  0  0
  -21.9230   -4.8240   22.5370 C   0  0  0  0  0  0  0  0  0  0  0  0
  -22.2700   -4.2890   21.3420 F   0  0  0  0  0  0  0  0  0  0  0  0
  -21.3840   -3.7460   26.0020 F   0  0  0  0  0  0  0  0  0  0  0  0
  -22.7390  -13.5880   21.1350 C   0  0  0  0  0  0  0  0  0  0  0  0
  -22.0140  -12.8960   22.0060 N   0  0  0  0  0  0  0  0  0  0  0  0
  -22.3000  -14.6120   20.6140 O   0  0  0  0  0  0  0  0  0  0  0  0
  -22.3850  -12.0690   22.4540 H   0  0  0  0  0  0  0  0  0  0  0  0
  -21.0770  -13.1970   22.2300 H   0  0  0  0  0  0  0  0  0  0  0  0
  -25.3600  -15.2520   20.2950 N   0  0  0  0  0  0  0  0  0  0  0  0
  -24.5860  -15.8970   20.3960 H   0  0  0  0  0  0  0  0  0  0  0  0
  -26.1970  -15.6930   19.9340 H   0  0  0  0  0  0  0  0  0  0  0  0
  -28.5270  -25.1990   19.5690 C   0  0  0  0  0  2  0  0  0  0  0  0
  -28.3710  -26.5120   20.2490 O   0  0  0  0  0  0  0  0  0  0  0  0
  -24.6090  -31.8820   23.2400 C   0  0  0  0  0  0  0  0  0  0  0  0
  -27.2250  -27.3220   20.1710 C   0  0  0  0  0  0  0  0  0  0  0  0
  -23.4030  -30.4800   21.6030 C   0  0  0  0  0  3  0  0  0  0  0  0
  -24.8510  -28.9270   20.1700 C   0  0  0  0  0  0  0  0  0  0  0  0
  -25.9390  -30.8020   21.4110 C   0  0  0  0  0  2  0  0  0  0  0  0
  -26.0190  -29.4220   20.7630 C   0  0  0  0  0  0  0  0  0  0  0  0
  -27.2040  -28.6290   20.7560 C   0  0  0  0  0  3  0  0  0  0  0  0
  -26.0310  -26.8720   19.5670 C   0  0  0  0  0  3  0  0  0  0  0  0
  -24.8600  -27.6570   19.5670 C   0  0  0  0  0  3  0  0  0  0  0  0
  -23.6130  -29.8010   20.2220 C   0  0  0  0  0  2  0  0  0  0  0  0
  -24.6700  -31.0720   22.1410 N   0  0  0  0  0  0  0  0  0  0  0  0
  -23.5280  -32.1570   23.7800 O   0  0  0  0  0  0  0  0  0  0  0  0
  -22.7460  -29.4640   22.5680 C   0  0  0  0  0  0  0  0  0  0  0  0
  -21.4190  -29.2850   22.4460 N   0  0  0  0  0  0  0  0  0  0  0  0
  -23.4280  -28.8410   23.3850 O   0  0  0  0  0  0  0  0  0  0  0  0
  -20.9280  -29.8370   21.7580 H   0  0  0  0  0  0  0  0  0  0  0  0
  -18.0470  -28.0830   22.9590 C   0  0  0  0  0  0  0  0  0  0  0  0
  -20.6050  -28.3480   23.2220 C   0  0  0  0  0  3  0  0  0  0  0  0
  -20.7100  -26.9160   22.6490 C   0  0  0  0  0  2  0  0  0  0  0  0
  -19.6050  -26.5900   21.6390 C   0  0  0  0  0  2  0  0  0  0  0  0
  -18.2260  -26.7330   22.2850 C   0  0  0  0  0  2  0  0  0  0  0  0
  -19.1650  -28.8480   23.3850 C   0  0  0  0  0  0  0  0  0  0  0  0
  -18.9440  -30.1120   23.9760 C   0  0  0  0  0  3  0  0  0  0  0  0
  -17.6390  -30.6080   24.1460 C   0  0  0  0  0  3  0  0  0  0  0  0
  -16.5350  -29.8400   23.7360 C   0  0  0  0  0  3  0  0  0  0  0  0
  -16.7410  -28.5800   23.1470 C   0  0  0  0  0  3  0  0  0  0  0  0
  -25.8930  -32.5180   23.8570 C   0  0  0  0  0  3  0  0  0  0  0  0
  -26.4170  -31.7480   25.1330 C   0  0  1  0  0  0  0  0  0  0  0  0
  -25.3300  -31.5100   26.2060 C   0  0  0  0  0  1  0  0  0  0  0  0
  -26.9980  -30.3700   24.7400 C   0  0  0  0  0  1  0  0  0  0  0  0
  -27.5690  -32.5460   25.7880 C   0  0  0  0  0  1  0  0  0  0  0  0
  -25.5830  -33.9150   24.1890 N   0  0  0  0  0  0  0  0  0  0  0  0
  -25.9100  -34.9700   23.4310 C   0  0  0  0  0  0  0  0  0  0  0  0
  -26.5750  -34.8680   22.3960 O   0  0  0  0  0  0  0  0  0  0  0  0
  -24.9960  -34.0680   24.9960 H   0  0  0  0  0  0  0  0  0  0  0  0
  -24.1790  -36.7620   23.0860 C   0  0  0  0  0  1  0  0  0  0  0  0
  -25.4230  -36.3570   23.8930 C   0  0  0  0  0  3  0  0  0  0  0  0
  -27.5600  -37.2430   24.7170 C   0  0  0  0  0  1  0  0  0  0  0  0
  -26.4540  -37.4120   23.7790 N   0  0  0  0  0  0  0  0  0  0  0  0
  -26.0470  -38.3310   23.9310 H   0  0  0  0  0  0  0  0  0  0  0  0
  3  6  1  0
  3  5  1  0
  4  2  1  0
  4  1  1  0
  5  7  1  0
  5  1  1  0
  6 48  1  6
  6  2  1  0
  6  4  1  0
  7  8  1  0
  9 18  1  0
  9  8  2  0
 10 18  1  0
 11 16  1  0
 12 13  1  0
 12 11  1  0
 14 13  1  0
 14 23  1  0
 14 15  1  0
 16 10  1  0
 16 15  1  0
 17 10  2  0
 18 19  1  0
 20 21  2  0
 21 40  1  0
 22 21  1  0
 22 25  1  0
 23 20  1  0
 23 24  1  0
 24 22  2  0
 25 26  1  0
 26 27  2  0
 28 31  1  0
 28 27  1  0
 29 28  2  0
 30 29  1  0
 30 25  2  0
 31 32  1  0
 32 33  1  0
 33 34  2  0
 35 34  1  0
 35 39  1  0
 36 35  2  0
 37 32  2  0
 37 36  1  0
 38 37  1  0
 40 41  1  0
 41 44  1  0
 41 43  1  0
 42 40  2  0
 45 46  1  0
 45 20  1  0
 47 45  1  0
 48 49  1  0
 50 61  2  0
 51 49  1  0
 51 56  1  0
 52 60  1  0
 52 62  1  0
 53 59  1  0
 53 55  1  0
 54 60  1  0
 55 54  1  0
 56 55  2  0
 57 58  1  0
 57 51  2  0
 58 53  2  0
 59 52  1  0
 60 50  1  0
 62 64  2  0
 63 62  1  0
 65 63  1  0
 66 75  2  0
 66 71  1  0
 67 63  1  0
 67 71  1  0
 68 67  1  0
 69 70  1  0
 69 68  1  0
 70 66  1  0
 71 72  2  0
 72 73  1  0
 74 73  2  0
 75 74  1  0
 76 50  1  0
 76 81  1  0
 76 77  1  0
 77 80  1  1
 77 78  1  0
 79 77  1  0
 81 84  1  0
 82 86  1  0
 82 81  1  0
 83 82  2  0
 86 85  1  0
 88 86  1  0
 88 89  1  0
 88 87  1  0
M  ISO  4  10 100  18 100  48 101  49 101
M  END
>  <TORSDO>  (87) 
F 20

>  <SCORE>  (87) 
-13.888

>  <name>  (87) 
87

>  <ligand_id>  (87) 
87

>  <original_smiles>  (87) 
[H]c1c([H])c([H])c2c(c1[H])C([H])([H])C([H])([H])C([H])([H])C2([H])N([H])C(=O)C1([H])N(C(=O)C([H])(N([H])C(=O)C([H])(N([H])C([H])([H])[H])C([H])([H])[H])C(C([H])([H])[H])(C([H])([H])[H])C([H])([H])[H])C([H])([H])c2c([H])c(OC([H])([H])C34C([H])([H])C([H])(C([H])([H])C([H])([H])C([H])([H])N([H])C(=O)N5C([H])([H])C([H])([H])C([H])([H])C([H])(n6nc(-c7c([H])c([H])c(Oc8c([H])c([H])c(F)c([H])c8F)c([H])c7[H])c(C(=O)N([H])[H])c6N([H])[H])C5([H])[H])C([H])([H])C3([H])C4([H])[H])c([H])c([H])c2C1([H])[H]

>  <smiles>  (87) 
[H]c1c([H])c([H])c2c(c1[H])C([H])([H])C([H])([H])C([H])([H])C2([H])N([H])C(=O)C1([H])N(C(=O)C([H])(N([H])C(=O)C([H])(N([H])C([H])([H])[H])C([H])([H])[H])C(C([H])([H])[H])(C([H])([H])[H])C([H])([H])[H])C([H])([H])c2c([H])c(OC([H])([H])C34C([H])([H])C([H])(C([H])([H])C([H])([H])C([H])([H])N([H])C(=O)N5C([H])([H])C([H])([H])C([H])([H])C([H])(n6nc(-c7c([H])c([H])c(Oc8c([H])c([H])c(F)c([H])c8F)c([H])c7[H])c(C(=O)N([H])[H])c6N([H])[H])C5([H])[H])C([H])([H])C3([H])C4([H])[H])c([H])c([H])c2C1([H])[H]

$$$$
88:0:0
     RDKit          3D

 95104  0  0  1  0  0  0  0  0999 V2000
  -27.1970  -22.1360   19.6450 C   0  0  0  0  0  2  0  0  0  0  0  0
  -29.8600  -21.5180   19.2080 C   0  0  0  0  0  2  0  0  0  0  0  0
  -28.1630  -19.7740   19.3990 C   0  0  0  0  0  3  0  0  0  0  0  0
  -27.8460  -20.9800   20.3160 C   0  0  0  0  0  3  0  0  0  0  0  0
  -29.5880  -19.9730   18.7440 C   0  0  0  0  0  3  0  0  0  0  0  0
  -28.6630  -22.2300   19.9780 C   0  0  2  0  0  0  0  0  0  0  0  0
  -27.5360  -18.4310   19.9050 C   0  0  0  0  0  0  0  0  0  0  0  0
  -27.1090  -17.5340   19.0180 N   0  0  0  0  0  0  0  0  0  0  0  0
  -27.2980  -18.2520   21.1000 O   0  0  0  0  0  0  0  0  0  0  0  0
  -27.3670  -17.6350   18.0260 H   0  0  0  0  0  0  0  0  0  0  0  0
  -26.5150  -16.7560   19.2830 H   0  0  0  0  0  0  0  0  0  0  0  0
  -31.4750  -18.6640   20.2090 C   0  0  0  0  0  1  0  0  0  0  0  0
  -30.7870  -18.8400   18.8140 C   0  0  0  0  0  3  0  0  0  0  0  0
  -30.7660  -17.3430   18.1030 C   0  0  0  0  0  2  0  0  0  0  0  0
  -31.9920  -15.1860   19.2560 C   0  0  0  0  0  0  0  0  0  0  0  0
  -32.4620  -12.7690   19.9580 C   0  0  0  0  0  2  0  0  0  0  0  0
  -31.7200  -11.7670   19.0410 C   0  0  0  0  0  2  0  0  0  0  0  0
  -30.2540  -11.6060   19.4720 C   0  0  0  0  0  2  0  0  0  0  0  0
  -29.5710  -12.9600   19.7730 C   0  0  0  0  0  3  0  0  0  0  0  0
  -30.4250  -13.8560   20.6940 C   0  0  0  0  0  2  0  0  0  0  0  0
  -31.6930  -14.0530   19.9800 N   0  0  0  0  0  0  0  0  0  0  0  0
  -33.1690  -15.3910   18.9100 O   0  0  0  0  0  0  0  0  0  0  0  0
  -30.9070  -15.9790   18.8460 N   0  0  0  0  0  0  0  0  0  0  0  0
  -30.0360  -15.5110   19.0610 H   0  0  0  0  0  0  0  0  0  0  0  0
  -27.3560  -13.7700   20.7470 C   0  0  0  0  0  0  0  0  0  0  0  0
  -26.2290  -13.0980   21.0930 C   0  0  0  0  0  0  0  0  0  0  0  0
  -26.4770  -11.7120   20.8270 C   0  0  0  0  0  0  0  0  0  0  0  0
  -28.2320  -12.8020   20.3090 N   0  0  0  0  0  0  0  0  0  0  0  0
  -27.7250  -11.5350   20.4180 N   0  0  0  0  0  0  0  0  0  0  0  0
  -25.5960  -10.5620   20.9440 C   0  0  0  0  0  0  0  0  0  0  0  0
  -25.7240   -9.6520   22.0130 C   0  0  0  0  0  3  0  0  0  0  0  0
  -24.8520   -8.5410   22.0880 C   0  0  0  0  0  3  0  0  0  0  0  0
  -23.8250   -8.3600   21.1150 C   0  0  0  0  0  0  0  0  0  0  0  0
  -23.7230   -9.2780   20.0610 C   0  0  0  0  0  3  0  0  0  0  0  0
  -24.6190  -10.3530   19.9670 C   0  0  0  0  0  3  0  0  0  0  0  0
  -22.9480   -7.2820   21.1080 O   0  0  0  0  0  0  0  0  0  0  0  0
  -22.3890   -6.8000   22.2580 C   0  0  0  0  0  0  0  0  0  0  0  0
  -21.5240   -7.5890   23.0610 C   0  0  0  0  0  3  0  0  0  0  0  0
  -20.8870   -7.0380   24.1950 C   0  0  0  0  0  3  0  0  0  0  0  0
  -21.0920   -5.6960   24.5320 C   0  0  0  0  0  0  0  0  0  0  0  0
  -21.9280   -4.8800   23.7400 C   0  0  0  0  0  3  0  0  0  0  0  0
  -22.5760   -5.4330   22.6150 C   0  0  0  0  0  0  0  0  0  0  0  0
  -23.3590   -4.6380   21.8530 F   0  0  0  0  0  0  0  0  0  0  0  0
  -20.4840   -5.1690   25.6260 F   0  0  0  0  0  0  0  0  0  0  0  0
  -24.9450  -13.7520   21.5240 C   0  0  0  0  0  0  0  0  0  0  0  0
  -24.1330  -13.0520   22.2710 N   0  0  0  0  0  0  0  0  0  0  0  0
  -24.6760  -14.8910   21.1800 O   0  0  0  0  0  0  0  0  0  0  0  0
  -24.3070  -12.0680   22.4080 H   0  0  0  0  0  0  0  0  0  0  0  0
  -23.3250  -13.4600   22.7270 H   0  0  0  0  0  0  0  0  0  0  0  0
  -27.6890  -15.1270   20.7260 N   0  0  0  0  0  0  0  0  0  0  0  0
  -27.0050  -15.8390   20.9490 H   0  0  0  0  0  0  0  0  0  0  0  0
  -28.5060  -15.4890   20.2560 H   0  0  0  0  0  0  0  0  0  0  0  0
  -28.9790  -23.5250   20.9070 C   0  0  0  0  0  2  0  0  0  0  0  0
  -28.3880  -25.0240   20.5800 C   0  0  0  0  0  2  0  0  0  0  0  0
  -29.0710  -26.3880   20.7830 O   0  0  0  0  0  0  0  0  0  0  0  0
  -25.8290  -31.7950   24.1750 C   0  0  0  0  0  0  0  0  0  0  0  0
  -28.2170  -27.5040   20.6480 C   0  0  0  0  0  0  0  0  0  0  0  0
  -24.6190  -30.7190   22.3050 C   0  0  0  0  0  3  0  0  0  0  0  0
  -26.0430  -29.3520   20.6920 C   0  0  0  0  0  0  0  0  0  0  0  0
  -27.1770  -30.9220   22.2410 C   0  0  0  0  0  2  0  0  0  0  0  0
  -27.2140  -29.6450   21.4040 C   0  0  0  0  0  0  0  0  0  0  0  0
  -28.3170  -28.7280   21.3890 C   0  0  0  0  0  3  0  0  0  0  0  0
  -27.0960  -27.3440   19.8160 C   0  0  0  0  0  3  0  0  0  0  0  0
  -26.0110  -28.2280   19.8540 C   0  0  0  0  0  3  0  0  0  0  0  0
  -24.8510  -30.2770   20.8420 C   0  0  0  0  0  2  0  0  0  0  0  0
  -25.8890  -31.1560   22.9670 N   0  0  0  0  0  0  0  0  0  0  0  0
  -24.7420  -32.0350   24.7250 O   0  0  0  0  0  0  0  0  0  0  0  0
  -23.8820  -29.5970   23.0890 C   0  0  0  0  0  0  0  0  0  0  0  0
  -22.5840  -29.3970   22.7910 N   0  0  0  0  0  0  0  0  0  0  0  0
  -24.4850  -28.9130   23.9220 O   0  0  0  0  0  0  0  0  0  0  0  0
  -22.1580  -30.0140   22.1120 H   0  0  0  0  0  0  0  0  0  0  0  0
  -19.2530  -27.9900   22.6860 C   0  0  0  0  0  0  0  0  0  0  0  0
  -21.7160  -28.3710   23.3720 C   0  0  0  0  0  3  0  0  0  0  0  0
  -22.0010  -26.9870   22.7470 C   0  0  0  0  0  2  0  0  0  0  0  0
  -21.0910  -26.6690   21.5560 C   0  0  0  0  0  2  0  0  0  0  0  0
  -19.6180  -26.6980   21.9800 C   0  0  0  0  0  2  0  0  0  0  0  0
  -20.2400  -28.7850   23.3280 C   0  0  0  0  0  0  0  0  0  0  0  0
  -19.8500  -29.9950   23.9450 C   0  0  0  0  0  3  0  0  0  0  0  0
  -18.5060  -30.4110   23.9270 C   0  0  0  0  0  3  0  0  0  0  0  0
  -17.5310  -29.6120   23.3030 C   0  0  0  0  0  3  0  0  0  0  0  0
  -17.9050  -28.4040   22.6880 C   0  0  0  0  0  3  0  0  0  0  0  0
  -27.1230  -32.2610   24.9150 C   0  0  0  0  0  3  0  0  0  0  0  0
  -27.0000  -33.7050   25.1480 N   0  0  0  0  0  0  0  0  0  0  0  0
  -27.6200  -34.6480   24.4280 C   0  0  0  0  0  0  0  0  0  0  0  0
  -28.4220  -34.3860   23.5290 O   0  0  0  0  0  0  0  0  0  0  0  0
  -26.3210  -33.9950   25.8350 H   0  0  0  0  0  0  0  0  0  0  0  0
  -26.3310  -36.6900   23.7140 C   0  0  0  0  0  1  0  0  0  0  0  0
  -27.3030  -36.1190   24.7580 C   0  0  0  0  0  3  0  0  0  0  0  0
  -29.3620  -36.6790   25.9780 C   0  0  0  0  0  1  0  0  0  0  0  0
  -28.5030  -36.9800   24.8370 N   0  0  0  0  0  0  0  0  0  0  0  0
  -28.2390  -37.9610   24.8850 H   0  0  0  0  0  0  0  0  0  0  0  0
  -27.3700  -31.4950   26.2760 C   0  0  1  0  0  0  0  0  0  0  0  0
  -26.1410  -31.4930   27.2170 C   0  0  0  0  0  1  0  0  0  0  0  0
  -27.7670  -30.0220   26.0120 C   0  0  0  0  0  1  0  0  0  0  0  0
  -28.5500  -32.1430   27.0360 C   0  0  0  0  0  1  0  0  0  0  0  0
  1  6  1  0
  2  6  1  0
  3  7  1  0
  3  4  1  0
  4  1  1  0
  5 13  1  0
  5  2  1  0
  5  3  1  0
  6  4  1  0
  6 53  1  1
  7  9  2  0
  8 11  1  0
  8  7  1  0
 10  8  1  0
 13 12  1  0
 14 13  1  0
 14 23  1  0
 15 21  1  0
 16 21  1  0
 17 18  1  0
 17 16  1  0
 19 18  1  0
 19 28  1  0
 19 20  1  0
 21 20  1  0
 22 15  2  0
 23 24  1  0
 23 15  1  0
 25 26  2  0
 26 45  1  0
 27 30  1  0
 27 26  1  0
 28 29  1  0
 28 25  1  0
 29 27  2  0
 30 31  1  0
 31 32  2  0
 33 32  1  0
 34 33  2  0
 35 34  1  0
 35 30  2  0
 36 33  1  0
 36 37  1  0
 37 42  2  0
 37 38  1  0
 38 39  2  0
 39 40  1  0
 40 44  1  0
 41 40  2  0
 42 41  1  0
 43 42  1  0
 45 46  1  0
 46 48  1  0
 46 49  1  0
 47 45  2  0
 50 25  1  0
 50 51  1  0
 52 50  1  0
 54 55  1  0
 54 53  1  0
 56 67  2  0
 57 55  1  0
 57 62  1  0
 58 66  1  0
 58 68  1  0
 59 65  1  0
 59 61  1  0
 60 66  1  0
 61 60  1  0
 62 61  2  0
 63 64  1  0
 63 57  2  0
 64 59  2  0
 65 58  1  0
 66 56  1  0
 68 70  2  0
 69 68  1  0
 71 69  1  0
 72 81  2  0
 72 77  1  0
 73 69  1  0
 74 73  1  0
 75 76  1  0
 75 74  1  0
 76 72  1  0
 77 73  1  0
 77 78  2  0
 79 78  1  0
 80 79  2  0
 81 80  1  0
 82 56  1  0
 82 83  1  0
 82 92  1  0
 83 86  1  0
 84 88  1  0
 84 83  1  0
 85 84  2  0
 88 87  1  0
 88 90  1  0
 90 91  1  0
 90 89  1  0
 92 95  1  1
 92 93  1  0
 94 92  1  0
M  ISO  4  15 100  23 100  54 101  55 101
M  END
>  <TORSDO>  (88) 
F 21

>  <SCORE>  (88) 
-7.983

>  <name>  (88) 
88

>  <ligand_id>  (88) 
88

>  <original_smiles>  (88) 
[H]c1c([H])c([H])c2c(c1[H])C([H])([H])C([H])([H])C([H])([H])C2([H])N([H])C(=O)C1([H])N(C(=O)C([H])(N([H])C(=O)C([H])(N([H])C([H])([H])[H])C([H])([H])[H])C(C([H])([H])[H])(C([H])([H])[H])C([H])([H])[H])C([H])([H])c2c([H])c(OC([H])([H])C([H])([H])C34C([H])([H])C([H])(C([H])(C([H])([H])[H])C([H])([H])N([H])C(=O)N5C([H])([H])C([H])([H])C([H])([H])C([H])(n6nc(-c7c([H])c([H])c(Oc8c([H])c([H])c(F)c([H])c8F)c([H])c7[H])c(C(=O)N([H])[H])c6N([H])[H])C5([H])[H])C([H])(C(=O)N([H])[H])C3([H])C4([H])[H])c([H])c([H])c2C1([H])[H]

>  <smiles>  (88) 
[H]c1c([H])c([H])c2c(c1[H])C([H])([H])C([H])([H])C([H])([H])C2([H])N([H])C(=O)C1([H])N(C(=O)C([H])(N([H])C(=O)C([H])(N([H])C([H])([H])[H])C([H])([H])[H])C(C([H])([H])[H])(C([H])([H])[H])C([H])([H])[H])C([H])([H])c2c([H])c(OC([H])([H])C([H])([H])C34C([H])([H])C([H])(C([H])(C([H])([H])[H])C([H])([H])N([H])C(=O)N5C([H])([H])C([H])([H])C([H])([H])C([H])(n6nc(-c7c([H])c([H])c(Oc8c([H])c([H])c(F)c([H])c8F)c([H])c7[H])c(C(=O)N([H])[H])c6N([H])[H])C5([H])[H])C([H])(C(=O)N([H])[H])C3([H])C4([H])[H])c([H])c([H])c2C1([H])[H]

$$$$
89:0:0
     RDKit          3D

 91100  0  0  1  0  0  0  0  0999 V2000
  -28.7910  -17.6820   20.8990 C   0  0  0  0  0  2  0  0  0  0  0  0
  -30.3170  -19.5210   21.2210 C   0  0  0  0  0  2  0  0  0  0  0  0
  -28.2820  -20.0030   20.0020 C   0  0  0  0  0  2  0  0  0  0  0  0
  -28.8120  -19.1920   21.2180 C   0  0  0  0  0  3  0  0  0  0  0  0
  -30.0670  -17.5100   20.0590 C   0  0  0  0  0  3  0  0  0  0  0  0
  -30.4730  -19.1500   19.7320 C   0  0  0  0  0  3  0  0  0  0  0  0
  -29.4910  -20.2900   19.1960 N   0  0  2  0  0  4  0  0  0  0  0  0
  -29.3010  -20.1030   18.2240 H   0  0  0  0  0  0  0  0  0  0  0  0
  -30.9410  -14.9120   19.5420 C   0  0  0  0  0  0  0  0  0  0  0  0
  -30.7420  -12.4950   18.7790 C   0  0  0  0  0  2  0  0  0  0  0  0
  -29.7300  -12.3540   17.6190 C   0  0  0  0  0  2  0  0  0  0  0  0
  -28.2880  -12.2300   18.1540 C   0  0  0  0  0  2  0  0  0  0  0  0
  -27.9700  -13.2630   19.2650 C   0  0  0  0  0  3  0  0  0  0  0  0
  -29.0930  -13.3340   20.3170 C   0  0  0  0  0  2  0  0  0  0  0  0
  -30.3190  -13.6690   19.5840 N   0  0  0  0  0  0  0  0  0  0  0  0
  -32.1630  -14.9330   19.3720 O   0  0  0  0  0  0  0  0  0  0  0  0
  -30.1540  -16.0880   19.3740 N   0  0  0  0  0  0  0  0  0  0  0  0
  -29.2380  -15.8130   19.0520 H   0  0  0  0  0  0  0  0  0  0  0  0
  -25.6920  -13.9920   20.1750 C   0  0  0  0  0  0  0  0  0  0  0  0
  -24.6110  -13.2840   20.6220 C   0  0  0  0  0  0  0  0  0  0  0  0
  -24.9880  -11.9070   20.5640 C   0  0  0  0  0  0  0  0  0  0  0  0
  -26.6590  -13.0490   19.8640 N   0  0  0  0  0  0  0  0  0  0  0  0
  -26.2500  -11.7910   20.1670 N   0  0  0  0  0  0  0  0  0  0  0  0
  -24.1990  -10.6920   20.8040 C   0  0  0  0  0  0  0  0  0  0  0  0
  -24.6160   -9.7150   21.7340 C   0  0  0  0  0  3  0  0  0  0  0  0
  -23.8300   -8.5650   21.9630 C   0  0  0  0  0  3  0  0  0  0  0  0
  -22.6130   -8.3850   21.2630 C   0  0  0  0  0  0  0  0  0  0  0  0
  -22.2150   -9.3510   20.3220 C   0  0  0  0  0  3  0  0  0  0  0  0
  -23.0000  -10.4930   20.0920 C   0  0  0  0  0  3  0  0  0  0  0  0
  -21.7980   -7.2880   21.4040 O   0  0  0  0  0  0  0  0  0  0  0  0
  -21.7590   -6.5640   22.5690 C   0  0  0  0  0  0  0  0  0  0  0  0
  -21.3950   -7.1530   23.7990 C   0  0  0  0  0  3  0  0  0  0  0  0
  -21.3000   -6.3570   24.9580 C   0  0  0  0  0  3  0  0  0  0  0  0
  -21.5580   -4.9750   24.8890 C   0  0  0  0  0  0  0  0  0  0  0  0
  -21.9170   -4.3880   23.6630 C   0  0  0  0  0  3  0  0  0  0  0  0
  -22.0140   -5.1790   22.5060 C   0  0  0  0  0  0  0  0  0  0  0  0
  -22.3390   -4.6030   21.3230 F   0  0  0  0  0  0  0  0  0  0  0  0
  -21.4590   -4.2100   26.0000 F   0  0  0  0  0  0  0  0  0  0  0  0
  -23.2660  -13.8480   20.9780 C   0  0  0  0  0  0  0  0  0  0  0  0
  -22.5570  -13.2040   21.8980 N   0  0  0  0  0  0  0  0  0  0  0  0
  -22.8580  -14.8950   20.4760 O   0  0  0  0  0  0  0  0  0  0  0  0
  -22.9000  -12.3560   22.3240 H   0  0  0  0  0  0  0  0  0  0  0  0
  -21.6550  -13.5640   22.1780 H   0  0  0  0  0  0  0  0  0  0  0  0
  -25.9240  -15.3490   19.9790 N   0  0  0  0  0  0  0  0  0  0  0  0
  -25.2050  -16.0420   20.1590 H   0  0  0  0  0  0  0  0  0  0  0  0
  -26.7310  -15.7320   19.5100 H   0  0  0  0  0  0  0  0  0  0  0  0
  -29.8550  -21.8550   19.3430 C   0  0  0  0  0  2  0  0  0  0  0  0
  -29.7210  -23.5830   17.3730 C   0  0  0  0  0  1  0  0  0  0  0  0
  -29.0320  -23.1890   18.6880 C   0  0  0  0  0  3  0  0  0  0  0  0
  -28.6900  -24.6200   19.5390 C   0  0  0  0  0  2  0  0  0  0  0  0
  -28.6390  -26.1140   19.0800 O   0  0  0  0  0  0  0  0  0  0  0  0
  -24.6890  -31.1610   22.7940 C   0  0  0  0  0  0  0  0  0  0  0  0
  -27.4950  -26.9790   19.2350 C   0  0  0  0  0  0  0  0  0  0  0  0
  -23.5380  -29.8610   21.0420 C   0  0  0  0  0  3  0  0  0  0  0  0
  -25.0490  -28.5400   19.4350 C   0  0  0  0  0  0  0  0  0  0  0  0
  -26.0610  -30.3220   20.8490 C   0  0  0  0  0  2  0  0  0  0  0  0
  -26.2120  -29.0090   20.0610 C   0  0  0  0  0  0  0  0  0  0  0  0
  -27.4360  -28.2490   19.9380 C   0  0  0  0  0  3  0  0  0  0  0  0
  -26.2980  -26.6010   18.5950 C   0  0  0  0  0  3  0  0  0  0  0  0
  -25.1040  -27.3520   18.6870 C   0  0  0  0  0  3  0  0  0  0  0  0
  -23.7660  -29.3440   19.5960 C   0  0  0  0  0  2  0  0  0  0  0  0
  -24.7840  -30.4660   21.6180 N   0  0  0  0  0  0  0  0  0  0  0  0
  -23.6030  -31.3120   23.3720 O   0  0  0  0  0  0  0  0  0  0  0  0
  -22.9580  -28.7140   21.9080 C   0  0  0  0  0  0  0  0  0  0  0  0
  -21.6460  -28.4500   21.7760 N   0  0  0  0  0  0  0  0  0  0  0  0
  -23.6900  -28.0690   22.6620 O   0  0  0  0  0  0  0  0  0  0  0  0
  -21.1090  -29.0260   21.1440 H   0  0  0  0  0  0  0  0  0  0  0  0
  -18.3820  -26.9290   22.1720 C   0  0  0  0  0  0  0  0  0  0  0  0
  -20.9140  -27.3810   22.4580 C   0  0  0  0  0  3  0  0  0  0  0  0
  -21.1290  -26.0220   21.7530 C   0  0  0  0  0  2  0  0  0  0  0  0
  -20.0480  -25.7020   20.7150 C   0  0  0  0  0  2  0  0  0  0  0  0
  -18.6660  -25.6680   21.3720 C   0  0  0  0  0  2  0  0  0  0  0  0
  -19.4370  -27.7410   22.6690 C   0  0  0  0  0  0  0  0  0  0  0  0
  -19.1180  -28.9180   23.3780 C   0  0  0  0  0  3  0  0  0  0  0  0
  -17.7760  -29.2870   23.5950 C   0  0  0  0  0  3  0  0  0  0  0  0
  -16.7380  -28.4730   23.1140 C   0  0  0  0  0  3  0  0  0  0  0  0
  -17.0410  -27.2950   22.4080 C   0  0  0  0  0  3  0  0  0  0  0  0
  -25.9380  -31.8160   23.4590 C   0  0  0  0  0  3  0  0  0  0  0  0
  -26.5330  -30.9550   24.6410 C   0  0  1  0  0  0  0  0  0  0  0  0
  -25.4850  -30.5450   25.7020 C   0  0  0  0  0  1  0  0  0  0  0  0
  -27.1890  -29.6630   24.1030 C   0  0  0  0  0  1  0  0  0  0  0  0
  -27.6530  -31.7500   25.3550 C   0  0  0  0  0  1  0  0  0  0  0  0
  -25.5410  -33.1480   23.9430 N   0  0  0  0  0  0  0  0  0  0  0  0
  -25.7890  -34.3000   23.3060 C   0  0  0  0  0  0  0  0  0  0  0  0
  -26.4460  -34.3540   22.2610 O   0  0  0  0  0  0  0  0  0  0  0  0
  -24.9590  -33.1730   24.7680 H   0  0  0  0  0  0  0  0  0  0  0  0
  -23.9380  -36.0000   23.1840 C   0  0  0  0  0  1  0  0  0  0  0  0
  -25.2240  -35.5950   23.9230 C   0  0  0  0  0  3  0  0  0  0  0  0
  -27.3130  -36.5350   24.8090 C   0  0  0  0  0  1  0  0  0  0  0  0
  -26.1820  -36.7230   23.9040 N   0  0  0  0  0  0  0  0  0  0  0  0
  -25.7190  -37.5940   24.1520 H   0  0  0  0  0  0  0  0  0  0  0  0
  1  4  1  0
  4  3  1  0
  4  2  1  0
  5 17  1  0
  5  1  1  0
  6  5  1  0
  6  2  1  0
  7 47  1  0
  7  6  1  0
  7  3  1  0
  7  8  1  6
  9 15  1  0
 10 15  1  0
 11 12  1  0
 11 10  1  0
 13 12  1  0
 13 22  1  0
 13 14  1  0
 15 14  1  0
 16  9  2  0
 17  9  1  0
 18 17  1  0
 19 20  2  0
 20 39  1  0
 21 20  1  0
 21 24  1  0
 22 23  1  0
 22 19  1  0
 23 21  2  0
 24 25  1  0
 25 26  2  0
 27 30  1  0
 27 26  1  0
 28 27  2  0
 29 28  1  0
 29 24  2  0
 30 31  1  0
 31 32  1  0
 32 33  2  0
 34 33  1  0
 34 38  1  0
 35 34  2  0
 36 31  2  0
 36 35  1  0
 37 36  1  0
 39 40  1  0
 40 43  1  0
 40 42  1  0
 41 39  2  0
 44 45  1  0
 44 19  1  0
 46 44  1  0
 49 48  1  0
 49 47  1  0
 49 50  1  0
 51 53  1  0
 51 50  1  0
 52 63  2  0
 53 58  1  0
 54 62  1  0
 54 64  1  0
 55 61  1  0
 55 57  1  0
 56 62  1  0
 57 56  1  0
 58 57  2  0
 59 60  1  0
 59 53  2  0
 60 55  2  0
 61 54  1  0
 62 52  1  0
 64 66  2  0
 65 64  1  0
 67 65  1  0
 68 77  2  0
 68 73  1  0
 69 65  1  0
 69 73  1  0
 70 69  1  0
 71 72  1  0
 71 70  1  0
 72 68  1  0
 73 74  2  0
 74 75  1  0
 76 75  2  0
 77 76  1  0
 78 52  1  0
 78 83  1  0
 78 79  1  0
 79 82  1  1
 79 80  1  0
 81 79  1  0
 83 86  1  0
 84 88  1  0
 84 83  1  0
 85 84  2  0
 88 87  1  0
 90 88  1  0
 90 91  1  0
 90 89  1  0
M  ISO  4   9 100  17 100  50 101  51 101
M  END
>  <TORSDO>  (89) 
F 19

>  <SCORE>  (89) 
-12.350

>  <name>  (89) 
89

>  <ligand_id>  (89) 
89

>  <original_smiles>  (89) 
[H]c1c([H])c([H])c2c(c1[H])C([H])([H])C([H])([H])C([H])([H])C2([H])N([H])C(=O)C1([H])N(C(=O)C([H])(N([H])C(=O)C([H])(N([H])C([H])([H])[H])C([H])([H])[H])C(C([H])([H])[H])(C([H])([H])[H])C([H])([H])[H])C([H])([H])c2c([H])c(OC([H])([H])C([H])(C([H])([H])[H])C([H])([H])[N+]3([H])C([H])([H])C4([H])C([H])([H])C([H])(N([H])C(=O)N5C([H])([H])C([H])([H])C([H])([H])C([H])(n6nc(-c7c([H])c([H])c(Oc8c([H])c([H])c(F)c([H])c8F)c([H])c7[H])c(C(=O)N([H])[H])c6N([H])[H])C5([H])[H])C3([H])C4([H])[H])c([H])c([H])c2C1([H])[H]

>  <smiles>  (89) 
[H]c1c([H])c([H])c2c(c1[H])C([H])([H])C([H])([H])C([H])([H])C2([H])N([H])C(=O)C1([H])N(C(=O)C([H])(N([H])C(=O)C([H])(N([H])C([H])([H])[H])C([H])([H])[H])C(C([H])([H])[H])(C([H])([H])[H])C([H])([H])[H])C([H])([H])c2c([H])c(OC([H])([H])C([H])(C([H])([H])[H])C([H])([H])[N+]3([H])C([H])([H])C4([H])C([H])([H])C([H])(N([H])C(=O)N5C([H])([H])C([H])([H])C([H])([H])C([H])(n6nc(-c7c([H])c([H])c(Oc8c([H])c([H])c(F)c([H])c8F)c([H])c7[H])c(C(=O)N([H])[H])c6N([H])[H])C5([H])[H])C3([H])C4([H])[H])c([H])c([H])c2C1([H])[H]

$$$$
90:0:0
     RDKit          3D

 92101  0  0  1  0  0  0  0  0999 V2000
  -30.4410  -23.9360   21.7570 C   0  0  0  0  0  0  0  0  0  0  0  0
  -30.6320  -24.2040   23.2500 C   0  0  0  0  0  1  0  0  0  0  0  0
  -29.9890  -24.8030   20.9280 N   0  0  0  0  0  0  0  0  0  0  0  0
  -30.0250  -21.7640   20.3190 C   0  0  0  0  0  2  0  0  0  0  0  0
  -29.5930  -20.7410   22.7100 C   0  0  0  0  0  2  0  0  0  0  0  0
  -30.9320  -22.5630   21.2690 C   0  0  0  0  0  3  0  0  0  0  0  0
  -30.8650  -21.4130   22.2600 C   0  0  0  0  0  3  0  0  0  0  0  0
  -30.0530  -20.5790   21.2790 C   0  0  1  0  0  0  0  0  0  0  0  0
  -30.6930  -19.2940   20.7420 C   0  0  0  0  0  2  0  0  0  0  0  0
  -29.9070  -17.9760   20.9700 C   0  0  0  0  0  2  0  0  0  0  0  0
  -30.8490  -16.7510   20.9250 C   0  0  0  0  0  2  0  0  0  0  0  0
  -30.7170  -14.4350   20.0630 C   0  0  0  0  0  0  0  0  0  0  0  0
  -30.3570  -12.2730   18.9460 C   0  0  0  0  0  2  0  0  0  0  0  0
  -29.3530  -12.4060   17.7840 C   0  0  0  0  0  2  0  0  0  0  0  0
  -27.9140  -12.2190   18.2950 C   0  0  0  0  0  2  0  0  0  0  0  0
  -27.6050  -13.0910   19.5430 C   0  0  0  0  0  3  0  0  0  0  0  0
  -28.7220  -12.9700   20.6080 C   0  0  0  0  0  2  0  0  0  0  0  0
  -30.0100  -13.2750   19.9670 N   0  0  0  0  0  0  0  0  0  0  0  0
  -31.7780  -14.6070   19.4620 O   0  0  0  0  0  0  0  0  0  0  0  0
  -30.1810  -15.4420   20.7810 N   0  0  0  0  0  0  0  0  0  0  0  0
  -29.2900  -15.2940   21.2320 H   0  0  0  0  0  0  0  0  0  0  0  0
  -25.2260  -13.6250   20.3780 C   0  0  0  0  0  0  0  0  0  0  0  0
  -24.2050  -12.8220   20.8110 C   0  0  0  0  0  0  0  0  0  0  0  0
  -24.7110  -11.4850   20.7720 C   0  0  0  0  0  0  0  0  0  0  0  0
  -26.2900  -12.7760   20.1030 N   0  0  0  0  0  0  0  0  0  0  0  0
  -25.9850  -11.4870   20.4000 N   0  0  0  0  0  0  0  0  0  0  0  0
  -24.0420  -10.2010   21.0180 C   0  0  0  0  0  0  0  0  0  0  0  0
  -24.4910   -9.3140   22.0210 C   0  0  0  0  0  3  0  0  0  0  0  0
  -23.8200   -8.0920   22.2480 C   0  0  0  0  0  3  0  0  0  0  0  0
  -22.6850   -7.7520   21.4730 C   0  0  0  0  0  0  0  0  0  0  0  0
  -22.2590   -8.6280   20.4580 C   0  0  0  0  0  3  0  0  0  0  0  0
  -22.9310   -9.8390   20.2280 C   0  0  0  0  0  3  0  0  0  0  0  0
  -21.9850   -6.5780   21.6040 O   0  0  0  0  0  0  0  0  0  0  0  0
  -21.8550   -5.9490   22.8160 C   0  0  0  0  0  0  0  0  0  0  0  0
  -21.2130   -6.5690   23.9110 C   0  0  0  0  0  3  0  0  0  0  0  0
  -21.0390   -5.8600   25.1170 C   0  0  0  0  0  3  0  0  0  0  0  0
  -21.4990   -4.5340   25.2280 C   0  0  0  0  0  0  0  0  0  0  0  0
  -22.1360   -3.9150   24.1370 C   0  0  0  0  0  3  0  0  0  0  0  0
  -22.3100   -4.6200   22.9340 C   0  0  0  0  0  0  0  0  0  0  0  0
  -22.9040   -4.0130   21.8790 F   0  0  0  0  0  0  0  0  0  0  0  0
  -21.3260   -3.8510   26.3830 F   0  0  0  0  0  0  0  0  0  0  0  0
  -22.8070  -13.2540   21.1480 C   0  0  0  0  0  0  0  0  0  0  0  0
  -22.1440  -12.5450   22.0550 N   0  0  0  0  0  0  0  0  0  0  0  0
  -22.3090  -14.2580   20.6420 O   0  0  0  0  0  0  0  0  0  0  0  0
  -22.5650  -11.7410   22.4970 H   0  0  0  0  0  0  0  0  0  0  0  0
  -21.2070  -12.8180   22.3130 H   0  0  0  0  0  0  0  0  0  0  0  0
  -25.3350  -14.9980   20.1750 N   0  0  0  0  0  0  0  0  0  0  0  0
  -24.5630  -15.6390   20.3290 H   0  0  0  0  0  0  0  0  0  0  0  0
  -26.1660  -15.4630   19.8280 H   0  0  0  0  0  0  0  0  0  0  0  0
  -29.6460  -26.1510   21.3820 C   0  0  0  0  0  2  0  0  0  0  0  0
  -29.3970  -27.0930   20.1870 C   0  0  0  0  0  2  0  0  0  0  0  0
  -28.1420  -26.8030   19.5710 O   0  0  0  0  0  0  0  0  0  0  0  0
  -24.4590  -31.8190   23.1670 C   0  0  0  0  0  0  0  0  0  0  0  0
  -27.0300  -27.5980   19.7550 C   0  0  0  0  0  0  0  0  0  0  0  0
  -23.2080  -30.5460   21.4520 C   0  0  0  0  0  3  0  0  0  0  0  0
  -24.6260  -29.0920   19.9120 C   0  0  0  0  0  0  0  0  0  0  0  0
  -25.7290  -30.8990   21.2390 C   0  0  0  0  0  2  0  0  0  0  0  0
  -25.7920  -29.5690   20.5220 C   0  0  0  0  0  0  0  0  0  0  0  0
  -26.9920  -28.8270   20.4600 C   0  0  0  0  0  3  0  0  0  0  0  0
  -25.8410  -27.1310   19.1550 C   0  0  0  0  0  3  0  0  0  0  0  0
  -24.6410  -27.8650   19.2300 C   0  0  0  0  0  3  0  0  0  0  0  0
  -23.3910  -29.9530   20.0280 C   0  0  0  0  0  2  0  0  0  0  0  0
  -24.4830  -31.0980   22.0120 N   0  0  0  0  0  0  0  0  0  0  0  0
  -23.3890  -32.0640   23.7450 O   0  0  0  0  0  0  0  0  0  0  0  0
  -22.5600  -29.4720   22.3490 C   0  0  0  0  0  0  0  0  0  0  0  0
  -21.2280  -29.3260   22.2430 N   0  0  0  0  0  0  0  0  0  0  0  0
  -23.2500  -28.7730   23.0990 O   0  0  0  0  0  0  0  0  0  0  0  0
  -20.7320  -29.9360   21.6100 H   0  0  0  0  0  0  0  0  0  0  0  0
  -17.8390  -28.2140   22.7830 C   0  0  0  0  0  0  0  0  0  0  0  0
  -20.4130  -28.3500   22.9650 C   0  0  0  0  0  3  0  0  0  0  0  0
  -20.4350  -26.9760   22.2570 C   0  0  0  0  0  2  0  0  0  0  0  0
  -19.2810  -26.7930   21.2670 C   0  0  0  0  0  2  0  0  0  0  0  0
  -17.9330  -26.9280   21.9790 C   0  0  0  0  0  2  0  0  0  0  0  0
  -19.0030  -28.8910   23.2310 C   0  0  0  0  0  0  0  0  0  0  0  0
  -18.8600  -30.1040   23.9380 C   0  0  0  0  0  3  0  0  0  0  0  0
  -17.5850  -30.6370   24.2060 C   0  0  0  0  0  3  0  0  0  0  0  0
  -16.4350  -29.9530   23.7760 C   0  0  0  0  0  3  0  0  0  0  0  0
  -16.5620  -28.7440   23.0680 C   0  0  0  0  0  3  0  0  0  0  0  0
  -25.7630  -32.3910   23.8020 C   0  0  0  0  0  3  0  0  0  0  0  0
  -25.5010  -33.7880   24.1670 N   0  0  0  0  0  0  0  0  0  0  0  0
  -25.8940  -34.8490   23.4470 C   0  0  0  0  0  0  0  0  0  0  0  0
  -26.5850  -34.7480   22.4300 O   0  0  0  0  0  0  0  0  0  0  0  0
  -24.8940  -33.9460   24.9590 H   0  0  0  0  0  0  0  0  0  0  0  0
  -24.2490  -36.7200   23.1020 C   0  0  0  0  0  1  0  0  0  0  0  0
  -25.4480  -36.2400   23.9340 C   0  0  0  0  0  3  0  0  0  0  0  0
  -27.5840  -37.0210   24.8640 C   0  0  0  0  0  1  0  0  0  0  0  0
  -26.5260  -37.2510   23.8840 N   0  0  0  0  0  0  0  0  0  0  0  0
  -26.1490  -38.1830   24.0380 H   0  0  0  0  0  0  0  0  0  0  0  0
  -26.2630  -31.5690   25.0530 C   0  0  1  0  0  0  0  0  0  0  0  0
  -25.1670  -31.3370   26.1180 C   0  0  0  0  0  1  0  0  0  0  0  0
  -26.8080  -30.1860   24.6230 C   0  0  0  0  0  1  0  0  0  0  0  0
  -27.4370  -32.3140   25.7320 C   0  0  0  0  0  1  0  0  0  0  0  0
  1  2  1  0
  3 50  1  0
  3  1  2  0
  4  6  1  0
  4  8  1  0
  6  1  1  0
  6  7  1  0
  7  5  1  0
  8  9  1  6
  8  7  1  0
  8  5  1  0
  9 10  1  0
 11 10  1  0
 12 20  1  0
 13 18  1  0
 14 15  1  0
 14 13  1  0
 16 15  1  0
 16 25  1  0
 16 17  1  0
 18 12  1  0
 18 17  1  0
 19 12  2  0
 20 11  1  0
 20 21  1  0
 22 23  2  0
 23 42  1  0
 24 23  1  0
 24 27  1  0
 25 22  1  0
 25 26  1  0
 26 24  2  0
 27 28  1  0
 28 29  2  0
 30 33  1  0
 30 29  1  0
 31 30  2  0
 32 31  1  0
 32 27  2  0
 33 34  1  0
 34 39  2  0
 34 35  1  0
 35 36  2  0
 36 37  1  0
 37 41  1  0
 38 37  2  0
 39 38  1  0
 40 39  1  0
 42 43  1  0
 43 46  1  0
 43 45  1  0
 44 42  2  0
 47 48  1  0
 47 22  1  0
 49 47  1  0
 51 50  1  0
 52 54  1  0
 52 51  1  0
 53 64  2  0
 54 59  1  0
 55 63  1  0
 55 65  1  0
 56 62  1  0
 56 58  1  0
 57 63  1  0
 58 57  1  0
 59 58  2  0
 60 61  1  0
 60 54  2  0
 61 56  2  0
 62 55  1  0
 63 53  1  0
 65 67  2  0
 66 65  1  0
 68 66  1  0
 69 78  2  0
 69 74  1  0
 70 66  1  0
 70 74  1  0
 71 70  1  0
 72 73  1  0
 72 71  1  0
 73 69  1  0
 74 75  2  0
 75 76  1  0
 77 76  2  0
 78 77  1  0
 79 53  1  0
 79 80  1  0
 79 89  1  0
 80 83  1  0
 81 85  1  0
 81 80  1  0
 82 81  2  0
 85 84  1  0
 87 85  1  0
 87 88  1  0
 87 86  1  0
 89 92  1  1
 89 90  1  0
 91 89  1  0
M  ISO  4  12 100  20 100  51 101  52 101
M  END
>  <TORSDO>  (90) 
F 22

>  <SCORE>  (90) 
-10.991

>  <name>  (90) 
90

>  <ligand_id>  (90) 
90

>  <original_smiles>  (90) 
[H]c1c([H])c([H])c2c(c1[H])C([H])([H])C([H])([H])C([H])([H])C2([H])N([H])C(=O)C1([H])N(C(=O)C([H])(N([H])C(=O)C([H])(N([H])C([H])([H])[H])C([H])([H])[H])C(C([H])([H])[H])(C([H])([H])[H])C([H])([H])[H])C([H])([H])c2c([H])c(OC([H])([H])C([H])([H])N=C(C([H])([H])[H])C3([H])C([H])([H])C4(C([H])([H])C([H])([H])C([H])([H])N([H])C(=O)N5C([H])([H])C([H])([H])C([H])([H])C([H])(n6nc(-c7c([H])c([H])c(Oc8c([H])c([H])c(F)c([H])c8F)c([H])c7[H])c(C(=O)N([H])[H])c6N([H])[H])C5([H])[H])C([H])([H])C34[H])c([H])c([H])c2C1([H])[H]

>  <smiles>  (90) 
[H]c1c([H])c([H])c2c(c1[H])C([H])([H])C([H])([H])C([H])([H])C2([H])N([H])C(=O)C1([H])N(C(=O)C([H])(N([H])C(=O)C([H])(N([H])C([H])([H])[H])C([H])([H])[H])C(C([H])([H])[H])(C([H])([H])[H])C([H])([H])[H])C([H])([H])c2c([H])c(OC([H])([H])C([H])([H])N=C(C([H])([H])[H])C3([H])C([H])([H])C4(C([H])([H])C([H])([H])C([H])([H])N([H])C(=O)N5C([H])([H])C([H])([H])C([H])([H])C([H])(n6nc(-c7c([H])c([H])c(Oc8c([H])c([H])c(F)c([H])c8F)c([H])c7[H])c(C(=O)N([H])[H])c6N([H])[H])C5([H])[H])C([H])([H])C34[H])c([H])c([H])c2C1([H])[H]

$$$$
91:0:0
     RDKit          3D

 86 95  0  0  1  0  0  0  0  0999 V2000
  -30.5470  -19.9620   20.8220 C   0  0  0  0  0  2  0  0  0  0  0  0
  -30.2950  -21.5910   20.5000 C   0  0  0  0  0  2  0  0  0  0  0  0
  -27.8050  -21.0950   20.9720 C   0  0  0  0  0  2  0  0  0  0  0  0
  -28.4580  -20.2900   19.8610 C   0  0  0  0  0  3  0  0  0  0  0  0
  -29.6050  -18.9310   20.0360 C   0  0  0  0  0  3  0  0  0  0  0  0
  -28.7950  -22.0000   20.2500 C   0  0  2  0  0  0  0  0  0  0  0  0
  -30.3020  -15.7630   20.1590 C   0  0  0  0  0  0  0  0  0  0  0  0
  -30.3840  -13.2050   19.3570 C   0  0  0  0  0  2  0  0  0  0  0  0
  -29.4920  -12.7990   18.1460 C   0  0  0  0  0  2  0  0  0  0  0  0
  -28.0690  -12.4520   18.6030 C   0  0  0  0  0  2  0  0  0  0  0  0
  -27.5640  -13.4580   19.6620 C   0  0  0  0  0  3  0  0  0  0  0  0
  -28.5960  -13.7750   20.7730 C   0  0  0  0  0  2  0  0  0  0  0  0
  -29.7720  -14.3940   20.1150 N   0  0  0  0  0  0  0  0  0  0  0  0
  -31.5280  -15.6860   19.9430 O   0  0  0  0  0  0  0  0  0  0  0  0
  -29.5540  -17.1400   20.2580 N   0  0  0  0  0  0  0  0  0  0  0  0
  -28.5950  -16.9000   20.4670 H   0  0  0  0  0  0  0  0  0  0  0  0
  -25.2020  -13.9980   20.4190 C   0  0  0  0  0  0  0  0  0  0  0  0
  -24.1420  -13.2220   20.7910 C   0  0  0  0  0  0  0  0  0  0  0  0
  -24.6110  -11.8710   20.7720 C   0  0  0  0  0  0  0  0  0  0  0  0
  -26.2470  -13.1240   20.1840 N   0  0  0  0  0  0  0  0  0  0  0  0
  -25.9050  -11.8370   20.4630 N   0  0  0  0  0  0  0  0  0  0  0  0
  -23.8810  -10.6120   20.9690 C   0  0  0  0  0  0  0  0  0  0  0  0
  -24.3050   -9.6500   21.9130 C   0  0  0  0  0  3  0  0  0  0  0  0
  -23.5690   -8.4590   22.1010 C   0  0  0  0  0  3  0  0  0  0  0  0
  -22.3960   -8.2210   21.3460 C   0  0  0  0  0  0  0  0  0  0  0  0
  -21.9910   -9.1720   20.3930 C   0  0  0  0  0  3  0  0  0  0  0  0
  -22.7270  -10.3540   20.2030 C   0  0  0  0  0  3  0  0  0  0  0  0
  -21.6340   -7.0820   21.4430 O   0  0  0  0  0  0  0  0  0  0  0  0
  -21.5810   -6.3470   22.6010 C   0  0  0  0  0  0  0  0  0  0  0  0
  -21.1430   -6.9090   23.8200 C   0  0  0  0  0  3  0  0  0  0  0  0
  -21.0370   -6.1010   24.9700 C   0  0  0  0  0  3  0  0  0  0  0  0
  -21.3580   -4.7330   24.9020 C   0  0  0  0  0  0  0  0  0  0  0  0
  -21.7890   -4.1700   23.6870 C   0  0  0  0  0  3  0  0  0  0  0  0
  -21.8980   -4.9750   22.5390 C   0  0  0  0  0  0  0  0  0  0  0  0
  -22.2920   -4.4230   21.3670 F   0  0  0  0  0  0  0  0  0  0  0  0
  -21.2500   -3.9550   26.0040 F   0  0  0  0  0  0  0  0  0  0  0  0
  -22.7450  -13.7040   21.0480 C   0  0  0  0  0  0  0  0  0  0  0  0
  -22.0120  -13.0230   21.9210 N   0  0  0  0  0  0  0  0  0  0  0  0
  -22.3120  -14.7210   20.5070 O   0  0  0  0  0  0  0  0  0  0  0  0
  -22.3770  -12.2010   22.3800 H   0  0  0  0  0  0  0  0  0  0  0  0
  -21.0740  -13.3300   22.1360 H   0  0  0  0  0  0  0  0  0  0  0  0
  -25.3620  -15.3670   20.2280 N   0  0  0  0  0  0  0  0  0  0  0  0
  -24.5860  -16.0150   20.3170 H   0  0  0  0  0  0  0  0  0  0  0  0
  -26.2020  -15.8020   19.8700 H   0  0  0  0  0  0  0  0  0  0  0  0
  -28.1740  -23.8110   19.8650 C   0  0  0  0  0  2  0  0  0  0  0  0
  -28.2540  -25.5500   20.2320 O   0  0  0  0  0  0  0  0  0  0  0  0
  -24.6690  -31.8230   23.1460 C   0  0  0  0  0  0  0  0  0  0  0  0
  -27.2810  -26.7720   20.1400 C   0  0  0  0  0  0  0  0  0  0  0  0
  -23.5150  -30.4290   21.4810 C   0  0  0  0  0  3  0  0  0  0  0  0
  -24.9960  -28.8030   20.0700 C   0  0  0  0  0  0  0  0  0  0  0  0
  -26.0950  -30.5860   21.3990 C   0  0  0  0  0  2  0  0  0  0  0  0
  -26.1800  -29.1580   20.7280 C   0  0  0  0  0  0  0  0  0  0  0  0
  -27.3030  -28.1710   20.7330 C   0  0  0  0  0  3  0  0  0  0  0  0
  -26.0650  -26.6370   19.4220 C   0  0  0  0  0  3  0  0  0  0  0  0
  -24.9800  -27.5700   19.3930 C   0  0  0  0  0  3  0  0  0  0  0  0
  -23.7810  -29.7450   20.1070 C   0  0  0  0  0  2  0  0  0  0  0  0
  -24.7820  -30.9810   22.0610 N   0  0  0  0  0  0  0  0  0  0  0  0
  -23.5670  -32.1120   23.6430 O   0  0  0  0  0  0  0  0  0  0  0  0
  -22.7920  -29.4410   22.4360 C   0  0  0  0  0  0  0  0  0  0  0  0
  -21.4590  -29.2990   22.3120 N   0  0  0  0  0  0  0  0  0  0  0  0
  -23.4450  -28.7980   23.2620 O   0  0  0  0  0  0  0  0  0  0  0  0
  -20.9810  -29.8690   21.6280 H   0  0  0  0  0  0  0  0  0  0  0  0
  -18.0600  -28.1210   22.8370 C   0  0  0  0  0  0  0  0  0  0  0  0
  -20.6270  -28.3530   23.0690 C   0  0  0  0  0  3  0  0  0  0  0  0
  -20.7010  -26.9340   22.4570 C   0  0  0  0  0  2  0  0  0  0  0  0
  -19.5830  -26.6540   21.4480 C   0  0  0  0  0  2  0  0  0  0  0  0
  -18.2120  -26.7930   22.1140 C   0  0  0  0  0  2  0  0  0  0  0  0
  -19.1930  -28.8610   23.2700 C   0  0  0  0  0  0  0  0  0  0  0  0
  -18.9930  -30.1020   23.9120 C   0  0  0  0  0  3  0  0  0  0  0  0
  -17.6950  -30.6050   24.1210 C   0  0  0  0  0  3  0  0  0  0  0  0
  -16.5780  -29.8640   23.7000 C   0  0  0  0  0  3  0  0  0  0  0  0
  -16.7600  -28.6230   23.0640 C   0  0  0  0  0  3  0  0  0  0  0  0
  -25.9170  -32.4810   23.8090 C   0  0  0  0  0  3  0  0  0  0  0  0
  -25.5790  -33.8770   24.1490 N   0  0  0  0  0  0  0  0  0  0  0  0
  -25.8970  -34.9520   23.4140 C   0  0  0  0  0  0  0  0  0  0  0  0
  -26.5640  -34.8720   22.3800 O   0  0  0  0  0  0  0  0  0  0  0  0
  -24.9830  -34.0100   24.9530 H   0  0  0  0  0  0  0  0  0  0  0  0
  -24.1360  -36.7320   23.1260 C   0  0  0  0  0  1  0  0  0  0  0  0
  -25.4010  -36.3310   23.9000 C   0  0  0  0  0  3  0  0  0  0  0  0
  -27.5400  -37.2470   24.6930 C   0  0  0  0  0  1  0  0  0  0  0  0
  -26.4160  -37.4020   23.7730 N   0  0  0  0  0  0  0  0  0  0  0  0
  -25.9980  -38.3150   23.9360 H   0  0  0  0  0  0  0  0  0  0  0  0
  -26.3990  -31.7200   25.1070 C   0  0  1  0  0  0  0  0  0  0  0  0
  -25.2770  -31.4860   26.1470 C   0  0  0  0  0  1  0  0  0  0  0  0
  -26.9990  -30.3410   24.7550 C   0  0  0  0  0  1  0  0  0  0  0  0
  -27.5290  -32.5240   25.7960 C   0  0  0  0  0  1  0  0  0  0  0  0
  2  1  1  0
  4  5  1  0
  4  6  1  0
  4  3  1  0
  5 15  1  0
  5  1  1  0
  6 45  1  6
  6  2  1  0
  6  3  1  0
  7 15  1  0
  8 13  1  0
  9 10  1  0
  9  8  1  0
 11 10  1  0
 11 20  1  0
 11 12  1  0
 13  7  1  0
 13 12  1  0
 14  7  2  0
 15 16  1  0
 17 18  2  0
 18 37  1  0
 19 18  1  0
 19 22  1  0
 20 17  1  0
 20 21  1  0
 21 19  2  0
 22 23  1  0
 23 24  2  0
 25 28  1  0
 25 24  1  0
 26 25  2  0
 27 26  1  0
 27 22  2  0
 28 29  1  0
 29 30  1  0
 30 31  2  0
 32 31  1  0
 32 36  1  0
 33 32  2  0
 34 29  2  0
 34 33  1  0
 35 34  1  0
 37 38  1  0
 38 41  1  0
 38 40  1  0
 39 37  2  0
 42 43  1  0
 42 17  1  0
 44 42  1  0
 45 46  1  0
 47 58  2  0
 48 46  1  0
 48 53  1  0
 49 57  1  0
 49 59  1  0
 50 56  1  0
 50 52  1  0
 51 57  1  0
 52 53  2  0
 52 51  1  0
 54 48  2  0
 55 54  1  0
 55 50  2  0
 56 49  1  0
 57 47  1  0
 59 61  2  0
 60 59  1  0
 62 60  1  0
 63 72  2  0
 63 68  1  0
 64 60  1  0
 64 68  1  0
 65 64  1  0
 66 67  1  0
 66 65  1  0
 67 63  1  0
 68 69  2  0
 69 70  1  0
 71 70  2  0
 72 71  1  0
 73 47  1  0
 73 74  1  0
 73 83  1  0
 74 77  1  0
 75 79  1  0
 75 74  1  0
 76 75  2  0
 79 78  1  0
 81 79  1  0
 81 82  1  0
 81 80  1  0
 83 86  1  1
 83 84  1  0
 85 83  1  0
M  ISO  4   7 100  15 100  45 101  46 101
M  END
>  <TORSDO>  (91) 
F 17

>  <SCORE>  (91) 
-16.308

>  <name>  (91) 
91

>  <ligand_id>  (91) 
91

>  <original_smiles>  (91) 
[H]c1c([H])c([H])c2c(c1[H])C([H])([H])C([H])([H])C([H])([H])C2([H])N([H])C(=O)C1([H])N(C(=O)C([H])(N([H])C(=O)C([H])(N([H])C([H])([H])[H])C([H])([H])[H])C(C([H])([H])[H])(C([H])([H])[H])C([H])([H])[H])C([H])([H])c2c([H])c(OC([H])([H])C34C([H])([H])C([H])([H])C([H])(N([H])C(=O)N5C([H])([H])C([H])([H])C([H])([H])C([H])(n6nc(-c7c([H])c([H])c(Oc8c([H])c([H])c(F)c([H])c8F)c([H])c7[H])c(C(=O)N([H])[H])c6N([H])[H])C5([H])[H])C3([H])C4([H])[H])c([H])c([H])c2C1([H])[H]

>  <smiles>  (91) 
[H]c1c([H])c([H])c2c(c1[H])C([H])([H])C([H])([H])C([H])([H])C2([H])N([H])C(=O)C1([H])N(C(=O)C([H])(N([H])C(=O)C([H])(N([H])C([H])([H])[H])C([H])([H])[H])C(C([H])([H])[H])(C([H])([H])[H])C([H])([H])[H])C([H])([H])c2c([H])c(OC([H])([H])C34C([H])([H])C([H])([H])C([H])(N([H])C(=O)N5C([H])([H])C([H])([H])C([H])([H])C([H])(n6nc(-c7c([H])c([H])c(Oc8c([H])c([H])c(F)c([H])c8F)c([H])c7[H])c(C(=O)N([H])[H])c6N([H])[H])C5([H])[H])C3([H])C4([H])[H])c([H])c([H])c2C1([H])[H]

$$$$
92:0:0
     RDKit          3D

 92101  0  0  1  0  0  0  0  0999 V2000
  -27.5830  -20.6030   18.5780 C   0  0  0  0  0  2  0  0  0  0  0  0
  -28.5670  -21.5660   17.8920 C   0  0  0  0  0  2  0  0  0  0  0  0
  -30.6210  -20.7150   19.4070 C   0  0  0  0  0  2  0  0  0  0  0  0
  -28.6660  -20.2890   19.6120 C   0  0  0  0  0  3  0  0  0  0  0  0
  -29.8770  -19.2920   19.2020 C   0  0  0  0  0  3  0  0  0  0  0  0
  -29.3560  -21.6980   19.2060 C   0  0  2  0  0  0  0  0  0  0  0  0
  -29.2720  -23.2850   19.8870 C   0  0  0  0  0  3  0  0  0  0  0  0
  -28.3010  -24.6300   19.4370 C   0  0  0  0  0  3  0  0  0  0  0  0
  -28.3860  -26.1360   19.9240 O   0  0  0  0  0  0  0  0  0  0  0  0
  -24.7250  -31.7110   23.1310 C   0  0  0  0  0  0  0  0  0  0  0  0
  -27.3170  -27.1260   19.8730 C   0  0  0  0  0  0  0  0  0  0  0  0
  -23.5180  -30.3970   21.4300 C   0  0  0  0  0  3  0  0  0  0  0  0
  -24.9700  -28.8840   19.9260 C   0  0  0  0  0  0  0  0  0  0  0  0
  -26.0710  -30.6680   21.2690 C   0  0  0  0  0  2  0  0  0  0  0  0
  -26.1480  -29.3020   20.5560 C   0  0  0  0  0  0  0  0  0  0  0  0
  -27.3130  -28.4410   20.5130 C   0  0  0  0  0  3  0  0  0  0  0  0
  -26.1140  -26.8270   19.2000 C   0  0  0  0  0  3  0  0  0  0  0  0
  -24.9720  -27.6650   19.2280 C   0  0  0  0  0  3  0  0  0  0  0  0
  -23.7310  -29.7690   20.0240 C   0  0  0  0  0  2  0  0  0  0  0  0
  -24.7910  -30.9450   21.9990 N   0  0  0  0  0  0  0  0  0  0  0  0
  -23.6440  -31.9690   23.6810 O   0  0  0  0  0  0  0  0  0  0  0  0
  -22.8370  -29.3540   22.3490 C   0  0  0  0  0  0  0  0  0  0  0  0
  -21.5030  -29.2210   22.2410 N   0  0  0  0  0  0  0  0  0  0  0  0
  -23.5100  -28.6640   23.1200 O   0  0  0  0  0  0  0  0  0  0  0  0
  -21.0200  -29.8340   21.5990 H   0  0  0  0  0  0  0  0  0  0  0  0
  -18.1110  -28.0560   22.7520 C   0  0  0  0  0  0  0  0  0  0  0  0
  -20.6810  -28.2420   22.9580 C   0  0  0  0  0  3  0  0  0  0  0  0
  -20.7380  -26.8580   22.2670 C   0  0  0  0  0  2  0  0  0  0  0  0
  -19.5890  -26.6190   21.2840 C   0  0  0  0  0  2  0  0  0  0  0  0
  -18.2420  -26.7440   21.9990 C   0  0  0  0  0  2  0  0  0  0  0  0
  -19.2580  -28.7630   23.1970 C   0  0  0  0  0  0  0  0  0  0  0  0
  -19.0840  -29.9860   23.8790 C   0  0  0  0  0  3  0  0  0  0  0  0
  -17.7970  -30.5060   24.1140 C   0  0  0  0  0  3  0  0  0  0  0  0
  -16.6640  -29.7970   23.6750 C   0  0  0  0  0  3  0  0  0  0  0  0
  -16.8220  -28.5720   22.9990 C   0  0  0  0  0  3  0  0  0  0  0  0
  -26.0060  -32.3110   23.7860 C   0  0  0  0  0  3  0  0  0  0  0  0
  -25.7110  -33.7050   24.1520 N   0  0  0  0  0  0  0  0  0  0  0  0
  -26.0390  -34.7780   23.4190 C   0  0  0  0  0  0  0  0  0  0  0  0
  -26.6900  -34.6960   22.3750 O   0  0  0  0  0  0  0  0  0  0  0  0
  -25.1150  -33.8360   24.9550 H   0  0  0  0  0  0  0  0  0  0  0  0
  -24.3080  -36.5910   23.1640 C   0  0  0  0  0  1  0  0  0  0  0  0
  -25.5710  -36.1570   23.9250 C   0  0  0  0  0  3  0  0  0  0  0  0
  -27.7300  -37.0240   24.7190 C   0  0  0  0  0  1  0  0  0  0  0  0
  -26.6030  -37.2120   23.8080 N   0  0  0  0  0  0  0  0  0  0  0  0
  -26.2000  -38.1290   23.9790 H   0  0  0  0  0  0  0  0  0  0  0  0
  -26.4900  -31.5050   25.0530 C   0  0  1  0  0  0  0  0  0  0  0  0
  -25.3760  -31.2730   26.1000 C   0  0  0  0  0  1  0  0  0  0  0  0
  -27.0450  -30.1220   24.6440 C   0  0  0  0  0  1  0  0  0  0  0  0
  -27.6510  -32.2560   25.7440 C   0  0  0  0  0  1  0  0  0  0  0  0
  -30.4040  -17.8070   19.8860 C   0  0  0  0  0  3  0  0  0  0  0  0
  -30.8320  -15.0780   19.2960 C   0  0  0  0  0  0  0  0  0  0  0  0
  -30.5750  -12.7000   18.4030 C   0  0  0  0  0  2  0  0  0  0  0  0
  -29.5130  -12.6280   17.2850 C   0  0  0  0  0  2  0  0  0  0  0  0
  -28.1120  -12.4220   17.8950 C   0  0  0  0  0  2  0  0  0  0  0  0
  -27.8440  -13.3750   19.0900 C   0  0  0  0  0  3  0  0  0  0  0  0
  -29.0230  -13.4200   20.0840 C   0  0  0  0  0  2  0  0  0  0  0  0
  -30.2040  -13.8280   19.3090 N   0  0  0  0  0  0  0  0  0  0  0  0
  -32.0230  -15.0900   18.9590 O   0  0  0  0  0  0  0  0  0  0  0  0
  -30.0870  -16.2950   19.4620 N   0  0  0  0  0  0  0  0  0  0  0  0
  -29.1020  -16.1000   19.5460 H   0  0  0  0  0  0  0  0  0  0  0  0
  -25.5980  -13.9940   20.1390 C   0  0  0  0  0  0  0  0  0  0  0  0
  -24.5640  -13.2380   20.6180 C   0  0  0  0  0  0  0  0  0  0  0  0
  -24.9830  -11.8760   20.5060 C   0  0  0  0  0  0  0  0  0  0  0  0
  -26.5750  -13.0940   19.7490 N   0  0  0  0  0  0  0  0  0  0  0  0
  -26.2190  -11.8120   20.0230 N   0  0  0  0  0  0  0  0  0  0  0  0
  -24.2470  -10.6290   20.7540 C   0  0  0  0  0  0  0  0  0  0  0  0
  -24.7180   -9.6610   21.6710 C   0  0  0  0  0  3  0  0  0  0  0  0
  -23.9850   -8.4780   21.9010 C   0  0  0  0  0  3  0  0  0  0  0  0
  -22.7650   -8.2520   21.2190 C   0  0  0  0  0  0  0  0  0  0  0  0
  -22.3180   -9.2030   20.2850 C   0  0  0  0  0  3  0  0  0  0  0  0
  -23.0510  -10.3770   20.0510 C   0  0  0  0  0  3  0  0  0  0  0  0
  -21.9980   -7.1220   21.3630 O   0  0  0  0  0  0  0  0  0  0  0  0
  -21.8990   -6.4680   22.5650 C   0  0  0  0  0  0  0  0  0  0  0  0
  -21.4450   -7.1210   23.7320 C   0  0  0  0  0  3  0  0  0  0  0  0
  -21.2930   -6.3920   24.9310 C   0  0  0  0  0  3  0  0  0  0  0  0
  -21.5880   -5.0160   24.9590 C   0  0  0  0  0  0  0  0  0  0  0  0
  -22.0360   -4.3660   23.7970 C   0  0  0  0  0  3  0  0  0  0  0  0
  -22.1890   -5.0910   22.6020 C   0  0  0  0  0  0  0  0  0  0  0  0
  -22.6050   -4.4570   21.4790 F   0  0  0  0  0  0  0  0  0  0  0  0
  -21.4330   -4.3140   26.1080 F   0  0  0  0  0  0  0  0  0  0  0  0
  -23.2260  -13.7480   21.0710 C   0  0  0  0  0  0  0  0  0  0  0  0
  -22.6070  -13.0790   22.0380 N   0  0  0  0  0  0  0  0  0  0  0  0
  -22.7460  -14.7800   20.6020 O   0  0  0  0  0  0  0  0  0  0  0  0
  -23.0060  -12.2390   22.4290 H   0  0  0  0  0  0  0  0  0  0  0  0
  -21.7180  -13.4090   22.3860 H   0  0  0  0  0  0  0  0  0  0  0  0
  -25.7910  -15.3620   19.9740 N   0  0  0  0  0  0  0  0  0  0  0  0
  -25.0700  -16.0480   20.1720 H   0  0  0  0  0  0  0  0  0  0  0  0
  -26.6270  -15.7710   19.5770 H   0  0  0  0  0  0  0  0  0  0  0  0
  -28.7630  -17.2920   21.8130 C   0  0  0  0  0  1  0  0  0  0  0  0
  -30.1420  -17.8750   21.4140 C   0  0  0  0  0  3  0  0  0  0  0  0
  -31.2180  -17.5700   23.7240 C   0  0  0  0  0  1  0  0  0  0  0  0
  -31.2730  -17.2160   22.2330 C   0  0  0  0  0  2  0  0  0  0  0  0
  2  1  1  0
  2  6  1  0
  4  1  1  0
  5  3  1  0
  5  4  1  0
  5 50  1  0
  6  3  1  0
  6  4  1  0
  6  7  1  1
  8  7  2  0
  8  9  1  0
 10 21  2  0
 11  9  1  0
 11 16  1  0
 12 20  1  0
 12 22  1  0
 13 19  1  0
 13 15  1  0
 14 20  1  0
 15 14  1  0
 16 15  2  0
 17 18  1  0
 17 11  2  0
 18 13  2  0
 19 12  1  0
 20 10  1  0
 22 24  2  0
 23 22  1  0
 25 23  1  0
 26 35  2  0
 26 31  1  0
 27 23  1  0
 27 31  1  0
 28 27  1  0
 29 30  1  0
 29 28  1  0
 30 26  1  0
 31 32  2  0
 32 33  1  0
 34 33  2  0
 35 34  1  0
 36 10  1  0
 36 37  1  0
 36 46  1  0
 37 40  1  0
 38 42  1  0
 38 37  1  0
 39 38  2  0
 42 41  1  0
 44 42  1  0
 44 45  1  0
 44 43  1  0
 46 49  1  1
 46 47  1  0
 48 46  1  0
 50 59  1  0
 50 90  1  0
 51 57  1  0
 51 59  1  0
 52 57  1  0
 53 54  1  0
 53 52  1  0
 55 54  1  0
 55 64  1  0
 55 56  1  0
 57 56  1  0
 58 51  2  0
 59 60  1  0
 61 62  2  0
 62 81  1  0
 63 62  1  0
 63 66  1  0
 64 65  1  0
 64 61  1  0
 65 63  2  0
 66 67  1  0
 67 68  2  0
 69 72  1  0
 69 68  1  0
 70 69  2  0
 71 70  1  0
 71 66  2  0
 72 73  1  0
 73 78  2  0
 73 74  1  0
 74 75  2  0
 75 76  1  0
 76 80  1  0
 77 76  2  0
 78 77  1  0
 79 78  1  0
 81 82  1  0
 82 85  1  0
 82 84  1  0
 83 81  2  0
 86 61  1  0
 86 87  1  0
 88 86  1  0
 90 89  1  0
 90 92  1  0
 92 91  1  0
M  ISO  4   8 101   9 101  51 100  59 100
M  END
>  <TORSDO>  (92) 
F 21

>  <SCORE>  (92) 
-10.919

>  <name>  (92) 
92

>  <ligand_id>  (92) 
92

>  <original_smiles>  (92) 
[H]c1c([H])c([H])c2c(c1[H])C([H])([H])C([H])([H])C([H])([H])C2([H])N([H])C(=O)C1([H])N(C(=O)C([H])(N([H])C(=O)C([H])(N([H])C([H])([H])[H])C([H])([H])[H])C(C([H])([H])[H])(C([H])([H])[H])C([H])([H])[H])C([H])([H])c2c([H])c(OC([H])([H])C([H])([H])C34C([H])([H])C([H])([H])C3([H])C([H])(C([H])(N([H])C(=O)N3C([H])([H])C([H])([H])C([H])([H])C([H])(n5nc(-c6c([H])c([H])c(Oc7c([H])c([H])c(F)c([H])c7F)c([H])c6[H])c(C(=O)N([H])[H])c5N([H])[H])C3([H])[H])C([H])(C([H])([H])[H])C([H])([H])C([H])([H])[H])C4([H])[H])c([H])c([H])c2C1([H])[H]

>  <smiles>  (92) 
[H]c1c([H])c([H])c2c(c1[H])C([H])([H])C([H])([H])C([H])([H])C2([H])N([H])C(=O)C1([H])N(C(=O)C([H])(N([H])C(=O)C([H])(N([H])C([H])([H])[H])C([H])([H])[H])C(C([H])([H])[H])(C([H])([H])[H])C([H])([H])[H])C([H])([H])c2c([H])c(OC([H])([H])C([H])([H])C34C([H])([H])C([H])([H])C3([H])C([H])(C([H])(N([H])C(=O)N3C([H])([H])C([H])([H])C([H])([H])C([H])(n5nc(-c6c([H])c([H])c(Oc7c([H])c([H])c(F)c([H])c7F)c([H])c6[H])c(C(=O)N([H])[H])c5N([H])[H])C3([H])[H])C([H])(C([H])([H])[H])C([H])([H])C([H])([H])[H])C4([H])[H])c([H])c([H])c2C1([H])[H]

$$$$
93:0:0
     RDKit          3D

 92101  0  0  1  0  0  0  0  0999 V2000
  -29.7070  -20.8170   20.1050 C   0  0  0  0  0  3  0  0  0  0  0  0
  -30.3190  -21.0470   21.2570 C   0  0  0  0  0  3  0  0  0  0  0  0
  -28.9130  -22.0590   19.5200 C   0  0  0  0  0  0  0  0  0  0  0  0
  -30.5500  -22.3770   21.9670 C   0  0  0  0  0  2  0  0  0  0  0  0
  -30.0430  -19.6720   21.8720 C   0  0  0  0  0  2  0  0  0  0  0  0
  -30.1830  -23.6170   21.0860 C   0  0  0  0  0  2  0  0  0  0  0  0
  -29.4470  -19.2170   20.4930 C   0  0  0  0  0  3  0  0  0  0  0  0
  -28.8590  -23.5450   20.2580 C   0  0  2  0  0  0  0  0  0  0  0  0
  -28.2790  -21.9350   18.4700 O   0  0  0  0  0  0  0  0  0  0  0  0
  -27.0800  -22.3160   21.8740 C   0  0  0  0  0  1  0  0  0  0  0  0
  -27.6070  -23.6010   21.1960 C   0  0  0  0  0  2  0  0  0  0  0  0
  -30.2130  -17.8670   19.8490 C   0  0  0  0  0  2  0  0  0  0  0  0
  -30.6900  -15.1720   20.1460 C   0  0  0  0  0  0  0  0  0  0  0  0
  -30.5260  -12.7970   19.2810 C   0  0  0  0  0  2  0  0  0  0  0  0
  -29.5990  -12.7490   18.0450 C   0  0  0  0  0  2  0  0  0  0  0  0
  -28.1300  -12.5800   18.4750 C   0  0  0  0  0  2  0  0  0  0  0  0
  -27.7390  -13.5380   19.6300 C   0  0  0  0  0  3  0  0  0  0  0  0
  -28.7900  -13.5560   20.7610 C   0  0  0  0  0  2  0  0  0  0  0  0
  -30.0740  -13.9220   20.1500 N   0  0  0  0  0  0  0  0  0  0  0  0
  -31.8820  -15.2120   19.8200 O   0  0  0  0  0  0  0  0  0  0  0  0
  -29.9380  -16.3700   20.2870 N   0  0  0  0  0  0  0  0  0  0  0  0
  -28.9850  -16.2010   20.5760 H   0  0  0  0  0  0  0  0  0  0  0  0
  -25.3740  -14.1770   20.3680 C   0  0  0  0  0  0  0  0  0  0  0  0
  -24.2910  -13.4300   20.7430 C   0  0  0  0  0  0  0  0  0  0  0  0
  -24.7230  -12.0680   20.7180 C   0  0  0  0  0  0  0  0  0  0  0  0
  -26.3940  -13.2730   20.1300 N   0  0  0  0  0  0  0  0  0  0  0  0
  -26.0130  -11.9990   20.4070 N   0  0  0  0  0  0  0  0  0  0  0  0
  -23.9660  -10.8240   20.9140 C   0  0  0  0  0  0  0  0  0  0  0  0
  -24.3760   -9.8480   21.8490 C   0  0  0  0  0  3  0  0  0  0  0  0
  -23.6180   -8.6720   22.0330 C   0  0  0  0  0  3  0  0  0  0  0  0
  -22.4370   -8.4620   21.2830 C   0  0  0  0  0  0  0  0  0  0  0  0
  -22.0460   -9.4270   20.3370 C   0  0  0  0  0  3  0  0  0  0  0  0
  -22.8030  -10.5950   20.1500 C   0  0  0  0  0  3  0  0  0  0  0  0
  -21.6520   -7.3380   21.3760 O   0  0  0  0  0  0  0  0  0  0  0  0
  -21.6020   -6.5900   22.5250 C   0  0  0  0  0  0  0  0  0  0  0  0
  -21.1930   -7.1440   23.7570 C   0  0  0  0  0  3  0  0  0  0  0  0
  -21.0870   -6.3220   24.8980 C   0  0  0  0  0  3  0  0  0  0  0  0
  -21.3800   -4.9490   24.8070 C   0  0  0  0  0  0  0  0  0  0  0  0
  -21.7830   -4.3950   23.5790 C   0  0  0  0  0  3  0  0  0  0  0  0
  -21.8890   -5.2130   22.4410 C   0  0  0  0  0  0  0  0  0  0  0  0
  -22.2560   -4.6690   21.2550 F   0  0  0  0  0  0  0  0  0  0  0  0
  -21.2730   -4.1580   25.9010 F   0  0  0  0  0  0  0  0  0  0  0  0
  -22.9070  -13.9420   21.0120 C   0  0  0  0  0  0  0  0  0  0  0  0
  -22.1660  -13.2750   21.8890 N   0  0  0  0  0  0  0  0  0  0  0  0
  -22.4920  -14.9700   20.4790 O   0  0  0  0  0  0  0  0  0  0  0  0
  -22.5150  -12.4430   22.3420 H   0  0  0  0  0  0  0  0  0  0  0  0
  -21.2370  -13.6010   22.1140 H   0  0  0  0  0  0  0  0  0  0  0  0
  -25.5680  -15.5430   20.1830 N   0  0  0  0  0  0  0  0  0  0  0  0
  -24.8120  -16.2110   20.2850 H   0  0  0  0  0  0  0  0  0  0  0  0
  -26.4130  -15.9580   19.8130 H   0  0  0  0  0  0  0  0  0  0  0  0
  -28.6900  -24.9630   19.3450 C   0  0  0  0  0  2  0  0  0  0  0  0
  -28.6130  -26.4490   19.8240 O   0  0  0  0  0  0  0  0  0  0  0  0
  -24.6650  -31.7690   23.0120 C   0  0  0  0  0  0  0  0  0  0  0  0
  -27.4850  -27.3470   19.7600 C   0  0  0  0  0  0  0  0  0  0  0  0
  -23.5370  -30.3920   21.3070 C   0  0  0  0  0  3  0  0  0  0  0  0
  -25.0630  -28.9650   19.8080 C   0  0  0  0  0  0  0  0  0  0  0  0
  -26.0720  -30.7990   21.1570 C   0  0  0  0  0  2  0  0  0  0  0  0
  -26.2160  -29.4440   20.4400 C   0  0  0  0  0  0  0  0  0  0  0  0
  -27.4220  -28.6510   20.4020 C   0  0  0  0  0  3  0  0  0  0  0  0
  -26.2980  -26.9690   19.0930 C   0  0  0  0  0  3  0  0  0  0  0  0
  -25.1160  -27.7420   19.1210 C   0  0  0  0  0  3  0  0  0  0  0  0
  -23.7890  -29.7910   19.8970 C   0  0  0  0  0  2  0  0  0  0  0  0
  -24.7770  -31.0070   21.8810 N   0  0  0  0  0  0  0  0  0  0  0  0
  -23.5670  -31.9710   23.5520 O   0  0  0  0  0  0  0  0  0  0  0  0
  -22.9140  -29.3060   22.2210 C   0  0  0  0  0  0  0  0  0  0  0  0
  -21.5910  -29.0900   22.1030 N   0  0  0  0  0  0  0  0  0  0  0  0
  -23.6230  -28.6630   22.9990 O   0  0  0  0  0  0  0  0  0  0  0  0
  -21.0730  -29.6650   21.4540 H   0  0  0  0  0  0  0  0  0  0  0  0
  -18.2600  -27.7650   22.6230 C   0  0  0  0  0  0  0  0  0  0  0  0
  -20.8190  -28.0810   22.8320 C   0  0  0  0  0  3  0  0  0  0  0  0
  -20.9400  -26.6940   22.1590 C   0  0  0  0  0  2  0  0  0  0  0  0
  -19.8160  -26.4100   21.1580 C   0  0  0  0  0  2  0  0  0  0  0  0
  -18.4510  -26.4710   21.8490 C   0  0  0  0  0  2  0  0  0  0  0  0
  -19.3720  -28.5280   23.0710 C   0  0  0  0  0  0  0  0  0  0  0  0
  -19.1370  -29.7400   23.7560 C   0  0  0  0  0  3  0  0  0  0  0  0
  -17.8250  -30.1890   23.9970 C   0  0  0  0  0  3  0  0  0  0  0  0
  -16.7300  -29.4220   23.5640 C   0  0  0  0  0  3  0  0  0  0  0  0
  -16.9480  -28.2120   22.8820 C   0  0  0  0  0  3  0  0  0  0  0  0
  -25.9090  -32.4410   23.6690 C   0  0  0  0  0  3  0  0  0  0  0  0
  -26.4520  -31.6480   24.9210 C   0  0  1  0  0  0  0  0  0  0  0  0
  -25.3640  -31.3220   25.9720 C   0  0  0  0  0  1  0  0  0  0  0  0
  -27.1010  -30.3130   24.4890 C   0  0  0  0  0  1  0  0  0  0  0  0
  -27.5620  -32.4700   25.6200 C   0  0  0  0  0  1  0  0  0  0  0  0
  -25.5290  -33.8090   24.0550 N   0  0  0  0  0  0  0  0  0  0  0  0
  -25.8220  -34.9110   23.3530 C   0  0  0  0  0  0  0  0  0  0  0  0
  -26.5070  -34.8860   22.3270 O   0  0  0  0  0  0  0  0  0  0  0  0
  -24.9180  -33.8990   24.8540 H   0  0  0  0  0  0  0  0  0  0  0  0
  -24.0200  -36.6450   23.0610 C   0  0  0  0  0  1  0  0  0  0  0  0
  -25.2690  -36.2560   23.8680 C   0  0  0  0  0  3  0  0  0  0  0  0
  -27.3470  -37.1980   24.7750 C   0  0  0  0  0  1  0  0  0  0  0  0
  -26.2550  -37.3570   23.8180 N   0  0  0  0  0  0  0  0  0  0  0  0
  -25.8050  -38.2510   23.9970 H   0  0  0  0  0  0  0  0  0  0  0  0
  1  3  1  0
  1  7  1  0
  1  2  1  0
  2  5  1  0
  2  4  1  0
  3  8  1  0
  6  4  1  0
  7 12  1  0
  7  5  1  0
  8 51  1  6
  8  6  1  0
  8 11  1  0
  9  3  2  0
 11 10  1  0
 12 21  1  0
 13 19  1  0
 13 21  1  0
 14 19  1  0
 15 16  1  0
 15 14  1  0
 17 16  1  0
 17 26  1  0
 17 18  1  0
 19 18  1  0
 20 13  2  0
 21 22  1  0
 23 24  2  0
 24 43  1  0
 25 24  1  0
 25 28  1  0
 26 23  1  0
 26 27  1  0
 27 25  2  0
 28 29  1  0
 29 30  2  0
 31 34  1  0
 31 30  1  0
 32 31  2  0
 33 32  1  0
 33 28  2  0
 34 35  1  0
 35 36  1  0
 36 37  2  0
 38 37  1  0
 38 42  1  0
 39 38  2  0
 40 35  2  0
 40 39  1  0
 41 40  1  0
 43 44  1  0
 44 47  1  0
 44 46  1  0
 45 43  2  0
 48 49  1  0
 48 23  1  0
 50 48  1  0
 51 52  1  0
 53 64  2  0
 54 52  1  0
 54 59  1  0
 55 63  1  0
 55 65  1  0
 56 62  1  0
 56 58  1  0
 57 63  1  0
 58 57  1  0
 59 58  2  0
 60 61  1  0
 60 54  2  0
 61 56  2  0
 62 55  1  0
 63 53  1  0
 65 67  2  0
 66 65  1  0
 68 66  1  0
 69 78  2  0
 69 74  1  0
 70 66  1  0
 70 74  1  0
 71 70  1  0
 72 73  1  0
 72 71  1  0
 73 69  1  0
 74 75  2  0
 75 76  1  0
 77 76  2  0
 78 77  1  0
 79 53  1  0
 79 84  1  0
 79 80  1  0
 80 83  1  1
 80 81  1  0
 82 80  1  0
 84 87  1  0
 85 89  1  0
 85 84  1  0
 86 85  2  0
 89 88  1  0
 91 89  1  0
 91 92  1  0
 91 90  1  0
M  ISO  4  13 100  21 100  51 101  52 101
M  END
>  <TORSDO>  (93) 
F 19

>  <SCORE>  (93) 
-13.586

>  <name>  (93) 
93

>  <ligand_id>  (93) 
93

>  <original_smiles>  (93) 
[H]c1c([H])c([H])c2c(c1[H])C([H])([H])C([H])([H])C([H])([H])C2([H])N([H])C(=O)C1([H])N(C(=O)C([H])(N([H])C(=O)C([H])(N([H])C([H])([H])[H])C([H])([H])[H])C(C([H])([H])[H])(C([H])([H])[H])C([H])([H])[H])C([H])([H])c2c([H])c(OC([H])([H])C3(C([H])([H])C([H])([H])[H])C(=O)C4=C(C([H])([H])C3([H])[H])C([H])([H])C4([H])C([H])([H])N([H])C(=O)N3C([H])([H])C([H])([H])C([H])([H])C([H])(n4nc(-c5c([H])c([H])c(Oc6c([H])c([H])c(F)c([H])c6F)c([H])c5[H])c(C(=O)N([H])[H])c4N([H])[H])C3([H])[H])c([H])c([H])c2C1([H])[H]

>  <smiles>  (93) 
[H]c1c([H])c([H])c2c(c1[H])C([H])([H])C([H])([H])C([H])([H])C2([H])N([H])C(=O)C1([H])N(C(=O)C([H])(N([H])C(=O)C([H])(N([H])C([H])([H])[H])C([H])([H])[H])C(C([H])([H])[H])(C([H])([H])[H])C([H])([H])[H])C([H])([H])c2c([H])c(OC([H])([H])C3(C([H])([H])C([H])([H])[H])C(=O)C4=C(C([H])([H])C3([H])[H])C([H])([H])C4([H])C([H])([H])N([H])C(=O)N3C([H])([H])C([H])([H])C([H])([H])C([H])(n4nc(-c5c([H])c([H])c(Oc6c([H])c([H])c(F)c([H])c6F)c([H])c5[H])c(C(=O)N([H])[H])c4N([H])[H])C3([H])[H])c([H])c([H])c2C1([H])[H]

$$$$
94:0:0
     RDKit          3D

 88 94  0  0  1  0  0  0  0  0999 V2000
  -30.9510  -22.1870   16.7540 C   0  0  0  0  0  2  0  0  0  0  0  0
  -29.9640  -23.2930   16.9860 C   0  0  0  0  0  2  0  0  0  0  0  0
  -31.0040  -22.7100   19.3350 C   0  0  0  0  0  2  0  0  0  0  0  0
  -30.4920  -21.8130   20.4610 C   0  0  0  0  0  2  0  0  0  0  0  0
  -29.1960  -21.2880   18.5350 C   0  0  0  0  0  2  0  0  0  0  0  0
  -30.2470  -22.2960   18.0940 C   0  0  2  0  0  0  0  0  0  0  0  0
  -29.0680  -21.3720   20.0670 C   0  0  0  0  0  2  0  0  0  0  0  0
  -29.1810  -19.3450   20.6420 C   0  0  0  0  0  1  0  0  0  0  0  0
  -30.1420  -16.0200   20.2760 C   0  0  0  0  0  0  0  0  0  0  0  0
  -30.3500  -13.3890   19.4660 C   0  0  0  0  0  2  0  0  0  0  0  0
  -29.5100  -12.7800   18.2930 C   0  0  0  0  0  2  0  0  0  0  0  0
  -28.1150  -12.3460   18.7640 C   0  0  0  0  0  2  0  0  0  0  0  0
  -27.5380  -13.3740   19.7580 C   0  0  0  0  0  3  0  0  0  0  0  0
  -28.5440  -13.8590   20.8400 C   0  0  0  0  0  2  0  0  0  0  0  0
  -29.6450  -14.6010   20.1440 N   0  0  0  0  0  0  0  0  0  0  0  0
  -31.3880  -15.8800   20.2610 O   0  0  0  0  0  0  0  0  0  0  0  0
  -29.3940  -17.4860   20.2330 N   0  0  0  0  0  0  0  0  0  0  0  0
  -28.4540  -17.2040   19.9900 H   0  0  0  0  0  0  0  0  0  0  0  0
  -25.1750  -13.8580   20.5280 C   0  0  0  0  0  0  0  0  0  0  0  0
  -24.1250  -13.0660   20.8900 C   0  0  0  0  0  0  0  0  0  0  0  0
  -24.6120  -11.7230   20.8650 C   0  0  0  0  0  0  0  0  0  0  0  0
  -26.2350  -13.0030   20.2900 N   0  0  0  0  0  0  0  0  0  0  0  0
  -25.9090  -11.7080   20.5580 N   0  0  0  0  0  0  0  0  0  0  0  0
  -23.8930  -10.4530   21.0530 C   0  0  0  0  0  0  0  0  0  0  0  0
  -24.3290   -9.4820   21.9810 C   0  0  0  0  0  3  0  0  0  0  0  0
  -23.6030   -8.2860   22.1650 C   0  0  0  0  0  3  0  0  0  0  0  0
  -22.4230   -8.0500   21.4190 C   0  0  0  0  0  0  0  0  0  0  0  0
  -22.0050   -9.0080   20.4760 C   0  0  0  0  0  3  0  0  0  0  0  0
  -22.7340  -10.1950   20.2920 C   0  0  0  0  0  3  0  0  0  0  0  0
  -21.6670   -6.9060   21.5100 O   0  0  0  0  0  0  0  0  0  0  0  0
  -21.6410   -6.1500   22.6550 C   0  0  0  0  0  0  0  0  0  0  0  0
  -21.2570   -6.6940   23.9000 C   0  0  0  0  0  3  0  0  0  0  0  0
  -21.1750   -5.8650   25.0360 C   0  0  0  0  0  3  0  0  0  0  0  0
  -21.4720   -4.4910   24.9310 C   0  0  0  0  0  0  0  0  0  0  0  0
  -21.8500   -3.9470   23.6910 C   0  0  0  0  0  3  0  0  0  0  0  0
  -21.9320   -4.7740   22.5560 C   0  0  0  0  0  0  0  0  0  0  0  0
  -22.2770   -4.2390   21.3600 F   0  0  0  0  0  0  0  0  0  0  0  0
  -21.3860   -3.6940   26.0210 F   0  0  0  0  0  0  0  0  0  0  0  0
  -22.7170  -13.5290   21.1370 C   0  0  0  0  0  0  0  0  0  0  0  0
  -21.9860  -12.8370   22.0040 N   0  0  0  0  0  0  0  0  0  0  0  0
  -22.2780  -14.5420   20.5950 O   0  0  0  0  0  0  0  0  0  0  0  0
  -22.3560  -12.0240   22.4730 H   0  0  0  0  0  0  0  0  0  0  0  0
  -21.0400  -13.1310   22.2060 H   0  0  0  0  0  0  0  0  0  0  0  0
  -25.3080  -15.2320   20.3440 N   0  0  0  0  0  0  0  0  0  0  0  0
  -24.5200  -15.8590   20.4650 H   0  0  0  0  0  0  0  0  0  0  0  0
  -26.1420  -15.7020   20.0180 H   0  0  0  0  0  0  0  0  0  0  0  0
  -28.1110  -23.2350   20.3620 C   0  0  0  0  0 15  0  0  0  0  0  0
  -28.1470  -25.1310   20.2230 O   0  0  0  0  0  1  0  0  0  0  0  0
  -24.5960  -31.7620   23.0700 C   0  0  0  0  0  0  0  0  0  0  0  0
  -27.1720  -26.4410   20.2050 C   0  0  0  0  0  0  0  0  0  0  0  0
  -23.4370  -30.3270   21.4470 C   0  0  0  0  0  3  0  0  0  0  0  0
  -24.9060  -28.6150   20.0910 C   0  0  0  0  0  0  0  0  0  0  0  0
  -26.0250  -30.4160   21.3680 C   0  0  0  0  0  2  0  0  0  0  0  0
  -26.1020  -28.9430   20.7380 C   0  0  0  0  0  0  0  0  0  0  0  0
  -27.2060  -27.8960   20.7500 C   0  0  0  0  0  3  0  0  0  0  0  0
  -25.9300  -26.3860   19.5010 C   0  0  0  0  0  3  0  0  0  0  0  0
  -24.8730  -27.3640   19.4460 C   0  0  0  0  0  3  0  0  0  0  0  0
  -23.7050  -29.5910   20.0980 C   0  0  0  0  0  2  0  0  0  0  0  0
  -24.7120  -30.8750   22.0140 N   0  0  0  0  0  0  0  0  0  0  0  0
  -23.4930  -32.0740   23.5540 O   0  0  0  0  0  0  0  0  0  0  0  0
  -22.6920  -29.3860   22.4330 C   0  0  0  0  0  0  0  0  0  0  0  0
  -21.3540  -29.2660   22.3230 N   0  0  0  0  0  0  0  0  0  0  0  0
  -23.3370  -28.7540   23.2750 O   0  0  0  0  0  0  0  0  0  0  0  0
  -20.8820  -29.8220   21.6240 H   0  0  0  0  0  0  0  0  0  0  0  0
  -17.9440  -28.1230   22.9000 C   0  0  0  0  0  0  0  0  0  0  0  0
  -20.5160  -28.3450   23.1050 C   0  0  0  0  0  3  0  0  0  0  0  0
  -20.5750  -26.9130   22.5210 C   0  0  0  0  0  2  0  0  0  0  0  0
  -19.4470  -26.6200   21.5270 C   0  0  0  0  0  2  0  0  0  0  0  0
  -18.0810  -26.7810   22.2000 C   0  0  0  0  0  2  0  0  0  0  0  0
  -19.0860  -28.8640   23.3100 C   0  0  0  0  0  0  0  0  0  0  0  0
  -18.8980  -30.1160   23.9350 C   0  0  0  0  0  3  0  0  0  0  0  0
  -17.6050  -30.6290   24.1470 C   0  0  0  0  0  3  0  0  0  0  0  0
  -16.4790  -29.8880   23.7470 C   0  0  0  0  0  3  0  0  0  0  0  0
  -16.6500  -28.6360   23.1310 C   0  0  0  0  0  3  0  0  0  0  0  0
  -25.8400  -32.4400   23.7210 C   0  0  0  0  0  3  0  0  0  0  0  0
  -25.4860  -33.8320   24.0740 N   0  0  0  0  0  0  0  0  0  0  0  0
  -25.8060  -34.9210   23.3610 C   0  0  0  0  0  0  0  0  0  0  0  0
  -26.4790  -34.8600   22.3300 O   0  0  0  0  0  0  0  0  0  0  0  0
  -24.8760  -33.9490   24.8710 H   0  0  0  0  0  0  0  0  0  0  0  0
  -24.0510  -36.7130   23.0770 C   0  0  0  0  0  1  0  0  0  0  0  0
  -25.3050  -36.2940   23.8640 C   0  0  0  0  0  3  0  0  0  0  0  0
  -27.4320  -37.1930   24.7030 C   0  0  0  0  0  1  0  0  0  0  0  0
  -26.3220  -37.3660   23.7710 N   0  0  0  0  0  0  0  0  0  0  0  0
  -25.9020  -38.2770   23.9410 H   0  0  0  0  0  0  0  0  0  0  0  0
  -26.3430  -31.6830   25.0140 C   0  0  1  0  0  0  0  0  0  0  0  0
  -25.2360  -31.4440   26.0690 C   0  0  0  0  0  1  0  0  0  0  0  0
  -26.9470  -30.3080   24.6540 C   0  0  0  0  0  1  0  0  0  0  0  0
  -27.4750  -32.4930   25.6900 C   0  0  0  0  0  1  0  0  0  0  0  0
  1  2  1  0
  6  1  1  6
  2  6  1  0
  3  4  1  0
  5  7  1  0
  6  5  1  0
  6  3  1  0
  7  4  1  0
 10 15  1  0
 11 12  1  0
 11 10  1  0
 13 12  1  0
 13 22  1  0
 13 14  1  0
 15  9  1  0
 15 14  1  0
 16  9  2  0
 17  9  1  0
 17  8  1  0
 18 17  1  0
 19 20  2  0
 20 39  1  0
 21 20  1  0
 21 24  1  0
 22 19  1  0
 22 23  1  0
 23 21  2  0
 24 25  1  0
 25 26  2  0
 27 30  1  0
 27 26  1  0
 28 27  2  0
 29 28  1  0
 29 24  2  0
 30 31  1  0
 31 32  1  0
 32 33  2  0
 34 33  1  0
 34 38  1  0
 35 34  2  0
 36 31  2  0
 36 35  1  0
 37 36  1  0
 39 40  1  0
 40 43  1  0
 40 42  1  0
 41 39  2  0
 44 45  1  0
 44 19  1  0
 46 44  1  0
 49 60  2  0
 50 48  1  0
 50 55  1  0
 51 59  1  0
 51 61  1  0
 52 58  1  0
 52 54  1  0
 53 59  1  0
 54 55  2  0
 54 53  1  0
 56 50  2  0
 57 56  1  0
 57 52  2  0
 58 51  1  0
 59 49  1  0
 61 63  2  0
 62 61  1  0
 64 62  1  0
 65 74  2  0
 65 70  1  0
 66 62  1  0
 66 70  1  0
 67 66  1  0
 68 69  1  0
 68 67  1  0
 69 65  1  0
 70 71  2  0
 71 72  1  0
 73 72  2  0
 74 73  1  0
 75 49  1  0
 75 76  1  0
 75 85  1  0
 76 79  1  0
 77 81  1  0
 77 76  1  0
 78 77  2  0
 81 80  1  0
 83 81  1  0
 83 84  1  0
 83 82  1  0
 85 88  1  1
 85 86  1  0
 87 85  1  0
M  ISO  4   9 100  17 100  47 101  48 101
M  END
>  <TORSDO>  (94) 
F 18

>  <SCORE>  (94) 
-16.235

>  <name>  (94) 
94

>  <ligand_id>  (94) 
94

>  <original_smiles>  (94) 
[H]c1c([H])c([H])c2c(c1[H])C([H])([H])C([H])([H])C([H])([H])C2([H])N([H])C(=O)C1([H])N(C(=O)C([H])(N([H])C(=O)C([H])(N([H])C([H])([H])[H])C([H])([H])[H])C(C([H])([H])[H])(C([H])([H])[H])C([H])([H])[H])C([H])([H])c2c([H])c(OC([H])([H])C3(C([H])([H])N([H])C(=O)N4C([H])([H])C([H])([H])C([H])([H])C([H])(n5nc(-c6c([H])c([H])c(Oc7c([H])c([H])c(F)c([H])c7F)c([H])c6[H])c(C(=O)N([H])[H])c5N([H])[H])C4([H])[H])C([H])([H])C([H])([H])C4(C([H])([H])C4([H])[H])C3([H])[H])c([H])c([H])c2C1([H])[H]

>  <smiles>  (94) 
[H]c1c([H])c([H])c2c(c1[H])C([H])([H])C([H])([H])C([H])([H])C2([H])N([H])C(=O)C1([H])N(C(=O)C([H])(N([H])C(=O)C([H])(N([H])C([H])([H])[H])C([H])([H])[H])C(C([H])([H])[H])(C([H])([H])[H])C([H])([H])[H])C([H])([H])c2c([H])c(OC([H])([H])C3(C([H])([H])N([H])C(=O)N4C([H])([H])C([H])([H])C([H])([H])C([H])(n5nc(-c6c([H])c([H])c(Oc7c([H])c([H])c(F)c([H])c7F)c([H])c6[H])c(C(=O)N([H])[H])c5N([H])[H])C4([H])[H])C([H])([H])C([H])([H])C4(C([H])([H])C4([H])[H])C3([H])[H])c([H])c([H])c2C1([H])[H]

$$$$
95:0:0
     RDKit          3D

 97105  0  0  1  0  0  0  0  0999 V2000
  -29.3350  -19.4380   21.4510 C   0  0  0  0  0  3  0  0  0  0  0  0
  -29.1650  -20.7220   21.9900 C   0  0  0  0  0  3  0  0  0  0  0  0
  -28.1940  -20.1460   19.4250 C   0  0  0  0  0  3  0  0  0  0  0  0
  -28.8670  -19.1340   20.1550 C   0  0  0  0  0  0  0  0  0  0  0  0
  -28.5290  -21.7360   21.2510 C   0  0  0  0  0  0  0  0  0  0  0  0
  -28.0330  -21.4460   19.9540 C   0  0  0  0  0  0  0  0  0  0  0  0
  -27.3550  -22.5150   19.1120 C   0  0  0  0  0  1  0  0  0  0  0  0
  -28.4040  -23.1070   21.9010 C   0  0  0  0  0  2  0  0  0  0  0  0
  -29.7070  -23.9340   21.8090 C   0  0  0  0  0  2  0  0  0  0  0  0
  -31.2090  -25.5420   20.5780 C   0  0  0  0  0  1  0  0  0  0  0  0
  -29.7960  -24.9460   20.6420 C   0  0  0  0  0  3  0  0  0  0  0  0
  -28.7540  -26.0640   20.8090 C   0  0  0  0  0  2  0  0  0  0  0  0
  -28.7550  -27.0060   19.7380 O   0  0  0  0  0  0  0  0  0  0  0  0
  -24.6810  -31.7270   23.1190 C   0  0  0  0  0  0  0  0  0  0  0  0
  -27.5820  -27.7110   19.7360 C   0  0  0  0  0  0  0  0  0  0  0  0
  -23.5570  -30.3730   21.3830 C   0  0  0  0  0  3  0  0  0  0  0  0
  -25.1000  -29.0340   19.8540 C   0  0  0  0  0  0  0  0  0  0  0  0
  -26.0520  -30.9080   21.2080 C   0  0  0  0  0  2  0  0  0  0  0  0
  -26.2230  -29.5960   20.4750 C   0  0  0  0  0  0  0  0  0  0  0  0
  -27.4700  -28.9390   20.4170 C   0  0  0  0  0  3  0  0  0  0  0  0
  -26.4480  -27.1540   19.1120 C   0  0  0  0  0  3  0  0  0  0  0  0
  -25.2050  -27.8090   19.1710 C   0  0  0  0  0  3  0  0  0  0  0  0
  -23.8020  -29.8030   19.9600 C   0  0  0  0  0  2  0  0  0  0  0  0
  -24.7810  -31.0140   21.9620 N   0  0  0  0  0  0  0  0  0  0  0  0
  -23.5880  -31.8920   23.6780 O   0  0  0  0  0  0  0  0  0  0  0  0
  -22.9740  -29.2480   22.2720 C   0  0  0  0  0  0  0  0  0  0  0  0
  -21.6580  -29.0050   22.1460 N   0  0  0  0  0  0  0  0  0  0  0  0
  -23.7020  -28.5980   23.0280 O   0  0  0  0  0  0  0  0  0  0  0  0
  -21.1260  -29.5860   21.5160 H   0  0  0  0  0  0  0  0  0  0  0  0
  -18.3590  -27.6110   22.6040 C   0  0  0  0  0  0  0  0  0  0  0  0
  -20.9060  -27.9710   22.8520 C   0  0  0  0  0  3  0  0  0  0  0  0
  -21.0640  -26.5970   22.1570 C   0  0  0  0  0  2  0  0  0  0  0  0
  -19.9570  -26.3020   21.1410 C   0  0  0  0  0  2  0  0  0  0  0  0
  -18.5850  -26.3250   21.8260 C   0  0  0  0  0  2  0  0  0  0  0  0
  -19.4480  -28.3920   23.0730 C   0  0  0  0  0  0  0  0  0  0  0  0
  -19.1810  -29.5970   23.7590 C   0  0  0  0  0  3  0  0  0  0  0  0
  -17.8580  -30.0210   23.9800 C   0  0  0  0  0  3  0  0  0  0  0  0
  -16.7830  -29.2380   23.5260 C   0  0  0  0  0  3  0  0  0  0  0  0
  -17.0360  -28.0320   22.8470 C   0  0  0  0  0  3  0  0  0  0  0  0
  -25.9290  -32.3930   23.7790 C   0  0  0  0  0  3  0  0  0  0  0  0
  -26.4700  -31.5960   25.0300 C   0  0  1  0  0  0  0  0  0  0  0  0
  -25.3790  -31.2680   26.0780 C   0  0  0  0  0  1  0  0  0  0  0  0
  -27.1150  -30.2620   24.5870 C   0  0  0  0  0  1  0  0  0  0  0  0
  -27.5800  -32.4140   25.7310 C   0  0  0  0  0  1  0  0  0  0  0  0
  -25.5540  -33.7630   24.1560 N   0  0  0  0  0  0  0  0  0  0  0  0
  -25.8480  -34.8570   23.4410 C   0  0  0  0  0  0  0  0  0  0  0  0
  -26.5380  -34.8220   22.4180 O   0  0  0  0  0  0  0  0  0  0  0  0
  -24.9410  -33.8610   24.9520 H   0  0  0  0  0  0  0  0  0  0  0  0
  -24.0420  -36.5770   23.1280 C   0  0  0  0  0  1  0  0  0  0  0  0
  -25.2900  -36.2020   23.9430 C   0  0  0  0  0  3  0  0  0  0  0  0
  -27.3700  -37.1550   24.8340 C   0  0  0  0  0  1  0  0  0  0  0  0
  -26.2720  -37.3060   23.8820 N   0  0  0  0  0  0  0  0  0  0  0  0
  -25.8220  -38.2010   24.0560 H   0  0  0  0  0  0  0  0  0  0  0  0
  -29.1450  -17.7780   19.4980 C   0  0  0  0  0  3  0  0  0  0  0  0
  -30.0550  -17.9800   18.3600 N   0  0  0  0  0  4  0  0  0  0  0  0
  -30.0770  -17.1740   17.7670 H   0  0  0  0  0  0  0  0  0  0  0  0
  -30.9850  -18.1870   18.6780 H   0  0  0  0  0  0  0  0  0  0  0  0
  -29.7340  -18.7550   17.8090 H   0  0  0  0  0  0  0  0  0  0  0  0
  -29.6720  -16.6810   20.4720 C   0  0  0  0  0  2  0  0  0  0  0  0
  -30.9250  -14.5680   20.3430 C   0  0  0  0  0  0  0  0  0  0  0  0
  -30.6830  -12.3260   19.4390 C   0  0  0  0  0  2  0  0  0  0  0  0
  -29.7760  -12.4570   18.1960 C   0  0  0  0  0  2  0  0  0  0  0  0
  -28.2900  -12.3500   18.5980 C   0  0  0  0  0  2  0  0  0  0  0  0
  -27.9100  -13.2720   19.7880 C   0  0  0  0  0  3  0  0  0  0  0  0
  -28.9420  -13.1670   20.9370 C   0  0  0  0  0  2  0  0  0  0  0  0
  -30.2830  -13.3810   20.3710 N   0  0  0  0  0  0  0  0  0  0  0  0
  -32.1340  -14.6980   20.1670 O   0  0  0  0  0  0  0  0  0  0  0  0
  -30.1600  -15.5000   19.7720 N   0  0  0  0  0  0  0  0  0  0  0  0
  -30.5620  -15.7180   18.8770 H   0  0  0  0  0  0  0  0  0  0  0  0
  -25.5090  -13.9120   20.4530 C   0  0  0  0  0  0  0  0  0  0  0  0
  -24.4230  -13.1540   20.8000 C   0  0  0  0  0  0  0  0  0  0  0  0
  -24.8760  -11.8000   20.7920 C   0  0  0  0  0  0  0  0  0  0  0  0
  -26.5510  -13.0190   20.2520 N   0  0  0  0  0  0  0  0  0  0  0  0
  -26.1720  -11.7440   20.5150 N   0  0  0  0  0  0  0  0  0  0  0  0
  -24.1370  -10.5450   20.9720 C   0  0  0  0  0  0  0  0  0  0  0  0
  -24.5540   -9.5730   21.9090 C   0  0  0  0  0  3  0  0  0  0  0  0
  -23.8160   -8.3830   22.0790 C   0  0  0  0  0  3  0  0  0  0  0  0
  -22.6480   -8.1570   21.3100 C   0  0  0  0  0  0  0  0  0  0  0  0
  -22.2540   -9.1160   20.3600 C   0  0  0  0  0  3  0  0  0  0  0  0
  -22.9940  -10.2990   20.1880 C   0  0  0  0  0  3  0  0  0  0  0  0
  -21.8810   -7.0190   21.3890 O   0  0  0  0  0  0  0  0  0  0  0  0
  -21.8270   -6.2670   22.5340 C   0  0  0  0  0  0  0  0  0  0  0  0
  -21.4090   -6.8120   23.7670 C   0  0  0  0  0  3  0  0  0  0  0  0
  -21.3040   -5.9860   24.9040 C   0  0  0  0  0  3  0  0  0  0  0  0
  -21.6050   -4.6140   24.8070 C   0  0  0  0  0  0  0  0  0  0  0  0
  -22.0160   -4.0680   23.5780 C   0  0  0  0  0  3  0  0  0  0  0  0
  -22.1250   -4.8920   22.4450 C   0  0  0  0  0  0  0  0  0  0  0  0
  -22.5010   -4.3560   21.2590 F   0  0  0  0  0  0  0  0  0  0  0  0
  -21.4970   -3.8170   25.8970 F   0  0  0  0  0  0  0  0  0  0  0  0
  -23.0240  -13.6450   21.0360 C   0  0  0  0  0  0  0  0  0  0  0  0
  -22.2740  -12.9570   21.8930 N   0  0  0  0  0  0  0  0  0  0  0  0
  -22.6070  -14.6720   20.5020 O   0  0  0  0  0  0  0  0  0  0  0  0
  -22.6280  -12.1280   22.3430 H   0  0  0  0  0  0  0  0  0  0  0  0
  -21.3370  -13.2670   22.1030 H   0  0  0  0  0  0  0  0  0  0  0  0
  -25.6940  -15.2800   20.2750 N   0  0  0  0  0  0  0  0  0  0  0  0
  -24.9370  -15.9480   20.3780 H   0  0  0  0  0  0  0  0  0  0  0  0
  -26.5730  -15.7030   20.0120 H   0  0  0  0  0  0  0  0  0  0  0  0
  1  2  1  0
  3  6  2  0
  3  4  1  0
  4  1  2  0
  5  8  1  0
  5  2  2  0
  6  5  1  0
  7  6  1  0
  9  8  1  0
 11 10  1  0
 11 12  1  0
 11  9  1  0
 13 12  1  0
 14 25  2  0
 15 13  1  0
 15 20  1  0
 16 24  1  0
 16 26  1  0
 17 23  1  0
 17 19  1  0
 18 24  1  0
 19 18  1  0
 20 19  2  0
 21 22  1  0
 21 15  2  0
 22 17  2  0
 23 16  1  0
 24 14  1  0
 26 28  2  0
 27 26  1  0
 29 27  1  0
 30 39  2  0
 30 35  1  0
 31 27  1  0
 31 35  1  0
 32 31  1  0
 33 34  1  0
 33 32  1  0
 34 30  1  0
 35 36  2  0
 36 37  1  0
 38 37  2  0
 39 38  1  0
 40 14  1  0
 40 45  1  0
 40 41  1  0
 41 44  1  1
 41 42  1  0
 43 41  1  0
 45 48  1  0
 46 50  1  0
 46 45  1  0
 47 46  2  0
 50 49  1  0
 52 50  1  0
 52 53  1  0
 52 51  1  0
 54  4  1  0
 54 59  1  0
 55 57  1  0
 55 54  1  0
 56 55  1  0
 58 55  1  0
 60 66  1  0
 61 66  1  0
 62 63  1  0
 62 61  1  0
 64 63  1  0
 64 73  1  0
 64 65  1  0
 66 65  1  0
 67 60  2  0
 68 60  1  0
 68 59  1  0
 69 68  1  0
 70 71  2  0
 71 90  1  0
 72 71  1  0
 72 75  1  0
 73 70  1  0
 73 74  1  0
 74 72  2  0
 75 76  1  0
 76 77  2  0
 78 81  1  0
 78 77  1  0
 79 78  2  0
 80 79  1  0
 80 75  2  0
 81 82  1  0
 82 83  1  0
 83 84  2  0
 85 84  1  0
 85 89  1  0
 86 85  2  0
 87 82  2  0
 87 86  1  0
 88 87  1  0
 90 91  1  0
 91 94  1  0
 91 93  1  0
 92 90  2  0
 95 96  1  0
 95 70  1  0
 97 95  1  0
M  ISO  4  12 101  13 101  60 100  68 100
M  END
>  <TORSDO>  (95) 
F 23

>  <SCORE>  (95) 
-11.789

>  <name>  (95) 
95

>  <ligand_id>  (95) 
95

>  <original_smiles>  (95) 
[H]c1c([H])c([H])c2c(c1[H])C([H])([H])C([H])([H])C([H])([H])C2([H])N([H])C(=O)C1([H])N(C(=O)C([H])(N([H])C(=O)C([H])(N([H])C([H])([H])[H])C([H])([H])[H])C(C([H])([H])[H])(C([H])([H])[H])C([H])([H])[H])C([H])([H])c2c([H])c(OC([H])([H])C([H])(C([H])([H])[H])C([H])([H])C([H])([H])c3c([H])c([H])c(C([H])(C([H])([H])N([H])C(=O)N4C([H])([H])C([H])([H])C([H])([H])C([H])(n5nc(-c6c([H])c([H])c(Oc7c([H])c([H])c(F)c([H])c7F)c([H])c6[H])c(C(=O)N([H])[H])c5N([H])[H])C4([H])[H])[N+]([H])([H])[H])c([H])c3C([H])([H])[H])c([H])c([H])c2C1([H])[H]

>  <smiles>  (95) 
[H]c1c([H])c([H])c2c(c1[H])C([H])([H])C([H])([H])C([H])([H])C2([H])N([H])C(=O)C1([H])N(C(=O)C([H])(N([H])C(=O)C([H])(N([H])C([H])([H])[H])C([H])([H])[H])C(C([H])([H])[H])(C([H])([H])[H])C([H])([H])[H])C([H])([H])c2c([H])c(OC([H])([H])C([H])(C([H])([H])[H])C([H])([H])C([H])([H])c3c([H])c([H])c(C([H])(C([H])([H])N([H])C(=O)N4C([H])([H])C([H])([H])C([H])([H])C([H])(n5nc(-c6c([H])c([H])c(Oc7c([H])c([H])c(F)c([H])c7F)c([H])c6[H])c(C(=O)N([H])[H])c5N([H])[H])C4([H])[H])[N+]([H])([H])[H])c([H])c3C([H])([H])[H])c([H])c([H])c2C1([H])[H]

$$$$
96:0:0
     RDKit          3D

 88 95  0  0  1  0  0  0  0  0999 V2000
  -28.9880  -22.2630   20.2420 C   0  0  0  0  0  3  0  0  0  0  0  0
  -30.0020  -22.4870   19.1900 N   0  0  0  0  0  4  0  0  0  0  0  0
  -30.7860  -21.8670   19.2870 H   0  0  0  0  0  0  0  0  0  0  0  0
  -30.3510  -23.4290   19.2460 H   0  0  0  0  0  0  0  0  0  0  0  0
  -29.6090  -22.3630   18.2740 H   0  0  0  0  0  0  0  0  0  0  0  0
  -28.7370  -20.3490   20.2620 C   0  0  0  0  0  2  0  0  0  0  0  0
  -30.8550  -19.0000   21.3300 C   0  0  0  0  0  1  0  0  0  0  0  0
  -29.7880  -18.7370   20.2610 C   0  0  0  0  0  0  0  0  0  0  0  0
  -30.3040  -15.6300   20.1900 C   0  0  0  0  0  0  0  0  0  0  0  0
  -30.3780  -13.1150   19.3390 C   0  0  0  0  0  2  0  0  0  0  0  0
  -29.4660  -12.7490   18.1360 C   0  0  0  0  0  2  0  0  0  0  0  0
  -28.0460  -12.4000   18.6060 C   0  0  0  0  0  2  0  0  0  0  0  0
  -27.5570  -13.3780   19.6960 C   0  0  0  0  0  3  0  0  0  0  0  0
  -28.6060  -13.6570   20.7970 C   0  0  0  0  0  2  0  0  0  0  0  0
  -29.7720  -14.2760   20.1270 N   0  0  0  0  0  0  0  0  0  0  0  0
  -31.5310  -15.5800   19.9880 O   0  0  0  0  0  0  0  0  0  0  0  0
  -29.5530  -16.9840   20.2840 N   0  0  0  0  0  4  0  0  0  0  0  0
  -28.5690  -16.7770   20.3920 H   0  0  0  0  0  0  0  0  0  0  0  0
  -25.1960  -13.8830   20.4900 C   0  0  0  0  0  0  0  0  0  0  0  0
  -24.1500  -13.0900   20.8650 C   0  0  0  0  0  0  0  0  0  0  0  0
  -24.6360  -11.7470   20.8240 C   0  0  0  0  0  0  0  0  0  0  0  0
  -26.2490  -13.0260   20.2300 N   0  0  0  0  0  0  0  0  0  0  0  0
  -25.9270  -11.7320   20.4980 N   0  0  0  0  0  0  0  0  0  0  0  0
  -23.9250  -10.4750   21.0160 C   0  0  0  0  0  0  0  0  0  0  0  0
  -24.3700   -9.5110   21.9480 C   0  0  0  0  0  3  0  0  0  0  0  0
  -23.6530   -8.3090   22.1330 C   0  0  0  0  0  3  0  0  0  0  0  0
  -22.4800   -8.0590   21.3830 C   0  0  0  0  0  0  0  0  0  0  0  0
  -22.0520   -9.0120   20.4410 C   0  0  0  0  0  3  0  0  0  0  0  0
  -22.7680  -10.2060   20.2560 C   0  0  0  0  0  3  0  0  0  0  0  0
  -21.7360   -6.9070   21.4750 O   0  0  0  0  0  0  0  0  0  0  0  0
  -21.6910   -6.1690   22.6310 C   0  0  0  0  0  0  0  0  0  0  0  0
  -21.2460   -6.7240   23.8500 C   0  0  0  0  0  3  0  0  0  0  0  0
  -21.1500   -5.9120   24.9980 C   0  0  0  0  0  3  0  0  0  0  0  0
  -21.4880   -4.5470   24.9260 C   0  0  0  0  0  0  0  0  0  0  0  0
  -21.9240   -3.9930   23.7100 C   0  0  0  0  0  3  0  0  0  0  0  0
  -22.0230   -4.8010   22.5650 C   0  0  0  0  0  0  0  0  0  0  0  0
  -22.4230   -4.2570   21.3910 F   0  0  0  0  0  0  0  0  0  0  0  0
  -21.3890   -3.7660   26.0270 F   0  0  0  0  0  0  0  0  0  0  0  0
  -22.7510  -13.5510   21.1430 C   0  0  0  0  0  0  0  0  0  0  0  0
  -22.0400  -12.8530   22.0220 N   0  0  0  0  0  0  0  0  0  0  0  0
  -22.2960  -14.5660   20.6170 O   0  0  0  0  0  0  0  0  0  0  0  0
  -22.4240  -12.0360   22.4720 H   0  0  0  0  0  0  0  0  0  0  0  0
  -21.1000  -13.1430   22.2490 H   0  0  0  0  0  0  0  0  0  0  0  0
  -25.3350  -15.2580   20.3160 N   0  0  0  0  0  0  0  0  0  0  0  0
  -24.5550  -15.8940   20.4350 H   0  0  0  0  0  0  0  0  0  0  0  0
  -26.1630  -15.7070   19.9490 H   0  0  0  0  0  0  0  0  0  0  0  0
  -27.9630  -23.8890   20.2060 C   0  0  0  0  0  2  0  0  0  0  0  0
  -28.1640  -25.6210   20.2900 O   0  0  0  0  0  0  0  0  0  0  0  0
  -24.6890  -31.8880   23.1980 C   0  0  0  0  0  0  0  0  0  0  0  0
  -27.1830  -26.8110   20.2340 C   0  0  0  0  0  0  0  0  0  0  0  0
  -23.4870  -30.4830   21.5770 C   0  0  0  0  0  3  0  0  0  0  0  0
  -24.9180  -28.8240   20.1710 C   0  0  0  0  0  0  0  0  0  0  0  0
  -26.0640  -30.6240   21.4400 C   0  0  0  0  0  2  0  0  0  0  0  0
  -26.1190  -29.1910   20.7940 C   0  0  0  0  0  0  0  0  0  0  0  0
  -27.2360  -28.2110   20.7920 C   0  0  0  0  0  3  0  0  0  0  0  0
  -25.9500  -26.6440   19.5550 C   0  0  0  0  0  3  0  0  0  0  0  0
  -24.8700  -27.5750   19.5300 C   0  0  0  0  0  3  0  0  0  0  0  0
  -23.7150  -29.7780   20.2100 C   0  0  0  0  0  2  0  0  0  0  0  0
  -24.7710  -31.0310   22.1230 N   0  0  0  0  0  0  0  0  0  0  0  0
  -23.6000  -32.1950   23.7100 O   0  0  0  0  0  0  0  0  0  0  0  0
  -22.7720  -29.5140   22.5570 C   0  0  0  0  0  0  0  0  0  0  0  0
  -21.4380  -29.3660   22.4400 N   0  0  0  0  0  0  0  0  0  0  0  0
  -23.4300  -28.8900   23.3950 O   0  0  0  0  0  0  0  0  0  0  0  0
  -20.9580  -29.9210   21.7440 H   0  0  0  0  0  0  0  0  0  0  0  0
  -18.0470  -28.1770   22.9720 C   0  0  0  0  0  0  0  0  0  0  0  0
  -20.6090  -28.4410   23.2220 C   0  0  0  0  0  3  0  0  0  0  0  0
  -20.7030  -27.0010   22.6630 C   0  0  0  0  0  2  0  0  0  0  0  0
  -19.5990  -26.6730   21.6550 C   0  0  0  0  0  2  0  0  0  0  0  0
  -18.2190  -26.8240   22.3020 C   0  0  0  0  0  2  0  0  0  0  0  0
  -19.1690  -28.9430   23.3900 C   0  0  0  0  0  0  0  0  0  0  0  0
  -18.9500  -30.2060   23.9810 C   0  0  0  0  0  3  0  0  0  0  0  0
  -17.6450  -30.7060   24.1530 C   0  0  0  0  0  3  0  0  0  0  0  0
  -16.5390  -29.9380   23.7490 C   0  0  0  0  0  3  0  0  0  0  0  0
  -16.7410  -28.6740   23.1660 C   0  0  0  0  0  3  0  0  0  0  0  0
  -25.9590  -32.5350   23.8300 C   0  0  0  0  0  3  0  0  0  0  0  0
  -26.4670  -31.7720   25.1160 C   0  0  1  0  0  0  0  0  0  0  0  0
  -25.3690  -31.5490   26.1830 C   0  0  0  0  0  1  0  0  0  0  0  0
  -27.0440  -30.3880   24.7480 C   0  0  0  0  0  1  0  0  0  0  0  0
  -27.6230  -32.5650   25.7720 C   0  0  0  0  0  1  0  0  0  0  0  0
  -25.6390  -33.9340   24.1730 N   0  0  0  0  0  0  0  0  0  0  0  0
  -25.9460  -35.0020   23.4230 C   0  0  0  0  0  0  0  0  0  0  0  0
  -26.5860  -34.9130   22.3720 O   0  0  0  0  0  0  0  0  0  0  0  0
  -25.0640  -34.0770   24.9910 H   0  0  0  0  0  0  0  0  0  0  0  0
  -24.1920  -36.7930   23.1660 C   0  0  0  0  0  1  0  0  0  0  0  0
  -25.4730  -36.3870   23.9130 C   0  0  0  0  0  3  0  0  0  0  0  0
  -27.6360  -37.2910   24.6480 C   0  0  0  0  0  1  0  0  0  0  0  0
  -26.4910  -37.4500   23.7550 N   0  0  0  0  0  0  0  0  0  0  0  0
  -26.0850  -38.3660   23.9200 H   0  0  0  0  0  0  0  0  0  0  0  0
  1 47  1  0
  1  6  1  0
  2  4  1  0
  2  3  1  0
  2  1  1  0
  5  2  1  0
  8  6  1  0
  8 17  2  0
  8  7  1  0
  9 17  1  0
 10 15  1  0
 11 12  1  0
 11 10  1  0
 13 12  1  0
 13 22  1  0
 13 14  1  0
 15  9  1  0
 15 14  1  0
 16  9  2  0
 17 18  1  0
 19 20  2  0
 20 39  1  0
 21 20  1  0
 21 24  1  0
 22 19  1  0
 22 23  1  0
 23 21  2  0
 24 25  1  0
 25 26  2  0
 27 30  1  0
 27 26  1  0
 28 27  2  0
 29 28  1  0
 29 24  2  0
 30 31  1  0
 31 32  1  0
 32 33  2  0
 34 33  1  0
 34 38  1  0
 35 34  2  0
 36 31  2  0
 36 35  1  0
 37 36  1  0
 39 40  1  0
 40 43  1  0
 40 42  1  0
 41 39  2  0
 44 45  1  0
 44 19  1  0
 46 44  1  0
 47 48  1  0
 49 60  2  0
 50 48  1  0
 50 55  1  0
 51 59  1  0
 51 61  1  0
 52 58  1  0
 52 54  1  0
 53 59  1  0
 54 53  1  0
 55 54  2  0
 56 50  2  0
 57 56  1  0
 57 52  2  0
 58 51  1  0
 59 49  1  0
 61 63  2  0
 62 61  1  0
 64 62  1  0
 65 74  2  0
 65 70  1  0
 66 62  1  0
 66 70  1  0
 67 66  1  0
 68 69  1  0
 68 67  1  0
 69 65  1  0
 70 71  2  0
 71 72  1  0
 73 72  2  0
 74 73  1  0
 75 49  1  0
 75 80  1  0
 75 76  1  0
 76 79  1  1
 76 77  1  0
 78 76  1  0
 80 83  1  0
 81 85  1  0
 81 80  1  0
 82 81  2  0
 85 84  1  0
 87 85  1  0
 87 88  1  0
 87 86  1  0
M  ISO  4   9 100  17 100  47 101  48 101
M  END
>  <TORSDO>  (96) 
F 20

>  <SCORE>  (96) 
-16.454

>  <name>  (96) 
96

>  <ligand_id>  (96) 
96

>  <original_smiles>  (96) 
[H]c1c([H])c([H])c2c(c1[H])C([H])([H])C([H])([H])C([H])([H])C2([H])N([H])C(=O)C1([H])N(C(=O)C([H])(N([H])C(=O)C([H])(N([H])C([H])([H])[H])C([H])([H])[H])C(C([H])([H])[H])(C([H])([H])[H])C([H])([H])[H])C([H])([H])c2c([H])c(OC([H])([H])C([H])(C([H])([H])C([H])(N([H])C(=O)N3C([H])([H])C([H])([H])C([H])([H])C([H])(n4nc(-c5c([H])c([H])c(Oc6c([H])c([H])c(F)c([H])c6F)c([H])c5[H])c(C(=O)N([H])[H])c4N([H])[H])C3([H])[H])C([H])([H])[H])[N+]([H])([H])[H])c([H])c([H])c2C1([H])[H]

>  <smiles>  (96) 
[H]c1c([H])c([H])c2c(c1[H])C([H])([H])C([H])([H])C([H])([H])C2([H])N([H])C(=O)C1([H])N(C(=O)C([H])(N([H])C(=O)C([H])(N([H])C([H])([H])[H])C([H])([H])[H])C(C([H])([H])[H])(C([H])([H])[H])C([H])([H])[H])C([H])([H])c2c([H])c(OC([H])([H])C([H])(C([H])([H])C([H])(N([H])C(=O)N3C([H])([H])C([H])([H])C([H])([H])C([H])(n4nc(-c5c([H])c([H])c(Oc6c([H])c([H])c(F)c([H])c6F)c([H])c5[H])c(C(=O)N([H])[H])c4N([H])[H])C3([H])[H])C([H])([H])[H])[N+]([H])([H])[H])c([H])c([H])c2C1([H])[H]

$$$$
97:0:0
     RDKit          3D

 92102  0  0  1  0  0  0  0  0999 V2000
  -32.0790  -20.9270   20.7510 C   0  0  0  0  0  3  0  0  0  0  0  0
  -31.2400  -22.0230   20.4740 C   0  0  0  0  0  3  0  0  0  0  0  0
  -31.5320  -19.6450   20.9510 C   0  0  0  0  0  3  0  0  0  0  0  0
  -29.3090  -20.5580   20.5940 C   0  0  0  0  0  3  0  0  0  0  0  0
  -29.8400  -21.8550   20.4000 C   0  0  0  0  0  0  0  0  0  0  0  0
  -30.1400  -19.4470   20.8630 C   0  0  0  0  0  0  0  0  0  0  0  0
  -29.0380  -23.8560   18.8720 C   0  0  0  0  0  2  0  0  0  0  0  0
  -28.9010  -23.0040   20.1100 C   0  0  0  0  0  3  0  0  0  0  0  0
  -29.2890  -24.4710   20.2340 C   0  0  0  0  0  3  0  0  0  0  0  0
  -28.3160  -25.4710   20.8340 C   0  0  0  0  0  2  0  0  0  0  0  0
  -28.4210  -26.7450   20.1890 O   0  0  0  0  0  0  0  0  0  0  0  0
  -24.5890  -31.8970   23.2530 C   0  0  0  0  0  0  0  0  0  0  0  0
  -27.2560  -27.4740   20.1840 C   0  0  0  0  0  0  0  0  0  0  0  0
  -23.3920  -30.4910   21.6050 C   0  0  0  0  0  3  0  0  0  0  0  0
  -24.8550  -28.9590   20.1860 C   0  0  0  0  0  0  0  0  0  0  0  0
  -25.9170  -30.8600   21.4190 C   0  0  0  0  0  2  0  0  0  0  0  0
  -26.0080  -29.4910   20.7780 C   0  0  0  0  0  0  0  0  0  0  0  0
  -27.2140  -28.7570   20.7710 C   0  0  0  0  0  3  0  0  0  0  0  0
  -26.0920  -26.9560   19.5780 C   0  0  0  0  0  3  0  0  0  0  0  0
  -24.8910  -27.6900   19.5820 C   0  0  0  0  0  3  0  0  0  0  0  0
  -23.6070  -29.8120   20.2270 C   0  0  0  0  0  2  0  0  0  0  0  0
  -24.6500  -31.0980   22.1500 N   0  0  0  0  0  0  0  0  0  0  0  0
  -23.5060  -32.1640   23.7900 O   0  0  0  0  0  0  0  0  0  0  0  0
  -22.7410  -29.4680   22.5640 C   0  0  0  0  0  0  0  0  0  0  0  0
  -21.4160  -29.2850   22.4350 N   0  0  0  0  0  0  0  0  0  0  0  0
  -23.4250  -28.8400   23.3770 O   0  0  0  0  0  0  0  0  0  0  0  0
  -20.9260  -29.8430   21.7500 H   0  0  0  0  0  0  0  0  0  0  0  0
  -18.0400  -28.1080   22.9420 C   0  0  0  0  0  0  0  0  0  0  0  0
  -20.6000  -28.3470   23.2030 C   0  0  0  0  0  3  0  0  0  0  0  0
  -20.6920  -26.9200   22.6170 C   0  0  0  0  0  2  0  0  0  0  0  0
  -19.5830  -26.6100   21.6060 C   0  0  0  0  0  2  0  0  0  0  0  0
  -18.2040  -26.7610   22.2570 C   0  0  0  0  0  2  0  0  0  0  0  0
  -19.1650  -28.8580   23.3730 C   0  0  0  0  0  0  0  0  0  0  0  0
  -18.9580  -30.1200   23.9710 C   0  0  0  0  0  3  0  0  0  0  0  0
  -17.6580  -30.6300   24.1450 C   0  0  0  0  0  3  0  0  0  0  0  0
  -16.5460  -29.8750   23.7330 C   0  0  0  0  0  3  0  0  0  0  0  0
  -16.7380  -28.6150   23.1370 C   0  0  0  0  0  3  0  0  0  0  0  0
  -25.8730  -32.5310   23.8750 C   0  0  0  0  0  3  0  0  0  0  0  0
  -26.3880  -31.7650   25.1540 C   0  0  1  0  0  0  0  0  0  0  0  0
  -25.2930  -31.5270   26.2200 C   0  0  0  0  0  1  0  0  0  0  0  0
  -26.9770  -30.3880   24.7680 C   0  0  0  0  0  1  0  0  0  0  0  0
  -27.5350  -32.5640   25.8170 C   0  0  0  0  0  1  0  0  0  0  0  0
  -25.5620  -33.9300   24.1960 N   0  0  0  0  0  0  0  0  0  0  0  0
  -25.8990  -34.9770   23.4320 C   0  0  0  0  0  0  0  0  0  0  0  0
  -26.5760  -34.8680   22.4050 O   0  0  0  0  0  0  0  0  0  0  0  0
  -24.9650  -34.0900   24.9940 H   0  0  0  0  0  0  0  0  0  0  0  0
  -24.1740  -36.7680   23.0490 C   0  0  0  0  0  1  0  0  0  0  0  0
  -25.4070  -36.3680   23.8760 C   0  0  0  0  0  3  0  0  0  0  0  0
  -27.5330  -37.2540   24.7260 C   0  0  0  0  0  1  0  0  0  0  0  0
  -26.4410  -37.4200   23.7710 N   0  0  0  0  0  0  0  0  0  0  0  0
  -26.0330  -38.3400   23.9090 H   0  0  0  0  0  0  0  0  0  0  0  0
  -28.7460  -17.5260   19.8750 C   0  0  0  0  0  2  0  0  0  0  0  0
  -29.5360  -18.0790   21.0260 C   0  0  0  0  0  3  0  0  0  0  0  0
  -30.0440  -16.8530   20.2750 C   0  0  0  0  0  3  0  0  0  0  0  0
  -30.6510  -14.4780   20.4370 C   0  0  0  0  0  0  0  0  0  0  0  0
  -30.3530  -12.3230   19.3060 C   0  0  0  0  0  2  0  0  0  0  0  0
  -29.4170  -12.5580   18.1020 C   0  0  0  0  0  2  0  0  0  0  0  0
  -27.9400  -12.4320   18.5230 C   0  0  0  0  0  2  0  0  0  0  0  0
  -27.6050  -13.2570   19.7950 C   0  0  0  0  0  3  0  0  0  0  0  0
  -28.6550  -13.0130   20.9050 C   0  0  0  0  0  2  0  0  0  0  0  0
  -29.9880  -13.2960   20.3450 N   0  0  0  0  0  0  0  0  0  0  0  0
  -31.7890  -14.6550   19.9940 O   0  0  0  0  0  0  0  0  0  0  0  0
  -29.8750  -15.5190   20.7780 N   0  0  0  0  0  0  0  0  0  0  0  0
  -28.9690  -15.2850   21.1520 H   0  0  0  0  0  0  0  0  0  0  0  0
  -25.2000  -13.8770   20.4760 C   0  0  0  0  0  0  0  0  0  0  0  0
  -24.1280  -13.1110   20.8460 C   0  0  0  0  0  0  0  0  0  0  0  0
  -24.5870  -11.7570   20.8300 C   0  0  0  0  0  0  0  0  0  0  0  0
  -26.2460  -12.9910   20.2630 N   0  0  0  0  0  0  0  0  0  0  0  0
  -25.8790  -11.7130   20.5320 N   0  0  0  0  0  0  0  0  0  0  0  0
  -23.8580  -10.4990   21.0250 C   0  0  0  0  0  0  0  0  0  0  0  0
  -24.2880   -9.5340   21.9630 C   0  0  0  0  0  3  0  0  0  0  0  0
  -23.5610   -8.3380   22.1470 C   0  0  0  0  0  3  0  0  0  0  0  0
  -22.3890   -8.0980   21.3910 C   0  0  0  0  0  0  0  0  0  0  0  0
  -21.9790   -9.0510   20.4410 C   0  0  0  0  0  3  0  0  0  0  0  0
  -22.7060  -10.2390   20.2570 C   0  0  0  0  0  3  0  0  0  0  0  0
  -21.6330   -6.9550   21.4820 O   0  0  0  0  0  0  0  0  0  0  0  0
  -21.5880   -6.2120   22.6350 C   0  0  0  0  0  0  0  0  0  0  0  0
  -21.1680   -6.7690   23.8630 C   0  0  0  0  0  3  0  0  0  0  0  0
  -21.0690   -5.9530   25.0070 C   0  0  0  0  0  3  0  0  0  0  0  0
  -21.3810   -4.5820   24.9250 C   0  0  0  0  0  0  0  0  0  0  0  0
  -21.7930   -4.0270   23.7030 C   0  0  0  0  0  3  0  0  0  0  0  0
  -21.8930   -4.8380   22.5600 C   0  0  0  0  0  0  0  0  0  0  0  0
  -22.2710   -4.2930   21.3790 F   0  0  0  0  0  0  0  0  0  0  0  0
  -21.2780   -3.7970   26.0240 F   0  0  0  0  0  0  0  0  0  0  0  0
  -22.7290  -13.5910   21.1040 C   0  0  0  0  0  0  0  0  0  0  0  0
  -21.9940  -12.9020   21.9680 N   0  0  0  0  0  0  0  0  0  0  0  0
  -22.2960  -14.6130   20.5730 O   0  0  0  0  0  0  0  0  0  0  0  0
  -22.3560  -12.0760   22.4200 H   0  0  0  0  0  0  0  0  0  0  0  0
  -21.0550  -13.2070   22.1820 H   0  0  0  0  0  0  0  0  0  0  0  0
  -25.3690  -15.2450   20.2830 N   0  0  0  0  0  0  0  0  0  0  0  0
  -24.6000  -15.9020   20.3730 H   0  0  0  0  0  0  0  0  0  0  0  0
  -26.2080  -15.6690   19.9100 H   0  0  0  0  0  0  0  0  0  0  0  0
  1  3  1  0
  2  1  2  0
  4  6  1  0
  5  2  1  0
  5  4  2  0
  6  3  2  0
  7  8  1  0
  7  9  1  0
  8  9  1  0
  8  5  1  0
  9 10  1  0
 11 10  1  0
 12 23  2  0
 13 11  1  0
 13 18  1  0
 14 22  1  0
 14 24  1  0
 15 21  1  0
 15 17  1  0
 16 22  1  0
 17 16  1  0
 18 17  2  0
 19 20  1  0
 19 13  2  0
 20 15  2  0
 21 14  1  0
 22 12  1  0
 24 26  2  0
 25 24  1  0
 27 25  1  0
 28 37  2  0
 28 33  1  0
 29 25  1  0
 29 33  1  0
 30 29  1  0
 31 32  1  0
 31 30  1  0
 32 28  1  0
 33 34  2  0
 34 35  1  0
 36 35  2  0
 37 36  1  0
 38 12  1  0
 38 43  1  0
 38 39  1  0
 39 42  1  1
 39 40  1  0
 41 39  1  0
 43 46  1  0
 44 48  1  0
 44 43  1  0
 45 44  2  0
 48 47  1  0
 50 48  1  0
 50 51  1  0
 50 49  1  0
 52 54  1  0
 52 53  1  0
 53  6  1  0
 54 63  1  0
 54 53  1  0
 55 63  1  0
 56 61  1  0
 57 58  1  0
 57 56  1  0
 59 58  1  0
 59 68  1  0
 59 60  1  0
 61 55  1  0
 61 60  1  0
 62 55  2  0
 63 64  1  0
 65 66  2  0
 66 85  1  0
 67 66  1  0
 67 70  1  0
 68 65  1  0
 68 69  1  0
 69 67  2  0
 70 71  1  0
 71 72  2  0
 73 76  1  0
 73 72  1  0
 74 73  2  0
 75 74  1  0
 75 70  2  0
 76 77  1  0
 77 78  1  0
 78 79  2  0
 80 79  1  0
 80 84  1  0
 81 80  2  0
 82 77  2  0
 82 81  1  0
 83 82  1  0
 85 86  1  0
 86 89  1  0
 86 88  1  0
 87 85  2  0
 90 91  1  0
 90 65  1  0
 92 90  1  0
M  ISO  4  10 101  11 101  55 100  63 100
M  END
>  <TORSDO>  (97) 
F 19

>  <SCORE>  (97) 
-14.380

>  <name>  (97) 
97

>  <ligand_id>  (97) 
97

>  <original_smiles>  (97) 
[H]c1c([H])c([H])c2c(c1[H])C([H])([H])C([H])([H])C([H])([H])C2([H])N([H])C(=O)C1([H])N(C(=O)C([H])(N([H])C(=O)C([H])(N([H])C([H])([H])[H])C([H])([H])[H])C(C([H])([H])[H])(C([H])([H])[H])C([H])([H])[H])C([H])([H])c2c([H])c(OC([H])([H])C3([H])C([H])([H])C3([H])c3c([H])c([H])c([H])c(C4([H])C([H])([H])C4([H])N([H])C(=O)N4C([H])([H])C([H])([H])C([H])([H])C([H])(n5nc(-c6c([H])c([H])c(Oc7c([H])c([H])c(F)c([H])c7F)c([H])c6[H])c(C(=O)N([H])[H])c5N([H])[H])C4([H])[H])c3[H])c([H])c([H])c2C1([H])[H]

>  <smiles>  (97) 
[H]c1c([H])c([H])c2c(c1[H])C([H])([H])C([H])([H])C([H])([H])C2([H])N([H])C(=O)C1([H])N(C(=O)C([H])(N([H])C(=O)C([H])(N([H])C([H])([H])[H])C([H])([H])[H])C(C([H])([H])[H])(C([H])([H])[H])C([H])([H])[H])C([H])([H])c2c([H])c(OC([H])([H])C3([H])C([H])([H])C3([H])c3c([H])c([H])c([H])c(C4([H])C([H])([H])C4([H])N([H])C(=O)N4C([H])([H])C([H])([H])C([H])([H])C([H])(n5nc(-c6c([H])c([H])c(Oc7c([H])c([H])c(F)c([H])c7F)c([H])c6[H])c(C(=O)N([H])[H])c5N([H])[H])C4([H])[H])c3[H])c([H])c([H])c2C1([H])[H]

$$$$
