0:0:0
     RDKit          3D

 88 96  0  0  1  0  0  0  0  0999 V2000
  -29.9240  -22.2780   19.4340 C   0  0  0  0  0  3  0  0  0  0  0  0
  -30.3530  -20.8590   19.4240 C   0  0  0  0  0  3  0  0  0  0  0  0
  -27.8180  -21.5790   20.0430 C   0  0  0  0  0  3  0  0  0  0  0  0
  -28.6040  -22.7830   19.7580 C   0  0  0  0  0  0  0  0  0  0  0  0
  -29.5700  -19.6570   19.7010 C   0  0  0  0  0  0  0  0  0  0  0  0
  -28.2410  -20.1490   20.0280 C   0  0  0  0  0  0  0  0  0  0  0  0
  -27.1990  -19.1060   20.3830 C   0  0  0  0  0  1  0  0  0  0  0  0
  -30.2880  -18.0720   19.7300 C   0  0  0  0  0  2  0  0  0  0  0  0
  -30.5780  -15.2270   19.7740 C   0  0  0  0  0  0  0  0  0  0  0  0
  -30.4580  -12.7880   18.9380 C   0  0  0  0  0  2  0  0  0  0  0  0
  -29.4480  -12.5960   17.7800 C   0  0  0  0  0  2  0  0  0  0  0  0
  -28.0340  -12.3430   18.3320 C   0  0  0  0  0  2  0  0  0  0  0  0
  -27.6750  -13.3160   19.4830 C   0  0  0  0  0  3  0  0  0  0  0  0
  -28.8050  -13.4660   20.5230 C   0  0  0  0  0  2  0  0  0  0  0  0
  -29.9910  -13.9380   19.7910 N   0  0  0  0  0  0  0  0  0  0  0  0
  -31.7720  -15.2220   19.4470 O   0  0  0  0  0  0  0  0  0  0  0  0
  -29.8520  -16.4980   19.9110 N   0  0  0  0  0  0  0  0  0  0  0  0
  -28.8760  -16.3720   20.1350 H   0  0  0  0  0  0  0  0  0  0  0  0
  -25.3950  -13.8860   20.4750 C   0  0  0  0  0  0  0  0  0  0  0  0
  -24.3520  -13.1120   20.9010 C   0  0  0  0  0  0  0  0  0  0  0  0
  -24.7820  -11.7550   20.7620 C   0  0  0  0  0  0  0  0  0  0  0  0
  -26.3900  -13.0030   20.0950 N   0  0  0  0  0  0  0  0  0  0  0  0
  -26.0390  -11.7120   20.3340 N   0  0  0  0  0  0  0  0  0  0  0  0
  -24.0440  -10.4990   20.9540 C   0  0  0  0  0  0  0  0  0  0  0  0
  -24.4820   -9.5170   21.8690 C   0  0  0  0  0  3  0  0  0  0  0  0
  -23.7430   -8.3280   22.0510 C   0  0  0  0  0  3  0  0  0  0  0  0
  -22.5510   -8.1140   21.3180 C   0  0  0  0  0  0  0  0  0  0  0  0
  -22.1320   -9.0850   20.3920 C   0  0  0  0  0  3  0  0  0  0  0  0
  -22.8720  -10.2650   20.2080 C   0  0  0  0  0  3  0  0  0  0  0  0
  -21.7820   -6.9790   21.4110 O   0  0  0  0  0  0  0  0  0  0  0  0
  -21.6760   -6.2750   22.5840 C   0  0  0  0  0  0  0  0  0  0  0  0
  -21.1880   -6.8690   23.7680 C   0  0  0  0  0  3  0  0  0  0  0  0
  -21.0300   -6.0910   24.9340 C   0  0  0  0  0  3  0  0  0  0  0  0
  -21.3500   -4.7210   24.9140 C   0  0  0  0  0  0  0  0  0  0  0  0
  -21.8310   -4.1260   23.7340 C   0  0  0  0  0  3  0  0  0  0  0  0
  -21.9900   -4.9020   22.5710 C   0  0  0  0  0  0  0  0  0  0  0  0
  -22.4340   -4.3180   21.4320 F   0  0  0  0  0  0  0  0  0  0  0  0
  -21.1920   -3.9710   26.0300 F   0  0  0  0  0  0  0  0  0  0  0  0
  -22.9960  -13.6010   21.3170 C   0  0  0  0  0  0  0  0  0  0  0  0
  -22.3320  -12.8810   22.2120 N   0  0  0  0  0  0  0  0  0  0  0  0
  -22.5390  -14.6580   20.8820 O   0  0  0  0  0  0  0  0  0  0  0  0
  -22.7180  -12.0260   22.5830 H   0  0  0  0  0  0  0  0  0  0  0  0
  -21.4250  -13.1890   22.5320 H   0  0  0  0  0  0  0  0  0  0  0  0
  -25.5700  -15.2610   20.3480 N   0  0  0  0  0  0  0  0  0  0  0  0
  -24.8240  -15.9170   20.5490 H   0  0  0  0  0  0  0  0  0  0  0  0
  -26.3770  -15.6970   19.9210 H   0  0  0  0  0  0  0  0  0  0  0  0
  -27.9240  -24.3640   19.5230 C   0  0  0  0  0  2  0  0  0  0  0  0
  -28.2570  -25.8930   19.9590 O   0  0  0  0  0  0  0  0  0  0  0  0
  -24.6570  -31.6900   23.1220 C   0  0  0  0  0  0  0  0  0  0  0  0
  -27.2490  -26.9840   19.9200 C   0  0  0  0  0  0  0  0  0  0  0  0
  -23.4680  -30.3380   21.4440 C   0  0  0  0  0  3  0  0  0  0  0  0
  -24.9260  -28.8130   19.9540 C   0  0  0  0  0  0  0  0  0  0  0  0
  -26.0290  -30.5950   21.2880 C   0  0  0  0  0  2  0  0  0  0  0  0
  -26.1120  -29.2150   20.5820 C   0  0  0  0  0  0  0  0  0  0  0  0
  -27.2700  -28.3210   20.5450 C   0  0  0  0  0  3  0  0  0  0  0  0
  -26.0330  -26.7320   19.2440 C   0  0  0  0  0  3  0  0  0  0  0  0
  -24.9090  -27.5920   19.2660 C   0  0  0  0  0  3  0  0  0  0  0  0
  -23.6950  -29.7110   20.0410 C   0  0  0  0  0  2  0  0  0  0  0  0
  -24.7390  -30.8990   22.0050 N   0  0  0  0  0  0  0  0  0  0  0  0
  -23.5680  -31.9480   23.6600 O   0  0  0  0  0  0  0  0  0  0  0  0
  -22.7950  -29.2980   22.3760 C   0  0  0  0  0  0  0  0  0  0  0  0
  -21.4660  -29.1240   22.2570 N   0  0  0  0  0  0  0  0  0  0  0  0
  -23.4750  -28.6490   23.1760 O   0  0  0  0  0  0  0  0  0  0  0  0
  -20.9700  -29.7000   21.5900 H   0  0  0  0  0  0  0  0  0  0  0  0
  -18.0950  -27.8850   22.7690 C   0  0  0  0  0  0  0  0  0  0  0  0
  -20.6580  -28.1520   23.0030 C   0  0  0  0  0  3  0  0  0  0  0  0
  -20.7560  -26.7450   22.3680 C   0  0  0  0  0  2  0  0  0  0  0  0
  -19.6380  -26.4590   21.3590 C   0  0  0  0  0  2  0  0  0  0  0  0
  -18.2670  -26.5670   22.0320 C   0  0  0  0  0  2  0  0  0  0  0  0
  -19.2170  -28.6360   23.2110 C   0  0  0  0  0  0  0  0  0  0  0  0
  -18.9990  -29.8680   23.8650 C   0  0  0  0  0  3  0  0  0  0  0  0
  -17.6950  -30.3500   24.0790 C   0  0  0  0  0  3  0  0  0  0  0  0
  -16.5880  -29.5970   23.6500 C   0  0  0  0  0  3  0  0  0  0  0  0
  -16.7890  -28.3650   23.0030 C   0  0  0  0  0  3  0  0  0  0  0  0
  -25.9270  -32.3250   23.7660 C   0  0  0  0  0  3  0  0  0  0  0  0
  -25.6030  -33.7170   24.1250 N   0  0  0  0  0  0  0  0  0  0  0  0
  -25.9110  -34.7900   23.3860 C   0  0  0  0  0  0  0  0  0  0  0  0
  -26.5600  -34.7150   22.3400 O   0  0  0  0  0  0  0  0  0  0  0  0
  -25.0220  -33.8480   24.9400 H   0  0  0  0  0  0  0  0  0  0  0  0
  -24.1460  -36.5690   23.1300 C   0  0  0  0  0  1  0  0  0  0  0  0
  -25.4230  -36.1670   23.8840 C   0  0  0  0  0  3  0  0  0  0  0  0
  -27.5720  -37.0770   24.6530 C   0  0  0  0  0  1  0  0  0  0  0  0
  -26.4370  -37.2360   23.7480 N   0  0  0  0  0  0  0  0  0  0  0  0
  -26.0210  -38.1490   23.9160 H   0  0  0  0  0  0  0  0  0  0  0  0
  -26.4320  -31.5390   25.0390 C   0  0  1  0  0  0  0  0  0  0  0  0
  -25.3300  -31.2910   26.0980 C   0  0  0  0  0  1  0  0  0  0  0  0
  -27.0160  -30.1640   24.6440 C   0  0  0  0  0  1  0  0  0  0  0  0
  -27.5780  -32.3250   25.7180 C   0  0  0  0  0  1  0  0  0  0  0  0
  1  4  1  0
  2  1  2  0
  2  5  1  0
  4  3  2  0
  5  8  1  0
  5  6  2  0
  6  3  1  0
  6  7  1  0
  8 17  1  0
  9 15  1  0
  9 17  1  0
 10 15  1  0
 11 12  1  0
 11 10  1  0
 13 12  1  0
 13 22  1  0
 13 14  1  0
 15 14  1  0
 16  9  2  0
 17 18  1  0
 19 20  2  0
 20 39  1  0
 21 20  1  0
 21 24  1  0
 22 23  1  0
 22 19  1  0
 23 21  2  0
 24 25  1  0
 25 26  2  0
 27 30  1  0
 27 26  1  0
 28 27  2  0
 29 28  1  0
 29 24  2  0
 30 31  1  0
 31 32  1  0
 32 33  2  0
 34 33  1  0
 34 38  1  0
 35 34  2  0
 36 31  2  0
 36 35  1  0
 37 36  1  0
 39 40  1  0
 40 43  1  0
 40 42  1  0
 41 39  2  0
 44 19  1  0
 44 45  1  0
 46 44  1  0
 47  4  1  0
 47 48  1  0
 49 60  2  0
 50 48  1  0
 50 55  1  0
 51 59  1  0
 51 61  1  0
 52 58  1  0
 52 54  1  0
 53 59  1  0
 54 53  1  0
 55 54  2  0
 56 57  1  0
 56 50  2  0
 57 52  2  0
 58 51  1  0
 59 49  1  0
 61 63  2  0
 62 61  1  0
 64 62  1  0
 65 74  2  0
 65 70  1  0
 66 62  1  0
 66 70  1  0
 67 66  1  0
 68 69  1  0
 68 67  1  0
 69 65  1  0
 70 71  2  0
 71 72  1  0
 73 72  2  0
 74 73  1  0
 75 49  1  0
 75 76  1  0
 75 85  1  0
 76 79  1  0
 77 81  1  0
 77 76  1  0
 78 77  2  0
 81 80  1  0
 83 81  1  0
 83 84  1  0
 83 82  1  0
 85 88  1  1
 85 86  1  0
 87 85  1  0
M  ISO  4   9 100  17 100  47 101  48 101
M  END
>  <TORSDO>  (1) 
F 18

>  <SCORE>  (1) 
-14.865

>  <name>  (1) 
0

>  <ligand_id>  (1) 
0

>  <original_smiles>  (1) 
[H]c1c([H])c([H])c2c(c1[H])C([H])([H])C([H])([H])C([H])([H])C2([H])N([H])C(=O)C1([H])N(C(=O)C([H])(N([H])C(=O)C([H])(N([H])C([H])([H])[H])C([H])([H])[H])C(C([H])([H])[H])(C([H])([H])[H])C([H])([H])[H])C([H])([H])c2c([H])c(OC([H])([H])c3c([H])c([H])c(C([H])([H])N([H])C(=O)N4C([H])([H])C([H])([H])C([H])([H])C([H])(n5nc(-c6c([H])c([H])c(Oc7c([H])c([H])c(F)c([H])c7F)c([H])c6[H])c(C(=O)N([H])[H])c5N([H])[H])C4([H])[H])c(C([H])([H])[H])c3[H])c([H])c([H])c2C1([H])[H]

>  <smiles>  (1) 
[H]c1c([H])c([H])c2c(c1[H])C([H])([H])C([H])([H])C([H])([H])C2([H])N([H])C(=O)C1([H])N(C(=O)C([H])(N([H])C(=O)C([H])(N([H])C([H])([H])[H])C([H])([H])[H])C(C([H])([H])[H])(C([H])([H])[H])C([H])([H])[H])C([H])([H])c2c([H])c(OC([H])([H])c3c([H])c([H])c(C([H])([H])N([H])C(=O)N4C([H])([H])C([H])([H])C([H])([H])C([H])(n5nc(-c6c([H])c([H])c(Oc7c([H])c([H])c(F)c([H])c7F)c([H])c6[H])c(C(=O)N([H])[H])c5N([H])[H])C4([H])[H])c(C([H])([H])[H])c3[H])c([H])c([H])c2C1([H])[H]

$$$$
1:0:0
     RDKit          3D

 93101  0  0  1  0  0  0  0  0999 V2000
  -30.2970  -20.8320   20.2170 C   0  0  0  0  0  0  0  0  0  0  0  0
  -29.7490  -22.0730   20.3530 N   0  0  0  0  0  0  0  0  0  0  0  0
  -31.1200  -20.5860   19.3350 O   0  0  0  0  0  0  0  0  0  0  0  0
  -29.0910  -22.2170   21.1090 H   0  0  0  0  0  0  0  0  0  0  0  0
  -29.8530  -19.7010   21.1930 C   0  0  0  0  0  2  0  0  0  0  0  0
  -32.0910  -18.3660   21.6510 C   0  0  0  0  0  2  0  0  0  0  0  0
  -31.0800  -17.8740   22.6330 C   0  0  0  0  0  2  0  0  0  0  0  0
  -30.6230  -18.3240   21.2470 C   0  0  1  0  0  0  0  0  0  0  0  0
  -30.2560  -17.2160   20.1940 C   0  0  0  0  0  3  0  0  0  0  0  0
  -30.9100  -14.7320   20.5210 C   0  0  0  0  0  0  0  0  0  0  0  0
  -30.7120  -12.4610   19.5670 C   0  0  0  0  0  2  0  0  0  0  0  0
  -29.8020  -12.5370   18.3230 C   0  0  0  0  0  2  0  0  0  0  0  0
  -28.3150  -12.4200   18.7190 C   0  0  0  0  0  2  0  0  0  0  0  0
  -27.9240  -13.3200   19.9230 C   0  0  0  0  0  3  0  0  0  0  0  0
  -28.9590  -13.2150   21.0660 C   0  0  0  0  0  2  0  0  0  0  0  0
  -30.2860  -13.5170   20.5030 N   0  0  0  0  0  0  0  0  0  0  0  0
  -32.0820  -14.8710   20.1600 O   0  0  0  0  0  0  0  0  0  0  0  0
  -30.0960  -15.8090   20.7000 N   0  0  0  0  0  0  0  0  0  0  0  0
  -29.1700  -15.5720   21.0220 H   0  0  0  0  0  0  0  0  0  0  0  0
  -25.5270  -13.9370   20.6150 C   0  0  0  0  0  0  0  0  0  0  0  0
  -24.4460  -13.1710   20.9550 C   0  0  0  0  0  0  0  0  0  0  0  0
  -24.8940  -11.8150   20.9050 C   0  0  0  0  0  0  0  0  0  0  0  0
  -26.5660  -13.0500   20.3830 N   0  0  0  0  0  0  0  0  0  0  0  0
  -26.1880  -11.7670   20.6150 N   0  0  0  0  0  0  0  0  0  0  0  0
  -24.1500  -10.5580   21.0580 C   0  0  0  0  0  0  0  0  0  0  0  0
  -24.4990   -9.6120   22.0480 C   0  0  0  0  0  3  0  0  0  0  0  0
  -23.7590   -8.4190   22.1880 C   0  0  0  0  0  3  0  0  0  0  0  0
  -22.6560   -8.1640   21.3390 C   0  0  0  0  0  0  0  0  0  0  0  0
  -22.3280   -9.0990   20.3410 C   0  0  0  0  0  3  0  0  0  0  0  0
  -23.0690  -10.2840   20.1990 C   0  0  0  0  0  3  0  0  0  0  0  0
  -21.8950   -7.0210   21.3860 O   0  0  0  0  0  0  0  0  0  0  0  0
  -21.6800   -6.3470   22.5610 C   0  0  0  0  0  0  0  0  0  0  0  0
  -21.0060   -6.9420   23.6500 C   0  0  0  0  0  3  0  0  0  0  0  0
  -20.7470   -6.1900   24.8130 C   0  0  0  0  0  3  0  0  0  0  0  0
  -21.1520   -4.8440   24.8870 C   0  0  0  0  0  0  0  0  0  0  0  0
  -21.8200   -4.2480   23.8030 C   0  0  0  0  0  3  0  0  0  0  0  0
  -22.0810   -4.9980   22.6430 C   0  0  0  0  0  0  0  0  0  0  0  0
  -22.7050   -4.4130   21.5910 F   0  0  0  0  0  0  0  0  0  0  0  0
  -20.8970   -4.1200   26.0010 F   0  0  0  0  0  0  0  0  0  0  0  0
  -23.0500  -13.6590   21.2170 C   0  0  0  0  0  0  0  0  0  0  0  0
  -22.2970  -12.9470   22.0470 N   0  0  0  0  0  0  0  0  0  0  0  0
  -22.6360  -14.7070   20.7210 O   0  0  0  0  0  0  0  0  0  0  0  0
  -22.6450  -12.1000   22.4710 H   0  0  0  0  0  0  0  0  0  0  0  0
  -21.3610  -13.2550   22.2640 H   0  0  0  0  0  0  0  0  0  0  0  0
  -25.7070  -15.3110   20.4650 N   0  0  0  0  0  0  0  0  0  0  0  0
  -24.9370  -15.9630   20.5690 H   0  0  0  0  0  0  0  0  0  0  0  0
  -26.5560  -15.7480   20.1350 H   0  0  0  0  0  0  0  0  0  0  0  0
  -28.7630  -16.6560   18.1350 C   0  0  0  0  0  1  0  0  0  0  0  0
  -29.0140  -17.5760   19.3370 C   0  0  0  0  0  2  0  0  0  0  0  0
  -29.9950  -23.2270   19.4490 C   0  0  0  0  0  2  0  0  0  0  0  0
  -29.6860  -24.6690   19.9910 C   0  0  0  0  0  2  0  0  0  0  0  0
  -28.2750  -25.3030   19.7670 C   0  0  0  0  0  2  0  0  0  0  0  0
  -28.2640  -26.7100   20.1290 O   0  0  0  0  0  0  0  0  0  0  0  0
  -24.4640  -31.9400   23.2110 C   0  0  0  0  0  0  0  0  0  0  0  0
  -27.0730  -27.4280   20.1330 C   0  0  0  0  0  0  0  0  0  0  0  0
  -23.2320  -30.5030   21.6180 C   0  0  0  0  0  3  0  0  0  0  0  0
  -24.6640  -28.9440   20.1880 C   0  0  0  0  0  0  0  0  0  0  0  0
  -25.7540  -30.8590   21.3670 C   0  0  0  0  0  2  0  0  0  0  0  0
  -25.8330  -29.4770   20.7410 C   0  0  0  0  0  0  0  0  0  0  0  0
  -27.0360  -28.7260   20.7090 C   0  0  0  0  0  3  0  0  0  0  0  0
  -25.8730  -26.9160   19.5830 C   0  0  0  0  0  3  0  0  0  0  0  0
  -24.6790  -27.6620   19.6130 C   0  0  0  0  0  3  0  0  0  0  0  0
  -23.4180  -29.8000   20.2450 C   0  0  0  0  0  2  0  0  0  0  0  0
  -24.5030  -31.1160   22.1240 N   0  0  0  0  0  0  0  0  0  0  0  0
  -23.3910  -32.2180   23.7660 O   0  0  0  0  0  0  0  0  0  0  0  0
  -22.6000  -29.4990   22.6090 C   0  0  0  0  0  0  0  0  0  0  0  0
  -21.2800  -29.2820   22.4860 N   0  0  0  0  0  0  0  0  0  0  0  0
  -23.2930  -28.9140   23.4450 O   0  0  0  0  0  0  0  0  0  0  0  0
  -20.7810  -29.8060   21.7820 H   0  0  0  0  0  0  0  0  0  0  0  0
  -17.9300  -28.0260   23.0070 C   0  0  0  0  0  0  0  0  0  0  0  0
  -20.4800  -28.3500   23.2800 C   0  0  0  0  0  3  0  0  0  0  0  0
  -20.6170  -26.9060   22.7450 C   0  0  0  0  0  2  0  0  0  0  0  0
  -19.5270  -26.5290   21.7370 C   0  0  0  0  0  2  0  0  0  0  0  0
  -18.1390  -26.6600   22.3730 C   0  0  0  0  0  2  0  0  0  0  0  0
  -19.0290  -28.8250   23.4170 C   0  0  0  0  0  0  0  0  0  0  0  0
  -18.7820  -30.1000   23.9690 C   0  0  0  0  0  3  0  0  0  0  0  0
  -17.4660  -30.5790   24.1160 C   0  0  0  0  0  3  0  0  0  0  0  0
  -16.3800  -29.7770   23.7250 C   0  0  0  0  0  3  0  0  0  0  0  0
  -16.6120  -28.5020   23.1760 C   0  0  0  0  0  3  0  0  0  0  0  0
  -25.7600  -32.5830   23.7960 C   0  0  0  0  0  3  0  0  0  0  0  0
  -25.4410  -33.9720   24.1540 N   0  0  0  0  0  0  0  0  0  0  0  0
  -25.7660  -35.0410   23.4140 C   0  0  0  0  0  0  0  0  0  0  0  0
  -26.4350  -34.9610   22.3800 O   0  0  0  0  0  0  0  0  0  0  0  0
  -24.8440  -34.1070   24.9550 H   0  0  0  0  0  0  0  0  0  0  0  0
  -24.0550  -36.8490   23.0560 C   0  0  0  0  0  1  0  0  0  0  0  0
  -25.2680  -36.4170   23.8950 C   0  0  0  0  0  3  0  0  0  0  0  0
  -27.3710  -37.2730   24.8290 C   0  0  0  0  0  1  0  0  0  0  0  0
  -26.3070  -37.4680   23.8470 N   0  0  0  0  0  0  0  0  0  0  0  0
  -25.8990  -38.3860   24.0060 H   0  0  0  0  0  0  0  0  0  0  0  0
  -26.3320  -31.8050   25.0430 C   0  0  1  0  0  0  0  0  0  0  0  0
  -25.2670  -31.4960   26.1220 C   0  0  0  0  0  1  0  0  0  0  0  0
  -26.9720  -30.4670   24.6080 C   0  0  0  0  0  1  0  0  0  0  0  0
  -27.4600  -32.6320   25.7070 C   0  0  0  0  0  1  0  0  0  0  0  0
  1  2  1  0
  1  5  1  0
  2  4  1  0
  3  1  2  0
  8  5  1  1
  6  7  1  0
  8  6  1  0
  8  7  1  0
  9 49  1  0
  9 18  1  0
  9  8  1  0
 10 18  1  0
 11 16  1  0
 12 13  1  0
 12 11  1  0
 14 13  1  0
 14 23  1  0
 14 15  1  0
 16 10  1  0
 16 15  1  0
 17 10  2  0
 18 19  1  0
 20 21  2  0
 21 40  1  0
 22 21  1  0
 22 25  1  0
 23 24  1  0
 23 20  1  0
 24 22  2  0
 25 26  1  0
 26 27  2  0
 28 31  1  0
 28 27  1  0
 29 28  2  0
 30 29  1  0
 30 25  2  0
 31 32  1  0
 32 37  2  0
 32 33  1  0
 33 34  2  0
 34 35  1  0
 35 39  1  0
 36 35  2  0
 37 36  1  0
 38 37  1  0
 40 41  1  0
 41 44  1  0
 41 43  1  0
 42 40  2  0
 45 46  1  0
 45 20  1  0
 47 45  1  0
 48 49  1  0
 50 51  1  0
 50  2  1  0
 52 51  1  0
 52 53  1  0
 53 55  1  0
 54 65  2  0
 55 60  1  0
 56 64  1  0
 56 66  1  0
 57 63  1  0
 57 59  1  0
 58 64  1  0
 59 58  1  0
 60 59  2  0
 61 62  1  0
 61 55  2  0
 62 57  2  0
 63 56  1  0
 64 54  1  0
 66 68  2  0
 67 66  1  0
 69 67  1  0
 70 79  2  0
 70 75  1  0
 71 67  1  0
 71 75  1  0
 72 71  1  0
 73 74  1  0
 73 72  1  0
 74 70  1  0
 75 76  2  0
 76 77  1  0
 78 77  2  0
 79 78  1  0
 80 54  1  0
 80 81  1  0
 80 90  1  0
 81 84  1  0
 82 86  1  0
 82 81  1  0
 83 82  2  0
 86 85  1  0
 88 86  1  0
 88 89  1  0
 88 87  1  0
 90 93  1  1
 90 91  1  0
 92 90  1  0
M  ISO  4  10 100  18 100  52 101  53 101
M  END
>  <TORSDO>  (2) 
F 23

>  <SCORE>  (2) 
-11.568

>  <name>  (2) 
1

>  <ligand_id>  (2) 
1

>  <original_smiles>  (2) 
[H]c1c([H])c([H])c2c(c1[H])C([H])([H])C([H])([H])C([H])([H])C2([H])N([H])C(=O)C1([H])N(C(=O)C([H])(N([H])C(=O)C([H])(N([H])C([H])([H])[H])C([H])([H])[H])C(C([H])([H])[H])(C([H])([H])[H])C([H])([H])[H])C([H])([H])c2c([H])c(OC([H])([H])C([H])([H])C([H])([H])N([H])C(=O)C([H])([H])C3(C([H])(N([H])C(=O)N4C([H])([H])C([H])([H])C([H])([H])C([H])(n5nc(-c6c([H])c([H])c(Oc7c([H])c([H])c(F)c([H])c7F)c([H])c6[H])c(C(=O)N([H])[H])c5N([H])[H])C4([H])[H])C([H])([H])C([H])([H])[H])C([H])([H])C3([H])[H])c([H])c([H])c2C1([H])[H]

>  <smiles>  (2) 
[H]c1c([H])c([H])c2c(c1[H])C([H])([H])C([H])([H])C([H])([H])C2([H])N([H])C(=O)C1([H])N(C(=O)C([H])(N([H])C(=O)C([H])(N([H])C([H])([H])[H])C([H])([H])[H])C(C([H])([H])[H])(C([H])([H])[H])C([H])([H])[H])C([H])([H])c2c([H])c(OC([H])([H])C([H])([H])C([H])([H])N([H])C(=O)C([H])([H])C3(C([H])(N([H])C(=O)N4C([H])([H])C([H])([H])C([H])([H])C([H])(n5nc(-c6c([H])c([H])c(Oc7c([H])c([H])c(F)c([H])c7F)c([H])c6[H])c(C(=O)N([H])[H])c5N([H])[H])C4([H])[H])C([H])([H])C([H])([H])[H])C([H])([H])C3([H])[H])c([H])c([H])c2C1([H])[H]

$$$$
2:0:0
     RDKit          3D

 94103  0  0  1  0  0  0  0  0999 V2000
  -29.0690  -22.9170   20.0770 C   0  0  0  0  0  2  0  0  0  0  0  0
  -27.8910  -20.8240   19.0110 C   0  0  0  0  0  2  0  0  0  0  0  0
  -28.9020  -18.3510   18.7380 C   0  0  0  0  0  2  0  0  0  0  0  0
  -29.3330  -20.3820   20.9200 C   0  0  0  0  0  2  0  0  0  0  0  0
  -27.8580  -19.3280   19.3250 C   0  0  0  0  0  3  0  0  0  0  0  0
  -28.5280  -19.0960   20.6770 C   0  0  0  0  0  3  0  0  0  0  0  0
  -28.4460  -21.4970   20.2870 C   0  0  0  0  0  3  0  0  0  0  0  0
  -29.0150  -17.7190   20.1340 C   0  0  0  0  0  3  0  0  0  0  0  0
  -30.2860  -16.9740   20.6170 C   0  0  0  0  0  2  0  0  0  0  0  0
  -30.8220  -14.5100   20.1780 C   0  0  0  0  0  0  0  0  0  0  0  0
  -30.5420  -12.3110   19.0840 C   0  0  0  0  0  2  0  0  0  0  0  0
  -29.5590  -12.4780   17.9050 C   0  0  0  0  0  2  0  0  0  0  0  0
  -28.0980  -12.3500   18.3830 C   0  0  0  0  0  2  0  0  0  0  0  0
  -27.7990  -13.2120   19.6380 C   0  0  0  0  0  3  0  0  0  0  0  0
  -28.8840  -12.9970   20.7190 C   0  0  0  0  0  2  0  0  0  0  0  0
  -30.1890  -13.3080   20.1070 N   0  0  0  0  0  0  0  0  0  0  0  0
  -31.9360  -14.7110   19.6870 O   0  0  0  0  0  0  0  0  0  0  0  0
  -30.0610  -15.5120   20.6630 N   0  0  0  0  0  0  0  0  0  0  0  0
  -29.1670  -15.2210   21.0300 H   0  0  0  0  0  0  0  0  0  0  0  0
  -25.4370  -13.8560   20.4310 C   0  0  0  0  0  0  0  0  0  0  0  0
  -24.3670  -13.0990   20.8260 C   0  0  0  0  0  0  0  0  0  0  0  0
  -24.8020  -11.7390   20.7640 C   0  0  0  0  0  0  0  0  0  0  0  0
  -26.4570  -12.9580   20.1560 N   0  0  0  0  0  0  0  0  0  0  0  0
  -26.0800  -11.6800   20.4120 N   0  0  0  0  0  0  0  0  0  0  0  0
  -24.0620  -10.4880   20.9670 C   0  0  0  0  0  0  0  0  0  0  0  0
  -24.4920   -9.5200   21.9010 C   0  0  0  0  0  3  0  0  0  0  0  0
  -23.7560   -8.3310   22.0940 C   0  0  0  0  0  3  0  0  0  0  0  0
  -22.5740   -8.1020   21.3490 C   0  0  0  0  0  0  0  0  0  0  0  0
  -22.1620   -9.0570   20.4030 C   0  0  0  0  0  3  0  0  0  0  0  0
  -22.8990  -10.2380   20.2100 C   0  0  0  0  0  3  0  0  0  0  0  0
  -21.8120   -6.9640   21.4470 O   0  0  0  0  0  0  0  0  0  0  0  0
  -21.7520   -6.2370   22.6090 C   0  0  0  0  0  0  0  0  0  0  0  0
  -21.3030   -6.8050   23.8210 C   0  0  0  0  0  3  0  0  0  0  0  0
  -21.1890   -6.0050   24.9760 C   0  0  0  0  0  3  0  0  0  0  0  0
  -21.5150   -4.6360   24.9190 C   0  0  0  0  0  0  0  0  0  0  0  0
  -21.9570   -4.0660   23.7110 C   0  0  0  0  0  3  0  0  0  0  0  0
  -22.0710   -4.8650   22.5590 C   0  0  0  0  0  0  0  0  0  0  0  0
  -22.4760   -4.3070   21.3930 F   0  0  0  0  0  0  0  0  0  0  0  0
  -21.4010   -3.8640   26.0250 F   0  0  0  0  0  0  0  0  0  0  0  0
  -22.9870  -13.5960   21.1510 C   0  0  0  0  0  0  0  0  0  0  0  0
  -22.2760  -12.8990   22.0280 N   0  0  0  0  0  0  0  0  0  0  0  0
  -22.5470  -14.6340   20.6560 O   0  0  0  0  0  0  0  0  0  0  0  0
  -22.6430  -12.0540   22.4430 H   0  0  0  0  0  0  0  0  0  0  0  0
  -21.3510  -13.2120   22.2860 H   0  0  0  0  0  0  0  0  0  0  0  0
  -25.6230  -15.2250   20.2590 N   0  0  0  0  0  0  0  0  0  0  0  0
  -24.8770  -15.8960   20.4080 H   0  0  0  0  0  0  0  0  0  0  0  0
  -26.4630  -15.6440   19.8830 H   0  0  0  0  0  0  0  0  0  0  0  0
  -28.0950  -24.1360   20.2790 C   0  0  0  0  0  3  0  0  0  0  0  0
  -27.8710  -24.3920   21.7210 N   0  0  0  0  0  4  0  0  0  0  0  0
  -27.4720  -23.5930   22.1860 H   0  0  0  0  0  0  0  0  0  0  0  0
  -27.2390  -25.1670   21.8410 H   0  0  0  0  0  0  0  0  0  0  0  0
  -28.7300  -24.6350   22.1870 H   0  0  0  0  0  0  0  0  0  0  0  0
  -28.5740  -25.4450   19.5540 C   0  0  0  0  0  2  0  0  0  0  0  0
  -28.3760  -26.6970   20.2570 O   0  0  0  0  0  0  0  0  0  0  0  0
  -24.5410  -31.9050   23.2290 C   0  0  0  0  0  0  0  0  0  0  0  0
  -27.1920  -27.4150   20.1890 C   0  0  0  0  0  0  0  0  0  0  0  0
  -23.3440  -30.5060   21.5780 C   0  0  0  0  0  3  0  0  0  0  0  0
  -24.8030  -28.9490   20.1760 C   0  0  0  0  0  0  0  0  0  0  0  0
  -25.8750  -30.8420   21.4090 C   0  0  0  0  0  2  0  0  0  0  0  0
  -25.9580  -29.4640   20.7750 C   0  0  0  0  0  0  0  0  0  0  0  0
  -27.1500  -28.7010   20.7820 C   0  0  0  0  0  3  0  0  0  0  0  0
  -26.0180  -26.9180   19.5800 C   0  0  0  0  0  3  0  0  0  0  0  0
  -24.8300  -27.6760   19.5770 C   0  0  0  0  0  3  0  0  0  0  0  0
  -23.5650  -29.8170   20.2040 C   0  0  0  0  0  2  0  0  0  0  0  0
  -24.6050  -31.1000   22.1310 N   0  0  0  0  0  0  0  0  0  0  0  0
  -23.4560  -32.1840   23.7570 O   0  0  0  0  0  0  0  0  0  0  0  0
  -22.6770  -29.4940   22.5360 C   0  0  0  0  0  0  0  0  0  0  0  0
  -21.3500  -29.3330   22.4080 N   0  0  0  0  0  0  0  0  0  0  0  0
  -23.3510  -28.8530   23.3470 O   0  0  0  0  0  0  0  0  0  0  0  0
  -20.8710  -29.9030   21.7240 H   0  0  0  0  0  0  0  0  0  0  0  0
  -17.9550  -28.2160   22.9260 C   0  0  0  0  0  0  0  0  0  0  0  0
  -20.5210  -28.4060   23.1770 C   0  0  0  0  0  3  0  0  0  0  0  0
  -20.5840  -26.9810   22.5820 C   0  0  0  0  0  2  0  0  0  0  0  0
  -19.4640  -26.6980   21.5750 C   0  0  0  0  0  2  0  0  0  0  0  0
  -18.0920  -26.8700   22.2340 C   0  0  0  0  0  2  0  0  0  0  0  0
  -19.0960  -28.9430   23.3560 C   0  0  0  0  0  0  0  0  0  0  0  0
  -18.9140  -30.2040   23.9640 C   0  0  0  0  0  3  0  0  0  0  0  0
  -17.6230  -30.7360   24.1500 C   0  0  0  0  0  3  0  0  0  0  0  0
  -16.4970  -30.0040   23.7390 C   0  0  0  0  0  3  0  0  0  0  0  0
  -16.6650  -28.7470   23.1310 C   0  0  0  0  0  3  0  0  0  0  0  0
  -25.8230  -32.5310   23.8610 C   0  0  0  0  0  3  0  0  0  0  0  0
  -25.5210  -33.9330   24.1780 N   0  0  0  0  0  0  0  0  0  0  0  0
  -25.8770  -34.9780   23.4190 C   0  0  0  0  0  0  0  0  0  0  0  0
  -26.5660  -34.8630   22.4020 O   0  0  0  0  0  0  0  0  0  0  0  0
  -24.9130  -34.0990   24.9660 H   0  0  0  0  0  0  0  0  0  0  0  0
  -24.1800  -36.7890   23.0140 C   0  0  0  0  0  1  0  0  0  0  0  0
  -25.3920  -36.3730   23.8600 C   0  0  0  0  0  3  0  0  0  0  0  0
  -27.5110  -37.2390   24.7510 C   0  0  0  0  0  1  0  0  0  0  0  0
  -26.4410  -37.4140   23.7740 N   0  0  0  0  0  0  0  0  0  0  0  0
  -26.0400  -38.3390   23.9030 H   0  0  0  0  0  0  0  0  0  0  0  0
  -26.3220  -31.7630   25.1480 C   0  0  1  0  0  0  0  0  0  0  0  0
  -25.2170  -31.5350   26.2040 C   0  0  0  0  0  1  0  0  0  0  0  0
  -26.9030  -30.3810   24.7650 C   0  0  0  0  0  1  0  0  0  0  0  0
  -27.4680  -32.5570   25.8210 C   0  0  0  0  0  1  0  0  0  0  0  0
  1 48  1  0
  2  5  1  0
  2  7  1  0
  3  8  1  0
  5  3  1  0
  5  6  1  0
  6  4  1  0
  7  1  1  0
  7  4  1  0
  8  9  1  0
  8  6  1  0
  9 18  1  0
 10 18  1  0
 11 16  1  0
 12 13  1  0
 12 11  1  0
 14 13  1  0
 14 23  1  0
 14 15  1  0
 16 10  1  0
 16 15  1  0
 17 10  2  0
 18 19  1  0
 20 21  2  0
 21 40  1  0
 22 21  1  0
 22 25  1  0
 23 24  1  0
 23 20  1  0
 24 22  2  0
 25 26  1  0
 26 27  2  0
 28 31  1  0
 28 27  1  0
 29 28  2  0
 30 29  1  0
 30 25  2  0
 31 32  1  0
 32 33  1  0
 33 34  2  0
 35 34  1  0
 35 39  1  0
 36 35  2  0
 37 32  2  0
 37 36  1  0
 38 37  1  0
 40 41  1  0
 41 44  1  0
 41 43  1  0
 42 40  2  0
 45 46  1  0
 45 20  1  0
 47 45  1  0
 48 53  1  0
 48 49  1  0
 49 51  1  0
 49 50  1  0
 49 52  1  0
 53 54  1  0
 55 66  2  0
 56 54  1  0
 56 61  1  0
 57 65  1  0
 57 67  1  0
 58 64  1  0
 58 60  1  0
 59 65  1  0
 60 61  2  0
 60 59  1  0
 62 56  2  0
 63 62  1  0
 63 58  2  0
 64 57  1  0
 65 55  1  0
 67 69  2  0
 68 67  1  0
 70 68  1  0
 71 80  2  0
 71 76  1  0
 72 68  1  0
 72 76  1  0
 73 72  1  0
 74 75  1  0
 74 73  1  0
 75 71  1  0
 76 77  2  0
 77 78  1  0
 79 78  2  0
 80 79  1  0
 81 55  1  0
 81 82  1  0
 81 91  1  0
 82 85  1  0
 83 87  1  0
 83 82  1  0
 84 83  2  0
 87 86  1  0
 89 87  1  0
 89 90  1  0
 89 88  1  0
 91 94  1  1
 91 92  1  0
 93 91  1  0
M  ISO  4  10 100  18 100  53 101  54 101
M  END
>  <TORSDO>  (3) 
F 21

>  <SCORE>  (3) 
-13.753

>  <name>  (3) 
2

>  <ligand_id>  (3) 
2

>  <original_smiles>  (3) 
[H]c1c([H])c([H])c2c(c1[H])C([H])([H])C([H])([H])C([H])([H])C2([H])N([H])C(=O)C1([H])N(C(=O)C([H])(N([H])C(=O)C([H])(N([H])C([H])([H])[H])C([H])([H])[H])C(C([H])([H])[H])(C([H])([H])[H])C([H])([H])[H])C([H])([H])c2c([H])c(OC([H])([H])C([H])(C([H])([H])C3([H])C([H])([H])C4([H])C([H])([H])C([H])(C([H])([H])N([H])C(=O)N5C([H])([H])C([H])([H])C([H])([H])C([H])(n6nc(-c7c([H])c([H])c(Oc8c([H])c([H])c(F)c([H])c8F)c([H])c7[H])c(C(=O)N([H])[H])c6N([H])[H])C5([H])[H])C4([H])C3([H])[H])[N+]([H])([H])[H])c([H])c([H])c2C1([H])[H]

>  <smiles>  (3) 
[H]c1c([H])c([H])c2c(c1[H])C([H])([H])C([H])([H])C([H])([H])C2([H])N([H])C(=O)C1([H])N(C(=O)C([H])(N([H])C(=O)C([H])(N([H])C([H])([H])[H])C([H])([H])[H])C(C([H])([H])[H])(C([H])([H])[H])C([H])([H])[H])C([H])([H])c2c([H])c(OC([H])([H])C([H])(C([H])([H])C3([H])C([H])([H])C4([H])C([H])([H])C([H])(C([H])([H])N([H])C(=O)N5C([H])([H])C([H])([H])C([H])([H])C([H])(n6nc(-c7c([H])c([H])c(Oc8c([H])c([H])c(F)c([H])c8F)c([H])c7[H])c(C(=O)N([H])[H])c6N([H])[H])C5([H])[H])C4([H])C3([H])[H])[N+]([H])([H])[H])c([H])c([H])c2C1([H])[H]

$$$$
3:0:0
     RDKit          3D

 91 99  0  0  1  0  0  0  0  0999 V2000
  -30.5080  -22.6920   20.6830 C   0  0  0  0  0  1  0  0  0  0  0  0
  -29.0780  -22.3160   20.2490 C   0  0  1  0  0  0  0  0  0  0  0  0
  -29.2460  -20.4890   19.6170 C   0  0  0  0  0  2  0  0  0  0  0  0
  -30.9540  -19.0600   21.3940 C   0  0  0  0  0  2  0  0  0  0  0  0
  -31.6860  -19.2100   20.1000 C   0  0  0  0  0  2  0  0  0  0  0  0
  -30.1910  -18.9020   20.0800 C   0  0  2  0  0  0  0  0  0  0  0  0
  -30.6490  -15.8250   19.7760 C   0  0  0  0  0  0  0  0  0  0  0  0
  -30.6670  -13.2750   18.9930 C   0  0  0  0  0  2  0  0  0  0  0  0
  -29.7550  -12.9200   17.7840 C   0  0  0  0  0  2  0  0  0  0  0  0
  -28.3200  -12.5920   18.2530 C   0  0  0  0  0  2  0  0  0  0  0  0
  -27.8510  -13.5790   19.3520 C   0  0  0  0  0  3  0  0  0  0  0  0
  -28.9120  -13.9060   20.4280 C   0  0  0  0  0  2  0  0  0  0  0  0
  -30.0870  -14.4800   19.7330 N   0  0  0  0  0  0  0  0  0  0  0  0
  -31.8790  -15.7390   19.6020 O   0  0  0  0  0  0  0  0  0  0  0  0
  -29.9140  -17.1920   19.8330 N   0  0  0  0  0  0  0  0  0  0  0  0
  -28.9190  -17.0120   19.8190 H   0  0  0  0  0  0  0  0  0  0  0  0
  -25.5360  -14.1330   20.2390 C   0  0  0  0  0  0  0  0  0  0  0  0
  -24.4860  -13.3620   20.6600 C   0  0  0  0  0  0  0  0  0  0  0  0
  -24.9380  -12.0090   20.5930 C   0  0  0  0  0  0  0  0  0  0  0  0
  -26.5530  -13.2500   19.9300 N   0  0  0  0  0  0  0  0  0  0  0  0
  -26.2130  -11.9640   20.2150 N   0  0  0  0  0  0  0  0  0  0  0  0
  -24.2010  -10.7550   20.8180 C   0  0  0  0  0  0  0  0  0  0  0  0
  -24.6220   -9.8060   21.7750 C   0  0  0  0  0  3  0  0  0  0  0  0
  -23.8810   -8.6220   21.9850 C   0  0  0  0  0  3  0  0  0  0  0  0
  -22.7070   -8.3760   21.2370 C   0  0  0  0  0  0  0  0  0  0  0  0
  -22.3020   -9.3140   20.2700 C   0  0  0  0  0  3  0  0  0  0  0  0
  -23.0430  -10.4880   20.0590 C   0  0  0  0  0  3  0  0  0  0  0  0
  -21.9410   -7.2390   21.3530 O   0  0  0  0  0  0  0  0  0  0  0  0
  -21.8480   -6.5520   22.5360 C   0  0  0  0  0  0  0  0  0  0  0  0
  -21.3320   -7.1490   23.7050 C   0  0  0  0  0  3  0  0  0  0  0  0
  -21.1870   -6.3840   24.8810 C   0  0  0  0  0  3  0  0  0  0  0  0
  -21.5480   -5.0240   24.8880 C   0  0  0  0  0  0  0  0  0  0  0  0
  -22.0530   -4.4260   23.7210 C   0  0  0  0  0  3  0  0  0  0  0  0
  -22.1990   -5.1870   22.5480 C   0  0  0  0  0  0  0  0  0  0  0  0
  -22.6710   -4.5980   21.4210 F   0  0  0  0  0  0  0  0  0  0  0  0
  -21.4010   -4.2870   26.0150 F   0  0  0  0  0  0  0  0  0  0  0  0
  -23.1090  -13.8580   20.9900 C   0  0  0  0  0  0  0  0  0  0  0  0
  -22.4050  -13.1750   21.8890 N   0  0  0  0  0  0  0  0  0  0  0  0
  -22.6680  -14.8920   20.4900 O   0  0  0  0  0  0  0  0  0  0  0  0
  -22.7750  -12.3450   22.3240 H   0  0  0  0  0  0  0  0  0  0  0  0
  -21.4820  -13.4950   22.1420 H   0  0  0  0  0  0  0  0  0  0  0  0
  -25.6910  -15.5030   20.0600 N   0  0  0  0  0  0  0  0  0  0  0  0
  -24.9300  -16.1550   20.2210 H   0  0  0  0  0  0  0  0  0  0  0  0
  -26.4960  -15.9420   19.6320 H   0  0  0  0  0  0  0  0  0  0  0  0
  -28.2280  -21.9930   21.5280 C   0  0  0  0  0  2  0  0  0  0  0  0
  -27.6990  -23.1190   22.3270 N   0  0  0  0  0  4  0  0  0  0  0  0
  -28.4380  -23.6870   22.6950 H   0  0  0  0  0  0  0  0  0  0  0  0
  -27.1820  -22.7560   23.1130 H   0  0  0  0  0  0  0  0  0  0  0  0
  -27.0580  -23.6770   21.7960 H   0  0  0  0  0  0  0  0  0  0  0  0
  -28.4520  -24.0220   19.5650 C   0  0  0  0  0  2  0  0  0  0  0  0
  -28.4280  -25.7330   19.9670 O   0  0  0  0  0  0  0  0  0  0  0  0
  -24.6380  -31.7120   23.0140 C   0  0  0  0  0  0  0  0  0  0  0  0
  -27.4140  -26.8990   19.8630 C   0  0  0  0  0  0  0  0  0  0  0  0
  -23.5310  -30.3370   21.2980 C   0  0  0  0  0  3  0  0  0  0  0  0
  -25.0660  -28.8260   19.8240 C   0  0  0  0  0  0  0  0  0  0  0  0
  -26.1040  -30.6150   21.2100 C   0  0  0  0  0  2  0  0  0  0  0  0
  -26.2320  -29.2120   20.4990 C   0  0  0  0  0  0  0  0  0  0  0  0
  -27.3890  -28.2760   20.4870 C   0  0  0  0  0  3  0  0  0  0  0  0
  -26.2220  -26.7270   19.1170 C   0  0  0  0  0  3  0  0  0  0  0  0
  -25.1040  -27.6150   19.1070 C   0  0  0  0  0  3  0  0  0  0  0  0
  -23.8140  -29.7160   19.8970 C   0  0  0  0  0  2  0  0  0  0  0  0
  -24.7820  -30.9170   21.8940 N   0  0  0  0  0  0  0  0  0  0  0  0
  -23.5280  -31.9370   23.5180 O   0  0  0  0  0  0  0  0  0  0  0  0
  -22.8430  -29.2870   22.2140 C   0  0  0  0  0  0  0  0  0  0  0  0
  -21.5110  -29.1230   22.1040 N   0  0  0  0  0  0  0  0  0  0  0  0
  -23.5300  -28.6090   22.9860 O   0  0  0  0  0  0  0  0  0  0  0  0
  -21.0050  -29.7280   21.4690 H   0  0  0  0  0  0  0  0  0  0  0  0
  -18.1440  -27.8690   22.6500 C   0  0  0  0  0  0  0  0  0  0  0  0
  -20.7160  -28.1120   22.8160 C   0  0  0  0  0  3  0  0  0  0  0  0
  -20.7810  -26.7350   22.1140 C   0  0  0  0  0  2  0  0  0  0  0  0
  -19.6340  -26.5080   21.1230 C   0  0  0  0  0  2  0  0  0  0  0  0
  -18.2850  -26.5880   21.8440 C   0  0  0  0  0  2  0  0  0  0  0  0
  -19.2860  -28.5910   23.0960 C   0  0  0  0  0  0  0  0  0  0  0  0
  -19.0960  -29.7880   23.8180 C   0  0  0  0  0  3  0  0  0  0  0  0
  -17.7990  -30.2660   24.0910 C   0  0  0  0  0  3  0  0  0  0  0  0
  -16.6780  -29.5430   23.6580 C   0  0  0  0  0  3  0  0  0  0  0  0
  -16.8490  -28.3450   22.9410 C   0  0  0  0  0  3  0  0  0  0  0  0
  -25.8630  -32.3860   23.7100 C   0  0  0  0  0  3  0  0  0  0  0  0
  -25.4800  -33.7650   24.0740 N   0  0  0  0  0  0  0  0  0  0  0  0
  -25.7660  -34.8620   23.3570 C   0  0  0  0  0  0  0  0  0  0  0  0
  -26.4420  -34.8230   22.3270 O   0  0  0  0  0  0  0  0  0  0  0  0
  -24.8790  -33.8640   24.8790 H   0  0  0  0  0  0  0  0  0  0  0  0
  -23.9570  -36.5960   23.0940 C   0  0  0  0  0  1  0  0  0  0  0  0
  -25.2310  -36.2180   23.8660 C   0  0  0  0  0  3  0  0  0  0  0  0
  -27.3370  -37.1840   24.6900 C   0  0  0  0  0  1  0  0  0  0  0  0
  -26.2170  -37.3170   23.7610 N   0  0  0  0  0  0  0  0  0  0  0  0
  -25.7750  -38.2180   23.9250 H   0  0  0  0  0  0  0  0  0  0  0  0
  -26.3440  -31.6090   24.9950 C   0  0  1  0  0  0  0  0  0  0  0  0
  -25.2150  -31.3200   26.0150 C   0  0  0  0  0  1  0  0  0  0  0  0
  -26.9820  -30.2570   24.6070 C   0  0  0  0  0  1  0  0  0  0  0  0
  -27.4490  -32.4260   25.7080 C   0  0  0  0  0  1  0  0  0  0  0  0
  2  1  1  1
  2 45  1  0
  6  3  1  6
  3  2  1  0
  5  4  1  0
  6  5  1  0
  6  4  1  0
  7 15  1  0
  8 13  1  0
  9 10  1  0
  9  8  1  0
 11 10  1  0
 11 20  1  0
 11 12  1  0
 13  7  1  0
 13 12  1  0
 14  7  2  0
 15  6  1  0
 16 15  1  0
 17 18  2  0
 18 37  1  0
 19 18  1  0
 19 22  1  0
 20 21  1  0
 20 17  1  0
 21 19  2  0
 22 23  1  0
 23 24  2  0
 25 28  1  0
 25 24  1  0
 26 25  2  0
 27 26  1  0
 27 22  2  0
 28 29  1  0
 29 34  2  0
 29 30  1  0
 30 31  2  0
 31 32  1  0
 32 36  1  0
 33 32  2  0
 34 33  1  0
 35 34  1  0
 37 38  1  0
 38 41  1  0
 38 40  1  0
 39 37  2  0
 42 43  1  0
 42 17  1  0
 44 42  1  0
 45 46  1  0
 46 47  1  0
 46 48  1  0
 49 46  1  0
 50 51  1  0
 50  2  1  0
 52 63  2  0
 53 51  1  0
 53 58  1  0
 54 62  1  0
 54 64  1  0
 55 61  1  0
 55 57  1  0
 56 62  1  0
 57 56  1  0
 58 57  2  0
 59 53  2  0
 60 59  1  0
 60 55  2  0
 61 54  1  0
 62 52  1  0
 64 66  2  0
 65 64  1  0
 67 65  1  0
 68 77  2  0
 68 73  1  0
 69 65  1  0
 69 73  1  0
 70 69  1  0
 71 72  1  0
 71 70  1  0
 72 68  1  0
 73 74  2  0
 74 75  1  0
 76 75  2  0
 77 76  1  0
 78 52  1  0
 78 79  1  0
 78 88  1  0
 79 82  1  0
 80 84  1  0
 80 79  1  0
 81 80  2  0
 84 83  1  0
 86 84  1  0
 86 87  1  0
 86 85  1  0
 88 91  1  1
 88 89  1  0
 90 88  1  0
M  ISO  4   7 100  15 100  50 101  51 101
M  END
>  <TORSDO>  (4) 
F 21

>  <SCORE>  (4) 
-15.315

>  <name>  (4) 
3

>  <ligand_id>  (4) 
3

>  <original_smiles>  (4) 
[H]c1c([H])c([H])c2c(c1[H])C([H])([H])C([H])([H])C([H])([H])C2([H])N([H])C(=O)C1([H])N(C(=O)C([H])(N([H])C(=O)C([H])(N([H])C([H])([H])[H])C([H])([H])[H])C(C([H])([H])[H])(C([H])([H])[H])C([H])([H])[H])C([H])([H])c2c([H])c(OC([H])([H])C(C([H])([H])[H])(C([H])([H])C3(N([H])C(=O)N4C([H])([H])C([H])([H])C([H])([H])C([H])(n5nc(-c6c([H])c([H])c(Oc7c([H])c([H])c(F)c([H])c7F)c([H])c6[H])c(C(=O)N([H])[H])c5N([H])[H])C4([H])[H])C([H])([H])C3([H])[H])C([H])([H])[N+]([H])([H])[H])c([H])c([H])c2C1([H])[H]

>  <smiles>  (4) 
[H]c1c([H])c([H])c2c(c1[H])C([H])([H])C([H])([H])C([H])([H])C2([H])N([H])C(=O)C1([H])N(C(=O)C([H])(N([H])C(=O)C([H])(N([H])C([H])([H])[H])C([H])([H])[H])C(C([H])([H])[H])(C([H])([H])[H])C([H])([H])[H])C([H])([H])c2c([H])c(OC([H])([H])C(C([H])([H])[H])(C([H])([H])C3(N([H])C(=O)N4C([H])([H])C([H])([H])C([H])([H])C([H])(n5nc(-c6c([H])c([H])c(Oc7c([H])c([H])c(F)c([H])c7F)c([H])c6[H])c(C(=O)N([H])[H])c5N([H])[H])C4([H])[H])C([H])([H])C3([H])[H])C([H])([H])[N+]([H])([H])[H])c([H])c([H])c2C1([H])[H]

$$$$
4:0:0
     RDKit          3D

 91 99  0  0  1  0  0  0  0  0999 V2000
  -29.1120  -23.5010   21.6770 C   0  0  0  0  0  0  0  0  0  0  0  0
  -28.3740  -23.5100   23.0120 C   0  0  0  0  0  1  0  0  0  0  0  0
  -29.4790  -22.4440   21.0650 N   0  0  0  0  0  0  0  0  0  0  0  0
  -29.4030  -24.8810   21.0970 C   0  0  0  0  0  2  0  0  0  0  0  0
  -28.3140  -25.3820   20.1430 C   0  0  0  0  0  2  0  0  0  0  0  0
  -28.4260  -26.8080   20.0570 O   0  0  0  0  0  0  0  0  0  0  0  0
  -24.6010  -31.8970   23.2100 C   0  0  0  0  0  0  0  0  0  0  0  0
  -27.2460  -27.5140   20.0650 C   0  0  0  0  0  0  0  0  0  0  0  0
  -23.3840  -30.5060   21.5630 C   0  0  0  0  0  3  0  0  0  0  0  0
  -24.8380  -28.9930   20.1150 C   0  0  0  0  0  0  0  0  0  0  0  0
  -25.9100  -30.8860   21.3510 C   0  0  0  0  0  2  0  0  0  0  0  0
  -25.9970  -29.5210   20.7000 C   0  0  0  0  0  0  0  0  0  0  0  0
  -27.2030  -28.7880   20.6740 C   0  0  0  0  0  3  0  0  0  0  0  0
  -26.0740  -27.0000   19.4690 C   0  0  0  0  0  3  0  0  0  0  0  0
  -24.8720  -27.7300   19.5000 C   0  0  0  0  0  3  0  0  0  0  0  0
  -23.5860  -29.8420   20.1760 C   0  0  0  0  0  2  0  0  0  0  0  0
  -24.6500  -31.1100   22.0980 N   0  0  0  0  0  0  0  0  0  0  0  0
  -23.5220  -32.1570   23.7600 O   0  0  0  0  0  0  0  0  0  0  0  0
  -22.7500  -29.4690   22.5180 C   0  0  0  0  0  0  0  0  0  0  0  0
  -21.4240  -29.2750   22.4050 N   0  0  0  0  0  0  0  0  0  0  0  0
  -23.4470  -28.8390   23.3180 O   0  0  0  0  0  0  0  0  0  0  0  0
  -20.9190  -29.8310   21.7290 H   0  0  0  0  0  0  0  0  0  0  0  0
  -18.0600  -28.0700   22.9340 C   0  0  0  0  0  0  0  0  0  0  0  0
  -20.6230  -28.3230   23.1730 C   0  0  0  0  0  3  0  0  0  0  0  0
  -20.7180  -26.8980   22.5760 C   0  0  0  0  0  2  0  0  0  0  0  0
  -19.5960  -26.5830   21.5790 C   0  0  0  0  0  2  0  0  0  0  0  0
  -18.2250  -26.7290   22.2410 C   0  0  0  0  0  2  0  0  0  0  0  0
  -19.1870  -28.8260   23.3580 C   0  0  0  0  0  0  0  0  0  0  0  0
  -18.9760  -30.0860   23.9590 C   0  0  0  0  0  3  0  0  0  0  0  0
  -17.6740  -30.5910   24.1380 C   0  0  0  0  0  3  0  0  0  0  0  0
  -16.5630  -29.8300   23.7380 C   0  0  0  0  0  3  0  0  0  0  0  0
  -16.7570  -28.5700   23.1450 C   0  0  0  0  0  3  0  0  0  0  0  0
  -25.8870  -32.5320   23.8240 C   0  0  0  0  0  3  0  0  0  0  0  0
  -25.5730  -33.9250   24.1660 N   0  0  0  0  0  0  0  0  0  0  0  0
  -25.8970  -34.9840   23.4120 C   0  0  0  0  0  0  0  0  0  0  0  0
  -26.5640  -34.8900   22.3770 O   0  0  0  0  0  0  0  0  0  0  0  0
  -24.9810  -34.0740   24.9710 H   0  0  0  0  0  0  0  0  0  0  0  0
  -24.1560  -36.7660   23.0690 C   0  0  0  0  0  1  0  0  0  0  0  0
  -25.3990  -36.3650   23.8790 C   0  0  0  0  0  3  0  0  0  0  0  0
  -27.5310  -37.2550   24.7100 C   0  0  0  0  0  1  0  0  0  0  0  0
  -26.4260  -37.4250   23.7700 N   0  0  0  0  0  0  0  0  0  0  0  0
  -26.0140  -38.3420   23.9200 H   0  0  0  0  0  0  0  0  0  0  0  0
  -26.4210  -31.7520   25.0880 C   0  0  1  0  0  0  0  0  0  0  0  0
  -25.3390  -31.4960   26.1630 C   0  0  0  0  0  1  0  0  0  0  0  0
  -27.0110  -30.3830   24.6770 C   0  0  0  0  0  1  0  0  0  0  0  0
  -27.5720  -32.5470   25.7470 C   0  0  0  0  0  1  0  0  0  0  0  0
  -29.2600  -21.1390   21.6710 C   0  0  0  0  0  2  0  0  0  0  0  0
  -29.4590  -20.0520   20.6160 C   0  0  0  0  0  2  0  0  0  0  0  0
  -29.3340  -18.6340   21.2130 C   0  0  0  0  0  2  0  0  0  0  0  0
  -29.2460  -17.5150   18.8180 C   0  0  0  0  0  2  0  0  0  0  0  0
  -30.7030  -17.6470   19.1570 C   0  0  0  0  0  2  0  0  0  0  0  0
  -29.6780  -17.4740   20.2760 C   0  0  1  0  0  0  0  0  0  0  0  0
  -29.4950  -16.1470   21.0230 C   0  0  0  0  0  2  0  0  0  0  0  0
  -31.0460  -14.3730   20.2300 C   0  0  0  0  0  0  0  0  0  0  0  0
  -30.6220  -12.2500   19.0610 C   0  0  0  0  0  2  0  0  0  0  0  0
  -29.6730  -12.4430   17.8660 C   0  0  0  0  0  2  0  0  0  0  0  0
  -28.2030  -12.3370   18.3160 C   0  0  0  0  0  2  0  0  0  0  0  0
  -27.9000  -13.2080   19.5610 C   0  0  0  0  0  3  0  0  0  0  0  0
  -28.9620  -12.9890   20.6620 C   0  0  0  0  0  2  0  0  0  0  0  0
  -30.2860  -13.2550   20.0780 N   0  0  0  0  0  0  0  0  0  0  0  0
  -32.1210  -14.5350   19.6520 O   0  0  0  0  0  0  0  0  0  0  0  0
  -30.6650  -15.2730   21.1410 N   0  0  0  0  0  0  0  0  0  0  0  0
  -31.4610  -15.7820   21.4950 H   0  0  0  0  0  0  0  0  0  0  0  0
  -25.5260  -13.8960   20.2900 C   0  0  0  0  0  0  0  0  0  0  0  0
  -24.4470  -13.1550   20.6920 C   0  0  0  0  0  0  0  0  0  0  0  0
  -24.8820  -11.7940   20.6880 C   0  0  0  0  0  0  0  0  0  0  0  0
  -26.5470  -12.9840   20.0660 N   0  0  0  0  0  0  0  0  0  0  0  0
  -26.1640  -11.7170   20.3610 N   0  0  0  0  0  0  0  0  0  0  0  0
  -24.1340  -10.5500   20.9130 C   0  0  0  0  0  0  0  0  0  0  0  0
  -24.5420   -9.6070   21.8840 C   0  0  0  0  0  3  0  0  0  0  0  0
  -23.7970   -8.4270   22.0940 C   0  0  0  0  0  3  0  0  0  0  0  0
  -22.6300   -8.1820   21.3320 C   0  0  0  0  0  0  0  0  0  0  0  0
  -22.2400   -9.1110   20.3520 C   0  0  0  0  0  3  0  0  0  0  0  0
  -22.9860  -10.2830   20.1420 C   0  0  0  0  0  3  0  0  0  0  0  0
  -21.8590   -7.0520   21.4500 O   0  0  0  0  0  0  0  0  0  0  0  0
  -21.7590   -6.3690   22.6350 C   0  0  0  0  0  0  0  0  0  0  0  0
  -21.3120   -6.9930   23.8200 C   0  0  0  0  0  3  0  0  0  0  0  0
  -21.1620   -6.2380   25.0000 C   0  0  0  0  0  3  0  0  0  0  0  0
  -21.4510   -4.8600   24.9960 C   0  0  0  0  0  0  0  0  0  0  0  0
  -21.8870   -4.2360   23.8130 C   0  0  0  0  0  3  0  0  0  0  0  0
  -22.0400   -4.9890   22.6360 C   0  0  0  0  0  0  0  0  0  0  0  0
  -22.4460   -4.3790   21.4960 F   0  0  0  0  0  0  0  0  0  0  0  0
  -21.2960   -4.1300   26.1260 F   0  0  0  0  0  0  0  0  0  0  0  0
  -23.0640  -13.6700   20.9690 C   0  0  0  0  0  0  0  0  0  0  0  0
  -22.3360  -13.0090   21.8620 N   0  0  0  0  0  0  0  0  0  0  0  0
  -22.6410  -14.6900   20.4290 O   0  0  0  0  0  0  0  0  0  0  0  0
  -22.6900  -12.1850   22.3200 H   0  0  0  0  0  0  0  0  0  0  0  0
  -21.4090  -13.3360   22.0940 H   0  0  0  0  0  0  0  0  0  0  0  0
  -25.7130  -15.2540   20.0730 N   0  0  0  0  0  0  0  0  0  0  0  0
  -24.9420  -15.9100   20.1390 H   0  0  0  0  0  0  0  0  0  0  0  0
  -26.5590  -15.6650   19.6990 H   0  0  0  0  0  0  0  0  0  0  0  0
  1  2  1  0
  3 47  1  0
  3  1  2  0
  4  1  1  0
  5  4  1  0
  6  8  1  0
  6  5  1  0
  7 18  2  0
  8 13  1  0
  9 17  1  0
  9 19  1  0
 10 16  1  0
 10 12  1  0
 11 17  1  0
 12 11  1  0
 13 12  2  0
 14 15  1  0
 14  8  2  0
 15 10  2  0
 16  9  1  0
 17  7  1  0
 19 21  2  0
 20 19  1  0
 22 20  1  0
 23 32  2  0
 23 28  1  0
 24 20  1  0
 24 28  1  0
 25 24  1  0
 26 27  1  0
 26 25  1  0
 27 23  1  0
 28 29  2  0
 29 30  1  0
 31 30  2  0
 32 31  1  0
 33  7  1  0
 33 34  1  0
 33 43  1  0
 34 37  1  0
 35 39  1  0
 35 34  1  0
 36 35  2  0
 39 38  1  0
 41 39  1  0
 41 42  1  0
 41 40  1  0
 43 46  1  1
 43 44  1  0
 45 43  1  0
 48 49  1  0
 48 47  1  0
 50 51  1  0
 50 52  1  0
 51 52  1  0
 52 53  1  1
 52 49  1  0
 53 62  1  0
 54 62  1  0
 55 60  1  0
 56 57  1  0
 56 55  1  0
 58 57  1  0
 58 67  1  0
 58 59  1  0
 60 54  1  0
 60 59  1  0
 61 54  2  0
 62 63  1  0
 64 65  2  0
 65 84  1  0
 66 65  1  0
 66 69  1  0
 67 64  1  0
 67 68  1  0
 68 66  2  0
 69 70  1  0
 70 71  2  0
 72 75  1  0
 72 71  1  0
 73 72  2  0
 74 73  1  0
 74 69  2  0
 75 76  1  0
 76 81  2  0
 76 77  1  0
 77 78  2  0
 79 78  1  0
 79 83  1  0
 80 79  2  0
 81 80  1  0
 82 81  1  0
 84 85  1  0
 85 88  1  0
 85 87  1  0
 86 84  2  0
 89 90  1  0
 89 64  1  0
 91 89  1  0
M  ISO  4   5 101   6 101  54 100  62 100
M  END
>  <TORSDO>  (5) 
F 23

>  <SCORE>  (5) 
-11.906

>  <name>  (5) 
4

>  <ligand_id>  (5) 
4

>  <original_smiles>  (5) 
[H]c1c([H])c([H])c2c(c1[H])C([H])([H])C([H])([H])C([H])([H])C2([H])N([H])C(=O)C1([H])N(C(=O)C([H])(N([H])C(=O)C([H])(N([H])C([H])([H])[H])C([H])([H])[H])C(C([H])([H])[H])(C([H])([H])[H])C([H])([H])[H])C([H])([H])c2c([H])c(OC([H])([H])C([H])([H])C(=NC([H])([H])C([H])([H])C([H])([H])C3(C([H])([H])N([H])C(=O)N4C([H])([H])C([H])([H])C([H])([H])C([H])(n5nc(-c6c([H])c([H])c(Oc7c([H])c([H])c(F)c([H])c7F)c([H])c6[H])c(C(=O)N([H])[H])c5N([H])[H])C4([H])[H])C([H])([H])C3([H])[H])C([H])([H])[H])c([H])c([H])c2C1([H])[H]

>  <smiles>  (5) 
[H]c1c([H])c([H])c2c(c1[H])C([H])([H])C([H])([H])C([H])([H])C2([H])N([H])C(=O)C1([H])N(C(=O)C([H])(N([H])C(=O)C([H])(N([H])C([H])([H])[H])C([H])([H])[H])C(C([H])([H])[H])(C([H])([H])[H])C([H])([H])[H])C([H])([H])c2c([H])c(OC([H])([H])C([H])([H])C(=NC([H])([H])C([H])([H])C([H])([H])C3(C([H])([H])N([H])C(=O)N4C([H])([H])C([H])([H])C([H])([H])C([H])(n5nc(-c6c([H])c([H])c(Oc7c([H])c([H])c(F)c([H])c7F)c([H])c6[H])c(C(=O)N([H])[H])c5N([H])[H])C4([H])[H])C([H])([H])C3([H])[H])C([H])([H])[H])c([H])c([H])c2C1([H])[H]

$$$$
5:0:0
     RDKit          3D

 92100  0  0  1  0  0  0  0  0999 V2000
  -29.9840  -21.2900   20.0610 C   0  0  0  0  0  2  0  0  0  0  0  0
  -31.2980  -19.3550   21.2710 C   0  0  0  0  0  2  0  0  0  0  0  0
  -31.4240  -17.8080   21.1790 C   0  0  0  0  0  2  0  0  0  0  0  0
  -29.8850  -19.8370   20.8010 C   0  0  0  0  0  3  0  0  0  0  0  0
  -30.0070  -17.2980   20.9520 C   0  0  0  0  0  3  0  0  0  0  0  0
  -29.3500  -18.4900   20.1120 C   0  0  1  0  0  0  0  0  0  0  0  0
  -27.8250  -18.3430   20.1950 C   0  0  0  0  0  1  0  0  0  0  0  0
  -29.7720  -18.4650   18.6280 C   0  0  0  0  0  1  0  0  0  0  0  0
  -30.5960  -14.7320   20.4110 C   0  0  0  0  0  0  0  0  0  0  0  0
  -30.4180  -12.4620   19.3910 C   0  0  0  0  0  2  0  0  0  0  0  0
  -29.4790  -12.5270   18.1680 C   0  0  0  0  0  2  0  0  0  0  0  0
  -28.0070  -12.3520   18.6000 C   0  0  0  0  0  2  0  0  0  0  0  0
  -27.6250  -13.2500   19.8100 C   0  0  0  0  0  3  0  0  0  0  0  0
  -28.6800  -13.1580   20.9330 C   0  0  0  0  0  2  0  0  0  0  0  0
  -29.9780  -13.5080   20.3370 N   0  0  0  0  0  0  0  0  0  0  0  0
  -31.7890  -14.8500   20.1260 O   0  0  0  0  0  0  0  0  0  0  0  0
  -29.7840  -15.8260   20.6210 N   0  0  0  0  0  0  0  0  0  0  0  0
  -28.8200  -15.5480   20.7310 H   0  0  0  0  0  0  0  0  0  0  0  0
  -25.2290  -13.8450   20.5210 C   0  0  0  0  0  0  0  0  0  0  0  0
  -24.1610  -13.0670   20.8880 C   0  0  0  0  0  0  0  0  0  0  0  0
  -24.6310  -11.7210   20.8710 C   0  0  0  0  0  0  0  0  0  0  0  0
  -26.2780  -12.9660   20.2960 N   0  0  0  0  0  0  0  0  0  0  0  0
  -25.9220  -11.6850   20.5680 N   0  0  0  0  0  0  0  0  0  0  0  0
  -23.9090  -10.4550   21.0590 C   0  0  0  0  0  0  0  0  0  0  0  0
  -24.3390   -9.4860   21.9920 C   0  0  0  0  0  3  0  0  0  0  0  0
  -23.6120   -8.2900   22.1670 C   0  0  0  0  0  3  0  0  0  0  0  0
  -22.4400   -8.0530   21.4100 C   0  0  0  0  0  0  0  0  0  0  0  0
  -22.0300   -9.0120   20.4660 C   0  0  0  0  0  3  0  0  0  0  0  0
  -22.7590  -10.2000   20.2870 C   0  0  0  0  0  3  0  0  0  0  0  0
  -21.6840   -6.9090   21.4990 O   0  0  0  0  0  0  0  0  0  0  0  0
  -21.6410   -6.1600   22.6480 C   0  0  0  0  0  0  0  0  0  0  0  0
  -21.2190   -6.7070   23.8790 C   0  0  0  0  0  3  0  0  0  0  0  0
  -21.1230   -5.8840   25.0190 C   0  0  0  0  0  3  0  0  0  0  0  0
  -21.4360   -4.5160   24.9300 C   0  0  0  0  0  0  0  0  0  0  0  0
  -21.8530   -3.9680   23.7040 C   0  0  0  0  0  3  0  0  0  0  0  0
  -21.9510   -4.7870   22.5650 C   0  0  0  0  0  0  0  0  0  0  0  0
  -22.3310   -4.2470   21.3820 F   0  0  0  0  0  0  0  0  0  0  0  0
  -21.3400   -3.7250   26.0250 F   0  0  0  0  0  0  0  0  0  0  0  0
  -22.7600  -13.5420   21.1440 C   0  0  0  0  0  0  0  0  0  0  0  0
  -22.0220  -12.8480   22.0060 N   0  0  0  0  0  0  0  0  0  0  0  0
  -22.3280  -14.5650   20.6190 O   0  0  0  0  0  0  0  0  0  0  0  0
  -22.3860  -12.0210   22.4570 H   0  0  0  0  0  0  0  0  0  0  0  0
  -21.0800  -13.1500   22.2140 H   0  0  0  0  0  0  0  0  0  0  0  0
  -25.3790  -15.2140   20.3340 N   0  0  0  0  0  0  0  0  0  0  0  0
  -24.5950  -15.8490   20.4300 H   0  0  0  0  0  0  0  0  0  0  0  0
  -26.2080  -15.6710   19.9810 H   0  0  0  0  0  0  0  0  0  0  0  0
  -27.9270  -22.0700   18.8970 C   0  0  0  0  0  1  0  0  0  0  0  0
  -28.8240  -22.3030   20.0570 N   0  0  2  0  0  4  0  0  0  0  0  0
  -28.2760  -22.0990   20.8780 H   0  0  0  0  0  0  0  0  0  0  0  0
  -29.2040  -23.8030   20.1700 C   0  0  0  0  0  3  0  0  0  0  0  0
  -28.0620  -24.9290   19.9440 C   0  0  0  0  0  3  0  0  0  0  0  0
  -28.2930  -26.3970   20.1640 O   0  0  0  0  0  0  0  0  0  0  0  0
  -24.6090  -31.8630   23.2250 C   0  0  0  0  0  0  0  0  0  0  0  0
  -27.1800  -27.2740   20.1280 C   0  0  0  0  0  0  0  0  0  0  0  0
  -23.3900  -30.4750   21.5900 C   0  0  0  0  0  3  0  0  0  0  0  0
  -24.8240  -28.9270   20.1430 C   0  0  0  0  0  0  0  0  0  0  0  0
  -25.9340  -30.7740   21.3950 C   0  0  0  0  0  2  0  0  0  0  0  0
  -26.0020  -29.3970   20.7350 C   0  0  0  0  0  0  0  0  0  0  0  0
  -27.1830  -28.5840   20.7190 C   0  0  0  0  0  3  0  0  0  0  0  0
  -25.9690  -26.8680   19.5190 C   0  0  0  0  0  3  0  0  0  0  0  0
  -24.8110  -27.6720   19.5250 C   0  0  0  0  0  3  0  0  0  0  0  0
  -23.5880  -29.8070   20.2060 C   0  0  0  0  0  2  0  0  0  0  0  0
  -24.6640  -31.0540   22.1260 N   0  0  0  0  0  0  0  0  0  0  0  0
  -23.5300  -32.1430   23.7680 O   0  0  0  0  0  0  0  0  0  0  0  0
  -22.7300  -29.4570   22.5510 C   0  0  0  0  0  0  0  0  0  0  0  0
  -21.4040  -29.2780   22.4280 N   0  0  0  0  0  0  0  0  0  0  0  0
  -23.4110  -28.8280   23.3620 O   0  0  0  0  0  0  0  0  0  0  0  0
  -20.9100  -29.8270   21.7380 H   0  0  0  0  0  0  0  0  0  0  0  0
  -18.0290  -28.0870   22.9500 C   0  0  0  0  0  0  0  0  0  0  0  0
  -20.5900  -28.3430   23.2070 C   0  0  0  0  0  3  0  0  0  0  0  0
  -20.6870  -26.9120   22.6290 C   0  0  0  0  0  2  0  0  0  0  0  0
  -19.5790  -26.5920   21.6200 C   0  0  0  0  0  2  0  0  0  0  0  0
  -18.2000  -26.7380   22.2720 C   0  0  0  0  0  2  0  0  0  0  0  0
  -19.1500  -28.8480   23.3750 C   0  0  0  0  0  0  0  0  0  0  0  0
  -18.9370  -30.1120   23.9680 C   0  0  0  0  0  3  0  0  0  0  0  0
  -17.6330  -30.6110   24.1440 C   0  0  0  0  0  3  0  0  0  0  0  0
  -16.5260  -29.8470   23.7370 C   0  0  0  0  0  3  0  0  0  0  0  0
  -16.7250  -28.5880   23.1430 C   0  0  0  0  0  3  0  0  0  0  0  0
  -25.8980  -32.4920   23.8350 C   0  0  0  0  0  3  0  0  0  0  0  0
  -26.4210  -31.7190   25.1080 C   0  0  1  0  0  0  0  0  0  0  0  0
  -25.3340  -31.4840   26.1810 C   0  0  0  0  0  1  0  0  0  0  0  0
  -27.0000  -30.3400   24.7180 C   0  0  0  0  0  1  0  0  0  0  0  0
  -27.5760  -32.5120   25.7650 C   0  0  0  0  0  1  0  0  0  0  0  0
  -25.5930  -33.8890   24.1720 N   0  0  0  0  0  0  0  0  0  0  0  0
  -25.9130  -34.9460   23.4120 C   0  0  0  0  0  0  0  0  0  0  0  0
  -26.5700  -34.8470   22.3720 O   0  0  0  0  0  0  0  0  0  0  0  0
  -25.0040  -34.0420   24.9770 H   0  0  0  0  0  0  0  0  0  0  0  0
  -24.1800  -36.7420   23.0870 C   0  0  0  0  0  1  0  0  0  0  0  0
  -25.4310  -36.3320   23.8800 C   0  0  0  0  0  3  0  0  0  0  0  0
  -27.5730  -37.2180   24.6900 C   0  0  0  0  0  1  0  0  0  0  0  0
  -26.4620  -37.3870   23.7590 N   0  0  0  0  0  0  0  0  0  0  0  0
  -26.0550  -38.3060   23.9140 H   0  0  0  0  0  0  0  0  0  0  0  0
  3  2  1  0
  4  1  1  0
  4  2  1  0
  5 17  1  0
  5  3  1  0
  6  7  1  6
  6  4  1  0
  6  5  1  0
  8  6  1  0
  9 17  1  0
 10 15  1  0
 11 12  1  0
 11 10  1  0
 13 12  1  0
 13 22  1  0
 13 14  1  0
 15  9  1  0
 15 14  1  0
 16  9  2  0
 17 18  1  0
 19 20  2  0
 20 39  1  0
 21 20  1  0
 21 24  1  0
 22 19  1  0
 22 23  1  0
 23 21  2  0
 24 25  1  0
 25 26  2  0
 27 30  1  0
 27 26  1  0
 28 27  2  0
 29 28  1  0
 29 24  2  0
 30 31  1  0
 31 32  1  0
 32 33  2  0
 34 33  1  0
 34 38  1  0
 35 34  2  0
 36 31  2  0
 36 35  1  0
 37 36  1  0
 39 40  1  0
 40 43  1  0
 40 42  1  0
 41 39  2  0
 44 45  1  0
 44 19  1  0
 46 44  1  0
 47 48  1  0
 48  1  1  0
 48 50  1  0
 48 49  1  1
 51 52  1  0
 51 50  2  0
 53 64  2  0
 54 52  1  0
 54 59  1  0
 55 63  1  0
 55 65  1  0
 56 62  1  0
 56 58  1  0
 57 63  1  0
 58 57  1  0
 59 58  2  0
 60 61  1  0
 60 54  2  0
 61 56  2  0
 62 55  1  0
 63 53  1  0
 65 67  2  0
 66 65  1  0
 68 66  1  0
 69 78  2  0
 69 74  1  0
 70 66  1  0
 70 74  1  0
 71 70  1  0
 72 73  1  0
 72 71  1  0
 73 69  1  0
 74 75  2  0
 75 76  1  0
 77 76  2  0
 78 77  1  0
 79 53  1  0
 79 84  1  0
 79 80  1  0
 80 83  1  1
 80 81  1  0
 82 80  1  0
 84 87  1  0
 85 89  1  0
 85 84  1  0
 86 85  2  0
 89 88  1  0
 91 89  1  0
 91 92  1  0
 91 90  1  0
M  ISO  4   9 100  17 100  51 101  52 101
M  END
>  <TORSDO>  (6) 
F 20

>  <SCORE>  (6) 
-14.166

>  <name>  (6) 
5

>  <ligand_id>  (6) 
5

>  <original_smiles>  (6) 
[H]c1c([H])c([H])c2c(c1[H])C([H])([H])C([H])([H])C([H])([H])C2([H])N([H])C(=O)C1([H])N(C(=O)C([H])(N([H])C(=O)C([H])(N([H])C([H])([H])[H])C([H])([H])[H])C(C([H])([H])[H])(C([H])([H])[H])C([H])([H])[H])C([H])([H])c2c([H])c(OC([H])([H])C([H])([H])[N+]([H])(C([H])([H])[H])C([H])([H])C3([H])C([H])([H])C([H])([H])C([H])(N([H])C(=O)N4C([H])([H])C([H])([H])C([H])([H])C([H])(n5nc(-c6c([H])c([H])c(Oc7c([H])c([H])c(F)c([H])c7F)c([H])c6[H])c(C(=O)N([H])[H])c5N([H])[H])C4([H])[H])C3(C([H])([H])[H])C([H])([H])[H])c([H])c([H])c2C1([H])[H]

>  <smiles>  (6) 
[H]c1c([H])c([H])c2c(c1[H])C([H])([H])C([H])([H])C([H])([H])C2([H])N([H])C(=O)C1([H])N(C(=O)C([H])(N([H])C(=O)C([H])(N([H])C([H])([H])[H])C([H])([H])[H])C(C([H])([H])[H])(C([H])([H])[H])C([H])([H])[H])C([H])([H])c2c([H])c(OC([H])([H])C([H])([H])[N+]([H])(C([H])([H])[H])C([H])([H])C3([H])C([H])([H])C([H])([H])C([H])(N([H])C(=O)N4C([H])([H])C([H])([H])C([H])([H])C([H])(n5nc(-c6c([H])c([H])c(Oc7c([H])c([H])c(F)c([H])c7F)c([H])c6[H])c(C(=O)N([H])[H])c5N([H])[H])C4([H])[H])C3(C([H])([H])[H])C([H])([H])[H])c([H])c([H])c2C1([H])[H]

$$$$
6:0:0
     RDKit          3D

 91101  0  0  1  0  0  0  0  0999 V2000
  -29.0380  -22.1830   19.3600 C   0  0  0  0  0  0  0  0  0  0  0  0
  -29.5860  -21.8440   17.9820 C   0  0  0  0  0  1  0  0  0  0  0  0
  -28.5000  -21.3360   20.1620 N   0  0  0  0  0  0  0  0  0  0  0  0
  -30.3540  -24.2850   20.3100 C   0  0  0  0  0  2  0  0  0  0  0  0
  -29.1310  -23.6840   19.6650 C   0  0  0  0  0  3  0  0  0  0  0  0
  -29.0340  -24.3180   21.0480 C   0  0  0  0  0  3  0  0  0  0  0  0
  -28.3180  -25.6460   21.3070 C   0  0  0  0  0  2  0  0  0  0  0  0
  -28.4180  -26.6480   20.2770 O   0  0  0  0  0  0  0  0  0  0  0  0
  -24.5950  -31.8720   23.2480 C   0  0  0  0  0  0  0  0  0  0  0  0
  -27.2910  -27.4330   20.2180 C   0  0  0  0  0  0  0  0  0  0  0  0
  -23.4160  -30.4610   21.5950 C   0  0  0  0  0  3  0  0  0  0  0  0
  -24.8940  -28.9270   20.1900 C   0  0  0  0  0  0  0  0  0  0  0  0
  -25.9410  -30.8330   21.4230 C   0  0  0  0  0  2  0  0  0  0  0  0
  -26.0430  -29.4600   20.7890 C   0  0  0  0  0  0  0  0  0  0  0  0
  -27.2500  -28.7210   20.8000 C   0  0  0  0  0  3  0  0  0  0  0  0
  -26.1330  -26.9170   19.6030 C   0  0  0  0  0  3  0  0  0  0  0  0
  -24.9340  -27.6550   19.5910 C   0  0  0  0  0  3  0  0  0  0  0  0
  -23.6450  -29.7790   20.2200 C   0  0  0  0  0  2  0  0  0  0  0  0
  -24.6680  -31.0700   22.1490 N   0  0  0  0  0  0  0  0  0  0  0  0
  -23.5060  -32.1420   23.7740 O   0  0  0  0  0  0  0  0  0  0  0  0
  -22.7560  -29.4410   22.5510 C   0  0  0  0  0  0  0  0  0  0  0  0
  -21.4290  -29.2720   22.4260 N   0  0  0  0  0  0  0  0  0  0  0  0
  -23.4340  -28.8040   23.3620 O   0  0  0  0  0  0  0  0  0  0  0  0
  -20.9430  -29.8400   21.7450 H   0  0  0  0  0  0  0  0  0  0  0  0
  -18.0400  -28.1290   22.9410 C   0  0  0  0  0  0  0  0  0  0  0  0
  -20.6040  -28.3380   23.1920 C   0  0  0  0  0  3  0  0  0  0  0  0
  -20.6760  -26.9140   22.5950 C   0  0  0  0  0  2  0  0  0  0  0  0
  -19.5600  -26.6240   21.5870 C   0  0  0  0  0  2  0  0  0  0  0  0
  -18.1870  -26.7850   22.2460 C   0  0  0  0  0  2  0  0  0  0  0  0
  -19.1760  -28.8650   23.3710 C   0  0  0  0  0  0  0  0  0  0  0  0
  -18.9850  -30.1240   23.9810 C   0  0  0  0  0  3  0  0  0  0  0  0
  -17.6920  -30.6470   24.1650 C   0  0  0  0  0  3  0  0  0  0  0  0
  -16.5700  -29.9080   23.7510 C   0  0  0  0  0  3  0  0  0  0  0  0
  -16.7450  -28.6500   23.1450 C   0  0  0  0  0  3  0  0  0  0  0  0
  -25.8710  -32.5100   23.8820 C   0  0  0  0  0  3  0  0  0  0  0  0
  -26.3810  -31.7420   25.1610 C   0  0  1  0  0  0  0  0  0  0  0  0
  -25.2800  -31.5000   26.2200 C   0  0  0  0  0  1  0  0  0  0  0  0
  -26.9720  -30.3680   24.7700 C   0  0  0  0  0  1  0  0  0  0  0  0
  -27.5230  -32.5430   25.8310 C   0  0  0  0  0  1  0  0  0  0  0  0
  -25.5530  -33.9080   24.2040 N   0  0  0  0  0  0  0  0  0  0  0  0
  -25.8890  -34.9580   23.4440 C   0  0  0  0  0  0  0  0  0  0  0  0
  -26.5680  -34.8530   22.4180 O   0  0  0  0  0  0  0  0  0  0  0  0
  -24.9500  -34.0650   24.9980 H   0  0  0  0  0  0  0  0  0  0  0  0
  -24.1540  -36.7380   23.0690 C   0  0  0  0  0  1  0  0  0  0  0  0
  -25.3920  -36.3460   23.8910 C   0  0  0  0  0  3  0  0  0  0  0  0
  -27.5170  -37.2430   24.7310 C   0  0  0  0  0  1  0  0  0  0  0  0
  -26.4200  -37.4030   23.7810 N   0  0  0  0  0  0  0  0  0  0  0  0
  -26.0080  -38.3220   23.9250 H   0  0  0  0  0  0  0  0  0  0  0  0
  -28.0860  -20.0110   19.6810 C   0  0  0  0  0  2  0  0  0  0  0  0
  -30.6740  -14.5220   20.0320 C   0  0  0  0  0  0  0  0  0  0  0  0
  -30.3430  -12.3450   18.9310 C   0  0  0  0  0  2  0  0  0  0  0  0
  -29.3380  -12.5400   17.7750 C   0  0  0  0  0  2  0  0  0  0  0  0
  -27.8860  -12.4090   18.2780 C   0  0  0  0  0  2  0  0  0  0  0  0
  -27.6110  -13.2400   19.5610 C   0  0  0  0  0  3  0  0  0  0  0  0
  -28.7270  -13.0330   20.6100 C   0  0  0  0  0  2  0  0  0  0  0  0
  -30.0130  -13.3340   19.9660 N   0  0  0  0  0  0  0  0  0  0  0  0
  -31.8350  -14.6620   19.6320 O   0  0  0  0  0  0  0  0  0  0  0  0
  -29.5790  -16.4750   21.2140 C   0  0  0  0  0  2  0  0  0  0  0  0
  -29.6220  -16.4320   18.8850 C   0  0  0  0  0  2  0  0  0  0  0  0
  -28.6770  -17.6240   20.7600 C   0  0  0  0  0  3  0  0  0  0  0  0
  -28.6720  -17.5450   19.2650 C   0  0  0  0  0  3  0  0  0  0  0  0
  -29.0670  -18.8500   19.9230 C   0  0  0  0  0  3  0  0  0  0  0  0
  -29.8510  -15.6010   20.0660 N   0  0  0  0  0  0  0  0  0  0  0  0
  -25.2590  -13.8510   20.4070 C   0  0  0  0  0  0  0  0  0  0  0  0
  -24.2080  -13.0790   20.8190 C   0  0  0  0  0  0  0  0  0  0  0  0
  -24.6570  -11.7260   20.7450 C   0  0  0  0  0  0  0  0  0  0  0  0
  -26.2840  -12.9670   20.1090 N   0  0  0  0  0  0  0  0  0  0  0  0
  -25.9310  -11.6840   20.3720 N   0  0  0  0  0  0  0  0  0  0  0  0
  -23.9310  -10.4660   20.9530 C   0  0  0  0  0  0  0  0  0  0  0  0
  -24.3900   -9.4960   21.8730 C   0  0  0  0  0  3  0  0  0  0  0  0
  -23.6700   -8.2980   22.0690 C   0  0  0  0  0  3  0  0  0  0  0  0
  -22.4770   -8.0610   21.3470 C   0  0  0  0  0  0  0  0  0  0  0  0
  -22.0370   -9.0180   20.4160 C   0  0  0  0  0  3  0  0  0  0  0  0
  -22.7570  -10.2070   20.2180 C   0  0  0  0  0  3  0  0  0  0  0  0
  -21.7250   -6.9160   21.4550 O   0  0  0  0  0  0  0  0  0  0  0  0
  -21.6800   -6.1900   22.6160 C   0  0  0  0  0  0  0  0  0  0  0  0
  -21.2480   -6.7600   23.8350 C   0  0  0  0  0  3  0  0  0  0  0  0
  -21.1520   -5.9590   24.9900 C   0  0  0  0  0  3  0  0  0  0  0  0
  -21.4770   -4.5910   24.9280 C   0  0  0  0  0  0  0  0  0  0  0  0
  -21.9050   -4.0220   23.7160 C   0  0  0  0  0  3  0  0  0  0  0  0
  -22.0040   -4.8210   22.5630 C   0  0  0  0  0  0  0  0  0  0  0  0
  -22.3930   -4.2630   21.3910 F   0  0  0  0  0  0  0  0  0  0  0  0
  -21.3800   -3.8200   26.0360 F   0  0  0  0  0  0  0  0  0  0  0  0
  -22.8300  -13.5600   21.1690 C   0  0  0  0  0  0  0  0  0  0  0  0
  -22.1440  -12.8580   22.0660 N   0  0  0  0  0  0  0  0  0  0  0  0
  -22.3690  -14.5920   20.6830 O   0  0  0  0  0  0  0  0  0  0  0  0
  -22.5290  -12.0230   22.4810 H   0  0  0  0  0  0  0  0  0  0  0  0
  -21.2210  -13.1610   22.3370 H   0  0  0  0  0  0  0  0  0  0  0  0
  -25.4250  -15.2230   20.2420 N   0  0  0  0  0  0  0  0  0  0  0  0
  -24.6680  -15.8810   20.3960 H   0  0  0  0  0  0  0  0  0  0  0  0
  -26.2710  -15.6600   19.8990 H   0  0  0  0  0  0  0  0  0  0  0  0
  1  3  2  0
  2  1  1  0
  4  6  1  0
  5  1  1  0
  5  4  1  0
  5  6  1  0
  6  7  1  0
  8  7  1  0
  9 20  2  0
 10  8  1  0
 10 15  1  0
 11 19  1  0
 11 21  1  0
 12 18  1  0
 12 14  1  0
 13 19  1  0
 14 15  2  0
 14 13  1  0
 16 10  2  0
 17 16  1  0
 17 12  2  0
 18 11  1  0
 19  9  1  0
 21 23  2  0
 22 21  1  0
 24 22  1  0
 25 34  2  0
 25 30  1  0
 26 22  1  0
 26 30  1  0
 27 26  1  0
 28 29  1  0
 28 27  1  0
 29 25  1  0
 30 31  2  0
 31 32  1  0
 33 32  2  0
 34 33  1  0
 35  9  1  0
 35 40  1  0
 35 36  1  0
 36 39  1  1
 36 37  1  0
 38 36  1  0
 40 43  1  0
 41 45  1  0
 41 40  1  0
 42 41  2  0
 45 44  1  0
 47 45  1  0
 47 48  1  0
 47 46  1  0
 49  3  1  0
 50 63  1  0
 51 56  1  0
 52 53  1  0
 52 51  1  0
 54 53  1  0
 54 67  1  0
 54 55  1  0
 56 50  1  0
 56 55  1  0
 57 50  2  0
 59 63  1  0
 60 58  1  0
 61 59  1  0
 61 62  1  0
 61 60  1  0
 62 49  1  0
 62 60  1  0
 63 58  1  0
 64 65  2  0
 65 84  1  0
 66 65  1  0
 66 69  1  0
 67 68  1  0
 67 64  1  0
 68 66  2  0
 69 70  1  0
 70 71  2  0
 72 75  1  0
 72 71  1  0
 73 72  2  0
 74 73  1  0
 74 69  2  0
 75 76  1  0
 76 77  1  0
 77 78  2  0
 79 78  1  0
 79 83  1  0
 80 79  2  0
 81 76  2  0
 81 80  1  0
 82 81  1  0
 84 85  1  0
 85 88  1  0
 85 87  1  0
 86 84  2  0
 89 90  1  0
 89 64  1  0
 91 89  1  0
M  ISO  4   7 101   8 101  50 100  63 100
M  END
>  <TORSDO>  (7) 
F 19

>  <SCORE>  (7) 
-14.178

>  <name>  (7) 
6

>  <ligand_id>  (7) 
6

>  <original_smiles>  (7) 
[H]c1c([H])c([H])c2c(c1[H])C([H])([H])C([H])([H])C([H])([H])C2([H])N([H])C(=O)C1([H])N(C(=O)C([H])(N([H])C(=O)C([H])(N([H])C([H])([H])[H])C([H])([H])[H])C(C([H])([H])[H])(C([H])([H])[H])C([H])([H])[H])C([H])([H])c2c([H])c(OC([H])([H])C3([H])C([H])([H])C3([H])C(=NC([H])([H])C3([H])C4([H])C([H])([H])N(C(=O)N5C([H])([H])C([H])([H])C([H])([H])C([H])(n6nc(-c7c([H])c([H])c(Oc8c([H])c([H])c(F)c([H])c8F)c([H])c7[H])c(C(=O)N([H])[H])c6N([H])[H])C5([H])[H])C([H])([H])C34[H])C([H])([H])[H])c([H])c([H])c2C1([H])[H]

>  <smiles>  (7) 
[H]c1c([H])c([H])c2c(c1[H])C([H])([H])C([H])([H])C([H])([H])C2([H])N([H])C(=O)C1([H])N(C(=O)C([H])(N([H])C(=O)C([H])(N([H])C([H])([H])[H])C([H])([H])[H])C(C([H])([H])[H])(C([H])([H])[H])C([H])([H])[H])C([H])([H])c2c([H])c(OC([H])([H])C3([H])C([H])([H])C3([H])C(=NC([H])([H])C3([H])C4([H])C([H])([H])N(C(=O)N5C([H])([H])C([H])([H])C([H])([H])C([H])(n6nc(-c7c([H])c([H])c(Oc8c([H])c([H])c(F)c([H])c8F)c([H])c7[H])c(C(=O)N([H])[H])c6N([H])[H])C5([H])[H])C([H])([H])C34[H])C([H])([H])[H])c([H])c([H])c2C1([H])[H]

$$$$
7:0:0
     RDKit          3D

 92102  0  0  1  0  0  0  0  0999 V2000
  -29.9480  -22.3110   20.5040 C   0  0  0  0  0  2  0  0  0  0  0  0
  -28.9270  -21.1980   20.2220 C   0  0  0  0  0  3  0  0  0  0  0  0
  -28.6260  -22.9170   20.6260 C   0  0  1  0  0  0  0  0  0  0  0  0
  -27.9790  -23.1320   21.9890 C   0  0  0  0  0  1  0  0  0  0  0  0
  -29.5650  -19.6420   20.8110 C   0  0  0  0  0  2  0  0  0  0  0  0
  -27.5380  -16.3490   18.5390 C   0  0  0  0  0  2  0  0  0  0  0  0
  -29.0560  -16.3330   18.2630 C   0  0  0  0  0  2  0  0  0  0  0  0
  -28.4140  -18.5230   18.0780 C   0  0  0  0  0  2  0  0  0  0  0  0
  -27.6760  -18.0790   20.2690 C   0  0  0  0  0  2  0  0  0  0  0  0
  -27.2890  -17.8170   18.8090 C   0  0  0  0  0  3  0  0  0  0  0  0
  -29.5070  -17.7150   18.7910 C   0  0  0  0  0  3  0  0  0  0  0  0
  -29.2410  -17.9630   20.3260 C   0  0  1  0  0  0  0  0  0  0  0  0
  -30.4840  -15.3430   21.1460 C   0  0  0  0  0  0  0  0  0  0  0  0
  -30.6490  -12.8240   20.5480 C   0  0  0  0  0  2  0  0  0  0  0  0
  -29.9410  -12.4460   19.2210 C   0  0  0  0  0  2  0  0  0  0  0  0
  -28.4760  -12.0760   19.5190 C   0  0  0  0  0  2  0  0  0  0  0  0
  -27.8320  -13.1420   20.4320 C   0  0  0  0  0  3  0  0  0  0  0  0
  -28.6780  -13.5410   21.6590 C   0  0  0  0  0  2  0  0  0  0  0  0
  -29.9660  -14.0220   21.1640 N   0  0  0  0  0  0  0  0  0  0  0  0
  -31.7130  -15.3890   21.0050 O   0  0  0  0  0  0  0  0  0  0  0  0
  -29.6650  -16.5790   21.1830 N   0  0  0  0  0  0  0  0  0  0  0  0
  -29.8090  -16.9060   22.1460 H   0  0  0  0  0  0  0  0  0  0  0  0
  -25.3670  -13.7460   20.8480 C   0  0  0  0  0  0  0  0  0  0  0  0
  -24.2810  -12.9660   21.0910 C   0  0  0  0  0  0  0  0  0  0  0  0
  -24.7620  -11.6200   21.1510 C   0  0  0  0  0  0  0  0  0  0  0  0
  -26.4480  -12.8750   20.7690 N   0  0  0  0  0  0  0  0  0  0  0  0
  -26.0760  -11.5970   21.0190 N   0  0  0  0  0  0  0  0  0  0  0  0
  -24.0620  -10.3510   21.2850 C   0  0  0  0  0  0  0  0  0  0  0  0
  -24.4320   -9.3980   22.2600 C   0  0  0  0  0  3  0  0  0  0  0  0
  -23.7200   -8.1830   22.3750 C   0  0  0  0  0  3  0  0  0  0  0  0
  -22.6310   -7.9140   21.5090 C   0  0  0  0  0  0  0  0  0  0  0  0
  -22.2990   -8.8490   20.5150 C   0  0  0  0  0  3  0  0  0  0  0  0
  -23.0100  -10.0550   20.4000 C   0  0  0  0  0  3  0  0  0  0  0  0
  -21.8940   -6.7530   21.5230 O   0  0  0  0  0  0  0  0  0  0  0  0
  -21.7610   -6.0090   22.6640 C   0  0  0  0  0  0  0  0  0  0  0  0
  -21.2490   -6.5590   23.8590 C   0  0  0  0  0  3  0  0  0  0  0  0
  -21.0820   -5.7390   24.9910 C   0  0  0  0  0  3  0  0  0  0  0  0
  -21.4000   -4.3690   24.9230 C   0  0  0  0  0  0  0  0  0  0  0  0
  -21.9100   -3.8210   23.7310 C   0  0  0  0  0  3  0  0  0  0  0  0
  -22.0920   -4.6410   22.6050 C   0  0  0  0  0  0  0  0  0  0  0  0
  -22.5620   -4.1070   21.4520 F   0  0  0  0  0  0  0  0  0  0  0  0
  -21.2200   -3.5770   26.0060 F   0  0  0  0  0  0  0  0  0  0  0  0
  -22.8500  -13.4150   21.1760 C   0  0  0  0  0  0  0  0  0  0  0  0
  -22.0440  -12.7220   21.9670 N   0  0  0  0  0  0  0  0  0  0  0  0
  -22.4490  -14.4060   20.5620 O   0  0  0  0  0  0  0  0  0  0  0  0
  -22.3780  -11.9120   22.4680 H   0  0  0  0  0  0  0  0  0  0  0  0
  -21.0750  -12.9890   22.0700 H   0  0  0  0  0  0  0  0  0  0  0  0
  -25.5110  -15.1240   20.6710 N   0  0  0  0  0  0  0  0  0  0  0  0
  -24.7410  -15.7770   20.7940 H   0  0  0  0  0  0  0  0  0  0  0  0
  -26.3940  -15.5870   20.4930 H   0  0  0  0  0  0  0  0  0  0  0  0
  -28.2210  -24.4050   19.7600 C   0  0  0  0  0  2  0  0  0  0  0  0
  -28.2690  -25.9950   20.1440 O   0  0  0  0  0  0  0  0  0  0  0  0
  -24.6440  -31.8500   23.0660 C   0  0  0  0  0  0  0  0  0  0  0  0
  -27.2270  -27.0350   20.0420 C   0  0  0  0  0  0  0  0  0  0  0  0
  -23.4370  -30.4190   21.4650 C   0  0  0  0  0  3  0  0  0  0  0  0
  -24.8780  -28.8350   20.0260 C   0  0  0  0  0  0  0  0  0  0  0  0
  -25.9900  -30.6760   21.2690 C   0  0  0  0  0  2  0  0  0  0  0  0
  -26.0660  -29.2740   20.6200 C   0  0  0  0  0  0  0  0  0  0  0  0
  -27.2310  -28.3920   20.6070 C   0  0  0  0  0  3  0  0  0  0  0  0
  -26.0000  -26.7310   19.4030 C   0  0  0  0  0  3  0  0  0  0  0  0
  -24.8630  -27.5840   19.4010 C   0  0  0  0  0  3  0  0  0  0  0  0
  -23.6440  -29.7310   20.0840 C   0  0  0  0  0  2  0  0  0  0  0  0
  -24.7100  -31.0130   21.9850 N   0  0  0  0  0  0  0  0  0  0  0  0
  -23.5600  -32.1330   23.6030 O   0  0  0  0  0  0  0  0  0  0  0  0
  -22.7830  -29.4280   22.4530 C   0  0  0  0  0  0  0  0  0  0  0  0
  -21.4450  -29.2770   22.3690 N   0  0  0  0  0  0  0  0  0  0  0  0
  -23.4700  -28.7960   23.2650 O   0  0  0  0  0  0  0  0  0  0  0  0
  -20.9290  -29.8450   21.7180 H   0  0  0  0  0  0  0  0  0  0  0  0
  -18.0830  -28.0610   22.9260 C   0  0  0  0  0  0  0  0  0  0  0  0
  -20.6430  -28.3390   23.1660 C   0  0  0  0  0  3  0  0  0  0  0  0
  -20.7400  -26.8860   22.6180 C   0  0  0  0  0  2  0  0  0  0  0  0
  -19.6240  -26.5560   21.6040 C   0  0  0  0  0  2  0  0  0  0  0  0
  -18.2560  -26.6960   22.2780 C   0  0  0  0  0  2  0  0  0  0  0  0
  -19.2010  -28.8380   23.3300 C   0  0  0  0  0  0  0  0  0  0  0  0
  -18.9640  -30.0990   23.9310 C   0  0  0  0  0  3  0  0  0  0  0  0
  -17.6530  -30.5760   24.1210 C   0  0  0  0  0  3  0  0  0  0  0  0
  -16.5520  -29.7980   23.7210 C   0  0  0  0  0  3  0  0  0  0  0  0
  -16.7770  -28.5410   23.1300 C   0  0  0  0  0  3  0  0  0  0  0  0
  -25.9220  -32.5220   23.6650 C   0  0  0  0  0  3  0  0  0  0  0  0
  -26.5140  -31.7330   24.9020 C   0  0  1  0  0  0  0  0  0  0  0  0
  -25.4730  -31.4290   26.0050 C   0  0  0  0  0  1  0  0  0  0  0  0
  -27.1150  -30.3810   24.4550 C   0  0  0  0  0  1  0  0  0  0  0  0
  -27.6610  -32.5440   25.5490 C   0  0  0  0  0  1  0  0  0  0  0  0
  -25.5750  -33.8970   24.0600 N   0  0  0  0  0  0  0  0  0  0  0  0
  -25.8530  -34.9980   23.3470 C   0  0  0  0  0  0  0  0  0  0  0  0
  -26.5000  -34.9640   22.2960 O   0  0  0  0  0  0  0  0  0  0  0  0
  -25.0140  -33.9910   24.8940 H   0  0  0  0  0  0  0  0  0  0  0  0
  -24.0670  -36.7590   23.1310 C   0  0  0  0  0  1  0  0  0  0  0  0
  -25.3400  -36.3460   23.8880 C   0  0  0  0  0  3  0  0  0  0  0  0
  -27.4660  -37.2610   24.7070 C   0  0  0  0  0  1  0  0  0  0  0  0
  -26.3360  -37.4370   23.8020 N   0  0  0  0  0  0  0  0  0  0  0  0
  -25.9040  -38.3330   24.0130 H   0  0  0  0  0  0  0  0  0  0  0  0
  1  3  1  0
  2  1  1  0
  2  3  1  0
  2  5  1  0
  3  4  1  1
  6 10  1  0
  7  6  1  0
  7 11  1  0
  9 12  1  0
 10  8  1  0
 10  9  1  0
 11  8  1  0
 11 12  1  0
 12  5  1  1
 12 21  1  0
 13 19  1  0
 13 21  1  0
 14 19  1  0
 15 16  1  0
 15 14  1  0
 17 16  1  0
 17 26  1  0
 17 18  1  0
 19 18  1  0
 20 13  2  0
 21 22  1  0
 23 24  2  0
 24 25  1  0
 24 43  1  0
 25 28  1  0
 26 23  1  0
 26 27  1  0
 27 25  2  0
 28 29  1  0
 29 30  2  0
 31 34  1  0
 31 30  1  0
 32 31  2  0
 33 32  1  0
 33 28  2  0
 34 35  1  0
 35 36  1  0
 36 37  2  0
 38 37  1  0
 38 42  1  0
 39 38  2  0
 40 35  2  0
 40 39  1  0
 41 40  1  0
 43 44  1  0
 44 47  1  0
 44 46  1  0
 45 43  2  0
 48 49  1  0
 48 23  1  0
 50 48  1  0
 51 52  1  0
 51  3  1  0
 53 64  2  0
 54 52  1  0
 54 59  1  0
 55 63  1  0
 55 65  1  0
 56 62  1  0
 56 58  1  0
 57 63  1  0
 58 57  1  0
 59 58  2  0
 60 54  2  0
 61 60  1  0
 61 56  2  0
 62 55  1  0
 63 53  1  0
 65 67  2  0
 66 65  1  0
 68 66  1  0
 69 78  2  0
 69 74  1  0
 70 66  1  0
 70 74  1  0
 71 70  1  0
 72 73  1  0
 72 71  1  0
 73 69  1  0
 74 75  2  0
 75 76  1  0
 77 76  2  0
 78 77  1  0
 79 53  1  0
 79 84  1  0
 79 80  1  0
 80 83  1  1
 80 81  1  0
 82 80  1  0
 84 87  1  0
 85 89  1  0
 85 84  1  0
 86 85  2  0
 89 88  1  0
 91 89  1  0
 91 92  1  0
 91 90  1  0
M  ISO  4  13 100  21 100  51 101  52 101
M  END
>  <TORSDO>  (8) 
F 19

>  <SCORE>  (8) 
-14.490

>  <name>  (8) 
7

>  <ligand_id>  (8) 
7

>  <original_smiles>  (8) 
[H]c1c([H])c([H])c2c(c1[H])C([H])([H])C([H])([H])C([H])([H])C2([H])N([H])C(=O)C1([H])N(C(=O)C([H])(N([H])C(=O)C([H])(N([H])C([H])([H])[H])C([H])([H])[H])C(C([H])([H])[H])(C([H])([H])[H])C([H])([H])[H])C([H])([H])c2c([H])c(OC([H])([H])C3(C([H])([H])[H])C([H])([H])C3([H])C([H])([H])C3(N([H])C(=O)N4C([H])([H])C([H])([H])C([H])([H])C([H])(n5nc(-c6c([H])c([H])c(Oc7c([H])c([H])c(F)c([H])c7F)c([H])c6[H])c(C(=O)N([H])[H])c5N([H])[H])C4([H])[H])C([H])([H])C4([H])C([H])([H])C([H])([H])C3([H])C4([H])[H])c([H])c([H])c2C1([H])[H]

>  <smiles>  (8) 
[H]c1c([H])c([H])c2c(c1[H])C([H])([H])C([H])([H])C([H])([H])C2([H])N([H])C(=O)C1([H])N(C(=O)C([H])(N([H])C(=O)C([H])(N([H])C([H])([H])[H])C([H])([H])[H])C(C([H])([H])[H])(C([H])([H])[H])C([H])([H])[H])C([H])([H])c2c([H])c(OC([H])([H])C3(C([H])([H])[H])C([H])([H])C3([H])C([H])([H])C3(N([H])C(=O)N4C([H])([H])C([H])([H])C([H])([H])C([H])(n5nc(-c6c([H])c([H])c(Oc7c([H])c([H])c(F)c([H])c7F)c([H])c6[H])c(C(=O)N([H])[H])c5N([H])[H])C4([H])[H])C([H])([H])C4([H])C([H])([H])C([H])([H])C3([H])C4([H])[H])c([H])c([H])c2C1([H])[H]

$$$$
8:0:0
     RDKit          3D

 93102  0  0  1  0  0  0  0  0999 V2000
  -31.3710  -20.7210   19.0390 C   0  0  0  0  0  3  0  0  0  0  0  0
  -30.9660  -19.4280   19.4150 C   0  0  0  0  0  3  0  0  0  0  0  0
  -29.3650  -20.3930   20.9710 C   0  0  0  0  0  3  0  0  0  0  0  0
  -29.7470  -21.7100   20.5810 C   0  0  0  0  0  0  0  0  0  0  0  0
  -30.7660  -21.8630   19.6080 C   0  0  0  0  0  0  0  0  0  0  0  0
  -29.9590  -19.2450   20.3850 C   0  0  0  0  0  0  0  0  0  0  0  0
  -29.0620  -22.9120   21.1760 C   0  0  0  0  0  0  0  0  0  0  0  0
  -31.2110  -23.2460   19.1560 C   0  0  0  0  0  2  0  0  0  0  0  0
  -30.0650  -24.2620   19.2320 C   0  0  0  0  0  2  0  0  0  0  0  0
  -29.4130  -24.3300   20.6280 C   0  0  0  0  0  3  0  0  0  0  0  0
  -28.2380  -22.8030   22.0900 O   0  0  0  0  0  0  0  0  0  0  0  0
  -29.4650  -17.8240   20.6980 C   0  0  0  0  0  2  0  0  0  0  0  0
  -30.5300  -16.8440   21.2600 C   0  0  0  0  0  2  0  0  0  0  0  0
  -30.7070  -14.4440   20.5110 C   0  0  0  0  0  0  0  0  0  0  0  0
  -30.3750  -12.3010   19.3310 C   0  0  0  0  0  2  0  0  0  0  0  0
  -29.4400  -12.5070   18.1200 C   0  0  0  0  0  2  0  0  0  0  0  0
  -27.9650  -12.3720   18.5430 C   0  0  0  0  0  2  0  0  0  0  0  0
  -27.6260  -13.2160   19.8000 C   0  0  0  0  0  3  0  0  0  0  0  0
  -28.6720  -12.9970   20.9170 C   0  0  0  0  0  2  0  0  0  0  0  0
  -30.0060  -13.2850   20.3630 N   0  0  0  0  0  0  0  0  0  0  0  0
  -31.8030  -14.6310   19.9770 O   0  0  0  0  0  0  0  0  0  0  0  0
  -30.0870  -15.4340   21.1840 N   0  0  0  0  0  0  0  0  0  0  0  0
  -29.2040  -15.2030   21.6100 H   0  0  0  0  0  0  0  0  0  0  0  0
  -25.2240  -13.8370   20.4870 C   0  0  0  0  0  0  0  0  0  0  0  0
  -24.1500  -13.0720   20.8530 C   0  0  0  0  0  0  0  0  0  0  0  0
  -24.6050  -11.7180   20.8330 C   0  0  0  0  0  0  0  0  0  0  0  0
  -26.2670  -12.9500   20.2700 N   0  0  0  0  0  0  0  0  0  0  0  0
  -25.8980  -11.6710   20.5360 N   0  0  0  0  0  0  0  0  0  0  0  0
  -23.8730  -10.4590   21.0260 C   0  0  0  0  0  0  0  0  0  0  0  0
  -24.2950   -9.4940   21.9670 C   0  0  0  0  0  3  0  0  0  0  0  0
  -23.5620   -8.3000   22.1470 C   0  0  0  0  0  3  0  0  0  0  0  0
  -22.3940   -8.0630   21.3840 C   0  0  0  0  0  0  0  0  0  0  0  0
  -21.9910   -9.0170   20.4330 C   0  0  0  0  0  3  0  0  0  0  0  0
  -22.7240  -10.2020   20.2510 C   0  0  0  0  0  3  0  0  0  0  0  0
  -21.6330   -6.9220   21.4740 O   0  0  0  0  0  0  0  0  0  0  0  0
  -21.5730   -6.1860   22.6290 C   0  0  0  0  0  0  0  0  0  0  0  0
  -21.1320   -6.7460   23.8480 C   0  0  0  0  0  3  0  0  0  0  0  0
  -21.0180   -5.9350   24.9960 C   0  0  0  0  0  3  0  0  0  0  0  0
  -21.3360   -4.5660   24.9250 C   0  0  0  0  0  0  0  0  0  0  0  0
  -21.7680   -4.0050   23.7100 C   0  0  0  0  0  3  0  0  0  0  0  0
  -21.8830   -4.8110   22.5650 C   0  0  0  0  0  0  0  0  0  0  0  0
  -22.2810   -4.2610   21.3920 F   0  0  0  0  0  0  0  0  0  0  0  0
  -21.2190   -3.7850   26.0240 F   0  0  0  0  0  0  0  0  0  0  0  0
  -22.7530  -13.5570   21.1130 C   0  0  0  0  0  0  0  0  0  0  0  0
  -22.0130  -12.8670   21.9750 N   0  0  0  0  0  0  0  0  0  0  0  0
  -22.3220  -14.5810   20.5850 O   0  0  0  0  0  0  0  0  0  0  0  0
  -22.3710  -12.0400   22.4260 H   0  0  0  0  0  0  0  0  0  0  0  0
  -21.0770  -13.1770   22.1910 H   0  0  0  0  0  0  0  0  0  0  0  0
  -25.3990  -15.2050   20.3020 N   0  0  0  0  0  0  0  0  0  0  0  0
  -24.6420  -15.8720   20.4090 H   0  0  0  0  0  0  0  0  0  0  0  0
  -26.2600  -15.6320   19.9850 H   0  0  0  0  0  0  0  0  0  0  0  0
  -28.1650  -25.2570   20.6180 C   0  0  0  0  0  2  0  0  0  0  0  0
  -28.3860  -26.6350   20.2280 O   0  0  0  0  0  0  0  0  0  0  0  0
  -24.6090  -31.8860   23.2420 C   0  0  0  0  0  0  0  0  0  0  0  0
  -27.2370  -27.4090   20.1850 C   0  0  0  0  0  0  0  0  0  0  0  0
  -23.4020  -30.4860   21.6020 C   0  0  0  0  0  3  0  0  0  0  0  0
  -24.8520  -28.9440   20.1810 C   0  0  0  0  0  0  0  0  0  0  0  0
  -25.9330  -30.8310   21.4110 C   0  0  0  0  0  2  0  0  0  0  0  0
  -26.0140  -29.4580   20.7690 C   0  0  0  0  0  0  0  0  0  0  0  0
  -27.2120  -28.7030   20.7630 C   0  0  0  0  0  3  0  0  0  0  0  0
  -26.0580  -26.9250   19.5720 C   0  0  0  0  0  3  0  0  0  0  0  0
  -24.8700  -27.6790   19.5740 C   0  0  0  0  0  3  0  0  0  0  0  0
  -23.6120  -29.8070   20.2240 C   0  0  0  0  0  2  0  0  0  0  0  0
  -24.6650  -31.0810   22.1440 N   0  0  0  0  0  0  0  0  0  0  0  0
  -23.5260  -32.1640   23.7780 O   0  0  0  0  0  0  0  0  0  0  0  0
  -22.7430  -29.4680   22.5620 C   0  0  0  0  0  0  0  0  0  0  0  0
  -21.4170  -29.2970   22.4380 N   0  0  0  0  0  0  0  0  0  0  0  0
  -23.4230  -28.8370   23.3760 O   0  0  0  0  0  0  0  0  0  0  0  0
  -20.9300  -29.8600   21.7540 H   0  0  0  0  0  0  0  0  0  0  0  0
  -18.0300  -28.1420   22.9510 C   0  0  0  0  0  0  0  0  0  0  0  0
  -20.5920  -28.3660   23.2080 C   0  0  0  0  0  3  0  0  0  0  0  0
  -20.6730  -26.9360   22.6230 C   0  0  0  0  0  2  0  0  0  0  0  0
  -19.5600  -26.6340   21.6150 C   0  0  0  0  0  2  0  0  0  0  0  0
  -18.1840  -26.7930   22.2690 C   0  0  0  0  0  2  0  0  0  0  0  0
  -19.1610  -28.8880   23.3780 C   0  0  0  0  0  0  0  0  0  0  0  0
  -18.9620  -30.1510   23.9750 C   0  0  0  0  0  3  0  0  0  0  0  0
  -17.6650  -30.6700   24.1500 C   0  0  0  0  0  3  0  0  0  0  0  0
  -16.5490  -29.9210   23.7380 C   0  0  0  0  0  3  0  0  0  0  0  0
  -16.7320  -28.6580   23.1470 C   0  0  0  0  0  3  0  0  0  0  0  0
  -25.8960  -32.5130   23.8630 C   0  0  0  0  0  3  0  0  0  0  0  0
  -26.4120  -31.7380   25.1370 C   0  0  1  0  0  0  0  0  0  0  0  0
  -25.3200  -31.4980   26.2040 C   0  0  0  0  0  1  0  0  0  0  0  0
  -26.9930  -30.3610   24.7380 C   0  0  0  0  0  1  0  0  0  0  0  0
  -27.5640  -32.5290   25.7990 C   0  0  0  0  0  1  0  0  0  0  0  0
  -25.5910  -33.9120   24.1940 N   0  0  0  0  0  0  0  0  0  0  0  0
  -25.9200  -34.9630   23.4330 C   0  0  0  0  0  0  0  0  0  0  0  0
  -26.5850  -34.8570   22.3980 O   0  0  0  0  0  0  0  0  0  0  0  0
  -25.0000  -34.0680   24.9980 H   0  0  0  0  0  0  0  0  0  0  0  0
  -24.1910  -36.7540   23.0840 C   0  0  0  0  0  1  0  0  0  0  0  0
  -25.4360  -36.3510   23.8900 C   0  0  0  0  0  3  0  0  0  0  0  0
  -27.5740  -37.2350   24.7100 C   0  0  0  0  0  1  0  0  0  0  0  0
  -26.4690  -37.4030   23.7700 N   0  0  0  0  0  0  0  0  0  0  0  0
  -26.0650  -38.3250   23.9170 H   0  0  0  0  0  0  0  0  0  0  0  0
  1  2  2  0
  1  5  1  0
  2  6  1  0
  4  3  1  0
  4  7  1  0
  5  4  2  0
  6 12  1  0
  6  3  2  0
  7 11  2  0
  8  9  1  0
  8  5  1  0
  9 10  1  0
 10 52  1  0
 10  7  1  0
 12 13  1  0
 14 22  1  0
 15 20  1  0
 16 17  1  0
 16 15  1  0
 18 17  1  0
 18 27  1  0
 18 19  1  0
 20 14  1  0
 20 19  1  0
 21 14  2  0
 22 13  1  0
 22 23  1  0
 24 25  2  0
 25 44  1  0
 26 25  1  0
 26 29  1  0
 27 24  1  0
 27 28  1  0
 28 26  2  0
 29 30  1  0
 30 31  2  0
 32 35  1  0
 32 31  1  0
 33 32  2  0
 34 33  1  0
 34 29  2  0
 35 36  1  0
 36 37  1  0
 37 38  2  0
 39 38  1  0
 39 43  1  0
 40 39  2  0
 41 36  2  0
 41 40  1  0
 42 41  1  0
 44 45  1  0
 45 48  1  0
 45 47  1  0
 46 44  2  0
 49 50  1  0
 49 24  1  0
 51 49  1  0
 53 52  1  0
 54 65  2  0
 55 53  1  0
 55 60  1  0
 56 64  1  0
 56 66  1  0
 57 63  1  0
 57 59  1  0
 58 64  1  0
 59 58  1  0
 60 59  2  0
 61 62  1  0
 61 55  2  0
 62 57  2  0
 63 56  1  0
 64 54  1  0
 66 68  2  0
 67 66  1  0
 69 67  1  0
 70 79  2  0
 70 75  1  0
 71 67  1  0
 71 75  1  0
 72 71  1  0
 73 74  1  0
 73 72  1  0
 74 70  1  0
 75 76  2  0
 76 77  1  0
 78 77  2  0
 79 78  1  0
 80 54  1  0
 80 85  1  0
 80 81  1  0
 81 84  1  1
 81 82  1  0
 83 81  1  0
 85 88  1  0
 86 90  1  0
 86 85  1  0
 87 86  2  0
 90 89  1  0
 92 90  1  0
 92 93  1  0
 92 91  1  0
M  ISO  4  14 100  22 100  52 101  53 101
M  END
>  <TORSDO>  (9) 
F 19

>  <SCORE>  (9) 
-14.419

>  <name>  (9) 
8

>  <ligand_id>  (9) 
8

>  <original_smiles>  (9) 
[H]c1c([H])c([H])c2c(c1[H])C([H])([H])C([H])([H])C([H])([H])C2([H])N([H])C(=O)C1([H])N(C(=O)C([H])(N([H])C(=O)C([H])(N([H])C([H])([H])[H])C([H])([H])[H])C(C([H])([H])[H])(C([H])([H])[H])C([H])([H])[H])C([H])([H])c2c([H])c(OC([H])([H])C3([H])C(=O)c4c([H])c(C([H])([H])C([H])([H])N([H])C(=O)N5C([H])([H])C([H])([H])C([H])([H])C([H])(n6nc(-c7c([H])c([H])c(Oc8c([H])c([H])c(F)c([H])c8F)c([H])c7[H])c(C(=O)N([H])[H])c6N([H])[H])C5([H])[H])c([H])c([H])c4C([H])([H])C3([H])[H])c([H])c([H])c2C1([H])[H]

>  <smiles>  (9) 
[H]c1c([H])c([H])c2c(c1[H])C([H])([H])C([H])([H])C([H])([H])C2([H])N([H])C(=O)C1([H])N(C(=O)C([H])(N([H])C(=O)C([H])(N([H])C([H])([H])[H])C([H])([H])[H])C(C([H])([H])[H])(C([H])([H])[H])C([H])([H])[H])C([H])([H])c2c([H])c(OC([H])([H])C3([H])C(=O)c4c([H])c(C([H])([H])C([H])([H])N([H])C(=O)N5C([H])([H])C([H])([H])C([H])([H])C([H])(n6nc(-c7c([H])c([H])c(Oc8c([H])c([H])c(F)c([H])c8F)c([H])c7[H])c(C(=O)N([H])[H])c6N([H])[H])C5([H])[H])c([H])c([H])c4C([H])([H])C3([H])[H])c([H])c([H])c2C1([H])[H]

$$$$
9:0:0
     RDKit          3D

 92102  0  0  1  0  0  0  0  0999 V2000
  -30.2830  -19.6350   18.7410 C   0  0  0  0  0  2  0  0  0  0  0  0
  -30.8570  -19.8740   21.1210 C   0  0  0  0  0  2  0  0  0  0  0  0
  -30.6260  -20.6840   19.8340 C   0  0  1  0  0  0  0  0  0  0  0  0
  -29.1140  -19.4700   19.7430 C   0  0  2  0  0  0  0  0  0  0  0  0
  -29.7670  -18.7710   21.0020 C   0  0  0  0  0  3  0  0  0  0  0  0
  -29.1630  -21.1000   19.5710 C   0  0  0  0  0  3  0  0  0  0  0  0
  -28.3920  -21.9380   21.8610 C   0  0  0  0  0  1  0  0  0  0  0  0
  -28.5020  -22.2190   20.4140 N   0  0  1  0  0  4  0  0  0  0  0  0
  -27.5430  -22.1750   20.1010 H   0  0  0  0  0  0  0  0  0  0  0  0
  -28.9260  -23.6790   20.0920 C   0  0  0  0  0  3  0  0  0  0  0  0
  -27.9230  -24.9070   20.4540 C   0  0  0  0  0  3  0  0  0  0  0  0
  -28.2250  -26.3600   20.1400 O   0  0  0  0  0  0  0  0  0  0  0  0
  -24.5870  -31.8670   23.2300 C   0  0  0  0  0  0  0  0  0  0  0  0
  -27.1490  -27.2830   20.1110 C   0  0  0  0  0  0  0  0  0  0  0  0
  -23.3720  -30.4880   21.5860 C   0  0  0  0  0  3  0  0  0  0  0  0
  -24.8080  -28.9530   20.1250 C   0  0  0  0  0  0  0  0  0  0  0  0
  -25.9140  -30.7880   21.3930 C   0  0  0  0  0  2  0  0  0  0  0  0
  -25.9860  -29.4110   20.7310 C   0  0  0  0  0  0  0  0  0  0  0  0
  -27.1610  -28.5890   20.7150 C   0  0  0  0  0  3  0  0  0  0  0  0
  -25.9600  -26.9170   19.4440 C   0  0  0  0  0  3  0  0  0  0  0  0
  -24.8030  -27.7180   19.4640 C   0  0  0  0  0  3  0  0  0  0  0  0
  -23.5790  -29.8380   20.1920 C   0  0  0  0  0  2  0  0  0  0  0  0
  -24.6440  -31.0640   22.1280 N   0  0  0  0  0  0  0  0  0  0  0  0
  -23.5080  -32.1430   23.7740 O   0  0  0  0  0  0  0  0  0  0  0  0
  -22.7120  -29.4590   22.5380 C   0  0  0  0  0  0  0  0  0  0  0  0
  -21.3840  -29.2820   22.4190 N   0  0  0  0  0  0  0  0  0  0  0  0
  -23.3930  -28.8250   23.3470 O   0  0  0  0  0  0  0  0  0  0  0  0
  -20.8920  -29.8540   21.7460 H   0  0  0  0  0  0  0  0  0  0  0  0
  -18.0110  -28.0620   22.9300 C   0  0  0  0  0  0  0  0  0  0  0  0
  -20.5700  -28.3370   23.1890 C   0  0  0  0  0  3  0  0  0  0  0  0
  -20.6760  -26.9080   22.6090 C   0  0  0  0  0  2  0  0  0  0  0  0
  -19.5720  -26.5840   21.5970 C   0  0  0  0  0  2  0  0  0  0  0  0
  -18.1910  -26.7170   22.2460 C   0  0  0  0  0  2  0  0  0  0  0  0
  -19.1270  -28.8300   23.3570 C   0  0  0  0  0  0  0  0  0  0  0  0
  -18.9020  -30.0870   23.9610 C   0  0  0  0  0  3  0  0  0  0  0  0
  -17.5960  -30.5800   24.1340 C   0  0  0  0  0  3  0  0  0  0  0  0
  -16.4940  -29.8120   23.7200 C   0  0  0  0  0  3  0  0  0  0  0  0
  -16.7020  -28.5550   23.1250 C   0  0  0  0  0  3  0  0  0  0  0  0
  -25.8740  -32.4950   23.8470 C   0  0  0  0  0  3  0  0  0  0  0  0
  -26.3960  -31.7150   25.1160 C   0  0  1  0  0  0  0  0  0  0  0  0
  -25.3090  -31.4700   26.1890 C   0  0  0  0  0  1  0  0  0  0  0  0
  -26.9750  -30.3390   24.7110 C   0  0  0  0  0  1  0  0  0  0  0  0
  -27.5540  -32.5030   25.7720 C   0  0  0  0  0  1  0  0  0  0  0  0
  -25.5660  -33.8920   24.1880 N   0  0  0  0  0  0  0  0  0  0  0  0
  -25.8860  -34.9480   23.4290 C   0  0  0  0  0  0  0  0  0  0  0  0
  -26.5410  -34.8500   22.3880 O   0  0  0  0  0  0  0  0  0  0  0  0
  -24.9850  -34.0400   24.9990 H   0  0  0  0  0  0  0  0  0  0  0  0
  -24.1560  -36.7500   23.1060 C   0  0  0  0  0  1  0  0  0  0  0  0
  -25.4050  -36.3350   23.9010 C   0  0  0  0  0  3  0  0  0  0  0  0
  -27.5500  -37.2130   24.7140 C   0  0  0  0  0  1  0  0  0  0  0  0
  -26.4380  -37.3870   23.7850 N   0  0  0  0  0  0  0  0  0  0  0  0
  -26.0350  -38.3070   23.9430 H   0  0  0  0  0  0  0  0  0  0  0  0
  -31.0940  -17.1220   22.4400 C   0  0  0  0  0  1  0  0  0  0  0  0
  -30.4970  -17.2890   21.0180 C   0  0  0  0  0  3  0  0  0  0  0  0
  -30.5350  -14.7800   20.3410 C   0  0  0  0  0  0  0  0  0  0  0  0
  -30.2930  -12.5430   19.2510 C   0  0  0  0  0  2  0  0  0  0  0  0
  -29.3310  -12.6180   18.0480 C   0  0  0  0  0  2  0  0  0  0  0  0
  -27.8770  -12.4180   18.5090 C   0  0  0  0  0  2  0  0  0  0  0  0
  -27.5150  -13.2900   19.7400 C   0  0  0  0  0  3  0  0  0  0  0  0
  -28.5950  -13.2080   20.8410 C   0  0  0  0  0  2  0  0  0  0  0  0
  -29.8740  -13.5770   20.2270 N   0  0  0  0  0  0  0  0  0  0  0  0
  -31.7120  -14.8530   19.9770 O   0  0  0  0  0  0  0  0  0  0  0  0
  -29.8490  -15.9360   20.7090 N   0  0  0  0  0  0  0  0  0  0  0  0
  -28.8610  -15.8450   20.8930 H   0  0  0  0  0  0  0  0  0  0  0  0
  -25.1370  -13.8400   20.5200 C   0  0  0  0  0  0  0  0  0  0  0  0
  -24.0890  -13.0470   20.9040 C   0  0  0  0  0  0  0  0  0  0  0  0
  -24.5720  -11.7030   20.8540 C   0  0  0  0  0  0  0  0  0  0  0  0
  -26.1870  -12.9760   20.2560 N   0  0  0  0  0  0  0  0  0  0  0  0
  -25.8570  -11.6860   20.5230 N   0  0  0  0  0  0  0  0  0  0  0  0
  -23.8690  -10.4280   21.0460 C   0  0  0  0  0  0  0  0  0  0  0  0
  -24.3250   -9.4650   21.9720 C   0  0  0  0  0  3  0  0  0  0  0  0
  -23.6220   -8.2540   22.1510 C   0  0  0  0  0  3  0  0  0  0  0  0
  -22.4470   -7.9990   21.4050 C   0  0  0  0  0  0  0  0  0  0  0  0
  -22.0110   -8.9500   20.4660 C   0  0  0  0  0  3  0  0  0  0  0  0
  -22.7140  -10.1530   20.2860 C   0  0  0  0  0  3  0  0  0  0  0  0
  -21.7110   -6.8420   21.4950 O   0  0  0  0  0  0  0  0  0  0  0  0
  -21.6810   -6.0960   22.6460 C   0  0  0  0  0  0  0  0  0  0  0  0
  -21.2420   -6.6360   23.8740 C   0  0  0  0  0  3  0  0  0  0  0  0
  -21.1650   -5.8160   25.0170 C   0  0  0  0  0  3  0  0  0  0  0  0
  -21.5130   -4.4540   24.9320 C   0  0  0  0  0  0  0  0  0  0  0  0
  -21.9430   -3.9120   23.7080 C   0  0  0  0  0  3  0  0  0  0  0  0
  -22.0240   -4.7310   22.5670 C   0  0  0  0  0  0  0  0  0  0  0  0
  -22.4190   -4.2000   21.3860 F   0  0  0  0  0  0  0  0  0  0  0  0
  -21.4290   -3.6620   26.0270 F   0  0  0  0  0  0  0  0  0  0  0  0
  -22.6890  -13.5000   21.2000 C   0  0  0  0  0  0  0  0  0  0  0  0
  -21.9830  -12.7820   22.0690 N   0  0  0  0  0  0  0  0  0  0  0  0
  -22.2280  -14.5240   20.6990 O   0  0  0  0  0  0  0  0  0  0  0  0
  -22.3680  -11.9560   22.5000 H   0  0  0  0  0  0  0  0  0  0  0  0
  -21.0420  -13.0640   22.3070 H   0  0  0  0  0  0  0  0  0  0  0  0
  -25.2800  -15.2130   20.3460 N   0  0  0  0  0  0  0  0  0  0  0  0
  -24.5070  -15.8600   20.4640 H   0  0  0  0  0  0  0  0  0  0  0  0
  -26.1180  -15.6560   19.9890 H   0  0  0  0  0  0  0  0  0  0  0  0
  3  1  1  6
  3  2  1  0
  4  1  1  6
  4  3  1  0
  4  5  1  0
  5 54  1  0
  5  2  1  0
  6  4  1  0
  6  3  1  0
  6  8  1  0
  8  7  1  0
  8  9  1  6
 10  8  1  0
 10 11  2  0
 12 11  1  0
 13 24  2  0
 14 12  1  0
 14 19  1  0
 15 23  1  0
 15 25  1  0
 16 22  1  0
 16 18  1  0
 17 23  1  0
 18 17  1  0
 19 18  2  0
 20 21  1  0
 20 14  2  0
 21 16  2  0
 22 15  1  0
 23 13  1  0
 25 27  2  0
 26 25  1  0
 28 26  1  0
 29 38  2  0
 29 34  1  0
 30 26  1  0
 30 34  1  0
 31 30  1  0
 32 33  1  0
 32 31  1  0
 33 29  1  0
 34 35  2  0
 35 36  1  0
 37 36  2  0
 38 37  1  0
 39 13  1  0
 39 44  1  0
 39 40  1  0
 40 43  1  1
 40 41  1  0
 42 40  1  0
 44 47  1  0
 45 49  1  0
 45 44  1  0
 46 45  2  0
 49 48  1  0
 51 49  1  0
 51 52  1  0
 51 50  1  0
 54 53  1  0
 55 63  1  0
 56 61  1  0
 57 58  1  0
 57 56  1  0
 59 58  1  0
 59 68  1  0
 59 60  1  0
 61 55  1  0
 61 60  1  0
 62 55  2  0
 63 64  1  0
 63 54  1  0
 65 66  2  0
 66 85  1  0
 67 66  1  0
 67 70  1  0
 68 65  1  0
 68 69  1  0
 69 67  2  0
 70 71  1  0
 71 72  2  0
 73 76  1  0
 73 72  1  0
 74 73  2  0
 75 74  1  0
 75 70  2  0
 76 77  1  0
 77 78  1  0
 78 79  2  0
 80 79  1  0
 80 84  1  0
 81 80  2  0
 82 77  2  0
 82 81  1  0
 83 82  1  0
 85 86  1  0
 86 89  1  0
 86 88  1  0
 87 85  2  0
 90 91  1  0
 90 65  1  0
 92 90  1  0
M  ISO  4  11 101  12 101  55 100  63 100
M  END
>  <TORSDO>  (10) 
F 20

>  <SCORE>  (10) 
-13.741

>  <name>  (10) 
9

>  <ligand_id>  (10) 
9

>  <original_smiles>  (10) 
[H]c1c([H])c([H])c2c(c1[H])C([H])([H])C([H])([H])C([H])([H])C2([H])N([H])C(=O)C1([H])N(C(=O)C([H])(N([H])C(=O)C([H])(N([H])C([H])([H])[H])C([H])([H])[H])C(C([H])([H])[H])(C([H])([H])[H])C([H])([H])[H])C([H])([H])c2c([H])c(OC([H])([H])C([H])([H])[N+]([H])(C([H])([H])[H])C3([H])C4([H])C([H])([H])C([H])(C([H])(N([H])C(=O)N5C([H])([H])C([H])([H])C([H])([H])C([H])(n6nc(-c7c([H])c([H])c(Oc8c([H])c([H])c(F)c([H])c8F)c([H])c7[H])c(C(=O)N([H])[H])c6N([H])[H])C5([H])[H])C([H])([H])[H])C3([H])C4([H])[H])c([H])c([H])c2C1([H])[H]

>  <smiles>  (10) 
[H]c1c([H])c([H])c2c(c1[H])C([H])([H])C([H])([H])C([H])([H])C2([H])N([H])C(=O)C1([H])N(C(=O)C([H])(N([H])C(=O)C([H])(N([H])C([H])([H])[H])C([H])([H])[H])C(C([H])([H])[H])(C([H])([H])[H])C([H])([H])[H])C([H])([H])c2c([H])c(OC([H])([H])C([H])([H])[N+]([H])(C([H])([H])[H])C3([H])C4([H])C([H])([H])C([H])(C([H])(N([H])C(=O)N5C([H])([H])C([H])([H])C([H])([H])C([H])(n6nc(-c7c([H])c([H])c(Oc8c([H])c([H])c(F)c([H])c8F)c([H])c7[H])c(C(=O)N([H])[H])c6N([H])[H])C5([H])[H])C([H])([H])[H])C3([H])C4([H])[H])c([H])c([H])c2C1([H])[H]

$$$$
10:0:0
     RDKit          3D

 90100  0  0  1  0  0  0  0  0999 V2000
  -29.9750  -20.3540   19.8500 C   0  0  0  0  0  0  0  0  0  0  0  0
  -30.8030  -20.5190   18.9500 O   0  0  0  0  0  0  0  0  0  0  0  0
  -31.6770  -18.9780   22.1930 C   0  0  0  0  0  2  0  0  0  0  0  0
  -30.2910  -17.5920   22.6920 C   0  0  0  0  0  2  0  0  0  0  0  0
  -29.8280  -18.8320   20.4920 C   0  0  0  0  0  3  0  0  0  0  0  0
  -30.1470  -18.9620   21.9930 C   0  0  1  0  0  0  0  0  0  0  0  0
  -31.4400  -17.5520   21.6560 C   0  0  2  0  0  0  0  0  0  0  0  0
  -30.8620  -17.5260   20.2210 C   0  0  0  0  0  3  0  0  0  0  0  0
  -31.2170  -14.8310   19.6550 C   0  0  0  0  0  0  0  0  0  0  0  0
  -30.9700  -12.4770   18.7300 C   0  0  0  0  0  2  0  0  0  0  0  0
  -29.9610  -12.4690   17.5590 C   0  0  0  0  0  2  0  0  0  0  0  0
  -28.5150  -12.3190   18.0730 C   0  0  0  0  0  2  0  0  0  0  0  0
  -28.2280  -13.2720   19.2640 C   0  0  0  0  0  3  0  0  0  0  0  0
  -29.3470  -13.2360   20.3270 C   0  0  0  0  0  2  0  0  0  0  0  0
  -30.5920  -13.5870   19.6430 N   0  0  0  0  0  0  0  0  0  0  0  0
  -32.3840  -14.8750   19.2490 O   0  0  0  0  0  0  0  0  0  0  0  0
  -30.4780  -16.0080   19.9660 N   0  0  0  0  0  0  0  0  0  0  0  0
  -29.5240  -15.8120   20.2320 H   0  0  0  0  0  0  0  0  0  0  0  0
  -25.9560  -14.0040   20.1860 C   0  0  0  0  0  0  0  0  0  0  0  0
  -24.8830  -13.2960   20.6480 C   0  0  0  0  0  0  0  0  0  0  0  0
  -25.2500  -11.9170   20.5670 C   0  0  0  0  0  0  0  0  0  0  0  0
  -26.9140  -13.0600   19.8530 N   0  0  0  0  0  0  0  0  0  0  0  0
  -26.5040  -11.7970   20.1430 N   0  0  0  0  0  0  0  0  0  0  0  0
  -24.4570  -10.7040   20.8060 C   0  0  0  0  0  0  0  0  0  0  0  0
  -24.8640   -9.7300   21.7430 C   0  0  0  0  0  3  0  0  0  0  0  0
  -24.0810   -8.5790   21.9690 C   0  0  0  0  0  3  0  0  0  0  0  0
  -22.8700   -8.3980   21.2590 C   0  0  0  0  0  0  0  0  0  0  0  0
  -22.4780   -9.3560   20.3050 C   0  0  0  0  0  3  0  0  0  0  0  0
  -23.2660  -10.4980   20.0790 C   0  0  0  0  0  3  0  0  0  0  0  0
  -22.0570   -7.2990   21.3920 O   0  0  0  0  0  0  0  0  0  0  0  0
  -21.9590   -6.6090   22.5730 C   0  0  0  0  0  0  0  0  0  0  0  0
  -21.5510   -7.2370   23.7680 C   0  0  0  0  0  3  0  0  0  0  0  0
  -21.4030   -6.4810   24.9480 C   0  0  0  0  0  3  0  0  0  0  0  0
  -21.6510   -5.0930   24.9270 C   0  0  0  0  0  0  0  0  0  0  0  0
  -22.0510   -4.4650   23.7340 C   0  0  0  0  0  3  0  0  0  0  0  0
  -22.2030   -5.2190   22.5590 C   0  0  0  0  0  0  0  0  0  0  0  0
  -22.5680   -4.6070   21.4070 F   0  0  0  0  0  0  0  0  0  0  0  0
  -21.5030   -4.3610   26.0560 F   0  0  0  0  0  0  0  0  0  0  0  0
  -23.5460  -13.8560   21.0310 C   0  0  0  0  0  0  0  0  0  0  0  0
  -22.8580  -13.2260   21.9730 N   0  0  0  0  0  0  0  0  0  0  0  0
  -23.1230  -14.8940   20.5210 O   0  0  0  0  0  0  0  0  0  0  0  0
  -23.2100  -12.3920   22.4200 H   0  0  0  0  0  0  0  0  0  0  0  0
  -21.9590  -13.5890   22.2580 H   0  0  0  0  0  0  0  0  0  0  0  0
  -26.1890  -15.3640   19.9840 N   0  0  0  0  0  0  0  0  0  0  0  0
  -25.4400  -16.0390   20.1000 H   0  0  0  0  0  0  0  0  0  0  0  0
  -26.9120  -15.6910   19.3560 H   0  0  0  0  0  0  0  0  0  0  0  0
  -29.0600  -21.6610   20.2680 C   0  0  0  0  0  2  0  0  0  0  0  0
  -29.4310  -23.2750   19.9730 C   0  0  0  0  0  3  0  0  0  0  0  0
  -28.3800  -24.5320   20.3190 C   0  0  0  0  0  3  0  0  0  0  0  0
  -28.6400  -26.0590   20.4280 O   0  0  0  0  0  0  0  0  0  0  0  0
  -24.6280  -31.6480   23.1420 C   0  0  0  0  0  0  0  0  0  0  0  0
  -27.5480  -26.9920   20.3230 C   0  0  0  0  0  0  0  0  0  0  0  0
  -23.5800  -30.1790   21.4640 C   0  0  0  0  0  3  0  0  0  0  0  0
  -25.1600  -28.6370   20.1620 C   0  0  0  0  0  0  0  0  0  0  0  0
  -26.1280  -30.5320   21.4450 C   0  0  0  0  0  2  0  0  0  0  0  0
  -26.2890  -29.1350   20.8250 C   0  0  0  0  0  0  0  0  0  0  0  0
  -27.4850  -28.3270   20.8870 C   0  0  0  0  0  3  0  0  0  0  0  0
  -26.3880  -26.5990   19.6160 C   0  0  0  0  0  3  0  0  0  0  0  0
  -25.2180  -27.3790   19.5490 C   0  0  0  0  0  3  0  0  0  0  0  0
  -23.9040  -29.4870   20.1170 C   0  0  0  0  0  2  0  0  0  0  0  0
  -24.7960  -30.8080   22.0740 N   0  0  0  0  0  0  0  0  0  0  0  0
  -23.5020  -31.9040   23.5920 O   0  0  0  0  0  0  0  0  0  0  0  0
  -22.8780  -29.1660   22.4020 C   0  0  0  0  0  0  0  0  0  0  0  0
  -21.5700  -28.9410   22.1860 N   0  0  0  0  0  0  0  0  0  0  0  0
  -23.5150  -28.5840   23.2830 O   0  0  0  0  0  0  0  0  0  0  0  0
  -21.1140  -29.4590   21.4500 H   0  0  0  0  0  0  0  0  0  0  0  0
  -18.2190  -27.5920   22.4570 C   0  0  0  0  0  0  0  0  0  0  0  0
  -20.7310  -27.9920   22.9220 C   0  0  0  0  0  3  0  0  0  0  0  0
  -20.9510  -26.5480   22.4130 C   0  0  0  0  0  2  0  0  0  0  0  0
  -19.9550  -26.1330   21.3260 C   0  0  0  0  0  2  0  0  0  0  0  0
  -18.5190  -26.2330   21.8490 C   0  0  0  0  0  2  0  0  0  0  0  0
  -19.2620  -28.4270   22.9470 C   0  0  0  0  0  0  0  0  0  0  0  0
  -18.9320  -29.6940   23.4730 C   0  0  0  0  0  3  0  0  0  0  0  0
  -17.5930  -30.1320   23.5180 C   0  0  0  0  0  3  0  0  0  0  0  0
  -16.5660  -29.2960   23.0450 C   0  0  0  0  0  3  0  0  0  0  0  0
  -16.8780  -28.0290   22.5220 C   0  0  0  0  0  3  0  0  0  0  0  0
  -25.8430  -32.3420   23.8330 C   0  0  0  0  0  3  0  0  0  0  0  0
  -26.2830  -31.6310   25.1720 C   0  0  1  0  0  0  0  0  0  0  0  0
  -25.1180  -31.3800   26.1600 C   0  0  0  0  0  1  0  0  0  0  0  0
  -26.9390  -30.2640   24.8730 C   0  0  0  0  0  1  0  0  0  0  0  0
  -27.3540  -32.4820   25.8920 C   0  0  0  0  0  1  0  0  0  0  0  0
  -25.4710  -33.7420   24.0960 N   0  0  0  0  0  0  0  0  0  0  0  0
  -25.8770  -34.7860   23.3650 C   0  0  0  0  0  0  0  0  0  0  0  0
  -26.6670  -34.6770   22.4240 O   0  0  0  0  0  0  0  0  0  0  0  0
  -24.7860  -33.9010   24.8200 H   0  0  0  0  0  0  0  0  0  0  0  0
  -24.1850  -36.5550   22.7680 C   0  0  0  0  0  1  0  0  0  0  0  0
  -25.3180  -36.1750   23.7350 C   0  0  0  0  0  3  0  0  0  0  0  0
  -27.3260  -37.0980   24.8130 C   0  0  0  0  0  1  0  0  0  0  0  0
  -26.3440  -37.2420   23.7400 N   0  0  0  0  0  0  0  0  0  0  0  0
  -25.9110  -38.1570   23.8320 H   0  0  0  0  0  0  0  0  0  0  0  0
  1 47  1  0
  2  1  2  0
  5  1  1  0
  5  6  1  0
  6  3  1  6
  6  4  1  0
  7  6  1  0
  7  3  1  1
  7  4  1  0
  8 17  1  0
  8  5  1  0
  8  7  1  0
  9 17  1  0
 10 15  1  0
 11 12  1  0
 11 10  1  0
 13 12  1  0
 13 22  1  0
 13 14  1  0
 15  9  1  0
 15 14  1  0
 16  9  2  0
 17 18  1  0
 19 20  2  0
 20 39  1  0
 21 20  1  0
 21 24  1  0
 22 23  1  0
 22 19  1  0
 23 21  2  0
 24 25  1  0
 25 26  2  0
 27 30  1  0
 27 26  1  0
 28 27  2  0
 29 28  1  0
 29 24  2  0
 30 31  1  0
 31 32  1  0
 32 33  2  0
 34 33  1  0
 34 38  1  0
 35 34  2  0
 36 31  2  0
 36 35  1  0
 37 36  1  0
 39 40  1  0
 40 43  1  0
 40 42  1  0
 41 39  2  0
 44 45  1  0
 44 19  1  0
 46 44  1  0
 48 47  1  0
 48 49  2  0
 49 50  1  0
 51 62  2  0
 52 50  1  0
 52 57  1  0
 53 61  1  0
 53 63  1  0
 54 56  1  0
 55 61  1  0
 56 57  2  0
 56 55  1  0
 58 52  2  0
 59 58  1  0
 59 54  2  0
 60 54  1  0
 60 53  1  0
 61 51  1  0
 63 65  2  0
 64 63  1  0
 66 64  1  0
 67 76  2  0
 67 72  1  0
 68 64  1  0
 68 72  1  0
 69 68  1  0
 70 71  1  0
 70 69  1  0
 71 67  1  0
 72 73  2  0
 73 74  1  0
 75 74  2  0
 76 75  1  0
 77 51  1  0
 77 82  1  0
 77 78  1  0
 78 81  1  1
 78 79  1  0
 80 78  1  0
 82 85  1  0
 83 87  1  0
 83 82  1  0
 84 83  2  0
 87 86  1  0
 87 89  1  0
 89 90  1  0
 89 88  1  0
M  ISO  4   9 100  17 100  49 101  50 101
M  END
>  <TORSDO>  (11) 
F 20

>  <SCORE>  (11) 
-11.753

>  <name>  (11) 
10

>  <ligand_id>  (11) 
10

>  <original_smiles>  (11) 
[H]c1c([H])c([H])c2c(c1[H])C([H])([H])C([H])([H])C([H])([H])C2([H])N([H])C(=O)C1([H])N(C(=O)C([H])(N([H])C(=O)C([H])(N([H])C([H])([H])[H])C([H])([H])[H])C(C([H])([H])[H])(C([H])([H])[H])C([H])([H])[H])C([H])([H])c2c([H])c(OC([H])([H])C([H])([H])C([H])([H])C(=O)C3([H])C([H])(N([H])C(=O)N4C([H])([H])C([H])([H])C([H])([H])C([H])(n5nc(-c6c([H])c([H])c(Oc7c([H])c([H])c(F)c([H])c7F)c([H])c6[H])c(C(=O)N([H])[H])c5N([H])[H])C4([H])[H])C4([H])C([H])([H])C3([H])C4([H])[H])c([H])c([H])c2C1([H])[H]

>  <smiles>  (11) 
[H]c1c([H])c([H])c2c(c1[H])C([H])([H])C([H])([H])C([H])([H])C2([H])N([H])C(=O)C1([H])N(C(=O)C([H])(N([H])C(=O)C([H])(N([H])C([H])([H])[H])C([H])([H])[H])C(C([H])([H])[H])(C([H])([H])[H])C([H])([H])[H])C([H])([H])c2c([H])c(OC([H])([H])C([H])([H])C([H])([H])C(=O)C3([H])C([H])(N([H])C(=O)N4C([H])([H])C([H])([H])C([H])([H])C([H])(n5nc(-c6c([H])c([H])c(Oc7c([H])c([H])c(F)c([H])c7F)c([H])c6[H])c(C(=O)N([H])[H])c5N([H])[H])C4([H])[H])C4([H])C([H])([H])C3([H])C4([H])[H])c([H])c([H])c2C1([H])[H]

$$$$
11:0:0
     RDKit          3D

 90 99  0  0  1  0  0  0  0  0999 V2000
  -28.8600  -19.3060   21.0000 C   0  0  0  0  0  0  0  0  0  0  0  0
  -28.3960  -20.5180   21.7920 C   0  0  0  0  0  2  0  0  0  0  0  0
  -28.6920  -21.7610   20.9560 C   0  0  0  0  0  2  0  0  0  0  0  0
  -27.7110  -19.4740   18.7360 C   0  0  0  0  0  2  0  0  0  0  0  0
  -27.2810  -20.9290   18.9520 C   0  0  0  0  0  2  0  0  0  0  0  0
  -29.0270  -19.6080   19.5130 C   0  0  1  0  0  0  0  0  0  0  0  0
  -28.6600  -21.3890   19.4740 C   0  0  2  0  0  0  0  0  0  0  0  0
  -29.0390  -18.2470   21.6060 O   0  0  0  0  0  0  0  0  0  0  0  0
  -30.1530  -18.3120   19.0490 C   0  0  0  0  0  2  0  0  0  0  0  0
  -30.8770  -15.4740   19.2710 C   0  0  0  0  0  0  0  0  0  0  0  0
  -30.9040  -12.9680   18.6500 C   0  0  0  0  0  2  0  0  0  0  0  0
  -29.8830  -12.6150   17.5390 C   0  0  0  0  0  2  0  0  0  0  0  0
  -28.4890  -12.3520   18.1360 C   0  0  0  0  0  2  0  0  0  0  0  0
  -28.1040  -13.4040   19.2080 C   0  0  0  0  0  3  0  0  0  0  0  0
  -29.2430  -13.6810   20.2100 C   0  0  0  0  0  2  0  0  0  0  0  0
  -30.3890  -14.1540   19.4200 N   0  0  0  0  0  0  0  0  0  0  0  0
  -32.0580  -15.5300   18.9020 O   0  0  0  0  0  0  0  0  0  0  0  0
  -30.0380  -16.6780   19.3420 N   0  0  0  0  0  0  0  0  0  0  0  0
  -29.1080  -16.4320   19.6490 H   0  0  0  0  0  0  0  0  0  0  0  0
  -25.8690  -13.9670   20.3000 C   0  0  0  0  0  0  0  0  0  0  0  0
  -24.8450  -13.1910   20.7670 C   0  0  0  0  0  0  0  0  0  0  0  0
  -25.2660  -11.8360   20.5970 C   0  0  0  0  0  0  0  0  0  0  0  0
  -26.8450  -13.0870   19.8700 N   0  0  0  0  0  0  0  0  0  0  0  0
  -26.5040  -11.7940   20.1130 N   0  0  0  0  0  0  0  0  0  0  0  0
  -24.5360  -10.5790   20.8070 C   0  0  0  0  0  0  0  0  0  0  0  0
  -24.9600   -9.6280   21.7610 C   0  0  0  0  0  3  0  0  0  0  0  0
  -24.2280   -8.4380   21.9590 C   0  0  0  0  0  3  0  0  0  0  0  0
  -23.0550   -8.1910   21.2050 C   0  0  0  0  0  0  0  0  0  0  0  0
  -22.6510   -9.1310   20.2410 C   0  0  0  0  0  3  0  0  0  0  0  0
  -23.3850  -10.3120   20.0400 C   0  0  0  0  0  3  0  0  0  0  0  0
  -22.2940   -7.0510   21.3130 O   0  0  0  0  0  0  0  0  0  0  0  0
  -22.0600   -6.4550   22.5260 C   0  0  0  0  0  0  0  0  0  0  0  0
  -21.4070   -7.1360   23.5770 C   0  0  0  0  0  3  0  0  0  0  0  0
  -21.1230   -6.4620   24.7820 C   0  0  0  0  0  3  0  0  0  0  0  0
  -21.4810   -5.1090   24.9350 C   0  0  0  0  0  0  0  0  0  0  0  0
  -22.1270   -4.4290   23.8880 C   0  0  0  0  0  3  0  0  0  0  0  0
  -22.4110   -5.0990   22.6860 C   0  0  0  0  0  0  0  0  0  0  0  0
  -23.0140   -4.4330   21.6720 F   0  0  0  0  0  0  0  0  0  0  0  0
  -21.2020   -4.4600   26.0890 F   0  0  0  0  0  0  0  0  0  0  0  0
  -23.5100  -13.6790   21.2460 C   0  0  0  0  0  0  0  0  0  0  0  0
  -22.8920  -12.9620   22.1780 N   0  0  0  0  0  0  0  0  0  0  0  0
  -23.0280  -14.7310   20.8280 O   0  0  0  0  0  0  0  0  0  0  0  0
  -23.2960  -12.1090   22.5360 H   0  0  0  0  0  0  0  0  0  0  0  0
  -22.0020  -13.2730   22.5410 H   0  0  0  0  0  0  0  0  0  0  0  0
  -26.0380  -15.3440   20.1760 N   0  0  0  0  0  0  0  0  0  0  0  0
  -25.2990  -15.9950   20.4190 H   0  0  0  0  0  0  0  0  0  0  0  0
  -26.8120  -15.7860   19.6980 H   0  0  0  0  0  0  0  0  0  0  0  0
  -29.0090  -22.9930   18.7970 C   0  0  0  0  0  2  0  0  0  0  0  0
  -28.0380  -24.4850   18.9790 C   0  0  0  0  0  2  0  0  0  0  0  0
  -28.2980  -26.0900   18.8390 O   0  0  0  0  0  0  0  0  0  0  0  0
  -24.9490  -31.4840   22.8760 C   0  0  0  0  0  0  0  0  0  0  0  0
  -27.2880  -27.1590   19.0200 C   0  0  0  0  0  0  0  0  0  0  0  0
  -23.6520  -30.3570   21.1130 C   0  0  0  0  0  3  0  0  0  0  0  0
  -25.0040  -29.0000   19.3830 C   0  0  0  0  0  0  0  0  0  0  0  0
  -26.2070  -30.6020   20.8560 C   0  0  0  0  0  2  0  0  0  0  0  0
  -26.2280  -29.3130   19.9900 C   0  0  0  0  0  0  0  0  0  0  0  0
  -27.3670  -28.4180   19.7860 C   0  0  0  0  0  3  0  0  0  0  0  0
  -26.0350  -26.9970   18.3880 C   0  0  0  0  0  3  0  0  0  0  0  0
  -24.9310  -27.8660   18.5620 C   0  0  0  0  0  3  0  0  0  0  0  0
  -23.7970  -29.9000   19.6360 C   0  0  0  0  0  2  0  0  0  0  0  0
  -24.9590  -30.8310   21.6700 N   0  0  0  0  0  0  0  0  0  0  0  0
  -23.8940  -31.6900   23.4970 O   0  0  0  0  0  0  0  0  0  0  0  0
  -23.0070  -29.2200   21.9480 C   0  0  0  0  0  0  0  0  0  0  0  0
  -21.6680  -29.0890   21.8910 N   0  0  0  0  0  0  0  0  0  0  0  0
  -23.7150  -28.4610   22.6140 O   0  0  0  0  0  0  0  0  0  0  0  0
  -21.1510  -29.7510   21.3270 H   0  0  0  0  0  0  0  0  0  0  0  0
  -18.2990  -27.8770   22.4840 C   0  0  0  0  0  0  0  0  0  0  0  0
  -20.8790  -28.0450   22.5530 C   0  0  0  0  0  3  0  0  0  0  0  0
  -20.8820  -26.7360   21.7290 C   0  0  0  0  0  2  0  0  0  0  0  0
  -19.6800  -26.6040   20.7870 C   0  0  0  0  0  2  0  0  0  0  0  0
  -18.3700  -26.6610   21.5760 C   0  0  0  0  0  2  0  0  0  0  0  0
  -19.4750  -28.5330   22.9340 C   0  0  0  0  0  0  0  0  0  0  0  0
  -19.3490  -29.6710   23.7580 C   0  0  0  0  0  3  0  0  0  0  0  0
  -18.0800  -30.1540   24.1320 C   0  0  0  0  0  3  0  0  0  0  0  0
  -16.9210  -29.4950   23.6890 C   0  0  0  0  0  3  0  0  0  0  0  0
  -17.0310  -28.3570   22.8710 C   0  0  0  0  0  3  0  0  0  0  0  0
  -26.2600  -32.0210   23.5250 C   0  0  0  0  0  3  0  0  0  0  0  0
  -26.8070  -31.0890   24.6760 C   0  0  1  0  0  0  0  0  0  0  0  0
  -25.7520  -30.7470   25.7540 C   0  0  0  0  0  1  0  0  0  0  0  0
  -27.3390  -29.7560   24.1020 C   0  0  0  0  0  1  0  0  0  0  0  0
  -28.0050  -31.7720   25.3780 C   0  0  0  0  0  1  0  0  0  0  0  0
  -25.9880  -33.3700   24.0500 N   0  0  0  0  0  0  0  0  0  0  0  0
  -26.2770  -34.5130   23.4140 C   0  0  0  0  0  0  0  0  0  0  0  0
  -26.8660  -34.5420   22.3300 O   0  0  0  0  0  0  0  0  0  0  0  0
  -25.4580  -33.4210   24.9070 H   0  0  0  0  0  0  0  0  0  0  0  0
  -24.5440  -36.3380   23.4440 C   0  0  0  0  0  1  0  0  0  0  0  0
  -25.8470  -35.8340   24.0840 C   0  0  0  0  0  3  0  0  0  0  0  0
  -28.0470  -36.6210   24.8400 C   0  0  0  0  0  1  0  0  0  0  0  0
  -26.8760  -36.8950   24.0110 N   0  0  0  0  0  0  0  0  0  0  0  0
  -26.4900  -37.7910   24.2950 H   0  0  0  0  0  0  0  0  0  0  0  0
  1  8  2  0
  1  2  1  0
  3  2  1  0
  4  5  1  0
  4  6  1  0
  5  7  1  0
  6  9  1  6
  6  1  1  0
  7 48  1  6
  7  6  1  0
  7  3  1  0
  9 18  1  0
 10 18  1  0
 10 16  1  0
 11 16  1  0
 12 13  1  0
 12 11  1  0
 14 13  1  0
 14 23  1  0
 14 15  1  0
 16 15  1  0
 17 10  2  0
 18 19  1  0
 20 21  2  0
 21 40  1  0
 22 21  1  0
 22 25  1  0
 23 24  1  0
 23 20  1  0
 24 22  2  0
 25 26  1  0
 26 27  2  0
 28 31  1  0
 28 27  1  0
 29 28  2  0
 30 29  1  0
 30 25  2  0
 31 32  1  0
 32 37  2  0
 32 33  1  0
 33 34  2  0
 34 35  1  0
 35 39  1  0
 36 35  2  0
 37 36  1  0
 38 37  1  0
 40 41  1  0
 41 43  1  0
 41 44  1  0
 42 40  2  0
 45 20  1  0
 45 46  1  0
 47 45  1  0
 48 49  1  0
 50 49  1  0
 50 52  1  0
 51 62  2  0
 52 57  1  0
 53 61  1  0
 53 63  1  0
 54 60  1  0
 54 56  1  0
 55 61  1  0
 56 55  1  0
 57 56  2  0
 58 59  1  0
 58 52  2  0
 59 54  2  0
 60 53  1  0
 61 51  1  0
 63 65  2  0
 64 63  1  0
 66 64  1  0
 67 76  2  0
 67 72  1  0
 68 64  1  0
 68 72  1  0
 69 68  1  0
 70 71  1  0
 70 69  1  0
 71 67  1  0
 72 73  2  0
 73 74  1  0
 75 74  2  0
 76 75  1  0
 77 51  1  0
 77 82  1  0
 77 78  1  0
 78 81  1  1
 78 79  1  0
 80 78  1  0
 82 85  1  0
 83 82  1  0
 83 87  1  0
 84 83  2  0
 87 86  1  0
 89 87  1  0
 89 90  1  0
 89 88  1  0
M  ISO  4  10 100  18 100  49 101  50 101
M  END
>  <TORSDO>  (12) 
F 19

>  <SCORE>  (12) 
-11.159

>  <name>  (12) 
11

>  <ligand_id>  (12) 
11

>  <original_smiles>  (12) 
[H]c1c([H])c([H])c2c(c1[H])C([H])([H])C([H])([H])C([H])([H])C2([H])N([H])C(=O)C1([H])N(C(=O)C([H])(N([H])C(=O)C([H])(N([H])C([H])([H])[H])C([H])([H])[H])C(C([H])([H])[H])(C([H])([H])[H])C([H])([H])[H])C([H])([H])c2c([H])c(OC([H])([H])C([H])([H])C34C([H])([H])C([H])([H])C(=O)C3(C([H])([H])N([H])C(=O)N3C([H])([H])C([H])([H])C([H])([H])C([H])(n5nc(-c6c([H])c([H])c(Oc7c([H])c([H])c(F)c([H])c7F)c([H])c6[H])c(C(=O)N([H])[H])c5N([H])[H])C3([H])[H])C([H])([H])C4([H])[H])c([H])c([H])c2C1([H])[H]

>  <smiles>  (12) 
[H]c1c([H])c([H])c2c(c1[H])C([H])([H])C([H])([H])C([H])([H])C2([H])N([H])C(=O)C1([H])N(C(=O)C([H])(N([H])C(=O)C([H])(N([H])C([H])([H])[H])C([H])([H])[H])C(C([H])([H])[H])(C([H])([H])[H])C([H])([H])[H])C([H])([H])c2c([H])c(OC([H])([H])C([H])([H])C34C([H])([H])C([H])([H])C(=O)C3(C([H])([H])N([H])C(=O)N3C([H])([H])C([H])([H])C([H])([H])C([H])(n5nc(-c6c([H])c([H])c(Oc7c([H])c([H])c(F)c([H])c7F)c([H])c6[H])c(C(=O)N([H])[H])c5N([H])[H])C3([H])[H])C([H])([H])C4([H])[H])c([H])c([H])c2C1([H])[H]

$$$$
12:0:0
     RDKit          3D

 95103  0  0  1  0  0  0  0  0999 V2000
  -30.3290  -22.9350   21.6990 C   0  0  0  0  0  2  0  0  0  0  0  0
  -31.4710  -21.9190   21.5770 C   0  0  0  0  0  2  0  0  0  0  0  0
  -29.7570  -20.0270   21.1180 C   0  0  0  0  0  3  0  0  0  0  0  0
  -29.0430  -22.5490   20.9290 C   0  0  0  0  0  3  0  0  0  0  0  0
  -31.0790  -20.4510   21.8910 C   0  0  1  0  0  0  0  0  0  0  0  0
  -32.3690  -19.6620   21.5540 C   0  0  0  0  0  1  0  0  0  0  0  0
  -30.8170  -20.3220   23.4100 C   0  0  0  0  0  1  0  0  0  0  0  0
  -29.2240  -21.1770   20.2560 N   0  0  0  0  0  4  0  0  0  0  0  0
  -28.3400  -20.8740   19.8810 H   0  0  0  0  0  0  0  0  0  0  0  0
  -29.8400  -21.2780   19.4670 H   0  0  0  0  0  0  0  0  0  0  0  0
  -29.7240  -18.5700   20.3750 C   0  0  0  0  0  0  0  0  0  0  0  0
  -29.0850  -18.4320   19.3280 O   0  0  0  0  0  0  0  0  0  0  0  0
  -30.4730  -17.2820   20.9380 C   0  0  0  0  0  2  0  0  0  0  0  0
  -30.6550  -14.7400   20.4260 C   0  0  0  0  0  0  0  0  0  0  0  0
  -30.4240  -12.4990   19.3710 C   0  0  0  0  0  2  0  0  0  0  0  0
  -29.4880  -12.5870   18.1490 C   0  0  0  0  0  2  0  0  0  0  0  0
  -28.0180  -12.4030   18.5790 C   0  0  0  0  0  2  0  0  0  0  0  0
  -27.6430  -13.2800   19.8020 C   0  0  0  0  0  3  0  0  0  0  0  0
  -28.7010  -13.1960   20.9230 C   0  0  0  0  0  2  0  0  0  0  0  0
  -29.9990  -13.5390   20.3280 N   0  0  0  0  0  0  0  0  0  0  0  0
  -31.8410  -14.8260   20.1000 O   0  0  0  0  0  0  0  0  0  0  0  0
  -29.9290  -15.8780   20.7070 N   0  0  0  0  0  0  0  0  0  0  0  0
  -28.9410  -15.7550   20.8720 H   0  0  0  0  0  0  0  0  0  0  0  0
  -25.2500  -13.8610   20.5280 C   0  0  0  0  0  0  0  0  0  0  0  0
  -24.1910  -13.0840   20.9030 C   0  0  0  0  0  0  0  0  0  0  0  0
  -24.6610  -11.7350   20.8760 C   0  0  0  0  0  0  0  0  0  0  0  0
  -26.3000  -12.9860   20.2930 N   0  0  0  0  0  0  0  0  0  0  0  0
  -25.9520  -11.7040   20.5630 N   0  0  0  0  0  0  0  0  0  0  0  0
  -23.9400  -10.4700   21.0690 C   0  0  0  0  0  0  0  0  0  0  0  0
  -24.3800   -9.5060   22.0040 C   0  0  0  0  0  3  0  0  0  0  0  0
  -23.6630   -8.3040   22.1870 C   0  0  0  0  0  3  0  0  0  0  0  0
  -22.4890   -8.0570   21.4350 C   0  0  0  0  0  0  0  0  0  0  0  0
  -22.0670   -9.0090   20.4900 C   0  0  0  0  0  3  0  0  0  0  0  0
  -22.7850  -10.2030   20.3080 C   0  0  0  0  0  3  0  0  0  0  0  0
  -21.7420   -6.9080   21.5290 O   0  0  0  0  0  0  0  0  0  0  0  0
  -21.7020   -6.1650   22.6800 C   0  0  0  0  0  0  0  0  0  0  0  0
  -21.2770   -6.7170   23.9090 C   0  0  0  0  0  3  0  0  0  0  0  0
  -21.1870   -5.8990   25.0520 C   0  0  0  0  0  3  0  0  0  0  0  0
  -21.5080   -4.5320   24.9690 C   0  0  0  0  0  0  0  0  0  0  0  0
  -21.9260   -3.9790   23.7460 C   0  0  0  0  0  3  0  0  0  0  0  0
  -22.0180   -4.7930   22.6030 C   0  0  0  0  0  0  0  0  0  0  0  0
  -22.4020   -4.2540   21.4210 F   0  0  0  0  0  0  0  0  0  0  0  0
  -21.4140   -3.7440   26.0660 F   0  0  0  0  0  0  0  0  0  0  0  0
  -22.7920  -13.5540   21.1760 C   0  0  0  0  0  0  0  0  0  0  0  0
  -22.0650  -12.8560   22.0390 N   0  0  0  0  0  0  0  0  0  0  0  0
  -22.3520  -14.5740   20.6500 O   0  0  0  0  0  0  0  0  0  0  0  0
  -22.4350  -12.0360   22.4970 H   0  0  0  0  0  0  0  0  0  0  0  0
  -21.1230  -13.1500   22.2530 H   0  0  0  0  0  0  0  0  0  0  0  0
  -25.4010  -15.2340   20.3480 N   0  0  0  0  0  0  0  0  0  0  0  0
  -24.6120  -15.8640   20.4380 H   0  0  0  0  0  0  0  0  0  0  0  0
  -26.2300  -15.6880   19.9890 H   0  0  0  0  0  0  0  0  0  0  0  0
  -27.3390  -23.4040   19.1750 C   0  0  0  0  0  1  0  0  0  0  0  0
  -28.5570  -23.8050   20.0310 C   0  0  0  0  0  3  0  0  0  0  0  0
  -28.2280  -25.1750   20.8220 C   0  0  0  0  0  2  0  0  0  0  0  0
  -28.3280  -26.5080   20.1820 O   0  0  0  0  0  0  0  0  0  0  0  0
  -24.5710  -31.8880   23.2400 C   0  0  0  0  0  0  0  0  0  0  0  0
  -27.2020  -27.3380   20.2050 C   0  0  0  0  0  0  0  0  0  0  0  0
  -23.3720  -30.4800   21.6020 C   0  0  0  0  0  3  0  0  0  0  0  0
  -24.8290  -28.9250   20.1900 C   0  0  0  0  0  0  0  0  0  0  0  0
  -25.9090  -30.8150   21.4140 C   0  0  0  0  0  2  0  0  0  0  0  0
  -25.9950  -29.4310   20.7790 C   0  0  0  0  0  0  0  0  0  0  0  0
  -27.1900  -28.6500   20.7670 C   0  0  0  0  0  3  0  0  0  0  0  0
  -26.0140  -26.8800   19.6000 C   0  0  0  0  0  3  0  0  0  0  0  0
  -24.8390  -27.6550   19.5920 C   0  0  0  0  0  3  0  0  0  0  0  0
  -23.5890  -29.7950   20.2270 C   0  0  0  0  0  2  0  0  0  0  0  0
  -24.6370  -31.0790   22.1430 N   0  0  0  0  0  0  0  0  0  0  0  0
  -23.4870  -32.1600   23.7770 O   0  0  0  0  0  0  0  0  0  0  0  0
  -22.7100  -29.4670   22.5670 C   0  0  0  0  0  0  0  0  0  0  0  0
  -21.3850  -29.2860   22.4360 N   0  0  0  0  0  0  0  0  0  0  0  0
  -23.3890  -28.8470   23.3900 O   0  0  0  0  0  0  0  0  0  0  0  0
  -20.8960  -29.8360   21.7430 H   0  0  0  0  0  0  0  0  0  0  0  0
  -18.0110  -28.0770   22.9260 C   0  0  0  0  0  0  0  0  0  0  0  0
  -20.5670  -28.3490   23.2080 C   0  0  0  0  0  3  0  0  0  0  0  0
  -20.6790  -26.9150   22.6390 C   0  0  0  0  0  2  0  0  0  0  0  0
  -19.5830  -26.5840   21.6210 C   0  0  0  0  0  2  0  0  0  0  0  0
  -18.1970  -26.7270   22.2560 C   0  0  0  0  0  2  0  0  0  0  0  0
  -19.1250  -28.8460   23.3590 C   0  0  0  0  0  0  0  0  0  0  0  0
  -18.8980  -30.1110   23.9440 C   0  0  0  0  0  3  0  0  0  0  0  0
  -17.5910  -30.6080   24.0980 C   0  0  0  0  0  3  0  0  0  0  0  0
  -16.4910  -29.8380   23.6820 C   0  0  0  0  0  3  0  0  0  0  0  0
  -16.7030  -28.5730   23.1030 C   0  0  0  0  0  3  0  0  0  0  0  0
  -25.8510  -32.5260   23.8640 C   0  0  0  0  0  3  0  0  0  0  0  0
  -26.3640  -31.7630   25.1470 C   0  0  1  0  0  0  0  0  0  0  0  0
  -25.2680  -31.5360   26.2130 C   0  0  0  0  0  1  0  0  0  0  0  0
  -26.9460  -30.3830   24.7650 C   0  0  0  0  0  1  0  0  0  0  0  0
  -27.5110  -32.5630   25.8100 C   0  0  0  0  0  1  0  0  0  0  0  0
  -25.5410  -33.9260   24.1840 N   0  0  0  0  0  0  0  0  0  0  0  0
  -25.8790  -34.9740   23.4220 C   0  0  0  0  0  0  0  0  0  0  0  0
  -26.5540  -34.8650   22.3950 O   0  0  0  0  0  0  0  0  0  0  0  0
  -24.9470  -34.0860   24.9850 H   0  0  0  0  0  0  0  0  0  0  0  0
  -24.1600  -36.7710   23.0380 C   0  0  0  0  0  1  0  0  0  0  0  0
  -25.3890  -36.3660   23.8680 C   0  0  0  0  0  3  0  0  0  0  0  0
  -27.5140  -37.2490   24.7240 C   0  0  0  0  0  1  0  0  0  0  0  0
  -26.4250  -37.4170   23.7660 N   0  0  0  0  0  0  0  0  0  0  0  0
  -26.0180  -38.3380   23.9080 H   0  0  0  0  0  0  0  0  0  0  0  0
  2  1  1  0
  2  5  1  0
  3 11  1  0
  3  5  1  0
  4 53  1  0
  4  1  1  0
  5  7  1  1
  6  5  1  0
  8  4  1  0
  8  3  1  0
  9  8  1  0
 10  8  1  0
 11 13  1  0
 12 11  2  0
 14 22  1  0
 15 20  1  0
 16 17  1  0
 16 15  1  0
 18 17  1  0
 18 27  1  0
 18 19  1  0
 20 14  1  0
 20 19  1  0
 21 14  2  0
 22 23  1  0
 22 13  1  0
 24 25  2  0
 25 44  1  0
 26 25  1  0
 26 29  1  0
 27 24  1  0
 27 28  1  0
 28 26  2  0
 29 30  1  0
 30 31  2  0
 32 35  1  0
 32 31  1  0
 33 32  2  0
 34 33  1  0
 34 29  2  0
 35 36  1  0
 36 37  1  0
 37 38  2  0
 39 38  1  0
 39 43  1  0
 40 39  2  0
 41 36  2  0
 41 40  1  0
 42 41  1  0
 44 45  1  0
 45 48  1  0
 45 47  1  0
 46 44  2  0
 49 50  1  0
 49 24  1  0
 51 49  1  0
 53 52  1  0
 53 54  1  0
 55 57  1  0
 55 54  1  0
 56 67  2  0
 57 62  1  0
 58 66  1  0
 58 68  1  0
 59 65  1  0
 59 61  1  0
 60 66  1  0
 61 60  1  0
 62 61  2  0
 63 57  2  0
 64 63  1  0
 64 59  2  0
 65 58  1  0
 66 56  1  0
 68 70  2  0
 69 68  1  0
 71 69  1  0
 72 81  2  0
 72 77  1  0
 73 69  1  0
 73 77  1  0
 74 73  1  0
 75 76  1  0
 75 74  1  0
 76 72  1  0
 77 78  2  0
 78 79  1  0
 80 79  2  0
 81 80  1  0
 82 56  1  0
 82 87  1  0
 82 83  1  0
 83 86  1  1
 83 84  1  0
 85 83  1  0
 87 90  1  0
 88 92  1  0
 88 87  1  0
 89 88  2  0
 92 91  1  0
 94 92  1  0
 94 95  1  0
 94 93  1  0
M  ISO  4  14 100  22 100  54 101  55 101
M  END
>  <TORSDO>  (13) 
F 20

>  <SCORE>  (13) 
-14.136

>  <name>  (13) 
12

>  <ligand_id>  (13) 
12

>  <original_smiles>  (13) 
[H]c1c([H])c([H])c2c(c1[H])C([H])([H])C([H])([H])C([H])([H])C2([H])N([H])C(=O)C1([H])N(C(=O)C([H])(N([H])C(=O)C([H])(N([H])C([H])([H])[H])C([H])([H])[H])C(C([H])([H])[H])(C([H])([H])[H])C([H])([H])[H])C([H])([H])c2c([H])c(OC([H])([H])C([H])(C([H])([H])[H])C3([H])C([H])([H])C([H])([H])C(C([H])([H])[H])(C([H])([H])[H])C([H])(C(=O)C([H])([H])N([H])C(=O)N4C([H])([H])C([H])([H])C([H])([H])C([H])(n5nc(-c6c([H])c([H])c(Oc7c([H])c([H])c(F)c([H])c7F)c([H])c6[H])c(C(=O)N([H])[H])c5N([H])[H])C4([H])[H])[N+]3([H])[H])c([H])c([H])c2C1([H])[H]

>  <smiles>  (13) 
[H]c1c([H])c([H])c2c(c1[H])C([H])([H])C([H])([H])C([H])([H])C2([H])N([H])C(=O)C1([H])N(C(=O)C([H])(N([H])C(=O)C([H])(N([H])C([H])([H])[H])C([H])([H])[H])C(C([H])([H])[H])(C([H])([H])[H])C([H])([H])[H])C([H])([H])c2c([H])c(OC([H])([H])C([H])(C([H])([H])[H])C3([H])C([H])([H])C([H])([H])C(C([H])([H])[H])(C([H])([H])[H])C([H])(C(=O)C([H])([H])N([H])C(=O)N4C([H])([H])C([H])([H])C([H])([H])C([H])(n5nc(-c6c([H])c([H])c(Oc7c([H])c([H])c(F)c([H])c7F)c([H])c6[H])c(C(=O)N([H])[H])c5N([H])[H])C4([H])[H])[N+]3([H])[H])c([H])c([H])c2C1([H])[H]

$$$$
13:0:0
     RDKit          3D

 92101  0  0  1  0  0  0  0  0999 V2000
  -30.7260  -15.2980   20.5710 C   0  0  0  0  0  0  0  0  0  0  0  0
  -30.6300  -12.9100   19.6760 C   0  0  0  0  0  2  0  0  0  0  0  0
  -29.7660  -12.7960   18.4010 C   0  0  0  0  0  2  0  0  0  0  0  0
  -28.2920  -12.5670   18.7780 C   0  0  0  0  0  2  0  0  0  0  0  0
  -27.8180  -13.5170   19.9110 C   0  0  0  0  0  3  0  0  0  0  0  0
  -28.8230  -13.6160   21.0780 C   0  0  0  0  0  2  0  0  0  0  0  0
  -30.0970  -14.0470   20.4940 N   0  0  0  0  0  0  0  0  0  0  0  0
  -31.9440  -15.2720   20.3500 O   0  0  0  0  0  0  0  0  0  0  0  0
  -29.2650  -17.4180   21.4440 C   0  0  0  0  0  2  0  0  0  0  0  0
  -30.3830  -17.6600   19.4460 C   0  0  0  0  0  3  0  0  0  0  0  0
  -28.7990  -18.8840   20.8770 C   0  0  0  0  0  3  0  0  0  0  0  0
  -29.4800  -19.0110   19.5830 C   0  0  0  0  0  3  0  0  0  0  0  0
  -29.4980  -20.3070   20.5360 C   0  0  0  0  0  3  0  0  0  0  0  0
  -30.0490  -16.5770   20.4580 N   0  0  0  0  0  0  0  0  0  0  0  0
  -25.4100  -14.0670   20.5580 C   0  0  0  0  0  0  0  0  0  0  0  0
  -24.3390  -13.2830   20.8860 C   0  0  0  0  0  0  0  0  0  0  0  0
  -24.8160  -11.9360   20.8800 C   0  0  0  0  0  0  0  0  0  0  0  0
  -26.4690  -13.1990   20.3630 N   0  0  0  0  0  0  0  0  0  0  0  0
  -26.1200  -11.9120   20.6260 N   0  0  0  0  0  0  0  0  0  0  0  0
  -24.0900  -10.6670   21.0430 C   0  0  0  0  0  0  0  0  0  0  0  0
  -24.4610   -9.7230   22.0260 C   0  0  0  0  0  3  0  0  0  0  0  0
  -23.7360   -8.5210   22.1780 C   0  0  0  0  0  3  0  0  0  0  0  0
  -22.6230   -8.2540   21.3470 C   0  0  0  0  0  0  0  0  0  0  0  0
  -22.2690   -9.1870   20.3560 C   0  0  0  0  0  3  0  0  0  0  0  0
  -22.9970  -10.3790   20.2000 C   0  0  0  0  0  3  0  0  0  0  0  0
  -21.8720   -7.1050   21.4040 O   0  0  0  0  0  0  0  0  0  0  0  0
  -21.7060   -6.4130   22.5780 C   0  0  0  0  0  0  0  0  0  0  0  0
  -21.1050   -7.0020   23.7120 C   0  0  0  0  0  3  0  0  0  0  0  0
  -20.8900   -6.2320   24.8730 C   0  0  0  0  0  3  0  0  0  0  0  0
  -21.2680   -4.8760   24.9000 C   0  0  0  0  0  0  0  0  0  0  0  0
  -21.8640   -4.2890   23.7700 C   0  0  0  0  0  3  0  0  0  0  0  0
  -22.0780   -5.0540   22.6110 C   0  0  0  0  0  0  0  0  0  0  0  0
  -22.6340   -4.4770   21.5190 F   0  0  0  0  0  0  0  0  0  0  0  0
  -21.0530   -4.1350   26.0130 F   0  0  0  0  0  0  0  0  0  0  0  0
  -22.9280  -13.7490   21.0940 C   0  0  0  0  0  0  0  0  0  0  0  0
  -22.1740  -13.0590   21.9420 N   0  0  0  0  0  0  0  0  0  0  0  0
  -22.5020  -14.7600   20.5360 O   0  0  0  0  0  0  0  0  0  0  0  0
  -22.5300  -12.2400   22.4120 H   0  0  0  0  0  0  0  0  0  0  0  0
  -21.2250  -13.3550   22.1220 H   0  0  0  0  0  0  0  0  0  0  0  0
  -25.5730  -15.4390   20.3820 N   0  0  0  0  0  0  0  0  0  0  0  0
  -24.8050  -16.0960   20.4680 H   0  0  0  0  0  0  0  0  0  0  0  0
  -26.4330  -15.8740   20.0670 H   0  0  0  0  0  0  0  0  0  0  0  0
  -30.1620  -17.0580   18.0460 C   0  0  0  0  0  0  0  0  0  0  0  0
  -31.1250  -17.1920   17.1470 N   0  0  0  0  0  0  0  0  0  0  0  0
  -29.1150  -16.4720   17.7690 O   0  0  0  0  0  0  0  0  0  0  0  0
  -31.9850  -17.6720   17.3790 H   0  0  0  0  0  0  0  0  0  0  0  0
  -31.0130  -16.8060   16.2200 H   0  0  0  0  0  0  0  0  0  0  0  0
  -28.6600  -21.7700   20.2170 C   0  0  0  0  0  2  0  0  0  0  0  0
  -29.0290  -23.3970   20.5060 C   0  0  0  0  0  0  0  0  0  0  0  0
  -30.1230  -23.6340   21.0270 O   0  0  0  0  0  0  0  0  0  0  0  0
  -28.0390  -24.7230   20.1450 C   0  0  0  0  0  2  0  0  0  0  0  0
  -28.3470  -26.2560   20.4420 O   0  0  0  0  0  0  0  0  0  0  0  0
  -24.6720  -32.0250   23.3770 C   0  0  0  0  0  0  0  0  0  0  0  0
  -27.3140  -27.2850   20.3620 C   0  0  0  0  0  0  0  0  0  0  0  0
  -23.5020  -30.6230   21.7230 C   0  0  0  0  0  3  0  0  0  0  0  0
  -24.9800  -29.0590   20.3060 C   0  0  0  0  0  0  0  0  0  0  0  0
  -26.0610  -30.8930   21.5900 C   0  0  0  0  0  2  0  0  0  0  0  0
  -26.1530  -29.4980   20.9330 C   0  0  0  0  0  0  0  0  0  0  0  0
  -27.3190  -28.6280   20.9440 C   0  0  0  0  0  3  0  0  0  0  0  0
  -26.1120  -26.9700   19.6900 C   0  0  0  0  0  3  0  0  0  0  0  0
  -24.9780  -27.8110   19.6660 C   0  0  0  0  0  3  0  0  0  0  0  0
  -23.7460  -29.9510   20.3440 C   0  0  0  0  0  2  0  0  0  0  0  0
  -24.7660  -31.2050   22.2840 N   0  0  0  0  0  0  0  0  0  0  0  0
  -23.5780  -32.2970   23.8940 O   0  0  0  0  0  0  0  0  0  0  0  0
  -22.8200  -29.6080   22.6750 C   0  0  0  0  0  0  0  0  0  0  0  0
  -21.5000  -29.4010   22.5130 N   0  0  0  0  0  0  0  0  0  0  0  0
  -23.4820  -29.0100   23.5270 O   0  0  0  0  0  0  0  0  0  0  0  0
  -21.0210  -29.9330   21.8000 H   0  0  0  0  0  0  0  0  0  0  0  0
  -18.1380  -28.1170   22.9410 C   0  0  0  0  0  0  0  0  0  0  0  0
  -20.6820  -28.4510   23.2720 C   0  0  0  0  0  3  0  0  0  0  0  0
  -20.8370  -27.0170   22.7150 C   0  0  0  0  0  2  0  0  0  0  0  0
  -19.7710  -26.6560   21.6760 C   0  0  0  0  0  2  0  0  0  0  0  0
  -18.3690  -26.7690   22.2810 C   0  0  0  0  0  2  0  0  0  0  0  0
  -19.2250  -28.9140   23.3920 C   0  0  0  0  0  0  0  0  0  0  0  0
  -18.9550  -30.1730   23.9700 C   0  0  0  0  0  3  0  0  0  0  0  0
  -17.6330  -30.6370   24.1030 C   0  0  0  0  0  3  0  0  0  0  0  0
  -16.5610  -29.8380   23.6680 C   0  0  0  0  0  3  0  0  0  0  0  0
  -16.8150  -28.5810   23.0920 C   0  0  0  0  0  3  0  0  0  0  0  0
  -25.9360  -32.6740   24.0180 C   0  0  0  0  0  3  0  0  0  0  0  0
  -26.4190  -31.9290   25.3240 C   0  0  1  0  0  0  0  0  0  0  0  0
  -25.2890  -31.6760   26.3510 C   0  0  0  0  0  1  0  0  0  0  0  0
  -27.0500  -30.5610   24.9800 C   0  0  0  0  0  1  0  0  0  0  0  0
  -27.5230  -32.7590   26.0210 C   0  0  0  0  0  1  0  0  0  0  0  0
  -25.6160  -34.0780   24.3210 N   0  0  0  0  0  0  0  0  0  0  0  0
  -25.9180  -35.1190   23.5340 C   0  0  0  0  0  0  0  0  0  0  0  0
  -26.5600  -35.0000   22.4880 O   0  0  0  0  0  0  0  0  0  0  0  0
  -25.0420  -34.2430   25.1350 H   0  0  0  0  0  0  0  0  0  0  0  0
  -24.1400  -36.8750   23.2230 C   0  0  0  0  0  1  0  0  0  0  0  0
  -25.4300  -36.5140   23.9750 C   0  0  0  0  0  3  0  0  0  0  0  0
  -27.5810  -37.4750   24.6700 C   0  0  0  0  0  1  0  0  0  0  0  0
  -26.4340  -37.5820   23.7730 N   0  0  0  0  0  0  0  0  0  0  0  0
  -26.0160  -38.4980   23.9030 H   0  0  0  0  0  0  0  0  0  0  0  0
  2  7  1  0
  3  4  1  0
  3  2  1  0
  5  4  1  0
  5 18  1  0
  5  6  1  0
  7  1  1  0
  7  6  1  0
  8  1  2  0
 10 43  1  0
 10 12  1  0
 10 14  1  0
 11  9  1  0
 12 13  1  0
 12 11  1  0
 13 11  1  0
 14  1  1  0
 14  9  1  0
 15 16  2  0
 16 35  1  0
 17 16  1  0
 17 20  1  0
 18 15  1  0
 18 19  1  0
 19 17  2  0
 20 21  1  0
 21 22  2  0
 23 26  1  0
 23 22  1  0
 24 23  2  0
 25 24  1  0
 25 20  2  0
 26 27  1  0
 27 32  2  0
 27 28  1  0
 28 29  2  0
 29 30  1  0
 30 34  1  0
 31 30  2  0
 32 31  1  0
 33 32  1  0
 35 36  1  0
 36 39  1  0
 36 38  1  0
 37 35  2  0
 40 41  1  0
 40 15  1  0
 42 40  1  0
 44 46  1  0
 44 43  1  0
 45 43  2  0
 47 44  1  0
 48 49  1  0
 48 13  1  0
 49 50  2  0
 51 52  1  0
 51 49  1  0
 53 64  2  0
 53 79  1  0
 54 52  1  0
 54 59  1  0
 55 63  1  0
 55 65  1  0
 56 62  1  0
 56 58  1  0
 57 63  1  0
 58 59  2  0
 58 57  1  0
 60 54  2  0
 61 60  1  0
 61 56  2  0
 62 55  1  0
 63 53  1  0
 65 67  2  0
 66 65  1  0
 66 70  1  0
 68 66  1  0
 69 78  2  0
 69 74  1  0
 70 74  1  0
 71 70  1  0
 72 73  1  0
 72 71  1  0
 73 69  1  0
 74 75  2  0
 75 76  1  0
 77 76  2  0
 78 77  1  0
 79 84  1  0
 79 80  1  0
 80 83  1  1
 80 81  1  0
 82 80  1  0
 84 87  1  0
 85 89  1  0
 85 84  1  0
 86 85  2  0
 88 89  1  0
 91 92  1  0
 91 89  1  0
 91 90  1  0
M  ISO  4   1 100  14 100  51 101  52 101
M  END
>  <TORSDO>  (14) 
F 19

>  <SCORE>  (14) 
-12.972

>  <name>  (14) 
13

>  <ligand_id>  (14) 
13

>  <original_smiles>  (14) 
[H]c1c([H])c([H])c2c(c1[H])C([H])([H])C([H])([H])C([H])([H])C2([H])N([H])C(=O)C1([H])N(C(=O)C([H])(N([H])C(=O)C([H])(N([H])C([H])([H])[H])C([H])([H])[H])C(C([H])([H])[H])(C([H])([H])[H])C([H])([H])[H])C([H])([H])c2c([H])c(OC([H])([H])C(=O)C([H])([H])C3([H])C4([H])C([H])([H])N(C(=O)N5C([H])([H])C([H])([H])C([H])([H])C([H])(n6nc(-c7c([H])c([H])c(Oc8c([H])c([H])c(F)c([H])c8F)c([H])c7[H])c(C(=O)N([H])[H])c6N([H])[H])C5([H])[H])C([H])(C(=O)N([H])[H])C34[H])c([H])c([H])c2C1([H])[H]

>  <smiles>  (14) 
[H]c1c([H])c([H])c2c(c1[H])C([H])([H])C([H])([H])C([H])([H])C2([H])N([H])C(=O)C1([H])N(C(=O)C([H])(N([H])C(=O)C([H])(N([H])C([H])([H])[H])C([H])([H])[H])C(C([H])([H])[H])(C([H])([H])[H])C([H])([H])[H])C([H])([H])c2c([H])c(OC([H])([H])C(=O)C([H])([H])C3([H])C4([H])C([H])([H])N(C(=O)N5C([H])([H])C([H])([H])C([H])([H])C([H])(n6nc(-c7c([H])c([H])c(Oc8c([H])c([H])c(F)c([H])c8F)c([H])c7[H])c(C(=O)N([H])[H])c6N([H])[H])C5([H])[H])C([H])(C(=O)N([H])[H])C34[H])c([H])c([H])c2C1([H])[H]

$$$$
14:0:0
     RDKit          3D

 90 99  0  0  1  0  0  0  0  0999 V2000
  -28.0400  -20.6520   21.4810 C   0  0  0  0  0  2  0  0  0  0  0  0
  -27.7530  -21.1580   20.0600 C   0  0  0  0  0  2  0  0  0  0  0  0
  -30.6310  -20.0010   21.3410 C   0  0  0  0  0  2  0  0  0  0  0  0
  -29.1750  -19.6600   21.3700 C   0  0  0  0  0  3  0  0  0  0  0  0
  -29.1100  -21.2980   19.3630 C   0  0  0  0  0  3  0  0  0  0  0  0
  -29.8920  -19.8420   20.0270 C   0  0  1  0  0  0  0  0  0  0  0  0
  -30.5100  -23.2150   18.2610 C   0  0  0  0  0  1  0  0  0  0  0  0
  -30.1680  -23.4520   20.7000 C   0  0  0  0  0  1  0  0  0  0  0  0
  -29.4620  -23.0720   19.3850 C   0  0  2  0  0  0  0  0  0  0  0  0
  -28.3330  -24.4590   19.1890 C   0  0  0  0  0  2  0  0  0  0  0  0
  -28.4680  -26.0950   19.3120 O   0  0  0  0  0  0  0  0  0  0  0  0
  -24.6560  -31.5100   22.9240 C   0  0  0  0  0  0  0  0  0  0  0  0
  -27.3740  -27.1050   19.3790 C   0  0  0  0  0  0  0  0  0  0  0  0
  -23.4860  -30.1950   21.2030 C   0  0  0  0  0  3  0  0  0  0  0  0
  -24.9640  -28.8230   19.5880 C   0  0  0  0  0  0  0  0  0  0  0  0
  -26.0210  -30.5820   20.9900 C   0  0  0  0  0  2  0  0  0  0  0  0
  -26.1480  -29.2490   20.1990 C   0  0  0  0  0  0  0  0  0  0  0  0
  -27.3450  -28.4150   20.0670 C   0  0  0  0  0  3  0  0  0  0  0  0
  -26.1440  -26.8230   18.7430 C   0  0  0  0  0  3  0  0  0  0  0  0
  -24.9820  -27.6340   18.8410 C   0  0  0  0  0  3  0  0  0  0  0  0
  -23.6980  -29.6580   19.7610 C   0  0  0  0  0  2  0  0  0  0  0  0
  -24.7420  -30.7850   21.7610 N   0  0  0  0  0  0  0  0  0  0  0  0
  -23.5720  -31.6800   23.5070 O   0  0  0  0  0  0  0  0  0  0  0  0
  -22.8930  -29.0730   22.0960 C   0  0  0  0  0  0  0  0  0  0  0  0
  -21.5750  -28.8180   21.9860 N   0  0  0  0  0  0  0  0  0  0  0  0
  -23.6260  -28.4330   22.8570 O   0  0  0  0  0  0  0  0  0  0  0  0
  -21.0290  -29.3890   21.3520 H   0  0  0  0  0  0  0  0  0  0  0  0
  -18.3120  -27.2990   22.4600 C   0  0  0  0  0  0  0  0  0  0  0  0
  -20.8470  -27.7580   22.6950 C   0  0  0  0  0  3  0  0  0  0  0  0
  -21.0530  -26.3880   22.0100 C   0  0  0  0  0  2  0  0  0  0  0  0
  -19.9590  -26.0490   20.9930 C   0  0  0  0  0  2  0  0  0  0  0  0
  -18.5850  -26.0280   21.6700 C   0  0  0  0  0  2  0  0  0  0  0  0
  -19.3750  -28.1180   22.9270 C   0  0  0  0  0  0  0  0  0  0  0  0
  -19.0680  -29.3020   23.6310 C   0  0  0  0  0  3  0  0  0  0  0  0
  -17.7310  -29.6770   23.8610 C   0  0  0  0  0  3  0  0  0  0  0  0
  -16.6830  -28.8580   23.4100 C   0  0  0  0  0  3  0  0  0  0  0  0
  -16.9750  -27.6670   22.7190 C   0  0  0  0  0  3  0  0  0  0  0  0
  -25.9130  -32.1760   23.5610 C   0  0  0  0  0  3  0  0  0  0  0  0
  -26.4830  -31.3650   24.7920 C   0  0  1  0  0  0  0  0  0  0  0  0
  -25.4160  -31.0090   25.8560 C   0  0  0  0  0  1  0  0  0  0  0  0
  -27.1390  -30.0460   24.3340 C   0  0  0  0  0  1  0  0  0  0  0  0
  -27.5980  -32.1840   25.4840 C   0  0  0  0  0  1  0  0  0  0  0  0
  -25.5330  -33.5330   23.9900 N   0  0  0  0  0  0  0  0  0  0  0  0
  -25.8080  -34.6560   23.3140 C   0  0  0  0  0  0  0  0  0  0  0  0
  -26.4670  -34.6580   22.2730 O   0  0  0  0  0  0  0  0  0  0  0  0
  -24.9430  -33.5950   24.8070 H   0  0  0  0  0  0  0  0  0  0  0  0
  -23.9970  -36.3970   23.1240 C   0  0  0  0  0  1  0  0  0  0  0  0
  -25.2710  -35.9870   23.8810 C   0  0  0  0  0  3  0  0  0  0  0  0
  -27.3720  -36.9140   24.7580 C   0  0  0  0  0  1  0  0  0  0  0  0
  -26.2530  -37.0930   23.8330 N   0  0  0  0  0  0  0  0  0  0  0  0
  -25.8060  -37.9790   24.0510 H   0  0  0  0  0  0  0  0  0  0  0  0
  -30.2310  -18.2920   19.2770 C   0  0  0  0  0  2  0  0  0  0  0  0
  -31.0620  -15.4980   19.6710 C   0  0  0  0  0  0  0  0  0  0  0  0
  -30.9910  -13.0140   18.9560 C   0  0  0  0  0  2  0  0  0  0  0  0
  -30.0120  -12.8110   17.7710 C   0  0  0  0  0  2  0  0  0  0  0  0
  -28.5670  -12.6180   18.2690 C   0  0  0  0  0  2  0  0  0  0  0  0
  -28.2030  -13.6120   19.4040 C   0  0  0  0  0  3  0  0  0  0  0  0
  -29.3050  -13.7520   20.4720 C   0  0  0  0  0  2  0  0  0  0  0  0
  -30.5210  -14.1920   19.7700 N   0  0  0  0  0  0  0  0  0  0  0  0
  -32.2360  -15.5240   19.2740 O   0  0  0  0  0  0  0  0  0  0  0  0
  -30.2760  -16.7290   19.8340 N   0  0  0  0  0  0  0  0  0  0  0  0
  -29.3830  -16.4750   20.2380 H   0  0  0  0  0  0  0  0  0  0  0  0
  -25.9210  -14.2420   20.3510 C   0  0  0  0  0  0  0  0  0  0  0  0
  -24.8540  -13.4920   20.7680 C   0  0  0  0  0  0  0  0  0  0  0  0
  -25.2520  -12.1270   20.6410 C   0  0  0  0  0  0  0  0  0  0  0  0
  -26.9000  -13.3330   19.9890 N   0  0  0  0  0  0  0  0  0  0  0  0
  -26.5140  -12.0510   20.2280 N   0  0  0  0  0  0  0  0  0  0  0  0
  -24.4810  -10.8910   20.8320 C   0  0  0  0  0  0  0  0  0  0  0  0
  -24.8630   -9.9200   21.7870 C   0  0  0  0  0  3  0  0  0  0  0  0
  -24.0890   -8.7540   21.9680 C   0  0  0  0  0  3  0  0  0  0  0  0
  -22.9220   -8.5470   21.1930 C   0  0  0  0  0  0  0  0  0  0  0  0
  -22.5600   -9.5060   20.2310 C   0  0  0  0  0  3  0  0  0  0  0  0
  -23.3320  -10.6650   20.0490 C   0  0  0  0  0  3  0  0  0  0  0  0
  -22.1250   -7.4300   21.2790 O   0  0  0  0  0  0  0  0  0  0  0  0
  -21.9240   -6.7820   22.4710 C   0  0  0  0  0  0  0  0  0  0  0  0
  -21.3480   -7.4330   23.5850 C   0  0  0  0  0  3  0  0  0  0  0  0
  -21.0910   -6.7120   24.7680 C   0  0  0  0  0  3  0  0  0  0  0  0
  -21.4010   -5.3400   24.8380 C   0  0  0  0  0  0  0  0  0  0  0  0
  -21.9710   -4.6880   23.7300 C   0  0  0  0  0  3  0  0  0  0  0  0
  -22.2270   -5.4080   22.5500 C   0  0  0  0  0  0  0  0  0  0  0  0
  -22.7560   -4.7720   21.4760 F   0  0  0  0  0  0  0  0  0  0  0  0
  -21.1500   -4.6440   25.9710 F   0  0  0  0  0  0  0  0  0  0  0  0
  -23.5100  -14.0190   21.1720 C   0  0  0  0  0  0  0  0  0  0  0  0
  -22.8280  -13.3290   22.0810 N   0  0  0  0  0  0  0  0  0  0  0  0
  -23.0780  -15.0780   20.7200 O   0  0  0  0  0  0  0  0  0  0  0  0
  -23.1960  -12.4710   22.4620 H   0  0  0  0  0  0  0  0  0  0  0  0
  -21.9320  -13.6670   22.4020 H   0  0  0  0  0  0  0  0  0  0  0  0
  -26.1200  -15.6110   20.2240 N   0  0  0  0  0  0  0  0  0  0  0  0
  -25.3670  -16.2650   20.4120 H   0  0  0  0  0  0  0  0  0  0  0  0
  -26.9350  -16.0530   19.8180 H   0  0  0  0  0  0  0  0  0  0  0  0
  2  1  1  0
  4  3  1  0
  4  1  1  0
  5  9  1  0
  5  6  1  0
  5  2  1  0
  6 52  1  6
  6  3  1  0
  6  4  1  0
  9  7  1  6
  9  8  1  0
 10 11  1  0
 10  9  1  0
 11 13  1  0
 12 23  2  0
 13 18  1  0
 14 22  1  0
 14 24  1  0
 15 21  1  0
 15 17  1  0
 16 22  1  0
 17 16  1  0
 18 17  2  0
 19 20  1  0
 19 13  2  0
 20 15  2  0
 21 14  1  0
 22 12  1  0
 24 26  2  0
 25 24  1  0
 27 25  1  0
 28 37  2  0
 28 33  1  0
 29 25  1  0
 29 33  1  0
 30 29  1  0
 31 32  1  0
 31 30  1  0
 32 28  1  0
 33 34  2  0
 34 35  1  0
 36 35  2  0
 37 36  1  0
 38 12  1  0
 38 43  1  0
 38 39  1  0
 39 42  1  1
 39 40  1  0
 41 39  1  0
 43 46  1  0
 44 48  1  0
 44 43  1  0
 45 44  2  0
 48 47  1  0
 50 48  1  0
 50 51  1  0
 50 49  1  0
 52 61  1  0
 53 59  1  0
 53 61  1  0
 54 59  1  0
 55 56  1  0
 55 54  1  0
 57 56  1  0
 57 66  1  0
 57 58  1  0
 59 58  1  0
 60 53  2  0
 61 62  1  0
 63 64  2  0
 64 83  1  0
 65 64  1  0
 65 68  1  0
 66 67  1  0
 66 63  1  0
 67 65  2  0
 68 69  1  0
 69 70  2  0
 71 74  1  0
 71 70  1  0
 72 71  2  0
 73 72  1  0
 73 68  2  0
 74 75  1  0
 75 80  2  0
 75 76  1  0
 76 77  2  0
 77 78  1  0
 78 82  1  0
 79 78  2  0
 80 79  1  0
 81 80  1  0
 83 84  1  0
 84 87  1  0
 84 86  1  0
 85 83  2  0
 88 63  1  0
 88 89  1  0
 90 88  1  0
M  ISO  4  10 101  11 101  53 100  61 100
M  END
>  <TORSDO>  (15) 
F 19

>  <SCORE>  (15) 
-12.482

>  <name>  (15) 
14

>  <ligand_id>  (15) 
14

>  <original_smiles>  (15) 
[H]c1c([H])c([H])c2c(c1[H])C([H])([H])C([H])([H])C([H])([H])C2([H])N([H])C(=O)C1([H])N(C(=O)C([H])(N([H])C(=O)C([H])(N([H])C([H])([H])[H])C([H])([H])[H])C(C([H])([H])[H])(C([H])([H])[H])C([H])([H])[H])C([H])([H])c2c([H])c(OC([H])([H])C(C([H])([H])[H])(C([H])([H])[H])C3([H])C([H])([H])C([H])([H])C4([H])C([H])([H])C43C([H])([H])N([H])C(=O)N3C([H])([H])C([H])([H])C([H])([H])C([H])(n4nc(-c5c([H])c([H])c(Oc6c([H])c([H])c(F)c([H])c6F)c([H])c5[H])c(C(=O)N([H])[H])c4N([H])[H])C3([H])[H])c([H])c([H])c2C1([H])[H]

>  <smiles>  (15) 
[H]c1c([H])c([H])c2c(c1[H])C([H])([H])C([H])([H])C([H])([H])C2([H])N([H])C(=O)C1([H])N(C(=O)C([H])(N([H])C(=O)C([H])(N([H])C([H])([H])[H])C([H])([H])[H])C(C([H])([H])[H])(C([H])([H])[H])C([H])([H])[H])C([H])([H])c2c([H])c(OC([H])([H])C(C([H])([H])[H])(C([H])([H])[H])C3([H])C([H])([H])C([H])([H])C4([H])C([H])([H])C43C([H])([H])N([H])C(=O)N3C([H])([H])C([H])([H])C([H])([H])C([H])(n4nc(-c5c([H])c([H])c(Oc6c([H])c([H])c(F)c([H])c6F)c([H])c5[H])c(C(=O)N([H])[H])c4N([H])[H])C3([H])[H])c([H])c([H])c2C1([H])[H]

$$$$
15:0:0
     RDKit          3D

 88 96  0  0  1  0  0  0  0  0999 V2000
  -29.2910  -22.7020   21.7110 C   0  0  0  0  0  3  0  0  0  0  0  0
  -29.9020  -21.5530   22.2830 C   0  0  0  0  0  3  0  0  0  0  0  0
  -28.8730  -21.2980   19.8030 C   0  0  0  0  0  3  0  0  0  0  0  0
  -28.7160  -22.7190   20.4230 C   0  0  0  0  0  0  0  0  0  0  0  0
  -30.0270  -20.2720   21.6690 C   0  0  0  0  0  0  0  0  0  0  0  0
  -29.5240  -19.9960   20.3650 C   0  0  0  0  0  0  0  0  0  0  0  0
  -30.7600  -19.2070   22.4750 C   0  0  0  0  0  1  0  0  0  0  0  0
  -29.8570  -18.4060   19.6530 C   0  0  0  0  0  2  0  0  0  0  0  0
  -30.6180  -15.5080   19.9030 C   0  0  0  0  0  0  0  0  0  0  0  0
  -30.5840  -13.0530   19.0220 C   0  0  0  0  0  2  0  0  0  0  0  0
  -29.6030  -12.8420   17.8380 C   0  0  0  0  0  2  0  0  0  0  0  0
  -28.1810  -12.5560   18.3490 C   0  0  0  0  0  2  0  0  0  0  0  0
  -27.7880  -13.4910   19.5220 C   0  0  0  0  0  3  0  0  0  0  0  0
  -28.8990  -13.6340   20.5870 C   0  0  0  0  0  2  0  0  0  0  0  0
  -30.0810  -14.1820   19.8970 N   0  0  0  0  0  0  0  0  0  0  0  0
  -31.8040  -15.5240   19.5360 O   0  0  0  0  0  0  0  0  0  0  0  0
  -29.8510  -16.7750   20.1220 N   0  0  0  0  0  0  0  0  0  0  0  0
  -28.9420  -16.5350   20.4910 H   0  0  0  0  0  0  0  0  0  0  0  0
  -25.4760  -14.0160   20.4530 C   0  0  0  0  0  0  0  0  0  0  0  0
  -24.4370  -13.2250   20.8570 C   0  0  0  0  0  0  0  0  0  0  0  0
  -24.8970  -11.8760   20.7400 C   0  0  0  0  0  0  0  0  0  0  0  0
  -26.4960  -13.1510   20.1040 N   0  0  0  0  0  0  0  0  0  0  0  0
  -26.1660  -11.8550   20.3450 N   0  0  0  0  0  0  0  0  0  0  0  0
  -24.1790  -10.6080   20.9260 C   0  0  0  0  0  0  0  0  0  0  0  0
  -24.5950   -9.6530   21.8780 C   0  0  0  0  0  3  0  0  0  0  0  0
  -23.8700   -8.4530   22.0540 C   0  0  0  0  0  3  0  0  0  0  0  0
  -22.7150   -8.2010   21.2740 C   0  0  0  0  0  0  0  0  0  0  0  0
  -22.3170   -9.1470   20.3120 C   0  0  0  0  0  3  0  0  0  0  0  0
  -23.0430  -10.3360   20.1360 C   0  0  0  0  0  3  0  0  0  0  0  0
  -21.9650   -7.0520   21.3530 O   0  0  0  0  0  0  0  0  0  0  0  0
  -21.8010   -6.3800   22.5380 C   0  0  0  0  0  0  0  0  0  0  0  0
  -21.1940   -6.9870   23.6600 C   0  0  0  0  0  3  0  0  0  0  0  0
  -20.9820   -6.2420   24.8360 C   0  0  0  0  0  3  0  0  0  0  0  0
  -21.3640   -4.8880   24.8900 C   0  0  0  0  0  0  0  0  0  0  0  0
  -21.9640   -4.2790   23.7730 C   0  0  0  0  0  3  0  0  0  0  0  0
  -22.1780   -5.0240   22.6000 C   0  0  0  0  0  0  0  0  0  0  0  0
  -22.7350   -4.4280   21.5200 F   0  0  0  0  0  0  0  0  0  0  0  0
  -21.1550   -4.1680   26.0180 F   0  0  0  0  0  0  0  0  0  0  0  0
  -23.0620  -13.6940   21.2290 C   0  0  0  0  0  0  0  0  0  0  0  0
  -22.3910  -12.9800   22.1270 N   0  0  0  0  0  0  0  0  0  0  0  0
  -22.5940  -14.7320   20.7660 O   0  0  0  0  0  0  0  0  0  0  0  0
  -22.7830  -12.1440   22.5310 H   0  0  0  0  0  0  0  0  0  0  0  0
  -21.4700  -13.2810   22.4150 H   0  0  0  0  0  0  0  0  0  0  0  0
  -25.6290  -15.3940   20.3240 N   0  0  0  0  0  0  0  0  0  0  0  0
  -24.8690  -16.0380   20.5200 H   0  0  0  0  0  0  0  0  0  0  0  0
  -26.4330  -15.8460   19.9100 H   0  0  0  0  0  0  0  0  0  0  0  0
  -27.8670  -24.2060   19.9650 C   0  0  0  0  0  2  0  0  0  0  0  0
  -28.0790  -25.8340   20.2740 O   0  0  0  0  0  0  0  0  0  0  0  0
  -24.5300  -31.9130   23.1090 C   0  0  0  0  0  0  0  0  0  0  0  0
  -27.0900  -26.9640   20.1550 C   0  0  0  0  0  0  0  0  0  0  0  0
  -23.3400  -30.4860   21.4980 C   0  0  0  0  0  3  0  0  0  0  0  0
  -24.7880  -28.8640   20.0880 C   0  0  0  0  0  0  0  0  0  0  0  0
  -25.9060  -30.6940   21.3400 C   0  0  0  0  0  2  0  0  0  0  0  0
  -25.9780  -29.2710   20.7040 C   0  0  0  0  0  0  0  0  0  0  0  0
  -27.1190  -28.3410   20.7170 C   0  0  0  0  0  3  0  0  0  0  0  0
  -25.8750  -26.7240   19.4730 C   0  0  0  0  0  3  0  0  0  0  0  0
  -24.7660  -27.6110   19.4490 C   0  0  0  0  0  3  0  0  0  0  0  0
  -23.5680  -29.7840   20.1290 C   0  0  0  0  0  2  0  0  0  0  0  0
  -24.6140  -31.0600   22.0340 N   0  0  0  0  0  0  0  0  0  0  0  0
  -23.4410  -32.2030   23.6300 O   0  0  0  0  0  0  0  0  0  0  0  0
  -22.6510  -29.5040   22.4820 C   0  0  0  0  0  0  0  0  0  0  0  0
  -21.3250  -29.3060   22.3460 N   0  0  0  0  0  0  0  0  0  0  0  0
  -23.3160  -28.9170   23.3390 O   0  0  0  0  0  0  0  0  0  0  0  0
  -20.8390  -29.8300   21.6320 H   0  0  0  0  0  0  0  0  0  0  0  0
  -17.9680  -28.0040   22.8190 C   0  0  0  0  0  0  0  0  0  0  0  0
  -20.5120  -28.3690   23.1300 C   0  0  0  0  0  3  0  0  0  0  0  0
  -20.6750  -26.9220   22.6110 C   0  0  0  0  0  2  0  0  0  0  0  0
  -19.6080  -26.5250   21.5830 C   0  0  0  0  0  2  0  0  0  0  0  0
  -18.2070  -26.6420   22.1920 C   0  0  0  0  0  2  0  0  0  0  0  0
  -19.0490  -28.8220   23.2450 C   0  0  0  0  0  0  0  0  0  0  0  0
  -18.7700  -30.0920   23.7950 C   0  0  0  0  0  3  0  0  0  0  0  0
  -17.4440  -30.5480   23.9200 C   0  0  0  0  0  3  0  0  0  0  0  0
  -16.3790  -29.7290   23.5090 C   0  0  0  0  0  3  0  0  0  0  0  0
  -16.6400  -28.4590   22.9650 C   0  0  0  0  0  3  0  0  0  0  0  0
  -25.7970  -32.5750   23.7300 C   0  0  0  0  0  3  0  0  0  0  0  0
  -25.4560  -33.9630   24.0880 N   0  0  0  0  0  0  0  0  0  0  0  0
  -25.7730  -35.0450   23.3660 C   0  0  0  0  0  0  0  0  0  0  0  0
  -26.4460  -34.9810   22.3340 O   0  0  0  0  0  0  0  0  0  0  0  0
  -24.8530  -34.0810   24.8900 H   0  0  0  0  0  0  0  0  0  0  0  0
  -24.0370  -36.8440   23.0500 C   0  0  0  0  0  1  0  0  0  0  0  0
  -25.2700  -36.4170   23.8630 C   0  0  0  0  0  3  0  0  0  0  0  0
  -27.3800  -37.2990   24.7610 C   0  0  0  0  0  1  0  0  0  0  0  0
  -26.2970  -37.4820   23.7990 N   0  0  0  0  0  0  0  0  0  0  0  0
  -25.8800  -38.3960   23.9580 H   0  0  0  0  0  0  0  0  0  0  0  0
  -26.3350  -31.8070   25.0010 C   0  0  1  0  0  0  0  0  0  0  0  0
  -25.2470  -31.5140   26.0620 C   0  0  0  0  0  1  0  0  0  0  0  0
  -26.9680  -30.4570   24.5980 C   0  0  0  0  0  1  0  0  0  0  0  0
  -27.4590  -32.6290   25.6740 C   0  0  0  0  0  1  0  0  0  0  0  0
  1  2  1  0
  3  6  2  0
  3  4  1  0
  4  1  2  0
  5  2  2  0
  5  7  1  0
  6  5  1  0
  8 17  1  0
  8  6  1  0
  9 17  1  0
 10 15  1  0
 11 12  1  0
 11 10  1  0
 13 12  1  0
 13 22  1  0
 13 14  1  0
 15  9  1  0
 15 14  1  0
 16  9  2  0
 17 18  1  0
 19 20  2  0
 20 39  1  0
 21 20  1  0
 21 24  1  0
 22 23  1  0
 22 19  1  0
 23 21  2  0
 24 25  1  0
 25 26  2  0
 27 30  1  0
 27 26  1  0
 28 27  2  0
 29 28  1  0
 29 24  2  0
 30 31  1  0
 31 36  2  0
 31 32  1  0
 32 33  2  0
 33 34  1  0
 34 38  1  0
 35 34  2  0
 36 35  1  0
 37 36  1  0
 39 40  1  0
 40 43  1  0
 40 42  1  0
 41 39  2  0
 44 19  1  0
 44 45  1  0
 46 44  1  0
 47 48  1  0
 47  4  1  0
 49 60  2  0
 50 48  1  0
 50 55  1  0
 51 59  1  0
 51 61  1  0
 52 58  1  0
 52 54  1  0
 53 59  1  0
 54 55  2  0
 54 53  1  0
 56 50  2  0
 57 56  1  0
 57 52  2  0
 58 51  1  0
 59 49  1  0
 61 63  2  0
 62 61  1  0
 64 62  1  0
 65 74  2  0
 65 70  1  0
 66 62  1  0
 66 70  1  0
 67 66  1  0
 68 69  1  0
 68 67  1  0
 69 65  1  0
 70 71  2  0
 71 72  1  0
 73 72  2  0
 74 73  1  0
 75 49  1  0
 75 76  1  0
 75 85  1  0
 76 79  1  0
 77 81  1  0
 77 76  1  0
 78 77  2  0
 81 80  1  0
 83 81  1  0
 83 84  1  0
 83 82  1  0
 85 88  1  1
 85 86  1  0
 87 85  1  0
M  ISO  4   9 100  17 100  47 101  48 101
M  END
>  <TORSDO>  (16) 
F 18

>  <SCORE>  (16) 
-16.119

>  <name>  (16) 
15

>  <ligand_id>  (16) 
15

>  <original_smiles>  (16) 
[H]c1c([H])c([H])c2c(c1[H])C([H])([H])C([H])([H])C([H])([H])C2([H])N([H])C(=O)C1([H])N(C(=O)C([H])(N([H])C(=O)C([H])(N([H])C([H])([H])[H])C([H])([H])[H])C(C([H])([H])[H])(C([H])([H])[H])C([H])([H])[H])C([H])([H])c2c([H])c(OC([H])([H])c3c([H])c([H])c(C([H])([H])[H])c(C([H])([H])N([H])C(=O)N4C([H])([H])C([H])([H])C([H])([H])C([H])(n5nc(-c6c([H])c([H])c(Oc7c([H])c([H])c(F)c([H])c7F)c([H])c6[H])c(C(=O)N([H])[H])c5N([H])[H])C4([H])[H])c3[H])c([H])c([H])c2C1([H])[H]

>  <smiles>  (16) 
[H]c1c([H])c([H])c2c(c1[H])C([H])([H])C([H])([H])C([H])([H])C2([H])N([H])C(=O)C1([H])N(C(=O)C([H])(N([H])C(=O)C([H])(N([H])C([H])([H])[H])C([H])([H])[H])C(C([H])([H])[H])(C([H])([H])[H])C([H])([H])[H])C([H])([H])c2c([H])c(OC([H])([H])c3c([H])c([H])c(C([H])([H])[H])c(C([H])([H])N([H])C(=O)N4C([H])([H])C([H])([H])C([H])([H])C([H])(n5nc(-c6c([H])c([H])c(Oc7c([H])c([H])c(F)c([H])c7F)c([H])c6[H])c(C(=O)N([H])[H])c5N([H])[H])C4([H])[H])c3[H])c([H])c([H])c2C1([H])[H]

$$$$
16:0:0
     RDKit          3D

 89 98  0  0  1  0  0  0  0  0999 V2000
  -31.3510  -22.4700   20.4340 C   0  0  0  0  0  3  0  0  0  0  0  0
  -31.0040  -21.0970   20.3170 C   0  0  0  0  0  3  0  0  0  0  0  0
  -30.4030  -23.5240   20.3720 C   0  0  0  0  0  3  0  0  0  0  0  0
  -28.7050  -21.8080   20.1030 C   0  0  0  0  0  3  0  0  0  0  0  0
  -29.6660  -20.6640   20.1570 C   0  0  0  0  0  0  0  0  0  0  0  0
  -29.0270  -23.2690   20.1970 C   0  0  0  0  0  0  0  0  0  0  0  0
  -30.5700  -15.0690   20.3550 C   0  0  0  0  0  0  0  0  0  0  0  0
  -30.4350  -12.6770   19.4770 C   0  0  0  0  0  2  0  0  0  0  0  0
  -29.5090  -12.5240   18.2500 C   0  0  0  0  0  2  0  0  0  0  0  0
  -28.0590  -12.2890   18.7010 C   0  0  0  0  0  2  0  0  0  0  0  0
  -27.6190  -13.2570   19.8310 C   0  0  0  0  0  3  0  0  0  0  0  0
  -28.6810  -13.3660   20.9500 C   0  0  0  0  0  2  0  0  0  0  0  0
  -29.9230  -13.8190   20.3040 N   0  0  0  0  0  0  0  0  0  0  0  0
  -31.7880  -15.0280   20.1430 O   0  0  0  0  0  0  0  0  0  0  0  0
  -28.4140  -18.3350   20.9340 C   0  0  0  0  0  2  0  0  0  0  0  0
  -28.5580  -16.7650   20.7780 C   0  0  0  0  0  2  0  0  0  0  0  0
  -30.4880  -17.7930   19.9960 C   0  0  0  0  0  2  0  0  0  0  0  0
  -29.3820  -19.0260   19.9730 C   0  0  0  0  0  3  0  0  0  0  0  0
  -29.9160  -16.3730   20.3310 N   0  0  0  0  0  0  0  0  0  0  0  0
  -25.2440  -13.8180   20.5910 C   0  0  0  0  0  0  0  0  0  0  0  0
  -24.1750  -13.0410   20.9270 C   0  0  0  0  0  0  0  0  0  0  0  0
  -24.6360  -11.6880   20.8740 C   0  0  0  0  0  0  0  0  0  0  0  0
  -26.2870  -12.9460   20.3350 N   0  0  0  0  0  0  0  0  0  0  0  0
  -25.9300  -11.6550   20.5740 N   0  0  0  0  0  0  0  0  0  0  0  0
  -23.9050  -10.4270   21.0390 C   0  0  0  0  0  0  0  0  0  0  0  0
  -24.3620   -9.4190   21.9170 C   0  0  0  0  0  3  0  0  0  0  0  0
  -23.6310   -8.2220   22.0760 C   0  0  0  0  0  3  0  0  0  0  0  0
  -22.4290   -8.0250   21.3540 C   0  0  0  0  0  0  0  0  0  0  0  0
  -21.9890   -9.0220   20.4650 C   0  0  0  0  0  3  0  0  0  0  0  0
  -22.7220  -10.2090   20.3050 C   0  0  0  0  0  3  0  0  0  0  0  0
  -21.6660   -6.8830   21.4230 O   0  0  0  0  0  0  0  0  0  0  0  0
  -21.6860   -6.0690   22.5260 C   0  0  0  0  0  0  0  0  0  0  0  0
  -21.4020   -6.5610   23.8190 C   0  0  0  0  0  3  0  0  0  0  0  0
  -21.3670   -5.6770   24.9180 C   0  0  0  0  0  3  0  0  0  0  0  0
  -21.6040   -4.3030   24.7210 C   0  0  0  0  0  0  0  0  0  0  0  0
  -21.8840   -3.8110   23.4340 C   0  0  0  0  0  3  0  0  0  0  0  0
  -21.9200   -4.6920   22.3390 C   0  0  0  0  0  0  0  0  0  0  0  0
  -22.1670   -4.2110   21.0970 F   0  0  0  0  0  0  0  0  0  0  0  0
  -21.5630   -3.4510   25.7720 F   0  0  0  0  0  0  0  0  0  0  0  0
  -22.7760  -13.5160   21.1930 C   0  0  0  0  0  0  0  0  0  0  0  0
  -22.0390  -12.8190   22.0480 N   0  0  0  0  0  0  0  0  0  0  0  0
  -22.3450  -14.5460   20.6760 O   0  0  0  0  0  0  0  0  0  0  0  0
  -22.4070  -11.9920   22.5000 H   0  0  0  0  0  0  0  0  0  0  0  0
  -21.0970  -13.1160   22.2620 H   0  0  0  0  0  0  0  0  0  0  0  0
  -25.4070  -15.1940   20.4630 N   0  0  0  0  0  0  0  0  0  0  0  0
  -24.6530  -15.8380   20.6750 H   0  0  0  0  0  0  0  0  0  0  0  0
  -26.2870  -15.6570   20.2810 H   0  0  0  0  0  0  0  0  0  0  0  0
  -27.9790  -24.5540   20.0860 C   0  0  0  0  0  2  0  0  0  0  0  0
  -28.2930  -26.0900   20.2090 O   0  0  0  0  0  0  0  0  0  0  0  0
  -24.6510  -31.8360   23.1820 C   0  0  0  0  0  0  0  0  0  0  0  0
  -27.2430  -27.0950   20.1600 C   0  0  0  0  0  0  0  0  0  0  0  0
  -23.4650  -30.4510   21.5210 C   0  0  0  0  0  3  0  0  0  0  0  0
  -24.9240  -28.8690   20.1090 C   0  0  0  0  0  0  0  0  0  0  0  0
  -26.0220  -30.6980   21.3860 C   0  0  0  0  0  2  0  0  0  0  0  0
  -26.0980  -29.3000   20.7390 C   0  0  0  0  0  0  0  0  0  0  0  0
  -27.2550  -28.4280   20.7520 C   0  0  0  0  0  3  0  0  0  0  0  0
  -26.0380  -26.7720   19.4990 C   0  0  0  0  0  3  0  0  0  0  0  0
  -24.9100  -27.6190   19.4730 C   0  0  0  0  0  3  0  0  0  0  0  0
  -23.7060  -29.7790   20.1420 C   0  0  0  0  0  2  0  0  0  0  0  0
  -24.7330  -31.0160   22.0880 N   0  0  0  0  0  0  0  0  0  0  0  0
  -23.5590  -32.1280   23.6940 O   0  0  0  0  0  0  0  0  0  0  0  0
  -22.7630  -29.4490   22.4760 C   0  0  0  0  0  0  0  0  0  0  0  0
  -21.4300  -29.3070   22.3560 N   0  0  0  0  0  0  0  0  0  0  0  0
  -23.4230  -28.8010   23.2910 O   0  0  0  0  0  0  0  0  0  0  0  0
  -20.9500  -29.8930   21.6880 H   0  0  0  0  0  0  0  0  0  0  0  0
  -18.0320  -28.1400   22.8470 C   0  0  0  0  0  0  0  0  0  0  0  0
  -20.5960  -28.3750   23.1220 C   0  0  0  0  0  3  0  0  0  0  0  0
  -20.6800  -26.9430   22.5420 C   0  0  0  0  0  2  0  0  0  0  0  0
  -19.5760  -26.6380   21.5230 C   0  0  0  0  0  2  0  0  0  0  0  0
  -18.1940  -26.7940   22.1640 C   0  0  0  0  0  2  0  0  0  0  0  0
  -19.1590  -28.8890   23.2850 C   0  0  0  0  0  0  0  0  0  0  0  0
  -18.9480  -30.1470   23.8890 C   0  0  0  0  0  3  0  0  0  0  0  0
  -17.6470  -30.6580   24.0580 C   0  0  0  0  0  3  0  0  0  0  0  0
  -16.5370  -29.9090   23.6320 C   0  0  0  0  0  3  0  0  0  0  0  0
  -16.7310  -28.6510   23.0320 C   0  0  0  0  0  3  0  0  0  0  0  0
  -25.9210  -32.4670   23.8300 C   0  0  0  0  0  3  0  0  0  0  0  0
  -25.5940  -33.8480   24.2230 N   0  0  0  0  0  0  0  0  0  0  0  0
  -25.9030  -34.9390   23.5080 C   0  0  0  0  0  0  0  0  0  0  0  0
  -26.5610  -34.8890   22.4650 O   0  0  0  0  0  0  0  0  0  0  0  0
  -25.0140  -33.9630   25.0420 H   0  0  0  0  0  0  0  0  0  0  0  0
  -24.1480  -36.7290   23.2650 C   0  0  0  0  0  1  0  0  0  0  0  0
  -25.4100  -36.3020   24.0320 C   0  0  0  0  0  3  0  0  0  0  0  0
  -27.5540  -37.1820   24.8480 C   0  0  0  0  0  1  0  0  0  0  0  0
  -26.4280  -37.3730   23.9380 N   0  0  0  0  0  0  0  0  0  0  0  0
  -26.0140  -38.2800   24.1330 H   0  0  0  0  0  0  0  0  0  0  0  0
  -26.4520  -31.6540   25.0750 C   0  0  1  0  0  0  0  0  0  0  0  0
  -25.3760  -31.3710   26.1500 C   0  0  0  0  0  1  0  0  0  0  0  0
  -27.0360  -30.2930   24.6300 C   0  0  0  0  0  1  0  0  0  0  0  0
  -27.6050  -32.4320   25.7530 C   0  0  0  0  0  1  0  0  0  0  0  0
  2  1  2  0
  3  1  1  0
  4  5  2  0
  4  6  1  0
  5  2  1  0
  6  3  2  0
  8 13  1  0
  9 10  1  0
  9  8  1  0
 11 10  1  0
 11 23  1  0
 11 12  1  0
 13  7  1  0
 13 12  1  0
 14  7  2  0
 16 15  1  0
 17 19  1  0
 18 17  1  0
 18  5  1  0
 18 15  1  0
 19  7  1  0
 19 16  1  0
 20 21  2  0
 21 40  1  0
 22 21  1  0
 22 25  1  0
 23 24  1  0
 23 20  1  0
 24 22  2  0
 25 26  1  0
 26 27  2  0
 28 31  1  0
 28 27  1  0
 29 28  2  0
 30 29  1  0
 30 25  2  0
 31 32  1  0
 32 33  1  0
 33 34  2  0
 35 34  1  0
 35 39  1  0
 36 35  2  0
 37 32  2  0
 37 36  1  0
 38 37  1  0
 40 41  1  0
 41 44  1  0
 41 43  1  0
 42 40  2  0
 45 20  1  0
 45 46  1  0
 47 45  1  0
 48  6  1  0
 48 49  1  0
 50 61  2  0
 51 49  1  0
 51 56  1  0
 52 60  1  0
 52 62  1  0
 53 59  1  0
 53 55  1  0
 54 60  1  0
 55 56  2  0
 55 54  1  0
 57 51  2  0
 58 57  1  0
 58 53  2  0
 59 52  1  0
 60 50  1  0
 62 64  2  0
 63 62  1  0
 65 63  1  0
 66 75  2  0
 66 71  1  0
 67 63  1  0
 67 71  1  0
 68 67  1  0
 69 70  1  0
 69 68  1  0
 70 66  1  0
 71 72  2  0
 72 73  1  0
 74 73  2  0
 75 74  1  0
 76 50  1  0
 76 77  1  0
 76 86  1  0
 77 80  1  0
 78 82  1  0
 78 77  1  0
 79 78  2  0
 82 81  1  0
 84 82  1  0
 84 85  1  0
 84 83  1  0
 86 89  1  1
 86 87  1  0
 88 86  1  0
M  ISO  4   7 100  19 100  48 101  49 101
M  END
>  <TORSDO>  (17) 
F 17

>  <SCORE>  (17) 
-14.462

>  <name>  (17) 
16

>  <ligand_id>  (17) 
16

>  <original_smiles>  (17) 
[H]c1c([H])c([H])c2c(c1[H])C([H])([H])C([H])([H])C([H])([H])C2([H])N([H])C(=O)C1([H])N(C(=O)C([H])(N([H])C(=O)C([H])(N([H])C([H])([H])[H])C([H])([H])[H])C(C([H])([H])[H])(C([H])([H])[H])C([H])([H])[H])C([H])([H])c2c([H])c(OC([H])([H])c3c([H])c([H])c([H])c(C4([H])C([H])([H])N(C(=O)N5C([H])([H])C([H])([H])C([H])([H])C([H])(n6nc(-c7c([H])c([H])c(Oc8c([H])c([H])c(F)c([H])c8F)c([H])c7[H])c(C(=O)N([H])[H])c6N([H])[H])C5([H])[H])C([H])([H])C4([H])[H])c3[H])c([H])c([H])c2C1([H])[H]

>  <smiles>  (17) 
[H]c1c([H])c([H])c2c(c1[H])C([H])([H])C([H])([H])C([H])([H])C2([H])N([H])C(=O)C1([H])N(C(=O)C([H])(N([H])C(=O)C([H])(N([H])C([H])([H])[H])C([H])([H])[H])C(C([H])([H])[H])(C([H])([H])[H])C([H])([H])[H])C([H])([H])c2c([H])c(OC([H])([H])c3c([H])c([H])c([H])c(C4([H])C([H])([H])N(C(=O)N5C([H])([H])C([H])([H])C([H])([H])C([H])(n6nc(-c7c([H])c([H])c(Oc8c([H])c([H])c(F)c([H])c8F)c([H])c7[H])c(C(=O)N([H])[H])c6N([H])[H])C5([H])[H])C([H])([H])C4([H])[H])c3[H])c([H])c([H])c2C1([H])[H]

$$$$
17:0:0
     RDKit          3D

 90 97  0  0  1  0  0  0  0  0999 V2000
  -29.0930  -21.1020   20.0840 N   0  0  0  0  0  4  0  0  0  0  0  0
  -29.7920  -21.2750   19.3800 H   0  0  0  0  0  0  0  0  0  0  0  0
  -28.2420  -20.8630   19.6020 H   0  0  0  0  0  0  0  0  0  0  0  0
  -28.8440  -22.4100   20.8420 C   0  0  0  0  0  2  0  0  0  0  0  0
  -28.6860  -23.7860   20.0140 C   0  0  0  0  0  3  0  0  0  0  0  0
  -28.2090  -25.1060   20.8000 C   0  0  0  0  0  3  0  0  0  0  0  0
  -28.3500  -26.4660   20.2100 O   0  0  0  0  0  0  0  0  0  0  0  0
  -24.6110  -31.8750   23.2340 C   0  0  0  0  0  0  0  0  0  0  0  0
  -27.2310  -27.3110   20.2040 C   0  0  0  0  0  0  0  0  0  0  0  0
  -23.4100  -30.4700   21.5970 C   0  0  0  0  0  3  0  0  0  0  0  0
  -24.8660  -28.9150   20.1780 C   0  0  0  0  0  0  0  0  0  0  0  0
  -25.9480  -30.7970   21.4090 C   0  0  0  0  0  2  0  0  0  0  0  0
  -26.0320  -29.4140   20.7720 C   0  0  0  0  0  0  0  0  0  0  0  0
  -27.2220  -28.6250   20.7700 C   0  0  0  0  0  3  0  0  0  0  0  0
  -26.0460  -26.8620   19.5870 C   0  0  0  0  0  3  0  0  0  0  0  0
  -24.8750  -27.6470   19.5730 C   0  0  0  0  0  3  0  0  0  0  0  0
  -23.6270  -29.7870   20.2200 C   0  0  0  0  0  2  0  0  0  0  0  0
  -24.6760  -31.0660   22.1380 N   0  0  0  0  0  0  0  0  0  0  0  0
  -23.5270  -32.1520   23.7680 O   0  0  0  0  0  0  0  0  0  0  0  0
  -22.7490  -29.4580   22.5610 C   0  0  0  0  0  0  0  0  0  0  0  0
  -21.4220  -29.2820   22.4370 N   0  0  0  0  0  0  0  0  0  0  0  0
  -23.4290  -28.8310   23.3780 O   0  0  0  0  0  0  0  0  0  0  0  0
  -20.9350  -29.8400   21.7500 H   0  0  0  0  0  0  0  0  0  0  0  0
  -18.0430  -28.0950   22.9460 C   0  0  0  0  0  0  0  0  0  0  0  0
  -20.6030  -28.3460   23.2070 C   0  0  0  0  0  3  0  0  0  0  0  0
  -20.6990  -26.9150   22.6290 C   0  0  0  0  0  2  0  0  0  0  0  0
  -19.5920  -26.5970   21.6180 C   0  0  0  0  0  2  0  0  0  0  0  0
  -18.2130  -26.7460   22.2680 C   0  0  0  0  0  2  0  0  0  0  0  0
  -19.1650  -28.8530   23.3730 C   0  0  0  0  0  0  0  0  0  0  0  0
  -18.9510  -30.1160   23.9670 C   0  0  0  0  0  3  0  0  0  0  0  0
  -17.6490  -30.6200   24.1380 C   0  0  0  0  0  3  0  0  0  0  0  0
  -16.5410  -29.8590   23.7270 C   0  0  0  0  0  3  0  0  0  0  0  0
  -16.7390  -28.5980   23.1370 C   0  0  0  0  0  3  0  0  0  0  0  0
  -25.8920  -32.5120   23.8580 C   0  0  0  0  0  3  0  0  0  0  0  0
  -25.5780  -33.9090   24.1910 N   0  0  0  0  0  0  0  0  0  0  0  0
  -25.9090  -34.9640   23.4330 C   0  0  0  0  0  0  0  0  0  0  0  0
  -26.5780  -34.8630   22.4010 O   0  0  0  0  0  0  0  0  0  0  0  0
  -24.9840  -34.0610   24.9910 H   0  0  0  0  0  0  0  0  0  0  0  0
  -24.1770  -36.7550   23.0840 C   0  0  0  0  0  1  0  0  0  0  0  0
  -25.4210  -36.3520   23.8920 C   0  0  0  0  0  3  0  0  0  0  0  0
  -27.5570  -37.2400   24.7180 C   0  0  0  0  0  1  0  0  0  0  0  0
  -26.4510  -37.4070   23.7780 N   0  0  0  0  0  0  0  0  0  0  0  0
  -26.0450  -38.3270   23.9250 H   0  0  0  0  0  0  0  0  0  0  0  0
  -26.4080  -31.7400   25.1340 C   0  0  1  0  0  0  0  0  0  0  0  0
  -25.3150  -31.5030   26.2010 C   0  0  0  0  0  1  0  0  0  0  0  0
  -26.9910  -30.3630   24.7410 C   0  0  0  0  0  1  0  0  0  0  0  0
  -27.5600  -32.5340   25.7960 C   0  0  0  0  0  1  0  0  0  0  0  0
  -29.5510  -19.8700   20.8710 C   0  0  0  0  0  2  0  0  0  0  0  0
  -27.9420  -18.0520   20.0350 C   0  0  0  0  0  1  0  0  0  0  0  0
  -30.0940  -18.4230   18.7970 C   0  0  0  0  0  1  0  0  0  0  0  0
  -29.4360  -18.4010   20.1910 C   0  0  1  0  0  0  0  0  0  0  0  0
  -30.1530  -17.2130   21.0180 C   0  0  0  0  0  2  0  0  0  0  0  0
  -30.5940  -14.6870   20.4020 C   0  0  0  0  0  0  0  0  0  0  0  0
  -30.3940  -12.4490   19.3210 C   0  0  0  0  0  2  0  0  0  0  0  0
  -29.4450  -12.5630   18.1080 C   0  0  0  0  0  2  0  0  0  0  0  0
  -27.9780  -12.3810   18.5430 C   0  0  0  0  0  2  0  0  0  0  0  0
  -27.6110  -13.2510   19.7740 C   0  0  0  0  0  3  0  0  0  0  0  0
  -28.6710  -13.1150   20.8900 C   0  0  0  0  0  2  0  0  0  0  0  0
  -29.9720  -13.4690   20.3030 N   0  0  0  0  0  0  0  0  0  0  0  0
  -31.7690  -14.8310   20.0510 O   0  0  0  0  0  0  0  0  0  0  0  0
  -29.8050  -15.7630   20.7350 N   0  0  0  0  0  0  0  0  0  0  0  0
  -28.8470  -15.5140   20.9310 H   0  0  0  0  0  0  0  0  0  0  0  0
  -25.2210  -13.8470   20.5020 C   0  0  0  0  0  0  0  0  0  0  0  0
  -24.1550  -13.0740   20.8760 C   0  0  0  0  0  0  0  0  0  0  0  0
  -24.6200  -11.7230   20.8470 C   0  0  0  0  0  0  0  0  0  0  0  0
  -26.2650  -12.9670   20.2640 N   0  0  0  0  0  0  0  0  0  0  0  0
  -25.9090  -11.6850   20.5340 N   0  0  0  0  0  0  0  0  0  0  0  0
  -23.8960  -10.4610   21.0390 C   0  0  0  0  0  0  0  0  0  0  0  0
  -24.3380   -9.4900   21.9650 C   0  0  0  0  0  3  0  0  0  0  0  0
  -23.6140   -8.2920   22.1450 C   0  0  0  0  0  3  0  0  0  0  0  0
  -22.4330   -8.0570   21.4010 C   0  0  0  0  0  0  0  0  0  0  0  0
  -22.0100   -9.0160   20.4650 C   0  0  0  0  0  3  0  0  0  0  0  0
  -22.7350  -10.2050   20.2820 C   0  0  0  0  0  3  0  0  0  0  0  0
  -21.6810   -6.9100   21.4900 O   0  0  0  0  0  0  0  0  0  0  0  0
  -21.6510   -6.1560   22.6370 C   0  0  0  0  0  0  0  0  0  0  0  0
  -21.2550   -6.7000   23.8780 C   0  0  0  0  0  3  0  0  0  0  0  0
  -21.1750   -5.8730   25.0160 C   0  0  0  0  0  3  0  0  0  0  0  0
  -21.4790   -4.5020   24.9140 C   0  0  0  0  0  0  0  0  0  0  0  0
  -21.8650   -3.9580   23.6770 C   0  0  0  0  0  3  0  0  0  0  0  0
  -21.9490   -4.7820   22.5410 C   0  0  0  0  0  0  0  0  0  0  0  0
  -22.3030   -4.2480   21.3470 F   0  0  0  0  0  0  0  0  0  0  0  0
  -21.3930   -3.7050   26.0040 F   0  0  0  0  0  0  0  0  0  0  0  0
  -22.7570  -13.5500   21.1470 C   0  0  0  0  0  0  0  0  0  0  0  0
  -22.0280  -12.8540   22.0130 N   0  0  0  0  0  0  0  0  0  0  0  0
  -22.3190  -14.5750   20.6250 O   0  0  0  0  0  0  0  0  0  0  0  0
  -22.3940  -12.0250   22.4570 H   0  0  0  0  0  0  0  0  0  0  0  0
  -21.0890  -13.1530   22.2320 H   0  0  0  0  0  0  0  0  0  0  0  0
  -25.3840  -15.2180   20.3210 N   0  0  0  0  0  0  0  0  0  0  0  0
  -24.6120  -15.8680   20.4340 H   0  0  0  0  0  0  0  0  0  0  0  0
  -26.2180  -15.6540   19.9530 H   0  0  0  0  0  0  0  0  0  0  0  0
  1  4  1  0
  1 48  1  0
  2  1  1  0
  3  1  1  0
  5  6  2  0
  5  4  1  0
  7  6  1  0
  8 19  2  0
  9  7  1  0
  9 14  1  0
 10 18  1  0
 10 20  1  0
 11 17  1  0
 11 13  1  0
 12 18  1  0
 13 12  1  0
 14 13  2  0
 15  9  2  0
 16 15  1  0
 16 11  2  0
 17 10  1  0
 18  8  1  0
 20 22  2  0
 21 20  1  0
 23 21  1  0
 24 33  2  0
 24 29  1  0
 25 21  1  0
 25 29  1  0
 26 25  1  0
 27 28  1  0
 27 26  1  0
 28 24  1  0
 29 30  2  0
 30 31  1  0
 32 31  2  0
 33 32  1  0
 34  8  1  0
 34 35  1  0
 34 44  1  0
 35 38  1  0
 36 40  1  0
 36 35  1  0
 37 36  2  0
 40 39  1  0
 42 40  1  0
 42 43  1  0
 42 41  1  0
 44 47  1  1
 44 45  1  0
 46 44  1  0
 51 49  1  6
 50 51  1  0
 51 48  1  0
 51 52  1  0
 53 61  1  0
 54 59  1  0
 55 56  1  0
 55 54  1  0
 57 56  1  0
 57 66  1  0
 57 58  1  0
 59 53  1  0
 59 58  1  0
 60 53  2  0
 61 62  1  0
 61 52  1  0
 63 64  2  0
 64 83  1  0
 65 64  1  0
 65 68  1  0
 66 63  1  0
 66 67  1  0
 67 65  2  0
 68 69  1  0
 69 70  2  0
 71 74  1  0
 71 70  1  0
 72 71  2  0
 73 72  1  0
 73 68  2  0
 74 75  1  0
 75 76  1  0
 76 77  2  0
 78 77  1  0
 78 82  1  0
 79 78  2  0
 80 75  2  0
 80 79  1  0
 81 80  1  0
 83 84  1  0
 84 87  1  0
 84 86  1  0
 85 83  2  0
 88 89  1  0
 88 63  1  0
 90 88  1  0
M  ISO  4   6 101   7 101  53 100  61 100
M  END
>  <TORSDO>  (18) 
F 22

>  <SCORE>  (18) 
-13.170

>  <name>  (18) 
17

>  <ligand_id>  (18) 
17

>  <original_smiles>  (18) 
[H]c1c([H])c([H])c2c(c1[H])C([H])([H])C([H])([H])C([H])([H])C2([H])N([H])C(=O)C1([H])N(C(=O)C([H])(N([H])C(=O)C([H])(N([H])C([H])([H])[H])C([H])([H])[H])C(C([H])([H])[H])(C([H])([H])[H])C([H])([H])[H])C([H])([H])c2c([H])c(OC([H])([H])C([H])([H])C([H])([H])[N+]([H])([H])C([H])([H])C(C([H])([H])[H])(C([H])([H])[H])C([H])([H])N([H])C(=O)N3C([H])([H])C([H])([H])C([H])([H])C([H])(n4nc(-c5c([H])c([H])c(Oc6c([H])c([H])c(F)c([H])c6F)c([H])c5[H])c(C(=O)N([H])[H])c4N([H])[H])C3([H])[H])c([H])c([H])c2C1([H])[H]

>  <smiles>  (18) 
[H]c1c([H])c([H])c2c(c1[H])C([H])([H])C([H])([H])C([H])([H])C2([H])N([H])C(=O)C1([H])N(C(=O)C([H])(N([H])C(=O)C([H])(N([H])C([H])([H])[H])C([H])([H])[H])C(C([H])([H])[H])(C([H])([H])[H])C([H])([H])[H])C([H])([H])c2c([H])c(OC([H])([H])C([H])([H])C([H])([H])[N+]([H])([H])C([H])([H])C(C([H])([H])[H])(C([H])([H])[H])C([H])([H])N([H])C(=O)N3C([H])([H])C([H])([H])C([H])([H])C([H])(n4nc(-c5c([H])c([H])c(Oc6c([H])c([H])c(F)c([H])c6F)c([H])c5[H])c(C(=O)N([H])[H])c4N([H])[H])C3([H])[H])c([H])c([H])c2C1([H])[H]

$$$$
18:0:0
     RDKit          3D

 88 97  0  0  1  0  0  0  0  0999 V2000
  -28.6920  -21.2680   20.7580 C   0  0  0  0  0  0  0  0  0  0  0  0
  -27.7680  -21.1950   21.5720 O   0  0  0  0  0  0  0  0  0  0  0  0
  -30.6760  -15.3990   21.0520 C   0  0  0  0  0  0  0  0  0  0  0  0
  -30.8300  -12.8970   20.3820 C   0  0  0  0  0  2  0  0  0  0  0  0
  -30.0890  -12.5070   19.0790 C   0  0  0  0  0  2  0  0  0  0  0  0
  -28.5850  -12.2940   19.3300 C   0  0  0  0  0  2  0  0  0  0  0  0
  -27.9730  -13.3340   20.3050 C   0  0  0  0  0  3  0  0  0  0  0  0
  -28.8620  -13.5960   21.5330 C   0  0  0  0  0  2  0  0  0  0  0  0
  -30.1430  -14.0860   21.0000 N   0  0  0  0  0  0  0  0  0  0  0  0
  -31.9150  -15.4140   21.1280 O   0  0  0  0  0  0  0  0  0  0  0  0
  -28.7430  -17.8320   18.9000 C   0  0  0  0  0  2  0  0  0  0  0  0
  -29.5180  -19.7660   20.4640 C   0  0  0  0  0  3  0  0  0  0  0  0
  -28.5800  -18.6330   20.1530 C   0  0  0  0  0  3  0  0  0  0  0  0
  -29.5800  -18.1090   21.1460 C   0  0  0  0  0  3  0  0  0  0  0  0
  -30.0030  -16.9900   19.1560 C   0  0  0  0  0  3  0  0  0  0  0  0
  -30.1500  -15.8880   18.1000 C   0  0  0  0  0  1  0  0  0  0  0  0
  -29.9550  -16.6190   20.5910 N   0  0  0  0  0  0  0  0  0  0  0  0
  -25.5190  -13.8640   20.7620 C   0  0  0  0  0  0  0  0  0  0  0  0
  -24.4340  -13.0720   21.0190 C   0  0  0  0  0  0  0  0  0  0  0  0
  -24.9280  -11.7320   21.0850 C   0  0  0  0  0  0  0  0  0  0  0  0
  -26.6000  -13.0070   20.6710 N   0  0  0  0  0  0  0  0  0  0  0  0
  -26.2490  -11.7220   20.9390 N   0  0  0  0  0  0  0  0  0  0  0  0
  -24.2100  -10.4560   21.2170 C   0  0  0  0  0  0  0  0  0  0  0  0
  -24.5500   -9.5140   22.2120 C   0  0  0  0  0  3  0  0  0  0  0  0
  -23.8290   -8.3060   22.3310 C   0  0  0  0  0  3  0  0  0  0  0  0
  -22.7520   -8.0340   21.4550 C   0  0  0  0  0  0  0  0  0  0  0  0
  -22.4310   -8.9670   20.4530 C   0  0  0  0  0  3  0  0  0  0  0  0
  -23.1550  -10.1640   20.3310 C   0  0  0  0  0  3  0  0  0  0  0  0
  -22.0080   -6.8800   21.4830 O   0  0  0  0  0  0  0  0  0  0  0  0
  -21.8390   -6.1600   22.6390 C   0  0  0  0  0  0  0  0  0  0  0  0
  -21.2670   -6.7320   23.7960 C   0  0  0  0  0  3  0  0  0  0  0  0
  -21.0450   -5.9370   24.9390 C   0  0  0  0  0  3  0  0  0  0  0  0
  -21.3870   -4.5720   24.9260 C   0  0  0  0  0  0  0  0  0  0  0  0
  -21.9540   -4.0010   23.7740 C   0  0  0  0  0  3  0  0  0  0  0  0
  -22.1760   -4.7920   22.6330 C   0  0  0  0  0  0  0  0  0  0  0  0
  -22.7000   -4.2300   21.5170 F   0  0  0  0  0  0  0  0  0  0  0  0
  -21.1690   -3.8070   26.0210 F   0  0  0  0  0  0  0  0  0  0  0  0
  -23.0040  -13.5230   21.0930 C   0  0  0  0  0  0  0  0  0  0  0  0
  -22.1860  -12.8460   21.8900 N   0  0  0  0  0  0  0  0  0  0  0  0
  -22.6170  -14.5150   20.4770 O   0  0  0  0  0  0  0  0  0  0  0  0
  -22.5060  -12.0490   22.4200 H   0  0  0  0  0  0  0  0  0  0  0  0
  -21.2220  -13.1340   21.9770 H   0  0  0  0  0  0  0  0  0  0  0  0
  -25.6730  -15.2330   20.5680 N   0  0  0  0  0  0  0  0  0  0  0  0
  -24.8850  -15.8730   20.5830 H   0  0  0  0  0  0  0  0  0  0  0  0
  -26.5510  -15.6900   20.3560 H   0  0  0  0  0  0  0  0  0  0  0  0
  -28.9230  -22.8680   20.1270 C   0  0  0  0  0  2  0  0  0  0  0  0
  -27.9290  -24.3480   20.2080 C   0  0  0  0  0  2  0  0  0  0  0  0
  -28.2060  -25.9540   20.0230 O   0  0  0  0  0  0  0  0  0  0  0  0
  -24.6720  -31.8470   23.0970 C   0  0  0  0  0  0  0  0  0  0  0  0
  -27.1930  -27.0340   20.0030 C   0  0  0  0  0  0  0  0  0  0  0  0
  -23.4670  -30.4820   21.4410 C   0  0  0  0  0  3  0  0  0  0  0  0
  -24.9030  -28.9010   19.9900 C   0  0  0  0  0  0  0  0  0  0  0  0
  -26.0300  -30.6950   21.2870 C   0  0  0  0  0  2  0  0  0  0  0  0
  -26.0930  -29.2990   20.6110 C   0  0  0  0  0  0  0  0  0  0  0  0
  -27.2350  -28.3850   20.5960 C   0  0  0  0  0  3  0  0  0  0  0  0
  -25.9770  -26.7850   19.3300 C   0  0  0  0  0  3  0  0  0  0  0  0
  -24.8680  -27.6650   19.3280 C   0  0  0  0  0  3  0  0  0  0  0  0
  -23.6890  -29.8250   20.0520 C   0  0  0  0  0  2  0  0  0  0  0  0
  -24.7450  -31.0340   21.9960 N   0  0  0  0  0  0  0  0  0  0  0  0
  -23.5850  -32.1310   23.6280 O   0  0  0  0  0  0  0  0  0  0  0  0
  -22.7780  -29.4700   22.3930 C   0  0  0  0  0  0  0  0  0  0  0  0
  -21.4430  -29.3240   22.2870 N   0  0  0  0  0  0  0  0  0  0  0  0
  -23.4500  -28.8140   23.1940 O   0  0  0  0  0  0  0  0  0  0  0  0
  -20.9550  -29.9050   21.6200 H   0  0  0  0  0  0  0  0  0  0  0  0
  -18.0500  -28.1720   22.8480 C   0  0  0  0  0  0  0  0  0  0  0  0
  -20.6220  -28.3780   23.0500 C   0  0  0  0  0  3  0  0  0  0  0  0
  -20.6770  -26.9640   22.4280 C   0  0  0  0  0  2  0  0  0  0  0  0
  -19.5420  -26.6960   21.4350 C   0  0  0  0  0  2  0  0  0  0  0  0
  -18.1820  -26.8440   22.1220 C   0  0  0  0  0  2  0  0  0  0  0  0
  -19.1960  -28.9000   23.2710 C   0  0  0  0  0  0  0  0  0  0  0  0
  -19.0160  -30.1420   23.9160 C   0  0  0  0  0  3  0  0  0  0  0  0
  -17.7250  -30.6580   24.1420 C   0  0  0  0  0  3  0  0  0  0  0  0
  -16.5960  -29.9280   23.7330 C   0  0  0  0  0  3  0  0  0  0  0  0
  -16.7600  -28.6870   23.0910 C   0  0  0  0  0  3  0  0  0  0  0  0
  -25.9480  -32.4750   23.7330 C   0  0  0  0  0  3  0  0  0  0  0  0
  -25.6240  -33.8580   24.1280 N   0  0  0  0  0  0  0  0  0  0  0  0
  -25.9410  -34.9530   23.4220 C   0  0  0  0  0  0  0  0  0  0  0  0
  -26.6040  -34.9060   22.3840 O   0  0  0  0  0  0  0  0  0  0  0  0
  -25.0330  -33.9680   24.9400 H   0  0  0  0  0  0  0  0  0  0  0  0
  -24.2020  -36.7580   23.1770 C   0  0  0  0  0  1  0  0  0  0  0  0
  -25.4510  -36.3150   23.9550 C   0  0  0  0  0  3  0  0  0  0  0  0
  -27.5870  -37.1750   24.8130 C   0  0  0  0  0  1  0  0  0  0  0  0
  -26.4780  -37.3790   23.8870 N   0  0  0  0  0  0  0  0  0  0  0  0
  -26.0660  -38.2890   24.0780 H   0  0  0  0  0  0  0  0  0  0  0  0
  -26.4820  -31.6670   24.9810 C   0  0  1  0  0  0  0  0  0  0  0  0
  -25.4040  -31.3920   26.0540 C   0  0  0  0  0  1  0  0  0  0  0  0
  -27.0670  -30.3020   24.5470 C   0  0  0  0  0  1  0  0  0  0  0  0
  -27.6380  -32.4450   25.6540 C   0  0  0  0  0  1  0  0  0  0  0  0
  1  2  2  0
  3 10  2  0
  4  9  1  0
  5  6  1  0
  5  4  1  0
  7  6  1  0
  7 21  1  0
  7  8  1  0
  9  3  1  0
  9  8  1  0
 11 15  1  0
 12  1  1  0
 12 14  1  0
 13 11  1  0
 13 12  1  0
 13 14  1  0
 14 17  1  0
 15 16  1  0
 15 17  1  0
 17  3  1  0
 18 19  2  0
 19 20  1  0
 19 38  1  0
 20 23  1  0
 21 18  1  0
 21 22  1  0
 22 20  2  0
 23 24  1  0
 24 25  2  0
 26 29  1  0
 26 25  1  0
 27 26  2  0
 28 27  1  0
 28 23  2  0
 29 30  1  0
 30 31  1  0
 31 32  2  0
 33 32  1  0
 33 37  1  0
 34 33  2  0
 35 30  2  0
 35 34  1  0
 36 35  1  0
 38 39  1  0
 39 42  1  0
 39 41  1  0
 40 38  2  0
 43 44  1  0
 43 18  1  0
 45 43  1  0
 46 47  1  0
 46  1  1  0
 48 47  1  0
 49 60  2  0
 50 48  1  0
 50 55  1  0
 51 59  1  0
 51 61  1  0
 52 58  1  0
 52 54  1  0
 53 59  1  0
 54 53  1  0
 55 54  2  0
 56 50  2  0
 57 56  1  0
 57 52  2  0
 58 51  1  0
 59 49  1  0
 61 63  2  0
 62 61  1  0
 64 62  1  0
 65 74  2  0
 65 70  1  0
 66 62  1  0
 66 70  1  0
 67 66  1  0
 68 69  1  0
 68 67  1  0
 69 65  1  0
 70 71  2  0
 71 72  1  0
 73 72  2  0
 74 73  1  0
 75 49  1  0
 75 76  1  0
 75 85  1  0
 76 79  1  0
 77 81  1  0
 77 76  1  0
 78 77  2  0
 81 80  1  0
 83 81  1  0
 83 84  1  0
 83 82  1  0
 85 88  1  1
 85 86  1  0
 87 85  1  0
M  ISO  4   3 100  17 100  47 101  48 101
M  END
>  <TORSDO>  (19) 
F 18

>  <SCORE>  (19) 
-14.482

>  <name>  (19) 
18

>  <ligand_id>  (19) 
18

>  <original_smiles>  (19) 
[H]c1c([H])c([H])c2c(c1[H])C([H])([H])C([H])([H])C([H])([H])C2([H])N([H])C(=O)C1([H])N(C(=O)C([H])(N([H])C(=O)C([H])(N([H])C([H])([H])[H])C([H])([H])[H])C(C([H])([H])[H])(C([H])([H])[H])C([H])([H])[H])C([H])([H])c2c([H])c(OC([H])([H])C([H])([H])C(=O)C3([H])C4([H])N(C(=O)N5C([H])([H])C([H])([H])C([H])([H])C([H])(n6nc(-c7c([H])c([H])c(Oc8c([H])c([H])c(F)c([H])c8F)c([H])c7[H])c(C(=O)N([H])[H])c6N([H])[H])C5([H])[H])C([H])(C([H])([H])[H])C([H])([H])C34[H])c([H])c([H])c2C1([H])[H]

>  <smiles>  (19) 
[H]c1c([H])c([H])c2c(c1[H])C([H])([H])C([H])([H])C([H])([H])C2([H])N([H])C(=O)C1([H])N(C(=O)C([H])(N([H])C(=O)C([H])(N([H])C([H])([H])[H])C([H])([H])[H])C(C([H])([H])[H])(C([H])([H])[H])C([H])([H])[H])C([H])([H])c2c([H])c(OC([H])([H])C([H])([H])C(=O)C3([H])C4([H])N(C(=O)N5C([H])([H])C([H])([H])C([H])([H])C([H])(n6nc(-c7c([H])c([H])c(Oc8c([H])c([H])c(F)c([H])c8F)c([H])c7[H])c(C(=O)N([H])[H])c6N([H])[H])C5([H])[H])C([H])(C([H])([H])[H])C([H])([H])C34[H])c([H])c([H])c2C1([H])[H]

$$$$
19:0:0
     RDKit          3D

 88 97  0  0  1  0  0  0  0  0999 V2000
  -31.3140  -19.6740   21.0380 C   0  0  0  0  0  2  0  0  0  0  0  0
  -30.1640  -21.4880   19.4260 C   0  0  0  0  0  2  0  0  0  0  0  0
  -29.3130  -21.3410   21.7030 C   0  0  0  0  0  2  0  0  0  0  0  0
  -28.2650  -20.2490   19.9460 C   0  0  0  0  0  2  0  0  0  0  0  0
  -30.6190  -19.9310   19.6970 C   0  0  0  0  0  3  0  0  0  0  0  0
  -29.9010  -19.8100   21.6110 C   0  0  0  0  0  3  0  0  0  0  0  0
  -28.8620  -21.8900   20.2680 C   0  0  0  0  0  3  0  0  0  0  0  0
  -29.4630  -19.0480   20.2970 C   0  0  1  0  0  0  0  0  0  0  0  0
  -30.2730  -15.8370   20.1850 C   0  0  0  0  0  0  0  0  0  0  0  0
  -30.4040  -13.2760   19.3560 C   0  0  0  0  0  2  0  0  0  0  0  0
  -29.5220  -12.8210   18.1540 C   0  0  0  0  0  2  0  0  0  0  0  0
  -28.1030  -12.4480   18.6080 C   0  0  0  0  0  2  0  0  0  0  0  0
  -27.5780  -13.4510   19.6610 C   0  0  0  0  0  3  0  0  0  0  0  0
  -28.6030  -13.8050   20.7650 C   0  0  0  0  0  2  0  0  0  0  0  0
  -29.7590  -14.4580   20.1000 N   0  0  0  0  0  0  0  0  0  0  0  0
  -31.5100  -15.7610   20.0380 O   0  0  0  0  0  0  0  0  0  0  0  0
  -29.5000  -17.2170   20.2470 N   0  0  0  0  0  0  0  0  0  0  0  0
  -28.5330  -16.9260   20.2740 H   0  0  0  0  0  0  0  0  0  0  0  0
  -25.2180  -13.9510   20.4400 C   0  0  0  0  0  0  0  0  0  0  0  0
  -24.1680  -13.1590   20.8100 C   0  0  0  0  0  0  0  0  0  0  0  0
  -24.6530  -11.8170   20.7810 C   0  0  0  0  0  0  0  0  0  0  0  0
  -26.2690  -13.0910   20.1930 N   0  0  0  0  0  0  0  0  0  0  0  0
  -25.9460  -11.7990   20.4670 N   0  0  0  0  0  0  0  0  0  0  0  0
  -23.9370  -10.5460   20.9750 C   0  0  0  0  0  0  0  0  0  0  0  0
  -24.3630   -9.5950   21.9270 C   0  0  0  0  0  3  0  0  0  0  0  0
  -23.6420   -8.3950   22.1130 C   0  0  0  0  0  3  0  0  0  0  0  0
  -22.4820   -8.1360   21.3450 C   0  0  0  0  0  0  0  0  0  0  0  0
  -22.0740   -9.0760   20.3830 C   0  0  0  0  0  3  0  0  0  0  0  0
  -22.7950  -10.2680   20.1970 C   0  0  0  0  0  3  0  0  0  0  0  0
  -21.7330   -6.9880   21.4380 O   0  0  0  0  0  0  0  0  0  0  0  0
  -21.6570   -6.2690   22.6030 C   0  0  0  0  0  0  0  0  0  0  0  0
  -21.1690   -6.8390   23.7990 C   0  0  0  0  0  3  0  0  0  0  0  0
  -21.0430   -6.0460   24.9560 C   0  0  0  0  0  3  0  0  0  0  0  0
  -21.3950   -4.6830   24.9190 C   0  0  0  0  0  0  0  0  0  0  0  0
  -21.8780   -4.1130   23.7270 C   0  0  0  0  0  3  0  0  0  0  0  0
  -22.0050   -4.9040   22.5730 C   0  0  0  0  0  0  0  0  0  0  0  0
  -22.4500   -4.3430   21.4210 F   0  0  0  0  0  0  0  0  0  0  0  0
  -21.2680   -3.9170   26.0290 F   0  0  0  0  0  0  0  0  0  0  0  0
  -22.7660  -13.6240   21.0700 C   0  0  0  0  0  0  0  0  0  0  0  0
  -22.0450  -12.9350   21.9470 N   0  0  0  0  0  0  0  0  0  0  0  0
  -22.3160  -14.6350   20.5290 O   0  0  0  0  0  0  0  0  0  0  0  0
  -22.4190  -12.1180   22.4070 H   0  0  0  0  0  0  0  0  0  0  0  0
  -21.1050  -13.2330   22.1640 H   0  0  0  0  0  0  0  0  0  0  0  0
  -25.3610  -15.3220   20.2560 N   0  0  0  0  0  0  0  0  0  0  0  0
  -24.5900  -15.9710   20.3630 H   0  0  0  0  0  0  0  0  0  0  0  0
  -26.2050  -15.7630   19.9150 H   0  0  0  0  0  0  0  0  0  0  0  0
  -28.0470  -23.7130   20.0850 C   0  0  0  0  0  1  0  0  0  0  0  0
  -28.2050  -25.4940   20.2900 O   0  0  0  0  0  0  0  0  0  0  0  0
  -24.7110  -31.8630   23.2290 C   0  0  0  0  0  0  0  0  0  0  0  0
  -27.2440  -26.7430   20.2270 C   0  0  0  0  0  0  0  0  0  0  0  0
  -23.5350  -30.4840   21.5710 C   0  0  0  0  0  3  0  0  0  0  0  0
  -24.9880  -28.8280   20.1570 C   0  0  0  0  0  0  0  0  0  0  0  0
  -26.1170  -30.5940   21.4810 C   0  0  0  0  0  2  0  0  0  0  0  0
  -26.1790  -29.1600   20.8120 C   0  0  0  0  0  0  0  0  0  0  0  0
  -27.2870  -28.1500   20.8140 C   0  0  0  0  0  3  0  0  0  0  0  0
  -26.0200  -26.6380   19.5130 C   0  0  0  0  0  3  0  0  0  0  0  0
  -24.9540  -27.5930   19.4800 C   0  0  0  0  0  3  0  0  0  0  0  0
  -23.7850  -29.7930   20.1950 C   0  0  0  0  0  2  0  0  0  0  0  0
  -24.8120  -31.0160   22.1450 N   0  0  0  0  0  0  0  0  0  0  0  0
  -23.6140  -32.1640   23.7320 O   0  0  0  0  0  0  0  0  0  0  0  0
  -22.8030  -29.5050   22.5280 C   0  0  0  0  0  0  0  0  0  0  0  0
  -21.4700  -29.3670   22.3960 N   0  0  0  0  0  0  0  0  0  0  0  0
  -23.4470  -28.8690   23.3640 O   0  0  0  0  0  0  0  0  0  0  0  0
  -21.0050  -29.9320   21.6980 H   0  0  0  0  0  0  0  0  0  0  0  0
  -18.0620  -28.1880   22.8890 C   0  0  0  0  0  0  0  0  0  0  0  0
  -20.6270  -28.4290   23.1510 C   0  0  0  0  0  3  0  0  0  0  0  0
  -20.7110  -27.0030   22.5550 C   0  0  0  0  0  2  0  0  0  0  0  0
  -19.6050  -26.7080   21.5370 C   0  0  0  0  0  2  0  0  0  0  0  0
  -18.2260  -26.8520   22.1860 C   0  0  0  0  0  2  0  0  0  0  0  0
  -19.1880  -28.9350   23.3270 C   0  0  0  0  0  0  0  0  0  0  0  0
  -18.9780  -30.1820   23.9530 C   0  0  0  0  0  3  0  0  0  0  0  0
  -17.6750  -30.6840   24.1410 C   0  0  0  0  0  3  0  0  0  0  0  0
  -16.5640  -29.9350   23.7160 C   0  0  0  0  0  3  0  0  0  0  0  0
  -16.7590  -28.6880   23.0940 C   0  0  0  0  0  3  0  0  0  0  0  0
  -25.9650  -32.5060   23.8940 C   0  0  0  0  0  3  0  0  0  0  0  0
  -25.6440  -33.9070   24.2360 N   0  0  0  0  0  0  0  0  0  0  0  0
  -25.9570  -34.9770   23.4910 C   0  0  0  0  0  0  0  0  0  0  0  0
  -26.6050  -34.8900   22.4470 O   0  0  0  0  0  0  0  0  0  0  0  0
  -25.0630  -34.0460   25.0490 H   0  0  0  0  0  0  0  0  0  0  0  0
  -24.2020  -36.7700   23.2350 C   0  0  0  0  0  1  0  0  0  0  0  0
  -25.4840  -36.3640   23.9820 C   0  0  0  0  0  3  0  0  0  0  0  0
  -27.6420  -37.2770   24.7230 C   0  0  0  0  0  1  0  0  0  0  0  0
  -26.5040  -37.4240   23.8200 N   0  0  0  0  0  0  0  0  0  0  0  0
  -26.0990  -38.3450   23.9640 H   0  0  0  0  0  0  0  0  0  0  0  0
  -26.4400  -31.7400   25.1910 C   0  0  1  0  0  0  0  0  0  0  0  0
  -25.3180  -31.5170   26.2350 C   0  0  0  0  0  1  0  0  0  0  0  0
  -27.0220  -30.3550   24.8360 C   0  0  0  0  0  1  0  0  0  0  0  0
  -27.5800  -32.5290   25.8780 C   0  0  0  0  0  1  0  0  0  0  0  0
  4  7  1  0
  4  8  1  0
  5  2  1  0
  5  8  1  0
  5  1  1  0
  6  1  1  0
  6  3  1  0
  7  2  1  0
  7  3  1  0
  8 17  1  1
  8  6  1  0
  9 17  1  0
 10 15  1  0
 11 12  1  0
 11 10  1  0
 13 12  1  0
 13 22  1  0
 13 14  1  0
 15  9  1  0
 15 14  1  0
 16  9  2  0
 17 18  1  0
 19 20  2  0
 20 39  1  0
 21 20  1  0
 21 24  1  0
 22 19  1  0
 22 23  1  0
 23 21  2  0
 24 25  1  0
 25 26  2  0
 27 30  1  0
 27 26  1  0
 28 27  2  0
 29 28  1  0
 29 24  2  0
 30 31  1  0
 31 32  1  0
 32 33  2  0
 34 33  1  0
 34 38  1  0
 35 34  2  0
 36 31  2  0
 36 35  1  0
 37 36  1  0
 39 40  1  0
 40 43  1  0
 40 42  1  0
 41 39  2  0
 44 45  1  0
 44 19  1  0
 46 44  1  0
 47 48  1  0
 49 60  2  0
 50 48  1  0
 50 55  1  0
 51 59  1  0
 51 61  1  0
 52 58  1  0
 52 54  1  0
 53 59  1  0
 54 55  2  0
 54 53  1  0
 56 50  2  0
 57 56  1  0
 57 52  2  0
 58 51  1  0
 59 49  1  0
 61 63  2  0
 62 61  1  0
 64 62  1  0
 65 74  2  0
 65 70  1  0
 66 62  1  0
 66 70  1  0
 67 66  1  0
 68 69  1  0
 68 67  1  0
 69 65  1  0
 70 71  2  0
 71 72  1  0
 73 72  2  0
 74 73  1  0
 75 49  1  0
 75 76  1  0
 75 85  1  0
 76 79  1  0
 77 81  1  0
 77 76  1  0
 78 77  2  0
 81 80  1  0
 83 84  1  0
 83 81  1  0
 83 82  1  0
 85 88  1  1
 85 86  1  0
 87 85  1  0
M  ISO  4   9 100  17 100  47 101  48 101
M  END
>  <TORSDO>  (20) 
F 17

>  <SCORE>  (20) 
-16.563

>  <name>  (20) 
19

>  <ligand_id>  (20) 
19

>  <original_smiles>  (20) 
[H]c1c([H])c([H])c2c(c1[H])C([H])([H])C([H])([H])C([H])([H])C2([H])N([H])C(=O)C1([H])N(C(=O)C([H])(N([H])C(=O)C([H])(N([H])C([H])([H])[H])C([H])([H])[H])C(C([H])([H])[H])(C([H])([H])[H])C([H])([H])[H])C([H])([H])c2c([H])c(OC([H])([H])C34C([H])([H])C5([H])C([H])([H])C([H])(C3([H])[H])C5(N([H])C(=O)N3C([H])([H])C([H])([H])C([H])([H])C([H])(n5nc(-c6c([H])c([H])c(Oc7c([H])c([H])c(F)c([H])c7F)c([H])c6[H])c(C(=O)N([H])[H])c5N([H])[H])C3([H])[H])C4([H])[H])c([H])c([H])c2C1([H])[H]

>  <smiles>  (20) 
[H]c1c([H])c([H])c2c(c1[H])C([H])([H])C([H])([H])C([H])([H])C2([H])N([H])C(=O)C1([H])N(C(=O)C([H])(N([H])C(=O)C([H])(N([H])C([H])([H])[H])C([H])([H])[H])C(C([H])([H])[H])(C([H])([H])[H])C([H])([H])[H])C([H])([H])c2c([H])c(OC([H])([H])C34C([H])([H])C5([H])C([H])([H])C([H])(C3([H])[H])C5(N([H])C(=O)N3C([H])([H])C([H])([H])C([H])([H])C([H])(n5nc(-c6c([H])c([H])c(Oc7c([H])c([H])c(F)c([H])c7F)c([H])c6[H])c(C(=O)N([H])[H])c5N([H])[H])C3([H])[H])C4([H])[H])c([H])c([H])c2C1([H])[H]

$$$$
20:0:0
     RDKit          3D

 95104  0  0  1  0  0  0  0  0999 V2000
  -31.2650  -22.6040   19.2260 C   0  0  0  0  0  2  0  0  0  0  0  0
  -30.5590  -23.9060   19.6850 C   0  0  0  0  0  2  0  0  0  0  0  0
  -30.6940  -20.0070   19.1500 C   0  0  0  0  0  2  0  0  0  0  0  0
  -28.7190  -19.4430   20.5880 C   0  0  0  0  0  2  0  0  0  0  0  0
  -30.4250  -21.4470   19.7660 C   0  0  0  0  0  3  0  0  0  0  0  0
  -28.9990  -22.0090   19.6120 C   0  0  0  0  0  3  0  0  0  0  0  0
  -29.0900  -23.5870   20.0670 C   0  0  0  0  0  3  0  0  0  0  0  0
  -29.7450  -18.8030   19.5690 C   0  0  0  0  0  3  0  0  0  0  0  0
  -28.0920  -20.9130   20.3140 C   0  0  0  0  0  3  0  0  0  0  0  0
  -30.5720  -17.4380   19.9960 C   0  0  0  0  0  2  0  0  0  0  0  0
  -30.7000  -14.8050   19.8710 C   0  0  0  0  0  0  0  0  0  0  0  0
  -30.3890  -12.5080   18.9240 C   0  0  0  0  0  2  0  0  0  0  0  0
  -29.3720  -12.5440   17.7630 C   0  0  0  0  0  2  0  0  0  0  0  0
  -27.9370  -12.3910   18.2990 C   0  0  0  0  0  2  0  0  0  0  0  0
  -27.6500  -13.3180   19.5100 C   0  0  0  0  0  3  0  0  0  0  0  0
  -28.7810  -13.2690   20.5590 C   0  0  0  0  0  2  0  0  0  0  0  0
  -30.0300  -13.5990   19.8630 N   0  0  0  0  0  0  0  0  0  0  0  0
  -31.8780  -14.8340   19.5060 O   0  0  0  0  0  0  0  0  0  0  0  0
  -30.0060  -16.0030   20.0750 N   0  0  0  0  0  0  0  0  0  0  0  0
  -29.0290  -15.9150   20.3060 H   0  0  0  0  0  0  0  0  0  0  0  0
  -25.3460  -13.9540   20.4350 C   0  0  0  0  0  0  0  0  0  0  0  0
  -24.2870  -13.2010   20.8630 C   0  0  0  0  0  0  0  0  0  0  0  0
  -24.7060  -11.8390   20.7650 C   0  0  0  0  0  0  0  0  0  0  0  0
  -26.3410  -13.0530   20.0990 N   0  0  0  0  0  0  0  0  0  0  0  0
  -25.9690  -11.7730   20.3630 N   0  0  0  0  0  0  0  0  0  0  0  0
  -23.9560  -10.5930   20.9750 C   0  0  0  0  0  0  0  0  0  0  0  0
  -24.4130   -9.5960   21.8650 C   0  0  0  0  0  3  0  0  0  0  0  0
  -23.6630   -8.4160   22.0650 C   0  0  0  0  0  3  0  0  0  0  0  0
  -22.4430   -8.2260   21.3760 C   0  0  0  0  0  0  0  0  0  0  0  0
  -22.0040   -9.2110   20.4740 C   0  0  0  0  0  3  0  0  0  0  0  0
  -22.7540  -10.3820   20.2720 C   0  0  0  0  0  3  0  0  0  0  0  0
  -21.6610   -7.1020   21.4880 O   0  0  0  0  0  0  0  0  0  0  0  0
  -21.6520   -6.3430   22.6300 C   0  0  0  0  0  0  0  0  0  0  0  0
  -21.3000   -6.8870   23.8840 C   0  0  0  0  0  3  0  0  0  0  0  0
  -21.2370   -6.0550   25.0200 C   0  0  0  0  0  3  0  0  0  0  0  0
  -21.5150   -4.6810   24.9030 C   0  0  0  0  0  0  0  0  0  0  0  0
  -21.8610   -4.1350   23.6540 C   0  0  0  0  0  3  0  0  0  0  0  0
  -21.9260   -4.9640   22.5200 C   0  0  0  0  0  0  0  0  0  0  0  0
  -22.2390   -4.4300   21.3150 F   0  0  0  0  0  0  0  0  0  0  0  0
  -21.4480   -3.8790   25.9930 F   0  0  0  0  0  0  0  0  0  0  0  0
  -22.9280  -13.7120   21.2450 C   0  0  0  0  0  0  0  0  0  0  0  0
  -22.2440  -13.0170   22.1480 N   0  0  0  0  0  0  0  0  0  0  0  0
  -22.4860  -14.7610   20.7790 O   0  0  0  0  0  0  0  0  0  0  0  0
  -22.6160  -12.1660   22.5450 H   0  0  0  0  0  0  0  0  0  0  0  0
  -21.3350  -13.3410   22.4470 H   0  0  0  0  0  0  0  0  0  0  0  0
  -25.5380  -15.3230   20.2770 N   0  0  0  0  0  0  0  0  0  0  0  0
  -24.8000  -15.9940   20.4570 H   0  0  0  0  0  0  0  0  0  0  0  0
  -26.3650  -15.7410   19.8740 H   0  0  0  0  0  0  0  0  0  0  0  0
  -26.6920  -20.8360   19.6610 C   0  0  0  0  0  2  0  0  0  0  0  0
  -26.7150  -20.2630   18.3020 N   0  0  0  0  0  4  0  0  0  0  0  0
  -27.2920  -20.8100   17.6880 H   0  0  0  0  0  0  0  0  0  0  0  0
  -25.7830  -20.2540   17.9250 H   0  0  0  0  0  0  0  0  0  0  0  0
  -27.0510  -19.3180   18.3140 H   0  0  0  0  0  0  0  0  0  0  0  0
  -28.0890  -24.7860   19.5620 C   0  0  0  0  0  2  0  0  0  0  0  0
  -28.2880  -26.2650   19.8730 O   0  0  0  0  0  0  0  0  0  0  0  0
  -24.4980  -31.6620   23.0070 C   0  0  0  0  0  0  0  0  0  0  0  0
  -27.1870  -27.1690   19.8280 C   0  0  0  0  0  0  0  0  0  0  0  0
  -23.3250  -30.2900   21.3260 C   0  0  0  0  0  3  0  0  0  0  0  0
  -24.8080  -28.8040   19.8540 C   0  0  0  0  0  0  0  0  0  0  0  0
  -25.8660  -30.6380   21.1640 C   0  0  0  0  0  2  0  0  0  0  0  0
  -25.9730  -29.2760   20.4740 C   0  0  0  0  0  0  0  0  0  0  0  0
  -27.1640  -28.4710   20.4490 C   0  0  0  0  0  3  0  0  0  0  0  0
  -25.9960  -26.7820   19.1740 C   0  0  0  0  0  3  0  0  0  0  0  0
  -24.8280  -27.5690   19.1920 C   0  0  0  0  0  3  0  0  0  0  0  0
  -23.5570  -29.6620   19.9270 C   0  0  0  0  0  2  0  0  0  0  0  0
  -24.5820  -30.8820   21.8890 N   0  0  0  0  0  0  0  0  0  0  0  0
  -23.4080  -31.9040   23.5470 O   0  0  0  0  0  0  0  0  0  0  0  0
  -22.6760  -29.2350   22.2560 C   0  0  0  0  0  0  0  0  0  0  0  0
  -21.3470  -29.0600   22.1450 N   0  0  0  0  0  0  0  0  0  0  0  0
  -23.3670  -28.5800   23.0380 O   0  0  0  0  0  0  0  0  0  0  0  0
  -20.8460  -29.6420   21.4890 H   0  0  0  0  0  0  0  0  0  0  0  0
  -17.9780  -27.8460   22.6730 C   0  0  0  0  0  0  0  0  0  0  0  0
  -20.5440  -28.0890   22.8910 C   0  0  0  0  0  3  0  0  0  0  0  0
  -20.6270  -26.6850   22.2470 C   0  0  0  0  0  2  0  0  0  0  0  0
  -19.4990  -26.4130   21.2470 C   0  0  0  0  0  2  0  0  0  0  0  0
  -18.1340  -26.5300   21.9310 C   0  0  0  0  0  2  0  0  0  0  0  0
  -19.1100  -28.5860   23.1110 C   0  0  0  0  0  0  0  0  0  0  0  0
  -18.9100  -29.8180   23.7690 C   0  0  0  0  0  3  0  0  0  0  0  0
  -17.6110  -30.3140   23.9910 C   0  0  0  0  0  3  0  0  0  0  0  0
  -16.4950  -29.5700   23.5710 C   0  0  0  0  0  3  0  0  0  0  0  0
  -16.6790  -28.3390   22.9180 C   0  0  0  0  0  3  0  0  0  0  0  0
  -25.7640  -32.3050   23.6500 C   0  0  0  0  0  3  0  0  0  0  0  0
  -26.2970  -31.5050   24.9030 C   0  0  1  0  0  0  0  0  0  0  0  0
  -25.2100  -31.2130   25.9640 C   0  0  0  0  0  1  0  0  0  0  0  0
  -26.9070  -30.1520   24.4710 C   0  0  0  0  0  1  0  0  0  0  0  0
  -27.4330  -32.3010   25.5900 C   0  0  0  0  0  1  0  0  0  0  0  0
  -25.4220  -33.6840   24.0280 N   0  0  0  0  0  0  0  0  0  0  0  0
  -25.7280  -34.7720   23.3070 C   0  0  0  0  0  0  0  0  0  0  0  0
  -26.3960  -34.7190   22.2710 O   0  0  0  0  0  0  0  0  0  0  0  0
  -24.8290  -33.7970   24.8360 H   0  0  0  0  0  0  0  0  0  0  0  0
  -23.9600  -36.5380   23.0220 C   0  0  0  0  0  1  0  0  0  0  0  0
  -25.2130  -36.1320   23.8160 C   0  0  0  0  0  3  0  0  0  0  0  0
  -27.3290  -37.0350   24.6730 C   0  0  0  0  0  1  0  0  0  0  0  0
  -26.2210  -37.2110   23.7370 N   0  0  0  0  0  0  0  0  0  0  0  0
  -25.7960  -38.1170   23.9160 H   0  0  0  0  0  0  0  0  0  0  0  0
  1  2  1  0
  1  5  1  0
  2  7  1  0
  3  8  1  0
  5  3  1  0
  6  5  1  0
  6  7  1  0
  6  9  1  0
  8 10  1  0
  8  4  1  0
  9  4  1  0
 10 19  1  0
 11 19  1  0
 12 17  1  0
 13 14  1  0
 13 12  1  0
 14 15  1  0
 15 24  1  0
 15 16  1  0
 17 11  1  0
 17 16  1  0
 18 11  2  0
 19 20  1  0
 21 22  2  0
 22 41  1  0
 23 22  1  0
 23 26  1  0
 24 25  1  0
 24 21  1  0
 25 23  2  0
 26 27  1  0
 27 28  2  0
 29 32  1  0
 29 28  1  0
 30 29  2  0
 31 30  1  0
 31 26  2  0
 32 33  1  0
 33 34  1  0
 34 35  2  0
 36 35  1  0
 36 40  1  0
 37 36  2  0
 38 33  2  0
 38 37  1  0
 39 38  1  0
 41 42  1  0
 42 45  1  0
 42 44  1  0
 43 41  2  0
 46 21  1  0
 46 47  1  0
 48 46  1  0
 49  9  1  0
 50 53  1  0
 50 49  1  0
 51 50  1  0
 52 50  1  0
 54 55  1  0
 54  7  1  0
 56 67  2  0
 56 82  1  0
 57 55  1  0
 57 62  1  0
 58 66  1  0
 58 68  1  0
 59 65  1  0
 59 61  1  0
 60 66  1  0
 61 60  1  0
 62 61  2  0
 63 64  1  0
 63 57  2  0
 64 59  2  0
 65 58  1  0
 66 56  1  0
 68 70  2  0
 69 68  1  0
 69 73  1  0
 71 69  1  0
 72 81  2  0
 72 77  1  0
 73 77  1  0
 74 73  1  0
 75 76  1  0
 75 74  1  0
 76 72  1  0
 77 78  2  0
 78 79  1  0
 80 79  2  0
 81 80  1  0
 82 87  1  0
 82 83  1  0
 83 86  1  1
 83 84  1  0
 85 83  1  0
 87 90  1  0
 88 92  1  0
 88 87  1  0
 89 88  2  0
 91 92  1  0
 94 92  1  0
 94 95  1  0
 94 93  1  0
M  ISO  4  11 100  19 100  54 101  55 101
M  END
>  <TORSDO>  (21) 
F 20

>  <SCORE>  (21) 
-13.056

>  <name>  (21) 
20

>  <ligand_id>  (21) 
20

>  <original_smiles>  (21) 
[H]c1c([H])c([H])c2c(c1[H])C([H])([H])C([H])([H])C([H])([H])C2([H])N([H])C(=O)C1([H])N(C(=O)C([H])(N([H])C(=O)C([H])(N([H])C([H])([H])[H])C([H])([H])[H])C(C([H])([H])[H])(C([H])([H])[H])C([H])([H])[H])C([H])([H])c2c([H])c(OC([H])([H])C3([H])C([H])([H])C([H])([H])C4([H])C([H])([H])C([H])(C([H])([H])N([H])C(=O)N5C([H])([H])C([H])([H])C([H])([H])C([H])(n6nc(-c7c([H])c([H])c(Oc8c([H])c([H])c(F)c([H])c8F)c([H])c7[H])c(C(=O)N([H])[H])c6N([H])[H])C5([H])[H])C([H])([H])C([H])(C([H])([H])[N+]([H])([H])[H])C34[H])c([H])c([H])c2C1([H])[H]

>  <smiles>  (21) 
[H]c1c([H])c([H])c2c(c1[H])C([H])([H])C([H])([H])C([H])([H])C2([H])N([H])C(=O)C1([H])N(C(=O)C([H])(N([H])C(=O)C([H])(N([H])C([H])([H])[H])C([H])([H])[H])C(C([H])([H])[H])(C([H])([H])[H])C([H])([H])[H])C([H])([H])c2c([H])c(OC([H])([H])C3([H])C([H])([H])C([H])([H])C4([H])C([H])([H])C([H])(C([H])([H])N([H])C(=O)N5C([H])([H])C([H])([H])C([H])([H])C([H])(n6nc(-c7c([H])c([H])c(Oc8c([H])c([H])c(F)c([H])c8F)c([H])c7[H])c(C(=O)N([H])[H])c6N([H])[H])C5([H])[H])C([H])([H])C([H])(C([H])([H])[N+]([H])([H])[H])C34[H])c([H])c([H])c2C1([H])[H]

$$$$
21:0:0
     RDKit          3D

 96105  0  0  1  0  0  0  0  0999 V2000
  -31.5640  -20.9530   20.3680 C   0  0  0  0  0  2  0  0  0  0  0  0
  -29.7000  -20.0430   21.7640 C   0  0  0  0  0  2  0  0  0  0  0  0
  -30.3560  -20.3600   19.6230 C   0  0  0  0  0  3  0  0  0  0  0  0
  -29.6780  -19.2280   20.4510 C   0  0  2  0  0  0  0  0  0  0  0  0
  -30.3840  -21.3230   21.2650 C   0  0  1  0  0  0  0  0  0  0  0  0
  -30.4740  -22.4240   22.3230 C   0  0  0  0  0  1  0  0  0  0  0  0
  -29.6630  -21.6350   20.0020 N   0  0  1  0  0  4  0  0  0  0  0  0
  -28.6670  -21.4700   20.0780 H   0  0  0  0  0  0  0  0  0  0  0  0
  -28.2180  -18.9800   19.9900 C   0  0  0  0  0  0  0  0  0  0  0  0
  -27.5260  -17.6900   20.4120 C   0  0  0  0  0  1  0  0  0  0  0  0
  -27.5980  -19.8350   19.3530 O   0  0  0  0  0  0  0  0  0  0  0  0
  -30.4720  -17.8630   20.6090 C   0  0  0  0  0  2  0  0  0  0  0  0
  -30.2470  -16.7340   19.5530 C   0  0  0  0  0  2  0  0  0  0  0  0
  -30.8780  -14.2660   19.6380 C   0  0  0  0  0  0  0  0  0  0  0  0
  -30.4530  -12.0130   18.7110 C   0  0  0  0  0  2  0  0  0  0  0  0
  -29.4130  -12.1510   17.5780 C   0  0  0  0  0  2  0  0  0  0  0  0
  -27.9790  -12.0880   18.1400 C   0  0  0  0  0  2  0  0  0  0  0  0
  -27.7740  -13.0320   19.3560 C   0  0  0  0  0  3  0  0  0  0  0  0
  -28.9180  -12.8610   20.3850 C   0  0  0  0  0  2  0  0  0  0  0  0
  -30.1960  -13.0860   19.6890 N   0  0  0  0  0  0  0  0  0  0  0  0
  -31.9550  -14.3880   19.0490 O   0  0  0  0  0  0  0  0  0  0  0  0
  -30.1930  -15.3460   20.0830 N   0  0  0  0  0  0  0  0  0  0  0  0
  -29.3500  -15.1060   20.5840 H   0  0  0  0  0  0  0  0  0  0  0  0
  -25.5180  -13.7930   20.3350 C   0  0  0  0  0  0  0  0  0  0  0  0
  -24.4360  -13.0900   20.7950 C   0  0  0  0  0  0  0  0  0  0  0  0
  -24.7820  -11.7100   20.6710 C   0  0  0  0  0  0  0  0  0  0  0  0
  -26.4590  -12.8440   19.9670 N   0  0  0  0  0  0  0  0  0  0  0  0
  -26.0250  -11.5840   20.2240 N   0  0  0  0  0  0  0  0  0  0  0  0
  -23.9800  -10.5000   20.8970 C   0  0  0  0  0  0  0  0  0  0  0  0
  -24.4050   -9.4890   21.7870 C   0  0  0  0  0  3  0  0  0  0  0  0
  -23.6100   -8.3430   22.0030 C   0  0  0  0  0  3  0  0  0  0  0  0
  -22.3730   -8.2020   21.3300 C   0  0  0  0  0  0  0  0  0  0  0  0
  -21.9650   -9.2000   20.4290 C   0  0  0  0  0  3  0  0  0  0  0  0
  -22.7600  -10.3370   20.2110 C   0  0  0  0  0  3  0  0  0  0  0  0
  -21.5450   -7.1130   21.4590 O   0  0  0  0  0  0  0  0  0  0  0  0
  -21.4930   -6.3810   22.6190 C   0  0  0  0  0  0  0  0  0  0  0  0
  -21.1650   -6.9710   23.8590 C   0  0  0  0  0  3  0  0  0  0  0  0
  -21.0580   -6.1690   25.0130 C   0  0  0  0  0  3  0  0  0  0  0  0
  -21.2650   -4.7800   24.9280 C   0  0  0  0  0  0  0  0  0  0  0  0
  -21.5840   -4.1900   23.6920 C   0  0  0  0  0  3  0  0  0  0  0  0
  -21.6960   -4.9890   22.5410 C   0  0  0  0  0  0  0  0  0  0  0  0
  -21.9840   -4.4130   21.3480 F   0  0  0  0  0  0  0  0  0  0  0  0
  -21.1540   -4.0070   26.0340 F   0  0  0  0  0  0  0  0  0  0  0  0
  -23.1180  -13.6620   21.2310 C   0  0  0  0  0  0  0  0  0  0  0  0
  -22.4360  -12.9960   22.1570 N   0  0  0  0  0  0  0  0  0  0  0  0
  -22.7040  -14.7310   20.7850 O   0  0  0  0  0  0  0  0  0  0  0  0
  -22.7810  -12.1270   22.5370 H   0  0  0  0  0  0  0  0  0  0  0  0
  -21.5530  -13.3580   22.4900 H   0  0  0  0  0  0  0  0  0  0  0  0
  -25.7730  -15.1520   20.1810 N   0  0  0  0  0  0  0  0  0  0  0  0
  -25.0690  -15.8570   20.3720 H   0  0  0  0  0  0  0  0  0  0  0  0
  -26.6030  -15.5310   19.7410 H   0  0  0  0  0  0  0  0  0  0  0  0
  -29.8720  -22.8660   19.1370 C   0  0  0  0  0  2  0  0  0  0  0  0
  -31.0850  -25.0740   19.5500 C   0  0  0  0  0  1  0  0  0  0  0  0
  -29.7800  -24.2930   19.8100 C   0  0  0  0  0  3  0  0  0  0  0  0
  -28.5750  -25.1610   19.3100 C   0  0  0  0  0  2  0  0  0  0  0  0
  -28.6020  -26.5470   19.7470 O   0  0  0  0  0  0  0  0  0  0  0  0
  -24.6500  -31.5530   22.9680 C   0  0  0  0  0  0  0  0  0  0  0  0
  -27.4160  -27.2730   19.7310 C   0  0  0  0  0  0  0  0  0  0  0  0
  -23.4870  -30.1950   21.2630 C   0  0  0  0  0  3  0  0  0  0  0  0
  -24.9850  -28.7480   19.7870 C   0  0  0  0  0  0  0  0  0  0  0  0
  -26.0060  -30.6150   21.0920 C   0  0  0  0  0  2  0  0  0  0  0  0
  -26.1320  -29.2690   20.4010 C   0  0  0  0  0  0  0  0  0  0  0  0
  -27.3480  -28.5400   20.3680 C   0  0  0  0  0  3  0  0  0  0  0  0
  -26.2450  -26.7830   19.1030 C   0  0  0  0  0  3  0  0  0  0  0  0
  -25.0390  -27.5070   19.1350 C   0  0  0  0  0  3  0  0  0  0  0  0
  -23.7220  -29.5770   19.8590 C   0  0  0  0  0  2  0  0  0  0  0  0
  -24.7340  -30.8010   21.8350 N   0  0  0  0  0  0  0  0  0  0  0  0
  -23.5600  -31.7750   23.5130 O   0  0  0  0  0  0  0  0  0  0  0  0
  -22.8560  -29.1200   22.1780 C   0  0  0  0  0  0  0  0  0  0  0  0
  -21.5260  -28.9570   22.0830 N   0  0  0  0  0  0  0  0  0  0  0  0
  -23.5580  -28.4380   22.9300 O   0  0  0  0  0  0  0  0  0  0  0  0
  -21.0210  -29.5560   21.4450 H   0  0  0  0  0  0  0  0  0  0  0  0
  -18.1540  -27.7900   22.6520 C   0  0  0  0  0  0  0  0  0  0  0  0
  -20.7260  -27.9780   22.8190 C   0  0  0  0  0  3  0  0  0  0  0  0
  -20.7710  -26.5950   22.1300 C   0  0  0  0  0  2  0  0  0  0  0  0
  -19.6160  -26.3700   21.1490 C   0  0  0  0  0  2  0  0  0  0  0  0
  -18.2700  -26.4930   21.8680 C   0  0  0  0  0  2  0  0  0  0  0  0
  -19.3080  -28.4940   23.0850 C   0  0  0  0  0  0  0  0  0  0  0  0
  -19.1450  -29.7130   23.7810 C   0  0  0  0  0  3  0  0  0  0  0  0
  -17.8600  -30.2240   24.0460 C   0  0  0  0  0  3  0  0  0  0  0  0
  -16.7220  -29.5150   23.6260 C   0  0  0  0  0  3  0  0  0  0  0  0
  -16.8690  -28.3000   22.9340 C   0  0  0  0  0  3  0  0  0  0  0  0
  -25.9160  -32.1920   23.6210 C   0  0  0  0  0  3  0  0  0  0  0  0
  -25.5640  -33.5600   24.0200 N   0  0  0  0  0  0  0  0  0  0  0  0
  -25.8680  -34.6600   23.3170 C   0  0  0  0  0  0  0  0  0  0  0  0
  -26.5460  -34.6280   22.2860 O   0  0  0  0  0  0  0  0  0  0  0  0
  -24.9620  -33.6540   24.8240 H   0  0  0  0  0  0  0  0  0  0  0  0
  -24.0870  -36.4150   23.0470 C   0  0  0  0  0  1  0  0  0  0  0  0
  -25.3380  -36.0070   23.8420 C   0  0  0  0  0  3  0  0  0  0  0  0
  -27.4450  -36.9160   24.7200 C   0  0  0  0  0  1  0  0  0  0  0  0
  -26.3390  -37.0950   23.7840 N   0  0  0  0  0  0  0  0  0  0  0  0
  -25.9030  -37.9940   23.9750 H   0  0  0  0  0  0  0  0  0  0  0  0
  -26.4580  -31.3710   24.8550 C   0  0  1  0  0  0  0  0  0  0  0  0
  -25.3760  -31.0580   25.9140 C   0  0  0  0  0  1  0  0  0  0  0  0
  -27.0690  -30.0280   24.3890 C   0  0  0  0  0  1  0  0  0  0  0  0
  -27.5950  -32.1570   25.5480 C   0  0  0  0  0  1  0  0  0  0  0  0
  1  5  1  0
  3  7  1  0
  3  1  1  0
  3  4  1  0
  4 12  1  1
  4  2  1  0
  5  2  1  0
  5  6  1  1
  7  8  1  1
  7  5  1  0
  9 10  1  0
  9  4  1  0
 11  9  2  0
 13 22  1  0
 13 12  1  0
 14 20  1  0
 14 22  1  0
 15 20  1  0
 16 17  1  0
 16 15  1  0
 18 17  1  0
 18 27  1  0
 18 19  1  0
 20 19  1  0
 21 14  2  0
 22 23  1  0
 24 25  2  0
 25 44  1  0
 26 25  1  0
 26 29  1  0
 27 28  1  0
 27 24  1  0
 28 26  2  0
 29 30  1  0
 30 31  2  0
 32 35  1  0
 32 31  1  0
 33 32  2  0
 34 33  1  0
 34 29  2  0
 35 36  1  0
 36 37  1  0
 37 38  2  0
 39 38  1  0
 39 43  1  0
 40 39  2  0
 41 36  2  0
 41 40  1  0
 42 41  1  0
 44 45  1  0
 45 48  1  0
 45 47  1  0
 46 44  2  0
 49 24  1  0
 49 50  1  0
 51 49  1  0
 52 54  1  0
 52  7  1  0
 54 53  1  0
 55 56  1  0
 55 54  1  0
 57 68  2  0
 58 56  1  0
 58 63  1  0
 59 67  1  0
 59 69  1  0
 60 66  1  0
 60 62  1  0
 61 67  1  0
 62 61  1  0
 63 62  2  0
 64 65  1  0
 64 58  2  0
 65 60  2  0
 66 59  1  0
 67 57  1  0
 69 71  2  0
 70 69  1  0
 72 70  1  0
 73 82  2  0
 73 78  1  0
 74 70  1  0
 74 78  1  0
 75 74  1  0
 76 77  1  0
 76 75  1  0
 77 73  1  0
 78 79  2  0
 79 80  1  0
 81 80  2  0
 82 81  1  0
 83 57  1  0
 83 84  1  0
 83 93  1  0
 84 87  1  0
 85 89  1  0
 85 84  1  0
 86 85  2  0
 89 88  1  0
 91 89  1  0
 91 92  1  0
 91 90  1  0
 93 96  1  1
 93 94  1  0
 95 93  1  0
M  ISO  4  14 100  22 100  55 101  56 101
M  END
>  <TORSDO>  (22) 
F 22

>  <SCORE>  (22) 
-12.170

>  <name>  (22) 
21

>  <ligand_id>  (22) 
21

>  <original_smiles>  (22) 
[H]c1c([H])c([H])c2c(c1[H])C([H])([H])C([H])([H])C([H])([H])C2([H])N([H])C(=O)C1([H])N(C(=O)C([H])(N([H])C(=O)C([H])(N([H])C([H])([H])[H])C([H])([H])[H])C(C([H])([H])[H])(C([H])([H])[H])C([H])([H])[H])C([H])([H])c2c([H])c(OC([H])([H])C([H])(C([H])([H])[H])C([H])([H])[N+]3([H])C4([H])C([H])([H])C3(C([H])([H])[H])C([H])([H])C4(C(=O)C([H])([H])[H])C([H])([H])C([H])([H])N([H])C(=O)N3C([H])([H])C([H])([H])C([H])([H])C([H])(n4nc(-c5c([H])c([H])c(Oc6c([H])c([H])c(F)c([H])c6F)c([H])c5[H])c(C(=O)N([H])[H])c4N([H])[H])C3([H])[H])c([H])c([H])c2C1([H])[H]

>  <smiles>  (22) 
[H]c1c([H])c([H])c2c(c1[H])C([H])([H])C([H])([H])C([H])([H])C2([H])N([H])C(=O)C1([H])N(C(=O)C([H])(N([H])C(=O)C([H])(N([H])C([H])([H])[H])C([H])([H])[H])C(C([H])([H])[H])(C([H])([H])[H])C([H])([H])[H])C([H])([H])c2c([H])c(OC([H])([H])C([H])(C([H])([H])[H])C([H])([H])[N+]3([H])C4([H])C([H])([H])C3(C([H])([H])[H])C([H])([H])C4(C(=O)C([H])([H])[H])C([H])([H])C([H])([H])N([H])C(=O)N3C([H])([H])C([H])([H])C([H])([H])C([H])(n4nc(-c5c([H])c([H])c(Oc6c([H])c([H])c(F)c([H])c6F)c([H])c5[H])c(C(=O)N([H])[H])c4N([H])[H])C3([H])[H])c([H])c([H])c2C1([H])[H]

$$$$
22:0:0
     RDKit          3D

 94102  0  0  1  0  0  0  0  0999 V2000
  -29.2590  -19.6200   19.9660 C   0  0  0  0  0  3  0  0  0  0  0  0
  -29.7180  -18.3190   20.2720 C   0  0  0  0  0  3  0  0  0  0  0  0
  -27.0060  -18.7590   19.7370 C   0  0  0  0  0  3  0  0  0  0  0  0
  -27.8950  -19.8490   19.6870 C   0  0  0  0  0  0  0  0  0  0  0  0
  -28.8320  -17.2090   20.2850 C   0  0  0  0  0  0  0  0  0  0  0  0
  -27.4530  -17.4510   20.0190 C   0  0  0  0  0  0  0  0  0  0  0  0
  -26.4080  -16.3440   19.9910 C   0  0  0  0  0  1  0  0  0  0  0  0
  -30.0640  -15.6050   21.8710 C   0  0  0  0  0  1  0  0  0  0  0  0
  -29.3530  -15.7750   20.5110 C   0  0  0  0  0  3  0  0  0  0  0  0
  -30.9140  -14.1580   19.2250 C   0  0  0  0  0  0  0  0  0  0  0  0
  -30.6440  -11.8040   18.5540 C   0  0  0  0  0  2  0  0  0  0  0  0
  -29.5850  -11.7140   17.4350 C   0  0  0  0  0  2  0  0  0  0  0  0
  -28.1570  -11.6230   18.0200 C   0  0  0  0  0  2  0  0  0  0  0  0
  -27.8960  -12.6750   19.1350 C   0  0  0  0  0  3  0  0  0  0  0  0
  -29.0630  -12.6460   20.1470 C   0  0  0  0  0  2  0  0  0  0  0  0
  -30.2920  -12.9550   19.4040 N   0  0  0  0  0  0  0  0  0  0  0  0
  -31.9700  -14.2580   18.5990 O   0  0  0  0  0  0  0  0  0  0  0  0
  -30.2350  -15.3030   19.4380 N   0  0  0  0  0  0  0  0  0  0  0  0
  -30.6990  -16.0680   18.9780 H   0  0  0  0  0  0  0  0  0  0  0  0
  -25.6460  -13.3940   20.1550 C   0  0  0  0  0  0  0  0  0  0  0  0
  -24.5960  -12.6690   20.6520 C   0  0  0  0  0  0  0  0  0  0  0  0
  -24.9720  -11.2970   20.5300 C   0  0  0  0  0  0  0  0  0  0  0  0
  -26.6040  -12.4640   19.7780 N   0  0  0  0  0  0  0  0  0  0  0  0
  -26.2040  -11.1960   20.0520 N   0  0  0  0  0  0  0  0  0  0  0  0
  -24.2110  -10.0700   20.7900 C   0  0  0  0  0  0  0  0  0  0  0  0
  -24.6570   -9.1070   21.7220 C   0  0  0  0  0  3  0  0  0  0  0  0
  -23.8980   -7.9430   21.9680 C   0  0  0  0  0  3  0  0  0  0  0  0
  -22.6790   -7.7330   21.2800 C   0  0  0  0  0  0  0  0  0  0  0  0
  -22.2500   -8.6840   20.3370 C   0  0  0  0  0  3  0  0  0  0  0  0
  -23.0100   -9.8400   20.0900 C   0  0  0  0  0  3  0  0  0  0  0  0
  -21.8860   -6.6220   21.4370 O   0  0  0  0  0  0  0  0  0  0  0  0
  -21.8070   -5.9590   22.6340 C   0  0  0  0  0  0  0  0  0  0  0  0
  -21.3910   -6.6060   23.8180 C   0  0  0  0  0  3  0  0  0  0  0  0
  -21.2530   -5.8690   25.0120 C   0  0  0  0  0  3  0  0  0  0  0  0
  -21.5220   -4.4880   25.0210 C   0  0  0  0  0  0  0  0  0  0  0  0
  -21.9330   -3.8400   23.8430 C   0  0  0  0  0  3  0  0  0  0  0  0
  -22.0710   -4.5750   22.6520 C   0  0  0  0  0  0  0  0  0  0  0  0
  -22.4450   -3.9420   21.5130 F   0  0  0  0  0  0  0  0  0  0  0  0
  -21.3830   -3.7790   26.1660 F   0  0  0  0  0  0  0  0  0  0  0  0
  -23.2770  -13.2130   21.1230 C   0  0  0  0  0  0  0  0  0  0  0  0
  -22.6390  -12.5370   22.0720 N   0  0  0  0  0  0  0  0  0  0  0  0
  -22.8290  -14.2720   20.6850 O   0  0  0  0  0  0  0  0  0  0  0  0
  -23.0160  -11.6820   22.4500 H   0  0  0  0  0  0  0  0  0  0  0  0
  -21.7610  -12.8850   22.4320 H   0  0  0  0  0  0  0  0  0  0  0  0
  -25.8580  -14.7570   19.9780 N   0  0  0  0  0  0  0  0  0  0  0  0
  -25.1530  -15.4460   20.2190 H   0  0  0  0  0  0  0  0  0  0  0  0
  -26.6940  -15.1670   19.5830 H   0  0  0  0  0  0  0  0  0  0  0  0
  -27.3560  -21.2150   19.2660 C   0  0  0  0  0  2  0  0  0  0  0  0
  -27.7350  -23.5250   19.5850 C   0  0  0  0  0  0  0  0  0  0  0  0
  -26.3570  -23.9100   19.0490 C   0  0  0  0  0  1  0  0  0  0  0  0
  -28.1930  -22.3320   19.6810 N   0  0  0  0  0  0  0  0  0  0  0  0
  -28.5670  -24.7260   20.0180 C   0  0  0  0  0  2  0  0  0  0  0  0
  -29.0480  -25.6010   18.8390 C   0  0  0  0  0  2  0  0  0  0  0  0
  -28.9150  -26.9930   19.1460 O   0  0  0  0  0  0  0  0  0  0  0  0
  -24.6500  -31.2560   22.9070 C   0  0  0  0  0  0  0  0  0  0  0  0
  -27.6520  -27.5390   19.2550 C   0  0  0  0  0  0  0  0  0  0  0  0
  -23.5510  -29.9750   21.0970 C   0  0  0  0  0  3  0  0  0  0  0  0
  -25.1180  -28.7790   19.4840 C   0  0  0  0  0  0  0  0  0  0  0  0
  -26.0300  -30.5920   20.9440 C   0  0  0  0  0  2  0  0  0  0  0  0
  -26.2290  -29.3320   20.1280 C   0  0  0  0  0  0  0  0  0  0  0  0
  -27.4950  -28.7200   20.0130 C   0  0  0  0  0  3  0  0  0  0  0  0
  -26.5150  -26.9930   18.6090 C   0  0  0  0  0  3  0  0  0  0  0  0
  -25.2540  -27.6030   18.7280 C   0  0  0  0  0  3  0  0  0  0  0  0
  -23.8010  -29.5030   19.6420 C   0  0  0  0  0  2  0  0  0  0  0  0
  -24.7610  -30.6160   21.7090 N   0  0  0  0  0  0  0  0  0  0  0  0
  -23.5570  -31.3540   23.4800 O   0  0  0  0  0  0  0  0  0  0  0  0
  -23.0150  -28.7790   21.9160 C   0  0  0  0  0  0  0  0  0  0  0  0
  -21.7100  -28.4990   21.7770 N   0  0  0  0  0  0  0  0  0  0  0  0
  -23.7690  -28.1120   22.6300 O   0  0  0  0  0  0  0  0  0  0  0  0
  -21.1590  -29.0980   21.1790 H   0  0  0  0  0  0  0  0  0  0  0  0
  -18.4530  -26.9930   22.1860 C   0  0  0  0  0  0  0  0  0  0  0  0
  -20.9930  -27.3990   22.4200 C   0  0  0  0  0  3  0  0  0  0  0  0
  -21.1750  -26.0830   21.6290 C   0  0  0  0  0  2  0  0  0  0  0  0
  -20.0570  -25.8320   20.6130 C   0  0  0  0  0  2  0  0  0  0  0  0
  -18.6960  -25.7730   21.3140 C   0  0  0  0  0  2  0  0  0  0  0  0
  -19.5310  -27.7650   22.6930 C   0  0  0  0  0  0  0  0  0  0  0  0
  -19.2480  -28.9090   23.4720 C   0  0  0  0  0  3  0  0  0  0  0  0
  -17.9190  -29.2830   23.7450 C   0  0  0  0  0  3  0  0  0  0  0  0
  -16.8550  -28.5060   23.2530 C   0  0  0  0  0  3  0  0  0  0  0  0
  -17.1230  -27.3620   22.4800 C   0  0  0  0  0  3  0  0  0  0  0  0
  -25.8830  -31.9140   23.6000 C   0  0  0  0  0  3  0  0  0  0  0  0
  -25.4770  -33.2560   24.0400 N   0  0  0  0  0  0  0  0  0  0  0  0
  -25.7620  -34.3890   23.3860 C   0  0  0  0  0  0  0  0  0  0  0  0
  -26.4660  -34.4180   22.3740 O   0  0  0  0  0  0  0  0  0  0  0  0
  -24.8510  -33.3030   24.8310 H   0  0  0  0  0  0  0  0  0  0  0  0
  -23.9280  -36.0910   23.1340 C   0  0  0  0  0  1  0  0  0  0  0  0
  -25.1730  -35.6980   23.9450 C   0  0  0  0  0  3  0  0  0  0  0  0
  -27.2250  -36.6400   24.9090 C   0  0  0  0  0  1  0  0  0  0  0  0
  -26.1360  -36.8210   23.9520 N   0  0  0  0  0  0  0  0  0  0  0  0
  -25.6660  -37.6970   24.1690 H   0  0  0  0  0  0  0  0  0  0  0  0
  -26.4400  -31.0730   24.8130 C   0  0  1  0  0  0  0  0  0  0  0  0
  -25.3530  -30.6660   25.8340 C   0  0  0  0  0  1  0  0  0  0  0  0
  -27.1250  -29.7800   24.3140 C   0  0  0  0  0  1  0  0  0  0  0  0
  -27.5210  -31.8860   25.5640 C   0  0  0  0  0  1  0  0  0  0  0  0
  1  2  1  0
  2  5  2  0
  3  6  2  0
  4  3  1  0
  4  1  2  0
  5  9  1  0
  6  5  1  0
  7  6  1  0
  9  8  1  0
 10 16  1  0
 10 18  1  0
 11 16  1  0
 12 13  1  0
 12 11  1  0
 14 13  1  0
 14 23  1  0
 14 15  1  0
 16 15  1  0
 17 10  2  0
 18  9  1  0
 19 18  1  0
 20 21  2  0
 21 40  1  0
 22 21  1  0
 22 25  1  0
 23 24  1  0
 23 20  1  0
 24 22  2  0
 25 26  1  0
 26 27  2  0
 28 31  1  0
 28 27  1  0
 29 28  2  0
 30 29  1  0
 30 25  2  0
 31 32  1  0
 32 37  2  0
 32 33  1  0
 33 34  2  0
 34 35  1  0
 35 39  1  0
 36 35  2  0
 37 36  1  0
 38 37  1  0
 40 41  1  0
 41 44  1  0
 41 43  1  0
 42 40  2  0
 45 20  1  0
 45 46  1  0
 47 45  1  0
 48 51  1  0
 48  4  1  0
 49 51  2  0
 49 52  1  0
 50 49  1  0
 53 54  1  0
 53 52  1  0
 54 56  1  0
 55 66  2  0
 56 61  1  0
 57 65  1  0
 57 67  1  0
 58 64  1  0
 58 60  1  0
 59 65  1  0
 60 59  1  0
 61 60  2  0
 62 63  1  0
 62 56  2  0
 63 58  2  0
 64 57  1  0
 65 55  1  0
 67 69  2  0
 68 67  1  0
 70 68  1  0
 71 80  2  0
 71 76  1  0
 72 68  1  0
 72 76  1  0
 73 72  1  0
 74 75  1  0
 74 73  1  0
 75 71  1  0
 76 77  2  0
 77 78  1  0
 79 78  2  0
 80 79  1  0
 81 55  1  0
 81 82  1  0
 81 91  1  0
 82 85  1  0
 83 87  1  0
 83 82  1  0
 84 83  2  0
 87 86  1  0
 87 89  1  0
 89 90  1  0
 89 88  1  0
 91 94  1  1
 91 92  1  0
 93 91  1  0
M  ISO  4  10 100  18 100  53 101  54 101
M  END
>  <TORSDO>  (23) 
F 21

>  <SCORE>  (23) 
-10.380

>  <name>  (23) 
22

>  <ligand_id>  (23) 
22

>  <original_smiles>  (23) 
[H]c1c([H])c([H])c2c(c1[H])C([H])([H])C([H])([H])C([H])([H])C2([H])N([H])C(=O)C1([H])N(C(=O)C([H])(N([H])C(=O)C([H])(N([H])C([H])([H])[H])C([H])([H])[H])C(C([H])([H])[H])(C([H])([H])[H])C([H])([H])[H])C([H])([H])c2c([H])c(OC([H])([H])C([H])([H])C(=NC([H])([H])c3c([H])c([H])c(C([H])(N([H])C(=O)N4C([H])([H])C([H])([H])C([H])([H])C([H])(n5nc(-c6c([H])c([H])c(Oc7c([H])c([H])c(F)c([H])c7F)c([H])c6[H])c(C(=O)N([H])[H])c5N([H])[H])C4([H])[H])C([H])([H])[H])c(C([H])([H])[H])c3[H])C([H])([H])[H])c([H])c([H])c2C1([H])[H]

>  <smiles>  (23) 
[H]c1c([H])c([H])c2c(c1[H])C([H])([H])C([H])([H])C([H])([H])C2([H])N([H])C(=O)C1([H])N(C(=O)C([H])(N([H])C(=O)C([H])(N([H])C([H])([H])[H])C([H])([H])[H])C(C([H])([H])[H])(C([H])([H])[H])C([H])([H])[H])C([H])([H])c2c([H])c(OC([H])([H])C([H])([H])C(=NC([H])([H])c3c([H])c([H])c(C([H])(N([H])C(=O)N4C([H])([H])C([H])([H])C([H])([H])C([H])(n5nc(-c6c([H])c([H])c(Oc7c([H])c([H])c(F)c([H])c7F)c([H])c6[H])c(C(=O)N([H])[H])c5N([H])[H])C4([H])[H])C([H])([H])[H])c(C([H])([H])[H])c3[H])C([H])([H])[H])c([H])c([H])c2C1([H])[H]

$$$$
23:0:0
     RDKit          3D

 89 98  0  0  1  0  0  0  0  0999 V2000
  -27.6800  -21.8490   20.9060 C   0  0  0  0  0  2  0  0  0  0  0  0
  -28.4840  -20.9020   21.8250 C   0  0  0  0  0  2  0  0  0  0  0  0
  -28.5360  -22.1450   19.6540 C   0  0  0  0  0  3  0  0  0  0  0  0
  -29.5610  -20.2230   20.9980 C   0  0  0  0  0  3  0  0  0  0  0  0
  -29.5720  -20.8660   19.6440 C   0  0  0  0  0  3  0  0  0  0  0  0
  -29.2940  -19.2420   19.8620 C   0  0  0  0  0  3  0  0  0  0  0  0
  -28.9370  -23.7480   19.5960 C   0  0  0  0  0  0  0  0  0  0  0  0
  -30.1320  -24.0560   19.6570 O   0  0  0  0  0  0  0  0  0  0  0  0
  -27.8210  -24.9470   19.4380 C   0  0  0  0  0  2  0  0  0  0  0  0
  -28.1300  -26.4520   19.6280 O   0  0  0  0  0  0  0  0  0  0  0  0
  -24.5200  -31.8000   23.1560 C   0  0  0  0  0  0  0  0  0  0  0  0
  -27.0460  -27.3960   19.6760 C   0  0  0  0  0  0  0  0  0  0  0  0
  -23.2640  -30.4800   21.4950 C   0  0  0  0  0  3  0  0  0  0  0  0
  -24.6700  -29.0520   19.8880 C   0  0  0  0  0  0  0  0  0  0  0  0
  -25.7960  -30.8390   21.2070 C   0  0  0  0  0  2  0  0  0  0  0  0
  -25.8690  -29.4970   20.4590 C   0  0  0  0  0  0  0  0  0  0  0  0
  -27.0560  -28.6860   20.3370 C   0  0  0  0  0  3  0  0  0  0  0  0
  -25.8140  -27.0510   19.0730 C   0  0  0  0  0  3  0  0  0  0  0  0
  -24.6530  -27.8420   19.1820 C   0  0  0  0  0  3  0  0  0  0  0  0
  -23.4230  -29.9030   20.0630 C   0  0  0  0  0  2  0  0  0  0  0  0
  -24.5490  -31.0570   22.0080 N   0  0  0  0  0  0  0  0  0  0  0  0
  -23.4590  -32.0180   23.7600 O   0  0  0  0  0  0  0  0  0  0  0  0
  -22.6690  -29.3910   22.4220 C   0  0  0  0  0  0  0  0  0  0  0  0
  -21.3570  -29.1260   22.2930 N   0  0  0  0  0  0  0  0  0  0  0  0
  -23.3900  -28.7870   23.2210 O   0  0  0  0  0  0  0  0  0  0  0  0
  -20.8270  -29.6690   21.6260 H   0  0  0  0  0  0  0  0  0  0  0  0
  -18.0930  -27.6130   22.7080 C   0  0  0  0  0  0  0  0  0  0  0  0
  -20.6100  -28.1070   23.0340 C   0  0  0  0  0  3  0  0  0  0  0  0
  -20.8550  -26.6960   22.4450 C   0  0  0  0  0  2  0  0  0  0  0  0
  -19.8090  -26.2890   21.4020 C   0  0  0  0  0  2  0  0  0  0  0  0
  -18.4080  -26.2960   22.0180 C   0  0  0  0  0  2  0  0  0  0  0  0
  -19.1260  -28.4700   23.1700 C   0  0  0  0  0  0  0  0  0  0  0  0
  -18.7770  -29.6960   23.7770 C   0  0  0  0  0  3  0  0  0  0  0  0
  -17.4280  -30.0710   23.9200 C   0  0  0  0  0  3  0  0  0  0  0  0
  -16.4090  -29.2120   23.4720 C   0  0  0  0  0  3  0  0  0  0  0  0
  -16.7430  -27.9840   22.8720 C   0  0  0  0  0  3  0  0  0  0  0  0
  -25.8160  -32.4290   23.7520 C   0  0  0  0  0  3  0  0  0  0  0  0
  -26.3770  -31.6360   24.9950 C   0  0  1  0  0  0  0  0  0  0  0  0
  -25.3190  -31.3710   26.0920 C   0  0  0  0  0  1  0  0  0  0  0  0
  -26.9530  -30.2680   24.5610 C   0  0  0  0  0  1  0  0  0  0  0  0
  -27.5450  -32.4220   25.6350 C   0  0  0  0  0  1  0  0  0  0  0  0
  -25.5080  -33.8180   24.1260 N   0  0  0  0  0  0  0  0  0  0  0  0
  -25.7840  -34.8920   23.3730 C   0  0  0  0  0  0  0  0  0  0  0  0
  -26.3920  -34.8180   22.3020 O   0  0  0  0  0  0  0  0  0  0  0  0
  -24.9590  -33.9500   24.9630 H   0  0  0  0  0  0  0  0  0  0  0  0
  -24.0100  -36.6660   23.1760 C   0  0  0  0  0  1  0  0  0  0  0  0
  -25.3120  -36.2650   23.8880 C   0  0  0  0  0  3  0  0  0  0  0  0
  -27.4850  -37.1730   24.5860 C   0  0  0  0  0  1  0  0  0  0  0  0
  -26.3180  -37.3380   23.7230 N   0  0  0  0  0  0  0  0  0  0  0  0
  -25.9080  -38.2480   23.9150 H   0  0  0  0  0  0  0  0  0  0  0  0
  -30.2820  -17.9230   19.6590 C   0  0  0  0  0  2  0  0  0  0  0  0
  -30.7150  -15.2320   19.7440 C   0  0  0  0  0  0  0  0  0  0  0  0
  -30.5880  -12.8420   18.9380 C   0  0  0  0  0  2  0  0  0  0  0  0
  -29.5830  -12.7190   17.7700 C   0  0  0  0  0  2  0  0  0  0  0  0
  -28.1570  -12.4930   18.3090 C   0  0  0  0  0  2  0  0  0  0  0  0
  -27.7960  -13.4710   19.4570 C   0  0  0  0  0  3  0  0  0  0  0  0
  -28.9170  -13.5710   20.5120 C   0  0  0  0  0  2  0  0  0  0  0  0
  -30.1410  -13.9680   19.8030 N   0  0  0  0  0  0  0  0  0  0  0  0
  -31.8880  -15.3120   19.3680 O   0  0  0  0  0  0  0  0  0  0  0  0
  -29.9350  -16.4060   19.8970 N   0  0  0  0  0  0  0  0  0  0  0  0
  -28.9810  -16.2310   20.1740 H   0  0  0  0  0  0  0  0  0  0  0  0
  -25.4940  -14.0360   20.4270 C   0  0  0  0  0  0  0  0  0  0  0  0
  -24.4550  -13.2530   20.8500 C   0  0  0  0  0  0  0  0  0  0  0  0
  -24.8970  -11.9010   20.7130 C   0  0  0  0  0  0  0  0  0  0  0  0
  -26.5010  -13.1620   20.0540 N   0  0  0  0  0  0  0  0  0  0  0  0
  -26.1540  -11.8690   20.2880 N   0  0  0  0  0  0  0  0  0  0  0  0
  -24.1710  -10.6380   20.9030 C   0  0  0  0  0  0  0  0  0  0  0  0
  -24.5960   -9.6780   21.8480 C   0  0  0  0  0  3  0  0  0  0  0  0
  -23.8690   -8.4800   22.0260 C   0  0  0  0  0  3  0  0  0  0  0  0
  -22.7050   -8.2350   21.2590 C   0  0  0  0  0  0  0  0  0  0  0  0
  -22.3010   -9.1850   20.3050 C   0  0  0  0  0  3  0  0  0  0  0  0
  -23.0270  -10.3730   20.1250 C   0  0  0  0  0  3  0  0  0  0  0  0
  -21.9520   -7.0880   21.3450 O   0  0  0  0  0  0  0  0  0  0  0  0
  -21.7840   -6.4260   22.5350 C   0  0  0  0  0  0  0  0  0  0  0  0
  -21.1910   -7.0490   23.6560 C   0  0  0  0  0  3  0  0  0  0  0  0
  -20.9720   -6.3120   24.8370 C   0  0  0  0  0  3  0  0  0  0  0  0
  -21.3340   -4.9530   24.8970 C   0  0  0  0  0  0  0  0  0  0  0  0
  -21.9200   -4.3300   23.7800 C   0  0  0  0  0  3  0  0  0  0  0  0
  -22.1400   -5.0650   22.6030 C   0  0  0  0  0  0  0  0  0  0  0  0
  -22.6850   -4.4550   21.5230 F   0  0  0  0  0  0  0  0  0  0  0  0
  -21.1170   -4.2430   26.0280 F   0  0  0  0  0  0  0  0  0  0  0  0
  -23.0930  -13.7300   21.2630 C   0  0  0  0  0  0  0  0  0  0  0  0
  -22.4340  -13.0070   22.1620 N   0  0  0  0  0  0  0  0  0  0  0  0
  -22.6250  -14.7810   20.8270 O   0  0  0  0  0  0  0  0  0  0  0  0
  -22.8280  -12.1570   22.5410 H   0  0  0  0  0  0  0  0  0  0  0  0
  -21.5240  -13.3090   22.4790 H   0  0  0  0  0  0  0  0  0  0  0  0
  -25.6580  -15.4130   20.3020 N   0  0  0  0  0  0  0  0  0  0  0  0
  -24.9050  -16.0610   20.5070 H   0  0  0  0  0  0  0  0  0  0  0  0
  -26.4620  -15.8620   19.8830 H   0  0  0  0  0  0  0  0  0  0  0  0
  1  2  1  0
  3  7  1  0
  3  1  1  0
  4  2  1  0
  5  3  1  0
  5  6  1  0
  5  4  1  0
  6  4  1  0
  7  8  2  0
  9  7  1  0
  9 10  1  0
 10 12  1  0
 11 37  1  0
 11 22  2  0
 12 17  1  0
 13 21  1  0
 13 23  1  0
 14 20  1  0
 14 16  1  0
 15 21  1  0
 16 15  1  0
 17 16  2  0
 18 19  1  0
 18 12  2  0
 19 14  2  0
 20 13  1  0
 21 11  1  0
 23 25  2  0
 24 23  1  0
 24 28  1  0
 26 24  1  0
 27 36  2  0
 27 32  1  0
 28 32  1  0
 29 28  1  0
 30 31  1  0
 30 29  1  0
 31 27  1  0
 32 33  2  0
 33 34  1  0
 35 34  2  0
 36 35  1  0
 37 42  1  0
 37 38  1  0
 38 41  1  1
 38 39  1  0
 40 38  1  0
 42 45  1  0
 43 47  1  0
 43 42  1  0
 44 43  2  0
 46 47  1  0
 49 47  1  0
 49 50  1  0
 49 48  1  0
 51  6  1  0
 51 60  1  0
 52 58  1  0
 52 60  1  0
 53 58  1  0
 54 55  1  0
 54 53  1  0
 55 56  1  0
 56 65  1  0
 56 57  1  0
 58 57  1  0
 59 52  2  0
 60 61  1  0
 62 63  2  0
 63 82  1  0
 64 63  1  0
 64 67  1  0
 65 66  1  0
 65 62  1  0
 66 64  2  0
 67 68  1  0
 68 69  2  0
 70 73  1  0
 70 69  1  0
 71 70  2  0
 72 71  1  0
 72 67  2  0
 73 74  1  0
 74 79  2  0
 74 75  1  0
 75 76  2  0
 76 77  1  0
 77 81  1  0
 78 77  2  0
 79 78  1  0
 80 79  1  0
 82 83  1  0
 83 86  1  0
 83 85  1  0
 84 82  2  0
 87 62  1  0
 87 88  1  0
 89 87  1  0
M  ISO  4   9 101  10 101  52 100  60 100
M  END
>  <TORSDO>  (24) 
F 19

>  <SCORE>  (24) 
-12.893

>  <name>  (24) 
23

>  <ligand_id>  (24) 
23

>  <original_smiles>  (24) 
[H]c1c([H])c([H])c2c(c1[H])C([H])([H])C([H])([H])C([H])([H])C2([H])N([H])C(=O)C1([H])N(C(=O)C([H])(N([H])C(=O)C([H])(N([H])C([H])([H])[H])C([H])([H])[H])C(C([H])([H])[H])(C([H])([H])[H])C([H])([H])[H])C([H])([H])c2c([H])c(OC([H])([H])C(=O)C3([H])C([H])([H])C([H])([H])C4([H])C([H])(C([H])([H])N([H])C(=O)N5C([H])([H])C([H])([H])C([H])([H])C([H])(n6nc(-c7c([H])c([H])c(Oc8c([H])c([H])c(F)c([H])c8F)c([H])c7[H])c(C(=O)N([H])[H])c6N([H])[H])C5([H])[H])C34[H])c([H])c([H])c2C1([H])[H]

>  <smiles>  (24) 
[H]c1c([H])c([H])c2c(c1[H])C([H])([H])C([H])([H])C([H])([H])C2([H])N([H])C(=O)C1([H])N(C(=O)C([H])(N([H])C(=O)C([H])(N([H])C([H])([H])[H])C([H])([H])[H])C(C([H])([H])[H])(C([H])([H])[H])C([H])([H])[H])C([H])([H])c2c([H])c(OC([H])([H])C(=O)C3([H])C([H])([H])C([H])([H])C4([H])C([H])(C([H])([H])N([H])C(=O)N5C([H])([H])C([H])([H])C([H])([H])C([H])(n6nc(-c7c([H])c([H])c(Oc8c([H])c([H])c(F)c([H])c8F)c([H])c7[H])c(C(=O)N([H])[H])c6N([H])[H])C5([H])[H])C34[H])c([H])c([H])c2C1([H])[H]

$$$$
24:0:0
     RDKit          3D

 91100  0  0  1  0  0  0  0  0999 V2000
  -31.7190  -18.1930   21.0080 C   0  0  0  0  0  2  0  0  0  0  0  0
  -30.2820  -18.9640   23.1470 C   0  0  0  0  0  2  0  0  0  0  0  0
  -31.5240  -18.9620   22.2920 C   0  0  0  0  0  3  0  0  0  0  0  0
  -29.9030  -19.8650   20.6710 C   0  0  0  0  0  3  0  0  0  0  0  0
  -30.3730  -18.1680   20.2270 C   0  0  0  0  0  3  0  0  0  0  0  0
  -30.4860  -20.0250   22.0800 C   0  0  1  0  0  0  0  0  0  0  0  0
  -30.5480  -15.2940   20.1840 C   0  0  0  0  0  0  0  0  0  0  0  0
  -30.4030  -12.8830   19.2660 C   0  0  0  0  0  2  0  0  0  0  0  0
  -29.4490  -12.7540   18.0540 C   0  0  0  0  0  2  0  0  0  0  0  0
  -28.0050  -12.5140   18.5260 C   0  0  0  0  0  2  0  0  0  0  0  0
  -27.6130  -13.4410   19.7050 C   0  0  0  0  0  3  0  0  0  0  0  0
  -28.7010  -13.5490   20.7990 C   0  0  0  0  0  2  0  0  0  0  0  0
  -29.9280  -14.0190   20.1420 N   0  0  0  0  0  0  0  0  0  0  0  0
  -31.7270  -15.2570   19.8110 O   0  0  0  0  0  0  0  0  0  0  0  0
  -29.8940  -16.5950   20.4460 N   0  0  0  0  0  0  0  0  0  0  0  0
  -28.9420  -16.5020   20.7730 H   0  0  0  0  0  0  0  0  0  0  0  0
  -25.2690  -13.9750   20.5540 C   0  0  0  0  0  0  0  0  0  0  0  0
  -24.2220  -13.1880   20.9450 C   0  0  0  0  0  0  0  0  0  0  0  0
  -24.6860  -11.8390   20.8610 C   0  0  0  0  0  0  0  0  0  0  0  0
  -26.3030  -13.1080   20.2510 N   0  0  0  0  0  0  0  0  0  0  0  0
  -25.9660  -11.8140   20.4990 N   0  0  0  0  0  0  0  0  0  0  0  0
  -23.9630  -10.5730   21.0450 C   0  0  0  0  0  0  0  0  0  0  0  0
  -24.4090   -9.5910   21.9570 C   0  0  0  0  0  3  0  0  0  0  0  0
  -23.6830   -8.3920   22.1310 C   0  0  0  0  0  3  0  0  0  0  0  0
  -22.4980   -8.1650   21.3920 C   0  0  0  0  0  0  0  0  0  0  0  0
  -22.0710   -9.1350   20.4670 C   0  0  0  0  0  3  0  0  0  0  0  0
  -22.7960  -10.3260   20.2920 C   0  0  0  0  0  3  0  0  0  0  0  0
  -21.7430   -7.0190   21.4750 O   0  0  0  0  0  0  0  0  0  0  0  0
  -21.6880   -6.2760   22.6270 C   0  0  0  0  0  0  0  0  0  0  0  0
  -21.1930   -6.8140   23.8350 C   0  0  0  0  0  3  0  0  0  0  0  0
  -21.0890   -5.9970   24.9790 C   0  0  0  0  0  3  0  0  0  0  0  0
  -21.4670   -4.6410   24.9140 C   0  0  0  0  0  0  0  0  0  0  0  0
  -21.9550   -4.1040   23.7090 C   0  0  0  0  0  3  0  0  0  0  0  0
  -22.0600   -4.9190   22.5680 C   0  0  0  0  0  0  0  0  0  0  0  0
  -22.5120   -4.3900   21.4050 F   0  0  0  0  0  0  0  0  0  0  0  0
  -21.3610   -3.8540   26.0100 F   0  0  0  0  0  0  0  0  0  0  0  0
  -22.8370  -13.6590   21.2810 C   0  0  0  0  0  0  0  0  0  0  0  0
  -22.1460  -12.9430   22.1610 N   0  0  0  0  0  0  0  0  0  0  0  0
  -22.3800  -14.6930   20.7990 O   0  0  0  0  0  0  0  0  0  0  0  0
  -22.5350  -12.1070   22.5730 H   0  0  0  0  0  0  0  0  0  0  0  0
  -21.2200  -13.2380   22.4310 H   0  0  0  0  0  0  0  0  0  0  0  0
  -25.4230  -15.3500   20.4020 N   0  0  0  0  0  0  0  0  0  0  0  0
  -24.6530  -15.9960   20.5320 H   0  0  0  0  0  0  0  0  0  0  0  0
  -26.2360  -15.7870   19.9860 H   0  0  0  0  0  0  0  0  0  0  0  0
  -31.0700  -21.3850   22.4070 C   0  0  0  0  0  0  0  0  0  0  0  0
  -30.5910  -22.1100   23.6520 C   0  0  0  0  0  1  0  0  0  0  0  0
  -31.9360  -21.9040   21.6950 O   0  0  0  0  0  0  0  0  0  0  0  0
  -28.8160  -21.2110   20.2400 C   0  0  0  0  0  2  0  0  0  0  0  0
  -28.9900  -22.9810   20.4840 C   0  0  0  0  0  3  0  0  0  0  0  0
  -28.0200  -24.4240   20.1110 C   0  0  0  0  0  3  0  0  0  0  0  0
  -28.2390  -26.0190   20.3750 O   0  0  0  0  0  0  0  0  0  0  0  0
  -24.6330  -31.9200   23.2990 C   0  0  0  0  0  0  0  0  0  0  0  0
  -27.2210  -27.0900   20.2880 C   0  0  0  0  0  0  0  0  0  0  0  0
  -23.4590  -30.5260   21.6450 C   0  0  0  0  0  3  0  0  0  0  0  0
  -24.9190  -28.9390   20.2250 C   0  0  0  0  0  0  0  0  0  0  0  0
  -26.0220  -30.7530   21.5230 C   0  0  0  0  0  2  0  0  0  0  0  0
  -26.0980  -29.3510   20.8590 C   0  0  0  0  0  0  0  0  0  0  0  0
  -27.2460  -28.4450   20.8660 C   0  0  0  0  0  3  0  0  0  0  0  0
  -26.0160  -26.8190   19.6050 C   0  0  0  0  0  3  0  0  0  0  0  0
  -24.9000  -27.6930   19.5760 C   0  0  0  0  0  3  0  0  0  0  0  0
  -23.6990  -29.8560   20.2650 C   0  0  0  0  0  2  0  0  0  0  0  0
  -24.7260  -31.0940   22.2090 N   0  0  0  0  0  0  0  0  0  0  0  0
  -23.5380  -32.2060   23.8100 O   0  0  0  0  0  0  0  0  0  0  0  0
  -22.7560  -29.5250   22.5980 C   0  0  0  0  0  0  0  0  0  0  0  0
  -21.4280  -29.3550   22.4490 N   0  0  0  0  0  0  0  0  0  0  0  0
  -23.4100  -28.9020   23.4380 O   0  0  0  0  0  0  0  0  0  0  0  0
  -20.9590  -29.9050   21.7440 H   0  0  0  0  0  0  0  0  0  0  0  0
  -18.0370  -28.1470   22.9080 C   0  0  0  0  0  0  0  0  0  0  0  0
  -20.5930  -28.4150   23.2030 C   0  0  0  0  0  3  0  0  0  0  0  0
  -20.7030  -26.9860   22.6230 C   0  0  0  0  0  2  0  0  0  0  0  0
  -19.6140  -26.6660   21.5940 C   0  0  0  0  0  2  0  0  0  0  0  0
  -18.2250  -26.8040   22.2220 C   0  0  0  0  0  2  0  0  0  0  0  0
  -19.1490  -28.9110   23.3520 C   0  0  0  0  0  0  0  0  0  0  0  0
  -18.9200  -30.1650   23.9580 C   0  0  0  0  0  3  0  0  0  0  0  0
  -17.6120  -30.6590   24.1180 C   0  0  0  0  0  3  0  0  0  0  0  0
  -16.5140  -29.8940   23.6900 C   0  0  0  0  0  3  0  0  0  0  0  0
  -16.7270  -28.6390   23.0920 C   0  0  0  0  0  3  0  0  0  0  0  0
  -25.8980  -32.5590   23.9490 C   0  0  0  0  0  3  0  0  0  0  0  0
  -26.3700  -31.8070   25.2550 C   0  0  1  0  0  0  0  0  0  0  0  0
  -25.2450  -31.5890   26.2960 C   0  0  0  0  0  1  0  0  0  0  0  0
  -26.9610  -30.4210   24.9120 C   0  0  0  0  0  1  0  0  0  0  0  0
  -27.5090  -32.6070   25.9340 C   0  0  0  0  0  1  0  0  0  0  0  0
  -25.5860  -33.9650   24.2590 N   0  0  0  0  0  0  0  0  0  0  0  0
  -25.9060  -35.0110   23.4840 C   0  0  0  0  0  0  0  0  0  0  0  0
  -26.5580  -34.8930   22.4430 O   0  0  0  0  0  0  0  0  0  0  0  0
  -25.0040  -34.1270   25.0680 H   0  0  0  0  0  0  0  0  0  0  0  0
  -24.1580  -36.7940   23.1610 C   0  0  0  0  0  1  0  0  0  0  0  0
  -25.4320  -36.4090   23.9320 C   0  0  0  0  0  3  0  0  0  0  0  0
  -27.5840  -37.3250   24.6810 C   0  0  0  0  0  1  0  0  0  0  0  0
  -26.4570  -37.4620   23.7620 N   0  0  0  0  0  0  0  0  0  0  0  0
  -26.0520  -38.3860   23.8990 H   0  0  0  0  0  0  0  0  0  0  0  0
  3  1  1  0
  3  2  1  0
  4 48  1  0
  4  6  1  0
  5 15  1  0
  5  4  1  0
  5  1  1  0
  6  3  1  0
  6 45  1  1
  6  2  1  0
  7 15  1  0
  8 13  1  0
  9 10  1  0
  9  8  1  0
 11 10  1  0
 11 20  1  0
 11 12  1  0
 13  7  1  0
 13 12  1  0
 14  7  2  0
 15 16  1  0
 17 18  2  0
 18 37  1  0
 19 18  1  0
 19 22  1  0
 20 21  1  0
 20 17  1  0
 21 19  2  0
 22 23  1  0
 23 24  2  0
 25 28  1  0
 25 24  1  0
 26 25  2  0
 27 26  1  0
 27 22  2  0
 28 29  1  0
 29 30  1  0
 30 31  2  0
 32 31  1  0
 32 36  1  0
 33 32  2  0
 34 29  2  0
 34 33  1  0
 35 34  1  0
 37 38  1  0
 38 41  1  0
 38 40  1  0
 39 37  2  0
 42 43  1  0
 42 17  1  0
 44 42  1  0
 45 46  1  0
 47 45  2  0
 48 49  1  0
 50 51  1  0
 50 49  2  0
 52 63  2  0
 53 51  1  0
 53 58  1  0
 54 62  1  0
 54 64  1  0
 55 61  1  0
 55 57  1  0
 56 62  1  0
 57 58  2  0
 57 56  1  0
 59 53  2  0
 60 59  1  0
 60 55  2  0
 61 54  1  0
 62 52  1  0
 64 66  2  0
 65 64  1  0
 67 65  1  0
 68 77  2  0
 68 73  1  0
 69 65  1  0
 69 73  1  0
 70 69  1  0
 71 72  1  0
 71 70  1  0
 72 68  1  0
 73 74  2  0
 74 75  1  0
 76 75  2  0
 77 76  1  0
 78 52  1  0
 78 83  1  0
 78 79  1  0
 79 82  1  1
 79 80  1  0
 81 79  1  0
 83 86  1  0
 84 88  1  0
 84 83  1  0
 85 84  2  0
 88 87  1  0
 90 91  1  0
 90 88  1  0
 90 89  1  0
M  ISO  4   7 100  15 100  50 101  51 101
M  END
>  <TORSDO>  (25) 
F 20

>  <SCORE>  (25) 
-14.530

>  <name>  (25) 
24

>  <ligand_id>  (25) 
24

>  <original_smiles>  (25) 
[H]c1c([H])c([H])c2c(c1[H])C([H])([H])C([H])([H])C([H])([H])C2([H])N([H])C(=O)C1([H])N(C(=O)C([H])(N([H])C(=O)C([H])(N([H])C([H])([H])[H])C([H])([H])[H])C(C([H])([H])[H])(C([H])([H])[H])C([H])([H])[H])C([H])([H])c2c([H])c(OC([H])([H])C([H])([H])C([H])([H])C3([H])C([H])(N([H])C(=O)N4C([H])([H])C([H])([H])C([H])([H])C([H])(n5nc(-c6c([H])c([H])c(Oc7c([H])c([H])c(F)c([H])c7F)c([H])c6[H])c(C(=O)N([H])[H])c5N([H])[H])C4([H])[H])C([H])([H])C4([H])C([H])([H])C43C(=O)C([H])([H])[H])c([H])c([H])c2C1([H])[H]

>  <smiles>  (25) 
[H]c1c([H])c([H])c2c(c1[H])C([H])([H])C([H])([H])C([H])([H])C2([H])N([H])C(=O)C1([H])N(C(=O)C([H])(N([H])C(=O)C([H])(N([H])C([H])([H])[H])C([H])([H])[H])C(C([H])([H])[H])(C([H])([H])[H])C([H])([H])[H])C([H])([H])c2c([H])c(OC([H])([H])C([H])([H])C([H])([H])C3([H])C([H])(N([H])C(=O)N4C([H])([H])C([H])([H])C([H])([H])C([H])(n5nc(-c6c([H])c([H])c(Oc7c([H])c([H])c(F)c([H])c7F)c([H])c6[H])c(C(=O)N([H])[H])c5N([H])[H])C4([H])[H])C([H])([H])C4([H])C([H])([H])C43C(=O)C([H])([H])[H])c([H])c([H])c2C1([H])[H]

$$$$
25:0:0
     RDKit          3D

 94102  0  0  1  0  0  0  0  0999 V2000
  -30.2540  -22.9830   20.5220 C   0  0  0  0  0  2  0  0  0  0  0  0
  -30.5000  -21.4510   20.8300 C   0  0  0  0  0  2  0  0  0  0  0  0
  -28.2480  -21.7240   20.2430 C   0  0  0  0  0  2  0  0  0  0  0  0
  -28.7360  -23.2510   20.6090 C   0  0  0  0  0  3  0  0  0  0  0  0
  -29.4340  -20.5910   20.0910 C   0  0  1  0  0  0  0  0  0  0  0  0
  -28.0510  -24.6450   19.9410 C   0  0  0  0  0  2  0  0  0  0  0  0
  -28.2650  -26.1560   20.2590 O   0  0  0  0  0  0  0  0  0  0  0  0
  -24.6200  -31.8460   23.1700 C   0  0  0  0  0  0  0  0  0  0  0  0
  -27.2150  -27.1410   20.1470 C   0  0  0  0  0  0  0  0  0  0  0  0
  -23.4270  -30.4450   21.5310 C   0  0  0  0  0  3  0  0  0  0  0  0
  -24.8840  -28.8820   20.1020 C   0  0  0  0  0  0  0  0  0  0  0  0
  -25.9790  -30.7200   21.3730 C   0  0  0  0  0  2  0  0  0  0  0  0
  -26.0580  -29.3280   20.7200 C   0  0  0  0  0  0  0  0  0  0  0  0
  -27.2230  -28.4730   20.7310 C   0  0  0  0  0  3  0  0  0  0  0  0
  -26.0230  -26.8090   19.4650 C   0  0  0  0  0  3  0  0  0  0  0  0
  -24.8800  -27.6370   19.4570 C   0  0  0  0  0  3  0  0  0  0  0  0
  -23.6520  -29.7720   20.1500 C   0  0  0  0  0  2  0  0  0  0  0  0
  -24.6950  -31.0260   22.0780 N   0  0  0  0  0  0  0  0  0  0  0  0
  -23.5320  -32.1260   23.6970 O   0  0  0  0  0  0  0  0  0  0  0  0
  -22.7520  -29.4340   22.4910 C   0  0  0  0  0  0  0  0  0  0  0  0
  -21.4230  -29.2660   22.3700 N   0  0  0  0  0  0  0  0  0  0  0  0
  -23.4260  -28.8030   23.3080 O   0  0  0  0  0  0  0  0  0  0  0  0
  -20.9350  -29.8280   21.6850 H   0  0  0  0  0  0  0  0  0  0  0  0
  -18.0380  -28.0830   22.8910 C   0  0  0  0  0  0  0  0  0  0  0  0
  -20.6010  -28.3300   23.1410 C   0  0  0  0  0  3  0  0  0  0  0  0
  -20.6910  -26.9000   22.5570 C   0  0  0  0  0  2  0  0  0  0  0  0
  -19.5800  -26.5890   21.5490 C   0  0  0  0  0  2  0  0  0  0  0  0
  -18.2030  -26.7380   22.2040 C   0  0  0  0  0  2  0  0  0  0  0  0
  -19.1650  -28.8380   23.3160 C   0  0  0  0  0  0  0  0  0  0  0  0
  -18.9560  -30.0970   23.9190 C   0  0  0  0  0  3  0  0  0  0  0  0
  -17.6550  -30.6010   24.1020 C   0  0  0  0  0  3  0  0  0  0  0  0
  -16.5430  -29.8440   23.6930 C   0  0  0  0  0  3  0  0  0  0  0  0
  -16.7370  -28.5860   23.0920 C   0  0  0  0  0  3  0  0  0  0  0  0
  -25.8960  -32.4850   23.7990 C   0  0  0  0  0  3  0  0  0  0  0  0
  -26.4060  -31.7190   25.0830 C   0  0  1  0  0  0  0  0  0  0  0  0
  -25.3070  -31.4830   26.1450 C   0  0  0  0  0  1  0  0  0  0  0  0
  -26.9970  -30.3410   24.7040 C   0  0  0  0  0  1  0  0  0  0  0  0
  -27.5520  -32.5170   25.7480 C   0  0  0  0  0  1  0  0  0  0  0  0
  -25.5790  -33.8840   24.1290 N   0  0  0  0  0  0  0  0  0  0  0  0
  -25.9120  -34.9410   23.3780 C   0  0  0  0  0  0  0  0  0  0  0  0
  -26.5850  -34.8410   22.3480 O   0  0  0  0  0  0  0  0  0  0  0  0
  -24.9830  -34.0350   24.9300 H   0  0  0  0  0  0  0  0  0  0  0  0
  -24.1920  -36.7430   23.0170 C   0  0  0  0  0  1  0  0  0  0  0  0
  -25.4230  -36.3280   23.8390 C   0  0  0  0  0  3  0  0  0  0  0  0
  -27.5460  -37.2090   24.7040 C   0  0  0  0  0  1  0  0  0  0  0  0
  -26.4590  -37.3800   23.7440 N   0  0  0  0  0  0  0  0  0  0  0  0
  -26.0520  -38.3010   23.8870 H   0  0  0  0  0  0  0  0  0  0  0  0
  -29.8470  -20.5270   18.5950 C   0  0  0  0  0  2  0  0  0  0  0  0
  -28.9210  -19.7050   17.6760 C   0  0  0  0  0  2  0  0  0  0  0  0
  -29.4260  -19.6840   16.2210 C   0  0  0  0  0  2  0  0  0  0  0  0
  -28.5720  -18.8660   15.3450 N   0  0  0  0  0  4  0  0  0  0  0  0
  -28.5420  -17.9130   15.6590 H   0  0  0  0  0  0  0  0  0  0  0  0
  -28.9380  -18.8740   14.4080 H   0  0  0  0  0  0  0  0  0  0  0  0
  -27.6350  -19.2270   15.3140 H   0  0  0  0  0  0  0  0  0  0  0  0
  -29.2430  -18.9860   20.6220 C   0  0  0  0  0  3  0  0  0  0  0  0
  -30.2400  -17.6610   20.2980 C   0  0  0  0  0  3  0  0  0  0  0  0
  -30.6080  -14.9460   20.3010 C   0  0  0  0  0  0  0  0  0  0  0  0
  -30.4300  -12.6290   19.3000 C   0  0  0  0  0  2  0  0  0  0  0  0
  -29.4810  -12.6480   18.0800 C   0  0  0  0  0  2  0  0  0  0  0  0
  -28.0210  -12.4420   18.5250 C   0  0  0  0  0  2  0  0  0  0  0  0
  -27.6430  -13.3270   19.7430 C   0  0  0  0  0  3  0  0  0  0  0  0
  -28.7170  -13.2960   20.8540 C   0  0  0  0  0  2  0  0  0  0  0  0
  -29.9860  -13.7000   20.2360 N   0  0  0  0  0  0  0  0  0  0  0  0
  -31.7970  -15.0030   19.9730 O   0  0  0  0  0  0  0  0  0  0  0  0
  -29.8670  -16.1390   20.5200 N   0  0  0  0  0  0  0  0  0  0  0  0
  -28.9010  -15.9750   20.7620 H   0  0  0  0  0  0  0  0  0  0  0  0
  -25.2690  -13.8940   20.5110 C   0  0  0  0  0  0  0  0  0  0  0  0
  -24.2100  -13.1140   20.8870 C   0  0  0  0  0  0  0  0  0  0  0  0
  -24.6770  -11.7650   20.8410 C   0  0  0  0  0  0  0  0  0  0  0  0
  -26.3110  -13.0220   20.2530 N   0  0  0  0  0  0  0  0  0  0  0  0
  -25.9650  -11.7350   20.5170 N   0  0  0  0  0  0  0  0  0  0  0  0
  -23.9540  -10.5000   21.0290 C   0  0  0  0  0  0  0  0  0  0  0  0
  -24.3850   -9.5340   21.9650 C   0  0  0  0  0  3  0  0  0  0  0  0
  -23.6620   -8.3350   22.1440 C   0  0  0  0  0  3  0  0  0  0  0  0
  -22.4920   -8.0940   21.3840 C   0  0  0  0  0  0  0  0  0  0  0  0
  -22.0800   -9.0480   20.4370 C   0  0  0  0  0  3  0  0  0  0  0  0
  -22.8060  -10.2370   20.2570 C   0  0  0  0  0  3  0  0  0  0  0  0
  -21.7400   -6.9470   21.4680 O   0  0  0  0  0  0  0  0  0  0  0  0
  -21.6710   -6.2150   22.6250 C   0  0  0  0  0  0  0  0  0  0  0  0
  -21.1960   -6.7730   23.8320 C   0  0  0  0  0  3  0  0  0  0  0  0
  -21.0770   -5.9650   24.9810 C   0  0  0  0  0  3  0  0  0  0  0  0
  -21.4220   -4.6020   24.9260 C   0  0  0  0  0  0  0  0  0  0  0  0
  -21.8910   -4.0440   23.7220 C   0  0  0  0  0  3  0  0  0  0  0  0
  -22.0120   -4.8480   22.5750 C   0  0  0  0  0  0  0  0  0  0  0  0
  -22.4420   -4.2990   21.4140 F   0  0  0  0  0  0  0  0  0  0  0  0
  -21.3020   -3.8240   26.0280 F   0  0  0  0  0  0  0  0  0  0  0  0
  -22.8140  -13.5870   21.1740 C   0  0  0  0  0  0  0  0  0  0  0  0
  -22.0930  -12.8790   22.0350 N   0  0  0  0  0  0  0  0  0  0  0  0
  -22.3710  -14.6180   20.6690 O   0  0  0  0  0  0  0  0  0  0  0  0
  -22.4650  -12.0450   22.4650 H   0  0  0  0  0  0  0  0  0  0  0  0
  -21.1560  -13.1780   22.2710 H   0  0  0  0  0  0  0  0  0  0  0  0
  -25.4250  -15.2660   20.3400 N   0  0  0  0  0  0  0  0  0  0  0  0
  -24.6540  -15.9130   20.4600 H   0  0  0  0  0  0  0  0  0  0  0  0
  -26.2590  -15.7120   19.9800 H   0  0  0  0  0  0  0  0  0  0  0  0
  1  4  1  0
  1  2  1  0
  3  4  1  0
  4  6  1  0
  5 48  1  6
  5  3  1  0
  5 55  1  0
  5  2  1  0
  6  7  1  0
  8 19  2  0
  9  7  1  0
  9 14  1  0
 10 18  1  0
 10 20  1  0
 11 17  1  0
 11 13  1  0
 12 18  1  0
 13 14  2  0
 13 12  1  0
 15  9  2  0
 16 15  1  0
 16 11  2  0
 17 10  1  0
 18  8  1  0
 20 22  2  0
 21 20  1  0
 23 21  1  0
 24 33  2  0
 24 29  1  0
 25 21  1  0
 25 29  1  0
 26 25  1  0
 27 28  1  0
 27 26  1  0
 28 24  1  0
 29 30  2  0
 30 31  1  0
 32 31  2  0
 33 32  1  0
 34  8  1  0
 34 39  1  0
 34 35  1  0
 35 38  1  1
 35 36  1  0
 37 35  1  0
 39 42  1  0
 40 44  1  0
 40 39  1  0
 41 40  2  0
 44 43  1  0
 46 44  1  0
 46 47  1  0
 46 45  1  0
 49 48  1  0
 50 49  1  0
 51 52  1  0
 51 50  1  0
 53 51  1  0
 54 51  1  0
 56 65  1  0
 56 55  2  0
 57 65  1  0
 58 63  1  0
 59 60  1  0
 59 58  1  0
 61 60  1  0
 61 70  1  0
 61 62  1  0
 63 57  1  0
 63 62  1  0
 64 57  2  0
 65 66  1  0
 67 68  2  0
 68 87  1  0
 69 68  1  0
 69 72  1  0
 70 67  1  0
 70 71  1  0
 71 69  2  0
 72 73  1  0
 73 74  2  0
 75 78  1  0
 75 74  1  0
 76 75  2  0
 77 76  1  0
 77 72  2  0
 78 79  1  0
 79 80  1  0
 80 81  2  0
 82 81  1  0
 82 86  1  0
 83 82  2  0
 84 79  2  0
 84 83  1  0
 85 84  1  0
 87 88  1  0
 88 91  1  0
 88 90  1  0
 89 87  2  0
 92 93  1  0
 92 67  1  0
 94 92  1  0
M  ISO  4   6 101   7 101  57 100  65 100
M  END
>  <TORSDO>  (26) 
F 23

>  <SCORE>  (26) 
-13.616

>  <name>  (26) 
25

>  <ligand_id>  (26) 
25

>  <original_smiles>  (26) 
[H]c1c([H])c([H])c2c(c1[H])C([H])([H])C([H])([H])C([H])([H])C2([H])N([H])C(=O)C1([H])N(C(=O)C([H])(N([H])C(=O)C([H])(N([H])C([H])([H])[H])C([H])([H])[H])C(C([H])([H])[H])(C([H])([H])[H])C([H])([H])[H])C([H])([H])c2c([H])c(OC([H])([H])C3([H])C([H])([H])C([H])([H])C(C([H])([H])C([H])([H])N([H])C(=O)N4C([H])([H])C([H])([H])C([H])([H])C([H])(n5nc(-c6c([H])c([H])c(Oc7c([H])c([H])c(F)c([H])c7F)c([H])c6[H])c(C(=O)N([H])[H])c5N([H])[H])C4([H])[H])(C([H])([H])C([H])([H])C([H])([H])[N+]([H])([H])[H])C3([H])[H])c([H])c([H])c2C1([H])[H]

>  <smiles>  (26) 
[H]c1c([H])c([H])c2c(c1[H])C([H])([H])C([H])([H])C([H])([H])C2([H])N([H])C(=O)C1([H])N(C(=O)C([H])(N([H])C(=O)C([H])(N([H])C([H])([H])[H])C([H])([H])[H])C(C([H])([H])[H])(C([H])([H])[H])C([H])([H])[H])C([H])([H])c2c([H])c(OC([H])([H])C3([H])C([H])([H])C([H])([H])C(C([H])([H])C([H])([H])N([H])C(=O)N4C([H])([H])C([H])([H])C([H])([H])C([H])(n5nc(-c6c([H])c([H])c(Oc7c([H])c([H])c(F)c([H])c7F)c([H])c6[H])c(C(=O)N([H])[H])c5N([H])[H])C4([H])[H])(C([H])([H])C([H])([H])C([H])([H])[N+]([H])([H])[H])C3([H])[H])c([H])c([H])c2C1([H])[H]

$$$$
26:0:0
     RDKit          3D

 90100  0  0  1  0  0  0  0  0999 V2000
  -28.9980  -23.1520   20.4820 C   0  0  0  0  0  0  0  0  0  0  0  0
  -29.9840  -19.1410   21.2310 C   0  0  0  0  0  2  0  0  0  0  0  0
  -28.7740  -19.0180   19.2350 C   0  0  0  0  0  2  0  0  0  0  0  0
  -30.5910  -20.9190   19.3130 C   0  0  0  0  0  3  0  0  0  0  0  0
  -30.1480  -20.7330   20.7880 C   0  0  2  0  0  0  0  0  0  0  0  0
  -29.0930  -20.6650   19.1480 C   0  0  1  0  0  0  0  0  0  0  0  0
  -29.8340  -18.0570   20.0400 C   0  0  0  0  0  3  0  0  0  0  0  0
  -31.3040  -22.1490   18.7280 C   0  0  0  0  0  1  0  0  0  0  0  0
  -28.9360  -21.5900   20.3730 N   0  0  0  0  0  0  0  0  0  0  0  0
  -29.9770  -23.5880   21.0950 O   0  0  0  0  0  0  0  0  0  0  0  0
  -30.4300  -15.2110   20.1210 C   0  0  0  0  0  0  0  0  0  0  0  0
  -30.3650  -12.8040   19.2230 C   0  0  0  0  0  2  0  0  0  0  0  0
  -29.4050  -12.6600   18.0160 C   0  0  0  0  0  2  0  0  0  0  0  0
  -27.9630  -12.4110   18.4940 C   0  0  0  0  0  2  0  0  0  0  0  0
  -27.5570  -13.3510   19.6570 C   0  0  0  0  0  3  0  0  0  0  0  0
  -28.6390  -13.4440   20.7530 C   0  0  0  0  0  2  0  0  0  0  0  0
  -29.8650  -13.9180   20.0970 N   0  0  0  0  0  0  0  0  0  0  0  0
  -31.6320  -15.2490   19.8280 O   0  0  0  0  0  0  0  0  0  0  0  0
  -29.6430  -16.4350   20.2670 N   0  0  0  0  0  0  0  0  0  0  0  0
  -28.6850  -16.2070   20.4910 H   0  0  0  0  0  0  0  0  0  0  0  0
  -25.2050  -13.8990   20.4900 C   0  0  0  0  0  0  0  0  0  0  0  0
  -24.1580  -13.1130   20.8830 C   0  0  0  0  0  0  0  0  0  0  0  0
  -24.6280  -11.7660   20.8230 C   0  0  0  0  0  0  0  0  0  0  0  0
  -26.2430  -13.0300   20.2010 N   0  0  0  0  0  0  0  0  0  0  0  0
  -25.9100  -11.7410   20.4690 N   0  0  0  0  0  0  0  0  0  0  0  0
  -23.9110  -10.4990   21.0180 C   0  0  0  0  0  0  0  0  0  0  0  0
  -24.3640   -9.5250   21.9350 C   0  0  0  0  0  3  0  0  0  0  0  0
  -23.6430   -8.3260   22.1180 C   0  0  0  0  0  3  0  0  0  0  0  0
  -22.4570   -8.0890   21.3840 C   0  0  0  0  0  0  0  0  0  0  0  0
  -22.0250   -9.0500   20.4540 C   0  0  0  0  0  3  0  0  0  0  0  0
  -22.7460  -10.2420   20.2690 C   0  0  0  0  0  3  0  0  0  0  0  0
  -21.7080   -6.9410   21.4790 O   0  0  0  0  0  0  0  0  0  0  0  0
  -21.6700   -6.1980   22.6310 C   0  0  0  0  0  0  0  0  0  0  0  0
  -21.2350   -6.7470   23.8560 C   0  0  0  0  0  3  0  0  0  0  0  0
  -21.1440   -5.9300   25.0010 C   0  0  0  0  0  3  0  0  0  0  0  0
  -21.4800   -4.5650   24.9220 C   0  0  0  0  0  0  0  0  0  0  0  0
  -21.9080   -4.0160   23.7010 C   0  0  0  0  0  3  0  0  0  0  0  0
  -22.0000   -4.8300   22.5590 C   0  0  0  0  0  0  0  0  0  0  0  0
  -22.3940   -4.2900   21.3800 F   0  0  0  0  0  0  0  0  0  0  0  0
  -21.3850   -3.7780   26.0200 F   0  0  0  0  0  0  0  0  0  0  0  0
  -22.7670  -13.5830   21.1960 C   0  0  0  0  0  0  0  0  0  0  0  0
  -22.0650  -12.8810   22.0780 N   0  0  0  0  0  0  0  0  0  0  0  0
  -22.3130  -14.6090   20.6900 O   0  0  0  0  0  0  0  0  0  0  0  0
  -22.4460  -12.0560   22.5150 H   0  0  0  0  0  0  0  0  0  0  0  0
  -21.1310  -13.1800   22.3250 H   0  0  0  0  0  0  0  0  0  0  0  0
  -25.3540  -15.2720   20.3250 N   0  0  0  0  0  0  0  0  0  0  0  0
  -24.5800  -15.9100   20.4720 H   0  0  0  0  0  0  0  0  0  0  0  0
  -26.1640  -15.7220   19.9180 H   0  0  0  0  0  0  0  0  0  0  0  0
  -27.9200  -24.4150   20.0610 C   0  0  0  0  0  2  0  0  0  0  0  0
  -28.1900  -25.9930   20.3200 O   0  0  0  0  0  0  0  0  0  0  0  0
  -24.6410  -31.8900   23.2650 C   0  0  0  0  0  0  0  0  0  0  0  0
  -27.1760  -27.0600   20.2450 C   0  0  0  0  0  0  0  0  0  0  0  0
  -23.4410  -30.5060   21.6200 C   0  0  0  0  0  3  0  0  0  0  0  0
  -24.8830  -28.9070   20.1960 C   0  0  0  0  0  0  0  0  0  0  0  0
  -26.0050  -30.7180   21.4780 C   0  0  0  0  0  2  0  0  0  0  0  0
  -26.0670  -29.3160   20.8200 C   0  0  0  0  0  0  0  0  0  0  0  0
  -27.2120  -28.4100   20.8220 C   0  0  0  0  0  3  0  0  0  0  0  0
  -25.9650  -26.7840   19.5740 C   0  0  0  0  0  3  0  0  0  0  0  0
  -24.8520  -27.6580   19.5540 C   0  0  0  0  0  3  0  0  0  0  0  0
  -23.6680  -29.8280   20.2420 C   0  0  0  0  0  2  0  0  0  0  0  0
  -24.7170  -31.0640   22.1750 N   0  0  0  0  0  0  0  0  0  0  0  0
  -23.5520  -32.1850   23.7860 O   0  0  0  0  0  0  0  0  0  0  0  0
  -22.7430  -29.5080   22.5810 C   0  0  0  0  0  0  0  0  0  0  0  0
  -21.4120  -29.3500   22.4520 N   0  0  0  0  0  0  0  0  0  0  0  0
  -23.4050  -28.8780   23.4090 O   0  0  0  0  0  0  0  0  0  0  0  0
  -20.9330  -29.9120   21.7630 H   0  0  0  0  0  0  0  0  0  0  0  0
  -18.0230  -28.1610   22.9480 C   0  0  0  0  0  0  0  0  0  0  0  0
  -20.5830  -28.4160   23.2210 C   0  0  0  0  0  3  0  0  0  0  0  0
  -20.6800  -26.9830   22.6460 C   0  0  0  0  0  2  0  0  0  0  0  0
  -19.5810  -26.6640   21.6290 C   0  0  0  0  0  2  0  0  0  0  0  0
  -18.1970  -26.8120   22.2700 C   0  0  0  0  0  2  0  0  0  0  0  0
  -19.1430  -28.9200   23.3810 C   0  0  0  0  0  0  0  0  0  0  0  0
  -18.9240  -30.1800   23.9790 C   0  0  0  0  0  3  0  0  0  0  0  0
  -17.6190  -30.6820   24.1470 C   0  0  0  0  0  3  0  0  0  0  0  0
  -16.5150  -29.9200   23.7290 C   0  0  0  0  0  3  0  0  0  0  0  0
  -16.7170  -28.6620   23.1360 C   0  0  0  0  0  3  0  0  0  0  0  0
  -25.9160  -32.5220   23.9000 C   0  0  0  0  0  3  0  0  0  0  0  0
  -25.6110  -33.9250   24.2310 N   0  0  0  0  0  0  0  0  0  0  0  0
  -25.9260  -34.9800   23.4680 C   0  0  0  0  0  0  0  0  0  0  0  0
  -26.5700  -34.8740   22.4210 O   0  0  0  0  0  0  0  0  0  0  0  0
  -25.0370  -34.0800   25.0470 H   0  0  0  0  0  0  0  0  0  0  0  0
  -24.1790  -36.7700   23.1820 C   0  0  0  0  0  1  0  0  0  0  0  0
  -25.4560  -36.3710   23.9380 C   0  0  0  0  0  3  0  0  0  0  0  0
  -27.6190  -37.2740   24.6700 C   0  0  0  0  0  1  0  0  0  0  0  0
  -26.4790  -37.4270   23.7720 N   0  0  0  0  0  0  0  0  0  0  0  0
  -26.0750  -38.3480   23.9250 H   0  0  0  0  0  0  0  0  0  0  0  0
  -26.4120  -31.7550   25.1890 C   0  0  1  0  0  0  0  0  0  0  0  0
  -25.3050  -31.5370   26.2480 C   0  0  0  0  0  1  0  0  0  0  0  0
  -26.9870  -30.3690   24.8210 C   0  0  0  0  0  1  0  0  0  0  0  0
  -27.5630  -32.5430   25.8580 C   0  0  0  0  0  1  0  0  0  0  0  0
  1 10  2  0
  3  7  1  0
  4  8  1  0
  4  5  1  0
  5  2  1  1
  6  3  1  1
  6  4  1  0
  6  9  1  0
  6  5  1  0
  7 19  1  0
  7  2  1  0
  9  1  1  0
  9  5  1  0
 11 19  1  0
 12 17  1  0
 13 14  1  0
 13 12  1  0
 15 14  1  0
 15 24  1  0
 15 16  1  0
 17 11  1  0
 17 16  1  0
 18 11  2  0
 19 20  1  0
 21 22  2  0
 22 41  1  0
 23 22  1  0
 23 26  1  0
 24 25  1  0
 24 21  1  0
 25 23  2  0
 26 27  1  0
 27 28  2  0
 29 32  1  0
 29 28  1  0
 30 29  2  0
 31 30  1  0
 31 26  2  0
 32 33  1  0
 33 34  1  0
 34 35  2  0
 36 35  1  0
 36 40  1  0
 37 36  2  0
 38 33  2  0
 38 37  1  0
 39 38  1  0
 41 42  1  0
 42 45  1  0
 42 44  1  0
 43 41  2  0
 46 47  1  0
 46 21  1  0
 48 46  1  0
 49 50  1  0
 49  1  1  0
 51 62  2  0
 52 50  1  0
 52 57  1  0
 53 61  1  0
 53 63  1  0
 54 60  1  0
 54 56  1  0
 55 61  1  0
 56 57  2  0
 56 55  1  0
 58 52  2  0
 59 58  1  0
 59 54  2  0
 60 53  1  0
 61 51  1  0
 63 65  2  0
 64 63  1  0
 66 64  1  0
 67 76  2  0
 67 72  1  0
 68 64  1  0
 68 72  1  0
 69 68  1  0
 70 71  1  0
 70 69  1  0
 71 67  1  0
 72 73  2  0
 73 74  1  0
 75 74  2  0
 76 75  1  0
 77 51  1  0
 77 78  1  0
 77 87  1  0
 78 81  1  0
 79 83  1  0
 79 78  1  0
 80 79  2  0
 83 82  1  0
 85 86  1  0
 85 83  1  0
 85 84  1  0
 87 90  1  1
 87 88  1  0
 89 87  1  0
M  ISO  4  11 100  19 100  49 101  50 101
M  END
>  <TORSDO>  (27) 
F 17

>  <SCORE>  (27) 
-15.681

>  <name>  (27) 
26

>  <ligand_id>  (27) 
26

>  <original_smiles>  (27) 
[H]c1c([H])c([H])c2c(c1[H])C([H])([H])C([H])([H])C([H])([H])C2([H])N([H])C(=O)C1([H])N(C(=O)C([H])(N([H])C(=O)C([H])(N([H])C([H])([H])[H])C([H])([H])[H])C(C([H])([H])[H])(C([H])([H])[H])C([H])([H])[H])C([H])([H])c2c([H])c(OC([H])([H])C(=O)N3C4([H])C([H])([H])C([H])(N([H])C(=O)N5C([H])([H])C([H])([H])C([H])([H])C([H])(n6nc(-c7c([H])c([H])c(Oc8c([H])c([H])c(F)c([H])c8F)c([H])c7[H])c(C(=O)N([H])[H])c6N([H])[H])C5([H])[H])C([H])([H])C3([H])C4([H])C([H])([H])[H])c([H])c([H])c2C1([H])[H]

>  <smiles>  (27) 
[H]c1c([H])c([H])c2c(c1[H])C([H])([H])C([H])([H])C([H])([H])C2([H])N([H])C(=O)C1([H])N(C(=O)C([H])(N([H])C(=O)C([H])(N([H])C([H])([H])[H])C([H])([H])[H])C(C([H])([H])[H])(C([H])([H])[H])C([H])([H])[H])C([H])([H])c2c([H])c(OC([H])([H])C(=O)N3C4([H])C([H])([H])C([H])(N([H])C(=O)N5C([H])([H])C([H])([H])C([H])([H])C([H])(n6nc(-c7c([H])c([H])c(Oc8c([H])c([H])c(F)c([H])c8F)c([H])c7[H])c(C(=O)N([H])[H])c6N([H])[H])C5([H])[H])C([H])([H])C3([H])C4([H])C([H])([H])[H])c([H])c([H])c2C1([H])[H]

$$$$
27:0:0
     RDKit          3D

 92101  0  0  1  0  0  0  0  0999 V2000
  -29.5990  -21.9240   20.6130 C   0  0  0  0  0  0  0  0  0  0  0  0
  -29.8020  -23.0810   19.9540 N   0  0  0  0  0  0  0  0  0  0  0  0
  -29.2670  -21.8980   21.8000 O   0  0  0  0  0  0  0  0  0  0  0  0
  -30.0910  -23.0050   18.9880 H   0  0  0  0  0  0  0  0  0  0  0  0
  -28.4600  -20.1710   19.1540 C   0  0  0  0  0  2  0  0  0  0  0  0
  -27.8390  -19.1020   20.0710 C   0  0  0  0  0  2  0  0  0  0  0  0
  -29.7890  -20.6020   19.8180 C   0  0  0  0  0  3  0  0  0  0  0  0
  -28.9920  -18.5060   20.8430 C   0  0  0  0  0  3  0  0  0  0  0  0
  -30.1970  -19.3890   20.6710 C   0  0  0  0  0  3  0  0  0  0  0  0
  -30.2190  -17.9380   20.1640 C   0  0  0  0  0  3  0  0  0  0  0  0
  -31.0310  -16.8370   20.8550 C   0  0  0  0  0  2  0  0  0  0  0  0
  -31.1140  -14.4430   20.0630 C   0  0  0  0  0  0  0  0  0  0  0  0
  -30.6970  -12.2910   18.9280 C   0  0  0  0  0  2  0  0  0  0  0  0
  -29.7110  -12.5080   17.7620 C   0  0  0  0  0  2  0  0  0  0  0  0
  -28.2530  -12.4100   18.2520 C   0  0  0  0  0  2  0  0  0  0  0  0
  -27.9910  -13.2660   19.5200 C   0  0  0  0  0  3  0  0  0  0  0  0
  -29.0850  -13.0290   20.5850 C   0  0  0  0  0  2  0  0  0  0  0  0
  -30.3930  -13.2930   19.9630 N   0  0  0  0  0  0  0  0  0  0  0  0
  -32.2030  -14.5990   19.5040 O   0  0  0  0  0  0  0  0  0  0  0  0
  -30.5180  -15.4610   20.7150 N   0  0  0  0  0  0  0  0  0  0  0  0
  -29.6250  -15.2590   21.1400 H   0  0  0  0  0  0  0  0  0  0  0  0
  -25.6510  -13.9460   20.3450 C   0  0  0  0  0  0  0  0  0  0  0  0
  -24.5730  -13.2060   20.7500 C   0  0  0  0  0  0  0  0  0  0  0  0
  -24.9830  -11.8390   20.6790 C   0  0  0  0  0  0  0  0  0  0  0  0
  -26.6510  -13.0310   20.0550 N   0  0  0  0  0  0  0  0  0  0  0  0
  -26.2560  -11.7590   20.3140 N   0  0  0  0  0  0  0  0  0  0  0  0
  -24.2200  -10.6010   20.8860 C   0  0  0  0  0  0  0  0  0  0  0  0
  -24.6130   -9.6420   21.8450 C   0  0  0  0  0  3  0  0  0  0  0  0
  -23.8540   -8.4670   22.0380 C   0  0  0  0  0  3  0  0  0  0  0  0
  -22.6870   -8.2420   21.2700 C   0  0  0  0  0  0  0  0  0  0  0  0
  -22.3130   -9.1890   20.3000 C   0  0  0  0  0  3  0  0  0  0  0  0
  -23.0720  -10.3550   20.1060 C   0  0  0  0  0  3  0  0  0  0  0  0
  -21.9030   -7.1190   21.3700 O   0  0  0  0  0  0  0  0  0  0  0  0
  -21.7590   -6.4440   22.5560 C   0  0  0  0  0  0  0  0  0  0  0  0
  -21.2230   -7.0650   23.7050 C   0  0  0  0  0  3  0  0  0  0  0  0
  -21.0260   -6.3160   24.8830 C   0  0  0  0  0  3  0  0  0  0  0  0
  -21.3570   -4.9470   24.9100 C   0  0  0  0  0  0  0  0  0  0  0  0
  -21.8860   -4.3270   23.7660 C   0  0  0  0  0  3  0  0  0  0  0  0
  -22.0830   -5.0730   22.5910 C   0  0  0  0  0  0  0  0  0  0  0  0
  -22.5730   -4.4650   21.4830 F   0  0  0  0  0  0  0  0  0  0  0  0
  -21.1600   -4.2250   26.0390 F   0  0  0  0  0  0  0  0  0  0  0  0
  -23.2070  -13.7270   21.0930 C   0  0  0  0  0  0  0  0  0  0  0  0
  -22.5020  -13.0520   21.9940 N   0  0  0  0  0  0  0  0  0  0  0  0
  -22.7760  -14.7660   20.5960 O   0  0  0  0  0  0  0  0  0  0  0  0
  -22.8660  -12.2110   22.4170 H   0  0  0  0  0  0  0  0  0  0  0  0
  -21.5880  -13.3830   22.2660 H   0  0  0  0  0  0  0  0  0  0  0  0
  -25.8600  -15.3130   20.1800 N   0  0  0  0  0  0  0  0  0  0  0  0
  -25.1270  -15.9970   20.3280 H   0  0  0  0  0  0  0  0  0  0  0  0
  -26.7180  -15.7210   19.8300 H   0  0  0  0  0  0  0  0  0  0  0  0
  -29.6580  -24.4520   20.4850 C   0  0  0  0  0  2  0  0  0  0  0  0
  -28.4380  -25.2030   19.8950 C   0  0  0  0  0  2  0  0  0  0  0  0
  -28.4810  -26.6210   20.1460 O   0  0  0  0  0  0  0  0  0  0  0  0
  -24.5320  -31.7840   23.0700 C   0  0  0  0  0  0  0  0  0  0  0  0
  -27.2890  -27.3280   20.0880 C   0  0  0  0  0  0  0  0  0  0  0  0
  -23.3650  -30.3270   21.4490 C   0  0  0  0  0  3  0  0  0  0  0  0
  -24.8600  -28.7970   20.0580 C   0  0  0  0  0  0  0  0  0  0  0  0
  -25.8860  -30.7340   21.2570 C   0  0  0  0  0  2  0  0  0  0  0  0
  -26.0060  -29.3540   20.6400 C   0  0  0  0  0  0  0  0  0  0  0  0
  -27.2220  -28.6290   20.6470 C   0  0  0  0  0  3  0  0  0  0  0  0
  -26.1190  -26.7930   19.4980 C   0  0  0  0  0  3  0  0  0  0  0  0
  -24.9130  -27.5170   19.4850 C   0  0  0  0  0  3  0  0  0  0  0  0
  -23.5970  -29.6290   20.0830 C   0  0  0  0  0  2  0  0  0  0  0  0
  -24.6130  -30.9650   21.9830 N   0  0  0  0  0  0  0  0  0  0  0  0
  -23.4420  -32.0420   23.5980 O   0  0  0  0  0  0  0  0  0  0  0  0
  -22.7320  -29.3090   22.4240 C   0  0  0  0  0  0  0  0  0  0  0  0
  -21.4070  -29.1130   22.3090 N   0  0  0  0  0  0  0  0  0  0  0  0
  -23.4270  -28.6960   23.2390 O   0  0  0  0  0  0  0  0  0  0  0  0
  -20.9060  -29.6620   21.6250 H   0  0  0  0  0  0  0  0  0  0  0  0
  -18.0420  -27.9140   22.8630 C   0  0  0  0  0  0  0  0  0  0  0  0
  -20.6050  -28.1740   23.0920 C   0  0  0  0  0  3  0  0  0  0  0  0
  -20.6980  -26.7430   22.5170 C   0  0  0  0  0  2  0  0  0  0  0  0
  -19.5800  -26.4180   21.5200 C   0  0  0  0  0  2  0  0  0  0  0  0
  -18.2090  -26.5640   22.1870 C   0  0  0  0  0  2  0  0  0  0  0  0
  -19.1680  -28.6780   23.2740 C   0  0  0  0  0  0  0  0  0  0  0  0
  -18.9590  -29.9430   23.8630 C   0  0  0  0  0  3  0  0  0  0  0  0
  -17.6580  -30.4450   24.0500 C   0  0  0  0  0  3  0  0  0  0  0  0
  -16.5460  -29.6780   23.6560 C   0  0  0  0  0  3  0  0  0  0  0  0
  -16.7410  -28.4160   23.0690 C   0  0  0  0  0  3  0  0  0  0  0  0
  -25.8000  -32.4550   23.6850 C   0  0  0  0  0  3  0  0  0  0  0  0
  -26.3770  -31.6700   24.9260 C   0  0  1  0  0  0  0  0  0  0  0  0
  -25.3170  -31.3400   26.0030 C   0  0  0  0  0  1  0  0  0  0  0  0
  -27.0250  -30.3390   24.4780 C   0  0  0  0  0  1  0  0  0  0  0  0
  -27.4930  -32.5030   25.6000 C   0  0  0  0  0  1  0  0  0  0  0  0
  -25.4360  -33.8270   24.0620 N   0  0  0  0  0  0  0  0  0  0  0  0
  -25.7190  -34.9170   23.3350 C   0  0  0  0  0  0  0  0  0  0  0  0
  -26.3870  -34.8740   22.2970 O   0  0  0  0  0  0  0  0  0  0  0  0
  -24.8400  -33.9320   24.8700 H   0  0  0  0  0  0  0  0  0  0  0  0
  -23.9250  -36.6520   23.0340 C   0  0  0  0  0  1  0  0  0  0  0  0
  -25.1760  -36.2680   23.8380 C   0  0  0  0  0  3  0  0  0  0  0  0
  -27.2680  -37.2060   24.7160 C   0  0  0  0  0  1  0  0  0  0  0  0
  -26.1680  -37.3640   23.7700 N   0  0  0  0  0  0  0  0  0  0  0  0
  -25.7240  -38.2620   23.9430 H   0  0  0  0  0  0  0  0  0  0  0  0
  1  3  2  0
  2 50  1  0
  2  1  1  0
  4  2  1  0
  5  7  1  0
  5  6  1  0
  7  1  1  0
  7  9  1  0
  8  6  1  0
  9  8  1  0
 10  9  1  0
 10  8  1  0
 10 11  1  0
 12 20  1  0
 13 18  1  0
 14 15  1  0
 14 13  1  0
 15 16  1  0
 16 25  1  0
 16 17  1  0
 18 12  1  0
 18 17  1  0
 19 12  2  0
 20 11  1  0
 20 21  1  0
 22 23  2  0
 23 42  1  0
 24 23  1  0
 24 27  1  0
 25 26  1  0
 25 22  1  0
 26 24  2  0
 27 28  1  0
 28 29  2  0
 30 33  1  0
 30 29  1  0
 31 30  2  0
 32 31  1  0
 32 27  2  0
 33 34  1  0
 34 39  2  0
 34 35  1  0
 35 36  2  0
 36 37  1  0
 37 41  1  0
 38 37  2  0
 39 38  1  0
 40 39  1  0
 42 43  1  0
 43 46  1  0
 43 45  1  0
 44 42  2  0
 47 48  1  0
 47 22  1  0
 49 47  1  0
 51 52  1  0
 51 50  1  0
 53 64  2  0
 53 79  1  0
 54 52  1  0
 54 59  1  0
 55 63  1  0
 55 65  1  0
 56 62  1  0
 56 58  1  0
 57 63  1  0
 58 59  2  0
 58 57  1  0
 60 54  2  0
 61 60  1  0
 61 56  2  0
 62 55  1  0
 63 53  1  0
 65 67  2  0
 66 65  1  0
 66 70  1  0
 68 66  1  0
 69 78  2  0
 69 74  1  0
 70 74  1  0
 71 70  1  0
 72 73  1  0
 72 71  1  0
 73 69  1  0
 74 75  2  0
 75 76  1  0
 77 76  2  0
 78 77  1  0
 79 84  1  0
 79 80  1  0
 80 83  1  1
 80 81  1  0
 82 80  1  0
 84 87  1  0
 85 89  1  0
 85 84  1  0
 86 85  2  0
 88 89  1  0
 91 89  1  0
 91 92  1  0
 91 90  1  0
M  ISO  4  12 100  20 100  51 101  52 101
M  END
>  <TORSDO>  (28) 
F 20

>  <SCORE>  (28) 
-13.574

>  <name>  (28) 
27

>  <ligand_id>  (28) 
27

>  <original_smiles>  (28) 
[H]c1c([H])c([H])c2c(c1[H])C([H])([H])C([H])([H])C([H])([H])C2([H])N([H])C(=O)C1([H])N(C(=O)C([H])(N([H])C(=O)C([H])(N([H])C([H])([H])[H])C([H])([H])[H])C(C([H])([H])[H])(C([H])([H])[H])C([H])([H])[H])C([H])([H])c2c([H])c(OC([H])([H])C([H])([H])N([H])C(=O)C3([H])C([H])([H])C([H])([H])C4([H])C([H])(C([H])([H])N([H])C(=O)N5C([H])([H])C([H])([H])C([H])([H])C([H])(n6nc(-c7c([H])c([H])c(Oc8c([H])c([H])c(F)c([H])c8F)c([H])c7[H])c(C(=O)N([H])[H])c6N([H])[H])C5([H])[H])C34[H])c([H])c([H])c2C1([H])[H]

>  <smiles>  (28) 
[H]c1c([H])c([H])c2c(c1[H])C([H])([H])C([H])([H])C([H])([H])C2([H])N([H])C(=O)C1([H])N(C(=O)C([H])(N([H])C(=O)C([H])(N([H])C([H])([H])[H])C([H])([H])[H])C(C([H])([H])[H])(C([H])([H])[H])C([H])([H])[H])C([H])([H])c2c([H])c(OC([H])([H])C([H])([H])N([H])C(=O)C3([H])C([H])([H])C([H])([H])C4([H])C([H])(C([H])([H])N([H])C(=O)N5C([H])([H])C([H])([H])C([H])([H])C([H])(n6nc(-c7c([H])c([H])c(Oc8c([H])c([H])c(F)c([H])c8F)c([H])c7[H])c(C(=O)N([H])[H])c6N([H])[H])C5([H])[H])C34[H])c([H])c([H])c2C1([H])[H]

$$$$
28:0:0
     RDKit          3D

 90 99  0  0  1  0  0  0  0  0999 V2000
  -28.7660  -22.0840   18.6470 C   0  0  0  0  0  2  0  0  0  0  0  0
  -28.0400  -20.2280   20.8680 C   0  0  0  0  0  2  0  0  0  0  0  0
  -29.3320  -20.5510   18.6100 C   0  0  0  0  0  3  0  0  0  0  0  0
  -29.0850  -21.3350   20.8480 C   0  0  0  0  0  3  0  0  0  0  0  0
  -28.9720  -22.8120   20.0270 C   0  0  0  0  0  3  0  0  0  0  0  0
  -29.2420  -19.8800   20.0080 C   0  0  1  0  0  0  0  0  0  0  0  0
  -28.6640  -19.6960   17.5200 C   0  0  0  0  0  0  0  0  0  0  0  0
  -29.4290  -18.4850   17.0040 C   0  0  0  0  0  1  0  0  0  0  0  0
  -27.5510  -19.9680   17.0600 O   0  0  0  0  0  0  0  0  0  0  0  0
  -28.0610  -24.3390   20.3980 C   0  0  0  0  0  2  0  0  0  0  0  0
  -28.2850  -25.9720   20.2410 O   0  0  0  0  0  0  0  0  0  0  0  0
  -24.5910  -31.8870   23.2010 C   0  0  0  0  0  0  0  0  0  0  0  0
  -27.2490  -27.0490   20.2130 C   0  0  0  0  0  0  0  0  0  0  0  0
  -23.4400  -30.4860   21.5380 C   0  0  0  0  0  3  0  0  0  0  0  0
  -24.9280  -28.9020   20.1350 C   0  0  0  0  0  0  0  0  0  0  0  0
  -26.0060  -30.7270   21.4350 C   0  0  0  0  0  2  0  0  0  0  0  0
  -26.1030  -29.3200   20.7740 C   0  0  0  0  0  0  0  0  0  0  0  0
  -27.2590  -28.4170   20.7830 C   0  0  0  0  0  3  0  0  0  0  0  0
  -26.0410  -26.7820   19.5290 C   0  0  0  0  0  3  0  0  0  0  0  0
  -24.9230  -27.6550   19.4930 C   0  0  0  0  0  3  0  0  0  0  0  0
  -23.7000  -29.8100   20.1630 C   0  0  0  0  0  2  0  0  0  0  0  0
  -24.7000  -31.0610   22.1120 N   0  0  0  0  0  0  0  0  0  0  0  0
  -23.4900  -32.1620   23.7070 O   0  0  0  0  0  0  0  0  0  0  0  0
  -22.7410  -29.4780   22.4880 C   0  0  0  0  0  0  0  0  0  0  0  0
  -21.4190  -29.2820   22.3260 N   0  0  0  0  0  0  0  0  0  0  0  0
  -23.3960  -28.8730   23.3400 O   0  0  0  0  0  0  0  0  0  0  0  0
  -20.9420  -29.8220   21.6170 H   0  0  0  0  0  0  0  0  0  0  0  0
  -18.0550  -27.9860   22.7360 C   0  0  0  0  0  0  0  0  0  0  0  0
  -20.5970  -28.3290   23.0790 C   0  0  0  0  0  3  0  0  0  0  0  0
  -20.7570  -26.8950   22.5240 C   0  0  0  0  0  2  0  0  0  0  0  0
  -19.7000  -26.5310   21.4770 C   0  0  0  0  0  2  0  0  0  0  0  0
  -18.2940  -26.6380   22.0740 C   0  0  0  0  0  2  0  0  0  0  0  0
  -19.1360  -28.7860   23.1940 C   0  0  0  0  0  0  0  0  0  0  0  0
  -18.8580  -30.0420   23.7740 C   0  0  0  0  0  3  0  0  0  0  0  0
  -17.5330  -30.5010   23.8990 C   0  0  0  0  0  3  0  0  0  0  0  0
  -16.4660  -29.7000   23.4560 C   0  0  0  0  0  3  0  0  0  0  0  0
  -16.7280  -28.4440   22.8800 C   0  0  0  0  0  3  0  0  0  0  0  0
  -25.8440  -32.5430   23.8570 C   0  0  0  0  0  3  0  0  0  0  0  0
  -26.3160  -31.7980   25.1670 C   0  0  1  0  0  0  0  0  0  0  0  0
  -25.1860  -31.5800   26.2010 C   0  0  0  0  0  1  0  0  0  0  0  0
  -26.9160  -30.4140   24.8340 C   0  0  0  0  0  1  0  0  0  0  0  0
  -27.4410  -32.6100   25.8540 C   0  0  0  0  0  1  0  0  0  0  0  0
  -25.5150  -33.9460   24.1640 N   0  0  0  0  0  0  0  0  0  0  0  0
  -25.8600  -34.9990   23.4110 C   0  0  0  0  0  0  0  0  0  0  0  0
  -26.5510  -34.8910   22.3950 O   0  0  0  0  0  0  0  0  0  0  0  0
  -24.9000  -34.1020   24.9490 H   0  0  0  0  0  0  0  0  0  0  0  0
  -24.1420  -36.7980   23.0090 C   0  0  0  0  0  1  0  0  0  0  0  0
  -25.3620  -36.3910   23.8520 C   0  0  0  0  0  3  0  0  0  0  0  0
  -27.4690  -37.2890   24.7430 C   0  0  0  0  0  1  0  0  0  0  0  0
  -26.3980  -37.4450   23.7620 N   0  0  0  0  0  0  0  0  0  0  0  0
  -25.9860  -38.3660   23.8850 H   0  0  0  0  0  0  0  0  0  0  0  0
  -30.0900  -18.3180   20.2560 C   0  0  0  0  0  2  0  0  0  0  0  0
  -30.5100  -15.4090   19.9800 C   0  0  0  0  0  0  0  0  0  0  0  0
  -30.4400  -12.9730   19.0760 C   0  0  0  0  0  2  0  0  0  0  0  0
  -29.4570  -12.7710   17.8960 C   0  0  0  0  0  2  0  0  0  0  0  0
  -28.0340  -12.4910   18.4120 C   0  0  0  0  0  2  0  0  0  0  0  0
  -27.6400  -13.4440   19.5680 C   0  0  0  0  0  3  0  0  0  0  0  0
  -28.7460  -13.5940   20.6340 C   0  0  0  0  0  2  0  0  0  0  0  0
  -29.9350  -14.1080   19.9340 N   0  0  0  0  0  0  0  0  0  0  0  0
  -31.7220  -15.4060   19.7230 O   0  0  0  0  0  0  0  0  0  0  0  0
  -29.7590  -16.6850   20.1150 N   0  0  0  0  0  0  0  0  0  0  0  0
  -28.7730  -16.4980   20.2260 H   0  0  0  0  0  0  0  0  0  0  0  0
  -25.3200  -13.9870   20.4750 C   0  0  0  0  0  0  0  0  0  0  0  0
  -24.2790  -13.2030   20.8830 C   0  0  0  0  0  0  0  0  0  0  0  0
  -24.7380  -11.8520   20.7900 C   0  0  0  0  0  0  0  0  0  0  0  0
  -26.3440  -13.1160   20.1470 N   0  0  0  0  0  0  0  0  0  0  0  0
  -26.0110  -11.8250   20.4050 N   0  0  0  0  0  0  0  0  0  0  0  0
  -24.0190  -10.5870   20.9850 C   0  0  0  0  0  0  0  0  0  0  0  0
  -24.4720   -9.6110   21.9010 C   0  0  0  0  0  3  0  0  0  0  0  0
  -23.7490   -8.4130   22.0870 C   0  0  0  0  0  3  0  0  0  0  0  0
  -22.5580   -8.1820   21.3590 C   0  0  0  0  0  0  0  0  0  0  0  0
  -22.1240   -9.1470   20.4330 C   0  0  0  0  0  3  0  0  0  0  0  0
  -22.8470  -10.3350   20.2430 C   0  0  0  0  0  3  0  0  0  0  0  0
  -21.8040   -7.0370   21.4560 O   0  0  0  0  0  0  0  0  0  0  0  0
  -21.7530   -6.3060   22.6150 C   0  0  0  0  0  0  0  0  0  0  0  0
  -21.2650   -6.8540   23.8210 C   0  0  0  0  0  3  0  0  0  0  0  0
  -21.1640   -6.0460   24.9720 C   0  0  0  0  0  3  0  0  0  0  0  0
  -21.5400   -4.6920   24.9170 C   0  0  0  0  0  0  0  0  0  0  0  0
  -22.0210   -4.1430   23.7160 C   0  0  0  0  0  3  0  0  0  0  0  0
  -22.1240   -4.9480   22.5670 C   0  0  0  0  0  0  0  0  0  0  0  0
  -22.5680   -4.4070   21.4060 F   0  0  0  0  0  0  0  0  0  0  0  0
  -21.4370   -3.9130   26.0200 F   0  0  0  0  0  0  0  0  0  0  0  0
  -22.9000  -13.6740   21.2390 C   0  0  0  0  0  0  0  0  0  0  0  0
  -22.2170  -12.9610   22.1260 N   0  0  0  0  0  0  0  0  0  0  0  0
  -22.4400  -14.7130   20.7660 O   0  0  0  0  0  0  0  0  0  0  0  0
  -22.6050  -12.1200   22.5290 H   0  0  0  0  0  0  0  0  0  0  0  0
  -21.2950  -13.2580   22.4080 H   0  0  0  0  0  0  0  0  0  0  0  0
  -25.4740  -15.3620   20.3240 N   0  0  0  0  0  0  0  0  0  0  0  0
  -24.7140  -16.0100   20.4980 H   0  0  0  0  0  0  0  0  0  0  0  0
  -26.2920  -15.8100   19.9320 H   0  0  0  0  0  0  0  0  0  0  0  0
  1  5  1  0
  3  7  1  0
  3  1  1  0
  3  6  1  0
  4  2  1  0
  5 10  1  0
  5  4  1  0
  6 52  1  1
  6  4  1  0
  6  2  1  0
  8  7  1  0
  9  7  2  0
 11 10  1  0
 12 23  2  0
 13 11  1  0
 13 18  1  0
 14 22  1  0
 14 24  1  0
 15 21  1  0
 15 17  1  0
 16 22  1  0
 17 18  2  0
 17 16  1  0
 19 13  2  0
 20 19  1  0
 20 15  2  0
 21 14  1  0
 22 12  1  0
 24 26  2  0
 25 24  1  0
 27 25  1  0
 28 37  2  0
 28 33  1  0
 29 25  1  0
 29 33  1  0
 30 29  1  0
 31 32  1  0
 31 30  1  0
 32 28  1  0
 33 34  2  0
 34 35  1  0
 36 35  2  0
 37 36  1  0
 38 12  1  0
 38 43  1  0
 38 39  1  0
 39 42  1  1
 39 40  1  0
 41 39  1  0
 43 46  1  0
 44 48  1  0
 44 43  1  0
 45 44  2  0
 48 47  1  0
 50 48  1  0
 50 51  1  0
 50 49  1  0
 53 61  1  0
 54 59  1  0
 55 56  1  0
 55 54  1  0
 57 56  1  0
 57 66  1  0
 57 58  1  0
 59 53  1  0
 59 58  1  0
 60 53  2  0
 61 62  1  0
 61 52  1  0
 63 64  2  0
 64 83  1  0
 65 64  1  0
 65 68  1  0
 66 67  1  0
 66 63  1  0
 67 65  2  0
 68 69  1  0
 69 70  2  0
 71 74  1  0
 71 70  1  0
 72 71  2  0
 73 72  1  0
 73 68  2  0
 74 75  1  0
 75 76  1  0
 76 77  2  0
 78 77  1  0
 78 82  1  0
 79 78  2  0
 80 75  2  0
 80 79  1  0
 81 80  1  0
 83 84  1  0
 84 87  1  0
 84 86  1  0
 85 83  2  0
 88 63  1  0
 88 89  1  0
 90 88  1  0
M  ISO  4  10 101  11 101  53 100  61 100
M  END
>  <TORSDO>  (29) 
F 19

>  <SCORE>  (29) 
-15.979

>  <name>  (29) 
28

>  <ligand_id>  (29) 
28

>  <original_smiles>  (29) 
[H]c1c([H])c([H])c2c(c1[H])C([H])([H])C([H])([H])C([H])([H])C2([H])N([H])C(=O)C1([H])N(C(=O)C([H])(N([H])C(=O)C([H])(N([H])C([H])([H])[H])C([H])([H])[H])C(C([H])([H])[H])(C([H])([H])[H])C([H])([H])[H])C([H])([H])c2c([H])c(OC([H])([H])C3([H])C([H])([H])C([H])(C(=O)C([H])([H])[H])C4(C([H])([H])N([H])C(=O)N5C([H])([H])C([H])([H])C([H])([H])C([H])(n6nc(-c7c([H])c([H])c(Oc8c([H])c([H])c(F)c([H])c8F)c([H])c7[H])c(C(=O)N([H])[H])c6N([H])[H])C5([H])[H])C([H])([H])C34[H])c([H])c([H])c2C1([H])[H]

>  <smiles>  (29) 
[H]c1c([H])c([H])c2c(c1[H])C([H])([H])C([H])([H])C([H])([H])C2([H])N([H])C(=O)C1([H])N(C(=O)C([H])(N([H])C(=O)C([H])(N([H])C([H])([H])[H])C([H])([H])[H])C(C([H])([H])[H])(C([H])([H])[H])C([H])([H])[H])C([H])([H])c2c([H])c(OC([H])([H])C3([H])C([H])([H])C([H])(C(=O)C([H])([H])[H])C4(C([H])([H])N([H])C(=O)N5C([H])([H])C([H])([H])C([H])([H])C([H])(n6nc(-c7c([H])c([H])c(Oc8c([H])c([H])c(F)c([H])c8F)c([H])c7[H])c(C(=O)N([H])[H])c6N([H])[H])C5([H])[H])C([H])([H])C34[H])c([H])c([H])c2C1([H])[H]

$$$$
29:0:0
     RDKit          3D

 93102  0  0  1  0  0  0  0  0999 V2000
  -29.9480  -22.2060   20.1470 C   0  0  0  0  0  2  0  0  0  0  0  0
  -27.6720  -21.9890   19.4150 C   0  0  0  0  0  2  0  0  0  0  0  0
  -29.7770  -20.5870   19.9020 C   0  0  0  0  0  3  0  0  0  0  0  0
  -28.3760  -20.5720   19.3250 C   0  0  0  0  0  3  0  0  0  0  0  0
  -28.5940  -23.1050   20.0510 C   0  0  0  0  0  3  0  0  0  0  0  0
  -29.5200  -18.9930   20.4230 C   0  0  0  0  0  3  0  0  0  0  0  0
  -28.0130  -19.3340   20.2040 C   0  0  0  0  0  3  0  0  0  0  0  0
  -30.2330  -17.5870   19.8100 C   0  0  0  0  0  2  0  0  0  0  0  0
  -30.6920  -14.8810   19.9580 C   0  0  0  0  0  0  0  0  0  0  0  0
  -30.4210  -12.5780   18.9380 C   0  0  0  0  0  2  0  0  0  0  0  0
  -29.4060  -12.6340   17.7720 C   0  0  0  0  0  2  0  0  0  0  0  0
  -27.9730  -12.4330   18.2990 C   0  0  0  0  0  2  0  0  0  0  0  0
  -27.6770  -13.3060   19.5460 C   0  0  0  0  0  3  0  0  0  0  0  0
  -28.8100  -13.2440   20.5930 C   0  0  0  0  0  2  0  0  0  0  0  0
  -30.0520  -13.6420   19.9170 N   0  0  0  0  0  0  0  0  0  0  0  0
  -31.8550  -14.9260   19.5450 O   0  0  0  0  0  0  0  0  0  0  0  0
  -29.9790  -16.0810   20.2390 N   0  0  0  0  0  0  0  0  0  0  0  0
  -29.0570  -15.9050   20.6070 H   0  0  0  0  0  0  0  0  0  0  0  0
  -25.3570  -13.8940   20.4460 C   0  0  0  0  0  0  0  0  0  0  0  0
  -24.3090  -13.1260   20.8710 C   0  0  0  0  0  0  0  0  0  0  0  0
  -24.7510  -11.7700   20.7770 C   0  0  0  0  0  0  0  0  0  0  0  0
  -26.3700  -13.0110   20.1210 N   0  0  0  0  0  0  0  0  0  0  0  0
  -26.0200  -11.7250   20.3840 N   0  0  0  0  0  0  0  0  0  0  0  0
  -24.0180  -10.5140   20.9800 C   0  0  0  0  0  0  0  0  0  0  0  0
  -24.4720   -9.5310   21.8860 C   0  0  0  0  0  3  0  0  0  0  0  0
  -23.7380   -8.3410   22.0780 C   0  0  0  0  0  3  0  0  0  0  0  0
  -22.5350   -8.1260   21.3670 C   0  0  0  0  0  0  0  0  0  0  0  0
  -22.0980   -9.0980   20.4470 C   0  0  0  0  0  3  0  0  0  0  0  0
  -22.8330  -10.2790   20.2530 C   0  0  0  0  0  3  0  0  0  0  0  0
  -21.7690   -6.9890   21.4700 O   0  0  0  0  0  0  0  0  0  0  0  0
  -21.7230   -6.2570   22.6280 C   0  0  0  0  0  0  0  0  0  0  0  0
  -21.3220   -6.8290   23.8560 C   0  0  0  0  0  3  0  0  0  0  0  0
  -21.2220   -6.0250   25.0090 C   0  0  0  0  0  3  0  0  0  0  0  0
  -21.5120   -4.6490   24.9350 C   0  0  0  0  0  0  0  0  0  0  0  0
  -21.9060   -4.0760   23.7130 C   0  0  0  0  0  3  0  0  0  0  0  0
  -22.0080   -4.8780   22.5630 C   0  0  0  0  0  0  0  0  0  0  0  0
  -22.3670   -4.3170   21.3830 F   0  0  0  0  0  0  0  0  0  0  0  0
  -21.4080   -3.8740   26.0400 F   0  0  0  0  0  0  0  0  0  0  0  0
  -22.9380  -13.6160   21.2390 C   0  0  0  0  0  0  0  0  0  0  0  0
  -22.2660  -12.9220   22.1500 N   0  0  0  0  0  0  0  0  0  0  0  0
  -22.4820  -14.6520   20.7560 O   0  0  0  0  0  0  0  0  0  0  0  0
  -22.6560  -12.0870   22.5610 H   0  0  0  0  0  0  0  0  0  0  0  0
  -21.3500  -13.2310   22.4440 H   0  0  0  0  0  0  0  0  0  0  0  0
  -25.5190  -15.2650   20.2680 N   0  0  0  0  0  0  0  0  0  0  0  0
  -24.6450  -15.7740   20.2160 H   0  0  0  0  0  0  0  0  0  0  0  0
  -26.1780  -15.5530   19.5580 H   0  0  0  0  0  0  0  0  0  0  0  0
  -27.0620  -18.2730   19.6560 C   0  0  0  0  0  2  0  0  0  0  0  0
  -25.7120  -18.8240   19.4740 N   0  0  0  0  0  4  0  0  0  0  0  0
  -25.7260  -19.5760   18.8080 H   0  0  0  0  0  0  0  0  0  0  0  0
  -25.3550  -19.1700   20.3460 H   0  0  0  0  0  0  0  0  0  0  0  0
  -25.0870  -18.1140   19.1390 H   0  0  0  0  0  0  0  0  0  0  0  0
  -28.5100  -24.6600   19.3540 C   0  0  0  0  0  2  0  0  0  0  0  0
  -28.4200  -26.0980   19.9610 O   0  0  0  0  0  0  0  0  0  0  0  0
  -24.5800  -31.6050   22.9870 C   0  0  0  0  0  0  0  0  0  0  0  0
  -27.3160  -27.0290   19.8650 C   0  0  0  0  0  0  0  0  0  0  0  0
  -23.4270  -30.2080   21.3150 C   0  0  0  0  0  3  0  0  0  0  0  0
  -24.9270  -28.7050   19.8630 C   0  0  0  0  0  0  0  0  0  0  0  0
  -25.9720  -30.5500   21.1660 C   0  0  0  0  0  2  0  0  0  0  0  0
  -26.0890  -29.1740   20.4860 C   0  0  0  0  0  0  0  0  0  0  0  0
  -27.2780  -28.3500   20.4750 C   0  0  0  0  0  3  0  0  0  0  0  0
  -26.1190  -26.6640   19.2060 C   0  0  0  0  0  3  0  0  0  0  0  0
  -24.9550  -27.4650   19.2090 C   0  0  0  0  0  3  0  0  0  0  0  0
  -23.6710  -29.5620   19.9250 C   0  0  0  0  0  2  0  0  0  0  0  0
  -24.6790  -30.8100   21.8770 N   0  0  0  0  0  0  0  0  0  0  0  0
  -23.4840  -31.8440   23.5170 O   0  0  0  0  0  0  0  0  0  0  0  0
  -22.7760  -29.1630   22.2550 C   0  0  0  0  0  0  0  0  0  0  0  0
  -21.4480  -28.9790   22.1420 N   0  0  0  0  0  0  0  0  0  0  0  0
  -23.4670  -28.5210   23.0500 O   0  0  0  0  0  0  0  0  0  0  0  0
  -20.9440  -29.5470   21.4760 H   0  0  0  0  0  0  0  0  0  0  0  0
  -18.0880  -27.7450   22.6910 C   0  0  0  0  0  0  0  0  0  0  0  0
  -20.6510  -28.0080   22.8970 C   0  0  0  0  0  3  0  0  0  0  0  0
  -20.7430  -26.6010   22.2640 C   0  0  0  0  0  2  0  0  0  0  0  0
  -19.6150  -26.3170   21.2650 C   0  0  0  0  0  2  0  0  0  0  0  0
  -18.2520  -26.4260   21.9530 C   0  0  0  0  0  2  0  0  0  0  0  0
  -19.2150  -28.4960   23.1180 C   0  0  0  0  0  0  0  0  0  0  0  0
  -19.0070  -29.7300   23.7720 C   0  0  0  0  0  3  0  0  0  0  0  0
  -17.7040  -30.2150   23.9970 C   0  0  0  0  0  3  0  0  0  0  0  0
  -16.5930  -29.4610   23.5850 C   0  0  0  0  0  3  0  0  0  0  0  0
  -16.7850  -28.2270   22.9380 C   0  0  0  0  0  3  0  0  0  0  0  0
  -25.8350  -32.2650   23.6320 C   0  0  0  0  0  3  0  0  0  0  0  0
  -26.3850  -31.4670   24.8780 C   0  0  1  0  0  0  0  0  0  0  0  0
  -25.3060  -31.1550   25.9420 C   0  0  0  0  0  1  0  0  0  0  0  0
  -27.0140  -30.1250   24.4400 C   0  0  0  0  0  1  0  0  0  0  0  0
  -27.5120  -32.2780   25.5610 C   0  0  0  0  0  1  0  0  0  0  0  0
  -25.4690  -33.6350   24.0230 N   0  0  0  0  0  0  0  0  0  0  0  0
  -25.7590  -34.7360   23.3160 C   0  0  0  0  0  0  0  0  0  0  0  0
  -26.4300  -34.7050   22.2800 O   0  0  0  0  0  0  0  0  0  0  0  0
  -24.8670  -33.7300   24.8280 H   0  0  0  0  0  0  0  0  0  0  0  0
  -23.9620  -36.4780   23.0530 C   0  0  0  0  0  1  0  0  0  0  0  0
  -25.2230  -36.0840   23.8380 C   0  0  0  0  0  3  0  0  0  0  0  0
  -27.3280  -37.0140   24.6970 C   0  0  0  0  0  1  0  0  0  0  0  0
  -26.2150  -37.1800   23.7670 N   0  0  0  0  0  0  0  0  0  0  0  0
  -25.7760  -38.0780   23.9540 H   0  0  0  0  0  0  0  0  0  0  0  0
  2  5  1  0
  3  1  1  0
  3  6  1  0
  4  2  1  0
  4  3  1  0
  4  7  1  0
  5 52  1  0
  5  1  1  0
  6  8  1  0
  7 47  1  0
  7  6  1  0
  8 17  1  0
  9 17  1  0
 10 15  1  0
 11 12  1  0
 11 10  1  0
 13 12  1  0
 13 22  1  0
 13 14  1  0
 15  9  1  0
 15 14  1  0
 16  9  2  0
 17 18  1  0
 19 20  2  0
 20 39  1  0
 21 20  1  0
 21 24  1  0
 22 23  1  0
 22 19  1  0
 23 21  2  0
 24 25  1  0
 25 26  2  0
 27 30  1  0
 27 26  1  0
 28 27  2  0
 29 28  1  0
 29 24  2  0
 30 31  1  0
 31 32  1  0
 32 33  2  0
 34 33  1  0
 34 38  1  0
 35 34  2  0
 36 31  2  0
 36 35  1  0
 37 36  1  0
 39 40  1  0
 40 43  1  0
 40 42  1  0
 41 39  2  0
 44 19  1  0
 45 44  1  0
 46 44  1  0
 48 47  1  0
 48 50  1  0
 49 48  1  0
 51 48  1  0
 52 53  1  0
 54 65  2  0
 55 53  1  0
 55 60  1  0
 56 64  1  0
 56 66  1  0
 57 63  1  0
 57 59  1  0
 58 64  1  0
 59 58  1  0
 60 59  2  0
 61 62  1  0
 61 55  2  0
 62 57  2  0
 63 56  1  0
 64 54  1  0
 66 68  2  0
 67 66  1  0
 69 67  1  0
 70 79  2  0
 70 75  1  0
 71 67  1  0
 71 75  1  0
 72 71  1  0
 73 74  1  0
 73 72  1  0
 74 70  1  0
 75 76  2  0
 76 77  1  0
 78 77  2  0
 79 78  1  0
 80 54  1  0
 80 85  1  0
 80 81  1  0
 81 84  1  1
 81 82  1  0
 83 81  1  0
 85 88  1  0
 86 90  1  0
 86 85  1  0
 87 86  2  0
 90 89  1  0
 92 90  1  0
 92 93  1  0
 92 91  1  0
M  ISO  4   9 100  17 100  52 101  53 101
M  END
>  <TORSDO>  (30) 
F 20

>  <SCORE>  (30) 
-13.859

>  <name>  (30) 
29

>  <ligand_id>  (30) 
29

>  <original_smiles>  (30) 
[H]c1c([H])c([H])c2c(c1[H])C([H])([H])C([H])([H])C([H])([H])C2([H])N([H])C(=O)C1([H])N(C(=O)C([H])(N([H])C(=O)C([H])(N([H])C([H])([H])[H])C([H])([H])[H])C(C([H])([H])[H])(C([H])([H])[H])C([H])([H])[H])C([H])([H])c2c([H])c(OC([H])([H])C3([H])C([H])([H])C4([H])C([H])(C([H])([H])N([H])C(=O)N5C([H])([H])C([H])([H])C([H])([H])C([H])(n6nc(-c7c([H])c([H])c(Oc8c([H])c([H])c(F)c([H])c8F)c([H])c7[H])c(C(=O)N([H])[H])c6N([H])[H])C5([H])[H])C([H])(C([H])([H])[N+]([H])([H])[H])C4([H])C3([H])[H])c([H])c([H])c2C1([H])[H]

>  <smiles>  (30) 
[H]c1c([H])c([H])c2c(c1[H])C([H])([H])C([H])([H])C([H])([H])C2([H])N([H])C(=O)C1([H])N(C(=O)C([H])(N([H])C(=O)C([H])(N([H])C([H])([H])[H])C([H])([H])[H])C(C([H])([H])[H])(C([H])([H])[H])C([H])([H])[H])C([H])([H])c2c([H])c(OC([H])([H])C3([H])C([H])([H])C4([H])C([H])(C([H])([H])N([H])C(=O)N5C([H])([H])C([H])([H])C([H])([H])C([H])(n6nc(-c7c([H])c([H])c(Oc8c([H])c([H])c(F)c([H])c8F)c([H])c7[H])c(C(=O)N([H])[H])c6N([H])[H])C5([H])[H])C([H])(C([H])([H])[N+]([H])([H])[H])C4([H])C3([H])[H])c([H])c([H])c2C1([H])[H]

$$$$
30:0:0
     RDKit          3D

 91100  0  0  1  0  0  0  0  0999 V2000
  -30.1090  -19.1500   18.4780 C   0  0  0  0  0  0  0  0  0  0  0  0
  -31.2090  -19.6190   18.7590 O   0  0  0  0  0  0  0  0  0  0  0  0
  -31.0740  -15.5980   21.0340 C   0  0  0  0  0  0  0  0  0  0  0  0
  -31.6180  -13.1040   21.6120 C   0  0  0  0  0  2  0  0  0  0  0  0
  -31.2990  -12.1170   20.4530 C   0  0  0  0  0  2  0  0  0  0  0  0
  -29.8010  -11.7360   20.4100 C   0  0  0  0  0  2  0  0  0  0  0  0
  -28.9090  -12.9680   20.6880 C   0  0  0  0  0  3  0  0  0  0  0  0
  -29.3850  -13.7620   21.9090 C   0  0  0  0  0  2  0  0  0  0  0  0
  -30.7000  -14.3020   21.5330 N   0  0  0  0  0  0  0  0  0  0  0  0
  -32.3140  -15.7360   21.0980 O   0  0  0  0  0  0  0  0  0  0  0  0
  -27.0790  -18.2130   18.5400 C   0  0  0  0  0  2  0  0  0  0  0  0
  -29.0380  -17.1290   21.1740 C   0  0  0  0  0  2  0  0  0  0  0  0
  -29.8460  -17.4430   18.9040 C   0  0  0  0  0  3  0  0  0  0  0  0
  -28.3080  -17.2610   18.7450 C   0  0  0  0  0  3  0  0  0  0  0  0
  -27.9070  -17.2480   20.1720 C   0  0  0  0  0  3  0  0  0  0  0  0
  -26.7420  -18.2640   20.0360 C   0  0  1  0  0  0  0  0  0  0  0  0
  -26.7840  -19.6720   20.6900 C   0  0  0  0  0  1  0  0  0  0  0  0
  -25.4680  -17.5350   20.4670 C   0  0  0  0  0  1  0  0  0  0  0  0
  -30.1590  -16.5950   20.3570 N   0  0  0  0  0  0  0  0  0  0  0  0
  -26.4120  -13.4700   20.5380 C   0  0  0  0  0  0  0  0  0  0  0  0
  -25.3020  -12.7330   20.7450 C   0  0  0  0  0  0  0  0  0  0  0  0
  -25.7680  -11.4150   21.0520 C   0  0  0  0  0  0  0  0  0  0  0  0
  -27.4930  -12.6440   20.7910 N   0  0  0  0  0  0  0  0  0  0  0  0
  -27.0920  -11.3980   21.1570 N   0  0  0  0  0  0  0  0  0  0  0  0
  -25.0310  -10.1580   21.1700 C   0  0  0  0  0  0  0  0  0  0  0  0
  -25.3080   -9.2350   22.2040 C   0  0  0  0  0  3  0  0  0  0  0  0
  -24.5680   -8.0420   22.3020 C   0  0  0  0  0  3  0  0  0  0  0  0
  -23.5360   -7.7660   21.3720 C   0  0  0  0  0  0  0  0  0  0  0  0
  -23.2930   -8.6720   20.3280 C   0  0  0  0  0  3  0  0  0  0  0  0
  -24.0340   -9.8600   20.2230 C   0  0  0  0  0  3  0  0  0  0  0  0
  -22.7870   -6.6190   21.3790 O   0  0  0  0  0  0  0  0  0  0  0  0
  -22.4180   -6.0050   22.5530 C   0  0  0  0  0  0  0  0  0  0  0  0
  -21.7300   -6.6980   23.5700 C   0  0  0  0  0  3  0  0  0  0  0  0
  -21.3060   -6.0140   24.7290 C   0  0  0  0  0  3  0  0  0  0  0  0
  -21.5690   -4.6400   24.8710 C   0  0  0  0  0  0  0  0  0  0  0  0
  -22.2440   -3.9430   23.8520 C   0  0  0  0  0  3  0  0  0  0  0  0
  -22.6660   -4.6240   22.6970 C   0  0  0  0  0  0  0  0  0  0  0  0
  -23.3020   -3.9470   21.7120 F   0  0  0  0  0  0  0  0  0  0  0  0
  -21.1550   -3.9790   25.9770 F   0  0  0  0  0  0  0  0  0  0  0  0
  -23.8900  -13.1750   20.5240 C   0  0  0  0  0  0  0  0  0  0  0  0
  -22.9570  -12.6480   21.2950 N   0  0  0  0  0  0  0  0  0  0  0  0
  -23.6160  -14.0450   19.6960 O   0  0  0  0  0  0  0  0  0  0  0  0
  -23.1840  -11.9400   21.9760 H   0  0  0  0  0  0  0  0  0  0  0  0
  -21.9960  -12.9450   21.1880 H   0  0  0  0  0  0  0  0  0  0  0  0
  -26.6000  -14.7670   20.0680 N   0  0  0  0  0  0  0  0  0  0  0  0
  -25.8350  -15.3620   19.7810 H   0  0  0  0  0  0  0  0  0  0  0  0
  -27.5180  -15.1390   19.8640 H   0  0  0  0  0  0  0  0  0  0  0  0
  -29.0730  -20.2740   17.6740 C   0  0  0  0  0  2  0  0  0  0  0  0
  -29.2940  -21.8820   17.0600 C   0  0  0  0  0  2  0  0  0  0  0  0
  -28.5290  -23.4060   17.4480 C   0  0  0  0  0  2  0  0  0  0  0  0
  -29.1220  -24.9010   17.5700 O   0  0  0  0  0  0  0  0  0  0  0  0
  -26.7050  -29.0290   23.3460 C   0  0  0  0  0  0  0  0  0  0  0  0
  -28.3750  -26.0250   18.1410 C   0  0  0  0  0  0  0  0  0  0  0  0
  -25.3670  -28.9200   21.3030 C   0  0  0  0  0  3  0  0  0  0  0  0
  -26.5370  -28.0630   19.1880 C   0  0  0  0  0  0  0  0  0  0  0  0
  -27.9270  -28.6840   21.1460 C   0  0  0  0  0  2  0  0  0  0  0  0
  -27.7450  -27.8400   19.8620 C   0  0  0  0  0  0  0  0  0  0  0  0
  -28.6750  -26.8550   19.3180 C   0  0  0  0  0  3  0  0  0  0  0  0
  -27.1800  -26.4040   17.4970 C   0  0  0  0  0  3  0  0  0  0  0  0
  -26.2750  -27.3630   18.0050 C   0  0  0  0  0  3  0  0  0  0  0  0
  -25.5490  -29.0610   19.7750 C   0  0  0  0  0  2  0  0  0  0  0  0
  -26.6960  -28.8580   21.9890 N   0  0  0  0  0  0  0  0  0  0  0  0
  -25.6630  -29.2280   23.9890 O   0  0  0  0  0  0  0  0  0  0  0  0
  -24.4360  -27.7210   21.6420 C   0  0  0  0  0  0  0  0  0  0  0  0
  -23.1220  -27.8750   21.4070 N   0  0  0  0  0  0  0  0  0  0  0  0
  -24.9130  -26.6660   22.0800 O   0  0  0  0  0  0  0  0  0  0  0  0
  -22.7950  -28.7450   21.0030 H   0  0  0  0  0  0  0  0  0  0  0  0
  -19.5650  -27.1740   21.1280 C   0  0  0  0  0  0  0  0  0  0  0  0
  -22.0880  -26.8680   21.6260 C   0  0  0  0  0  3  0  0  0  0  0  0
  -22.0760  -25.7960   20.5110 C   0  0  0  0  0  2  0  0  0  0  0  0
  -21.0920  -26.1360   19.3940 C   0  0  0  0  0  2  0  0  0  0  0  0
  -19.6580  -26.2650   19.9140 C   0  0  0  0  0  2  0  0  0  0  0  0
  -20.7150  -27.4950   21.9070 C   0  0  0  0  0  0  0  0  0  0  0  0
  -20.5860  -28.4360   22.9500 C   0  0  0  0  0  3  0  0  0  0  0  0
  -19.3420  -29.0260   23.2410 C   0  0  0  0  0  3  0  0  0  0  0  0
  -18.1960  -28.6680   22.5020 C   0  0  0  0  0  3  0  0  0  0  0  0
  -18.3160  -27.7400   21.4540 C   0  0  0  0  0  3  0  0  0  0  0  0
  -28.0310  -29.0050   24.1570 C   0  0  0  0  0  3  0  0  0  0  0  0
  -28.4050  -27.5620   24.6740 C   0  0  1  0  0  0  0  0  0  0  0  0
  -27.2670  -26.8490   25.4430 C   0  0  0  0  0  1  0  0  0  0  0  0
  -28.8170  -26.6470   23.4980 C   0  0  0  0  0  1  0  0  0  0  0  0
  -29.6390  -27.6490   25.6030 C   0  0  0  0  0  1  0  0  0  0  0  0
  -27.8860  -29.9320   25.2960 N   0  0  0  0  0  0  0  0  0  0  0  0
  -28.5780  -31.0670   25.4580 C   0  0  0  0  0  0  0  0  0  0  0  0
  -29.4730  -31.4170   24.6750 O   0  0  0  0  0  0  0  0  0  0  0  0
  -27.1530  -29.7300   25.9610 H   0  0  0  0  0  0  0  0  0  0  0  0
  -27.4210  -33.1700   26.2090 C   0  0  0  0  0  1  0  0  0  0  0  0
  -28.2360  -31.9540   26.6760 C   0  0  0  0  0  3  0  0  0  0  0  0
  -30.1070  -31.3380   28.1400 C   0  0  0  0  0  1  0  0  0  0  0  0
  -29.4280  -32.4140   27.4240 N   0  0  0  0  0  0  0  0  0  0  0  0
  -29.1830  -33.1420   28.0890 H   0  0  0  0  0  0  0  0  0  0  0  0
  1  2  2  0
  3 10  2  0
  3  9  1  0
  5  4  1  0
  6  5  1  0
  7  6  1  0
  7 23  1  0
  7  8  1  0
  9  4  1  0
  9  8  1  0
 11 16  1  0
 13  1  1  0
 13 19  1  0
 14 11  1  0
 14 13  1  0
 14 15  1  0
 15 12  1  0
 16 15  1  0
 16 18  1  6
 16 17  1  0
 19  3  1  0
 19 12  1  0
 20 21  2  0
 20 23  1  0
 21 22  1  0
 22 24  2  0
 22 25  1  0
 23 24  1  0
 25 26  1  0
 26 27  2  0
 28 31  1  0
 28 27  1  0
 29 28  2  0
 30 29  1  0
 30 25  2  0
 31 32  1  0
 32 37  2  0
 32 33  1  0
 33 34  2  0
 34 35  1  0
 35 39  1  0
 36 35  2  0
 37 36  1  0
 38 37  1  0
 40 21  1  0
 40 41  1  0
 41 43  1  0
 42 40  2  0
 44 41  1  0
 45 20  1  0
 46 45  1  0
 47 45  1  0
 48  1  1  0
 49 50  1  0
 49 48  1  0
 50 51  1  0
 51 53  1  0
 52 63  2  0
 53 58  1  0
 54 64  1  0
 54 62  1  0
 55 61  1  0
 55 57  1  0
 56 62  1  0
 57 56  1  0
 58 57  2  0
 59 60  1  0
 59 53  2  0
 60 55  2  0
 61 54  1  0
 62 52  1  0
 64 66  2  0
 65 64  1  0
 67 65  1  0
 68 77  2  0
 68 73  1  0
 69 65  1  0
 69 73  1  0
 70 69  1  0
 71 72  1  0
 71 70  1  0
 72 68  1  0
 73 74  2  0
 74 75  1  0
 76 75  2  0
 77 76  1  0
 78 52  1  0
 78 79  1  0
 78 83  1  0
 79 80  1  1
 79 82  1  0
 81 79  1  0
 83 84  1  0
 83 86  1  0
 84 88  1  0
 85 84  2  0
 88 87  1  0
 88 90  1  0
 90 91  1  0
 90 89  1  0
M  ISO  4   3 100  19 100  50 101  51 101
M  END
>  <TORSDO>  (31) 
F 19

>  <SCORE>  (31) 
-6.354

>  <name>  (31) 
30

>  <ligand_id>  (31) 
30

>  <original_smiles>  (31) 
[H]c1c([H])c([H])c2c(c1[H])C([H])([H])C([H])([H])C([H])([H])C2([H])N([H])C(=O)C1([H])N(C(=O)C([H])(N([H])C(=O)C([H])(N([H])C([H])([H])[H])C([H])([H])[H])C(C([H])([H])[H])(C([H])([H])[H])C([H])([H])[H])C([H])([H])c2c([H])c(OC([H])([H])C([H])([H])C([H])([H])C(=O)C3([H])N(C(=O)N4C([H])([H])C([H])([H])C([H])([H])C([H])(n5nc(-c6c([H])c([H])c(Oc7c([H])c([H])c(F)c([H])c7F)c([H])c6[H])c(C(=O)N([H])[H])c5N([H])[H])C4([H])[H])C([H])([H])C4([H])C3([H])C([H])([H])C4(C([H])([H])[H])C([H])([H])[H])c([H])c([H])c2C1([H])[H]

>  <smiles>  (31) 
[H]c1c([H])c([H])c2c(c1[H])C([H])([H])C([H])([H])C([H])([H])C2([H])N([H])C(=O)C1([H])N(C(=O)C([H])(N([H])C(=O)C([H])(N([H])C([H])([H])[H])C([H])([H])[H])C(C([H])([H])[H])(C([H])([H])[H])C([H])([H])[H])C([H])([H])c2c([H])c(OC([H])([H])C([H])([H])C([H])([H])C(=O)C3([H])N(C(=O)N4C([H])([H])C([H])([H])C([H])([H])C([H])(n5nc(-c6c([H])c([H])c(Oc7c([H])c([H])c(F)c([H])c7F)c([H])c6[H])c(C(=O)N([H])[H])c5N([H])[H])C4([H])[H])C([H])([H])C4([H])C3([H])C([H])([H])C4(C([H])([H])[H])C([H])([H])[H])c([H])c([H])c2C1([H])[H]

$$$$
31:0:0
     RDKit          3D

 91100  0  0  1  0  0  0  0  0999 V2000
  -31.0650  -22.0750   20.1900 C   0  0  0  0  0  1  0  0  0  0  0  0
  -29.7650  -21.9390   19.4860 N   0  0  1  0  0  4  0  0  0  0  0  0
  -29.9980  -22.0210   18.5080 H   0  0  0  0  0  0  0  0  0  0  0  0
  -29.1890  -20.4410   19.5990 C   0  0  0  0  0  2  0  0  0  0  0  0
  -30.0070  -19.0350   19.1490 C   0  0  0  0  0  0  0  0  0  0  0  0
  -31.0650  -19.1670   18.5320 O   0  0  0  0  0  0  0  0  0  0  0  0
  -30.9810  -15.0530   19.1740 C   0  0  0  0  0  0  0  0  0  0  0  0
  -30.7980  -12.6730   18.2640 C   0  0  0  0  0  2  0  0  0  0  0  0
  -29.6700  -12.5210   17.2110 C   0  0  0  0  0  2  0  0  0  0  0  0
  -28.3050  -12.2710   17.8810 C   0  0  0  0  0  2  0  0  0  0  0  0
  -28.0600  -13.2350   19.0630 C   0  0  0  0  0  3  0  0  0  0  0  0
  -29.2750  -13.2770   20.0010 C   0  0  0  0  0  2  0  0  0  0  0  0
  -30.4330  -13.7600   19.2240 N   0  0  0  0  0  0  0  0  0  0  0  0
  -31.9990  -15.1980   18.4850 O   0  0  0  0  0  0  0  0  0  0  0  0
  -29.0690  -18.2640   22.0100 C   0  0  0  0  0  2  0  0  0  0  0  0
  -30.4060  -16.0300   21.3230 C   0  0  0  0  0  2  0  0  0  0  0  0
  -29.4820  -17.4400   19.4720 C   0  0  0  0  0  3  0  0  0  0  0  0
  -29.1920  -16.7810   21.8620 C   0  0  0  0  0  3  0  0  0  0  0  0
  -28.6110  -17.5800   20.7340 C   0  0  0  0  0  3  0  0  0  0  0  0
  -30.3780  -16.1580   19.8500 N   0  0  0  0  0  0  0  0  0  0  0  0
  -25.9120  -13.8110   20.3310 C   0  0  0  0  0  0  0  0  0  0  0  0
  -24.9090  -13.0360   20.8390 C   0  0  0  0  0  0  0  0  0  0  0  0
  -25.2880  -11.6830   20.5820 C   0  0  0  0  0  0  0  0  0  0  0  0
  -26.8350  -12.9320   19.7900 N   0  0  0  0  0  0  0  0  0  0  0  0
  -26.4840  -11.6390   20.0080 N   0  0  0  0  0  0  0  0  0  0  0  0
  -24.5550  -10.4280   20.7880 C   0  0  0  0  0  0  0  0  0  0  0  0
  -24.9810   -9.4670   21.7310 C   0  0  0  0  0  3  0  0  0  0  0  0
  -24.2480   -8.2770   21.9260 C   0  0  0  0  0  3  0  0  0  0  0  0
  -23.0710   -8.0410   21.1760 C   0  0  0  0  0  0  0  0  0  0  0  0
  -22.6640   -8.9900   20.2190 C   0  0  0  0  0  3  0  0  0  0  0  0
  -23.4000  -10.1690   20.0260 C   0  0  0  0  0  3  0  0  0  0  0  0
  -22.3090   -6.9030   21.2760 O   0  0  0  0  0  0  0  0  0  0  0  0
  -22.0680   -6.3040   22.4870 C   0  0  0  0  0  0  0  0  0  0  0  0
  -21.4750   -7.0060   23.5600 C   0  0  0  0  0  3  0  0  0  0  0  0
  -21.1820   -6.3360   24.7640 C   0  0  0  0  0  3  0  0  0  0  0  0
  -21.4700   -4.9640   24.8940 C   0  0  0  0  0  0  0  0  0  0  0  0
  -22.0550   -4.2620   23.8250 C   0  0  0  0  0  3  0  0  0  0  0  0
  -22.3500   -4.9290   22.6240 C   0  0  0  0  0  0  0  0  0  0  0  0
  -22.8930   -4.2450   21.5890 F   0  0  0  0  0  0  0  0  0  0  0  0
  -21.1830   -4.3160   26.0460 F   0  0  0  0  0  0  0  0  0  0  0  0
  -23.6200  -13.5190   21.4360 C   0  0  0  0  0  0  0  0  0  0  0  0
  -23.0730  -12.7750   22.3910 N   0  0  0  0  0  0  0  0  0  0  0  0
  -23.1140  -14.5890   21.0940 O   0  0  0  0  0  0  0  0  0  0  0  0
  -23.4910  -11.9020   22.6780 H   0  0  0  0  0  0  0  0  0  0  0  0
  -22.2190  -13.0810   22.8380 H   0  0  0  0  0  0  0  0  0  0  0  0
  -26.1120  -15.1870   20.2480 N   0  0  0  0  0  0  0  0  0  0  0  0
  -25.4250  -15.8690   20.5470 H   0  0  0  0  0  0  0  0  0  0  0  0
  -26.9010  -15.5990   19.7690 H   0  0  0  0  0  0  0  0  0  0  0  0
  -28.8700  -23.2320   19.8260 C   0  0  0  0  0  2  0  0  0  0  0  0
  -29.1090  -24.8030   19.1980 C   0  0  0  0  0  2  0  0  0  0  0  0
  -28.8920  -26.2370   19.8140 O   0  0  0  0  0  0  0  0  0  0  0  0
  -24.9370  -31.5630   22.9940 C   0  0  0  0  0  0  0  0  0  0  0  0
  -27.7710  -27.1500   19.7230 C   0  0  0  0  0  0  0  0  0  0  0  0
  -23.8250  -30.2370   21.2360 C   0  0  0  0  0  3  0  0  0  0  0  0
  -25.3630  -28.7990   19.7490 C   0  0  0  0  0  0  0  0  0  0  0  0
  -26.3690  -30.6050   21.1440 C   0  0  0  0  0  2  0  0  0  0  0  0
  -26.5080  -29.2570   20.4100 C   0  0  0  0  0  0  0  0  0  0  0  0
  -27.7050  -28.4470   20.3820 C   0  0  0  0  0  3  0  0  0  0  0  0
  -26.5980  -26.7970   19.0210 C   0  0  0  0  0  3  0  0  0  0  0  0
  -25.4210  -27.5840   19.0440 C   0  0  0  0  0  3  0  0  0  0  0  0
  -24.0990  -29.6440   19.8240 C   0  0  0  0  0  2  0  0  0  0  0  0
  -25.0620  -30.8200   21.8500 N   0  0  0  0  0  0  0  0  0  0  0  0
  -23.8300  -31.7720   23.5140 O   0  0  0  0  0  0  0  0  0  0  0  0
  -23.1620  -29.1510   22.1180 C   0  0  0  0  0  0  0  0  0  0  0  0
  -21.8280  -29.0070   22.0140 N   0  0  0  0  0  0  0  0  0  0  0  0
  -23.8480  -28.4430   22.8620 O   0  0  0  0  0  0  0  0  0  0  0  0
  -21.3310  -29.6360   21.4000 H   0  0  0  0  0  0  0  0  0  0  0  0
  -18.4420  -27.8370   22.5640 C   0  0  0  0  0  0  0  0  0  0  0  0
  -21.0190  -28.0030   22.7100 C   0  0  0  0  0  3  0  0  0  0  0  0
  -21.0450  -26.6480   21.9640 C   0  0  0  0  0  2  0  0  0  0  0  0
  -19.8800  -26.4750   20.9830 C   0  0  0  0  0  2  0  0  0  0  0  0
  -18.5400  -26.5760   21.7180 C   0  0  0  0  0  2  0  0  0  0  0  0
  -19.6060  -28.5130   23.0180 C   0  0  0  0  0  0  0  0  0  0  0  0
  -19.4580  -29.6960   23.7770 C   0  0  0  0  0  3  0  0  0  0  0  0
  -18.1790  -30.2030   24.0780 C   0  0  0  0  0  3  0  0  0  0  0  0
  -17.0300  -29.5210   23.6410 C   0  0  0  0  0  3  0  0  0  0  0  0
  -17.1640  -28.3390   22.8870 C   0  0  0  0  0  3  0  0  0  0  0  0
  -26.1750  -32.2030   23.6960 C   0  0  0  0  0  3  0  0  0  0  0  0
  -26.7260  -31.3370   24.8960 C   0  0  1  0  0  0  0  0  0  0  0  0
  -25.6430  -30.9360   25.9280 C   0  0  0  0  0  1  0  0  0  0  0  0
  -27.3790  -30.0370   24.3760 C   0  0  0  0  0  1  0  0  0  0  0  0
  -27.8310  -32.1190   25.6450 C   0  0  0  0  0  1  0  0  0  0  0  0
  -25.7830  -33.5420   24.1680 N   0  0  0  0  0  0  0  0  0  0  0  0
  -26.0540  -34.6870   23.5320 C   0  0  0  0  0  0  0  0  0  0  0  0
  -26.7240  -34.7310   22.4950 O   0  0  0  0  0  0  0  0  0  0  0  0
  -25.1770  -33.5780   24.9760 H   0  0  0  0  0  0  0  0  0  0  0  0
  -24.2270  -36.4130   23.3760 C   0  0  0  0  0  1  0  0  0  0  0  0
  -25.4960  -35.9930   24.1350 C   0  0  0  0  0  3  0  0  0  0  0  0
  -27.5830  -36.9090   25.0500 C   0  0  0  0  0  1  0  0  0  0  0  0
  -26.4690  -37.1070   24.1270 N   0  0  0  0  0  0  0  0  0  0  0  0
  -26.0120  -37.9840   24.3630 H   0  0  0  0  0  0  0  0  0  0  0  0
  2  4  1  0
  2 49  1  0
  2  1  1  0
  2  3  1  6
  5  4  1  0
  6  5  2  0
  7 13  1  0
  7 20  1  0
  8 13  1  0
  9 10  1  0
  9  8  1  0
 11 10  1  0
 11 24  1  0
 11 12  1  0
 13 12  1  0
 14  7  2  0
 17  5  1  0
 17 20  1  0
 17 19  1  0
 18 16  1  0
 18 15  1  0
 19 18  1  0
 19 15  1  0
 20 16  1  0
 21 22  2  0
 22 41  1  0
 23 26  1  0
 23 22  1  0
 24 25  1  0
 24 21  1  0
 25 23  2  0
 26 27  1  0
 27 28  2  0
 29 32  1  0
 29 28  1  0
 30 29  2  0
 31 30  1  0
 31 26  2  0
 32 33  1  0
 33 38  2  0
 33 34  1  0
 34 35  2  0
 35 36  1  0
 36 40  1  0
 37 36  2  0
 38 37  1  0
 39 38  1  0
 41 42  1  0
 42 44  1  0
 42 45  1  0
 43 41  2  0
 46 21  1  0
 46 47  1  0
 48 46  1  0
 50 51  1  0
 50 49  1  0
 52 63  2  0
 53 51  1  0
 53 58  1  0
 54 62  1  0
 54 64  1  0
 55 61  1  0
 55 57  1  0
 56 62  1  0
 57 56  1  0
 58 57  2  0
 59 60  1  0
 59 53  2  0
 60 55  2  0
 61 54  1  0
 62 52  1  0
 64 66  2  0
 65 64  1  0
 67 65  1  0
 68 77  2  0
 68 73  1  0
 69 65  1  0
 69 73  1  0
 70 69  1  0
 71 72  1  0
 71 70  1  0
 72 68  1  0
 73 74  2  0
 74 75  1  0
 76 75  2  0
 77 76  1  0
 78 52  1  0
 78 83  1  0
 78 79  1  0
 79 82  1  1
 79 80  1  0
 81 79  1  0
 83 86  1  0
 84 88  1  0
 84 83  1  0
 85 84  2  0
 88 87  1  0
 90 88  1  0
 90 91  1  0
 90 89  1  0
M  ISO  4   7 100  20 100  50 101  51 101
M  END
>  <TORSDO>  (32) 
F 20

>  <SCORE>  (32) 
-9.340

>  <name>  (32) 
31

>  <ligand_id>  (32) 
31

>  <original_smiles>  (32) 
[H]c1c([H])c([H])c2c(c1[H])C([H])([H])C([H])([H])C([H])([H])C2([H])N([H])C(=O)C1([H])N(C(=O)C([H])(N([H])C(=O)C([H])(N([H])C([H])([H])[H])C([H])([H])[H])C(C([H])([H])[H])(C([H])([H])[H])C([H])([H])[H])C([H])([H])c2c([H])c(OC([H])([H])C([H])([H])[N+]([H])(C([H])([H])[H])C([H])([H])C(=O)C3([H])N(C(=O)N4C([H])([H])C([H])([H])C([H])([H])C([H])(n5nc(-c6c([H])c([H])c(Oc7c([H])c([H])c(F)c([H])c7F)c([H])c6[H])c(C(=O)N([H])[H])c5N([H])[H])C4([H])[H])C([H])([H])C4([H])C([H])([H])C34[H])c([H])c([H])c2C1([H])[H]

>  <smiles>  (32) 
[H]c1c([H])c([H])c2c(c1[H])C([H])([H])C([H])([H])C([H])([H])C2([H])N([H])C(=O)C1([H])N(C(=O)C([H])(N([H])C(=O)C([H])(N([H])C([H])([H])[H])C([H])([H])[H])C(C([H])([H])[H])(C([H])([H])[H])C([H])([H])[H])C([H])([H])c2c([H])c(OC([H])([H])C([H])([H])[N+]([H])(C([H])([H])[H])C([H])([H])C(=O)C3([H])N(C(=O)N4C([H])([H])C([H])([H])C([H])([H])C([H])(n5nc(-c6c([H])c([H])c(Oc7c([H])c([H])c(F)c([H])c7F)c([H])c6[H])c(C(=O)N([H])[H])c5N([H])[H])C4([H])[H])C([H])([H])C4([H])C([H])([H])C34[H])c([H])c([H])c2C1([H])[H]

$$$$
32:0:0
     RDKit          3D

 90100  0  0  1  0  0  0  0  0999 V2000
  -29.0270  -21.8750   20.5650 N   0  0  0  0  0  4  0  0  0  0  0  0
  -29.8810  -22.0000   21.0860 H   0  0  0  0  0  0  0  0  0  0  0  0
  -28.2990  -21.8890   21.2620 H   0  0  0  0  0  0  0  0  0  0  0  0
  -31.1310  -19.6310   21.1080 C   0  0  0  0  0  2  0  0  0  0  0  0
  -28.6940  -19.3530   21.2600 C   0  0  0  0  0  2  0  0  0  0  0  0
  -30.0490  -18.5900   21.4680 C   0  0  2  0  0  0  0  0  0  0  0  0
  -30.3480  -19.4500   19.7790 C   0  0  2  0  0  0  0  0  0  0  0  0
  -30.6660  -17.8380   20.2360 C   0  0  0  0  0  3  0  0  0  0  0  0
  -29.0010  -20.3320   20.0820 C   0  0  0  0  0  3  0  0  0  0  0  0
  -30.8210  -15.1540   19.7850 C   0  0  0  0  0  0  0  0  0  0  0  0
  -30.6540  -12.7570   18.9410 C   0  0  0  0  0  2  0  0  0  0  0  0
  -29.6560  -12.6210   17.7680 C   0  0  0  0  0  2  0  0  0  0  0  0
  -28.2250  -12.4130   18.2960 C   0  0  0  0  0  2  0  0  0  0  0  0
  -27.8700  -13.3930   19.4440 C   0  0  0  0  0  3  0  0  0  0  0  0
  -28.9870  -13.4930   20.5030 C   0  0  0  0  0  2  0  0  0  0  0  0
  -30.2020  -13.9000   19.7880 N   0  0  0  0  0  0  0  0  0  0  0  0
  -32.0270  -15.1590   19.5120 O   0  0  0  0  0  0  0  0  0  0  0  0
  -30.1000  -16.3940   19.8960 N   0  0  0  0  0  0  0  0  0  0  0  0
  -29.1000  -16.2890   19.9760 H   0  0  0  0  0  0  0  0  0  0  0  0
  -25.5660  -13.9930   20.3760 C   0  0  0  0  0  0  0  0  0  0  0  0
  -24.5140  -13.2280   20.7970 C   0  0  0  0  0  0  0  0  0  0  0  0
  -24.9460  -11.8690   20.6960 C   0  0  0  0  0  0  0  0  0  0  0  0
  -26.5690  -13.1020   20.0360 N   0  0  0  0  0  0  0  0  0  0  0  0
  -26.2120  -11.8170   20.2950 N   0  0  0  0  0  0  0  0  0  0  0  0
  -24.2070  -10.6160   20.8970 C   0  0  0  0  0  0  0  0  0  0  0  0
  -24.6170   -9.6600   21.8510 C   0  0  0  0  0  3  0  0  0  0  0  0
  -23.8750   -8.4740   22.0420 C   0  0  0  0  0  3  0  0  0  0  0  0
  -22.7090   -8.2360   21.2760 C   0  0  0  0  0  0  0  0  0  0  0  0
  -22.3160   -9.1820   20.3120 C   0  0  0  0  0  3  0  0  0  0  0  0
  -23.0590  -10.3580   20.1210 C   0  0  0  0  0  3  0  0  0  0  0  0
  -21.9390   -7.1020   21.3760 O   0  0  0  0  0  0  0  0  0  0  0  0
  -21.7880   -6.4370   22.5660 C   0  0  0  0  0  0  0  0  0  0  0  0
  -21.2260   -7.0600   23.7020 C   0  0  0  0  0  3  0  0  0  0  0  0
  -21.0250   -6.3190   24.8840 C   0  0  0  0  0  3  0  0  0  0  0  0
  -21.3730   -4.9570   24.9290 C   0  0  0  0  0  0  0  0  0  0  0  0
  -21.9260   -4.3330   23.7970 C   0  0  0  0  0  3  0  0  0  0  0  0
  -22.1290   -5.0710   22.6180 C   0  0  0  0  0  0  0  0  0  0  0  0
  -22.6430   -4.4590   21.5230 F   0  0  0  0  0  0  0  0  0  0  0  0
  -21.1720   -4.2430   26.0620 F   0  0  0  0  0  0  0  0  0  0  0  0
  -23.1500  -13.7250   21.1740 C   0  0  0  0  0  0  0  0  0  0  0  0
  -22.4650  -13.0180   22.0660 N   0  0  0  0  0  0  0  0  0  0  0  0
  -22.7040  -14.7750   20.7140 O   0  0  0  0  0  0  0  0  0  0  0  0
  -22.8410  -12.1670   22.4570 H   0  0  0  0  0  0  0  0  0  0  0  0
  -21.5510  -13.3320   22.3620 H   0  0  0  0  0  0  0  0  0  0  0  0
  -25.7460  -15.3650   20.2260 N   0  0  0  0  0  0  0  0  0  0  0  0
  -25.0000  -16.0270   20.4080 H   0  0  0  0  0  0  0  0  0  0  0  0
  -26.5660  -15.7960   19.8210 H   0  0  0  0  0  0  0  0  0  0  0  0
  -28.7690  -23.2430   19.7640 C   0  0  0  0  0  2  0  0  0  0  0  0
  -28.2160  -24.6890   20.5060 C   0  0  0  0  0  2  0  0  0  0  0  0
  -28.3950  -26.2120   20.1260 O   0  0  0  0  0  0  0  0  0  0  0  0
  -24.6880  -31.8930   23.1540 C   0  0  0  0  0  0  0  0  0  0  0  0
  -27.3210  -27.1860   20.1300 C   0  0  0  0  0  0  0  0  0  0  0  0
  -23.5080  -30.4870   21.5080 C   0  0  0  0  0  3  0  0  0  0  0  0
  -24.9780  -28.9240   20.0890 C   0  0  0  0  0  0  0  0  0  0  0  0
  -26.0620  -30.7740   21.3530 C   0  0  0  0  0  2  0  0  0  0  0  0
  -26.1530  -29.3790   20.7010 C   0  0  0  0  0  0  0  0  0  0  0  0
  -27.3270  -28.5300   20.6970 C   0  0  0  0  0  3  0  0  0  0  0  0
  -26.1180  -26.8360   19.4840 C   0  0  0  0  0  3  0  0  0  0  0  0
  -24.9740  -27.6670   19.4630 C   0  0  0  0  0  3  0  0  0  0  0  0
  -23.7430  -29.8130   20.1300 C   0  0  0  0  0  2  0  0  0  0  0  0
  -24.7720  -31.0750   22.0600 N   0  0  0  0  0  0  0  0  0  0  0  0
  -23.5960  -32.1640   23.6790 O   0  0  0  0  0  0  0  0  0  0  0  0
  -22.8370  -29.4730   22.4670 C   0  0  0  0  0  0  0  0  0  0  0  0
  -21.5090  -29.2940   22.3410 N   0  0  0  0  0  0  0  0  0  0  0  0
  -23.5120  -28.8470   23.2880 O   0  0  0  0  0  0  0  0  0  0  0  0
  -21.0190  -29.8500   21.6540 H   0  0  0  0  0  0  0  0  0  0  0  0
  -18.1340  -28.0810   22.8560 C   0  0  0  0  0  0  0  0  0  0  0  0
  -20.6940  -28.3470   23.1080 C   0  0  0  0  0  3  0  0  0  0  0  0
  -20.7940  -26.9210   22.5180 C   0  0  0  0  0  2  0  0  0  0  0  0
  -19.6860  -26.6070   21.5070 C   0  0  0  0  0  2  0  0  0  0  0  0
  -18.3090  -26.7410   22.1630 C   0  0  0  0  0  2  0  0  0  0  0  0
  -19.2540  -28.8430   23.2860 C   0  0  0  0  0  0  0  0  0  0  0  0
  -19.0350  -30.0970   23.8970 C   0  0  0  0  0  3  0  0  0  0  0  0
  -17.7300  -30.5900   24.0820 C   0  0  0  0  0  3  0  0  0  0  0  0
  -16.6240  -29.8260   23.6680 C   0  0  0  0  0  3  0  0  0  0  0  0
  -16.8270  -28.5740   23.0600 C   0  0  0  0  0  3  0  0  0  0  0  0
  -25.9550  -32.5420   23.7890 C   0  0  0  0  0  3  0  0  0  0  0  0
  -26.4790  -31.7650   25.0600 C   0  0  1  0  0  0  0  0  0  0  0  0
  -25.3850  -31.4960   26.1200 C   0  0  0  0  0  1  0  0  0  0  0  0
  -27.0910  -30.4030   24.6600 C   0  0  0  0  0  1  0  0  0  0  0  0
  -27.6110  -32.5740   25.7360 C   0  0  0  0  0  1  0  0  0  0  0  0
  -25.6200  -33.9310   24.1420 N   0  0  0  0  0  0  0  0  0  0  0  0
  -25.9350  -35.0060   23.4050 C   0  0  0  0  0  0  0  0  0  0  0  0
  -26.6030  -34.9310   22.3710 O   0  0  0  0  0  0  0  0  0  0  0  0
  -25.0260  -34.0600   24.9470 H   0  0  0  0  0  0  0  0  0  0  0  0
  -24.1840  -36.7860   23.0860 C   0  0  0  0  0  1  0  0  0  0  0  0
  -25.4300  -36.3780   23.8910 C   0  0  0  0  0  3  0  0  0  0  0  0
  -27.5460  -37.2810   24.7510 C   0  0  0  0  0  1  0  0  0  0  0  0
  -26.4480  -37.4480   23.8020 N   0  0  0  0  0  0  0  0  0  0  0  0
  -26.0290  -38.3600   23.9610 H   0  0  0  0  0  0  0  0  0  0  0  0
  1  2  1  0
  1  3  1  0
  6  5  1  1
  6  4  1  0
  7  9  1  0
  7  8  1  0
  7  4  1  6
  7  6  1  0
  8 18  1  0
  8  6  1  0
  9  1  1  0
  9  5  1  0
 10 16  1  0
 10 18  1  0
 11 16  1  0
 12 13  1  0
 12 11  1  0
 14 13  1  0
 14 23  1  0
 14 15  1  0
 16 15  1  0
 17 10  2  0
 18 19  1  0
 20 21  2  0
 21 40  1  0
 22 21  1  0
 22 25  1  0
 23 24  1  0
 23 20  1  0
 24 22  2  0
 25 26  1  0
 26 27  2  0
 28 31  1  0
 28 27  1  0
 29 28  2  0
 30 29  1  0
 30 25  2  0
 31 32  1  0
 32 37  2  0
 32 33  1  0
 33 34  2  0
 34 35  1  0
 35 39  1  0
 36 35  2  0
 37 36  1  0
 38 37  1  0
 40 41  1  0
 41 44  1  0
 41 43  1  0
 42 40  2  0
 45 20  1  0
 45 46  1  0
 47 45  1  0
 48 49  1  0
 48  1  1  0
 50 52  1  0
 50 49  1  0
 51 62  2  0
 52 57  1  0
 53 61  1  0
 53 63  1  0
 54 60  1  0
 54 56  1  0
 55 61  1  0
 56 55  1  0
 57 56  2  0
 58 52  2  0
 59 58  1  0
 59 54  2  0
 60 53  1  0
 61 51  1  0
 63 65  2  0
 64 63  1  0
 66 64  1  0
 67 76  2  0
 67 72  1  0
 68 64  1  0
 68 72  1  0
 69 68  1  0
 70 71  1  0
 70 69  1  0
 71 67  1  0
 72 73  2  0
 73 74  1  0
 75 74  2  0
 76 75  1  0
 77 51  1  0
 77 82  1  0
 77 78  1  0
 78 81  1  1
 78 79  1  0
 80 78  1  0
 82 85  1  0
 83 87  1  0
 83 82  1  0
 84 83  2  0
 87 86  1  0
 89 87  1  0
 89 90  1  0
 89 88  1  0
M  ISO  4  10 100  18 100  49 101  50 101
M  END
>  <TORSDO>  (33) 
F 19

>  <SCORE>  (33) 
-13.891

>  <name>  (33) 
32

>  <ligand_id>  (33) 
32

>  <original_smiles>  (33) 
[H]c1c([H])c([H])c2c(c1[H])C([H])([H])C([H])([H])C([H])([H])C2([H])N([H])C(=O)C1([H])N(C(=O)C([H])(N([H])C(=O)C([H])(N([H])C([H])([H])[H])C([H])([H])[H])C(C([H])([H])[H])(C([H])([H])[H])C([H])([H])[H])C([H])([H])c2c([H])c(OC([H])([H])C([H])([H])[N+]([H])([H])C3([H])C([H])([H])C4([H])C([H])([H])C3([H])C4([H])N([H])C(=O)N3C([H])([H])C([H])([H])C([H])([H])C([H])(n4nc(-c5c([H])c([H])c(Oc6c([H])c([H])c(F)c([H])c6F)c([H])c5[H])c(C(=O)N([H])[H])c4N([H])[H])C3([H])[H])c([H])c([H])c2C1([H])[H]

>  <smiles>  (33) 
[H]c1c([H])c([H])c2c(c1[H])C([H])([H])C([H])([H])C([H])([H])C2([H])N([H])C(=O)C1([H])N(C(=O)C([H])(N([H])C(=O)C([H])(N([H])C([H])([H])[H])C([H])([H])[H])C(C([H])([H])[H])(C([H])([H])[H])C([H])([H])[H])C([H])([H])c2c([H])c(OC([H])([H])C([H])([H])[N+]([H])([H])C3([H])C([H])([H])C4([H])C([H])([H])C3([H])C4([H])N([H])C(=O)N3C([H])([H])C([H])([H])C([H])([H])C([H])(n4nc(-c5c([H])c([H])c(Oc6c([H])c([H])c(F)c([H])c6F)c([H])c5[H])c(C(=O)N([H])[H])c4N([H])[H])C3([H])[H])c([H])c([H])c2C1([H])[H]

$$$$
33:0:0
     RDKit          3D

 93101  0  0  1  0  0  0  0  0999 V2000
  -29.0260  -20.5170   19.8460 N   0  0  0  0  0  4  0  0  0  0  0  0
  -29.1960  -20.4310   18.8580 H   0  0  0  0  0  0  0  0  0  0  0  0
  -28.0380  -20.3590   19.9550 H   0  0  0  0  0  0  0  0  0  0  0  0
  -29.2750  -22.0580   20.1830 C   0  0  0  0  0  2  0  0  0  0  0  0
  -28.1180  -23.3040   20.1080 C   0  0  0  0  0  2  0  0  0  0  0  0
  -28.2500  -24.8560   19.4360 C   0  0  0  0  0  2  0  0  0  0  0  0
  -28.1260  -26.2990   20.0120 O   0  0  0  0  0  0  0  0  0  0  0  0
  -24.5690  -31.8950   23.1330 C   0  0  0  0  0  0  0  0  0  0  0  0
  -27.0410  -27.2410   19.9310 C   0  0  0  0  0  0  0  0  0  0  0  0
  -23.3090  -30.5260   21.5140 C   0  0  0  0  0  3  0  0  0  0  0  0
  -24.7030  -28.9730   20.0050 C   0  0  0  0  0  0  0  0  0  0  0  0
  -25.8510  -30.7980   21.2590 C   0  0  0  0  0  2  0  0  0  0  0  0
  -25.8980  -29.4170   20.5830 C   0  0  0  0  0  0  0  0  0  0  0  0
  -27.0600  -28.5630   20.5340 C   0  0  0  0  0  3  0  0  0  0  0  0
  -25.8210  -26.8930   19.3140 C   0  0  0  0  0  3  0  0  0  0  0  0
  -24.6780  -27.7260   19.3540 C   0  0  0  0  0  3  0  0  0  0  0  0
  -23.4760  -29.8660   20.1170 C   0  0  0  0  0  2  0  0  0  0  0  0
  -24.5990  -31.0960   22.0240 N   0  0  0  0  0  0  0  0  0  0  0  0
  -23.5040  -32.1700   23.7080 O   0  0  0  0  0  0  0  0  0  0  0  0
  -22.6650  -29.5070   22.4870 C   0  0  0  0  0  0  0  0  0  0  0  0
  -21.3350  -29.3280   22.3960 N   0  0  0  0  0  0  0  0  0  0  0  0
  -23.3650  -28.8780   23.2860 O   0  0  0  0  0  0  0  0  0  0  0  0
  -20.8260  -29.8870   21.7260 H   0  0  0  0  0  0  0  0  0  0  0  0
  -17.9860  -28.0640   22.9470 C   0  0  0  0  0  0  0  0  0  0  0  0
  -20.5420  -28.3760   23.1790 C   0  0  0  0  0  3  0  0  0  0  0  0
  -20.6640  -26.9460   22.6050 C   0  0  0  0  0  2  0  0  0  0  0  0
  -19.5550  -26.6010   21.6060 C   0  0  0  0  0  2  0  0  0  0  0  0
  -18.1790  -26.7200   22.2670 C   0  0  0  0  0  2  0  0  0  0  0  0
  -19.0950  -28.8490   23.3600 C   0  0  0  0  0  0  0  0  0  0  0  0
  -18.8590  -30.1060   23.9580 C   0  0  0  0  0  3  0  0  0  0  0  0
  -17.5470  -30.5800   24.1440 C   0  0  0  0  0  3  0  0  0  0  0  0
  -16.4520  -29.7940   23.7450 C   0  0  0  0  0  3  0  0  0  0  0  0
  -16.6730  -28.5370   23.1530 C   0  0  0  0  0  3  0  0  0  0  0  0
  -25.8700  -32.5210   23.7250 C   0  0  0  0  0  3  0  0  0  0  0  0
  -25.5730  -33.9130   24.0970 N   0  0  0  0  0  0  0  0  0  0  0  0
  -25.9010  -34.9880   23.3660 C   0  0  0  0  0  0  0  0  0  0  0  0
  -26.5520  -34.9090   22.3220 O   0  0  0  0  0  0  0  0  0  0  0  0
  -24.9940  -34.0470   24.9130 H   0  0  0  0  0  0  0  0  0  0  0  0
  -24.1840  -36.8070   23.0910 C   0  0  0  0  0  1  0  0  0  0  0  0
  -25.4330  -36.3670   23.8730 C   0  0  0  0  0  3  0  0  0  0  0  0
  -27.5860  -37.2100   24.7010 C   0  0  0  0  0  1  0  0  0  0  0  0
  -26.4720  -37.4150   23.7760 N   0  0  0  0  0  0  0  0  0  0  0  0
  -26.0770  -38.3330   23.9550 H   0  0  0  0  0  0  0  0  0  0  0  0
  -26.4280  -31.7290   24.9720 C   0  0  1  0  0  0  0  0  0  0  0  0
  -25.3720  -31.4810   26.0760 C   0  0  0  0  0  1  0  0  0  0  0  0
  -26.9920  -30.3550   24.5440 C   0  0  0  0  0  1  0  0  0  0  0  0
  -27.6040  -32.5100   25.6050 C   0  0  0  0  0  1  0  0  0  0  0  0
  -29.7060  -19.2370   20.5180 C   0  0  0  0  0  3  0  0  0  0  0  0
  -33.3610  -20.3820   22.5870 C   0  0  0  0  0  3  0  0  0  0  0  0
  -32.1710  -20.1880   23.3130 C   0  0  0  0  0  3  0  0  0  0  0  0
  -33.3680  -20.2020   21.1900 C   0  0  0  0  0  3  0  0  0  0  0  0
  -30.9890  -19.8150   22.6440 C   0  0  0  0  0  3  0  0  0  0  0  0
  -32.1870  -19.8260   20.5200 C   0  0  0  0  0  3  0  0  0  0  0  0
  -30.9890  -19.6300   21.2430 C   0  0  0  0  0  0  0  0  0  0  0  0
  -29.9120  -17.7550   19.7150 C   0  0  0  0  0  2  0  0  0  0  0  0
  -30.7020  -15.1390   20.2020 C   0  0  0  0  0  0  0  0  0  0  0  0
  -30.6280  -12.7420   19.3890 C   0  0  0  0  0  2  0  0  0  0  0  0
  -29.7050  -12.6480   18.1510 C   0  0  0  0  0  2  0  0  0  0  0  0
  -28.2400  -12.4390   18.5810 C   0  0  0  0  0  2  0  0  0  0  0  0
  -27.8200  -13.4010   19.7230 C   0  0  0  0  0  3  0  0  0  0  0  0
  -28.8680  -13.4630   20.8570 C   0  0  0  0  0  2  0  0  0  0  0  0
  -30.1410  -13.8620   20.2460 N   0  0  0  0  0  0  0  0  0  0  0  0
  -31.8780  -15.2260   19.8370 O   0  0  0  0  0  0  0  0  0  0  0  0
  -29.8920  -16.3000   20.3540 N   0  0  0  0  0  0  0  0  0  0  0  0
  -28.9960  -16.0730   20.7590 H   0  0  0  0  0  0  0  0  0  0  0  0
  -25.4450  -13.9880   20.4760 C   0  0  0  0  0  0  0  0  0  0  0  0
  -24.3790  -13.2160   20.8480 C   0  0  0  0  0  0  0  0  0  0  0  0
  -24.8360  -11.8630   20.8050 C   0  0  0  0  0  0  0  0  0  0  0  0
  -26.4820  -13.1060   20.2240 N   0  0  0  0  0  0  0  0  0  0  0  0
  -26.1250  -11.8220   20.4860 N   0  0  0  0  0  0  0  0  0  0  0  0
  -24.1030  -10.6040   20.9910 C   0  0  0  0  0  0  0  0  0  0  0  0
  -24.5240   -9.6350   21.9280 C   0  0  0  0  0  3  0  0  0  0  0  0
  -23.7900   -8.4420   22.1030 C   0  0  0  0  0  3  0  0  0  0  0  0
  -22.6210   -8.2080   21.3400 C   0  0  0  0  0  0  0  0  0  0  0  0
  -22.2200   -9.1660   20.3910 C   0  0  0  0  0  3  0  0  0  0  0  0
  -22.9540  -10.3510   20.2150 C   0  0  0  0  0  3  0  0  0  0  0  0
  -21.8590   -7.0680   21.4230 O   0  0  0  0  0  0  0  0  0  0  0  0
  -21.7810   -6.3380   22.5820 C   0  0  0  0  0  0  0  0  0  0  0  0
  -21.3200   -6.9050   23.7910 C   0  0  0  0  0  3  0  0  0  0  0  0
  -21.1900   -6.1010   24.9410 C   0  0  0  0  0  3  0  0  0  0  0  0
  -21.5110   -4.7320   24.8830 C   0  0  0  0  0  0  0  0  0  0  0  0
  -21.9660   -4.1640   23.6800 C   0  0  0  0  0  3  0  0  0  0  0  0
  -22.0970   -4.9650   22.5320 C   0  0  0  0  0  0  0  0  0  0  0  0
  -22.5150   -4.4090   21.3700 F   0  0  0  0  0  0  0  0  0  0  0  0
  -21.3800   -3.9570   25.9860 F   0  0  0  0  0  0  0  0  0  0  0  0
  -22.9860  -13.6990   21.1290 C   0  0  0  0  0  0  0  0  0  0  0  0
  -22.2650  -13.0140   22.0080 N   0  0  0  0  0  0  0  0  0  0  0  0
  -22.5470  -14.7220   20.6030 O   0  0  0  0  0  0  0  0  0  0  0  0
  -22.6320  -12.1870   22.4550 H   0  0  0  0  0  0  0  0  0  0  0  0
  -21.3310  -13.3230   22.2400 H   0  0  0  0  0  0  0  0  0  0  0  0
  -25.6140  -15.3590   20.3070 N   0  0  0  0  0  0  0  0  0  0  0  0
  -24.8450  -16.0110   20.4210 H   0  0  0  0  0  0  0  0  0  0  0  0
  -26.4490  -15.7930   19.9370 H   0  0  0  0  0  0  0  0  0  0  0  0
  1  3  1  0
  1  4  1  0
  1 48  1  0
  2  1  1  0
  5  4  1  0
  6  7  1  0
  6  5  1  0
  8 19  2  0
  9  7  1  0
  9 14  1  0
 10 18  1  0
 10 20  1  0
 11 17  1  0
 11 13  1  0
 12 18  1  0
 13 12  1  0
 14 13  2  0
 15 16  1  0
 15  9  2  0
 16 11  2  0
 17 10  1  0
 18  8  1  0
 20 22  2  0
 21 20  1  0
 23 21  1  0
 24 33  2  0
 24 29  1  0
 25 21  1  0
 25 29  1  0
 26 25  1  0
 27 28  1  0
 27 26  1  0
 28 24  1  0
 29 30  2  0
 30 31  1  0
 32 31  2  0
 33 32  1  0
 34  8  1  0
 34 35  1  0
 34 44  1  0
 35 38  1  0
 36 40  1  0
 36 35  1  0
 37 36  2  0
 40 39  1  0
 42 40  1  0
 42 43  1  0
 42 41  1  0
 44 47  1  1
 44 45  1  0
 46 44  1  0
 48 55  1  0
 48 54  1  0
 49 50  1  0
 51 49  2  0
 52 50  2  0
 53 51  1  0
 53 54  2  0
 54 52  1  0
 55 64  1  0
 56 62  1  0
 56 64  1  0
 57 62  1  0
 58 59  1  0
 58 57  1  0
 60 59  1  0
 60 69  1  0
 60 61  1  0
 62 61  1  0
 63 56  2  0
 64 65  1  0
 66 67  2  0
 67 86  1  0
 68 67  1  0
 68 71  1  0
 69 66  1  0
 69 70  1  0
 70 68  2  0
 71 72  1  0
 72 73  2  0
 74 77  1  0
 74 73  1  0
 75 74  2  0
 76 75  1  0
 76 71  2  0
 77 78  1  0
 78 79  1  0
 79 80  2  0
 81 80  1  0
 81 85  1  0
 82 81  2  0
 83 78  2  0
 83 82  1  0
 84 83  1  0
 86 87  1  0
 87 90  1  0
 87 89  1  0
 88 86  2  0
 91 92  1  0
 91 66  1  0
 93 91  1  0
M  ISO  4   6 101   7 101  56 100  64 100
M  END
>  <TORSDO>  (34) 
F 22

>  <SCORE>  (34) 
-15.013

>  <name>  (34) 
33

>  <ligand_id>  (34) 
33

>  <original_smiles>  (34) 
[H]c1c([H])c([H])c(C([H])(C([H])([H])N([H])C(=O)N2C([H])([H])C([H])([H])C([H])([H])C([H])(n3nc(-c4c([H])c([H])c(Oc5c([H])c([H])c(F)c([H])c5F)c([H])c4[H])c(C(=O)N([H])[H])c3N([H])[H])C2([H])[H])[N+]([H])([H])C([H])([H])C([H])([H])C([H])([H])Oc2c([H])c([H])c3c(c2[H])C([H])([H])N(C(=O)C([H])(N([H])C(=O)C([H])(N([H])C([H])([H])[H])C([H])([H])[H])C(C([H])([H])[H])(C([H])([H])[H])C([H])([H])[H])C([H])(C(=O)N([H])C2([H])c4c([H])c([H])c([H])c([H])c4C([H])([H])C([H])([H])C2([H])[H])C3([H])[H])c([H])c1[H]

>  <smiles>  (34) 
[H]c1c([H])c([H])c(C([H])(C([H])([H])N([H])C(=O)N2C([H])([H])C([H])([H])C([H])([H])C([H])(n3nc(-c4c([H])c([H])c(Oc5c([H])c([H])c(F)c([H])c5F)c([H])c4[H])c(C(=O)N([H])[H])c3N([H])[H])C2([H])[H])[N+]([H])([H])C([H])([H])C([H])([H])C([H])([H])Oc2c([H])c([H])c3c(c2[H])C([H])([H])N(C(=O)C([H])(N([H])C(=O)C([H])(N([H])C([H])([H])[H])C([H])([H])[H])C(C([H])([H])[H])(C([H])([H])[H])C([H])([H])[H])C([H])(C(=O)N([H])C2([H])c4c([H])c([H])c([H])c([H])c4C([H])([H])C([H])([H])C2([H])[H])C3([H])[H])c([H])c1[H]

$$$$
34:0:0
     RDKit          3D

 89 96  0  0  1  0  0  0  0  0999 V2000
  -29.2220  -21.1140   19.5620 N   0  0  0  0  0  4  0  0  0  0  0  0
  -30.2130  -21.1310   19.7420 H   0  0  0  0  0  0  0  0  0  0  0  0
  -29.1550  -21.2700   18.5700 H   0  0  0  0  0  0  0  0  0  0  0  0
  -28.6250  -22.5200   20.2860 C   0  0  0  0  0  2  0  0  0  0  0  0
  -28.4190  -24.2300   19.6840 C   0  0  0  0  0  2  0  0  0  0  0  0
  -28.3110  -25.7710   20.3290 O   0  0  0  0  0  0  0  0  0  0  0  0
  -24.6260  -31.6940   23.2330 C   0  0  0  0  0  0  0  0  0  0  0  0
  -27.3050  -26.8760   20.1960 C   0  0  0  0  0  0  0  0  0  0  0  0
  -23.4970  -30.3340   21.5180 C   0  0  0  0  0  3  0  0  0  0  0  0
  -25.0040  -28.7680   20.1050 C   0  0  0  0  0  0  0  0  0  0  0  0
  -26.0660  -30.5510   21.4720 C   0  0  0  0  0  2  0  0  0  0  0  0
  -26.1650  -29.1550   20.7850 C   0  0  0  0  0  0  0  0  0  0  0  0
  -27.3040  -28.2290   20.8110 C   0  0  0  0  0  3  0  0  0  0  0  0
  -26.1200  -26.6540   19.4570 C   0  0  0  0  0  3  0  0  0  0  0  0
  -25.0090  -27.5400   19.4210 C   0  0  0  0  0  3  0  0  0  0  0  0
  -23.7810  -29.6860   20.1330 C   0  0  0  0  0  2  0  0  0  0  0  0
  -24.7500  -30.8870   22.1280 N   0  0  0  0  0  0  0  0  0  0  0  0
  -23.5180  -31.9680   23.7220 O   0  0  0  0  0  0  0  0  0  0  0  0
  -22.7730  -29.3140   22.4350 C   0  0  0  0  0  0  0  0  0  0  0  0
  -21.4470  -29.1530   22.2650 N   0  0  0  0  0  0  0  0  0  0  0  0
  -23.4120  -28.6680   23.2690 O   0  0  0  0  0  0  0  0  0  0  0  0
  -20.9830  -29.7260   21.5730 H   0  0  0  0  0  0  0  0  0  0  0  0
  -18.0470  -27.9510   22.6640 C   0  0  0  0  0  0  0  0  0  0  0  0
  -20.6030  -28.1940   22.9870 C   0  0  0  0  0  3  0  0  0  0  0  0
  -20.7080  -26.7820   22.3650 C   0  0  0  0  0  2  0  0  0  0  0  0
  -19.6260  -26.5040   21.3180 C   0  0  0  0  0  2  0  0  0  0  0  0
  -18.2320  -26.6280   21.9400 C   0  0  0  0  0  2  0  0  0  0  0  0
  -19.1600  -28.6940   23.1420 C   0  0  0  0  0  0  0  0  0  0  0  0
  -18.9310  -29.9310   23.7810 C   0  0  0  0  0  3  0  0  0  0  0  0
  -17.6230  -30.4260   23.9470 C   0  0  0  0  0  3  0  0  0  0  0  0
  -16.5260  -29.6820   23.4820 C   0  0  0  0  0  3  0  0  0  0  0  0
  -16.7390  -28.4450   22.8460 C   0  0  0  0  0  3  0  0  0  0  0  0
  -25.8720  -32.3270   23.9250 C   0  0  0  0  0  3  0  0  0  0  0  0
  -26.2870  -31.5790   25.2540 C   0  0  1  0  0  0  0  0  0  0  0  0
  -25.1200  -31.3830   26.2500 C   0  0  0  0  0  1  0  0  0  0  0  0
  -26.8770  -30.1860   24.9440 C   0  0  0  0  0  1  0  0  0  0  0  0
  -27.4010  -32.3740   25.9730 C   0  0  0  0  0  1  0  0  0  0  0  0
  -25.5620  -33.7380   24.2170 N   0  0  0  0  0  0  0  0  0  0  0  0
  -25.9340  -34.7790   23.4610 C   0  0  0  0  0  0  0  0  0  0  0  0
  -26.6380  -34.6510   22.4540 O   0  0  0  0  0  0  0  0  0  0  0  0
  -24.9420  -33.9120   24.9940 H   0  0  0  0  0  0  0  0  0  0  0  0
  -24.2380  -36.5920   23.0410 C   0  0  0  0  0  1  0  0  0  0  0  0
  -25.4560  -36.1830   23.8840 C   0  0  0  0  0  3  0  0  0  0  0  0
  -27.5760  -37.0710   24.7530 C   0  0  0  0  0  1  0  0  0  0  0  0
  -26.5040  -37.2230   23.7740 N   0  0  0  0  0  0  0  0  0  0  0  0
  -26.1040  -38.1520   23.8820 H   0  0  0  0  0  0  0  0  0  0  0  0
  -28.7960  -19.4950   19.7650 C   0  0  0  0  0  3  0  0  0  0  0  0
  -30.3920  -15.3430   19.9130 C   0  0  0  0  0  0  0  0  0  0  0  0
  -30.4760  -12.7900   19.3900 C   0  0  0  0  0  2  0  0  0  0  0  0
  -29.5750  -12.3720   18.1990 C   0  0  0  0  0  2  0  0  0  0  0  0
  -28.1410  -12.0930   18.6770 C   0  0  0  0  0  2  0  0  0  0  0  0
  -27.6440  -13.1820   19.6590 C   0  0  0  0  0  3  0  0  0  0  0  0
  -28.6750  -13.5380   20.7520 C   0  0  0  0  0  2  0  0  0  0  0  0
  -29.8850  -14.0130   20.0620 N   0  0  0  0  0  0  0  0  0  0  0  0
  -31.6010  -15.3310   19.6350 O   0  0  0  0  0  0  0  0  0  0  0  0
  -29.7720  -18.0350   19.5140 C   0  0  0  0  0  0  0  0  0  0  0  0
  -29.5850  -16.6070   19.9250 N   0  0  0  0  0  0  0  0  0  0  0  0
  -30.8030  -18.2810   18.8850 O   0  0  0  0  0  0  0  0  0  0  0  0
  -28.6680  -16.4540   20.3110 H   0  0  0  0  0  0  0  0  0  0  0  0
  -25.3210  -13.7700   20.5200 C   0  0  0  0  0  0  0  0  0  0  0  0
  -24.2550  -13.0070   20.9080 C   0  0  0  0  0  0  0  0  0  0  0  0
  -24.6890  -11.6480   20.8260 C   0  0  0  0  0  0  0  0  0  0  0  0
  -26.3310  -12.8780   20.2110 N   0  0  0  0  0  0  0  0  0  0  0  0
  -25.9670  -11.5930   20.4650 N   0  0  0  0  0  0  0  0  0  0  0  0
  -23.9400  -10.3980   21.0130 C   0  0  0  0  0  0  0  0  0  0  0  0
  -24.3680   -9.4090   21.9250 C   0  0  0  0  0  3  0  0  0  0  0  0
  -23.6180   -8.2250   22.1020 C   0  0  0  0  0  3  0  0  0  0  0  0
  -22.4250   -8.0230   21.3680 C   0  0  0  0  0  0  0  0  0  0  0  0
  -22.0170   -9.0010   20.4430 C   0  0  0  0  0  3  0  0  0  0  0  0
  -22.7670  -10.1760   20.2640 C   0  0  0  0  0  3  0  0  0  0  0  0
  -21.6470   -6.8940   21.4550 O   0  0  0  0  0  0  0  0  0  0  0  0
  -21.5700   -6.1600   22.6100 C   0  0  0  0  0  0  0  0  0  0  0  0
  -21.1100   -6.7210   23.8220 C   0  0  0  0  0  3  0  0  0  0  0  0
  -20.9810   -5.9130   24.9680 C   0  0  0  0  0  3  0  0  0  0  0  0
  -21.3020   -4.5440   24.9060 C   0  0  0  0  0  0  0  0  0  0  0  0
  -21.7540   -3.9820   23.6990 C   0  0  0  0  0  3  0  0  0  0  0  0
  -21.8860   -4.7870   22.5550 C   0  0  0  0  0  0  0  0  0  0  0  0
  -22.3020   -4.2350   21.3890 F   0  0  0  0  0  0  0  0  0  0  0  0
  -21.1710   -3.7660   26.0060 F   0  0  0  0  0  0  0  0  0  0  0  0
  -22.8810  -13.5090   21.2380 C   0  0  0  0  0  0  0  0  0  0  0  0
  -22.1800  -12.8260   22.1340 N   0  0  0  0  0  0  0  0  0  0  0  0
  -22.4410  -14.5420   20.7350 O   0  0  0  0  0  0  0  0  0  0  0  0
  -22.5530  -11.9900   22.5590 H   0  0  0  0  0  0  0  0  0  0  0  0
  -21.2570  -13.1420   22.4010 H   0  0  0  0  0  0  0  0  0  0  0  0
  -25.5130  -15.1410   20.3730 N   0  0  0  0  0  0  0  0  0  0  0  0
  -24.7650  -15.8090   20.5180 H   0  0  0  0  0  0  0  0  0  0  0  0
  -26.3510  -15.5590   19.9950 H   0  0  0  0  0  0  0  0  0  0  0  0
  -26.4940  -18.2830   19.8270 C   0  0  0  0  0  1  0  0  0  0  0  0
  -27.4180  -19.2680   19.0880 C   0  0  0  0  0  2  0  0  0  0  0  0
  1  2  1  0
  1 47  1  0
  1  4  1  0
  3  1  1  0
  5  4  1  0
  5  6  1  0
  7 18  2  0
  8  6  1  0
  8 13  1  0
  9 17  1  0
  9 19  1  0
 10 16  1  0
 10 12  1  0
 11 17  1  0
 12 13  2  0
 12 11  1  0
 14  8  2  0
 15 14  1  0
 15 10  2  0
 16  9  1  0
 17  7  1  0
 19 21  2  0
 20 19  1  0
 22 20  1  0
 23 32  2  0
 23 28  1  0
 24 20  1  0
 24 28  1  0
 25 24  1  0
 26 27  1  0
 26 25  1  0
 27 23  1  0
 28 29  2  0
 29 30  1  0
 31 30  2  0
 32 31  1  0
 33  7  1  0
 33 38  1  0
 33 34  1  0
 34 37  1  1
 34 35  1  0
 36 34  1  0
 38 41  1  0
 39 43  1  0
 39 38  1  0
 40 39  2  0
 43 42  1  0
 45 46  1  0
 45 43  1  0
 45 44  1  0
 47 89  1  0
 48 57  1  0
 48 54  1  0
 49 54  1  0
 50 51  1  0
 50 49  1  0
 52 51  1  0
 52 63  1  0
 52 53  1  0
 54 53  1  0
 55 48  2  0
 56 47  1  0
 56 57  1  0
 57 59  1  0
 58 56  2  0
 60 61  2  0
 61 80  1  0
 62 61  1  0
 62 65  1  0
 63 64  1  0
 63 60  1  0
 64 62  2  0
 65 66  1  0
 66 67  2  0
 68 71  1  0
 68 67  1  0
 69 68  2  0
 70 69  1  0
 70 65  2  0
 71 72  1  0
 72 73  1  0
 73 74  2  0
 75 74  1  0
 75 79  1  0
 76 75  2  0
 77 72  2  0
 77 76  1  0
 78 77  1  0
 80 81  1  0
 81 84  1  0
 81 83  1  0
 82 80  2  0
 85 86  1  0
 85 60  1  0
 87 85  1  0
 89 88  1  0
M  ISO  4   5 101   6 101  48 100  57 100
M  END
>  <TORSDO>  (35) 
F 20

>  <SCORE>  (35) 
-15.828

>  <name>  (35) 
34

>  <ligand_id>  (35) 
34

>  <original_smiles>  (35) 
[H]c1c([H])c([H])c2c(c1[H])C([H])([H])C([H])([H])C([H])([H])C2([H])N([H])C(=O)C1([H])N(C(=O)C([H])(N([H])C(=O)C([H])(N([H])C([H])([H])[H])C([H])([H])[H])C(C([H])([H])[H])(C([H])([H])[H])C([H])([H])[H])C([H])([H])c2c([H])c(OC([H])([H])C([H])([H])[N+]([H])([H])C([H])(C(=O)N([H])C(=O)N3C([H])([H])C([H])([H])C([H])([H])C([H])(n4nc(-c5c([H])c([H])c(Oc6c([H])c([H])c(F)c([H])c6F)c([H])c5[H])c(C(=O)N([H])[H])c4N([H])[H])C3([H])[H])C([H])([H])C([H])([H])[H])c([H])c([H])c2C1([H])[H]

>  <smiles>  (35) 
[H]c1c([H])c([H])c2c(c1[H])C([H])([H])C([H])([H])C([H])([H])C2([H])N([H])C(=O)C1([H])N(C(=O)C([H])(N([H])C(=O)C([H])(N([H])C([H])([H])[H])C([H])([H])[H])C(C([H])([H])[H])(C([H])([H])[H])C([H])([H])[H])C([H])([H])c2c([H])c(OC([H])([H])C([H])([H])[N+]([H])([H])C([H])(C(=O)N([H])C(=O)N3C([H])([H])C([H])([H])C([H])([H])C([H])(n4nc(-c5c([H])c([H])c(Oc6c([H])c([H])c(F)c([H])c6F)c([H])c5[H])c(C(=O)N([H])[H])c4N([H])[H])C3([H])[H])C([H])([H])C([H])([H])[H])c([H])c([H])c2C1([H])[H]

$$$$
35:0:0
     RDKit          3D

 99102  0  0  1  0  0  0  0  0999 V2000
  -24.9120  -26.1640   21.3710 C   0  0  0  0  0  0  0  0  0  0  0  0
  -25.9740  -25.1010   21.2670 N   0  0  0  0  0  0  0  0  0  0  0  0
  -23.8080  -25.6200   21.4080 O   0  0  0  0  0  0  0  0  0  0  0  0
  -26.8070  -25.6540   21.1290 H   0  0  0  0  0  0  0  0  0  0  0  0
  -24.2670  -30.3080   19.9810 C   0  0  0  0  0  3  0  0  0  0  0  0
  -24.8900  -30.7890   20.3020 C   0  0  0  0  0  3  0  0  0  0  0  0
  -25.1600  -28.1080   23.0020 C   0  0  0  0  0  2  0  0  0  0  0  0
  -24.8470  -28.0490   21.5960 C   0  0  0  0  0  3  0  0  0  0  0  0
  -25.8030  -28.7590   21.8860 C   0  0  0  0  0  3  0  0  0  0  0  0
  -27.3380  -27.7530   21.9610 C   0  0  0  0  0  2  0  0  0  0  0  0
  -27.9440  -26.9150   20.8540 O   0  0  0  0  0  0  0  0  0  0  0  0
  -24.7440  -31.8210   23.4110 C   0  0  0  0  0  0  0  0  0  0  0  0
  -27.7050  -27.3600   19.5770 C   0  0  0  0  0  3  0  0  0  0  0  0
  -23.3420  -29.8840   22.0160 C   0  0  0  0  0  1  0  0  0  0  0  0
  -25.1680  -28.3560   19.3040 C   0  0  0  0  0  2  0  0  0  0  0  0
  -26.7430  -30.7610   21.4500 C   0  0  0  0  0 15  0  0  0  0  0  0
  -26.5920  -29.3430   19.7590 C   0  0  0  0  0  2  0  0  0  0  0  0
  -27.7520  -28.7290   19.5220 C   0  0  0  0  0  2  0  0  0  0  0  0
  -26.6830  -26.6890   18.9260 C   0  0  0  0  0  2  0  0  0  0  0  0
  -25.3920  -27.2050   18.6930 C   0  0  0  0  0  2  0  0  0  0  0  0
  -23.1580  -28.4550   20.1780 C   0  0  0  0  0 15  0  0  0  0  0  0
  -24.9810  -30.8620   22.5440 N   0  0  0  0  0  1  0  0  0  0  0  0
  -23.5940  -32.1070   23.7740 O   0  0  0  0  0  0  0  0  0  0  0  0
  -22.3980  -29.3860   22.9830 C   0  0  0  0  0  0  0  0  0  0  0  0
  -21.2290  -29.3790   22.4240 N   0  0  0  0  0  0  0  0  0  0  0  0
  -22.6930  -28.6960   23.9290 O   0  0  0  0  0  0  0  0  0  0  0  0
  -21.1940  -29.8880   21.5360 H   0  0  0  0  0  0  0  0  0  0  0  0
  -17.8600  -28.0880   22.8260 C   0  0  0  0  0  0  0  0  0  0  0  0
  -20.2590  -28.4090   22.6730 C   0  0  0  0  0  3  0  0  0  0  0  0
  -20.5390  -26.9150   22.5570 C   0  0  0  0  0  2  0  0  0  0  0  0
  -19.4610  -26.3710   21.6180 C   0  0  0  0  0  2  0  0  0  0  0  0
  -18.0310  -26.7060   22.1360 C   0  0  0  0  0  2  0  0  0  0  0  0
  -18.9670  -28.8630   23.2210 C   0  0  0  0  0  0  0  0  0  0  0  0
  -18.8590  -30.1140   23.8700 C   0  0  0  0  0  3  0  0  0  0  0  0
  -17.5770  -30.6270   24.0930 C   0  0  0  0  0  3  0  0  0  0  0  0
  -16.4460  -29.8960   23.6820 C   0  0  0  0  0  3  0  0  0  0  0  0
  -16.5960  -28.6350   23.0640 C   0  0  0  0  0  3  0  0  0  0  0  0
  -25.9900  -32.5000   23.9660 C   0  0  0  0  0  3  0  0  0  0  0  0
  -25.6110  -33.8870   24.2850 N   0  0  0  0  0  0  0  0  0  0  0  0
  -25.8980  -34.9480   23.5300 C   0  0  0  0  0  0  0  0  0  0  0  0
  -26.5460  -34.8810   22.4850 O   0  0  0  0  0  0  0  0  0  0  0  0
  -25.0400  -34.0340   25.1020 H   0  0  0  0  0  0  0  0  0  0  0  0
  -24.1500  -36.7370   23.2540 C   0  0  0  0  0  1  0  0  0  0  0  0
  -25.4030  -36.3230   24.0350 C   0  0  0  0  0  3  0  0  0  0  0  0
  -27.5580  -37.1840   24.8460 C   0  0  0  0  0  1  0  0  0  0  0  0
  -26.4310  -37.3840   23.9370 N   0  0  0  0  0  0  0  0  0  0  0  0
  -26.0220  -38.2940   24.1290 H   0  0  0  0  0  0  0  0  0  0  0  0
  -26.5240  -31.7130   25.2240 C   0  0  1  0  0  0  0  0  0  0  0  0
  -25.4330  -31.4300   26.2830 C   0  0  0  0  0  1  0  0  0  0  0  0
  -27.1970  -30.3550   24.9050 C   0  0  0  0  0  1  0  0  0  0  0  0
  -27.6560  -32.5320   25.8590 C   0  0  0  0  0  1  0  0  0  0  0  0
  -26.4340  -23.5030   21.6170 C   0  0  0  0  0  2  0  0  0  0  0  0
  -25.4960  -21.3030   20.2990 C   0  0  0  0  0  3  0  0  0  0  0  0
  -26.4630  -18.9940   20.0090 C   0  0  0  0  0  3  0  0  0  0  0  0
  -27.6330  -20.6850   21.2390 C   0  0  0  0  0  3  0  0  0  0  0  0
  -25.4060  -19.9390   19.8860 C   0  0  0  0  0  0  0  0  0  0  0  0
  -26.6190  -21.8430   20.9760 C   0  0  0  0  0  0  0  0  0  0  0  0
  -27.6550  -19.2060   20.7420 C   0  0  0  0  0  0  0  0  0  0  0  0
  -24.0730  -19.4010   19.3990 C   0  0  0  0  0  1  0  0  0  0  0  0
  -28.7060  -17.5770   22.6280 C   0  0  0  0  0  1  0  0  0  0  0  0
  -28.5090  -17.6820   21.1230 C   0  0  0  0  0  0  0  0  0  0  0  0
  -30.2560  -15.2610   20.4740 C   0  0  0  0  0  0  0  0  0  0  0  0
  -30.3940  -12.8300   19.5370 C   0  0  0  0  0  2  0  0  0  0  0  0
  -29.5120  -12.5850   18.2850 C   0  0  0  0  0  2  0  0  0  0  0  0
  -28.0660  -12.2930   18.7030 C   0  0  0  0  0  2  0  0  0  0  0  0
  -27.5770  -13.2600   19.8180 C   0  0  0  0  0  3  0  0  0  0  0  0
  -28.5800  -13.3850   20.9800 C   0  0  0  0  0  2  0  0  0  0  0  0
  -29.7680  -13.9400   20.3690 N   0  0  0  0  0  0  0  0  0  0  0  0
  -31.4870  -15.2780   20.2570 O   0  0  0  0  0  0  0  0  0  0  0  0
  -29.4770  -16.5400   20.3330 N   0  0  0  0  0  4  0  0  0  0  0  0
  -30.1010  -17.1050   19.7770 H   0  0  0  0  0  0  0  0  0  0  0  0
  -25.2260  -13.8210   20.5700 C   0  0  0  0  0  0  0  0  0  0  0  0
  -24.1660  -13.0400   20.9260 C   0  0  0  0  0  0  0  0  0  0  0  0
  -24.6310  -11.6880   20.8810 C   0  0  0  0  0  0  0  0  0  0  0  0
  -26.2540  -12.9420   20.3070 N   0  0  0  0  0  0  0  0  0  0  0  0
  -25.9210  -11.6560   20.5640 N   0  0  0  0  0  0  0  0  0  0  0  0
  -23.9040  -10.4300   21.0490 C   0  0  0  0  0  0  0  0  0  0  0  0
  -24.3660   -9.4240   21.9270 C   0  0  0  0  0  3  0  0  0  0  0  0
  -23.6340   -8.2240   22.0770 C   0  0  0  0  0  3  0  0  0  0  0  0
  -22.4320   -8.0320   21.3530 C   0  0  0  0  0  0  0  0  0  0  0  0
  -21.9960   -9.0300   20.4640 C   0  0  0  0  0  3  0  0  0  0  0  0
  -22.7240  -10.2200   20.3090 C   0  0  0  0  0  3  0  0  0  0  0  0
  -21.6660   -6.8970   21.4250 O   0  0  0  0  0  0  0  0  0  0  0  0
  -21.6880   -6.0780   22.5290 C   0  0  0  0  0  0  0  0  0  0  0  0
  -21.4020   -6.5660   23.8240 C   0  0  0  0  0  3  0  0  0  0  0  0
  -21.3640   -5.6780   24.9160 C   0  0  0  0  0  3  0  0  0  0  0  0
  -21.6040   -4.3080   24.7200 C   0  0  0  0  0  0  0  0  0  0  0  0
  -21.8810   -3.8190   23.4340 C   0  0  0  0  0  3  0  0  0  0  0  0
  -21.9220   -4.6990   22.3400 C   0  0  0  0  0  0  0  0  0  0  0  0
  -22.1690   -4.2200   21.0980 F   0  0  0  0  0  0  0  0  0  0  0  0
  -21.5610   -3.4550   25.7730 F   0  0  0  0  0  0  0  0  0  0  0  0
  -22.7710  -13.5220   21.1850 C   0  0  0  0  0  0  0  0  0  0  0  0
  -22.0350  -12.8280   22.0450 N   0  0  0  0  0  0  0  0  0  0  0  0
  -22.3480  -14.5550   20.6700 O   0  0  0  0  0  0  0  0  0  0  0  0
  -22.3990  -11.9950   22.4850 H   0  0  0  0  0  0  0  0  0  0  0  0
  -21.0960  -13.1300   22.2520 H   0  0  0  0  0  0  0  0  0  0  0  0
  -25.3840  -15.1950   20.4130 N   0  0  0  0  0  0  0  0  0  0  0  0
  -24.5900  -15.8140   20.4900 H   0  0  0  0  0  0  0  0  0  0  0  0
  -26.2030  -15.6460   20.0310 H   0  0  0  0  0  0  0  0  0  0  0  0
  1  3  2  0
  2  1  1  0
  2 52  1  0
  4  2  1  0
  5  6  3  0
  8  1  1  0
  8  9  1  0
  8  7  1  0
  9 10  1  0
  9  7  1  0
 11 10  1  0
 12 23  2  0
 13 11  1  0
 14 24  1  0
 15 17  1  0
 18 13  1  0
 18 17  1  0
 19 13  1  0
 20 19  1  0
 20 15  1  0
 22 12  1  0
 24 26  2  0
 25 24  1  0
 27 25  1  0
 28 37  2  0
 28 33  1  0
 29 25  1  0
 29 33  1  0
 30 29  1  0
 31 32  1  0
 31 30  1  0
 32 28  1  0
 33 34  2  0
 34 35  1  0
 36 35  2  0
 37 36  1  0
 38 12  1  0
 38 39  1  0
 38 48  1  0
 39 42  1  0
 40 44  1  0
 40 39  1  0
 41 40  2  0
 44 43  1  0
 46 44  1  0
 46 47  1  0
 46 45  1  0
 48 51  1  1
 48 49  1  0
 50 48  1  0
 53 57  1  0
 54 58  2  0
 56 54  1  0
 56 53  2  0
 57 55  2  0
 57 52  1  0
 58 61  1  0
 58 55  1  0
 59 56  1  0
 61 60  1  0
 63 68  1  0
 64 65  1  0
 64 63  1  0
 66 65  1  0
 66 75  1  0
 66 67  1  0
 68 62  1  0
 68 67  1  0
 69 62  2  0
 70 62  1  0
 70 61  2  0
 71 70  1  0
 72 73  2  0
 73 92  1  0
 74 73  1  0
 74 77  1  0
 75 76  1  0
 75 72  1  0
 76 74  2  0
 77 78  1  0
 78 79  2  0
 80 83  1  0
 80 79  1  0
 81 80  2  0
 82 81  1  0
 82 77  2  0
 83 84  1  0
 84 85  1  0
 85 86  2  0
 87 86  1  0
 87 91  1  0
 88 87  2  0
 89 84  2  0
 89 88  1  0
 90 89  1  0
 92 93  1  0
 93 96  1  0
 93 95  1  0
 94 92  2  0
 97 98  1  0
 97 72  1  0
 99 97  1  0
M  ISO  4  10 101  11 101  62 100  70 100
M  END
>  <TORSDO>  (36) 
F 21

>  <SCORE>  (36) 
0.407

>  <name>  (36) 
35

>  <ligand_id>  (36) 
35

>  <original_smiles>  (36) 
[H]c1c([H])c([H])c2c(c1[H])C([H])([H])C([H])([H])C([H])([H])C2([H])N([H])C(=O)C1([H])N(C(=O)C([H])(N([H])C(=O)C([H])(N([H])C([H])([H])[H])C([H])([H])[H])C(C([H])([H])[H])(C([H])([H])[H])C([H])([H])[H])C([H])([H])c2c([H])c(OC([H])([H])C3([H])C([H])([H])C([H])([H])C([H])(C(=O)N([H])C([H])([H])c4c([H])c(C([H])([H])[H])c([H])c(C([H])(N([H])C(=O)N5C([H])([H])C([H])([H])C([H])([H])C([H])(n6nc(-c7c([H])c([H])c(Oc8c([H])c([H])c(F)c([H])c8F)c([H])c7[H])c(C(=O)N([H])[H])c6N([H])[H])C5([H])[H])C([H])([H])[H])c4[H])C3([H])[H])c([H])c([H])c2C1([H])[H]

>  <smiles>  (36) 
[H]c1c([H])c([H])c2c(c1[H])C([H])([H])C([H])([H])C([H])([H])C2([H])N([H])C(=O)C1([H])N(C(=O)C([H])(N([H])C(=O)C([H])(N([H])C([H])([H])[H])C([H])([H])[H])C(C([H])([H])[H])(C([H])([H])[H])C([H])([H])[H])C([H])([H])c2c([H])c(OC([H])([H])C3([H])C([H])([H])C([H])([H])C([H])(C(=O)N([H])C([H])([H])c4c([H])c(C([H])([H])[H])c([H])c(C([H])(N([H])C(=O)N5C([H])([H])C([H])([H])C([H])([H])C([H])(n6nc(-c7c([H])c([H])c(Oc8c([H])c([H])c(F)c([H])c8F)c([H])c7[H])c(C(=O)N([H])[H])c6N([H])[H])C5([H])[H])C([H])([H])[H])c4[H])C3([H])[H])c([H])c([H])c2C1([H])[H]

$$$$
36:0:0
     RDKit          3D

 92102  0  0  1  0  0  0  0  0999 V2000
  -30.3940  -22.1560   20.7360 C   0  0  0  0  0  3  0  0  0  0  0  0
  -30.2890  -20.7150   20.8210 C   0  0  0  0  0  3  0  0  0  0  0  0
  -29.7880  -22.8290   19.6470 C   0  0  0  0  0  0  0  0  0  0  0  0
  -28.8910  -21.9930   18.8910 C   0  0  0  0  0  0  0  0  0  0  0  0
  -28.5580  -20.6590   19.1080 C   0  0  0  0  0  0  0  0  0  0  0  0
  -29.3840  -19.9240   20.0240 C   0  0  0  0  0  0  0  0  0  0  0  0
  -27.0380  -20.7610   19.0660 C   0  0  0  0  0  2  0  0  0  0  0  0
  -26.6930  -22.2940   19.1480 C   0  0  0  0  0  2  0  0  0  0  0  0
  -27.8990  -23.0520   18.5800 C   0  0  0  0  0  3  0  0  0  0  0  0
  -28.9000  -24.0780   19.3090 C   0  0  0  0  0  3  0  0  0  0  0  0
  -29.1480  -18.3850   20.3030 C   0  0  0  0  0  3  0  0  0  0  0  0
  -30.2380  -17.2960   19.8740 C   0  0  0  0  0  3  0  0  0  0  0  0
  -30.7410  -14.7450   19.9450 C   0  0  0  0  0  0  0  0  0  0  0  0
  -30.4950  -12.4720   18.9690 C   0  0  0  0  0  2  0  0  0  0  0  0
  -29.5100  -12.5730   17.7840 C   0  0  0  0  0  2  0  0  0  0  0  0
  -28.0550  -12.4180   18.2710 C   0  0  0  0  0  2  0  0  0  0  0  0
  -27.7400  -13.3020   19.5070 C   0  0  0  0  0  3  0  0  0  0  0  0
  -28.8440  -13.1940   20.5840 C   0  0  0  0  0  2  0  0  0  0  0  0
  -30.1220  -13.5210   19.9410 N   0  0  0  0  0  0  0  0  0  0  0  0
  -31.8900  -14.8760   19.5130 O   0  0  0  0  0  0  0  0  0  0  0  0
  -29.9650  -15.8450   20.2230 N   0  0  0  0  0  0  0  0  0  0  0  0
  -29.0390  -15.6380   20.5650 H   0  0  0  0  0  0  0  0  0  0  0  0
  -25.3930  -13.9070   20.3520 C   0  0  0  0  0  0  0  0  0  0  0  0
  -24.3410  -13.1370   20.7680 C   0  0  0  0  0  0  0  0  0  0  0  0
  -24.7900  -11.7830   20.7000 C   0  0  0  0  0  0  0  0  0  0  0  0
  -26.4170  -13.0230   20.0550 N   0  0  0  0  0  0  0  0  0  0  0  0
  -26.0630  -11.7400   20.3260 N   0  0  0  0  0  0  0  0  0  0  0  0
  -24.0650  -10.5250   20.9130 C   0  0  0  0  0  0  0  0  0  0  0  0
  -24.5100   -9.5640   21.8490 C   0  0  0  0  0  3  0  0  0  0  0  0
  -23.7840   -8.3710   22.0500 C   0  0  0  0  0  3  0  0  0  0  0  0
  -22.5990   -8.1280   21.3160 C   0  0  0  0  0  0  0  0  0  0  0  0
  -22.1740   -9.0760   20.3690 C   0  0  0  0  0  3  0  0  0  0  0  0
  -22.8990  -10.2610   20.1660 C   0  0  0  0  0  3  0  0  0  0  0  0
  -21.8430   -6.9860   21.4260 O   0  0  0  0  0  0  0  0  0  0  0  0
  -21.7850   -6.2700   22.5960 C   0  0  0  0  0  0  0  0  0  0  0  0
  -21.3230   -6.8460   23.7990 C   0  0  0  0  0  3  0  0  0  0  0  0
  -21.2150   -6.0560   24.9610 C   0  0  0  0  0  3  0  0  0  0  0  0
  -21.5580   -4.6920   24.9190 C   0  0  0  0  0  0  0  0  0  0  0  0
  -22.0110   -4.1160   23.7200 C   0  0  0  0  0  3  0  0  0  0  0  0
  -22.1210   -4.9020   22.5610 C   0  0  0  0  0  0  0  0  0  0  0  0
  -22.5400   -4.3360   21.4020 F   0  0  0  0  0  0  0  0  0  0  0  0
  -21.4460   -3.9310   26.0340 F   0  0  0  0  0  0  0  0  0  0  0  0
  -22.9630  -13.6210   21.1150 C   0  0  0  0  0  0  0  0  0  0  0  0
  -22.2730  -12.9170   22.0050 N   0  0  0  0  0  0  0  0  0  0  0  0
  -22.5090  -14.6570   20.6310 O   0  0  0  0  0  0  0  0  0  0  0  0
  -22.6540  -12.0770   22.4150 H   0  0  0  0  0  0  0  0  0  0  0  0
  -21.3510  -13.2200   22.2820 H   0  0  0  0  0  0  0  0  0  0  0  0
  -25.5560  -15.2790   20.1780 N   0  0  0  0  0  0  0  0  0  0  0  0
  -24.7960  -15.9330   20.3280 H   0  0  0  0  0  0  0  0  0  0  0  0
  -26.3730  -15.7140   19.7690 H   0  0  0  0  0  0  0  0  0  0  0  0
  -28.4530  -25.1680   20.3690 C   0  0  0  0  0  2  0  0  0  0  0  0
  -28.5430  -26.6040   19.9940 O   0  0  0  0  0  0  0  0  0  0  0  0
  -24.6710  -31.8180   23.1470 C   0  0  0  0  0  0  0  0  0  0  0  0
  -27.3920  -27.4000   20.0010 C   0  0  0  0  0  0  0  0  0  0  0  0
  -23.5030  -30.4410   21.4600 C   0  0  0  0  0  3  0  0  0  0  0  0
  -24.9930  -28.9500   20.0070 C   0  0  0  0  0  0  0  0  0  0  0  0
  -26.0340  -30.8190   21.2960 C   0  0  0  0  0  2  0  0  0  0  0  0
  -26.1460  -29.4580   20.6190 C   0  0  0  0  0  0  0  0  0  0  0  0
  -27.3500  -28.6970   20.6000 C   0  0  0  0  0  3  0  0  0  0  0  0
  -26.2180  -26.9330   19.3770 C   0  0  0  0  0  3  0  0  0  0  0  0
  -25.0310  -27.6950   19.3750 C   0  0  0  0  0  3  0  0  0  0  0  0
  -23.7390  -29.7990   20.0660 C   0  0  0  0  0  2  0  0  0  0  0  0
  -24.7540  -31.0430   22.0260 N   0  0  0  0  0  0  0  0  0  0  0  0
  -23.5800  -32.0580   23.6860 O   0  0  0  0  0  0  0  0  0  0  0  0
  -22.8540  -29.3890   22.3900 C   0  0  0  0  0  0  0  0  0  0  0  0
  -21.5240  -29.2250   22.2850 N   0  0  0  0  0  0  0  0  0  0  0  0
  -23.5470  -28.7220   23.1650 O   0  0  0  0  0  0  0  0  0  0  0  0
  -21.0240  -29.8130   21.6330 H   0  0  0  0  0  0  0  0  0  0  0  0
  -18.1420  -28.0790   22.8560 C   0  0  0  0  0  0  0  0  0  0  0  0
  -20.7160  -28.2600   23.0320 C   0  0  0  0  0  3  0  0  0  0  0  0
  -20.7560  -26.8650   22.3650 C   0  0  0  0  0  2  0  0  0  0  0  0
  -19.6070  -26.6350   21.3800 C   0  0  0  0  0  2  0  0  0  0  0  0
  -18.2560  -26.7710   22.0890 C   0  0  0  0  0  2  0  0  0  0  0  0
  -19.2980  -28.7850   23.2840 C   0  0  0  0  0  0  0  0  0  0  0  0
  -19.1370  -30.0130   23.9630 C   0  0  0  0  0  3  0  0  0  0  0  0
  -17.8530  -30.5330   24.2150 C   0  0  0  0  0  3  0  0  0  0  0  0
  -16.7130  -29.8210   23.8030 C   0  0  0  0  0  3  0  0  0  0  0  0
  -16.8580  -28.5960   23.1280 C   0  0  0  0  0  3  0  0  0  0  0  0
  -25.9390  -32.4570   23.7940 C   0  0  0  0  0  3  0  0  0  0  0  0
  -26.4550  -31.6670   25.0600 C   0  0  1  0  0  0  0  0  0  0  0  0
  -25.3550  -31.3920   26.1120 C   0  0  0  0  0  1  0  0  0  0  0  0
  -27.0590  -30.3060   24.6460 C   0  0  0  0  0  1  0  0  0  0  0  0
  -27.5880  -32.4620   25.7500 C   0  0  0  0  0  1  0  0  0  0  0  0
  -25.6070  -33.8440   24.1520 N   0  0  0  0  0  0  0  0  0  0  0  0
  -25.9300  -34.9170   23.4170 C   0  0  0  0  0  0  0  0  0  0  0  0
  -26.6090  -34.8450   22.3900 O   0  0  0  0  0  0  0  0  0  0  0  0
  -25.0080  -33.9720   24.9540 H   0  0  0  0  0  0  0  0  0  0  0  0
  -24.1760  -36.6880   23.0830 C   0  0  0  0  0  1  0  0  0  0  0  0
  -25.4170  -36.2890   23.8980 C   0  0  0  0  0  3  0  0  0  0  0  0
  -27.5290  -37.1900   24.7690 C   0  0  0  0  0  1  0  0  0  0  0  0
  -26.4340  -37.3600   23.8160 N   0  0  0  0  0  0  0  0  0  0  0  0
  -26.0110  -38.2700   23.9790 H   0  0  0  0  0  0  0  0  0  0  0  0
  1  2  1  0
  3  1  2  0
  4  5  2  0
  4  3  1  0
  5  6  1  0
  6 11  1  0
  6  2  2  0
  7  5  1  0
  7  8  1  0
  9  4  1  0
  9  8  1  0
  9 10  1  0
 10  3  1  0
 10 51  1  0
 12 21  1  0
 12 11  2  0
 13 21  1  0
 14 19  1  0
 15 16  1  0
 15 14  1  0
 17 16  1  0
 17 26  1  0
 17 18  1  0
 19 13  1  0
 19 18  1  0
 20 13  2  0
 21 22  1  0
 23 24  2  0
 24 43  1  0
 25 24  1  0
 25 28  1  0
 26 27  1  0
 26 23  1  0
 27 25  2  0
 28 29  1  0
 29 30  2  0
 31 34  1  0
 31 30  1  0
 32 31  2  0
 33 32  1  0
 33 28  2  0
 34 35  1  0
 35 36  1  0
 36 37  2  0
 38 37  1  0
 38 42  1  0
 39 38  2  0
 40 35  2  0
 40 39  1  0
 41 40  1  0
 43 44  1  0
 44 47  1  0
 44 46  1  0
 45 43  2  0
 48 49  1  0
 48 23  1  0
 50 48  1  0
 52 54  1  0
 52 51  1  0
 53 64  2  0
 54 59  1  0
 55 63  1  0
 55 65  1  0
 56 62  1  0
 56 58  1  0
 57 63  1  0
 58 57  1  0
 59 58  2  0
 60 54  2  0
 61 60  1  0
 61 56  2  0
 62 55  1  0
 63 53  1  0
 65 67  2  0
 66 65  1  0
 68 66  1  0
 69 78  2  0
 69 74  1  0
 70 66  1  0
 70 74  1  0
 71 70  1  0
 72 73  1  0
 72 71  1  0
 73 69  1  0
 74 75  2  0
 75 76  1  0
 77 76  2  0
 78 77  1  0
 79 53  1  0
 79 84  1  0
 79 80  1  0
 80 83  1  1
 80 81  1  0
 82 80  1  0
 84 87  1  0
 85 89  1  0
 85 84  1  0
 86 85  2  0
 89 88  1  0
 91 89  1  0
 91 92  1  0
 91 90  1  0
M  ISO  4  13 100  21 100  51 101  52 101
M  END
>  <TORSDO>  (37) 
F 19

>  <SCORE>  (37) 
-14.032

>  <name>  (37) 
36

>  <ligand_id>  (37) 
36

>  <original_smiles>  (37) 
[H]c1c([H])c([H])c2c(c1[H])C([H])([H])C([H])([H])C([H])([H])C2([H])N([H])C(=O)C1([H])N(C(=O)C([H])(N([H])C(=O)C([H])(N([H])C([H])([H])[H])C([H])([H])[H])C(C([H])([H])[H])(C([H])([H])[H])C([H])([H])[H])C([H])([H])c2c([H])c(OC([H])([H])C3([H])c4c([H])c([H])c(C([H])([H])C([H])([H])N([H])C(=O)N5C([H])([H])C([H])([H])C([H])([H])C([H])(n6nc(-c7c([H])c([H])c(Oc8c([H])c([H])c(F)c([H])c8F)c([H])c7[H])c(C(=O)N([H])[H])c6N([H])[H])C5([H])[H])c5c4C3([H])C([H])([H])C5([H])[H])c([H])c([H])c2C1([H])[H]

>  <smiles>  (37) 
[H]c1c([H])c([H])c2c(c1[H])C([H])([H])C([H])([H])C([H])([H])C2([H])N([H])C(=O)C1([H])N(C(=O)C([H])(N([H])C(=O)C([H])(N([H])C([H])([H])[H])C([H])([H])[H])C(C([H])([H])[H])(C([H])([H])[H])C([H])([H])[H])C([H])([H])c2c([H])c(OC([H])([H])C3([H])c4c([H])c([H])c(C([H])([H])C([H])([H])N([H])C(=O)N5C([H])([H])C([H])([H])C([H])([H])C([H])(n6nc(-c7c([H])c([H])c(Oc8c([H])c([H])c(F)c([H])c8F)c([H])c7[H])c(C(=O)N([H])[H])c6N([H])[H])C5([H])[H])c5c4C3([H])C([H])([H])C5([H])[H])c([H])c([H])c2C1([H])[H]

$$$$
37:0:0
     RDKit          3D

 94102  0  0  1  0  0  0  0  0999 V2000
  -29.9530  -21.3590   20.8760 C   0  0  0  0  0  3  0  0  0  0  0  0
  -29.3870  -19.7320   19.0090 C   0  0  0  0  0  3  0  0  0  0  0  0
  -29.1200  -18.4820   18.4340 C   0  0  0  0  0  3  0  0  0  0  0  0
  -29.8930  -18.6020   21.1040 C   0  0  0  0  0  3  0  0  0  0  0  0
  -29.7240  -19.8570   20.3690 C   0  0  0  0  0  0  0  0  0  0  0  0
  -29.2060  -17.2870   19.1760 C   0  0  0  0  0  0  0  0  0  0  0  0
  -29.6820  -17.2780   20.5240 C   0  0  0  0  0  0  0  0  0  0  0  0
  -28.6630  -16.0660   18.4670 C   0  0  0  0  0  1  0  0  0  0  0  0
  -30.5790  -14.8680   21.0770 C   0  0  0  0  0  0  0  0  0  0  0  0
  -30.5830  -12.5080   20.2510 C   0  0  0  0  0  2  0  0  0  0  0  0
  -29.7740  -12.3550   18.9400 C   0  0  0  0  0  2  0  0  0  0  0  0
  -28.2840  -12.1420   19.2520 C   0  0  0  0  0  2  0  0  0  0  0  0
  -27.7350  -13.1370   20.3060 C   0  0  0  0  0  3  0  0  0  0  0  0
  -28.6650  -13.2390   21.5380 C   0  0  0  0  0  2  0  0  0  0  0  0
  -30.0070  -13.6130   21.0590 N   0  0  0  0  0  0  0  0  0  0  0  0
  -31.7740  -15.0010   20.7910 O   0  0  0  0  0  0  0  0  0  0  0  0
  -29.7710  -15.9880   21.2790 N   0  0  0  0  0  0  0  0  0  0  0  0
  -28.9710  -15.7940   21.8630 H   0  0  0  0  0  0  0  0  0  0  0  0
  -25.2780  -13.6850   20.7900 C   0  0  0  0  0  0  0  0  0  0  0  0
  -24.2000  -12.8900   21.0690 C   0  0  0  0  0  0  0  0  0  0  0  0
  -24.6970  -11.5500   21.1060 C   0  0  0  0  0  0  0  0  0  0  0  0
  -26.3590  -12.8270   20.6740 N   0  0  0  0  0  0  0  0  0  0  0  0
  -26.0110  -11.5420   20.9290 N   0  0  0  0  0  0  0  0  0  0  0  0
  -23.9910  -10.2690   21.2440 C   0  0  0  0  0  0  0  0  0  0  0  0
  -24.3830   -9.3130   22.2070 C   0  0  0  0  0  3  0  0  0  0  0  0
  -23.6740   -8.0990   22.3380 C   0  0  0  0  0  3  0  0  0  0  0  0
  -22.5670   -7.8300   21.5000 C   0  0  0  0  0  0  0  0  0  0  0  0
  -22.1970   -8.7750   20.5260 C   0  0  0  0  0  3  0  0  0  0  0  0
  -22.9050   -9.9810   20.3920 C   0  0  0  0  0  3  0  0  0  0  0  0
  -21.8370   -6.6680   21.5390 O   0  0  0  0  0  0  0  0  0  0  0  0
  -21.7440   -5.9110   22.6800 C   0  0  0  0  0  0  0  0  0  0  0  0
  -21.2310   -6.4390   23.8840 C   0  0  0  0  0  3  0  0  0  0  0  0
  -21.0910   -5.6080   25.0130 C   0  0  0  0  0  3  0  0  0  0  0  0
  -21.4530   -4.2490   24.9390 C   0  0  0  0  0  0  0  0  0  0  0  0
  -21.9610   -3.7210   23.7390 C   0  0  0  0  0  3  0  0  0  0  0  0
  -22.1020   -4.5500   22.6120 C   0  0  0  0  0  0  0  0  0  0  0  0
  -22.5720   -4.0300   21.4520 F   0  0  0  0  0  0  0  0  0  0  0  0
  -21.3090   -3.4500   26.0200 F   0  0  0  0  0  0  0  0  0  0  0  0
  -22.7720  -13.3310   21.1980 C   0  0  0  0  0  0  0  0  0  0  0  0
  -21.9880  -12.6280   22.0070 N   0  0  0  0  0  0  0  0  0  0  0  0
  -22.3560  -14.3320   20.6160 O   0  0  0  0  0  0  0  0  0  0  0  0
  -22.3400  -11.8240   22.5090 H   0  0  0  0  0  0  0  0  0  0  0  0
  -21.0250  -12.9000   22.1310 H   0  0  0  0  0  0  0  0  0  0  0  0
  -25.4270  -15.0570   20.6050 N   0  0  0  0  0  0  0  0  0  0  0  0
  -24.6480  -15.7060   20.6490 H   0  0  0  0  0  0  0  0  0  0  0  0
  -26.3070  -15.5040   20.3830 H   0  0  0  0  0  0  0  0  0  0  0  0
  -28.9470  -22.4170   20.3890 N   0  0  0  0  0  4  0  0  0  0  0  0
  -28.8240  -22.2370   19.4050 H   0  0  0  0  0  0  0  0  0  0  0  0
  -28.0640  -22.2120   20.8330 H   0  0  0  0  0  0  0  0  0  0  0  0
  -29.2530  -23.9260   20.5380 C   0  0  0  0  0  3  0  0  0  0  0  0
  -28.1020  -24.9770   20.1160 C   0  0  0  0  0  3  0  0  0  0  0  0
  -28.3300  -26.4590   20.1870 O   0  0  0  0  0  0  0  0  0  0  0  0
  -24.5960  -31.8860   23.2000 C   0  0  0  0  0  0  0  0  0  0  0  0
  -27.2190  -27.3320   20.1210 C   0  0  0  0  0  0  0  0  0  0  0  0
  -23.3990  -30.5010   21.5460 C   0  0  0  0  0  3  0  0  0  0  0  0
  -24.8530  -28.9700   20.1080 C   0  0  0  0  0  0  0  0  0  0  0  0
  -25.9430  -30.8230   21.3690 C   0  0  0  0  0  2  0  0  0  0  0  0
  -26.0280  -29.4520   20.7010 C   0  0  0  0  0  0  0  0  0  0  0  0
  -27.2170  -28.6550   20.6710 C   0  0  0  0  0  3  0  0  0  0  0  0
  -26.0120  -26.9070   19.5100 C   0  0  0  0  0  3  0  0  0  0  0  0
  -24.8550  -27.7060   19.4960 C   0  0  0  0  0  3  0  0  0  0  0  0
  -23.6130  -29.8430   20.1610 C   0  0  0  0  0  2  0  0  0  0  0  0
  -24.6650  -31.0870   22.0940 N   0  0  0  0  0  0  0  0  0  0  0  0
  -23.5110  -32.1580   23.7330 O   0  0  0  0  0  0  0  0  0  0  0  0
  -22.7310  -29.4750   22.4920 C   0  0  0  0  0  0  0  0  0  0  0  0
  -21.4040  -29.3020   22.3620 N   0  0  0  0  0  0  0  0  0  0  0  0
  -23.4070  -28.8360   23.3040 O   0  0  0  0  0  0  0  0  0  0  0  0
  -20.9120  -29.8690   21.6830 H   0  0  0  0  0  0  0  0  0  0  0  0
  -18.0190  -28.1230   22.8420 C   0  0  0  0  0  0  0  0  0  0  0  0
  -20.5780  -28.3580   23.1200 C   0  0  0  0  0  3  0  0  0  0  0  0
  -20.6670  -26.9310   22.5290 C   0  0  0  0  0  2  0  0  0  0  0  0
  -19.5680  -26.6330   21.5070 C   0  0  0  0  0  2  0  0  0  0  0  0
  -18.1870  -26.7810   22.1520 C   0  0  0  0  0  2  0  0  0  0  0  0
  -19.1430  -28.8710   23.2850 C   0  0  0  0  0  0  0  0  0  0  0  0
  -18.9300  -30.1310   23.8870 C   0  0  0  0  0  3  0  0  0  0  0  0
  -17.6280  -30.6400   24.0520 C   0  0  0  0  0  3  0  0  0  0  0  0
  -16.5180  -29.8860   23.6320 C   0  0  0  0  0  3  0  0  0  0  0  0
  -16.7160  -28.6290   23.0330 C   0  0  0  0  0  3  0  0  0  0  0  0
  -25.8770  -32.5090   23.8390 C   0  0  0  0  0  3  0  0  0  0  0  0
  -25.5640  -33.9040   24.1830 N   0  0  0  0  0  0  0  0  0  0  0  0
  -25.9020  -34.9660   23.4410 C   0  0  0  0  0  0  0  0  0  0  0  0
  -26.5830  -34.8750   22.4140 O   0  0  0  0  0  0  0  0  0  0  0  0
  -24.9630  -34.0490   24.9830 H   0  0  0  0  0  0  0  0  0  0  0  0
  -24.1860  -36.7700   23.0870 C   0  0  0  0  0  1  0  0  0  0  0  0
  -25.4130  -36.3480   23.9110 C   0  0  0  0  0  3  0  0  0  0  0  0
  -27.5400  -37.2170   24.7880 C   0  0  0  0  0  1  0  0  0  0  0  0
  -26.4540  -37.3990   23.8280 N   0  0  0  0  0  0  0  0  0  0  0  0
  -26.0470  -38.3200   23.9760 H   0  0  0  0  0  0  0  0  0  0  0  0
  -26.3850  -31.7230   25.1080 C   0  0  1  0  0  0  0  0  0  0  0  0
  -25.2880  -31.4840   26.1670 C   0  0  0  0  0  1  0  0  0  0  0  0
  -26.9620  -30.3430   24.7120 C   0  0  0  0  0  1  0  0  0  0  0  0
  -27.5320  -32.5110   25.7830 C   0  0  0  0  0  1  0  0  0  0  0  0
  -31.6590  -21.7160   22.8050 C   0  0  0  0  0  1  0  0  0  0  0  0
  -30.1880  -21.4950   22.4070 C   0  0  0  0  0  2  0  0  0  0  0  0
  1 94  1  0
  2  5  1  0
  3  2  2  0
  3  6  1  0
  5  1  1  0
  5  4  2  0
  6  7  2  0
  7  4  1  0
  7 17  1  0
  8  6  1  0
  9 17  1  0
 10 15  1  0
 11 12  1  0
 11 10  1  0
 13 12  1  0
 13 22  1  0
 13 14  1  0
 15  9  1  0
 15 14  1  0
 16  9  2  0
 17 18  1  0
 19 20  2  0
 20 21  1  0
 20 39  1  0
 21 24  1  0
 22 19  1  0
 22 23  1  0
 23 21  2  0
 24 25  1  0
 25 26  2  0
 27 30  1  0
 27 26  1  0
 28 27  2  0
 29 28  1  0
 29 24  2  0
 30 31  1  0
 31 32  1  0
 32 33  2  0
 34 33  1  0
 34 38  1  0
 35 34  2  0
 36 31  2  0
 36 35  1  0
 37 36  1  0
 39 40  1  0
 40 43  1  0
 40 42  1  0
 41 39  2  0
 44 45  1  0
 44 19  1  0
 46 44  1  0
 47 50  1  0
 47 49  1  0
 47  1  1  0
 48 47  1  0
 51 52  1  0
 51 50  2  0
 53 64  2  0
 54 52  1  0
 54 59  1  0
 55 63  1  0
 55 65  1  0
 56 62  1  0
 56 58  1  0
 57 63  1  0
 58 57  1  0
 59 58  2  0
 60 54  2  0
 61 60  1  0
 61 56  2  0
 62 55  1  0
 63 53  1  0
 65 67  2  0
 66 65  1  0
 68 66  1  0
 69 78  2  0
 69 74  1  0
 70 66  1  0
 70 74  1  0
 71 70  1  0
 72 73  1  0
 72 71  1  0
 73 69  1  0
 74 75  2  0
 75 76  1  0
 77 76  2  0
 78 77  1  0
 79 53  1  0
 79 80  1  0
 79 89  1  0
 80 83  1  0
 81 85  1  0
 81 80  1  0
 82 81  2  0
 85 84  1  0
 87 85  1  0
 87 88  1  0
 87 86  1  0
 89 92  1  1
 89 90  1  0
 91 89  1  0
 94 93  1  0
M  ISO  4   9 100  17 100  51 101  52 101
M  END
>  <TORSDO>  (38) 
F 21

>  <SCORE>  (38) 
-12.621

>  <name>  (38) 
37

>  <ligand_id>  (38) 
37

>  <original_smiles>  (38) 
[H]c1c([H])c([H])c2c(c1[H])C([H])([H])C([H])([H])C([H])([H])C2([H])N([H])C(=O)C1([H])N(C(=O)C([H])(N([H])C(=O)C([H])(N([H])C([H])([H])[H])C([H])([H])[H])C(C([H])([H])[H])(C([H])([H])[H])C([H])([H])[H])C([H])([H])c2c([H])c(OC([H])([H])C([H])([H])[N+]([H])([H])C([H])(c3c([H])c([H])c(C([H])([H])[H])c(N([H])C(=O)N4C([H])([H])C([H])([H])C([H])([H])C([H])(n5nc(-c6c([H])c([H])c(Oc7c([H])c([H])c(F)c([H])c7F)c([H])c6[H])c(C(=O)N([H])[H])c5N([H])[H])C4([H])[H])c3[H])C([H])([H])C([H])([H])[H])c([H])c([H])c2C1([H])[H]

>  <smiles>  (38) 
[H]c1c([H])c([H])c2c(c1[H])C([H])([H])C([H])([H])C([H])([H])C2([H])N([H])C(=O)C1([H])N(C(=O)C([H])(N([H])C(=O)C([H])(N([H])C([H])([H])[H])C([H])([H])[H])C(C([H])([H])[H])(C([H])([H])[H])C([H])([H])[H])C([H])([H])c2c([H])c(OC([H])([H])C([H])([H])[N+]([H])([H])C([H])(c3c([H])c([H])c(C([H])([H])[H])c(N([H])C(=O)N4C([H])([H])C([H])([H])C([H])([H])C([H])(n5nc(-c6c([H])c([H])c(Oc7c([H])c([H])c(F)c([H])c7F)c([H])c6[H])c(C(=O)N([H])[H])c5N([H])[H])C4([H])[H])c3[H])C([H])([H])C([H])([H])[H])c([H])c([H])c2C1([H])[H]

$$$$
38:0:0
     RDKit          3D

 98107  0  0  1  0  0  0  0  0999 V2000
  -27.6180  -22.2920   17.0310 C   0  0  0  0  0  2  0  0  0  0  0  0
  -28.1450  -21.3200   19.3320 C   0  0  0  0  0  2  0  0  0  0  0  0
  -28.8560  -23.1680   17.3010 C   0  0  0  0  0  2  0  0  0  0  0  0
  -28.0910  -22.8060   19.6630 C   0  0  0  0  0  2  0  0  0  0  0  0
  -27.6370  -21.0120   17.9030 C   0  0  0  0  0  3  0  0  0  0  0  0
  -28.9270  -23.6140   18.7220 N   0  0  2  0  0  4  0  0  0  0  0  0
  -29.8870  -23.4510   18.9990 H   0  0  0  0  0  0  0  0  0  0  0  0
  -28.5030  -19.9300   17.2370 C   0  0  0  0  0  2  0  0  0  0  0  0
  -28.7140  -18.6410   18.0680 C   0  0  0  0  0  2  0  0  0  0  0  0
  -32.2000  -17.5180   17.2790 C   0  0  0  0  0  2  0  0  0  0  0  0
  -31.6150  -16.3480   18.0650 C   0  0  0  0  0  2  0  0  0  0  0  0
  -30.9880  -18.3990   17.0290 C   0  0  0  0  0  2  0  0  0  0  0  0
  -30.3510  -16.8950   18.7720 C   0  0  0  0  0  3  0  0  0  0  0  0
  -30.1450  -18.2670   18.2410 N   0  0  2  0  0  4  0  0  0  0  0  0
  -30.5470  -18.8650   18.9550 H   0  0  0  0  0  0  0  0  0  0  0  0
  -30.8690  -14.8010   21.2170 C   0  0  0  0  0  0  0  0  0  0  0  0
  -30.7260  -12.5850   20.2130 C   0  0  0  0  0  2  0  0  0  0  0  0
  -29.9440  -12.7200   18.8900 C   0  0  0  0  0  2  0  0  0  0  0  0
  -28.4280  -12.5850   19.1340 C   0  0  0  0  0  2  0  0  0  0  0  0
  -27.9160  -13.4710   20.3000 C   0  0  0  0  0  3  0  0  0  0  0  0
  -28.8330  -13.3540   21.5400 C   0  0  0  0  0  2  0  0  0  0  0  0
  -30.2190  -13.6160   21.1230 N   0  0  0  0  0  0  0  0  0  0  0  0
  -32.0960  -14.9050   21.1600 O   0  0  0  0  0  0  0  0  0  0  0  0
  -30.5040  -16.9310   20.3050 C   0  0  0  0  0  0  0  0  0  0  0  0
  -30.0670  -15.8490   20.9720 N   0  0  0  0  0  0  0  0  0  0  0  0
  -31.0260  -17.9090   20.8510 O   0  0  0  0  0  0  0  0  0  0  0  0
  -29.1470  -15.5180   20.7340 H   0  0  0  0  0  0  0  0  0  0  0  0
  -25.4370  -14.0470   20.6860 C   0  0  0  0  0  0  0  0  0  0  0  0
  -24.3480  -13.2610   20.9440 C   0  0  0  0  0  0  0  0  0  0  0  0
  -24.8360  -11.9210   21.0240 C   0  0  0  0  0  0  0  0  0  0  0  0
  -26.5210  -13.1840   20.6210 N   0  0  0  0  0  0  0  0  0  0  0  0
  -26.1560  -11.9040   20.8850 N   0  0  0  0  0  0  0  0  0  0  0  0
  -24.1180  -10.6500   21.1680 C   0  0  0  0  0  0  0  0  0  0  0  0
  -24.4690   -9.7130   22.1630 C   0  0  0  0  0  3  0  0  0  0  0  0
  -23.7510   -8.5050   22.2960 C   0  0  0  0  0  3  0  0  0  0  0  0
  -22.6700   -8.2240   21.4290 C   0  0  0  0  0  0  0  0  0  0  0  0
  -22.3370   -9.1510   20.4230 C   0  0  0  0  0  3  0  0  0  0  0  0
  -23.0570  -10.3500   20.2900 C   0  0  0  0  0  3  0  0  0  0  0  0
  -21.9320   -7.0640   21.4650 O   0  0  0  0  0  0  0  0  0  0  0  0
  -21.7660   -6.3530   22.6250 C   0  0  0  0  0  0  0  0  0  0  0  0
  -21.1800   -6.9280   23.7740 C   0  0  0  0  0  3  0  0  0  0  0  0
  -20.9650   -6.1410   24.9240 C   0  0  0  0  0  3  0  0  0  0  0  0
  -21.3240   -4.7810   24.9240 C   0  0  0  0  0  0  0  0  0  0  0  0
  -21.9020   -4.2050   23.7790 C   0  0  0  0  0  3  0  0  0  0  0  0
  -22.1190   -4.9890   22.6320 C   0  0  0  0  0  0  0  0  0  0  0  0
  -22.6550   -4.4240   21.5230 F   0  0  0  0  0  0  0  0  0  0  0  0
  -21.1110   -4.0220   26.0240 F   0  0  0  0  0  0  0  0  0  0  0  0
  -22.9180  -13.7120   21.0190 C   0  0  0  0  0  0  0  0  0  0  0  0
  -22.1080  -13.0510   21.8400 N   0  0  0  0  0  0  0  0  0  0  0  0
  -22.5220  -14.6880   20.3830 O   0  0  0  0  0  0  0  0  0  0  0  0
  -22.4390  -12.2650   22.3790 H   0  0  0  0  0  0  0  0  0  0  0  0
  -21.1430  -13.3360   21.9290 H   0  0  0  0  0  0  0  0  0  0  0  0
  -25.5950  -15.4130   20.4800 N   0  0  0  0  0  0  0  0  0  0  0  0
  -24.8040  -16.0480   20.4800 H   0  0  0  0  0  0  0  0  0  0  0  0
  -26.4680  -15.8780   20.2750 H   0  0  0  0  0  0  0  0  0  0  0  0
  -28.7160  -25.0740   18.8400 C   0  0  0  0  0  2  0  0  0  0  0  0
  -28.5200  -25.5560   20.2840 C   0  0  0  0  0  2  0  0  0  0  0  0
  -28.4660  -26.9610   20.2780 O   0  0  0  0  0  0  0  0  0  0  0  0
  -24.5530  -31.9390   23.3080 C   0  0  0  0  0  0  0  0  0  0  0  0
  -27.2360  -27.5700   20.2460 C   0  0  0  0  0  0  0  0  0  0  0  0
  -23.3550  -30.5460   21.6520 C   0  0  0  0  0  3  0  0  0  0  0  0
  -24.8160  -29.0160   20.2380 C   0  0  0  0  0  0  0  0  0  0  0  0
  -25.8710  -30.9350   21.4510 C   0  0  0  0  0  2  0  0  0  0  0  0
  -25.9650  -29.5680   20.8160 C   0  0  0  0  0  0  0  0  0  0  0  0
  -27.1760  -28.8570   20.8060 C   0  0  0  0  0  3  0  0  0  0  0  0
  -26.0610  -27.0000   19.6910 C   0  0  0  0  0  3  0  0  0  0  0  0
  -24.8540  -27.7270   19.6780 C   0  0  0  0  0  3  0  0  0  0  0  0
  -23.5690  -29.8690   20.2700 C   0  0  0  0  0  2  0  0  0  0  0  0
  -24.6130  -31.1530   22.1970 N   0  0  0  0  0  0  0  0  0  0  0  0
  -23.4700  -32.2010   23.8470 O   0  0  0  0  0  0  0  0  0  0  0  0
  -22.7020  -29.5170   22.6040 C   0  0  0  0  0  0  0  0  0  0  0  0
  -21.3890  -29.2960   22.4310 N   0  0  0  0  0  0  0  0  0  0  0  0
  -23.3750  -28.9200   23.4480 O   0  0  0  0  0  0  0  0  0  0  0  0
  -20.9120  -29.8310   21.7180 H   0  0  0  0  0  0  0  0  0  0  0  0
  -18.0370  -27.9940   22.7900 C   0  0  0  0  0  0  0  0  0  0  0  0
  -20.5690  -28.3480   23.1810 C   0  0  0  0  0  3  0  0  0  0  0  0
  -20.7500  -26.9080   22.6460 C   0  0  0  0  0  2  0  0  0  0  0  0
  -19.7110  -26.5230   21.5870 C   0  0  0  0  0  2  0  0  0  0  0  0
  -18.2940  -26.6370   22.1560 C   0  0  0  0  0  2  0  0  0  0  0  0
  -19.1070  -28.8040   23.2560 C   0  0  0  0  0  0  0  0  0  0  0  0
  -18.8170  -30.0730   23.8020 C   0  0  0  0  0  3  0  0  0  0  0  0
  -17.4900  -30.5350   23.8860 C   0  0  0  0  0  3  0  0  0  0  0  0
  -16.4350  -29.7210   23.4400 C   0  0  0  0  0  3  0  0  0  0  0  0
  -16.7090  -28.4520   22.8970 C   0  0  0  0  0  3  0  0  0  0  0  0
  -25.8350  -32.5670   23.9380 C   0  0  0  0  0  3  0  0  0  0  0  0
  -25.5370  -33.9730   24.2420 N   0  0  0  0  0  0  0  0  0  0  0  0
  -25.8850  -35.0070   23.4650 C   0  0  0  0  0  0  0  0  0  0  0  0
  -26.5670  -34.8790   22.4450 O   0  0  0  0  0  0  0  0  0  0  0  0
  -24.9380  -34.1470   25.0360 H   0  0  0  0  0  0  0  0  0  0  0  0
  -24.1690  -36.8010   23.0570 C   0  0  0  0  0  1  0  0  0  0  0  0
  -25.4010  -36.4090   23.8890 C   0  0  0  0  0  3  0  0  0  0  0  0
  -27.5340  -37.2970   24.7190 C   0  0  0  0  0  1  0  0  0  0  0  0
  -26.4430  -37.4520   23.7610 N   0  0  0  0  0  0  0  0  0  0  0  0
  -26.0410  -38.3780   23.8840 H   0  0  0  0  0  0  0  0  0  0  0  0
  -26.3250  -31.8100   25.2340 C   0  0  1  0  0  0  0  0  0  0  0  0
  -25.2110  -31.5830   26.2850 C   0  0  0  0  0  1  0  0  0  0  0  0
  -26.9140  -30.4290   24.8610 C   0  0  0  0  0  1  0  0  0  0  0  0
  -27.4670  -32.6080   25.9050 C   0  0  0  0  0  1  0  0  0  0  0  0
  1  3  1  0
  1  5  1  0
  2  4  1  0
  3  6  1  0
  5  8  1  0
  5  2  1  0
  6 56  1  0
  6  7  1  1
  6  4  1  0
  8  9  1  0
  9 14  1  0
 10 11  1  0
 11 13  1  0
 12 10  1  0
 12 14  1  0
 13 24  1  0
 14 13  1  0
 14 15  1  1
 17 22  1  0
 18 19  1  0
 18 17  1  0
 20 19  1  0
 20 31  1  0
 20 21  1  0
 22 16  1  0
 22 21  1  0
 23 16  2  0
 24 26  2  0
 24 25  1  0
 25 16  1  0
 27 25  1  0
 28 29  2  0
 29 48  1  0
 29 30  1  0
 30 33  1  0
 31 28  1  0
 31 32  1  0
 32 30  2  0
 33 34  1  0
 34 35  2  0
 36 39  1  0
 36 35  1  0
 37 36  2  0
 38 37  1  0
 38 33  2  0
 39 40  1  0
 40 45  2  0
 40 41  1  0
 41 42  2  0
 43 42  1  0
 43 47  1  0
 44 43  2  0
 45 44  1  0
 46 45  1  0
 48 49  1  0
 49 52  1  0
 49 51  1  0
 50 48  2  0
 53 54  1  0
 53 28  1  0
 55 53  1  0
 56 57  1  0
 58 57  1  0
 59 70  2  0
 60 58  1  0
 60 65  1  0
 61 69  1  0
 61 71  1  0
 62 68  1  0
 62 64  1  0
 63 69  1  0
 64 63  1  0
 65 64  2  0
 66 60  2  0
 67 66  1  0
 67 62  2  0
 68 61  1  0
 69 59  1  0
 71 73  2  0
 72 71  1  0
 74 72  1  0
 75 84  2  0
 75 80  1  0
 76 72  1  0
 76 80  1  0
 77 76  1  0
 78 79  1  0
 78 77  1  0
 79 75  1  0
 80 81  2  0
 81 82  1  0
 83 82  2  0
 84 83  1  0
 85 59  1  0
 85 86  1  0
 85 95  1  0
 86 89  1  0
 87 91  1  0
 87 86  1  0
 88 87  2  0
 91 90  1  0
 93 94  1  0
 93 91  1  0
 93 92  1  0
 95 98  1  1
 95 96  1  0
 97 95  1  0
M  ISO  4  16 100  25 100  57 101  58 101
M  END
>  <TORSDO>  (39) 
F 21

>  <SCORE>  (39) 
-12.757

>  <name>  (39) 
38

>  <ligand_id>  (39) 
38

>  <original_smiles>  (39) 
[H]c1c([H])c([H])c2c(c1[H])C([H])([H])C([H])([H])C([H])([H])C2([H])N([H])C(=O)C1([H])N(C(=O)C([H])(N([H])C(=O)C([H])(N([H])C([H])([H])[H])C([H])([H])[H])C(C([H])([H])[H])(C([H])([H])[H])C([H])([H])[H])C([H])([H])c2c([H])c(OC([H])([H])C([H])([H])[N+]3([H])C([H])([H])C([H])([H])C([H])(C([H])([H])C([H])([H])[N+]4([H])C([H])([H])C([H])([H])C([H])([H])C4([H])C(=O)N([H])C(=O)N4C([H])([H])C([H])([H])C([H])([H])C([H])(n5nc(-c6c([H])c([H])c(Oc7c([H])c([H])c(F)c([H])c7F)c([H])c6[H])c(C(=O)N([H])[H])c5N([H])[H])C4([H])[H])C([H])([H])C3([H])[H])c([H])c([H])c2C1([H])[H]

>  <smiles>  (39) 
[H]c1c([H])c([H])c2c(c1[H])C([H])([H])C([H])([H])C([H])([H])C2([H])N([H])C(=O)C1([H])N(C(=O)C([H])(N([H])C(=O)C([H])(N([H])C([H])([H])[H])C([H])([H])[H])C(C([H])([H])[H])(C([H])([H])[H])C([H])([H])[H])C([H])([H])c2c([H])c(OC([H])([H])C([H])([H])[N+]3([H])C([H])([H])C([H])([H])C([H])(C([H])([H])C([H])([H])[N+]4([H])C([H])([H])C([H])([H])C([H])([H])C4([H])C(=O)N([H])C(=O)N4C([H])([H])C([H])([H])C([H])([H])C([H])(n5nc(-c6c([H])c([H])c(Oc7c([H])c([H])c(F)c([H])c7F)c([H])c6[H])c(C(=O)N([H])[H])c5N([H])[H])C4([H])[H])C([H])([H])C3([H])[H])c([H])c([H])c2C1([H])[H]

$$$$
39:0:0
     RDKit          3D

 90 99  0  0  1  0  0  0  0  0999 V2000
  -27.8260  -20.0540   19.9930 C   0  0  0  0  0  2  0  0  0  0  0  0
  -29.5960  -21.3770   20.8020 C   0  0  0  0  0  2  0  0  0  0  0  0
  -28.9150  -22.7980   18.6250 C   0  0  0  0  0  2  0  0  0  0  0  0
  -27.5400  -21.6120   19.7100 C   0  0  0  0  0  3  0  0  0  0  0  0
  -29.3420  -19.7700   20.2040 C   0  0  0  0  0  3  0  0  0  0  0  0
  -28.6600  -22.6460   20.1300 C   0  0  1  0  0  0  0  0  0  0  0  0
  -27.5750  -22.1450   18.2600 C   0  0  1  0  0  0  0  0  0  0  0  0
  -26.4440  -23.1070   17.8940 C   0  0  0  0  0  1  0  0  0  0  0  0
  -27.6420  -21.1200   17.1230 C   0  0  0  0  0  1  0  0  0  0  0  0
  -29.9780  -18.1670   20.7630 C   0  0  0  0  0  2  0  0  0  0  0  0
  -30.4810  -15.2800   20.3190 C   0  0  0  0  0  0  0  0  0  0  0  0
  -30.4440  -12.8600   19.3710 C   0  0  0  0  0  2  0  0  0  0  0  0
  -29.5020  -12.6670   18.1560 C   0  0  0  0  0  2  0  0  0  0  0  0
  -28.0610  -12.3880   18.6170 C   0  0  0  0  0  2  0  0  0  0  0  0
  -27.6260  -13.3320   19.7660 C   0  0  0  0  0  3  0  0  0  0  0  0
  -28.6920  -13.4620   20.8720 C   0  0  0  0  0  2  0  0  0  0  0  0
  -29.9050  -13.9830   20.2200 N   0  0  0  0  0  0  0  0  0  0  0  0
  -31.7080  -15.2750   20.1460 O   0  0  0  0  0  0  0  0  0  0  0  0
  -29.7190  -16.5520   20.4120 N   0  0  0  0  0  0  0  0  0  0  0  0
  -28.7300  -16.3480   20.3840 H   0  0  0  0  0  0  0  0  0  0  0  0
  -25.2640  -13.8730   20.5600 C   0  0  0  0  0  0  0  0  0  0  0  0
  -24.2090  -13.0870   20.9320 C   0  0  0  0  0  0  0  0  0  0  0  0
  -24.6830  -11.7400   20.8810 C   0  0  0  0  0  0  0  0  0  0  0  0
  -26.3070  -13.0050   20.2920 N   0  0  0  0  0  0  0  0  0  0  0  0
  -25.9710  -11.7150   20.5550 N   0  0  0  0  0  0  0  0  0  0  0  0
  -23.9620  -10.4720   21.0640 C   0  0  0  0  0  0  0  0  0  0  0  0
  -24.3950   -9.5020   21.9950 C   0  0  0  0  0  3  0  0  0  0  0  0
  -23.6720   -8.3020   22.1670 C   0  0  0  0  0  3  0  0  0  0  0  0
  -22.5020   -8.0630   21.4070 C   0  0  0  0  0  0  0  0  0  0  0  0
  -22.0880   -9.0210   20.4660 C   0  0  0  0  0  3  0  0  0  0  0  0
  -22.8120  -10.2130   20.2910 C   0  0  0  0  0  3  0  0  0  0  0  0
  -21.7500   -6.9150   21.4900 O   0  0  0  0  0  0  0  0  0  0  0  0
  -21.6900   -6.1760   22.6440 C   0  0  0  0  0  0  0  0  0  0  0  0
  -21.2120   -6.7230   23.8550 C   0  0  0  0  0  3  0  0  0  0  0  0
  -21.1010   -5.9080   24.9990 C   0  0  0  0  0  3  0  0  0  0  0  0
  -21.4560   -4.5480   24.9340 C   0  0  0  0  0  0  0  0  0  0  0  0
  -21.9270   -4.0010   23.7280 C   0  0  0  0  0  3  0  0  0  0  0  0
  -22.0400   -4.8110   22.5850 C   0  0  0  0  0  0  0  0  0  0  0  0
  -22.4730   -4.2740   21.4190 F   0  0  0  0  0  0  0  0  0  0  0  0
  -21.3430   -3.7630   26.0310 F   0  0  0  0  0  0  0  0  0  0  0  0
  -22.8130  -13.5560   21.2170 C   0  0  0  0  0  0  0  0  0  0  0  0
  -22.0920  -12.8460   22.0770 N   0  0  0  0  0  0  0  0  0  0  0  0
  -22.3700  -14.5870   20.7130 O   0  0  0  0  0  0  0  0  0  0  0  0
  -22.4640  -12.0120   22.5060 H   0  0  0  0  0  0  0  0  0  0  0  0
  -21.1550  -13.1410   22.3100 H   0  0  0  0  0  0  0  0  0  0  0  0
  -25.4150  -15.2460   20.3930 N   0  0  0  0  0  0  0  0  0  0  0  0
  -24.6410  -15.8900   20.5170 H   0  0  0  0  0  0  0  0  0  0  0  0
  -26.2440  -15.6930   20.0250 H   0  0  0  0  0  0  0  0  0  0  0  0
  -28.1840  -24.2600   20.8200 C   0  0  0  0  0  2  0  0  0  0  0  0
  -28.3680  -25.8720   20.4950 O   0  0  0  0  0  0  0  0  0  0  0  0
  -24.6500  -31.8720   23.2750 C   0  0  0  0  0  0  0  0  0  0  0  0
  -27.3320  -26.9470   20.4590 C   0  0  0  0  0  0  0  0  0  0  0  0
  -23.5170  -30.4290   21.6350 C   0  0  0  0  0  3  0  0  0  0  0  0
  -25.0200  -28.8030   20.3000 C   0  0  0  0  0  0  0  0  0  0  0  0
  -26.0860  -30.6600   21.5590 C   0  0  0  0  0  2  0  0  0  0  0  0
  -26.1870  -29.2350   20.9420 C   0  0  0  0  0  0  0  0  0  0  0  0
  -27.3420  -28.3290   20.9890 C   0  0  0  0  0  3  0  0  0  0  0  0
  -26.1310  -26.6650   19.7730 C   0  0  0  0  0  3  0  0  0  0  0  0
  -25.0160  -27.5370   19.6950 C   0  0  0  0  0  3  0  0  0  0  0  0
  -23.7940  -29.7160   20.2840 C   0  0  0  0  0  2  0  0  0  0  0  0
  -24.7710  -31.0160   22.2100 N   0  0  0  0  0  0  0  0  0  0  0  0
  -23.5430  -32.1640   23.7560 O   0  0  0  0  0  0  0  0  0  0  0  0
  -22.8030  -29.4500   22.6010 C   0  0  0  0  0  0  0  0  0  0  0  0
  -21.4740  -29.2870   22.4530 N   0  0  0  0  0  0  0  0  0  0  0  0
  -23.4500  -28.8360   23.4530 O   0  0  0  0  0  0  0  0  0  0  0  0
  -21.0050  -29.8320   21.7430 H   0  0  0  0  0  0  0  0  0  0  0  0
  -18.0720  -28.1230   22.9460 C   0  0  0  0  0  0  0  0  0  0  0  0
  -20.6340  -28.3610   23.2230 C   0  0  0  0  0  3  0  0  0  0  0  0
  -20.7220  -26.9260   22.6550 C   0  0  0  0  0  2  0  0  0  0  0  0
  -19.6220  -26.6120   21.6350 C   0  0  0  0  0  2  0  0  0  0  0  0
  -18.2380  -26.7720   22.2710 C   0  0  0  0  0  2  0  0  0  0  0  0
  -19.1970  -28.8770   23.3790 C   0  0  0  0  0  0  0  0  0  0  0  0
  -18.9850  -30.1400   23.9720 C   0  0  0  0  0  3  0  0  0  0  0  0
  -17.6840  -30.6510   24.1350 C   0  0  0  0  0  3  0  0  0  0  0  0
  -16.5750  -29.8960   23.7160 C   0  0  0  0  0  3  0  0  0  0  0  0
  -16.7690  -28.6340   23.1280 C   0  0  0  0  0  3  0  0  0  0  0  0
  -25.8960  -32.5400   23.9310 C   0  0  0  0  0  3  0  0  0  0  0  0
  -25.5590  -33.9450   24.2190 N   0  0  0  0  0  0  0  0  0  0  0  0
  -25.9060  -34.9900   23.4550 C   0  0  0  0  0  0  0  0  0  0  0  0
  -26.6060  -34.8730   22.4450 O   0  0  0  0  0  0  0  0  0  0  0  0
  -24.9380  -34.1090   24.9980 H   0  0  0  0  0  0  0  0  0  0  0  0
  -24.1820  -36.7750   23.0200 C   0  0  0  0  0  1  0  0  0  0  0  0
  -25.3990  -36.3860   23.8740 C   0  0  0  0  0  3  0  0  0  0  0  0
  -27.4990  -37.3030   24.7620 C   0  0  0  0  0  1  0  0  0  0  0  0
  -26.4310  -37.4430   23.7750 N   0  0  0  0  0  0  0  0  0  0  0  0
  -26.0160  -38.3630   23.8860 H   0  0  0  0  0  0  0  0  0  0  0  0
  -26.3620  -31.8150   25.2540 C   0  0  1  0  0  0  0  0  0  0  0  0
  -25.2270  -31.5990   26.2810 C   0  0  0  0  0  1  0  0  0  0  0  0
  -26.9740  -30.4300   24.9390 C   0  0  0  0  0  1  0  0  0  0  0  0
  -27.4760  -32.6400   25.9390 C   0  0  0  0  0  1  0  0  0  0  0  0
  1  5  1  0
  3  6  1  0
  4  1  1  0
  4  6  1  0
  5 10  1  0
  5  2  1  0
  6  2  1  0
  6 49  1  1
  7  3  1  0
  7  4  1  0
  7  8  1  6
  9  7  1  0
 11 19  1  0
 12 17  1  0
 13 14  1  0
 13 12  1  0
 15 14  1  0
 15 24  1  0
 15 16  1  0
 17 11  1  0
 17 16  1  0
 18 11  2  0
 19 10  1  0
 20 19  1  0
 21 22  2  0
 22 41  1  0
 23 22  1  0
 23 26  1  0
 24 25  1  0
 24 21  1  0
 25 23  2  0
 26 27  1  0
 27 28  2  0
 29 32  1  0
 29 28  1  0
 30 29  2  0
 31 30  1  0
 31 26  2  0
 32 33  1  0
 33 34  1  0
 34 35  2  0
 36 35  1  0
 36 40  1  0
 37 36  2  0
 38 33  2  0
 38 37  1  0
 39 38  1  0
 41 42  1  0
 42 45  1  0
 42 44  1  0
 43 41  2  0
 46 47  1  0
 46 21  1  0
 48 46  1  0
 50 49  1  0
 51 62  2  0
 52 50  1  0
 52 57  1  0
 53 61  1  0
 53 63  1  0
 54 56  1  0
 55 61  1  0
 56 57  2  0
 56 55  1  0
 58 52  2  0
 59 58  1  0
 59 54  2  0
 60 54  1  0
 60 53  1  0
 61 51  1  0
 63 65  2  0
 64 63  1  0
 66 64  1  0
 67 76  2  0
 67 72  1  0
 68 64  1  0
 68 72  1  0
 69 68  1  0
 70 71  1  0
 70 69  1  0
 71 67  1  0
 72 73  2  0
 73 74  1  0
 75 74  2  0
 76 75  1  0
 77 51  1  0
 77 78  1  0
 77 87  1  0
 78 81  1  0
 79 83  1  0
 79 78  1  0
 80 79  2  0
 83 82  1  0
 85 83  1  0
 85 86  1  0
 85 84  1  0
 87 90  1  1
 87 88  1  0
 89 87  1  0
M  ISO  4  11 100  19 100  49 101  50 101
M  END
>  <TORSDO>  (40) 
F 18

>  <SCORE>  (40) 
-16.279

>  <name>  (40) 
39

>  <ligand_id>  (40) 
39

>  <original_smiles>  (40) 
[H]c1c([H])c([H])c2c(c1[H])C([H])([H])C([H])([H])C([H])([H])C2([H])N([H])C(=O)C1([H])N(C(=O)C([H])(N([H])C(=O)C([H])(N([H])C([H])([H])[H])C([H])([H])[H])C(C([H])([H])[H])(C([H])([H])[H])C([H])([H])[H])C([H])([H])c2c([H])c(OC([H])([H])C34C([H])([H])C([H])(C([H])([H])N([H])C(=O)N5C([H])([H])C([H])([H])C([H])([H])C([H])(n6nc(-c7c([H])c([H])c(Oc8c([H])c([H])c(F)c([H])c8F)c([H])c7[H])c(C(=O)N([H])[H])c6N([H])[H])C5([H])[H])C([H])([H])C3([H])C(C([H])([H])[H])(C([H])([H])[H])C4([H])[H])c([H])c([H])c2C1([H])[H]

>  <smiles>  (40) 
[H]c1c([H])c([H])c2c(c1[H])C([H])([H])C([H])([H])C([H])([H])C2([H])N([H])C(=O)C1([H])N(C(=O)C([H])(N([H])C(=O)C([H])(N([H])C([H])([H])[H])C([H])([H])[H])C(C([H])([H])[H])(C([H])([H])[H])C([H])([H])[H])C([H])([H])c2c([H])c(OC([H])([H])C34C([H])([H])C([H])(C([H])([H])N([H])C(=O)N5C([H])([H])C([H])([H])C([H])([H])C([H])(n6nc(-c7c([H])c([H])c(Oc8c([H])c([H])c(F)c([H])c8F)c([H])c7[H])c(C(=O)N([H])[H])c6N([H])[H])C5([H])[H])C([H])([H])C3([H])C(C([H])([H])[H])(C([H])([H])[H])C4([H])[H])c([H])c([H])c2C1([H])[H]

$$$$
40:0:0
     RDKit          3D

 96104  0  0  1  0  0  0  0  0999 V2000
  -29.6840  -20.7370   22.0090 C   0  0  0  0  0  1  0  0  0  0  0  0
  -29.6710  -20.2460   20.5280 C   0  0  1  0  0  0  0  0  0  0  0  0
  -31.2110  -15.0420   20.1110 C   0  0  0  0  0  0  0  0  0  0  0  0
  -30.9090  -12.7270   19.2070 C   0  0  0  0  0  2  0  0  0  0  0  0
  -29.9890  -12.7630   17.9690 C   0  0  0  0  0  2  0  0  0  0  0  0
  -28.5120  -12.6630   18.3940 C   0  0  0  0  0  2  0  0  0  0  0  0
  -28.1610  -13.6320   19.5560 C   0  0  0  0  0  3  0  0  0  0  0  0
  -29.2050  -13.5790   20.6930 C   0  0  0  0  0  2  0  0  0  0  0  0
  -30.5190  -13.8490   20.0970 N   0  0  0  0  0  0  0  0  0  0  0  0
  -32.3570  -15.0760   19.6500 O   0  0  0  0  0  0  0  0  0  0  0  0
  -30.9200  -18.2910   21.8610 C   0  0  0  0  0  2  0  0  0  0  0  0
  -31.2970  -16.8020   21.7700 C   0  0  0  0  0  2  0  0  0  0  0  0
  -30.0800  -17.4160   19.8550 C   0  0  0  0  0  2  0  0  0  0  0  0
  -30.5890  -18.8360   20.4460 C   0  0  1  0  0  0  0  0  0  0  0  0
  -31.9310  -19.1550   19.7480 C   0  0  0  0  0  1  0  0  0  0  0  0
  -30.6240  -16.2060   20.6130 N   0  0  0  0  0  0  0  0  0  0  0  0
  -25.8110  -14.3450   20.2920 C   0  0  0  0  0  0  0  0  0  0  0  0
  -24.7060  -13.6290   20.6620 C   0  0  0  0  0  0  0  0  0  0  0  0
  -25.0940  -12.2540   20.6220 C   0  0  0  0  0  0  0  0  0  0  0  0
  -26.8050  -13.4120   20.0480 N   0  0  0  0  0  0  0  0  0  0  0  0
  -26.3810  -12.1490   20.3090 N   0  0  0  0  0  0  0  0  0  0  0  0
  -24.3000  -11.0320   20.8060 C   0  0  0  0  0  0  0  0  0  0  0  0
  -24.6890  -10.0290   21.7190 C   0  0  0  0  0  3  0  0  0  0  0  0
  -23.8990   -8.8730   21.8950 C   0  0  0  0  0  3  0  0  0  0  0  0
  -22.7030   -8.7130   21.1560 C   0  0  0  0  0  0  0  0  0  0  0  0
  -22.3300   -9.7040   20.2310 C   0  0  0  0  0  3  0  0  0  0  0  0
  -23.1210  -10.8510   20.0550 C   0  0  0  0  0  3  0  0  0  0  0  0
  -21.8850   -7.6120   21.2420 O   0  0  0  0  0  0  0  0  0  0  0  0
  -21.7920   -6.8710   22.3920 C   0  0  0  0  0  0  0  0  0  0  0  0
  -21.4050   -7.4490   23.6200 C   0  0  0  0  0  3  0  0  0  0  0  0
  -21.2550   -6.6390   24.7640 C   0  0  0  0  0  3  0  0  0  0  0  0
  -21.4820   -5.2520   24.6790 C   0  0  0  0  0  0  0  0  0  0  0  0
  -21.8630   -4.6740   23.4550 C   0  0  0  0  0  3  0  0  0  0  0  0
  -22.0150   -5.4820   22.3150 C   0  0  0  0  0  0  0  0  0  0  0  0
  -22.3600   -4.9170   21.1320 F   0  0  0  0  0  0  0  0  0  0  0  0
  -21.3310   -4.4710   25.7740 F   0  0  0  0  0  0  0  0  0  0  0  0
  -23.3380  -14.1800   20.9390 C   0  0  0  0  0  0  0  0  0  0  0  0
  -22.5930  -13.5460   21.8370 N   0  0  0  0  0  0  0  0  0  0  0  0
  -22.9420  -15.2100   20.3950 O   0  0  0  0  0  0  0  0  0  0  0  0
  -22.9250  -12.7140   22.3000 H   0  0  0  0  0  0  0  0  0  0  0  0
  -21.6730  -13.8980   22.0640 H   0  0  0  0  0  0  0  0  0  0  0  0
  -26.0490  -15.7060   20.1210 N   0  0  0  0  0  0  0  0  0  0  0  0
  -25.3120  -16.3960   20.2140 H   0  0  0  0  0  0  0  0  0  0  0  0
  -26.9130  -16.0910   19.7650 H   0  0  0  0  0  0  0  0  0  0  0  0
  -28.2080  -19.8210   20.1580 C   0  0  0  0  0  2  0  0  0  0  0  0
  -27.1790  -20.8760   20.2970 N   0  0  0  0  0  4  0  0  0  0  0  0
  -27.1680  -21.2490   21.2300 H   0  0  0  0  0  0  0  0  0  0  0  0
  -26.2730  -20.4730   20.1270 H   0  0  0  0  0  0  0  0  0  0  0  0
  -27.2990  -21.6210   19.6370 H   0  0  0  0  0  0  0  0  0  0  0  0
  -30.0370  -21.5710   19.6210 C   0  0  0  0  0  2  0  0  0  0  0  0
  -30.2450  -22.9860   20.2250 N   0  0  0  0  0  4  0  0  0  0  0  0
  -30.7550  -22.9020   21.0910 H   0  0  0  0  0  0  0  0  0  0  0  0
  -30.9080  -23.3990   19.5850 H   0  0  0  0  0  0  0  0  0  0  0  0
  -29.1430  -24.0660   20.3800 C   0  0  0  0  0  2  0  0  0  0  0  0
  -29.4880  -25.5910   19.9160 C   0  0  0  0  0  2  0  0  0  0  0  0
  -29.1140  -26.8500   20.6520 O   0  0  0  0  0  0  0  0  0  0  0  0
  -24.7280  -31.9220   23.3530 C   0  0  0  0  0  0  0  0  0  0  0  0
  -27.9350  -27.6050   20.4670 C   0  0  0  0  0  0  0  0  0  0  0  0
  -23.7820  -30.4750   21.5880 C   0  0  0  0  0  3  0  0  0  0  0  0
  -25.4640  -29.0610   20.2670 C   0  0  0  0  0  0  0  0  0  0  0  0
  -26.2970  -30.9750   21.6370 C   0  0  0  0  0  2  0  0  0  0  0  0
  -26.5350  -29.6180   20.9760 C   0  0  0  0  0  0  0  0  0  0  0  0
  -27.7680  -28.8990   21.0670 C   0  0  0  0  0  3  0  0  0  0  0  0
  -26.8380  -27.1050   19.7320 C   0  0  0  0  0  3  0  0  0  0  0  0
  -25.6210  -27.8140   19.6360 C   0  0  0  0  0  3  0  0  0  0  0  0
  -24.1660  -29.8450   20.2220 C   0  0  0  0  0  2  0  0  0  0  0  0
  -24.9490  -31.1430   22.2510 N   0  0  0  0  0  0  0  0  0  0  0  0
  -23.5840  -32.1040   23.7940 O   0  0  0  0  0  0  0  0  0  0  0  0
  -23.1150  -29.3930   22.4730 C   0  0  0  0  0  0  0  0  0  0  0  0
  -21.8060  -29.1650   22.2700 N   0  0  0  0  0  0  0  0  0  0  0  0
  -23.7780  -28.7620   23.3000 O   0  0  0  0  0  0  0  0  0  0  0  0
  -21.3280  -29.7310   21.5820 H   0  0  0  0  0  0  0  0  0  0  0  0
  -18.4520  -27.8470   22.5910 C   0  0  0  0  0  0  0  0  0  0  0  0
  -20.9930  -28.1610   22.9570 C   0  0  0  0  0  3  0  0  0  0  0  0
  -21.1540  -26.7710   22.3010 C   0  0  0  0  0  2  0  0  0  0  0  0
  -20.0940  -26.4790   21.2340 C   0  0  0  0  0  2  0  0  0  0  0  0
  -18.6890  -26.5470   21.8410 C   0  0  0  0  0  2  0  0  0  0  0  0
  -19.5340  -28.6130   23.1010 C   0  0  0  0  0  0  0  0  0  0  0  0
  -19.2610  -29.8300   23.7610 C   0  0  0  0  0  3  0  0  0  0  0  0
  -17.9370  -30.2830   23.9160 C   0  0  0  0  0  3  0  0  0  0  0  0
  -16.8690  -29.5150   23.4220 C   0  0  0  0  0  3  0  0  0  0  0  0
  -17.1260  -28.2990   22.7650 C   0  0  0  0  0  3  0  0  0  0  0  0
  -25.8990  -32.6340   24.0980 C   0  0  0  0  0  3  0  0  0  0  0  0
  -25.4990  -34.0320   24.3220 N   0  0  0  0  0  0  0  0  0  0  0  0
  -25.8760  -35.0650   23.5590 C   0  0  0  0  0  0  0  0  0  0  0  0
  -26.6630  -34.9470   22.6160 O   0  0  0  0  0  0  0  0  0  0  0  0
  -24.8110  -34.1940   25.0430 H   0  0  0  0  0  0  0  0  0  0  0  0
  -24.1180  -36.7570   22.9440 C   0  0  0  0  0  1  0  0  0  0  0  0
  -25.2880  -36.4500   23.8930 C   0  0  0  0  0  3  0  0  0  0  0  0
  -27.2870  -37.4750   24.8840 C   0  0  0  0  0  1  0  0  0  0  0  0
  -26.2810  -37.5450   23.8280 N   0  0  0  0  0  0  0  0  0  0  0  0
  -25.8230  -38.4500   23.8840 H   0  0  0  0  0  0  0  0  0  0  0  0
  -26.2800  -31.9420   25.4640 C   0  0  1  0  0  0  0  0  0  0  0  0
  -25.0700  -31.6940   26.3950 C   0  0  0  0  0  1  0  0  0  0  0  0
  -26.9680  -30.5800   25.2150 C   0  0  0  0  0  1  0  0  0  0  0  0
  -27.3000  -32.8170   26.2290 C   0  0  0  0  0  1  0  0  0  0  0  0
  2  1  1  1
  3 16  1  0
  4  9  1  0
  5  6  1  0
  5  4  1  0
  7  6  1  0
  7 20  1  0
  7  8  1  0
  9  3  1  0
  9  8  1  0
 10  3  2  0
 12 11  1  0
 13 14  1  0
 13 16  1  0
 14 15  1  6
 14  2  1  0
 14 11  1  0
 16 12  1  0
 17 18  2  0
 18 37  1  0
 19 18  1  0
 19 22  1  0
 20 17  1  0
 20 21  1  0
 21 19  2  0
 22 23  1  0
 23 24  2  0
 25 28  1  0
 25 24  1  0
 26 25  2  0
 27 26  1  0
 27 22  2  0
 28 29  1  0
 29 30  1  0
 30 31  2  0
 32 31  1  0
 32 36  1  0
 33 32  2  0
 34 29  2  0
 34 33  1  0
 35 34  1  0
 37 38  1  0
 38 41  1  0
 38 40  1  0
 39 37  2  0
 42 43  1  0
 42 17  1  0
 44 42  1  0
 45 46  1  0
 45  2  1  0
 46 47  1  0
 48 46  1  0
 49 46  1  0
 50 51  1  0
 50  2  1  0
 51 54  1  0
 51 52  1  0
 53 51  1  0
 55 54  1  0
 55 56  1  0
 57 68  2  0
 58 56  1  0
 58 63  1  0
 59 67  1  0
 59 69  1  0
 60 62  1  0
 61 67  1  0
 62 63  2  0
 62 61  1  0
 64 58  2  0
 65 64  1  0
 65 60  2  0
 66 60  1  0
 66 59  1  0
 67 57  1  0
 69 71  2  0
 70 69  1  0
 72 70  1  0
 73 82  2  0
 73 78  1  0
 74 70  1  0
 74 78  1  0
 75 74  1  0
 76 77  1  0
 76 75  1  0
 77 73  1  0
 78 79  2  0
 79 80  1  0
 81 80  2  0
 82 81  1  0
 83 57  1  0
 83 84  1  0
 83 93  1  0
 84 87  1  0
 85 89  1  0
 85 84  1  0
 86 85  2  0
 89 88  1  0
 91 92  1  0
 91 89  1  0
 91 90  1  0
 93 96  1  1
 93 94  1  0
 95 93  1  0
M  ISO  4   3 100  16 100  55 101  56 101
M  END
>  <TORSDO>  (41) 
F 22

>  <SCORE>  (41) 
-12.201

>  <name>  (41) 
40

>  <ligand_id>  (41) 
40

>  <original_smiles>  (41) 
[H]c1c([H])c([H])c2c(c1[H])C([H])([H])C([H])([H])C([H])([H])C2([H])N([H])C(=O)C1([H])N(C(=O)C([H])(N([H])C(=O)C([H])(N([H])C([H])([H])[H])C([H])([H])[H])C(C([H])([H])[H])(C([H])([H])[H])C([H])([H])[H])C([H])([H])c2c([H])c(OC([H])([H])C([H])([H])[N+]([H])([H])C([H])([H])C(C([H])([H])[H])(C3(C([H])([H])[H])C([H])([H])N(C(=O)N4C([H])([H])C([H])([H])C([H])([H])C([H])(n5nc(-c6c([H])c([H])c(Oc7c([H])c([H])c(F)c([H])c7F)c([H])c6[H])c(C(=O)N([H])[H])c5N([H])[H])C4([H])[H])C([H])([H])C3([H])[H])C([H])([H])[N+]([H])([H])[H])c([H])c([H])c2C1([H])[H]

>  <smiles>  (41) 
[H]c1c([H])c([H])c2c(c1[H])C([H])([H])C([H])([H])C([H])([H])C2([H])N([H])C(=O)C1([H])N(C(=O)C([H])(N([H])C(=O)C([H])(N([H])C([H])([H])[H])C([H])([H])[H])C(C([H])([H])[H])(C([H])([H])[H])C([H])([H])[H])C([H])([H])c2c([H])c(OC([H])([H])C([H])([H])[N+]([H])([H])C([H])([H])C(C([H])([H])[H])(C3(C([H])([H])[H])C([H])([H])N(C(=O)N4C([H])([H])C([H])([H])C([H])([H])C([H])(n5nc(-c6c([H])c([H])c(Oc7c([H])c([H])c(F)c([H])c7F)c([H])c6[H])c(C(=O)N([H])[H])c5N([H])[H])C4([H])[H])C([H])([H])C3([H])[H])C([H])([H])[N+]([H])([H])[H])c([H])c([H])c2C1([H])[H]

$$$$
41:0:0
     RDKit          3D

 86 95  0  0  1  0  0  0  0  0999 V2000
  -29.1750  -20.4490   18.6300 C   0  0  0  0  0  2  0  0  0  0  0  0
  -29.0670  -18.9820   19.1660 C   0  0  0  0  0  3  0  0  0  0  0  0
  -29.1790  -19.5590   20.5720 C   0  0  0  0  0  3  0  0  0  0  0  0
  -28.7730  -21.1130   19.9530 C   0  0  0  0  0  3  0  0  0  0  0  0
  -30.0250  -18.1340   20.0330 C   0  0  0  0  0  3  0  0  0  0  0  0
  -30.5050  -15.2660   19.9540 C   0  0  0  0  0  0  0  0  0  0  0  0
  -30.3990  -12.8740   18.9310 C   0  0  0  0  0  2  0  0  0  0  0  0
  -29.3750  -12.7300   17.7740 C   0  0  0  0  0  2  0  0  0  0  0  0
  -27.9630  -12.4380   18.3130 C   0  0  0  0  0  2  0  0  0  0  0  0
  -27.6130  -13.3380   19.5230 C   0  0  0  0  0  3  0  0  0  0  0  0
  -28.7530  -13.3660   20.5590 C   0  0  0  0  0  2  0  0  0  0  0  0
  -29.9310  -13.9550   19.8820 N   0  0  0  0  0  0  0  0  0  0  0  0
  -31.6590  -15.2960   19.4960 O   0  0  0  0  0  0  0  0  0  0  0  0
  -28.9860  -16.4270   21.5320 C   0  0  0  0  0  1  0  0  0  0  0  0
  -29.7870  -16.5270   20.3090 N   0  0  0  0  0  0  0  0  0  0  0  0
  -25.3020  -13.8630   20.4710 C   0  0  0  0  0  0  0  0  0  0  0  0
  -24.2720  -13.0710   20.8930 C   0  0  0  0  0  0  0  0  0  0  0  0
  -24.7340  -11.7240   20.7730 C   0  0  0  0  0  0  0  0  0  0  0  0
  -26.3240  -13.0020   20.1150 N   0  0  0  0  0  0  0  0  0  0  0  0
  -25.9990  -11.7060   20.3610 N   0  0  0  0  0  0  0  0  0  0  0  0
  -24.0220  -10.4540   20.9690 C   0  0  0  0  0  0  0  0  0  0  0  0
  -24.4810   -9.4830   21.8870 C   0  0  0  0  0  3  0  0  0  0  0  0
  -23.7690   -8.2790   22.0720 C   0  0  0  0  0  3  0  0  0  0  0  0
  -22.5800   -8.0380   21.3410 C   0  0  0  0  0  0  0  0  0  0  0  0
  -22.1390   -8.9970   20.4130 C   0  0  0  0  0  3  0  0  0  0  0  0
  -22.8540  -10.1920   20.2250 C   0  0  0  0  0  3  0  0  0  0  0  0
  -21.8360   -6.8870   21.4410 O   0  0  0  0  0  0  0  0  0  0  0  0
  -21.7540   -6.1790   22.6140 C   0  0  0  0  0  0  0  0  0  0  0  0
  -21.2570   -6.7610   23.8000 C   0  0  0  0  0  3  0  0  0  0  0  0
  -21.1250   -5.9790   24.9650 C   0  0  0  0  0  3  0  0  0  0  0  0
  -21.4770   -4.6160   24.9430 C   0  0  0  0  0  0  0  0  0  0  0  0
  -21.9660   -4.0350   23.7600 C   0  0  0  0  0  3  0  0  0  0  0  0
  -22.1000   -4.8130   22.5970 C   0  0  0  0  0  0  0  0  0  0  0  0
  -22.5520   -4.2440   21.4540 F   0  0  0  0  0  0  0  0  0  0  0  0
  -21.3430   -3.8630   26.0590 F   0  0  0  0  0  0  0  0  0  0  0  0
  -22.8990  -13.5330   21.2900 C   0  0  0  0  0  0  0  0  0  0  0  0
  -22.2440  -12.8080   22.1890 N   0  0  0  0  0  0  0  0  0  0  0  0
  -22.4210  -14.5710   20.8370 O   0  0  0  0  0  0  0  0  0  0  0  0
  -22.6450  -11.9670   22.5770 H   0  0  0  0  0  0  0  0  0  0  0  0
  -21.3260  -13.1000   22.4970 H   0  0  0  0  0  0  0  0  0  0  0  0
  -25.4490  -15.2400   20.3320 N   0  0  0  0  0  0  0  0  0  0  0  0
  -24.6990  -15.8920   20.5320 H   0  0  0  0  0  0  0  0  0  0  0  0
  -26.2680  -15.6850   19.9410 H   0  0  0  0  0  0  0  0  0  0  0  0
  -29.0260  -22.8190   20.4240 C   0  0  0  0  0  3  0  0  0  0  0  0
  -28.0640  -24.2960   20.0840 C   0  0  0  0  0  3  0  0  0  0  0  0
  -28.2650  -25.9020   20.3510 O   0  0  0  0  0  0  0  0  0  0  0  0
  -24.6840  -31.8260   23.2740 C   0  0  0  0  0  0  0  0  0  0  0  0
  -27.2460  -26.9790   20.2620 C   0  0  0  0  0  0  0  0  0  0  0  0
  -23.4920  -30.4430   21.6230 C   0  0  0  0  0  3  0  0  0  0  0  0
  -24.9440  -28.8450   20.1990 C   0  0  0  0  0  0  0  0  0  0  0  0
  -26.0580  -30.6550   21.4860 C   0  0  0  0  0  2  0  0  0  0  0  0
  -26.1280  -29.2520   20.8250 C   0  0  0  0  0  0  0  0  0  0  0  0
  -27.2740  -28.3430   20.8290 C   0  0  0  0  0  3  0  0  0  0  0  0
  -26.0320  -26.7140   19.5900 C   0  0  0  0  0  3  0  0  0  0  0  0
  -24.9190  -27.5950   19.5600 C   0  0  0  0  0  3  0  0  0  0  0  0
  -23.7250  -29.7670   20.2430 C   0  0  0  0  0  2  0  0  0  0  0  0
  -24.7660  -31.0000   22.1820 N   0  0  0  0  0  0  0  0  0  0  0  0
  -23.5940  -32.1170   23.7910 O   0  0  0  0  0  0  0  0  0  0  0  0
  -22.7880  -29.4450   22.5790 C   0  0  0  0  0  0  0  0  0  0  0  0
  -21.4600  -29.2740   22.4340 N   0  0  0  0  0  0  0  0  0  0  0  0
  -23.4430  -28.8240   23.4200 O   0  0  0  0  0  0  0  0  0  0  0  0
  -20.9860  -29.8280   21.7340 H   0  0  0  0  0  0  0  0  0  0  0  0
  -18.0750  -28.0440   22.8780 C   0  0  0  0  0  0  0  0  0  0  0  0
  -20.6280  -28.3350   23.1960 C   0  0  0  0  0  3  0  0  0  0  0  0
  -20.7540  -26.8980   22.6360 C   0  0  0  0  0  2  0  0  0  0  0  0
  -19.6770  -26.5580   21.6030 C   0  0  0  0  0  2  0  0  0  0  0  0
  -18.2790  -26.6930   22.2140 C   0  0  0  0  0  2  0  0  0  0  0  0
  -19.1780  -28.8210   23.3250 C   0  0  0  0  0  0  0  0  0  0  0  0
  -18.9320  -30.0830   23.9090 C   0  0  0  0  0  3  0  0  0  0  0  0
  -17.6180  -30.5690   24.0480 C   0  0  0  0  0  3  0  0  0  0  0  0
  -16.5310  -29.7890   23.6180 C   0  0  0  0  0  3  0  0  0  0  0  0
  -16.7610  -28.5280   23.0390 C   0  0  0  0  0  3  0  0  0  0  0  0
  -25.9540  -32.4610   23.9160 C   0  0  0  0  0  3  0  0  0  0  0  0
  -25.6500  -33.8680   24.2290 N   0  0  0  0  0  0  0  0  0  0  0  0
  -25.9810  -34.9140   23.4590 C   0  0  0  0  0  0  0  0  0  0  0  0
  -26.6380  -34.7950   22.4210 O   0  0  0  0  0  0  0  0  0  0  0  0
  -25.0600  -34.0330   25.0310 H   0  0  0  0  0  0  0  0  0  0  0  0
  -24.2460  -36.7100   23.1410 C   0  0  0  0  0  1  0  0  0  0  0  0
  -25.5140  -36.3130   23.9120 C   0  0  0  0  0  3  0  0  0  0  0  0
  -27.6760  -37.2130   24.6490 C   0  0  0  0  0  1  0  0  0  0  0  0
  -26.5440  -37.3620   23.7400 N   0  0  0  0  0  0  0  0  0  0  0  0
  -26.1440  -38.2860   23.8820 H   0  0  0  0  0  0  0  0  0  0  0  0
  -26.4290  -31.7050   25.2200 C   0  0  1  0  0  0  0  0  0  0  0  0
  -25.3080  -31.4960   26.2670 C   0  0  0  0  0  1  0  0  0  0  0  0
  -27.0010  -30.3120   24.8710 C   0  0  0  0  0  1  0  0  0  0  0  0
  -27.5750  -32.4980   25.8920 C   0  0  0  0  0  1  0  0  0  0  0  0
  1  4  1  0
  2  1  1  0
  2  5  1  0
  2  3  1  0
  4 44  1  0
  4  3  1  0
  5 15  1  0
  5  3  1  0
  6 15  1  0
  7 12  1  0
  8  9  1  0
  8  7  1  0
  9 10  1  0
 10 19  1  0
 10 11  1  0
 12  6  1  0
 12 11  1  0
 13  6  2  0
 15 14  1  0
 16 17  2  0
 17 36  1  0
 18 17  1  0
 18 21  1  0
 19 20  1  0
 19 16  1  0
 20 18  2  0
 21 22  1  0
 22 23  2  0
 24 27  1  0
 24 23  1  0
 25 24  2  0
 26 25  1  0
 26 21  2  0
 27 28  1  0
 28 29  1  0
 29 30  2  0
 31 30  1  0
 31 35  1  0
 32 31  2  0
 33 28  2  0
 33 32  1  0
 34 33  1  0
 36 37  1  0
 37 40  1  0
 37 39  1  0
 38 36  2  0
 41 16  1  0
 41 42  1  0
 43 41  1  0
 45 46  1  0
 45 44  2  0
 47 58  2  0
 47 73  1  0
 48 46  1  0
 48 53  1  0
 49 57  1  0
 49 59  1  0
 50 56  1  0
 50 52  1  0
 51 57  1  0
 52 53  2  0
 52 51  1  0
 54 48  2  0
 55 54  1  0
 55 50  2  0
 56 49  1  0
 57 47  1  0
 59 61  2  0
 60 59  1  0
 60 64  1  0
 62 60  1  0
 63 72  2  0
 63 68  1  0
 64 68  1  0
 65 64  1  0
 66 67  1  0
 66 65  1  0
 67 63  1  0
 68 69  2  0
 69 70  1  0
 71 70  2  0
 72 71  1  0
 73 74  1  0
 73 83  1  0
 74 77  1  0
 75 79  1  0
 75 74  1  0
 76 75  2  0
 78 79  1  0
 81 82  1  0
 81 79  1  0
 81 80  1  0
 83 86  1  1
 83 84  1  0
 85 83  1  0
M  ISO  4   6 100  15 100  45 101  46 101
M  END
>  <TORSDO>  (42) 
F 18

>  <SCORE>  (42) 
-14.839

>  <name>  (42) 
41

>  <ligand_id>  (42) 
41

>  <original_smiles>  (42) 
[H]c1c([H])c([H])c2c(c1[H])C([H])([H])C([H])([H])C([H])([H])C2([H])N([H])C(=O)C1([H])N(C(=O)C([H])(N([H])C(=O)C([H])(N([H])C([H])([H])[H])C([H])([H])[H])C(C([H])([H])[H])(C([H])([H])[H])C([H])([H])[H])C([H])([H])c2c([H])c(OC([H])([H])C([H])([H])C3([H])C([H])([H])C4([H])C([H])(N(C(=O)N5C([H])([H])C([H])([H])C([H])([H])C([H])(n6nc(-c7c([H])c([H])c(Oc8c([H])c([H])c(F)c([H])c8F)c([H])c7[H])c(C(=O)N([H])[H])c6N([H])[H])C5([H])[H])C([H])([H])[H])C34[H])c([H])c([H])c2C1([H])[H]

>  <smiles>  (42) 
[H]c1c([H])c([H])c2c(c1[H])C([H])([H])C([H])([H])C([H])([H])C2([H])N([H])C(=O)C1([H])N(C(=O)C([H])(N([H])C(=O)C([H])(N([H])C([H])([H])[H])C([H])([H])[H])C(C([H])([H])[H])(C([H])([H])[H])C([H])([H])[H])C([H])([H])c2c([H])c(OC([H])([H])C([H])([H])C3([H])C([H])([H])C4([H])C([H])(N(C(=O)N5C([H])([H])C([H])([H])C([H])([H])C([H])(n6nc(-c7c([H])c([H])c(Oc8c([H])c([H])c(F)c([H])c8F)c([H])c7[H])c(C(=O)N([H])[H])c6N([H])[H])C5([H])[H])C([H])([H])[H])C34[H])c([H])c([H])c2C1([H])[H]

$$$$
42:0:0
     RDKit          3D

 86 95  0  0  1  0  0  0  0  0999 V2000
  -29.9490  -21.9270   19.2630 C   0  0  0  0  0  2  0  0  0  0  0  0
  -30.1340  -19.2000   18.8650 C   0  0  0  0  0  2  0  0  0  0  0  0
  -29.3370  -20.5470   18.8800 C   0  0  0  0  0  3  0  0  0  0  0  0
  -28.7330  -20.3460   20.2680 C   0  0  0  0  0  3  0  0  0  0  0  0
  -28.8960  -22.2390   20.3460 C   0  0  0  0  0  3  0  0  0  0  0  0
  -29.7570  -18.7530   20.2890 C   0  0  0  0  0  3  0  0  0  0  0  0
  -30.2810  -15.6520   20.2290 C   0  0  0  0  0  0  0  0  0  0  0  0
  -30.3560  -13.1310   19.3830 C   0  0  0  0  0  2  0  0  0  0  0  0
  -29.4460  -12.7640   18.1790 C   0  0  0  0  0  2  0  0  0  0  0  0
  -28.0250  -12.4140   18.6490 C   0  0  0  0  0  2  0  0  0  0  0  0
  -27.5350  -13.3970   19.7390 C   0  0  0  0  0  3  0  0  0  0  0  0
  -28.5830  -13.6830   20.8380 C   0  0  0  0  0  2  0  0  0  0  0  0
  -29.7500  -14.2970   20.1660 N   0  0  0  0  0  0  0  0  0  0  0  0
  -31.5090  -15.6020   20.0330 O   0  0  0  0  0  0  0  0  0  0  0  0
  -29.5250  -17.0030   20.3190 N   0  0  0  0  0  0  0  0  0  0  0  0
  -28.5430  -16.7940   20.4340 H   0  0  0  0  0  0  0  0  0  0  0  0
  -25.1820  -13.9010   20.5540 C   0  0  0  0  0  0  0  0  0  0  0  0
  -24.1360  -13.1060   20.9270 C   0  0  0  0  0  0  0  0  0  0  0  0
  -24.6170  -11.7610   20.8650 C   0  0  0  0  0  0  0  0  0  0  0  0
  -26.2280  -13.0420   20.2760 N   0  0  0  0  0  0  0  0  0  0  0  0
  -25.9040  -11.7460   20.5320 N   0  0  0  0  0  0  0  0  0  0  0  0
  -23.9030  -10.4890   21.0460 C   0  0  0  0  0  0  0  0  0  0  0  0
  -24.3360   -9.5230   21.9790 C   0  0  0  0  0  3  0  0  0  0  0  0
  -23.6160   -8.3200   22.1500 C   0  0  0  0  0  3  0  0  0  0  0  0
  -22.4510   -8.0740   21.3860 C   0  0  0  0  0  0  0  0  0  0  0  0
  -22.0370   -9.0300   20.4410 C   0  0  0  0  0  3  0  0  0  0  0  0
  -22.7570  -10.2240   20.2690 C   0  0  0  0  0  3  0  0  0  0  0  0
  -21.7040   -6.9230   21.4660 O   0  0  0  0  0  0  0  0  0  0  0  0
  -21.6270   -6.1940   22.6260 C   0  0  0  0  0  0  0  0  0  0  0  0
  -21.1140   -6.7450   23.8200 C   0  0  0  0  0  3  0  0  0  0  0  0
  -20.9880   -5.9390   24.9690 C   0  0  0  0  0  3  0  0  0  0  0  0
  -21.3660   -4.5840   24.9250 C   0  0  0  0  0  0  0  0  0  0  0  0
  -21.8730   -4.0330   23.7350 C   0  0  0  0  0  3  0  0  0  0  0  0
  -21.9990   -4.8350   22.5880 C   0  0  0  0  0  0  0  0  0  0  0  0
  -22.4680   -4.2930   21.4390 F   0  0  0  0  0  0  0  0  0  0  0  0
  -21.2380   -3.8080   26.0270 F   0  0  0  0  0  0  0  0  0  0  0  0
  -22.7390  -13.5670   21.2200 C   0  0  0  0  0  0  0  0  0  0  0  0
  -22.0290  -12.8560   22.0890 N   0  0  0  0  0  0  0  0  0  0  0  0
  -22.2860  -14.5920   20.7140 O   0  0  0  0  0  0  0  0  0  0  0  0
  -22.4090  -12.0270   22.5210 H   0  0  0  0  0  0  0  0  0  0  0  0
  -21.0910  -13.1470   22.3280 H   0  0  0  0  0  0  0  0  0  0  0  0
  -25.3250  -15.2760   20.3940 N   0  0  0  0  0  0  0  0  0  0  0  0
  -24.5490  -15.9160   20.5240 H   0  0  0  0  0  0  0  0  0  0  0  0
  -26.1500  -15.7270   20.0210 H   0  0  0  0  0  0  0  0  0  0  0  0
  -27.9250  -23.8990   20.1580 C   0  0  0  0  0  2  0  0  0  0  0  0
  -28.1110  -25.6270   20.3170 O   0  0  0  0  0  0  0  0  0  0  0  0
  -24.5560  -31.8320   23.2640 C   0  0  0  0  0  0  0  0  0  0  0  0
  -27.1270  -26.8170   20.2580 C   0  0  0  0  0  0  0  0  0  0  0  0
  -23.3860  -30.4460   21.6050 C   0  0  0  0  0  3  0  0  0  0  0  0
  -24.8490  -28.8170   20.1930 C   0  0  0  0  0  0  0  0  0  0  0  0
  -25.9630  -30.6060   21.5050 C   0  0  0  0  0  2  0  0  0  0  0  0
  -26.0370  -29.1820   20.8380 C   0  0  0  0  0  0  0  0  0  0  0  0
  -27.1620  -28.2090   20.8390 C   0  0  0  0  0  3  0  0  0  0  0  0
  -25.9040  -26.6510   19.5610 C   0  0  0  0  0  3  0  0  0  0  0  0
  -24.8190  -27.5780   19.5310 C   0  0  0  0  0  3  0  0  0  0  0  0
  -23.6380  -29.7610   20.2310 C   0  0  0  0  0  2  0  0  0  0  0  0
  -24.6580  -30.9930   22.1770 N   0  0  0  0  0  0  0  0  0  0  0  0
  -23.4590  -32.1260   23.7670 O   0  0  0  0  0  0  0  0  0  0  0  0
  -22.6650  -29.4580   22.5610 C   0  0  0  0  0  0  0  0  0  0  0  0
  -21.3330  -29.3050   22.4240 N   0  0  0  0  0  0  0  0  0  0  0  0
  -23.3150  -28.8270   23.3970 O   0  0  0  0  0  0  0  0  0  0  0  0
  -20.8590  -29.8640   21.7290 H   0  0  0  0  0  0  0  0  0  0  0  0
  -17.9390  -28.1050   22.9130 C   0  0  0  0  0  0  0  0  0  0  0  0
  -20.5000  -28.3630   23.1830 C   0  0  0  0  0  3  0  0  0  0  0  0
  -20.5970  -26.9370   22.5930 C   0  0  0  0  0  2  0  0  0  0  0  0
  -19.4970  -26.6300   21.5710 C   0  0  0  0  0  2  0  0  0  0  0  0
  -18.1140  -26.7680   22.2140 C   0  0  0  0  0  2  0  0  0  0  0  0
  -19.0580  -28.8610   23.3530 C   0  0  0  0  0  0  0  0  0  0  0  0
  -18.8370  -30.1120   23.9720 C   0  0  0  0  0  3  0  0  0  0  0  0
  -17.5320  -30.6060   24.1500 C   0  0  0  0  0  3  0  0  0  0  0  0
  -16.4280  -29.8480   23.7230 C   0  0  0  0  0  3  0  0  0  0  0  0
  -16.6320  -28.5980   23.1110 C   0  0  0  0  0  3  0  0  0  0  0  0
  -25.8140  -32.4780   23.9200 C   0  0  0  0  0  3  0  0  0  0  0  0
  -25.4970  -33.8860   24.2350 N   0  0  0  0  0  0  0  0  0  0  0  0
  -25.8310  -34.9390   23.4770 C   0  0  0  0  0  0  0  0  0  0  0  0
  -26.4970  -34.8290   22.4450 O   0  0  0  0  0  0  0  0  0  0  0  0
  -24.9040  -34.0430   25.0350 H   0  0  0  0  0  0  0  0  0  0  0  0
  -24.1040  -36.7430   23.1450 C   0  0  0  0  0  1  0  0  0  0  0  0
  -25.3580  -36.3360   23.9350 C   0  0  0  0  0  3  0  0  0  0  0  0
  -27.5020  -37.2340   24.7310 C   0  0  0  0  0  1  0  0  0  0  0  0
  -26.3910  -37.3860   23.7950 N   0  0  0  0  0  0  0  0  0  0  0  0
  -25.9870  -38.3090   23.9300 H   0  0  0  0  0  0  0  0  0  0  0  0
  -26.2800  -31.7300   25.2310 C   0  0  1  0  0  0  0  0  0  0  0  0
  -25.1490  -31.5250   26.2690 C   0  0  0  0  0  1  0  0  0  0  0  0
  -26.8620  -30.3380   24.8990 C   0  0  0  0  0  1  0  0  0  0  0  0
  -27.4160  -32.5270   25.9140 C   0  0  0  0  0  1  0  0  0  0  0  0
  1  5  1  0
  2  6  1  0
  3  2  1  0
  3  1  1  0
  3  4  1  0
  4  6  1  0
  4  5  1  0
  6 15  1  0
  7 15  1  0
  8 13  1  0
  9 10  1  0
  9  8  1  0
 10 11  1  0
 11 20  1  0
 11 12  1  0
 13  7  1  0
 13 12  1  0
 14  7  2  0
 15 16  1  0
 17 18  2  0
 18 37  1  0
 19 18  1  0
 19 22  1  0
 20 21  1  0
 20 17  1  0
 21 19  2  0
 22 23  1  0
 23 24  2  0
 25 28  1  0
 25 24  1  0
 26 25  2  0
 27 26  1  0
 27 22  2  0
 28 29  1  0
 29 30  1  0
 30 31  2  0
 32 31  1  0
 32 36  1  0
 33 32  2  0
 34 29  2  0
 34 33  1  0
 35 34  1  0
 37 38  1  0
 38 41  1  0
 38 40  1  0
 39 37  2  0
 42 43  1  0
 42 17  1  0
 44 42  1  0
 45 46  1  0
 45  5  1  0
 47 58  2  0
 47 73  1  0
 48 46  1  0
 48 53  1  0
 49 57  1  0
 49 59  1  0
 50 56  1  0
 50 52  1  0
 51 57  1  0
 52 53  2  0
 52 51  1  0
 54 48  2  0
 55 54  1  0
 55 50  2  0
 56 49  1  0
 57 47  1  0
 59 61  2  0
 60 59  1  0
 60 64  1  0
 62 60  1  0
 63 72  2  0
 63 68  1  0
 64 68  1  0
 65 64  1  0
 66 67  1  0
 66 65  1  0
 67 63  1  0
 68 69  2  0
 69 70  1  0
 71 70  2  0
 72 71  1  0
 73 74  1  0
 73 83  1  0
 74 77  1  0
 75 79  1  0
 75 74  1  0
 76 75  2  0
 78 79  1  0
 81 82  1  0
 81 79  1  0
 81 80  1  0
 83 86  1  1
 83 84  1  0
 85 83  1  0
M  ISO  4   7 100  15 100  45 101  46 101
M  END
>  <TORSDO>  (43) 
F 17

>  <SCORE>  (43) 
-16.428

>  <name>  (43) 
42

>  <ligand_id>  (43) 
42

>  <original_smiles>  (43) 
[H]c1c([H])c([H])c2c(c1[H])C([H])([H])C([H])([H])C([H])([H])C2([H])N([H])C(=O)C1([H])N(C(=O)C([H])(N([H])C(=O)C([H])(N([H])C([H])([H])[H])C([H])([H])[H])C(C([H])([H])[H])(C([H])([H])[H])C([H])([H])[H])C([H])([H])c2c([H])c(OC([H])([H])C3([H])C([H])([H])C4([H])C([H])([H])C([H])(N([H])C(=O)N5C([H])([H])C([H])([H])C([H])([H])C([H])(n6nc(-c7c([H])c([H])c(Oc8c([H])c([H])c(F)c([H])c8F)c([H])c7[H])c(C(=O)N([H])[H])c6N([H])[H])C5([H])[H])C34[H])c([H])c([H])c2C1([H])[H]

>  <smiles>  (43) 
[H]c1c([H])c([H])c2c(c1[H])C([H])([H])C([H])([H])C([H])([H])C2([H])N([H])C(=O)C1([H])N(C(=O)C([H])(N([H])C(=O)C([H])(N([H])C([H])([H])[H])C([H])([H])[H])C(C([H])([H])[H])(C([H])([H])[H])C([H])([H])[H])C([H])([H])c2c([H])c(OC([H])([H])C3([H])C([H])([H])C4([H])C([H])([H])C([H])(N([H])C(=O)N5C([H])([H])C([H])([H])C([H])([H])C([H])(n6nc(-c7c([H])c([H])c(Oc8c([H])c([H])c(F)c([H])c8F)c([H])c7[H])c(C(=O)N([H])[H])c6N([H])[H])C5([H])[H])C34[H])c([H])c([H])c2C1([H])[H]

$$$$
43:0:0
     RDKit          3D

 92101  0  0  1  0  0  0  0  0999 V2000
  -28.1920  -22.2770   21.1210 C   0  0  0  0  0  2  0  0  0  0  0  0
  -27.8840  -19.5300   20.3040 C   0  0  0  0  0  2  0  0  0  0  0  0
  -27.5770  -21.0710   20.3150 C   0  0  0  0  0  3  0  0  0  0  0  0
  -28.8810  -21.2090   19.4430 C   0  0  0  0  0  3  0  0  0  0  0  0
  -28.8360  -22.9130   19.9060 C   0  0  0  0  0  3  0  0  0  0  0  0
  -29.3890  -19.6040   20.0220 C   0  0  1  0  0  0  0  0  0  0  0  0
  -30.2660  -19.7920   21.2770 C   0  0  0  0  0  0  0  0  0  0  0  0
  -30.0390  -19.0220   22.3360 N   0  0  0  0  0  0  0  0  0  0  0  0
  -31.1560  -20.6390   21.2930 O   0  0  0  0  0  0  0  0  0  0  0  0
  -29.2950  -18.3390   22.3210 H   0  0  0  0  0  0  0  0  0  0  0  0
  -30.5990  -19.1210   23.1700 H   0  0  0  0  0  0  0  0  0  0  0  0
  -27.9940  -24.3800   19.3570 C   0  0  0  0  0  2  0  0  0  0  0  0
  -28.1440  -25.9760   19.6500 O   0  0  0  0  0  0  0  0  0  0  0  0
  -24.7010  -31.7060   23.0270 C   0  0  0  0  0  0  0  0  0  0  0  0
  -27.1080  -27.0330   19.6470 C   0  0  0  0  0  0  0  0  0  0  0  0
  -23.4160  -30.3630   21.4120 C   0  0  0  0  0  3  0  0  0  0  0  0
  -24.7860  -28.8510   19.8280 C   0  0  0  0  0  0  0  0  0  0  0  0
  -25.9620  -30.6270   21.1080 C   0  0  0  0  0  2  0  0  0  0  0  0
  -26.0030  -29.2520   20.3890 C   0  0  0  0  0  0  0  0  0  0  0  0
  -27.1560  -28.3620   20.2820 C   0  0  0  0  0  3  0  0  0  0  0  0
  -25.8620  -26.7790   19.0310 C   0  0  0  0  0  3  0  0  0  0  0  0
  -24.7350  -27.6340   19.1290 C   0  0  0  0  0  3  0  0  0  0  0  0
  -23.5600  -29.7440   19.9950 C   0  0  0  0  0  2  0  0  0  0  0  0
  -24.7170  -30.9230   21.9020 N   0  0  0  0  0  0  0  0  0  0  0  0
  -23.6460  -31.9580   23.6310 O   0  0  0  0  0  0  0  0  0  0  0  0
  -22.8010  -29.3160   22.3760 C   0  0  0  0  0  0  0  0  0  0  0  0
  -21.4810  -29.0790   22.2750 N   0  0  0  0  0  0  0  0  0  0  0  0
  -23.5170  -28.7180   23.1830 O   0  0  0  0  0  0  0  0  0  0  0  0
  -20.9520  -29.6170   21.6010 H   0  0  0  0  0  0  0  0  0  0  0  0
  -18.1980  -27.6170   22.7630 C   0  0  0  0  0  0  0  0  0  0  0  0
  -20.7250  -28.0900   23.0490 C   0  0  0  0  0  3  0  0  0  0  0  0
  -20.9460  -26.6620   22.4970 C   0  0  0  0  0  2  0  0  0  0  0  0
  -19.8850  -26.2400   21.4750 C   0  0  0  0  0  2  0  0  0  0  0  0
  -18.4890  -26.2800   22.1030 C   0  0  0  0  0  2  0  0  0  0  0  0
  -19.2460  -28.4740   23.1930 C   0  0  0  0  0  0  0  0  0  0  0  0
  -18.9170  -29.7180   23.7710 C   0  0  0  0  0  3  0  0  0  0  0  0
  -17.5730  -30.1100   23.9220 C   0  0  0  0  0  3  0  0  0  0  0  0
  -16.5400  -29.2530   23.5060 C   0  0  0  0  0  3  0  0  0  0  0  0
  -16.8530  -28.0080   22.9320 C   0  0  0  0  0  3  0  0  0  0  0  0
  -26.0050  -32.3380   23.6020 C   0  0  0  0  0  3  0  0  0  0  0  0
  -26.6090  -31.5190   24.8090 C   0  0  1  0  0  0  0  0  0  0  0  0
  -25.5880  -31.2190   25.9320 C   0  0  0  0  0  1  0  0  0  0  0  0
  -27.1860  -30.1680   24.3290 C   0  0  0  0  0  1  0  0  0  0  0  0
  -27.7890  -32.3020   25.4340 C   0  0  0  0  0  1  0  0  0  0  0  0
  -25.6930  -33.7130   24.0260 N   0  0  0  0  0  0  0  0  0  0  0  0
  -26.0120  -34.8200   23.3410 C   0  0  0  0  0  0  0  0  0  0  0  0
  -26.6650  -34.7890   22.2950 O   0  0  0  0  0  0  0  0  0  0  0  0
  -25.1090  -33.8100   24.8450 H   0  0  0  0  0  0  0  0  0  0  0  0
  -24.2870  -36.6430   23.1410 C   0  0  0  0  0  1  0  0  0  0  0  0
  -25.5360  -36.1740   23.9050 C   0  0  0  0  0  3  0  0  0  0  0  0
  -27.6780  -36.9980   24.7800 C   0  0  0  0  0  1  0  0  0  0  0  0
  -26.5710  -37.2310   23.8570 N   0  0  0  0  0  0  0  0  0  0  0  0
  -26.1680  -38.1400   24.0670 H   0  0  0  0  0  0  0  0  0  0  0  0
  -30.0310  -18.1190   19.2860 C   0  0  0  0  0  2  0  0  0  0  0  0
  -30.6200  -15.2890   19.5070 C   0  0  0  0  0  0  0  0  0  0  0  0
  -30.5320  -12.8420   18.7060 C   0  0  0  0  0  2  0  0  0  0  0  0
  -29.5040  -12.6400   17.5660 C   0  0  0  0  0  2  0  0  0  0  0  0
  -28.0990  -12.3840   18.1390 C   0  0  0  0  0  2  0  0  0  0  0  0
  -27.7520  -13.3600   19.2910 C   0  0  0  0  0  3  0  0  0  0  0  0
  -28.8960  -13.5140   20.3150 C   0  0  0  0  0  2  0  0  0  0  0  0
  -30.0710  -13.9870   19.5670 N   0  0  0  0  0  0  0  0  0  0  0  0
  -31.7950  -15.3210   19.1180 O   0  0  0  0  0  0  0  0  0  0  0  0
  -29.8470  -16.5250   19.6750 N   0  0  0  0  0  0  0  0  0  0  0  0
  -28.9140  -16.3220   20.0020 H   0  0  0  0  0  0  0  0  0  0  0  0
  -25.4820  -13.9160   20.3150 C   0  0  0  0  0  0  0  0  0  0  0  0
  -24.4540  -13.1360   20.7650 C   0  0  0  0  0  0  0  0  0  0  0  0
  -24.8940  -11.7820   20.6280 C   0  0  0  0  0  0  0  0  0  0  0  0
  -26.4790  -13.0400   19.9240 N   0  0  0  0  0  0  0  0  0  0  0  0
  -26.1430  -11.7480   20.1770 N   0  0  0  0  0  0  0  0  0  0  0  0
  -24.1710  -10.5210   20.8410 C   0  0  0  0  0  0  0  0  0  0  0  0
  -24.5890   -9.5840   21.8120 C   0  0  0  0  0  3  0  0  0  0  0  0
  -23.8630   -8.3890   22.0120 C   0  0  0  0  0  3  0  0  0  0  0  0
  -22.7060   -8.1240   21.2430 C   0  0  0  0  0  0  0  0  0  0  0  0
  -22.3070   -9.0500   20.2640 C   0  0  0  0  0  3  0  0  0  0  0  0
  -23.0330  -10.2360   20.0610 C   0  0  0  0  0  3  0  0  0  0  0  0
  -21.9540   -6.9790   21.3530 O   0  0  0  0  0  0  0  0  0  0  0  0
  -21.7520   -6.3630   22.5610 C   0  0  0  0  0  0  0  0  0  0  0  0
  -21.1440   -7.0320   23.6460 C   0  0  0  0  0  3  0  0  0  0  0  0
  -20.8930   -6.3400   24.8480 C   0  0  0  0  0  3  0  0  0  0  0  0
  -21.2370   -4.9810   24.9630 C   0  0  0  0  0  0  0  0  0  0  0  0
  -21.8360   -4.3110   23.8830 C   0  0  0  0  0  3  0  0  0  0  0  0
  -22.0890   -5.0000   22.6830 C   0  0  0  0  0  0  0  0  0  0  0  0
  -22.6480   -4.3450   21.6370 F   0  0  0  0  0  0  0  0  0  0  0  0
  -20.9890   -4.3130   26.1150 F   0  0  0  0  0  0  0  0  0  0  0  0
  -23.1020  -13.6160   21.2000 C   0  0  0  0  0  0  0  0  0  0  0  0
  -22.4790  -12.9200   22.1440 N   0  0  0  0  0  0  0  0  0  0  0  0
  -22.6110  -14.6450   20.7370 O   0  0  0  0  0  0  0  0  0  0  0  0
  -22.8910  -12.0890   22.5390 H   0  0  0  0  0  0  0  0  0  0  0  0
  -21.5750  -13.2260   22.4780 H   0  0  0  0  0  0  0  0  0  0  0  0
  -25.6440  -15.2910   20.1780 N   0  0  0  0  0  0  0  0  0  0  0  0
  -24.8960  -15.9410   20.3920 H   0  0  0  0  0  0  0  0  0  0  0  0
  -26.4340  -15.7340   19.7270 H   0  0  0  0  0  0  0  0  0  0  0  0
  3  2  1  0
  3  1  1  0
  4  5  1  0
  4  6  1  0
  4  3  1  0
  5  1  1  0
  6  2  1  0
  6  7  1  0
  7  9  2  0
  7  8  1  0
  8 11  1  0
 10  8  1  0
 12 13  1  0
 12  5  1  0
 14 40  1  0
 14 25  2  0
 15 13  1  0
 15 20  1  0
 16 24  1  0
 16 26  1  0
 17 23  1  0
 17 19  1  0
 18 24  1  0
 19 18  1  0
 20 19  2  0
 21 22  1  0
 21 15  2  0
 22 17  2  0
 23 16  1  0
 24 14  1  0
 26 28  2  0
 27 26  1  0
 27 31  1  0
 29 27  1  0
 30 39  2  0
 30 35  1  0
 31 35  1  0
 32 31  1  0
 33 34  1  0
 33 32  1  0
 34 30  1  0
 35 36  2  0
 36 37  1  0
 38 37  2  0
 39 38  1  0
 40 45  1  0
 40 41  1  0
 41 44  1  1
 41 42  1  0
 43 41  1  0
 45 48  1  0
 46 50  1  0
 46 45  1  0
 47 46  2  0
 49 50  1  0
 52 50  1  0
 52 53  1  0
 52 51  1  0
 54 63  1  0
  6 54  1  6
 55 61  1  0
 55 63  1  0
 56 61  1  0
 57 58  1  0
 57 56  1  0
 58 59  1  0
 59 68  1  0
 59 60  1  0
 61 60  1  0
 62 55  2  0
 63 64  1  0
 65 66  2  0
 66 85  1  0
 67 66  1  0
 67 70  1  0
 68 69  1  0
 68 65  1  0
 69 67  2  0
 70 71  1  0
 71 72  2  0
 73 76  1  0
 73 72  1  0
 74 73  2  0
 75 74  1  0
 75 70  2  0
 76 77  1  0
 77 82  2  0
 77 78  1  0
 78 79  2  0
 79 80  1  0
 80 84  1  0
 81 80  2  0
 82 81  1  0
 83 82  1  0
 85 86  1  0
 86 89  1  0
 86 88  1  0
 87 85  2  0
 90 65  1  0
 90 91  1  0
 92 90  1  0
M  ISO  4  12 101  13 101  55 100  63 100
M  END
>  <TORSDO>  (44) 
F 19

>  <SCORE>  (44) 
-13.805

>  <name>  (44) 
43

>  <ligand_id>  (44) 
43

>  <original_smiles>  (44) 
[H]c1c([H])c([H])c2c(c1[H])C([H])([H])C([H])([H])C([H])([H])C2([H])N([H])C(=O)C1([H])N(C(=O)C([H])(N([H])C(=O)C([H])(N([H])C([H])([H])[H])C([H])([H])[H])C(C([H])([H])[H])(C([H])([H])[H])C([H])([H])[H])C([H])([H])c2c([H])c(OC([H])([H])C3([H])C([H])([H])C4([H])C([H])([H])C(C(=O)N([H])[H])(C([H])([H])N([H])C(=O)N5C([H])([H])C([H])([H])C([H])([H])C([H])(n6nc(-c7c([H])c([H])c(Oc8c([H])c([H])c(F)c([H])c8F)c([H])c7[H])c(C(=O)N([H])[H])c6N([H])[H])C5([H])[H])C34[H])c([H])c([H])c2C1([H])[H]

>  <smiles>  (44) 
[H]c1c([H])c([H])c2c(c1[H])C([H])([H])C([H])([H])C([H])([H])C2([H])N([H])C(=O)C1([H])N(C(=O)C([H])(N([H])C(=O)C([H])(N([H])C([H])([H])[H])C([H])([H])[H])C(C([H])([H])[H])(C([H])([H])[H])C([H])([H])[H])C([H])([H])c2c([H])c(OC([H])([H])C3([H])C([H])([H])C4([H])C([H])([H])C(C(=O)N([H])[H])(C([H])([H])N([H])C(=O)N5C([H])([H])C([H])([H])C([H])([H])C([H])(n6nc(-c7c([H])c([H])c(Oc8c([H])c([H])c(F)c([H])c8F)c([H])c7[H])c(C(=O)N([H])[H])c6N([H])[H])C5([H])[H])C34[H])c([H])c([H])c2C1([H])[H]

$$$$
44:0:0
     RDKit          3D

 89 97  0  0  1  0  0  0  0  0999 V2000
  -28.5100  -19.8230   18.8730 C   0  0  0  0  0  3  0  0  0  0  0  0
  -27.9410  -22.2840   18.8620 C   0  0  0  0  0  3  0  0  0  0  0  0
  -27.9370  -20.9830   18.2730 C   0  0  0  0  0  0  0  0  0  0  0  0
  -29.1730  -19.8320   20.1220 C   0  0  0  0  0  0  0  0  0  0  0  0
  -28.5240  -22.5890   20.1140 C   0  0  0  0  0  0  0  0  0  0  0  0
  -29.1450  -21.2840   20.7000 C   0  0  0  0  0  0  0  0  0  0  0  0
  -27.2750  -20.8220   16.9120 C   0  0  0  0  0  1  0  0  0  0  0  0
  -29.8300  -21.4700   22.0370 C   0  0  0  0  0  1  0  0  0  0  0  0
  -29.9350  -18.3090   20.6260 C   0  0  0  0  0  2  0  0  0  0  0  0
  -30.4660  -15.3650   20.3660 C   0  0  0  0  0  0  0  0  0  0  0  0
  -30.5040  -12.9000   19.5080 C   0  0  0  0  0  2  0  0  0  0  0  0
  -29.6100  -12.6330   18.2720 C   0  0  0  0  0  2  0  0  0  0  0  0
  -28.1650  -12.3320   18.7010 C   0  0  0  0  0  2  0  0  0  0  0  0
  -27.6710  -13.3100   19.7890 C   0  0  0  0  0  3  0  0  0  0  0  0
  -28.6950  -13.5130   20.9260 C   0  0  0  0  0  2  0  0  0  0  0  0
  -29.9140  -14.0490   20.2940 N   0  0  0  0  0  0  0  0  0  0  0  0
  -31.6990  -15.3560   20.2250 O   0  0  0  0  0  0  0  0  0  0  0  0
  -29.6920  -16.6480   20.3990 N   0  0  0  0  0  0  0  0  0  0  0  0
  -28.7040  -16.4430   20.3950 H   0  0  0  0  0  0  0  0  0  0  0  0
  -25.2830  -13.8440   20.4890 C   0  0  0  0  0  0  0  0  0  0  0  0
  -24.2240  -13.0560   20.8430 C   0  0  0  0  0  0  0  0  0  0  0  0
  -24.7080  -11.7120   20.8350 C   0  0  0  0  0  0  0  0  0  0  0  0
  -26.3400  -12.9800   20.2780 N   0  0  0  0  0  0  0  0  0  0  0  0
  -26.0060  -11.6920   20.5530 N   0  0  0  0  0  0  0  0  0  0  0  0
  -23.9930  -10.4420   21.0180 C   0  0  0  0  0  0  0  0  0  0  0  0
  -24.4020   -9.4950   21.9820 C   0  0  0  0  0  3  0  0  0  0  0  0
  -23.6830   -8.2910   22.1530 C   0  0  0  0  0  3  0  0  0  0  0  0
  -22.5400   -8.0280   21.3610 C   0  0  0  0  0  0  0  0  0  0  0  0
  -22.1510   -8.9630   20.3870 C   0  0  0  0  0  3  0  0  0  0  0  0
  -22.8710  -10.1580   20.2130 C   0  0  0  0  0  3  0  0  0  0  0  0
  -21.7970   -6.8740   21.4400 O   0  0  0  0  0  0  0  0  0  0  0  0
  -21.6960   -6.1630   22.6100 C   0  0  0  0  0  0  0  0  0  0  0  0
  -21.1610   -6.7350   23.7850 C   0  0  0  0  0  3  0  0  0  0  0  0
  -21.0130   -5.9480   24.9440 C   0  0  0  0  0  3  0  0  0  0  0  0
  -21.3850   -4.5900   24.9280 C   0  0  0  0  0  0  0  0  0  0  0  0
  -21.9130   -4.0190   23.7560 C   0  0  0  0  0  3  0  0  0  0  0  0
  -22.0640   -4.8030   22.5990 C   0  0  0  0  0  0  0  0  0  0  0  0
  -22.5530   -4.2430   21.4660 F   0  0  0  0  0  0  0  0  0  0  0  0
  -21.2360   -3.8320   26.0380 F   0  0  0  0  0  0  0  0  0  0  0  0
  -22.8160  -13.5180   21.0750 C   0  0  0  0  0  0  0  0  0  0  0  0
  -22.0750  -12.8160   21.9260 N   0  0  0  0  0  0  0  0  0  0  0  0
  -22.3800  -14.5320   20.5320 O   0  0  0  0  0  0  0  0  0  0  0  0
  -22.4450  -11.9960   22.3820 H   0  0  0  0  0  0  0  0  0  0  0  0
  -21.1280  -13.1050   22.1230 H   0  0  0  0  0  0  0  0  0  0  0  0
  -25.4350  -15.2140   20.3000 N   0  0  0  0  0  0  0  0  0  0  0  0
  -24.6610  -15.8650   20.3860 H   0  0  0  0  0  0  0  0  0  0  0  0
  -26.2710  -15.6430   19.9320 H   0  0  0  0  0  0  0  0  0  0  0  0
  -28.1920  -24.2060   20.7730 C   0  0  0  0  0  2  0  0  0  0  0  0
  -28.3040  -25.7950   20.2660 O   0  0  0  0  0  0  0  0  0  0  0  0
  -24.6590  -31.8230   23.2470 C   0  0  0  0  0  0  0  0  0  0  0  0
  -27.2840  -26.9000   20.3100 C   0  0  0  0  0  0  0  0  0  0  0  0
  -23.5040  -30.4160   21.5920 C   0  0  0  0  0  3  0  0  0  0  0  0
  -24.9850  -28.7960   20.2170 C   0  0  0  0  0  0  0  0  0  0  0  0
  -26.0740  -30.6230   21.4970 C   0  0  0  0  0  2  0  0  0  0  0  0
  -26.1640  -29.2030   20.8540 C   0  0  0  0  0  0  0  0  0  0  0  0
  -27.3120  -28.2790   20.8700 C   0  0  0  0  0  3  0  0  0  0  0  0
  -26.0690  -26.6510   19.6370 C   0  0  0  0  0  3  0  0  0  0  0  0
  -24.9620  -27.5390   19.5930 C   0  0  0  0  0  3  0  0  0  0  0  0
  -23.7660  -29.7220   20.2270 C   0  0  0  0  0  2  0  0  0  0  0  0
  -24.7670  -30.9830   22.1670 N   0  0  0  0  0  0  0  0  0  0  0  0
  -23.5570  -32.1130   23.7440 O   0  0  0  0  0  0  0  0  0  0  0  0
  -22.7920  -29.4270   22.5500 C   0  0  0  0  0  0  0  0  0  0  0  0
  -21.4610  -29.2680   22.4100 N   0  0  0  0  0  0  0  0  0  0  0  0
  -23.4450  -28.7990   23.3880 O   0  0  0  0  0  0  0  0  0  0  0  0
  -20.9890  -29.8210   21.7070 H   0  0  0  0  0  0  0  0  0  0  0  0
  -18.0660  -28.0930   22.9090 C   0  0  0  0  0  0  0  0  0  0  0  0
  -20.6280  -28.3330   23.1730 C   0  0  0  0  0  3  0  0  0  0  0  0
  -20.7160  -26.9040   22.5860 C   0  0  0  0  0  2  0  0  0  0  0  0
  -19.6120  -26.6010   21.5700 C   0  0  0  0  0  2  0  0  0  0  0  0
  -18.2310  -26.7510   22.2150 C   0  0  0  0  0  2  0  0  0  0  0  0
  -19.1920  -28.8410   23.3460 C   0  0  0  0  0  0  0  0  0  0  0  0
  -18.9830  -30.0940   23.9590 C   0  0  0  0  0  3  0  0  0  0  0  0
  -17.6820  -30.6010   24.1390 C   0  0  0  0  0  3  0  0  0  0  0  0
  -16.5720  -29.8510   23.7170 C   0  0  0  0  0  3  0  0  0  0  0  0
  -16.7630  -28.5990   23.1070 C   0  0  0  0  0  3  0  0  0  0  0  0
  -25.9130  -32.4760   23.9020 C   0  0  0  0  0  3  0  0  0  0  0  0
  -25.5910  -33.8830   24.1970 N   0  0  0  0  0  0  0  0  0  0  0  0
  -25.9580  -34.9300   23.4460 C   0  0  0  0  0  0  0  0  0  0  0  0
  -26.6670  -34.8140   22.4440 O   0  0  0  0  0  0  0  0  0  0  0  0
  -24.9600  -34.0450   24.9680 H   0  0  0  0  0  0  0  0  0  0  0  0
  -24.2720  -36.7490   23.0070 C   0  0  0  0  0  1  0  0  0  0  0  0
  -25.4680  -36.3290   23.8750 C   0  0  0  0  0  3  0  0  0  0  0  0
  -27.5640  -37.2060   24.8090 C   0  0  0  0  0  1  0  0  0  0  0  0
  -26.5170  -37.3700   23.8040 N   0  0  0  0  0  0  0  0  0  0  0  0
  -26.1110  -38.2960   23.9160 H   0  0  0  0  0  0  0  0  0  0  0  0
  -26.3740  -31.7390   25.2210 C   0  0  1  0  0  0  0  0  0  0  0  0
  -25.2410  -31.5390   26.2550 C   0  0  0  0  0  1  0  0  0  0  0  0
  -26.9640  -30.3460   24.9010 C   0  0  0  0  0  1  0  0  0  0  0  0
  -27.5020  -32.5470   25.9050 C   0  0  0  0  0  1  0  0  0  0  0  0
  1  4  1  0
  2  5  2  0
  3  2  1  0
  3  1  2  0
  4  9  1  0
  4  6  2  0
  5  6  1  0
  5 48  1  0
  6  8  1  0
  7  3  1  0
 10 18  1  0
 11 16  1  0
 12 13  1  0
 12 11  1  0
 14 13  1  0
 14 23  1  0
 14 15  1  0
 16 10  1  0
 16 15  1  0
 17 10  2  0
 18  9  1  0
 19 18  1  0
 20 21  2  0
 21 40  1  0
 22 21  1  0
 22 25  1  0
 23 20  1  0
 23 24  1  0
 24 22  2  0
 25 26  1  0
 26 27  2  0
 28 31  1  0
 28 27  1  0
 29 28  2  0
 30 29  1  0
 30 25  2  0
 31 32  1  0
 32 33  1  0
 33 34  2  0
 35 34  1  0
 35 39  1  0
 36 35  2  0
 37 32  2  0
 37 36  1  0
 38 37  1  0
 40 41  1  0
 41 44  1  0
 41 43  1  0
 42 40  2  0
 45 46  1  0
 45 20  1  0
 47 45  1  0
 49 51  1  0
 49 48  1  0
 50 61  2  0
 51 56  1  0
 52 60  1  0
 52 62  1  0
 53 59  1  0
 53 55  1  0
 54 60  1  0
 55 56  2  0
 55 54  1  0
 57 51  2  0
 58 57  1  0
 58 53  2  0
 59 52  1  0
 60 50  1  0
 62 64  2  0
 63 62  1  0
 65 63  1  0
 66 75  2  0
 66 71  1  0
 67 63  1  0
 67 71  1  0
 68 67  1  0
 69 70  1  0
 69 68  1  0
 70 66  1  0
 71 72  2  0
 72 73  1  0
 74 73  2  0
 75 74  1  0
 76 50  1  0
 76 77  1  0
 76 86  1  0
 77 80  1  0
 78 82  1  0
 78 77  1  0
 79 78  2  0
 82 81  1  0
 84 82  1  0
 84 85  1  0
 84 83  1  0
 86 89  1  1
 86 87  1  0
 88 86  1  0
M  ISO  4  10 100  18 100  48 101  49 101
M  END
>  <TORSDO>  (45) 
F 18

>  <SCORE>  (45) 
-16.215

>  <name>  (45) 
44

>  <ligand_id>  (45) 
44

>  <original_smiles>  (45) 
[H]c1c([H])c([H])c2c(c1[H])C([H])([H])C([H])([H])C([H])([H])C2([H])N([H])C(=O)C1([H])N(C(=O)C([H])(N([H])C(=O)C([H])(N([H])C([H])([H])[H])C([H])([H])[H])C(C([H])([H])[H])(C([H])([H])[H])C([H])([H])[H])C([H])([H])c2c([H])c(OC([H])([H])c3c([H])c(C([H])([H])[H])c([H])c(C([H])([H])N([H])C(=O)N4C([H])([H])C([H])([H])C([H])([H])C([H])(n5nc(-c6c([H])c([H])c(Oc7c([H])c([H])c(F)c([H])c7F)c([H])c6[H])c(C(=O)N([H])[H])c5N([H])[H])C4([H])[H])c3C([H])([H])[H])c([H])c([H])c2C1([H])[H]

>  <smiles>  (45) 
[H]c1c([H])c([H])c2c(c1[H])C([H])([H])C([H])([H])C([H])([H])C2([H])N([H])C(=O)C1([H])N(C(=O)C([H])(N([H])C(=O)C([H])(N([H])C([H])([H])[H])C([H])([H])[H])C(C([H])([H])[H])(C([H])([H])[H])C([H])([H])[H])C([H])([H])c2c([H])c(OC([H])([H])c3c([H])c(C([H])([H])[H])c([H])c(C([H])([H])N([H])C(=O)N4C([H])([H])C([H])([H])C([H])([H])C([H])(n5nc(-c6c([H])c([H])c(Oc7c([H])c([H])c(F)c([H])c7F)c([H])c6[H])c(C(=O)N([H])[H])c5N([H])[H])C4([H])[H])c3C([H])([H])[H])c([H])c([H])c2C1([H])[H]

$$$$
45:0:0
     RDKit          3D

 92100  0  0  1  0  0  0  0  0999 V2000
  -28.6080  -19.2720   19.0970 C   0  0  0  0  0  2  0  0  0  0  0  0
  -27.7210  -15.1250   17.4180 C   0  0  0  0  0  2  0  0  0  0  0  0
  -26.7750  -16.7420   18.9930 C   0  0  0  0  0  2  0  0  0  0  0  0
  -27.1850  -15.1380   18.8480 C   0  0  1  0  0  0  0  0  0  0  0  0
  -28.7040  -15.9440   18.2420 C   0  0  2  0  0  0  0  0  0  0  0  0
  -28.0210  -17.5610   18.5520 C   0  0  0  0  0  3  0  0  0  0  0  0
  -28.6680  -14.3810   19.2660 C   0  0  0  0  0  3  0  0  0  0  0  0
  -30.1650  -14.2090   21.8450 C   0  0  0  0  0  1  0  0  0  0  0  0
  -31.7110  -13.3190   21.2860 C   0  0  0  0  0  0  0  0  0  0  0  0
  -31.4230  -14.2410   19.5270 C   0  0  0  0  0  2  0  0  0  0  0  0
  -30.6740  -15.7770   20.2690 C   0  0  0  0  0  1  0  0  0  0  0  0
  -28.6210  -15.5960   21.0300 C   0  0  0  0  0 15  0  0  0  0  0  0
  -28.0420  -13.7080   20.9840 C   0  0  0  0  0  3  0  0  0  0  0  0
  -29.2860  -12.5030   20.4460 C   0  0  0  0  0  2  0  0  0  0  0  0
  -30.9380  -12.9500   20.1880 N   0  0  0  0  0  0  0  0  0  0  0  0
  -32.7500  -14.0360   21.4470 O   0  0  0  0  0  0  0  0  0  0  0  0
  -30.9740  -13.1170   22.2860 N   0  0  0  0  0  0  0  0  0  0  0  0
  -31.3800  -13.1950   23.2060 H   0  0  0  0  0  0  0  0  0  0  0  0
  -25.6270  -14.0440   20.9880 C   0  0  0  0  0  0  0  0  0  0  0  0
  -24.6210  -13.1850   21.2380 C   0  0  0  0  0  0  0  0  0  0  0  0
  -25.1750  -11.8700   21.1720 C   0  0  0  0  0  0  0  0  0  0  0  0
  -26.7270  -13.2710   20.7970 N   0  0  0  0  0  0  0  0  0  0  0  0
  -26.4720  -11.9380   20.9250 N   0  0  0  0  0  0  0  0  0  0  0  0
  -24.5170  -10.5750   21.2970 C   0  0  0  0  0  0  0  0  0  0  0  0
  -24.9030   -9.6230   22.2640 C   0  0  0  0  0  3  0  0  0  0  0  0
  -24.2110   -8.3970   22.3670 C   0  0  0  0  0  3  0  0  0  0  0  0
  -23.1280   -8.1230   21.4940 C   0  0  0  0  0  0  0  0  0  0  0  0
  -22.7640   -9.0720   20.5220 C   0  0  0  0  0  3  0  0  0  0  0  0
  -23.4530  -10.2870   20.4230 C   0  0  0  0  0  3  0  0  0  0  0  0
  -22.4090   -6.9520   21.4840 O   0  0  0  0  0  0  0  0  0  0  0  0
  -22.1910   -6.2350   22.6300 C   0  0  0  0  0  0  0  0  0  0  0  0
  -21.5540   -6.7990   23.7560 C   0  0  0  0  0  3  0  0  0  0  0  0
  -21.2820   -5.9970   24.8800 C   0  0  0  0  0  3  0  0  0  0  0  0
  -21.6400   -4.6360   24.8810 C   0  0  0  0  0  0  0  0  0  0  0  0
  -22.2690   -4.0740   23.7550 C   0  0  0  0  0  3  0  0  0  0  0  0
  -22.5390   -4.8710   22.6310 C   0  0  0  0  0  0  0  0  0  0  0  0
  -23.1220   -4.3200   21.5390 F   0  0  0  0  0  0  0  0  0  0  0  0
  -21.3770   -3.8620   25.9590 F   0  0  0  0  0  0  0  0  0  0  0  0
  -23.2130  -13.5960   21.4900 C   0  0  0  0  0  0  0  0  0  0  0  0
  -22.5110  -12.8550   22.3270 N   0  0  0  0  0  0  0  0  0  0  0  0
  -22.7670  -14.6310   20.9910 O   0  0  0  0  0  0  0  0  0  0  0  0
  -22.9240  -12.0320   22.7440 H   0  0  0  0  0  0  0  0  0  0  0  0
  -21.5590  -13.1030   22.5500 H   0  0  0  0  0  0  0  0  0  0  0  0
  -25.7130  -15.4150   20.9800 N   0  0  0  0  0  0  0  0  0  0  0  0
  -24.8820  -15.9900   20.9380 H   0  0  0  0  0  0  0  0  0  0  0  0
  -26.5330  -15.8280   20.5520 H   0  0  0  0  0  0  0  0  0  0  0  0
  -28.4380  -22.3330   19.3570 C   0  0  0  0  0  0  0  0  0  0  0  0
  -27.9780  -20.8720   19.3220 N   0  0  0  0  0  0  0  0  0  0  0  0
  -29.6430  -22.4530   19.1230 O   0  0  0  0  0  0  0  0  0  0  0  0
  -27.0430  -20.8120   19.7090 H   0  0  0  0  0  0  0  0  0  0  0  0
  -27.5980  -23.9340   19.6350 C   0  0  0  0  0  2  0  0  0  0  0  0
  -28.0920  -25.5750   19.8870 O   0  0  0  0  0  0  0  0  0  0  0  0
  -24.7470  -31.8440   23.1630 C   0  0  0  0  0  0  0  0  0  0  0  0
  -27.1990  -26.8100   20.0050 C   0  0  0  0  0  0  0  0  0  0  0  0
  -23.5510  -30.4550   21.5380 C   0  0  0  0  0  3  0  0  0  0  0  0
  -24.9740  -28.8280   20.0940 C   0  0  0  0  0  0  0  0  0  0  0  0
  -26.1340  -30.5780   21.4040 C   0  0  0  0  0  2  0  0  0  0  0  0
  -26.1820  -29.1610   20.7190 C   0  0  0  0  0  0  0  0  0  0  0  0
  -27.2900  -28.1670   20.6630 C   0  0  0  0  0  3  0  0  0  0  0  0
  -25.9440  -26.6670   19.3930 C   0  0  0  0  0  3  0  0  0  0  0  0
  -24.8890  -27.6060   19.4240 C   0  0  0  0  0  3  0  0  0  0  0  0
  -23.7770  -29.7820   20.1570 C   0  0  0  0  0  2  0  0  0  0  0  0
  -24.8370  -30.9910   22.0860 N   0  0  0  0  0  0  0  0  0  0  0  0
  -23.6560  -32.1430   23.6790 O   0  0  0  0  0  0  0  0  0  0  0  0
  -22.8550  -29.4560   22.5000 C   0  0  0  0  0  0  0  0  0  0  0  0
  -21.5240  -29.2920   22.3820 N   0  0  0  0  0  0  0  0  0  0  0  0
  -23.5230  -28.8340   23.3290 O   0  0  0  0  0  0  0  0  0  0  0  0
  -21.0360  -29.8470   21.6910 H   0  0  0  0  0  0  0  0  0  0  0  0
  -18.1490  -28.0610   22.8980 C   0  0  0  0  0  0  0  0  0  0  0  0
  -20.7070  -28.3550   23.1590 C   0  0  0  0  0  3  0  0  0  0  0  0
  -20.8200  -26.9170   22.5990 C   0  0  0  0  0  2  0  0  0  0  0  0
  -19.7240  -26.5770   21.5840 C   0  0  0  0  0  2  0  0  0  0  0  0
  -18.3390  -26.7120   22.2260 C   0  0  0  0  0  2  0  0  0  0  0  0
  -19.2600  -28.8390   23.3210 C   0  0  0  0  0  0  0  0  0  0  0  0
  -19.0270  -30.1000   23.9140 C   0  0  0  0  0  3  0  0  0  0  0  0
  -17.7170  -30.5840   24.0820 C   0  0  0  0  0  3  0  0  0  0  0  0
  -16.6200  -29.8050   23.6730 C   0  0  0  0  0  3  0  0  0  0  0  0
  -16.8380  -28.5450   23.0890 C   0  0  0  0  0  3  0  0  0  0  0  0
  -26.0120  -32.5020   23.7940 C   0  0  0  0  0  3  0  0  0  0  0  0
  -26.5260  -31.7430   25.0800 C   0  0  1  0  0  0  0  0  0  0  0  0
  -25.4370  -31.5120   26.1560 C   0  0  0  0  0  1  0  0  0  0  0  0
  -27.1120  -30.3630   24.7090 C   0  0  0  0  0  1  0  0  0  0  0  0
  -27.6690  -32.5490   25.7450 C   0  0  0  0  0  1  0  0  0  0  0  0
  -25.6780  -33.8960   24.1390 N   0  0  0  0  0  0  0  0  0  0  0  0
  -26.0110  -34.9740   23.4150 C   0  0  0  0  0  0  0  0  0  0  0  0
  -26.6930  -34.9010   22.3900 O   0  0  0  0  0  0  0  0  0  0  0  0
  -25.0760  -34.0280   24.9380 H   0  0  0  0  0  0  0  0  0  0  0  0
  -24.2780  -36.7770   23.0880 C   0  0  0  0  0  1  0  0  0  0  0  0
  -25.5110  -36.3520   23.9020 C   0  0  0  0  0  3  0  0  0  0  0  0
  -27.6300  -37.2310   24.7850 C   0  0  0  0  0  1  0  0  0  0  0  0
  -26.5380  -37.4140   23.8310 N   0  0  0  0  0  0  0  0  0  0  0  0
  -26.1230  -38.3270   23.9990 H   0  0  0  0  0  0  0  0  0  0  0  0
  1 48  1  0
  4  2  1  1
  4  3  1  0
  4  7  1  0
  5  2  1  6
  5  6  1  0
  5  4  1  0
  5  7  1  0
  6  3  1  0
  6  1  1  0
  7 13  1  0
  8 17  1  0
  9 16  2  0
  9 17  1  0
 10 15  1  0
 10 11  1  0
 13 14  1  0
 15 14  1  0
 15  9  1  0
 17 18  1  0
 19 20  2  0
 20 39  1  0
 21 20  1  0
 21 24  1  0
 22 23  1  0
 22 13  1  0
 22 19  1  0
 23 21  2  0
 24 25  1  0
 25 26  2  0
 27 26  1  0
 28 27  2  0
 29 28  1  0
 29 24  2  0
 30 27  1  0
 30 31  1  0
 31 36  2  0
 31 32  1  0
 32 33  2  0
 33 34  1  0
 34 38  1  0
 35 34  2  0
 36 35  1  0
 37 36  1  0
 39 40  1  0
 40 43  1  0
 40 42  1  0
 41 39  2  0
 44 19  1  0
 45 44  1  0
 46 44  1  0
 47 51  1  0
 48 47  1  0
 48 50  1  0
 49 47  2  0
 51 52  1  0
 52 54  1  0
 53 64  2  0
 54 59  1  0
 55 63  1  0
 55 65  1  0
 56 62  1  0
 56 58  1  0
 57 63  1  0
 58 57  1  0
 59 58  2  0
 60 61  1  0
 60 54  2  0
 61 56  2  0
 62 55  1  0
 63 53  1  0
 65 67  2  0
 66 65  1  0
 68 66  1  0
 69 78  2  0
 69 74  1  0
 70 66  1  0
 70 74  1  0
 71 70  1  0
 72 73  1  0
 72 71  1  0
 73 69  1  0
 74 75  2  0
 75 76  1  0
 77 76  2  0
 78 77  1  0
 79 53  1  0
 79 84  1  0
 79 80  1  0
 80 83  1  1
 80 81  1  0
 82 80  1  0
 84 87  1  0
 85 89  1  0
 85 84  1  0
 86 85  2  0
 89 88  1  0
 91 89  1  0
 91 92  1  0
 91 90  1  0
M  ISO  4   9 100  17 100  51 101  52 101
M  END
>  <TORSDO>  (46) 
F 20

>  <SCORE>  (46) 
-6.962

>  <name>  (46) 
45

>  <ligand_id>  (46) 
45

>  <original_smiles>  (46) 
[H]c1c([H])c([H])c2c(c1[H])C([H])([H])C([H])([H])C([H])([H])C2([H])N([H])C(=O)C1([H])N(C(=O)C([H])(N([H])C(=O)C([H])(N([H])C([H])([H])[H])C([H])([H])[H])C(C([H])([H])[H])(C([H])([H])[H])C([H])([H])[H])C([H])([H])c2c([H])c(OC([H])([H])C(=O)N([H])C([H])([H])C3([H])C([H])([H])C4([H])C([H])([H])C3([H])C4([H])C([H])([H])N([H])C(=O)N3C([H])([H])C([H])([H])C([H])([H])C([H])(n4nc(-c5c([H])c([H])c(Oc6c([H])c([H])c(F)c([H])c6F)c([H])c5[H])c(C(=O)N([H])[H])c4N([H])[H])C3([H])[H])c([H])c([H])c2C1([H])[H]

>  <smiles>  (46) 
[H]c1c([H])c([H])c2c(c1[H])C([H])([H])C([H])([H])C([H])([H])C2([H])N([H])C(=O)C1([H])N(C(=O)C([H])(N([H])C(=O)C([H])(N([H])C([H])([H])[H])C([H])([H])[H])C(C([H])([H])[H])(C([H])([H])[H])C([H])([H])[H])C([H])([H])c2c([H])c(OC([H])([H])C(=O)N([H])C([H])([H])C3([H])C([H])([H])C4([H])C([H])([H])C3([H])C4([H])C([H])([H])N([H])C(=O)N3C([H])([H])C([H])([H])C([H])([H])C([H])(n4nc(-c5c([H])c([H])c(Oc6c([H])c([H])c(F)c([H])c6F)c([H])c5[H])c(C(=O)N([H])[H])c4N([H])[H])C3([H])[H])c([H])c([H])c2C1([H])[H]

$$$$
46:0:0
     RDKit          3D

 95103  0  0  1  0  0  0  0  0999 V2000
  -28.7030  -22.0410   18.2690 C   0  0  0  0  0  1  0  0  0  0  0  0
  -29.3950  -22.0880   19.6410 C   0  0  0  0  0  3  0  0  0  0  0  0
  -31.6070  -18.9780   20.4420 C   0  0  0  0  0  3  0  0  0  0  0  0
  -28.8970  -19.6470   20.3360 C   0  0  0  0  0  3  0  0  0  0  0  0
  -31.2250  -20.2960   20.0970 C   0  0  0  0  0  0  0  0  0  0  0  0
  -29.2850  -18.3290   20.6960 C   0  0  0  0  0  0  0  0  0  0  0  0
  -30.6580  -17.9800   20.7550 C   0  0  0  0  0  0  0  0  0  0  0  0
  -29.8500  -20.6600   20.0520 C   0  0  0  0  0  0  0  0  0  0  0  0
  -32.3280  -21.2890   19.7630 C   0  0  0  0  0  1  0  0  0  0  0  0
  -28.2090  -17.3160   21.0470 C   0  0  0  0  0  1  0  0  0  0  0  0
  -31.1730  -16.6150   21.2610 C   0  0  0  0  0  2  0  0  0  0  0  0
  -31.0850  -14.3940   20.0810 C   0  0  0  0  0  0  0  0  0  0  0  0
  -30.6750  -12.2280   18.9570 C   0  0  0  0  0  2  0  0  0  0  0  0
  -29.7010  -12.4160   17.7750 C   0  0  0  0  0  2  0  0  0  0  0  0
  -28.2390  -12.3300   18.2530 C   0  0  0  0  0  2  0  0  0  0  0  0
  -27.9630  -13.2160   19.4970 C   0  0  0  0  0  3  0  0  0  0  0  0
  -29.0410  -12.9950   20.5800 C   0  0  0  0  0  2  0  0  0  0  0  0
  -30.3550  -13.2490   19.9670 N   0  0  0  0  0  0  0  0  0  0  0  0
  -32.1830  -14.5400   19.5380 O   0  0  0  0  0  0  0  0  0  0  0  0
  -30.5100  -15.3900   20.7810 N   0  0  0  0  0  0  0  0  0  0  0  0
  -29.5910  -15.2000   21.1490 H   0  0  0  0  0  0  0  0  0  0  0  0
  -25.6100  -13.9210   20.2630 C   0  0  0  0  0  0  0  0  0  0  0  0
  -24.5270  -13.1960   20.6790 C   0  0  0  0  0  0  0  0  0  0  0  0
  -24.9380  -11.8280   20.6570 C   0  0  0  0  0  0  0  0  0  0  0  0
  -26.6150  -12.9990   20.0190 N   0  0  0  0  0  0  0  0  0  0  0  0
  -26.2150  -11.7350   20.3120 N   0  0  0  0  0  0  0  0  0  0  0  0
  -24.1720  -10.5970   20.8890 C   0  0  0  0  0  0  0  0  0  0  0  0
  -24.5630   -9.6560   21.8650 C   0  0  0  0  0  3  0  0  0  0  0  0
  -23.8000   -8.4880   22.0810 C   0  0  0  0  0  3  0  0  0  0  0  0
  -22.6300   -8.2540   21.3200 C   0  0  0  0  0  0  0  0  0  0  0  0
  -22.2580   -9.1830   20.3330 C   0  0  0  0  0  3  0  0  0  0  0  0
  -23.0220  -10.3420   20.1150 C   0  0  0  0  0  3  0  0  0  0  0  0
  -21.8400   -7.1360   21.4430 O   0  0  0  0  0  0  0  0  0  0  0  0
  -21.7130   -6.4740   22.6370 C   0  0  0  0  0  0  0  0  0  0  0  0
  -21.2460   -7.1220   23.8030 C   0  0  0  0  0  3  0  0  0  0  0  0
  -21.0640   -6.3870   24.9910 C   0  0  0  0  0  3  0  0  0  0  0  0
  -21.3360   -5.0060   25.0150 C   0  0  0  0  0  0  0  0  0  0  0  0
  -21.7960   -4.3590   23.8550 C   0  0  0  0  0  3  0  0  0  0  0  0
  -21.9800   -5.0910   22.6680 C   0  0  0  0  0  0  0  0  0  0  0  0
  -22.4030   -4.4570   21.5470 F   0  0  0  0  0  0  0  0  0  0  0  0
  -21.1540   -4.2980   26.1540 F   0  0  0  0  0  0  0  0  0  0  0  0
  -23.1570  -13.7290   20.9830 C   0  0  0  0  0  0  0  0  0  0  0  0
  -22.4340  -13.0800   21.8890 N   0  0  0  0  0  0  0  0  0  0  0  0
  -22.7390  -14.7570   20.4540 O   0  0  0  0  0  0  0  0  0  0  0  0
  -22.7850  -12.2480   22.3380 H   0  0  0  0  0  0  0  0  0  0  0  0
  -21.5150  -13.4200   22.1370 H   0  0  0  0  0  0  0  0  0  0  0  0
  -25.8160  -15.2810   20.0520 N   0  0  0  0  0  0  0  0  0  0  0  0
  -25.0710  -15.9600   20.1590 H   0  0  0  0  0  0  0  0  0  0  0  0
  -26.6550  -15.6730   19.6430 H   0  0  0  0  0  0  0  0  0  0  0  0
  -28.5370  -22.7560   20.6590 N   0  0  0  0  0  4  0  0  0  0  0  0
  -27.5690  -22.5750   20.4430 H   0  0  0  0  0  0  0  0  0  0  0  0
  -28.7280  -22.2800   21.5270 H   0  0  0  0  0  0  0  0  0  0  0  0
  -28.7370  -24.2210   20.9370 C   0  0  0  0  0  2  0  0  0  0  0  0
  -28.5430  -25.1970   19.7430 C   0  0  0  0  0  2  0  0  0  0  0  0
  -28.4550  -26.5830   20.1700 O   0  0  0  0  0  0  0  0  0  0  0  0
  -24.5410  -31.7650   23.1580 C   0  0  0  0  0  0  0  0  0  0  0  0
  -27.2590  -27.2920   20.1360 C   0  0  0  0  0  0  0  0  0  0  0  0
  -23.3790  -30.3640   21.4870 C   0  0  0  0  0  3  0  0  0  0  0  0
  -24.8660  -28.8310   20.0970 C   0  0  0  0  0  0  0  0  0  0  0  0
  -25.9130  -30.7150   21.3560 C   0  0  0  0  0  2  0  0  0  0  0  0
  -26.0130  -29.3430   20.7140 C   0  0  0  0  0  0  0  0  0  0  0  0
  -27.2090  -28.5820   20.7300 C   0  0  0  0  0  3  0  0  0  0  0  0
  -26.0810  -26.8060   19.5170 C   0  0  0  0  0  3  0  0  0  0  0  0
  -24.8980  -27.5640   19.4990 C   0  0  0  0  0  3  0  0  0  0  0  0
  -23.6240  -29.6920   20.1120 C   0  0  0  0  0  2  0  0  0  0  0  0
  -24.6280  -30.9630   22.0580 N   0  0  0  0  0  0  0  0  0  0  0  0
  -23.4460  -32.0370   23.6680 O   0  0  0  0  0  0  0  0  0  0  0  0
  -22.7050  -29.3380   22.4270 C   0  0  0  0  0  0  0  0  0  0  0  0
  -21.3800  -29.1700   22.2810 N   0  0  0  0  0  0  0  0  0  0  0  0
  -23.3710  -28.6990   23.2450 O   0  0  0  0  0  0  0  0  0  0  0  0
  -20.9040  -29.7390   21.5950 H   0  0  0  0  0  0  0  0  0  0  0  0
  -17.9840  -28.0200   22.7370 C   0  0  0  0  0  0  0  0  0  0  0  0
  -20.5430  -28.2340   23.0320 C   0  0  0  0  0  3  0  0  0  0  0  0
  -20.6280  -26.8100   22.4340 C   0  0  0  0  0  2  0  0  0  0  0  0
  -19.5290  -26.5200   21.4070 C   0  0  0  0  0  2  0  0  0  0  0  0
  -18.1440  -26.6780   22.0430 C   0  0  0  0  0  2  0  0  0  0  0  0
  -19.1120  -28.7580   23.1860 C   0  0  0  0  0  0  0  0  0  0  0  0
  -18.9090  -30.0170   23.7930 C   0  0  0  0  0  3  0  0  0  0  0  0
  -17.6110  -30.5370   23.9550 C   0  0  0  0  0  3  0  0  0  0  0  0
  -16.4980  -29.7950   23.5240 C   0  0  0  0  0  3  0  0  0  0  0  0
  -16.6850  -28.5390   22.9200 C   0  0  0  0  0  3  0  0  0  0  0  0
  -25.8100  -32.3980   23.8090 C   0  0  0  0  0  3  0  0  0  0  0  0
  -25.4820  -33.7870   24.1570 N   0  0  0  0  0  0  0  0  0  0  0  0
  -25.8070  -34.8520   23.4140 C   0  0  0  0  0  0  0  0  0  0  0  0
  -26.4870  -34.7710   22.3870 O   0  0  0  0  0  0  0  0  0  0  0  0
  -24.8780  -33.9230   24.9550 H   0  0  0  0  0  0  0  0  0  0  0  0
  -24.0520  -36.6230   23.0760 C   0  0  0  0  0  1  0  0  0  0  0  0
  -25.2980  -36.2290   23.8860 C   0  0  0  0  0  3  0  0  0  0  0  0
  -27.4180  -37.1360   24.7280 C   0  0  0  0  0  1  0  0  0  0  0  0
  -26.3150  -37.2980   23.7850 N   0  0  0  0  0  0  0  0  0  0  0  0
  -25.8940  -38.2100   23.9430 H   0  0  0  0  0  0  0  0  0  0  0  0
  -26.3140  -31.6080   25.0800 C   0  0  1  0  0  0  0  0  0  0  0  0
  -25.2080  -31.3410   26.1260 C   0  0  0  0  0  1  0  0  0  0  0  0
  -26.9180  -30.2440   24.6720 C   0  0  0  0  0  1  0  0  0  0  0  0
  -27.4460  -32.4020   25.7730 C   0  0  0  0  0  1  0  0  0  0  0  0
  2  1  1  0
  2  8  1  0
  2 50  1  0
  3  7  1  0
  4  6  1  0
  5  3  2  0
  6  7  2  0
  6 10  1  0
  7 11  1  0
  8  5  1  0
  8  4  2  0
  9  5  1  0
 12 20  1  0
 13 18  1  0
 14 15  1  0
 14 13  1  0
 16 15  1  0
 16 25  1  0
 16 17  1  0
 18 12  1  0
 18 17  1  0
 19 12  2  0
 20 21  1  0
 20 11  1  0
 22 23  2  0
 23 42  1  0
 24 23  1  0
 24 27  1  0
 25 22  1  0
 25 26  1  0
 26 24  2  0
 27 28  1  0
 28 29  2  0
 30 33  1  0
 30 29  1  0
 31 30  2  0
 32 31  1  0
 32 27  2  0
 33 34  1  0
 34 39  2  0
 34 35  1  0
 35 36  2  0
 36 37  1  0
 37 41  1  0
 38 37  2  0
 39 38  1  0
 40 39  1  0
 42 43  1  0
 43 46  1  0
 43 45  1  0
 44 42  2  0
 47 48  1  0
 47 22  1  0
 49 47  1  0
 50 53  1  0
 50 52  1  0
 51 50  1  0
 54 55  1  0
 54 53  1  0
 56 67  2  0
 57 55  1  0
 57 62  1  0
 58 66  1  0
 58 68  1  0
 59 65  1  0
 59 61  1  0
 60 66  1  0
 61 62  2  0
 61 60  1  0
 63 57  2  0
 64 63  1  0
 64 59  2  0
 65 58  1  0
 66 56  1  0
 68 70  2  0
 69 68  1  0
 71 69  1  0
 72 81  2  0
 72 77  1  0
 73 69  1  0
 73 77  1  0
 74 73  1  0
 75 76  1  0
 75 74  1  0
 76 72  1  0
 77 78  2  0
 78 79  1  0
 80 79  2  0
 81 80  1  0
 82 56  1  0
 82 83  1  0
 82 92  1  0
 83 86  1  0
 84 88  1  0
 84 83  1  0
 85 84  2  0
 88 87  1  0
 90 88  1  0
 90 91  1  0
 90 89  1  0
 92 95  1  1
 92 93  1  0
 94 92  1  0
M  ISO  4  12 100  20 100  54 101  55 101
M  END
>  <TORSDO>  (47) 
F 21

>  <SCORE>  (47) 
-12.975

>  <name>  (47) 
46

>  <ligand_id>  (47) 
46

>  <original_smiles>  (47) 
[H]c1c([H])c([H])c2c(c1[H])C([H])([H])C([H])([H])C([H])([H])C2([H])N([H])C(=O)C1([H])N(C(=O)C([H])(N([H])C(=O)C([H])(N([H])C([H])([H])[H])C([H])([H])[H])C(C([H])([H])[H])(C([H])([H])[H])C([H])([H])[H])C([H])([H])c2c([H])c(OC([H])([H])C([H])([H])[N+]([H])([H])C([H])(c3c([H])c(C([H])([H])[H])c(C([H])([H])N([H])C(=O)N4C([H])([H])C([H])([H])C([H])([H])C([H])(n5nc(-c6c([H])c([H])c(Oc7c([H])c([H])c(F)c([H])c7F)c([H])c6[H])c(C(=O)N([H])[H])c5N([H])[H])C4([H])[H])c([H])c3C([H])([H])[H])C([H])([H])[H])c([H])c([H])c2C1([H])[H]

>  <smiles>  (47) 
[H]c1c([H])c([H])c2c(c1[H])C([H])([H])C([H])([H])C([H])([H])C2([H])N([H])C(=O)C1([H])N(C(=O)C([H])(N([H])C(=O)C([H])(N([H])C([H])([H])[H])C([H])([H])[H])C(C([H])([H])[H])(C([H])([H])[H])C([H])([H])[H])C([H])([H])c2c([H])c(OC([H])([H])C([H])([H])[N+]([H])([H])C([H])(c3c([H])c(C([H])([H])[H])c(C([H])([H])N([H])C(=O)N4C([H])([H])C([H])([H])C([H])([H])C([H])(n5nc(-c6c([H])c([H])c(Oc7c([H])c([H])c(F)c([H])c7F)c([H])c6[H])c(C(=O)N([H])[H])c5N([H])[H])C4([H])[H])c([H])c3C([H])([H])[H])C([H])([H])[H])c([H])c([H])c2C1([H])[H]

$$$$
47:0:0
     RDKit          3D

 91 99  0  0  1  0  0  0  0  0999 V2000
  -28.9350  -21.2310   21.3410 C   0  0  0  0  0  3  0  0  0  0  0  0
  -28.6470  -22.6500   21.3260 C   0  0  0  0  0  0  0  0  0  0  0  0
  -29.0970  -20.4160   20.1800 C   0  0  0  0  0  0  0  0  0  0  0  0
  -29.0710  -21.1980   18.9700 C   0  0  0  0  0  0  0  0  0  0  0  0
  -28.8250  -22.6390   18.9470 C   0  0  0  0  0  0  0  0  0  0  0  0
  -28.5260  -23.4220   20.1210 C   0  0  0  0  0  0  0  0  0  0  0  0
  -28.3480  -23.3090   22.6590 C   0  0  0  0  0  1  0  0  0  0  0  0
  -29.1850  -20.4660   17.6350 C   0  0  0  0  0  1  0  0  0  0  0  0
  -28.7920  -23.3440   17.5960 C   0  0  0  0  0  1  0  0  0  0  0  0
  -28.9810  -18.7850   20.2650 C   0  0  0  0  0  3  0  0  0  0  0  0
  -30.1720  -17.6430   20.3000 C   0  0  0  0  0  3  0  0  0  0  0  0
  -30.5520  -14.9720   20.0800 C   0  0  0  0  0  0  0  0  0  0  0  0
  -30.3340  -12.6820   19.0560 C   0  0  0  0  0  2  0  0  0  0  0  0
  -29.3250  -12.7040   17.8820 C   0  0  0  0  0  2  0  0  0  0  0  0
  -27.8910  -12.4850   18.3970 C   0  0  0  0  0  2  0  0  0  0  0  0
  -27.5600  -13.3820   19.6180 C   0  0  0  0  0  3  0  0  0  0  0  0
  -28.6790  -13.3310   20.6850 C   0  0  0  0  0  2  0  0  0  0  0  0
  -29.9290  -13.7360   20.0260 N   0  0  0  0  0  0  0  0  0  0  0  0
  -31.7200  -15.0650   19.6920 O   0  0  0  0  0  0  0  0  0  0  0  0
  -29.8080  -16.1270   20.3690 N   0  0  0  0  0  0  0  0  0  0  0  0
  -28.8640  -15.9350   20.6690 H   0  0  0  0  0  0  0  0  0  0  0  0
  -25.2160  -13.9410   20.4900 C   0  0  0  0  0  0  0  0  0  0  0  0
  -24.1720  -13.1550   20.8920 C   0  0  0  0  0  0  0  0  0  0  0  0
  -24.6310  -11.8060   20.7980 C   0  0  0  0  0  0  0  0  0  0  0  0
  -26.2470  -13.0710   20.1750 N   0  0  0  0  0  0  0  0  0  0  0  0
  -25.9060  -11.7800   20.4230 N   0  0  0  0  0  0  0  0  0  0  0  0
  -23.9160  -10.5370   20.9870 C   0  0  0  0  0  0  0  0  0  0  0  0
  -24.3650   -9.5670   21.9100 C   0  0  0  0  0  3  0  0  0  0  0  0
  -23.6500   -8.3640   22.0880 C   0  0  0  0  0  3  0  0  0  0  0  0
  -22.4710   -8.1230   21.3440 C   0  0  0  0  0  0  0  0  0  0  0  0
  -22.0410   -9.0810   20.4100 C   0  0  0  0  0  3  0  0  0  0  0  0
  -22.7570  -10.2760   20.2290 C   0  0  0  0  0  3  0  0  0  0  0  0
  -21.7260   -6.9720   21.4330 O   0  0  0  0  0  0  0  0  0  0  0  0
  -21.6560   -6.2480   22.5960 C   0  0  0  0  0  0  0  0  0  0  0  0
  -21.1330   -6.7980   23.7870 C   0  0  0  0  0  3  0  0  0  0  0  0
  -21.0170   -5.9960   24.9400 C   0  0  0  0  0  3  0  0  0  0  0  0
  -21.4120   -4.6450   24.9030 C   0  0  0  0  0  0  0  0  0  0  0  0
  -21.9290   -4.0950   23.7160 C   0  0  0  0  0  3  0  0  0  0  0  0
  -22.0470   -4.8940   22.5650 C   0  0  0  0  0  0  0  0  0  0  0  0
  -22.5250   -4.3520   21.4190 F   0  0  0  0  0  0  0  0  0  0  0  0
  -21.2920   -3.8730   26.0070 F   0  0  0  0  0  0  0  0  0  0  0  0
  -22.7900  -13.6230   21.2460 C   0  0  0  0  0  0  0  0  0  0  0  0
  -22.1050  -12.8980   22.1240 N   0  0  0  0  0  0  0  0  0  0  0  0
  -22.3260  -14.6630   20.7800 O   0  0  0  0  0  0  0  0  0  0  0  0
  -22.4930  -12.0550   22.5220 H   0  0  0  0  0  0  0  0  0  0  0  0
  -21.1790  -13.1900   22.4020 H   0  0  0  0  0  0  0  0  0  0  0  0
  -25.3730  -15.3160   20.3400 N   0  0  0  0  0  0  0  0  0  0  0  0
  -24.6190  -15.9720   20.5040 H   0  0  0  0  0  0  0  0  0  0  0  0
  -26.1970  -15.7550   19.9490 H   0  0  0  0  0  0  0  0  0  0  0  0
  -27.7010  -24.8390   20.0720 C   0  0  0  0  0  2  0  0  0  0  0  0
  -28.1700  -26.3050   20.0880 O   0  0  0  0  0  0  0  0  0  0  0  0
  -24.6440  -31.9120   23.2770 C   0  0  0  0  0  0  0  0  0  0  0  0
  -27.1370  -27.3080   20.0590 C   0  0  0  0  0  0  0  0  0  0  0  0
  -23.4040  -30.5720   21.6250 C   0  0  0  0  0  3  0  0  0  0  0  0
  -24.8160  -29.0470   20.1330 C   0  0  0  0  0  0  0  0  0  0  0  0
  -25.9550  -30.8430   21.4110 C   0  0  0  0  0  2  0  0  0  0  0  0
  -26.0120  -29.4730   20.7250 C   0  0  0  0  0  0  0  0  0  0  0  0
  -27.1740  -28.6190   20.6770 C   0  0  0  0  0  3  0  0  0  0  0  0
  -25.9110  -26.9950   19.4210 C   0  0  0  0  0  3  0  0  0  0  0  0
  -24.7760  -27.8170   19.4720 C   0  0  0  0  0  3  0  0  0  0  0  0
  -23.5940  -29.9380   20.2250 C   0  0  0  0  0  2  0  0  0  0  0  0
  -24.6900  -31.1270   22.1600 N   0  0  0  0  0  0  0  0  0  0  0  0
  -23.5700  -32.1850   23.8360 O   0  0  0  0  0  0  0  0  0  0  0  0
  -22.7450  -29.5340   22.5690 C   0  0  0  0  0  0  0  0  0  0  0  0
  -21.4200  -29.3450   22.4410 N   0  0  0  0  0  0  0  0  0  0  0  0
  -23.4270  -28.9020   23.3790 O   0  0  0  0  0  0  0  0  0  0  0  0
  -20.9240  -29.9090   21.7660 H   0  0  0  0  0  0  0  0  0  0  0  0
  -18.0570  -28.0910   22.9250 C   0  0  0  0  0  0  0  0  0  0  0  0
  -20.6120  -28.3840   23.1990 C   0  0  0  0  0  3  0  0  0  0  0  0
  -20.7330  -26.9620   22.6060 C   0  0  0  0  0  2  0  0  0  0  0  0
  -19.6380  -26.6350   21.5870 C   0  0  0  0  0  2  0  0  0  0  0  0
  -18.2530  -26.7540   22.2290 C   0  0  0  0  0  2  0  0  0  0  0  0
  -19.1650  -28.8630   23.3660 C   0  0  0  0  0  0  0  0  0  0  0  0
  -18.9270  -30.1130   23.9760 C   0  0  0  0  0  3  0  0  0  0  0  0
  -17.6140  -30.5940   24.1440 C   0  0  0  0  0  3  0  0  0  0  0  0
  -16.5210  -29.8200   23.7190 C   0  0  0  0  0  3  0  0  0  0  0  0
  -16.7440  -28.5690   23.1160 C   0  0  0  0  0  3  0  0  0  0  0  0
  -25.9380  -32.5250   23.8940 C   0  0  0  0  0  3  0  0  0  0  0  0
  -26.4510  -31.7370   25.1620 C   0  0  1  0  0  0  0  0  0  0  0  0
  -25.3570  -31.5040   26.2300 C   0  0  0  0  0  1  0  0  0  0  0  0
  -27.0160  -30.3560   24.7580 C   0  0  0  0  0  1  0  0  0  0  0  0
  -27.6130  -32.5110   25.8270 C   0  0  0  0  0  1  0  0  0  0  0  0
  -25.6520  -33.9240   24.2410 N   0  0  0  0  0  0  0  0  0  0  0  0
  -25.9470  -34.9780   23.4690 C   0  0  0  0  0  0  0  0  0  0  0  0
  -26.5620  -34.8760   22.4040 O   0  0  0  0  0  0  0  0  0  0  0  0
  -25.1070  -34.0810   25.0760 H   0  0  0  0  0  0  0  0  0  0  0  0
  -24.1960  -36.7680   23.2280 C   0  0  0  0  0  1  0  0  0  0  0  0
  -25.4880  -36.3670   23.9570 C   0  0  0  0  0  3  0  0  0  0  0  0
  -27.6640  -37.2650   24.6540 C   0  0  0  0  0  1  0  0  0  0  0  0
  -26.5080  -37.4210   23.7740 N   0  0  0  0  0  0  0  0  0  0  0  0
  -26.1080  -38.3410   23.9360 H   0  0  0  0  0  0  0  0  0  0  0  0
  2  1  1  0
  2  7  1  0
  3 10  1  0
  3  1  2  0
  4  3  1  0
  5  4  2  0
  5  6  1  0
  6  2  2  0
  8  4  1  0
  9  5  1  0
 10 11  2  0
 11 20  1  0
 12 20  1  0
 13 18  1  0
 14 15  1  0
 14 13  1  0
 16 15  1  0
 16 25  1  0
 16 17  1  0
 18 12  1  0
 18 17  1  0
 19 12  2  0
 20 21  1  0
 22 23  2  0
 23 42  1  0
 24 23  1  0
 24 27  1  0
 25 26  1  0
 25 22  1  0
 26 24  2  0
 27 28  1  0
 28 29  2  0
 30 33  1  0
 30 29  1  0
 31 30  2  0
 32 31  1  0
 32 27  2  0
 33 34  1  0
 34 35  1  0
 35 36  2  0
 37 36  1  0
 37 41  1  0
 38 37  2  0
 39 34  2  0
 39 38  1  0
 40 39  1  0
 42 43  1  0
 43 46  1  0
 43 45  1  0
 44 42  2  0
 47 22  1  0
 47 48  1  0
 49 47  1  0
 50 51  1  0
 50  6  1  0
 52 63  2  0
 53 51  1  0
 53 58  1  0
 54 62  1  0
 54 64  1  0
 55 61  1  0
 55 57  1  0
 56 62  1  0
 57 56  1  0
 58 57  2  0
 59 60  1  0
 59 53  2  0
 60 55  2  0
 61 54  1  0
 62 52  1  0
 64 66  2  0
 65 64  1  0
 67 65  1  0
 68 77  2  0
 68 73  1  0
 69 65  1  0
 69 73  1  0
 70 69  1  0
 71 72  1  0
 71 70  1  0
 72 68  1  0
 73 74  2  0
 74 75  1  0
 76 75  2  0
 77 76  1  0
 78 52  1  0
 78 83  1  0
 78 79  1  0
 79 82  1  1
 79 80  1  0
 81 79  1  0
 83 86  1  0
 84 88  1  0
 84 83  1  0
 85 84  2  0
 88 87  1  0
 90 91  1  0
 90 88  1  0
 90 89  1  0
M  ISO  4  12 100  20 100  50 101  51 101
M  END
>  <TORSDO>  (48) 
F 19

>  <SCORE>  (48) 
-13.929

>  <name>  (48) 
47

>  <ligand_id>  (48) 
47

>  <original_smiles>  (48) 
[H]c1c([H])c([H])c2c(c1[H])C([H])([H])C([H])([H])C([H])([H])C2([H])N([H])C(=O)C1([H])N(C(=O)C([H])(N([H])C(=O)C([H])(N([H])C([H])([H])[H])C([H])([H])[H])C(C([H])([H])[H])(C([H])([H])[H])C([H])([H])[H])C([H])([H])c2c([H])c(OC([H])([H])c3c(C([H])([H])[H])c([H])c(C([H])([H])C([H])([H])N([H])C(=O)N4C([H])([H])C([H])([H])C([H])([H])C([H])(n5nc(-c6c([H])c([H])c(Oc7c([H])c([H])c(F)c([H])c7F)c([H])c6[H])c(C(=O)N([H])[H])c5N([H])[H])C4([H])[H])c(C([H])([H])[H])c3C([H])([H])[H])c([H])c([H])c2C1([H])[H]

>  <smiles>  (48) 
[H]c1c([H])c([H])c2c(c1[H])C([H])([H])C([H])([H])C([H])([H])C2([H])N([H])C(=O)C1([H])N(C(=O)C([H])(N([H])C(=O)C([H])(N([H])C([H])([H])[H])C([H])([H])[H])C(C([H])([H])[H])(C([H])([H])[H])C([H])([H])[H])C([H])([H])c2c([H])c(OC([H])([H])c3c(C([H])([H])[H])c([H])c(C([H])([H])C([H])([H])N([H])C(=O)N4C([H])([H])C([H])([H])C([H])([H])C([H])(n5nc(-c6c([H])c([H])c(Oc7c([H])c([H])c(F)c([H])c7F)c([H])c6[H])c(C(=O)N([H])[H])c5N([H])[H])C4([H])[H])c(C([H])([H])[H])c3C([H])([H])[H])c([H])c([H])c2C1([H])[H]

$$$$
48:0:0
     RDKit          3D

 89 98  0  0  1  0  0  0  0  0999 V2000
  -30.8020  -20.8040   20.5040 C   0  0  0  0  0  2  0  0  0  0  0  0
  -28.5060  -20.5530   21.3530 C   0  0  0  0  0  2  0  0  0  0  0  0
  -31.0670  -19.2140   20.5090 C   0  0  0  0  0  2  0  0  0  0  0  0
  -28.7920  -18.9650   21.4140 C   0  0  0  0  0  2  0  0  0  0  0  0
  -29.1700  -19.7440   19.2720 C   0  0  0  0  0  2  0  0  0  0  0  0
  -29.2990  -21.1660   20.1630 C   0  0  2  0  0  0  0  0  0  0  0  0
  -29.7240  -18.4850   20.2350 C   0  0  1  0  0  0  0  0  0  0  0  0
  -30.4970  -15.5260   19.8640 C   0  0  0  0  0  0  0  0  0  0  0  0
  -30.4790  -13.0800   18.9290 C   0  0  0  0  0  2  0  0  0  0  0  0
  -29.4920  -12.8260   17.7600 C   0  0  0  0  0  2  0  0  0  0  0  0
  -28.0800  -12.5160   18.2870 C   0  0  0  0  0  2  0  0  0  0  0  0
  -27.6710  -13.4680   19.4360 C   0  0  0  0  0  3  0  0  0  0  0  0
  -28.7800  -13.6440   20.4950 C   0  0  0  0  0  2  0  0  0  0  0  0
  -29.9490  -14.2050   19.7930 N   0  0  0  0  0  0  0  0  0  0  0  0
  -31.7150  -15.5300   19.6230 O   0  0  0  0  0  0  0  0  0  0  0  0
  -29.6990  -16.7910   20.0070 N   0  0  0  0  0  0  0  0  0  0  0  0
  -28.7370  -16.4900   20.0570 H   0  0  0  0  0  0  0  0  0  0  0  0
  -25.3510  -13.9890   20.3530 C   0  0  0  0  0  0  0  0  0  0  0  0
  -24.3150  -13.1960   20.7590 C   0  0  0  0  0  0  0  0  0  0  0  0
  -24.7830  -11.8480   20.6560 C   0  0  0  0  0  0  0  0  0  0  0  0
  -26.3790  -13.1250   20.0180 N   0  0  0  0  0  0  0  0  0  0  0  0
  -26.0540  -11.8300   20.2680 N   0  0  0  0  0  0  0  0  0  0  0  0
  -24.0690  -10.5780   20.8450 C   0  0  0  0  0  0  0  0  0  0  0  0
  -24.4880   -9.6300   21.8050 C   0  0  0  0  0  3  0  0  0  0  0  0
  -23.7720   -8.4270   21.9830 C   0  0  0  0  0  3  0  0  0  0  0  0
  -22.6220   -8.1630   21.2010 C   0  0  0  0  0  0  0  0  0  0  0  0
  -22.2230   -9.0990   20.2320 C   0  0  0  0  0  3  0  0  0  0  0  0
  -22.9400  -10.2940   20.0520 C   0  0  0  0  0  3  0  0  0  0  0  0
  -21.8800   -7.0100   21.2870 O   0  0  0  0  0  0  0  0  0  0  0  0
  -21.7190   -6.3430   22.4750 C   0  0  0  0  0  0  0  0  0  0  0  0
  -21.1270   -6.9580   23.6010 C   0  0  0  0  0  3  0  0  0  0  0  0
  -20.9190   -6.2160   24.7790 C   0  0  0  0  0  3  0  0  0  0  0  0
  -21.2900   -4.8600   24.8350 C   0  0  0  0  0  0  0  0  0  0  0  0
  -21.8740   -4.2440   23.7140 C   0  0  0  0  0  3  0  0  0  0  0  0
  -22.0840   -4.9840   22.5360 C   0  0  0  0  0  0  0  0  0  0  0  0
  -22.6280   -4.3790   21.4520 F   0  0  0  0  0  0  0  0  0  0  0  0
  -21.0830   -4.1440   25.9650 F   0  0  0  0  0  0  0  0  0  0  0  0
  -22.9350  -13.6580   21.1230 C   0  0  0  0  0  0  0  0  0  0  0  0
  -22.2600  -12.9370   22.0100 N   0  0  0  0  0  0  0  0  0  0  0  0
  -22.4660  -14.6950   20.6550 O   0  0  0  0  0  0  0  0  0  0  0  0
  -22.6520  -12.0980   22.4100 H   0  0  0  0  0  0  0  0  0  0  0  0
  -21.3350  -13.2280   22.2950 H   0  0  0  0  0  0  0  0  0  0  0  0
  -25.4950  -15.3640   20.2060 N   0  0  0  0  0  0  0  0  0  0  0  0
  -24.7210  -16.0020   20.3600 H   0  0  0  0  0  0  0  0  0  0  0  0
  -26.3000  -15.8140   19.7930 H   0  0  0  0  0  0  0  0  0  0  0  0
  -29.0960  -22.8860   19.6650 C   0  0  0  0  0  0  0  0  0  0  0  0
  -29.8240  -23.1600   18.7060 O   0  0  0  0  0  0  0  0  0  0  0  0
  -28.1400  -24.2940   20.1790 C   0  0  0  0  0  2  0  0  0  0  0  0
  -28.3220  -25.9300   19.8440 O   0  0  0  0  0  0  0  0  0  0  0  0
  -24.6450  -31.8180   23.0000 C   0  0  0  0  0  0  0  0  0  0  0  0
  -27.2860  -27.0260   19.8720 C   0  0  0  0  0  0  0  0  0  0  0  0
  -23.4760  -30.4440   21.3250 C   0  0  0  0  0  3  0  0  0  0  0  0
  -24.9530  -28.8930   19.8680 C   0  0  0  0  0  0  0  0  0  0  0  0
  -26.0410  -30.6950   21.1840 C   0  0  0  0  0  2  0  0  0  0  0  0
  -26.1380  -29.2970   20.4960 C   0  0  0  0  0  0  0  0  0  0  0  0
  -27.2990  -28.3910   20.4660 C   0  0  0  0  0  3  0  0  0  0  0  0
  -26.0650  -26.7860   19.2000 C   0  0  0  0  0  3  0  0  0  0  0  0
  -24.9440  -27.6600   19.1960 C   0  0  0  0  0  3  0  0  0  0  0  0
  -23.7210  -29.7990   19.9320 C   0  0  0  0  0  2  0  0  0  0  0  0
  -24.7420  -31.0150   21.8890 N   0  0  0  0  0  0  0  0  0  0  0  0
  -23.5520  -32.0740   23.5300 O   0  0  0  0  0  0  0  0  0  0  0  0
  -22.7970  -29.4160   22.2660 C   0  0  0  0  0  0  0  0  0  0  0  0
  -21.4650  -29.2500   22.1580 N   0  0  0  0  0  0  0  0  0  0  0  0
  -23.4780  -28.7650   23.0640 O   0  0  0  0  0  0  0  0  0  0  0  0
  -20.9650  -29.8270   21.4970 H   0  0  0  0  0  0  0  0  0  0  0  0
  -18.0860  -28.0550   22.7310 C   0  0  0  0  0  0  0  0  0  0  0  0
  -20.6570  -28.2810   22.9100 C   0  0  0  0  0  3  0  0  0  0  0  0
  -20.7200  -26.8810   22.2560 C   0  0  0  0  0  2  0  0  0  0  0  0
  -19.5770  -26.6260   21.2680 C   0  0  0  0  0  2  0  0  0  0  0  0
  -18.2220  -26.7470   21.9730 C   0  0  0  0  0  2  0  0  0  0  0  0
  -19.2290  -28.7840   23.1580 C   0  0  0  0  0  0  0  0  0  0  0  0
  -19.0440  -30.0110   23.8310 C   0  0  0  0  0  3  0  0  0  0  0  0
  -17.7500  -30.5060   24.0840 C   0  0  0  0  0  3  0  0  0  0  0  0
  -16.6240  -29.7760   23.6700 C   0  0  0  0  0  3  0  0  0  0  0  0
  -16.7930  -28.5520   23.0000 C   0  0  0  0  0  3  0  0  0  0  0  0
  -25.9030  -32.4700   23.6500 C   0  0  0  0  0  3  0  0  0  0  0  0
  -25.5550  -33.8480   24.0380 N   0  0  0  0  0  0  0  0  0  0  0  0
  -25.8510  -34.9450   23.3300 C   0  0  0  0  0  0  0  0  0  0  0  0
  -26.5090  -34.9050   22.2870 O   0  0  0  0  0  0  0  0  0  0  0  0
  -24.9690  -33.9510   24.8540 H   0  0  0  0  0  0  0  0  0  0  0  0
  -24.0790  -36.7180   23.0790 C   0  0  0  0  0  1  0  0  0  0  0  0
  -25.3390  -36.3020   23.8560 C   0  0  0  0  0  3  0  0  0  0  0  0
  -27.4570  -37.2100   24.7090 C   0  0  0  0  0  1  0  0  0  0  0  0
  -26.3450  -37.3830   23.7780 N   0  0  0  0  0  0  0  0  0  0  0  0
  -25.9190  -38.2870   23.9620 H   0  0  0  0  0  0  0  0  0  0  0  0
  -26.4340  -31.6720   24.9060 C   0  0  1  0  0  0  0  0  0  0  0  0
  -25.3440  -31.3780   25.9640 C   0  0  0  0  0  1  0  0  0  0  0  0
  -27.0480  -30.3180   24.4810 C   0  0  0  0  0  1  0  0  0  0  0  0
  -27.5640  -32.4710   25.5960 C   0  0  0  0  0  1  0  0  0  0  0  0
  1  3  1  0
  2  4  1  0
  5  6  1  0
  5  7  1  0
  6 46  1  6
  6  1  1  0
  6  2  1  0
  7 16  1  6
  7  3  1  0
  7  4  1  0
  8 16  1  0
  9 14  1  0
 10 11  1  0
 10  9  1  0
 12 11  1  0
 12 21  1  0
 12 13  1  0
 14  8  1  0
 14 13  1  0
 15  8  2  0
 16 17  1  0
 18 19  2  0
 19 38  1  0
 20 19  1  0
 20 23  1  0
 21 22  1  0
 21 18  1  0
 22 20  2  0
 23 24  1  0
 24 25  2  0
 26 29  1  0
 26 25  1  0
 27 26  2  0
 28 27  1  0
 28 23  2  0
 29 30  1  0
 30 35  2  0
 30 31  1  0
 31 32  2  0
 32 33  1  0
 33 37  1  0
 34 33  2  0
 35 34  1  0
 36 35  1  0
 38 39  1  0
 39 42  1  0
 39 41  1  0
 40 38  2  0
 43 18  1  0
 43 44  1  0
 45 43  1  0
 46 48  1  0
 47 46  2  0
 49 51  1  0
 49 48  1  0
 50 61  2  0
 51 56  1  0
 52 60  1  0
 52 62  1  0
 53 59  1  0
 53 55  1  0
 54 60  1  0
 55 54  1  0
 56 55  2  0
 57 51  2  0
 58 57  1  0
 58 53  2  0
 59 52  1  0
 60 50  1  0
 62 64  2  0
 63 62  1  0
 65 63  1  0
 66 75  2  0
 66 71  1  0
 67 63  1  0
 67 71  1  0
 68 67  1  0
 69 70  1  0
 69 68  1  0
 70 66  1  0
 71 72  2  0
 72 73  1  0
 74 73  2  0
 75 74  1  0
 76 50  1  0
 76 77  1  0
 76 86  1  0
 77 80  1  0
 78 82  1  0
 78 77  1  0
 79 78  2  0
 82 81  1  0
 84 82  1  0
 84 85  1  0
 84 83  1  0
 86 89  1  1
 86 87  1  0
 88 86  1  0
M  ISO  4   8 100  16 100  48 101  49 101
M  END
>  <TORSDO>  (49) 
F 18

>  <SCORE>  (49) 
-14.948

>  <name>  (49) 
48

>  <ligand_id>  (49) 
48

>  <original_smiles>  (49) 
[H]c1c([H])c([H])c2c(c1[H])C([H])([H])C([H])([H])C([H])([H])C2([H])N([H])C(=O)C1([H])N(C(=O)C([H])(N([H])C(=O)C([H])(N([H])C([H])([H])[H])C([H])([H])[H])C(C([H])([H])[H])(C([H])([H])[H])C([H])([H])[H])C([H])([H])c2c([H])c(OC([H])([H])C(=O)C34C([H])([H])C([H])([H])C(N([H])C(=O)N5C([H])([H])C([H])([H])C([H])([H])C([H])(n6nc(-c7c([H])c([H])c(Oc8c([H])c([H])c(F)c([H])c8F)c([H])c7[H])c(C(=O)N([H])[H])c6N([H])[H])C5([H])[H])(C([H])([H])C3([H])[H])C4([H])[H])c([H])c([H])c2C1([H])[H]

>  <smiles>  (49) 
[H]c1c([H])c([H])c2c(c1[H])C([H])([H])C([H])([H])C([H])([H])C2([H])N([H])C(=O)C1([H])N(C(=O)C([H])(N([H])C(=O)C([H])(N([H])C([H])([H])[H])C([H])([H])[H])C(C([H])([H])[H])(C([H])([H])[H])C([H])([H])[H])C([H])([H])c2c([H])c(OC([H])([H])C(=O)C34C([H])([H])C([H])([H])C(N([H])C(=O)N5C([H])([H])C([H])([H])C([H])([H])C([H])(n6nc(-c7c([H])c([H])c(Oc8c([H])c([H])c(F)c([H])c8F)c([H])c7[H])c(C(=O)N([H])[H])c6N([H])[H])C5([H])[H])(C([H])([H])C3([H])[H])C4([H])[H])c([H])c([H])c2C1([H])[H]

$$$$
49:0:0
     RDKit          3D

 90 99  0  0  1  0  0  0  0  0999 V2000
  -29.2150  -17.5850   18.6680 C   0  0  0  0  0  2  0  0  0  0  0  0
  -30.3740  -19.8280   17.8110 C   0  0  0  0  0  2  0  0  0  0  0  0
  -29.3400  -18.9980   20.7810 C   0  0  0  0  0  2  0  0  0  0  0  0
  -29.1710  -18.9250   17.9410 C   0  0  0  0  0  3  0  0  0  0  0  0
  -29.9080  -17.6000   20.0380 C   0  0  0  0  0  3  0  0  0  0  0  0
  -29.1710  -20.3030   18.6100 C   0  0  0  0  0  3  0  0  0  0  0  0
  -29.4540  -20.4130   20.0730 N   0  0  1  0  0  4  0  0  0  0  0  0
  -30.4400  -20.6150   20.1340 H   0  0  0  0  0  0  0  0  0  0  0  0
  -30.5300  -14.9420   20.3650 C   0  0  0  0  0  0  0  0  0  0  0  0
  -30.3900  -12.6100   19.4050 C   0  0  0  0  0  2  0  0  0  0  0  0
  -29.4580  -12.5900   18.1700 C   0  0  0  0  0  2  0  0  0  0  0  0
  -27.9980  -12.3660   18.6010 C   0  0  0  0  0  2  0  0  0  0  0  0
  -27.5910  -13.2860   19.7820 C   0  0  0  0  0  3  0  0  0  0  0  0
  -28.6390  -13.2900   20.9170 C   0  0  0  0  0  2  0  0  0  0  0  0
  -29.9210  -13.6870   20.3230 N   0  0  0  0  0  0  0  0  0  0  0  0
  -31.7060  -15.0150   19.9970 O   0  0  0  0  0  0  0  0  0  0  0  0
  -29.7750  -16.1230   20.5980 N   0  0  0  0  0  0  0  0  0  0  0  0
  -28.8860  -15.9360   21.0440 H   0  0  0  0  0  0  0  0  0  0  0  0
  -25.2050  -13.8680   20.5020 C   0  0  0  0  0  0  0  0  0  0  0  0
  -24.1380  -13.0970   20.8630 C   0  0  0  0  0  0  0  0  0  0  0  0
  -24.6030  -11.7450   20.8400 C   0  0  0  0  0  0  0  0  0  0  0  0
  -26.2490  -12.9900   20.2710 N   0  0  0  0  0  0  0  0  0  0  0  0
  -25.8950  -11.7080   20.5380 N   0  0  0  0  0  0  0  0  0  0  0  0
  -23.8760  -10.4830   21.0290 C   0  0  0  0  0  0  0  0  0  0  0  0
  -24.3010   -9.5210   21.9730 C   0  0  0  0  0  3  0  0  0  0  0  0
  -23.5740   -8.3250   22.1520 C   0  0  0  0  0  3  0  0  0  0  0  0
  -22.4050   -8.0840   21.3890 C   0  0  0  0  0  0  0  0  0  0  0  0
  -21.9970   -9.0370   20.4400 C   0  0  0  0  0  3  0  0  0  0  0  0
  -22.7240  -10.2250   20.2590 C   0  0  0  0  0  3  0  0  0  0  0  0
  -21.6500   -6.9410   21.4770 O   0  0  0  0  0  0  0  0  0  0  0  0
  -21.5950   -6.2030   22.6330 C   0  0  0  0  0  0  0  0  0  0  0  0
  -21.1610   -6.7610   23.8560 C   0  0  0  0  0  3  0  0  0  0  0  0
  -21.0500   -5.9460   25.0010 C   0  0  0  0  0  3  0  0  0  0  0  0
  -21.3670   -4.5770   24.9250 C   0  0  0  0  0  0  0  0  0  0  0  0
  -21.7970   -4.0200   23.7080 C   0  0  0  0  0  3  0  0  0  0  0  0
  -21.9090   -4.8310   22.5640 C   0  0  0  0  0  0  0  0  0  0  0  0
  -22.3020   -4.2830   21.3880 F   0  0  0  0  0  0  0  0  0  0  0  0
  -21.2570   -3.7930   26.0230 F   0  0  0  0  0  0  0  0  0  0  0  0
  -22.7390  -13.5770   21.1190 C   0  0  0  0  0  0  0  0  0  0  0  0
  -22.0040  -12.8820   21.9800 N   0  0  0  0  0  0  0  0  0  0  0  0
  -22.3050  -14.6020   20.5910 O   0  0  0  0  0  0  0  0  0  0  0  0
  -22.3670  -12.0560   22.4300 H   0  0  0  0  0  0  0  0  0  0  0  0
  -21.0640  -13.1850   22.1950 H   0  0  0  0  0  0  0  0  0  0  0  0
  -25.3660  -15.2380   20.3170 N   0  0  0  0  0  0  0  0  0  0  0  0
  -24.5880  -15.8800   20.4180 H   0  0  0  0  0  0  0  0  0  0  0  0
  -26.2050  -15.6780   19.9620 H   0  0  0  0  0  0  0  0  0  0  0  0
  -28.7670  -21.7200   20.6860 C   0  0  0  0  0  2  0  0  0  0  0  0
  -29.0080  -23.3190   20.1570 C   0  0  0  0  0  3  0  0  0  0  0  0
  -28.1020  -24.6700   20.6330 C   0  0  0  0  0  3  0  0  0  0  0  0
  -28.3170  -26.1840   20.2980 O   0  0  0  0  0  0  0  0  0  0  0  0
  -24.6330  -31.8690   23.2490 C   0  0  0  0  0  0  0  0  0  0  0  0
  -27.2360  -27.1410   20.2660 C   0  0  0  0  0  0  0  0  0  0  0  0
  -23.4410  -30.4580   21.6200 C   0  0  0  0  0  3  0  0  0  0  0  0
  -24.8940  -28.8740   20.2110 C   0  0  0  0  0  0  0  0  0  0  0  0
  -25.9950  -30.7300   21.4530 C   0  0  0  0  0  2  0  0  0  0  0  0
  -26.0730  -29.3340   20.8130 C   0  0  0  0  0  0  0  0  0  0  0  0
  -27.2460  -28.4880   20.8130 C   0  0  0  0  0  3  0  0  0  0  0  0
  -26.0310  -26.7810   19.6240 C   0  0  0  0  0  3  0  0  0  0  0  0
  -24.8850  -27.6090   19.6000 C   0  0  0  0  0  3  0  0  0  0  0  0
  -23.6600  -29.7640   20.2510 C   0  0  0  0  0  2  0  0  0  0  0  0
  -24.7100  -31.0440   22.1600 N   0  0  0  0  0  0  0  0  0  0  0  0
  -23.5460  -32.1540   23.7730 O   0  0  0  0  0  0  0  0  0  0  0  0
  -22.7620  -29.4580   22.5890 C   0  0  0  0  0  0  0  0  0  0  0  0
  -21.4350  -29.2820   22.4560 N   0  0  0  0  0  0  0  0  0  0  0  0
  -23.4310  -28.8390   23.4200 O   0  0  0  0  0  0  0  0  0  0  0  0
  -20.9530  -29.8290   21.7570 H   0  0  0  0  0  0  0  0  0  0  0  0
  -18.0530  -28.0890   22.9660 C   0  0  0  0  0  0  0  0  0  0  0  0
  -20.6130  -28.3490   23.2320 C   0  0  0  0  0  3  0  0  0  0  0  0
  -20.7100  -26.9140   22.6620 C   0  0  0  0  0  2  0  0  0  0  0  0
  -19.6070  -26.5900   21.6500 C   0  0  0  0  0  2  0  0  0  0  0  0
  -18.2260  -26.7370   22.2930 C   0  0  0  0  0  2  0  0  0  0  0  0
  -19.1720  -28.8530   23.3910 C   0  0  0  0  0  0  0  0  0  0  0  0
  -18.9510  -30.1180   23.9770 C   0  0  0  0  0  3  0  0  0  0  0  0
  -17.6440  -30.6170   24.1430 C   0  0  0  0  0  3  0  0  0  0  0  0
  -16.5410  -29.8500   23.7300 C   0  0  0  0  0  3  0  0  0  0  0  0
  -16.7460  -28.5860   23.1500 C   0  0  0  0  0  3  0  0  0  0  0  0
  -25.9090  -32.5100   23.8760 C   0  0  0  0  0  3  0  0  0  0  0  0
  -26.4110  -31.7570   25.1710 C   0  0  1  0  0  0  0  0  0  0  0  0
  -25.3100  -31.5350   26.2340 C   0  0  0  0  0  1  0  0  0  0  0  0
  -26.9920  -30.3710   24.8080 C   0  0  0  0  0  1  0  0  0  0  0  0
  -27.5590  -32.5570   25.8290 C   0  0  0  0  0  1  0  0  0  0  0  0
  -25.5940  -33.9130   24.1960 N   0  0  0  0  0  0  0  0  0  0  0  0
  -25.9320  -34.9630   23.4360 C   0  0  0  0  0  0  0  0  0  0  0  0
  -26.6040  -34.8530   22.4080 O   0  0  0  0  0  0  0  0  0  0  0  0
  -24.9900  -34.0680   24.9900 H   0  0  0  0  0  0  0  0  0  0  0  0
  -24.2060  -36.7590   23.0680 C   0  0  0  0  0  1  0  0  0  0  0  0
  -25.4430  -36.3540   23.8860 C   0  0  0  0  0  3  0  0  0  0  0  0
  -27.5750  -37.2410   24.7240 C   0  0  0  0  0  1  0  0  0  0  0  0
  -26.4780  -37.4050   23.7720 N   0  0  0  0  0  0  0  0  0  0  0  0
  -26.0720  -38.3270   23.9100 H   0  0  0  0  0  0  0  0  0  0  0  0
  1  5  1  0
  4  2  1  0
  4  6  1  0
  4  1  1  0
  5 17  1  0
  5  3  1  0
  6  2  1  0
  6  7  1  0
  7  8  1  6
  7 47  1  0
  7  3  1  0
  9 17  1  0
 10 15  1  0
 11 12  1  0
 11 10  1  0
 13 12  1  0
 13 22  1  0
 13 14  1  0
 15  9  1  0
 15 14  1  0
 16  9  2  0
 17 18  1  0
 19 20  2  0
 20 39  1  0
 21 20  1  0
 21 24  1  0
 22 19  1  0
 22 23  1  0
 23 21  2  0
 24 25  1  0
 25 26  2  0
 27 30  1  0
 27 26  1  0
 28 27  2  0
 29 28  1  0
 29 24  2  0
 30 31  1  0
 31 32  1  0
 32 33  2  0
 34 33  1  0
 34 38  1  0
 35 34  2  0
 36 31  2  0
 36 35  1  0
 37 36  1  0
 39 40  1  0
 40 43  1  0
 40 42  1  0
 41 39  2  0
 44 45  1  0
 44 19  1  0
 46 44  1  0
 48 49  2  0
 48 47  1  0
 50 49  1  0
 51 62  2  0
 52 50  1  0
 52 57  1  0
 53 61  1  0
 53 63  1  0
 54 60  1  0
 54 56  1  0
 55 61  1  0
 56 57  2  0
 56 55  1  0
 58 52  2  0
 59 58  1  0
 59 54  2  0
 60 53  1  0
 61 51  1  0
 63 65  2  0
 64 63  1  0
 66 64  1  0
 67 76  2  0
 67 72  1  0
 68 64  1  0
 68 72  1  0
 69 68  1  0
 70 71  1  0
 70 69  1  0
 71 67  1  0
 72 73  2  0
 73 74  1  0
 75 74  2  0
 76 75  1  0
 77 51  1  0
 77 82  1  0
 77 78  1  0
 78 81  1  1
 78 79  1  0
 80 78  1  0
 82 85  1  0
 83 87  1  0
 83 82  1  0
 84 83  2  0
 87 86  1  0
 89 87  1  0
 89 90  1  0
 89 88  1  0
M  ISO  4   9 100  17 100  49 101  50 101
M  END
>  <TORSDO>  (50) 
F 19

>  <SCORE>  (50) 
-15.391

>  <name>  (50) 
49

>  <ligand_id>  (50) 
49

>  <original_smiles>  (50) 
[H]c1c([H])c([H])c2c(c1[H])C([H])([H])C([H])([H])C([H])([H])C2([H])N([H])C(=O)C1([H])N(C(=O)C([H])(N([H])C(=O)C([H])(N([H])C([H])([H])[H])C([H])([H])[H])C(C([H])([H])[H])(C([H])([H])[H])C([H])([H])[H])C([H])([H])c2c([H])c(OC([H])([H])C([H])([H])C([H])([H])[N+]3([H])C([H])([H])C([H])(N([H])C(=O)N4C([H])([H])C([H])([H])C([H])([H])C([H])(n5nc(-c6c([H])c([H])c(Oc7c([H])c([H])c(F)c([H])c7F)c([H])c6[H])c(C(=O)N([H])[H])c5N([H])[H])C4([H])[H])C([H])([H])C4([H])C([H])([H])C43[H])c([H])c([H])c2C1([H])[H]

>  <smiles>  (50) 
[H]c1c([H])c([H])c2c(c1[H])C([H])([H])C([H])([H])C([H])([H])C2([H])N([H])C(=O)C1([H])N(C(=O)C([H])(N([H])C(=O)C([H])(N([H])C([H])([H])[H])C([H])([H])[H])C(C([H])([H])[H])(C([H])([H])[H])C([H])([H])[H])C([H])([H])c2c([H])c(OC([H])([H])C([H])([H])C([H])([H])[N+]3([H])C([H])([H])C([H])(N([H])C(=O)N4C([H])([H])C([H])([H])C([H])([H])C([H])(n5nc(-c6c([H])c([H])c(Oc7c([H])c([H])c(F)c([H])c7F)c([H])c6[H])c(C(=O)N([H])[H])c5N([H])[H])C4([H])[H])C([H])([H])C4([H])C([H])([H])C43[H])c([H])c([H])c2C1([H])[H]

$$$$
50:0:0
     RDKit          3D

 92101  0  0  1  0  0  0  0  0999 V2000
  -29.1220  -22.0520   20.4780 C   0  0  0  0  0  0  0  0  0  0  0  0
  -29.2360  -22.1310   21.7030 O   0  0  0  0  0  0  0  0  0  0  0  0
  -30.6400  -15.0630   19.9730 C   0  0  0  0  0  0  0  0  0  0  0  0
  -30.4990  -12.7500   18.9250 C   0  0  0  0  0  2  0  0  0  0  0  0
  -29.4690  -12.7060   17.7710 C   0  0  0  0  0  2  0  0  0  0  0  0
  -28.0430  -12.4550   18.3010 C   0  0  0  0  0  2  0  0  0  0  0  0
  -27.7160  -13.3220   19.5450 C   0  0  0  0  0  3  0  0  0  0  0  0
  -28.8630  -13.2390   20.5810 C   0  0  0  0  0  2  0  0  0  0  0  0
  -30.0490  -13.7890   19.9040 N   0  0  0  0  0  0  0  0  0  0  0  0
  -31.8150  -15.1140   19.5800 O   0  0  0  0  0  0  0  0  0  0  0  0
  -27.7140  -17.5910   20.5050 C   0  0  0  0  0  2  0  0  0  0  0  0
  -28.6850  -16.4640   20.9790 C   0  0  0  0  0  2  0  0  0  0  0  0
  -30.3900  -17.7430   19.7370 C   0  0  0  0  0  2  0  0  0  0  0  0
  -29.2820  -20.5930   19.7220 C   0  0  0  0  0  3  0  0  0  0  0  0
  -29.7470  -19.1410   20.3970 C   0  0  0  0  0  3  0  0  0  0  0  0
  -28.2870  -18.9900   20.7200 C   0  0  0  0  0  3  0  0  0  0  0  0
  -29.9180  -16.3020   20.1650 N   0  0  0  0  0  0  0  0  0  0  0  0
  -27.9480  -19.9960   19.6890 N   0  0  0  0  0  4  0  0  0  0  0  0
  -27.7520  -19.5910   18.7900 H   0  0  0  0  0  0  0  0  0  0  0  0
  -27.2220  -20.6350   19.9710 H   0  0  0  0  0  0  0  0  0  0  0  0
  -25.3750  -13.8640   20.4360 C   0  0  0  0  0  0  0  0  0  0  0  0
  -24.3450  -13.0740   20.8590 C   0  0  0  0  0  0  0  0  0  0  0  0
  -24.8150  -11.7300   20.7540 C   0  0  0  0  0  0  0  0  0  0  0  0
  -26.4120  -13.0040   20.1150 N   0  0  0  0  0  0  0  0  0  0  0  0
  -26.0850  -11.7110   20.3640 N   0  0  0  0  0  0  0  0  0  0  0  0
  -24.1110  -10.4590   20.9450 C   0  0  0  0  0  0  0  0  0  0  0  0
  -24.5640   -9.4960   21.8730 C   0  0  0  0  0  3  0  0  0  0  0  0
  -23.8560   -8.2880   22.0510 C   0  0  0  0  0  3  0  0  0  0  0  0
  -22.6820   -8.0360   21.3040 C   0  0  0  0  0  0  0  0  0  0  0  0
  -22.2490   -8.9880   20.3640 C   0  0  0  0  0  3  0  0  0  0  0  0
  -22.9580  -10.1860   20.1830 C   0  0  0  0  0  3  0  0  0  0  0  0
  -21.9430   -6.8810   21.3940 O   0  0  0  0  0  0  0  0  0  0  0  0
  -21.8470   -6.1810   22.5710 C   0  0  0  0  0  0  0  0  0  0  0  0
  -21.3270   -6.7660   23.7470 C   0  0  0  0  0  3  0  0  0  0  0  0
  -21.1810   -5.9890   24.9130 C   0  0  0  0  0  3  0  0  0  0  0  0
  -21.5440   -4.6290   24.9050 C   0  0  0  0  0  0  0  0  0  0  0  0
  -22.0580   -4.0450   23.7340 C   0  0  0  0  0  3  0  0  0  0  0  0
  -22.2060   -4.8190   22.5700 C   0  0  0  0  0  0  0  0  0  0  0  0
  -22.6810   -4.2450   21.4380 F   0  0  0  0  0  0  0  0  0  0  0  0
  -21.3960   -3.8810   26.0230 F   0  0  0  0  0  0  0  0  0  0  0  0
  -22.9660  -13.5350   21.2320 C   0  0  0  0  0  0  0  0  0  0  0  0
  -22.2990  -12.8140   22.1270 N   0  0  0  0  0  0  0  0  0  0  0  0
  -22.4930  -14.5720   20.7690 O   0  0  0  0  0  0  0  0  0  0  0  0
  -22.6970  -11.9780   22.5260 H   0  0  0  0  0  0  0  0  0  0  0  0
  -21.3760  -13.1060   22.4140 H   0  0  0  0  0  0  0  0  0  0  0  0
  -25.4970  -15.2370   20.2670 N   0  0  0  0  0  0  0  0  0  0  0  0
  -24.7110  -15.8590   20.4100 H   0  0  0  0  0  0  0  0  0  0  0  0
  -26.2820  -15.6790   19.8110 H   0  0  0  0  0  0  0  0  0  0  0  0
  -30.0040  -23.8910   18.8670 C   0  0  0  0  0  1  0  0  0  0  0  0
  -28.7910  -23.4880   19.7240 C   0  0  0  0  0  3  0  0  0  0  0  0
  -28.2460  -24.8470   20.5460 C   0  0  0  0  0  2  0  0  0  0  0  0
  -28.3890  -26.3340   20.1500 O   0  0  0  0  0  0  0  0  0  0  0  0
  -24.6580  -31.9050   23.2020 C   0  0  0  0  0  0  0  0  0  0  0  0
  -27.2890  -27.2520   20.1690 C   0  0  0  0  0  0  0  0  0  0  0  0
  -23.4670  -30.4920   21.5700 C   0  0  0  0  0  3  0  0  0  0  0  0
  -24.9270  -28.9310   20.1490 C   0  0  0  0  0  0  0  0  0  0  0  0
  -26.0120  -30.8020   21.3860 C   0  0  0  0  0  2  0  0  0  0  0  0
  -26.1030  -29.4100   20.7430 C   0  0  0  0  0  0  0  0  0  0  0  0
  -27.2870  -28.5880   20.7300 C   0  0  0  0  0  3  0  0  0  0  0  0
  -26.0850  -26.8570   19.5510 C   0  0  0  0  0  3  0  0  0  0  0  0
  -24.9280  -27.6670   19.5400 C   0  0  0  0  0  3  0  0  0  0  0  0
  -23.6890  -29.8120   20.1930 C   0  0  0  0  0  2  0  0  0  0  0  0
  -24.7330  -31.0870   22.1090 N   0  0  0  0  0  0  0  0  0  0  0  0
  -23.5710  -32.1770   23.7350 O   0  0  0  0  0  0  0  0  0  0  0  0
  -22.8050  -29.4790   22.5360 C   0  0  0  0  0  0  0  0  0  0  0  0
  -21.4770  -29.2980   22.4200 N   0  0  0  0  0  0  0  0  0  0  0  0
  -23.4880  -28.8570   23.3530 O   0  0  0  0  0  0  0  0  0  0  0  0
  -20.9820  -29.8540   21.7370 H   0  0  0  0  0  0  0  0  0  0  0  0
  -18.1100  -28.0780   22.9480 C   0  0  0  0  0  0  0  0  0  0  0  0
  -20.6690  -28.3550   23.1970 C   0  0  0  0  0  3  0  0  0  0  0  0
  -20.7760  -26.9250   22.6200 C   0  0  0  0  0  2  0  0  0  0  0  0
  -19.6680  -26.5950   21.6150 C   0  0  0  0  0  2  0  0  0  0  0  0
  -18.2910  -26.7300   22.2690 C   0  0  0  0  0  2  0  0  0  0  0  0
  -19.2270  -28.8460   23.3700 C   0  0  0  0  0  0  0  0  0  0  0  0
  -19.0020  -30.1070   23.9660 C   0  0  0  0  0  3  0  0  0  0  0  0
  -17.6950  -30.5970   24.1440 C   0  0  0  0  0  3  0  0  0  0  0  0
  -16.5930  -29.8260   23.7370 C   0  0  0  0  0  3  0  0  0  0  0  0
  -16.8010  -28.5680   23.1440 C   0  0  0  0  0  3  0  0  0  0  0  0
  -25.9310  -32.5560   23.8240 C   0  0  0  0  0  3  0  0  0  0  0  0
  -25.6000  -33.9480   24.1670 N   0  0  0  0  0  0  0  0  0  0  0  0
  -25.9160  -35.0130   23.4190 C   0  0  0  0  0  0  0  0  0  0  0  0
  -26.5830  -34.9290   22.3840 O   0  0  0  0  0  0  0  0  0  0  0  0
  -25.0010  -34.0860   24.9670 H   0  0  0  0  0  0  0  0  0  0  0  0
  -24.1690  -36.7970   23.0900 C   0  0  0  0  0  1  0  0  0  0  0  0
  -25.4140  -36.3920   23.8950 C   0  0  0  0  0  3  0  0  0  0  0  0
  -27.5380  -37.2930   24.7400 C   0  0  0  0  0  1  0  0  0  0  0  0
  -26.4360  -37.4570   23.7960 N   0  0  0  0  0  0  0  0  0  0  0  0
  -26.0190  -38.3710   23.9530 H   0  0  0  0  0  0  0  0  0  0  0  0
  -26.4620  -31.7860   25.0960 C   0  0  1  0  0  0  0  0  0  0  0  0
  -25.3760  -31.5310   26.1660 C   0  0  0  0  0  1  0  0  0  0  0  0
  -27.0620  -30.4170   24.7000 C   0  0  0  0  0  1  0  0  0  0  0  0
  -27.6010  -32.5960   25.7590 C   0  0  0  0  0  1  0  0  0  0  0  0
  1  2  2  0
  3 17  1  0
  4  9  1  0
  5  6  1  0
  5  4  1  0
  7  6  1  0
  7 24  1  0
  7  8  1  0
  9  3  1  0
  9  8  1  0
 10  3  2  0
 11 12  1  0
 13 17  1  0
 14 15  1  0
 14  1  1  0
 15 13  1  0
 15 16  1  0
 16 11  1  0
 17 12  1  0
 18 14  1  0
 18 20  1  0
 18 16  1  0
 19 18  1  0
 21 22  2  0
 22 41  1  0
 23 22  1  0
 23 26  1  0
 24 25  1  0
 24 21  1  0
 25 23  2  0
 26 27  1  0
 27 28  2  0
 29 32  1  0
 29 28  1  0
 30 29  2  0
 31 30  1  0
 31 26  2  0
 32 33  1  0
 33 34  1  0
 34 35  2  0
 36 35  1  0
 36 40  1  0
 37 36  2  0
 38 33  2  0
 38 37  1  0
 39 38  1  0
 41 42  1  0
 42 45  1  0
 42 44  1  0
 43 41  2  0
 46 47  1  0
 46 21  1  0
 48 46  1  0
 50 49  1  0
 50  1  1  0
 50 51  1  0
 52 54  1  0
 52 51  1  0
 53 64  2  0
 54 59  1  0
 55 63  1  0
 55 65  1  0
 56 62  1  0
 56 58  1  0
 57 63  1  0
 58 57  1  0
 59 58  2  0
 60 54  2  0
 61 60  1  0
 61 56  2  0
 62 55  1  0
 63 53  1  0
 65 67  2  0
 66 65  1  0
 68 66  1  0
 69 78  2  0
 69 74  1  0
 70 66  1  0
 70 74  1  0
 71 70  1  0
 72 73  1  0
 72 71  1  0
 73 69  1  0
 74 75  2  0
 75 76  1  0
 77 76  2  0
 78 77  1  0
 79 53  1  0
 79 80  1  0
 79 89  1  0
 80 83  1  0
 81 85  1  0
 81 80  1  0
 82 81  2  0
 85 84  1  0
 87 85  1  0
 87 88  1  0
 87 86  1  0
 89 92  1  1
 89 90  1  0
 91 89  1  0
M  ISO  4   3 100  17 100  51 101  52 101
M  END
>  <TORSDO>  (51) 
F 18

>  <SCORE>  (51) 
-14.213

>  <name>  (51) 
50

>  <ligand_id>  (51) 
50

>  <original_smiles>  (51) 
[H]c1c([H])c([H])c2c(c1[H])C([H])([H])C([H])([H])C([H])([H])C2([H])N([H])C(=O)C1([H])N(C(=O)C([H])(N([H])C(=O)C([H])(N([H])C([H])([H])[H])C([H])([H])[H])C(C([H])([H])[H])(C([H])([H])[H])C([H])([H])[H])C([H])([H])c2c([H])c(OC([H])([H])C([H])(C(=O)C3([H])C4([H])C([H])([H])N(C(=O)N5C([H])([H])C([H])([H])C([H])([H])C([H])(n6nc(-c7c([H])c([H])c(Oc8c([H])c([H])c(F)c([H])c8F)c([H])c7[H])c(C(=O)N([H])[H])c6N([H])[H])C5([H])[H])C([H])([H])C([H])([H])C4([H])[N+]3([H])[H])C([H])([H])[H])c([H])c([H])c2C1([H])[H]

>  <smiles>  (51) 
[H]c1c([H])c([H])c2c(c1[H])C([H])([H])C([H])([H])C([H])([H])C2([H])N([H])C(=O)C1([H])N(C(=O)C([H])(N([H])C(=O)C([H])(N([H])C([H])([H])[H])C([H])([H])[H])C(C([H])([H])[H])(C([H])([H])[H])C([H])([H])[H])C([H])([H])c2c([H])c(OC([H])([H])C([H])(C(=O)C3([H])C4([H])C([H])([H])N(C(=O)N5C([H])([H])C([H])([H])C([H])([H])C([H])(n6nc(-c7c([H])c([H])c(Oc8c([H])c([H])c(F)c([H])c8F)c([H])c7[H])c(C(=O)N([H])[H])c6N([H])[H])C5([H])[H])C([H])([H])C([H])([H])C4([H])[N+]3([H])[H])C([H])([H])[H])c([H])c([H])c2C1([H])[H]

$$$$
51:0:0
     RDKit          3D

 92101  0  0  1  0  0  0  0  0999 V2000
  -29.1670  -21.4640   20.6800 N   0  0  0  0  0  4  0  0  0  0  0  0
  -29.8510  -21.7480   21.3600 H   0  0  0  0  0  0  0  0  0  0  0  0
  -28.3130  -21.3400   21.1980 H   0  0  0  0  0  0  0  0  0  0  0  0
  -28.6310  -17.5950   20.6730 C   0  0  0  0  0  2  0  0  0  0  0  0
  -31.0060  -19.6330   20.1610 C   0  0  0  0  0  2  0  0  0  0  0  0
  -29.2800  -18.9100   21.1290 C   0  0  0  0  0  3  0  0  0  0  0  0
  -30.6660  -18.2750   20.8640 C   0  0  0  0  0  3  0  0  0  0  0  0
  -29.9800  -17.0260   20.1870 C   0  0  0  0  0  3  0  0  0  0  0  0
  -29.5240  -20.0860   20.1440 C   0  0  0  0  0  3  0  0  0  0  0  0
  -30.8110  -14.6040   20.1640 C   0  0  0  0  0  0  0  0  0  0  0  0
  -30.4830  -12.4130   19.0480 C   0  0  0  0  0  2  0  0  0  0  0  0
  -29.4960  -12.5910   17.8730 C   0  0  0  0  0  2  0  0  0  0  0  0
  -28.0480  -12.4270   18.3610 C   0  0  0  0  0  2  0  0  0  0  0  0
  -27.7450  -13.2870   19.6140 C   0  0  0  0  0  3  0  0  0  0  0  0
  -28.8370  -13.1060   20.6960 C   0  0  0  0  0  2  0  0  0  0  0  0
  -30.1480  -13.4080   20.0890 N   0  0  0  0  0  0  0  0  0  0  0  0
  -31.8900  -14.7940   19.6030 O   0  0  0  0  0  0  0  0  0  0  0  0
  -30.1380  -15.6390   20.7320 N   0  0  0  0  0  0  0  0  0  0  0  0
  -29.3600  -15.3230   21.2910 H   0  0  0  0  0  0  0  0  0  0  0  0
  -25.3800  -13.9020   20.4200 C   0  0  0  0  0  0  0  0  0  0  0  0
  -24.3160  -13.1350   20.8150 C   0  0  0  0  0  0  0  0  0  0  0  0
  -24.7640  -11.7800   20.7540 C   0  0  0  0  0  0  0  0  0  0  0  0
  -26.4090  -13.0170   20.1400 N   0  0  0  0  0  0  0  0  0  0  0  0
  -26.0440  -11.7340   20.4020 N   0  0  0  0  0  0  0  0  0  0  0  0
  -24.0340  -10.5210   20.9580 C   0  0  0  0  0  0  0  0  0  0  0  0
  -24.4690   -9.5590   21.8950 C   0  0  0  0  0  3  0  0  0  0  0  0
  -23.7420   -8.3640   22.0870 C   0  0  0  0  0  3  0  0  0  0  0  0
  -22.5630   -8.1240   21.3420 C   0  0  0  0  0  0  0  0  0  0  0  0
  -22.1460   -9.0750   20.3930 C   0  0  0  0  0  3  0  0  0  0  0  0
  -22.8740  -10.2620   20.2000 C   0  0  0  0  0  3  0  0  0  0  0  0
  -21.8060   -6.9810   21.4410 O   0  0  0  0  0  0  0  0  0  0  0  0
  -21.7370   -6.2670   22.6090 C   0  0  0  0  0  0  0  0  0  0  0  0
  -21.2680   -6.8450   23.8090 C   0  0  0  0  0  3  0  0  0  0  0  0
  -21.1460   -6.0560   24.9680 C   0  0  0  0  0  3  0  0  0  0  0  0
  -21.4790   -4.6890   24.9300 C   0  0  0  0  0  0  0  0  0  0  0  0
  -21.9390   -4.1080   23.7340 C   0  0  0  0  0  3  0  0  0  0  0  0
  -22.0640   -4.8960   22.5760 C   0  0  0  0  0  0  0  0  0  0  0  0
  -22.4890   -4.3310   21.4210 F   0  0  0  0  0  0  0  0  0  0  0  0
  -21.3510   -3.9260   26.0420 F   0  0  0  0  0  0  0  0  0  0  0  0
  -22.9330  -13.6220   21.1420 C   0  0  0  0  0  0  0  0  0  0  0  0
  -22.2310  -12.9220   22.0240 N   0  0  0  0  0  0  0  0  0  0  0  0
  -22.4870  -14.6600   20.6530 O   0  0  0  0  0  0  0  0  0  0  0  0
  -22.6080  -12.0850   22.4410 H   0  0  0  0  0  0  0  0  0  0  0  0
  -21.3060  -13.2310   22.2900 H   0  0  0  0  0  0  0  0  0  0  0  0
  -25.5600  -15.2720   20.2550 N   0  0  0  0  0  0  0  0  0  0  0  0
  -24.8150  -15.9450   20.4060 H   0  0  0  0  0  0  0  0  0  0  0  0
  -26.4160  -15.6990   19.9260 H   0  0  0  0  0  0  0  0  0  0  0  0
  -27.8550  -22.2460   18.6700 C   0  0  0  0  0  1  0  0  0  0  0  0
  -28.9110  -22.6230   19.7300 C   0  0  0  0  0  3  0  0  0  0  0  0
  -28.5090  -23.9920   20.4390 C   0  0  0  0  0  3  0  0  0  0  0  0
  -28.5630  -25.2940   19.5390 C   0  0  0  0  0  3  0  0  0  0  0  0
  -28.4310  -26.6020   20.1900 O   0  0  0  0  0  0  0  0  0  0  0  0
  -24.5970  -31.8660   23.1860 C   0  0  0  0  0  0  0  0  0  0  0  0
  -27.2600  -27.3560   20.1390 C   0  0  0  0  0  0  0  0  0  0  0  0
  -23.4130  -30.4680   21.5340 C   0  0  0  0  0  3  0  0  0  0  0  0
  -24.8720  -28.9250   20.1230 C   0  0  0  0  0  0  0  0  0  0  0  0
  -25.9470  -30.8070   21.3630 C   0  0  0  0  0  2  0  0  0  0  0  0
  -26.0310  -29.4330   20.7170 C   0  0  0  0  0  0  0  0  0  0  0  0
  -27.2280  -28.6600   20.7130 C   0  0  0  0  0  3  0  0  0  0  0  0
  -26.0600  -26.8780   19.5570 C   0  0  0  0  0  3  0  0  0  0  0  0
  -24.8850  -27.6510   19.5380 C   0  0  0  0  0  3  0  0  0  0  0  0
  -23.6390  -29.8050   20.1520 C   0  0  0  0  0  2  0  0  0  0  0  0
  -24.6710  -31.0630   22.0860 N   0  0  0  0  0  0  0  0  0  0  0  0
  -23.5110  -32.1310   23.7160 O   0  0  0  0  0  0  0  0  0  0  0  0
  -22.7540  -29.4380   22.4820 C   0  0  0  0  0  0  0  0  0  0  0  0
  -21.4310  -29.2580   22.3500 N   0  0  0  0  0  0  0  0  0  0  0  0
  -23.4350  -28.8070   23.2950 O   0  0  0  0  0  0  0  0  0  0  0  0
  -20.9390  -29.8030   21.6570 H   0  0  0  0  0  0  0  0  0  0  0  0
  -18.0430  -28.1180   22.9060 C   0  0  0  0  0  0  0  0  0  0  0  0
  -20.6100  -28.3290   23.1300 C   0  0  0  0  0  3  0  0  0  0  0  0
  -20.6760  -26.9010   22.5410 C   0  0  0  0  0  2  0  0  0  0  0  0
  -19.5500  -26.6090   21.5450 C   0  0  0  0  0  2  0  0  0  0  0  0
  -18.1890  -26.7630   22.2320 C   0  0  0  0  0  2  0  0  0  0  0  0
  -19.1820  -28.8550   23.3200 C   0  0  0  0  0  0  0  0  0  0  0  0
  -18.9980  -30.1160   23.9290 C   0  0  0  0  0  3  0  0  0  0  0  0
  -17.7060  -30.6380   24.1250 C   0  0  0  0  0  3  0  0  0  0  0  0
  -16.5800  -29.8980   23.7270 C   0  0  0  0  0  3  0  0  0  0  0  0
  -16.7500  -28.6390   23.1200 C   0  0  0  0  0  3  0  0  0  0  0  0
  -25.8750  -32.5050   23.8120 C   0  0  0  0  0  3  0  0  0  0  0  0
  -26.3890  -31.7320   25.0870 C   0  0  1  0  0  0  0  0  0  0  0  0
  -25.2910  -31.4800   26.1470 C   0  0  0  0  0  1  0  0  0  0  0  0
  -26.9870  -30.3630   24.6940 C   0  0  0  0  0  1  0  0  0  0  0  0
  -27.5280  -32.5330   25.7600 C   0  0  0  0  0  1  0  0  0  0  0  0
  -25.5520  -33.8980   24.1420 N   0  0  0  0  0  0  0  0  0  0  0  0
  -25.8850  -34.9580   23.3930 C   0  0  0  0  0  0  0  0  0  0  0  0
  -26.5710  -34.8660   22.3670 O   0  0  0  0  0  0  0  0  0  0  0  0
  -24.9460  -34.0450   24.9360 H   0  0  0  0  0  0  0  0  0  0  0  0
  -24.1620  -36.7480   23.0150 C   0  0  0  0  0  1  0  0  0  0  0  0
  -25.3860  -36.3410   23.8480 C   0  0  0  0  0  3  0  0  0  0  0  0
  -27.4990  -37.2300   24.7300 C   0  0  0  0  0  1  0  0  0  0  0  0
  -26.4180  -37.3980   23.7630 N   0  0  0  0  0  0  0  0  0  0  0  0
  -26.0080  -38.3170   23.9010 H   0  0  0  0  0  0  0  0  0  0  0  0
  1  3  1  0
  1  2  1  0
  6  4  1  0
  7  5  1  0
  7  6  1  0
  8  4  1  0
  8 18  1  0
  8  7  1  0
  9  5  1  0
  9  1  1  0
  9  6  1  0
 10 18  1  0
 11 16  1  0
 12 13  1  0
 12 11  1  0
 14 13  1  0
 14 23  1  0
 14 15  1  0
 16 10  1  0
 16 15  1  0
 17 10  2  0
 18 19  1  0
 20 21  2  0
 21 40  1  0
 22 21  1  0
 22 25  1  0
 23 24  1  0
 23 20  1  0
 24 22  2  0
 25 26  1  0
 26 27  2  0
 28 31  1  0
 28 27  1  0
 29 28  2  0
 30 29  1  0
 30 25  2  0
 31 32  1  0
 32 33  1  0
 33 34  2  0
 35 34  1  0
 35 39  1  0
 36 35  2  0
 37 32  2  0
 37 36  1  0
 38 37  1  0
 40 41  1  0
 41 44  1  0
 41 43  1  0
 42 40  2  0
 45 46  1  0
 45 20  1  0
 47 45  1  0
 49 48  1  0
 49 50  1  0
 49  1  1  0
 51 52  1  0
 51 50  2  0
 53 64  2  0
 54 52  1  0
 54 59  1  0
 55 63  1  0
 55 65  1  0
 56 62  1  0
 56 58  1  0
 57 63  1  0
 58 57  1  0
 59 58  2  0
 60 54  2  0
 61 60  1  0
 61 56  2  0
 62 55  1  0
 63 53  1  0
 65 67  2  0
 66 65  1  0
 68 66  1  0
 69 78  2  0
 69 74  1  0
 70 66  1  0
 70 74  1  0
 71 70  1  0
 72 73  1  0
 72 71  1  0
 73 69  1  0
 74 75  2  0
 75 76  1  0
 77 76  2  0
 78 77  1  0
 79 53  1  0
 79 84  1  0
 79 80  1  0
 80 83  1  1
 80 81  1  0
 82 80  1  0
 84 87  1  0
 85 89  1  0
 85 84  1  0
 86 85  2  0
 89 88  1  0
 91 89  1  0
 91 92  1  0
 91 90  1  0
M  ISO  4  10 100  18 100  51 101  52 101
M  END
>  <TORSDO>  (52) 
F 20

>  <SCORE>  (52) 
-13.608

>  <name>  (52) 
51

>  <ligand_id>  (52) 
51

>  <original_smiles>  (52) 
[H]c1c([H])c([H])c2c(c1[H])C([H])([H])C([H])([H])C([H])([H])C2([H])N([H])C(=O)C1([H])N(C(=O)C([H])(N([H])C(=O)C([H])(N([H])C([H])([H])[H])C([H])([H])[H])C(C([H])([H])[H])(C([H])([H])[H])C([H])([H])[H])C([H])([H])c2c([H])c(OC([H])([H])C([H])([H])C([H])(C([H])([H])[H])[N+]([H])([H])C3([H])C([H])([H])C4([H])C([H])(N([H])C(=O)N5C([H])([H])C([H])([H])C([H])([H])C([H])(n6nc(-c7c([H])c([H])c(Oc8c([H])c([H])c(F)c([H])c8F)c([H])c7[H])c(C(=O)N([H])[H])c6N([H])[H])C5([H])[H])C([H])([H])C43[H])c([H])c([H])c2C1([H])[H]

>  <smiles>  (52) 
[H]c1c([H])c([H])c2c(c1[H])C([H])([H])C([H])([H])C([H])([H])C2([H])N([H])C(=O)C1([H])N(C(=O)C([H])(N([H])C(=O)C([H])(N([H])C([H])([H])[H])C([H])([H])[H])C(C([H])([H])[H])(C([H])([H])[H])C([H])([H])[H])C([H])([H])c2c([H])c(OC([H])([H])C([H])([H])C([H])(C([H])([H])[H])[N+]([H])([H])C3([H])C([H])([H])C4([H])C([H])(N([H])C(=O)N5C([H])([H])C([H])([H])C([H])([H])C([H])(n6nc(-c7c([H])c([H])c(Oc8c([H])c([H])c(F)c([H])c8F)c([H])c7[H])c(C(=O)N([H])[H])c6N([H])[H])C5([H])[H])C([H])([H])C43[H])c([H])c([H])c2C1([H])[H]

$$$$
52:0:0
     RDKit          3D

 89 98  0  0  1  0  0  0  0  0999 V2000
  -30.1540  -21.7370   20.8850 C   0  0  0  0  0  3  0  0  0  0  0  0
  -28.8420  -17.8470   20.4890 C   0  0  0  0  0  2  0  0  0  0  0  0
  -31.1510  -17.8060   21.2820 C   0  0  0  0  0  2  0  0  0  0  0  0
  -29.1570  -19.2220   21.0750 C   0  0  0  0  0  3  0  0  0  0  0  0
  -30.5820  -19.2020   21.5400 C   0  0  0  0  0  3  0  0  0  0  0  0
  -30.1380  -20.2330   20.4940 C   0  0  0  0  0  3  0  0  0  0  0  0
  -30.1690  -17.0550   20.3580 C   0  0  0  0  0  3  0  0  0  0  0  0
  -30.7320  -14.5700   20.1320 C   0  0  0  0  0  0  0  0  0  0  0  0
  -30.3960  -12.4160   18.9680 C   0  0  0  0  0  2  0  0  0  0  0  0
  -29.4000  -12.6520   17.8110 C   0  0  0  0  0  2  0  0  0  0  0  0
  -27.9460  -12.5080   18.3020 C   0  0  0  0  0  2  0  0  0  0  0  0
  -27.6710  -13.3090   19.6030 C   0  0  0  0  0  3  0  0  0  0  0  0
  -28.7770  -13.0590   20.6560 C   0  0  0  0  0  2  0  0  0  0  0  0
  -30.0730  -13.3790   20.0360 N   0  0  0  0  0  0  0  0  0  0  0  0
  -31.8430  -14.7560   19.6280 O   0  0  0  0  0  0  0  0  0  0  0  0
  -30.0030  -15.6010   20.6230 N   0  0  0  0  0  0  0  0  0  0  0  0
  -29.1250  -15.3280   21.0380 H   0  0  0  0  0  0  0  0  0  0  0  0
  -25.3060  -13.9100   20.4160 C   0  0  0  0  0  0  0  0  0  0  0  0
  -24.2510  -13.1360   20.8190 C   0  0  0  0  0  0  0  0  0  0  0  0
  -24.7080  -11.7840   20.7530 C   0  0  0  0  0  0  0  0  0  0  0  0
  -26.3390  -13.0300   20.1320 N   0  0  0  0  0  0  0  0  0  0  0  0
  -25.9840  -11.7450   20.3920 N   0  0  0  0  0  0  0  0  0  0  0  0
  -23.9860  -10.5210   20.9560 C   0  0  0  0  0  0  0  0  0  0  0  0
  -24.4360   -9.5540   21.8820 C   0  0  0  0  0  3  0  0  0  0  0  0
  -23.7150   -8.3550   22.0730 C   0  0  0  0  0  3  0  0  0  0  0  0
  -22.5300   -8.1150   21.3380 C   0  0  0  0  0  0  0  0  0  0  0  0
  -22.0990   -9.0710   20.4010 C   0  0  0  0  0  3  0  0  0  0  0  0
  -22.8210  -10.2610   20.2080 C   0  0  0  0  0  3  0  0  0  0  0  0
  -21.7790   -6.9690   21.4390 O   0  0  0  0  0  0  0  0  0  0  0  0
  -21.7260   -6.2430   22.6020 C   0  0  0  0  0  0  0  0  0  0  0  0
  -21.2710   -6.8080   23.8140 C   0  0  0  0  0  3  0  0  0  0  0  0
  -21.1680   -6.0070   24.9690 C   0  0  0  0  0  3  0  0  0  0  0  0
  -21.5100   -4.6430   24.9130 C   0  0  0  0  0  0  0  0  0  0  0  0
  -21.9580   -4.0780   23.7070 C   0  0  0  0  0  3  0  0  0  0  0  0
  -22.0630   -4.8760   22.5530 C   0  0  0  0  0  0  0  0  0  0  0  0
  -22.4750   -4.3210   21.3880 F   0  0  0  0  0  0  0  0  0  0  0  0
  -21.4030   -3.8710   26.0200 F   0  0  0  0  0  0  0  0  0  0  0  0
  -22.8670  -13.6130   21.1540 C   0  0  0  0  0  0  0  0  0  0  0  0
  -22.1730  -12.9060   22.0390 N   0  0  0  0  0  0  0  0  0  0  0  0
  -22.4130  -14.6470   20.6670 O   0  0  0  0  0  0  0  0  0  0  0  0
  -22.5540  -12.0690   22.4530 H   0  0  0  0  0  0  0  0  0  0  0  0
  -21.2460  -13.2080   22.3070 H   0  0  0  0  0  0  0  0  0  0  0  0
  -25.4660  -15.2820   20.2450 N   0  0  0  0  0  0  0  0  0  0  0  0
  -24.7030  -15.9360   20.3820 H   0  0  0  0  0  0  0  0  0  0  0  0
  -26.2970  -15.7200   19.8680 H   0  0  0  0  0  0  0  0  0  0  0  0
  -29.2070  -22.7120   20.1110 C   0  0  0  0  0  3  0  0  0  0  0  0
  -29.3660  -24.2360   20.4740 C   0  0  0  0  0  3  0  0  0  0  0  0
  -28.2660  -25.1820   19.8890 C   0  0  0  0  0  3  0  0  0  0  0  0
  -28.3990  -26.6050   20.1850 O   0  0  0  0  0  0  0  0  0  0  0  0
  -24.6150  -31.8760   23.2230 C   0  0  0  0  0  0  0  0  0  0  0  0
  -27.2470  -27.3910   20.1350 C   0  0  0  0  0  0  0  0  0  0  0  0
  -23.4080  -30.4770   21.5830 C   0  0  0  0  0  3  0  0  0  0  0  0
  -24.8590  -28.9460   20.1460 C   0  0  0  0  0  0  0  0  0  0  0  0
  -25.9380  -30.8230   21.3860 C   0  0  0  0  0  2  0  0  0  0  0  0
  -26.0230  -29.4510   20.7370 C   0  0  0  0  0  0  0  0  0  0  0  0
  -27.2180  -28.6830   20.7280 C   0  0  0  0  0  3  0  0  0  0  0  0
  -26.0610  -26.9280   19.5140 C   0  0  0  0  0  3  0  0  0  0  0  0
  -24.8770  -27.6860   19.5280 C   0  0  0  0  0  3  0  0  0  0  0  0
  -23.6150  -29.8050   20.2010 C   0  0  0  0  0  2  0  0  0  0  0  0
  -24.6730  -31.0740   22.1220 N   0  0  0  0  0  0  0  0  0  0  0  0
  -23.5350  -32.1480   23.7660 O   0  0  0  0  0  0  0  0  0  0  0  0
  -22.7580  -29.4530   22.5420 C   0  0  0  0  0  0  0  0  0  0  0  0
  -21.4330  -29.2670   22.4180 N   0  0  0  0  0  0  0  0  0  0  0  0
  -23.4430  -28.8280   23.3570 O   0  0  0  0  0  0  0  0  0  0  0  0
  -20.9400  -29.8250   21.7350 H   0  0  0  0  0  0  0  0  0  0  0  0
  -18.0590  -28.0770   22.9330 C   0  0  0  0  0  0  0  0  0  0  0  0
  -20.6190  -28.3270   23.1880 C   0  0  0  0  0  3  0  0  0  0  0  0
  -20.7140  -26.8990   22.6020 C   0  0  0  0  0  2  0  0  0  0  0  0
  -19.6040  -26.5860   21.5930 C   0  0  0  0  0  2  0  0  0  0  0  0
  -18.2280  -26.7300   22.2490 C   0  0  0  0  0  2  0  0  0  0  0  0
  -19.1830  -28.8330   23.3590 C   0  0  0  0  0  0  0  0  0  0  0  0
  -18.9720  -30.0940   23.9600 C   0  0  0  0  0  3  0  0  0  0  0  0
  -17.6710  -30.5970   24.1380 C   0  0  0  0  0  3  0  0  0  0  0  0
  -16.5600  -29.8380   23.7290 C   0  0  0  0  0  3  0  0  0  0  0  0
  -16.7560  -28.5790   23.1310 C   0  0  0  0  0  3  0  0  0  0  0  0
  -25.9010  -32.5090   23.8410 C   0  0  0  0  0  3  0  0  0  0  0  0
  -26.4320  -31.7280   25.1060 C   0  0  1  0  0  0  0  0  0  0  0  0
  -25.3490  -31.4720   26.1780 C   0  0  0  0  0  1  0  0  0  0  0  0
  -27.0230  -30.3600   24.6950 C   0  0  0  0  0  1  0  0  0  0  0  0
  -27.5820  -32.5240   25.7690 C   0  0  0  0  0  1  0  0  0  0  0  0
  -25.5870  -33.9010   24.1860 N   0  0  0  0  0  0  0  0  0  0  0  0
  -25.9080  -34.9620   23.4330 C   0  0  0  0  0  0  0  0  0  0  0  0
  -26.5700  -34.8720   22.3950 O   0  0  0  0  0  0  0  0  0  0  0  0
  -25.0000  -34.0460   24.9940 H   0  0  0  0  0  0  0  0  0  0  0  0
  -24.1730  -36.7520   23.0990 C   0  0  0  0  0  1  0  0  0  0  0  0
  -25.4160  -36.3430   23.9050 C   0  0  0  0  0  3  0  0  0  0  0  0
  -27.5450  -37.2310   24.7480 C   0  0  0  0  0  1  0  0  0  0  0  0
  -26.4450  -37.4010   23.8030 N   0  0  0  0  0  0  0  0  0  0  0  0
  -26.0350  -38.3190   23.9560 H   0  0  0  0  0  0  0  0  0  0  0  0
  4  2  1  0
  4  5  1  0
  5  3  1  0
  6  1  1  0
  6  4  1  0
  6  5  1  0
  7  2  1  0
  7 16  1  0
  7  3  1  0
  8 16  1  0
  9 14  1  0
 10 11  1  0
 10  9  1  0
 12 11  1  0
 12 21  1  0
 12 13  1  0
 14  8  1  0
 14 13  1  0
 15  8  2  0
 16 17  1  0
 18 19  2  0
 19 38  1  0
 20 19  1  0
 20 23  1  0
 21 22  1  0
 21 18  1  0
 22 20  2  0
 23 24  1  0
 24 25  2  0
 26 29  1  0
 26 25  1  0
 27 26  2  0
 28 27  1  0
 28 23  2  0
 29 30  1  0
 30 31  1  0
 31 32  2  0
 33 32  1  0
 33 37  1  0
 34 33  2  0
 35 30  2  0
 35 34  1  0
 36 35  1  0
 38 39  1  0
 39 42  1  0
 39 41  1  0
 40 38  2  0
 43 44  1  0
 43 18  1  0
 45 43  1  0
 46 47  1  0
 46  1  2  0
 48 49  1  0
 48 47  2  0
 50 61  2  0
 51 49  1  0
 51 56  1  0
 52 60  1  0
 52 62  1  0
 53 59  1  0
 53 55  1  0
 54 60  1  0
 55 54  1  0
 56 55  2  0
 57 58  1  0
 57 51  2  0
 58 53  2  0
 59 52  1  0
 60 50  1  0
 62 64  2  0
 63 62  1  0
 65 63  1  0
 66 75  2  0
 66 71  1  0
 67 63  1  0
 67 71  1  0
 68 67  1  0
 69 70  1  0
 69 68  1  0
 70 66  1  0
 71 72  2  0
 72 73  1  0
 74 73  2  0
 75 74  1  0
 76 50  1  0
 76 81  1  0
 76 77  1  0
 77 80  1  1
 77 78  1  0
 79 77  1  0
 81 84  1  0
 82 86  1  0
 82 81  1  0
 83 82  2  0
 86 85  1  0
 88 86  1  0
 88 89  1  0
 88 87  1  0
M  ISO  4   8 100  16 100  48 101  49 101
M  END
>  <TORSDO>  (53) 
F 20

>  <SCORE>  (53) 
-13.566

>  <name>  (53) 
52

>  <ligand_id>  (53) 
52

>  <original_smiles>  (53) 
[H]c1c([H])c([H])c2c(c1[H])C([H])([H])C([H])([H])C([H])([H])C2([H])N([H])C(=O)C1([H])N(C(=O)C([H])(N([H])C(=O)C([H])(N([H])C([H])([H])[H])C([H])([H])[H])C(C([H])([H])[H])(C([H])([H])[H])C([H])([H])[H])C([H])([H])c2c([H])c(OC([H])([H])C([H])([H])C([H])([H])C([H])([H])C3([H])C4([H])C([H])([H])C([H])(N([H])C(=O)N5C([H])([H])C([H])([H])C([H])([H])C([H])(n6nc(-c7c([H])c([H])c(Oc8c([H])c([H])c(F)c([H])c8F)c([H])c7[H])c(C(=O)N([H])[H])c6N([H])[H])C5([H])[H])C([H])([H])C34[H])c([H])c([H])c2C1([H])[H]

>  <smiles>  (53) 
[H]c1c([H])c([H])c2c(c1[H])C([H])([H])C([H])([H])C([H])([H])C2([H])N([H])C(=O)C1([H])N(C(=O)C([H])(N([H])C(=O)C([H])(N([H])C([H])([H])[H])C([H])([H])[H])C(C([H])([H])[H])(C([H])([H])[H])C([H])([H])[H])C([H])([H])c2c([H])c(OC([H])([H])C([H])([H])C([H])([H])C([H])([H])C3([H])C4([H])C([H])([H])C([H])(N([H])C(=O)N5C([H])([H])C([H])([H])C([H])([H])C([H])(n6nc(-c7c([H])c([H])c(Oc8c([H])c([H])c(F)c([H])c8F)c([H])c7[H])c(C(=O)N([H])[H])c6N([H])[H])C5([H])[H])C([H])([H])C34[H])c([H])c([H])c2C1([H])[H]

$$$$
53:0:0
     RDKit          3D

 89 98  0  0  1  0  0  0  0  0999 V2000
  -28.3080  -18.2150   18.9080 C   0  0  0  0  0  2  0  0  0  0  0  0
  -27.0230  -20.4330   18.2520 C   0  0  0  0  0  2  0  0  0  0  0  0
  -29.4280  -19.7560   20.6720 C   0  0  0  0  0  2  0  0  0  0  0  0
  -27.1900  -19.2500   19.1990 C   0  0  0  0  0  3  0  0  0  0  0  0
  -29.4820  -18.1440   19.9290 C   0  0  0  0  0  3  0  0  0  0  0  0
  -27.3640  -20.7090   19.6920 C   0  0  0  0  0  3  0  0  0  0  0  0
  -28.7660  -21.1030   19.9710 N   0  0  1  0  0  4  0  0  0  0  0  0
  -29.2070  -21.1100   19.0630 H   0  0  0  0  0  0  0  0  0  0  0  0
  -30.4260  -15.3230   20.3440 C   0  0  0  0  0  0  0  0  0  0  0  0
  -30.4670  -12.8460   19.5640 C   0  0  0  0  0  2  0  0  0  0  0  0
  -29.5840  -12.6250   18.3080 C   0  0  0  0  0  2  0  0  0  0  0  0
  -28.1280  -12.3500   18.7180 C   0  0  0  0  0  2  0  0  0  0  0  0
  -27.6440  -13.3330   19.8110 C   0  0  0  0  0  3  0  0  0  0  0  0
  -28.6560  -13.5010   20.9660 C   0  0  0  0  0  2  0  0  0  0  0  0
  -29.9060  -13.9990   20.3690 N   0  0  0  0  0  0  0  0  0  0  0  0
  -31.6230  -15.3570   20.0240 O   0  0  0  0  0  0  0  0  0  0  0  0
  -29.6210  -16.5640   20.5040 N   0  0  0  0  0  0  0  0  0  0  0  0
  -28.7560  -16.3040   20.9540 H   0  0  0  0  0  0  0  0  0  0  0  0
  -25.2530  -13.8910   20.4940 C   0  0  0  0  0  0  0  0  0  0  0  0
  -24.1880  -13.1120   20.8520 C   0  0  0  0  0  0  0  0  0  0  0  0
  -24.6610  -11.7630   20.8450 C   0  0  0  0  0  0  0  0  0  0  0  0
  -26.3050  -13.0170   20.2860 N   0  0  0  0  0  0  0  0  0  0  0  0
  -25.9600  -11.7310   20.5650 N   0  0  0  0  0  0  0  0  0  0  0  0
  -23.9350  -10.4980   21.0310 C   0  0  0  0  0  0  0  0  0  0  0  0
  -24.3500   -9.5360   21.9780 C   0  0  0  0  0  3  0  0  0  0  0  0
  -23.6230   -8.3380   22.1510 C   0  0  0  0  0  3  0  0  0  0  0  0
  -22.4670   -8.0920   21.3730 C   0  0  0  0  0  0  0  0  0  0  0  0
  -22.0710   -9.0400   20.4120 C   0  0  0  0  0  3  0  0  0  0  0  0
  -22.8000  -10.2290   20.2390 C   0  0  0  0  0  3  0  0  0  0  0  0
  -21.7100   -6.9460   21.4560 O   0  0  0  0  0  0  0  0  0  0  0  0
  -21.6340   -6.2180   22.6150 C   0  0  0  0  0  0  0  0  0  0  0  0
  -21.1700   -6.7850   23.8210 C   0  0  0  0  0  3  0  0  0  0  0  0
  -21.0400   -5.9800   24.9720 C   0  0  0  0  0  3  0  0  0  0  0  0
  -21.3660   -4.6120   24.9160 C   0  0  0  0  0  0  0  0  0  0  0  0
  -21.8220   -4.0450   23.7130 C   0  0  0  0  0  3  0  0  0  0  0  0
  -21.9520   -4.8450   22.5650 C   0  0  0  0  0  0  0  0  0  0  0  0
  -22.3730   -4.2900   21.4020 F   0  0  0  0  0  0  0  0  0  0  0  0
  -21.2340   -3.8370   26.0180 F   0  0  0  0  0  0  0  0  0  0  0  0
  -22.7830  -13.5800   21.0860 C   0  0  0  0  0  0  0  0  0  0  0  0
  -22.0430  -12.8830   21.9420 N   0  0  0  0  0  0  0  0  0  0  0  0
  -22.3510  -14.5990   20.5470 O   0  0  0  0  0  0  0  0  0  0  0  0
  -22.4090  -12.0520   22.3860 H   0  0  0  0  0  0  0  0  0  0  0  0
  -21.0970  -13.1700   22.1510 H   0  0  0  0  0  0  0  0  0  0  0  0
  -25.4120  -15.2590   20.2970 N   0  0  0  0  0  0  0  0  0  0  0  0
  -24.6320  -15.9030   20.3370 H   0  0  0  0  0  0  0  0  0  0  0  0
  -26.2360  -15.6720   19.8850 H   0  0  0  0  0  0  0  0  0  0  0  0
  -28.8970  -22.7100   20.4490 C   0  0  0  0  0  3  0  0  0  0  0  0
  -27.9710  -24.2070   20.0100 C   0  0  0  0  0  3  0  0  0  0  0  0
  -28.1880  -25.8450   20.2200 O   0  0  0  0  0  0  0  0  0  0  0  0
  -24.6270  -31.8330   23.1570 C   0  0  0  0  0  0  0  0  0  0  0  0
  -27.1820  -26.9500   20.1400 C   0  0  0  0  0  0  0  0  0  0  0  0
  -23.4330  -30.4350   21.5220 C   0  0  0  0  0  3  0  0  0  0  0  0
  -24.8830  -28.8350   20.0960 C   0  0  0  0  0  0  0  0  0  0  0  0
  -26.0000  -30.6530   21.3660 C   0  0  0  0  0  2  0  0  0  0  0  0
  -26.0730  -29.2430   20.7100 C   0  0  0  0  0  0  0  0  0  0  0  0
  -27.2190  -28.3250   20.7010 C   0  0  0  0  0  3  0  0  0  0  0  0
  -25.9620  -26.6980   19.4780 C   0  0  0  0  0  3  0  0  0  0  0  0
  -24.8530  -27.5820   19.4590 C   0  0  0  0  0  3  0  0  0  0  0  0
  -23.6590  -29.7520   20.1470 C   0  0  0  0  0  2  0  0  0  0  0  0
  -24.7090  -31.0010   22.0700 N   0  0  0  0  0  0  0  0  0  0  0  0
  -23.5380  -32.1150   23.6840 O   0  0  0  0  0  0  0  0  0  0  0  0
  -22.7480  -29.4360   22.4900 C   0  0  0  0  0  0  0  0  0  0  0  0
  -21.4160  -29.2760   22.3830 N   0  0  0  0  0  0  0  0  0  0  0  0
  -23.4230  -28.8000   23.3040 O   0  0  0  0  0  0  0  0  0  0  0  0
  -20.9190  -29.8450   21.7100 H   0  0  0  0  0  0  0  0  0  0  0  0
  -18.0410  -28.0620   22.9240 C   0  0  0  0  0  0  0  0  0  0  0  0
  -20.6050  -28.3290   23.1570 C   0  0  0  0  0  3  0  0  0  0  0  0
  -20.6990  -26.9040   22.5630 C   0  0  0  0  0  2  0  0  0  0  0  0
  -19.5840  -26.5980   21.5580 C   0  0  0  0  0  2  0  0  0  0  0  0
  -18.2150  -26.7200   22.2320 C   0  0  0  0  0  2  0  0  0  0  0  0
  -19.1640  -28.8240   23.3460 C   0  0  0  0  0  0  0  0  0  0  0  0
  -18.9510  -30.0790   23.9540 C   0  0  0  0  0  3  0  0  0  0  0  0
  -17.6460  -30.5760   24.1440 C   0  0  0  0  0  3  0  0  0  0  0  0
  -16.5390  -29.8120   23.7370 C   0  0  0  0  0  3  0  0  0  0  0  0
  -16.7360  -28.5560   23.1360 C   0  0  0  0  0  3  0  0  0  0  0  0
  -25.8950  -32.4850   23.7840 C   0  0  0  0  0  3  0  0  0  0  0  0
  -25.5660  -33.8800   24.1260 N   0  0  0  0  0  0  0  0  0  0  0  0
  -25.8900  -34.9490   23.3870 C   0  0  0  0  0  0  0  0  0  0  0  0
  -26.5580  -34.8660   22.3530 O   0  0  0  0  0  0  0  0  0  0  0  0
  -24.9680  -34.0170   24.9290 H   0  0  0  0  0  0  0  0  0  0  0  0
  -24.1520  -36.7460   23.0640 C   0  0  0  0  0  1  0  0  0  0  0  0
  -25.3980  -36.3320   23.8640 C   0  0  0  0  0  3  0  0  0  0  0  0
  -27.5260  -37.2220   24.7090 C   0  0  0  0  0  1  0  0  0  0  0  0
  -26.4260  -37.3920   23.7640 N   0  0  0  0  0  0  0  0  0  0  0  0
  -26.0150  -38.3070   23.9220 H   0  0  0  0  0  0  0  0  0  0  0  0
  -26.4100  -31.7220   25.0680 C   0  0  1  0  0  0  0  0  0  0  0  0
  -25.3120  -31.4870   26.1340 C   0  0  0  0  0  1  0  0  0  0  0  0
  -27.0000  -30.3430   24.6920 C   0  0  0  0  0  1  0  0  0  0  0  0
  -27.5540  -32.5250   25.7300 C   0  0  0  0  0  1  0  0  0  0  0  0
  1  4  1  0
  1  5  1  0
  4  2  1  0
  4  6  1  0
  5 17  1  0
  5  3  1  0
  6  2  1  0
  6  7  1  0
  7 47  1  0
  7  3  1  0
  7  8  1  6
  9 15  1  0
  9 17  1  0
 10 15  1  0
 11 12  1  0
 11 10  1  0
 13 12  1  0
 13 22  1  0
 13 14  1  0
 15 14  1  0
 16  9  2  0
 17 18  1  0
 19 20  2  0
 20 39  1  0
 21 20  1  0
 21 24  1  0
 22 19  1  0
 22 23  1  0
 23 21  2  0
 24 25  1  0
 25 26  2  0
 27 30  1  0
 27 26  1  0
 28 27  2  0
 29 28  1  0
 29 24  2  0
 30 31  1  0
 31 32  1  0
 32 33  2  0
 34 33  1  0
 34 38  1  0
 35 34  2  0
 36 31  2  0
 36 35  1  0
 37 36  1  0
 39 40  1  0
 40 43  1  0
 40 42  1  0
 41 39  2  0
 44 45  1  0
 44 19  1  0
 46 44  1  0
 48 49  1  0
 48 47  2  0
 50 61  2  0
 51 49  1  0
 51 56  1  0
 52 60  1  0
 52 62  1  0
 53 59  1  0
 53 55  1  0
 54 60  1  0
 55 54  1  0
 56 55  2  0
 57 51  2  0
 58 57  1  0
 58 53  2  0
 59 52  1  0
 60 50  1  0
 62 64  2  0
 63 62  1  0
 65 63  1  0
 66 75  2  0
 66 71  1  0
 67 63  1  0
 67 71  1  0
 68 67  1  0
 69 70  1  0
 69 68  1  0
 70 66  1  0
 71 72  2  0
 72 73  1  0
 74 73  2  0
 75 74  1  0
 76 50  1  0
 76 77  1  0
 76 86  1  0
 77 80  1  0
 78 82  1  0
 78 77  1  0
 79 78  2  0
 82 81  1  0
 84 82  1  0
 84 85  1  0
 84 83  1  0
 86 89  1  1
 86 87  1  0
 88 86  1  0
M  ISO  4   9 100  17 100  48 101  49 101
M  END
>  <TORSDO>  (54) 
F 18

>  <SCORE>  (54) 
-16.454

>  <name>  (54) 
53

>  <ligand_id>  (54) 
53

>  <original_smiles>  (54) 
[H]c1c([H])c([H])c2c(c1[H])C([H])([H])C([H])([H])C([H])([H])C2([H])N([H])C(=O)C1([H])N(C(=O)C([H])(N([H])C(=O)C([H])(N([H])C([H])([H])[H])C([H])([H])[H])C(C([H])([H])[H])(C([H])([H])[H])C([H])([H])[H])C([H])([H])c2c([H])c(OC([H])([H])C([H])([H])[N+]3([H])C([H])([H])C([H])(N([H])C(=O)N4C([H])([H])C([H])([H])C([H])([H])C([H])(n5nc(-c6c([H])c([H])c(Oc7c([H])c([H])c(F)c([H])c7F)c([H])c6[H])c(C(=O)N([H])[H])c5N([H])[H])C4([H])[H])C([H])([H])C4([H])C([H])([H])C43[H])c([H])c([H])c2C1([H])[H]

>  <smiles>  (54) 
[H]c1c([H])c([H])c2c(c1[H])C([H])([H])C([H])([H])C([H])([H])C2([H])N([H])C(=O)C1([H])N(C(=O)C([H])(N([H])C(=O)C([H])(N([H])C([H])([H])[H])C([H])([H])[H])C(C([H])([H])[H])(C([H])([H])[H])C([H])([H])[H])C([H])([H])c2c([H])c(OC([H])([H])C([H])([H])[N+]3([H])C([H])([H])C([H])(N([H])C(=O)N4C([H])([H])C([H])([H])C([H])([H])C([H])(n5nc(-c6c([H])c([H])c(Oc7c([H])c([H])c(F)c([H])c7F)c([H])c6[H])c(C(=O)N([H])[H])c5N([H])[H])C4([H])[H])C([H])([H])C4([H])C([H])([H])C43[H])c([H])c([H])c2C1([H])[H]

$$$$
54:0:0
     RDKit          3D

 92100  0  0  1  0  0  0  0  0999 V2000
  -28.2100  -23.6560   18.5760 C   0  0  0  0  0  3  0  0  0  0  0  0
  -28.2350  -22.3870   17.9510 C   0  0  0  0  0  3  0  0  0  0  0  0
  -29.2380  -22.6240   20.5090 C   0  0  0  0  0  3  0  0  0  0  0  0
  -28.6670  -23.8080   19.8930 C   0  0  0  0  0  0  0  0  0  0  0  0
  -28.6780  -21.2130   18.6120 C   0  0  0  0  0  0  0  0  0  0  0  0
  -29.2700  -21.2900   19.9080 C   0  0  0  0  0  0  0  0  0  0  0  0
  -28.4120  -19.8890   17.8980 C   0  0  0  0  0  1  0  0  0  0  0  0
  -28.4030  -25.1640   20.6770 C   0  0  0  0  0  2  0  0  0  0  0  0
  -28.4990  -26.5080   20.0370 O   0  0  0  0  0  0  0  0  0  0  0  0
  -24.5510  -31.7750   23.1120 C   0  0  0  0  0  0  0  0  0  0  0  0
  -27.3630  -27.3350   20.0490 C   0  0  0  0  0  0  0  0  0  0  0  0
  -23.4210  -30.3650   21.4290 C   0  0  0  0  0  3  0  0  0  0  0  0
  -24.9460  -28.8670   20.0240 C   0  0  0  0  0  0  0  0  0  0  0  0
  -25.9590  -30.7750   21.2840 C   0  0  0  0  0  2  0  0  0  0  0  0
  -26.0960  -29.4010   20.6280 C   0  0  0  0  0  0  0  0  0  0  0  0
  -27.3150  -28.6530   20.6140 C   0  0  0  0  0  3  0  0  0  0  0  0
  -26.1830  -26.8510   19.4510 C   0  0  0  0  0  3  0  0  0  0  0  0
  -24.9940  -27.6070   19.4190 C   0  0  0  0  0  3  0  0  0  0  0  0
  -23.6760  -29.6950   20.0530 C   0  0  0  0  0  2  0  0  0  0  0  0
  -24.6610  -30.9890   21.9990 N   0  0  0  0  0  0  0  0  0  0  0  0
  -23.4510  -32.0060   23.6370 O   0  0  0  0  0  0  0  0  0  0  0  0
  -22.7680  -29.3290   22.3720 C   0  0  0  0  0  0  0  0  0  0  0  0
  -21.4430  -29.1370   22.2450 N   0  0  0  0  0  0  0  0  0  0  0  0
  -23.4520  -28.6910   23.1750 O   0  0  0  0  0  0  0  0  0  0  0  0
  -20.9470  -29.7050   21.5740 H   0  0  0  0  0  0  0  0  0  0  0  0
  -18.0750  -27.9230   22.7330 C   0  0  0  0  0  0  0  0  0  0  0  0
  -20.6340  -28.1750   22.9930 C   0  0  0  0  0  3  0  0  0  0  0  0
  -20.7340  -26.7600   22.3710 C   0  0  0  0  0  2  0  0  0  0  0  0
  -19.6250  -26.4690   21.3530 C   0  0  0  0  0  2  0  0  0  0  0  0
  -18.2500  -26.5970   22.0130 C   0  0  0  0  0  2  0  0  0  0  0  0
  -19.1940  -28.6740   23.1770 C   0  0  0  0  0  0  0  0  0  0  0  0
  -18.9730  -29.9210   23.8020 C   0  0  0  0  0  3  0  0  0  0  0  0
  -17.6670  -30.4050   24.0010 C   0  0  0  0  0  3  0  0  0  0  0  0
  -16.5640  -29.6470   23.5720 C   0  0  0  0  0  3  0  0  0  0  0  0
  -16.7670  -28.4090   22.9380 C   0  0  0  0  0  3  0  0  0  0  0  0
  -25.8020  -32.4400   23.7630 C   0  0  0  0  0  3  0  0  0  0  0  0
  -25.4390  -33.8220   24.1130 N   0  0  0  0  0  0  0  0  0  0  0  0
  -25.7590  -34.8990   23.3860 C   0  0  0  0  0  0  0  0  0  0  0  0
  -26.4520  -34.8390   22.3660 O   0  0  0  0  0  0  0  0  0  0  0  0
  -24.8240  -33.9420   24.9060 H   0  0  0  0  0  0  0  0  0  0  0  0
  -23.9860  -36.6490   23.0250 C   0  0  0  0  0  1  0  0  0  0  0  0
  -25.2190  -36.2640   23.8600 C   0  0  0  0  0  3  0  0  0  0  0  0
  -27.3050  -37.1930   24.7670 C   0  0  0  0  0  1  0  0  0  0  0  0
  -26.2230  -37.3470   23.7980 N   0  0  0  0  0  0  0  0  0  0  0  0
  -25.7800  -38.2460   23.9610 H   0  0  0  0  0  0  0  0  0  0  0  0
  -26.3230  -31.6660   25.0330 C   0  0  1  0  0  0  0  0  0  0  0  0
  -25.2190  -31.3800   26.0800 C   0  0  0  0  0  1  0  0  0  0  0  0
  -26.9580  -30.3130   24.6320 C   0  0  0  0  0  1  0  0  0  0  0  0
  -27.4380  -32.4870   25.7250 C   0  0  0  0  0  1  0  0  0  0  0  0
  -29.7760  -19.9740   20.6980 C   0  0  0  0  0  3  0  0  0  0  0  0
  -31.3170  -19.3090   22.7290 C   0  0  0  0  0  1  0  0  0  0  0  0
  -30.6490  -20.4190   21.9080 C   0  0  0  0  0  2  0  0  0  0  0  0
  -30.4620  -18.6930   19.9430 C   0  0  0  0  0  2  0  0  0  0  0  0
  -29.7420  -17.2420   19.8120 C   0  0  0  0  0  2  0  0  0  0  0  0
  -30.8970  -14.8970   20.3290 C   0  0  0  0  0  0  0  0  0  0  0  0
  -30.7600  -12.5870   19.4010 C   0  0  0  0  0  2  0  0  0  0  0  0
  -29.8420  -12.6310   18.1580 C   0  0  0  0  0  2  0  0  0  0  0  0
  -28.3570  -12.4990   18.5570 C   0  0  0  0  0  2  0  0  0  0  0  0
  -27.9660  -13.4180   19.7450 C   0  0  0  0  0  3  0  0  0  0  0  0
  -28.9990  -13.3150   20.8910 C   0  0  0  0  0  2  0  0  0  0  0  0
  -30.3190  -13.6500   20.3360 N   0  0  0  0  0  0  0  0  0  0  0  0
  -32.0530  -15.0500   19.9230 O   0  0  0  0  0  0  0  0  0  0  0  0
  -30.0710  -15.9720   20.6010 N   0  0  0  0  0  0  0  0  0  0  0  0
  -29.2590  -15.6490   21.1090 H   0  0  0  0  0  0  0  0  0  0  0  0
  -25.5720  -14.0640   20.4200 C   0  0  0  0  0  0  0  0  0  0  0  0
  -24.4820  -13.3160   20.7820 C   0  0  0  0  0  0  0  0  0  0  0  0
  -24.9220  -11.9560   20.7740 C   0  0  0  0  0  0  0  0  0  0  0  0
  -26.6040  -13.1610   20.2100 N   0  0  0  0  0  0  0  0  0  0  0  0
  -26.2140  -11.8870   20.4790 N   0  0  0  0  0  0  0  0  0  0  0  0
  -24.1680  -10.7090   20.9640 C   0  0  0  0  0  0  0  0  0  0  0  0
  -24.5510   -9.7550   21.9350 C   0  0  0  0  0  3  0  0  0  0  0  0
  -23.8040   -8.5700   22.1080 C   0  0  0  0  0  3  0  0  0  0  0  0
  -22.6560   -8.3360   21.3140 C   0  0  0  0  0  0  0  0  0  0  0  0
  -22.2910   -9.2760   20.3320 C   0  0  0  0  0  3  0  0  0  0  0  0
  -23.0410  -10.4520   20.1580 C   0  0  0  0  0  3  0  0  0  0  0  0
  -21.8770   -7.2070   21.3980 O   0  0  0  0  0  0  0  0  0  0  0  0
  -21.7460   -6.5100   22.5710 C   0  0  0  0  0  0  0  0  0  0  0  0
  -21.2530   -7.1150   23.7480 C   0  0  0  0  0  3  0  0  0  0  0  0
  -21.0750   -6.3440   24.9140 C   0  0  0  0  0  3  0  0  0  0  0  0
  -21.3730   -4.9690   24.9020 C   0  0  0  0  0  0  0  0  0  0  0  0
  -21.8530   -4.3610   23.7270 C   0  0  0  0  0  3  0  0  0  0  0  0
  -22.0360   -5.1300   22.5660 C   0  0  0  0  0  0  0  0  0  0  0  0
  -22.4830   -4.5380   21.4320 F   0  0  0  0  0  0  0  0  0  0  0  0
  -21.1900   -4.2250   26.0180 F   0  0  0  0  0  0  0  0  0  0  0  0
  -23.0900  -13.8200   21.0220 C   0  0  0  0  0  0  0  0  0  0  0  0
  -22.3300  -13.1610   21.8890 N   0  0  0  0  0  0  0  0  0  0  0  0
  -22.6810  -14.8440   20.4750 O   0  0  0  0  0  0  0  0  0  0  0  0
  -22.6710  -12.3360   22.3600 H   0  0  0  0  0  0  0  0  0  0  0  0
  -21.3920  -13.4820   22.0840 H   0  0  0  0  0  0  0  0  0  0  0  0
  -25.7620  -15.4310   20.2430 N   0  0  0  0  0  0  0  0  0  0  0  0
  -25.0150  -16.1030   20.3710 H   0  0  0  0  0  0  0  0  0  0  0  0
  -26.6200  -15.8420   19.8990 H   0  0  0  0  0  0  0  0  0  0  0  0
  1  4  1  0
  2  1  2  0
  2  5  1  0
  4  3  2  0
  4  8  1  0
  5  6  2  0
  6  3  1  0
  6 50  1  0
  7  5  1  0
  9 11  1  0
  9  8  1  0
 10 21  2  0
 11 16  1  0
 12 20  1  0
 12 22  1  0
 13 19  1  0
 13 15  1  0
 14 20  1  0
 15 14  1  0
 16 15  2  0
 17 11  2  0
 18 17  1  0
 18 13  2  0
 19 12  1  0
 20 10  1  0
 22 24  2  0
 23 22  1  0
 25 23  1  0
 26 35  2  0
 26 31  1  0
 27 23  1  0
 27 31  1  0
 28 27  1  0
 29 30  1  0
 29 28  1  0
 30 26  1  0
 31 32  2  0
 32 33  1  0
 34 33  2  0
 35 34  1  0
 36 10  1  0
 36 37  1  0
 36 46  1  0
 37 40  1  0
 38 42  1  0
 38 37  1  0
 39 38  2  0
 42 41  1  0
 44 42  1  0
 44 45  1  0
 44 43  1  0
 46 49  1  1
 46 47  1  0
 48 46  1  0
 50 53  1  0
 50 52  1  0
 52 51  1  0
 54 53  1  0
 54 63  1  0
 55 61  1  0
 55 63  1  0
 56 61  1  0
 57 58  1  0
 57 56  1  0
 59 58  1  0
 59 68  1  0
 59 60  1  0
 61 60  1  0
 62 55  2  0
 63 64  1  0
 65 66  2  0
 66 85  1  0
 67 66  1  0
 67 70  1  0
 68 65  1  0
 68 69  1  0
 69 67  2  0
 70 71  1  0
 71 72  2  0
 73 76  1  0
 73 72  1  0
 74 73  2  0
 75 74  1  0
 75 70  2  0
 76 77  1  0
 77 78  1  0
 78 79  2  0
 80 79  1  0
 80 84  1  0
 81 80  2  0
 82 77  2  0
 82 81  1  0
 83 82  1  0
 85 86  1  0
 86 89  1  0
 86 88  1  0
 87 85  2  0
 90 91  1  0
 90 65  1  0
 92 90  1  0
M  ISO  4   8 101   9 101  55 100  63 100
M  END
>  <TORSDO>  (55) 
F 21

>  <SCORE>  (55) 
-13.343

>  <name>  (55) 
54

>  <ligand_id>  (55) 
54

>  <original_smiles>  (55) 
[H]c1c([H])c([H])c2c(c1[H])C([H])([H])C([H])([H])C([H])([H])C2([H])N([H])C(=O)C1([H])N(C(=O)C([H])(N([H])C(=O)C([H])(N([H])C([H])([H])[H])C([H])([H])[H])C(C([H])([H])[H])(C([H])([H])[H])C([H])([H])[H])C([H])([H])c2c([H])c(OC([H])([H])c3c([H])c([H])c(C([H])([H])[H])c(C([H])(C([H])([H])C([H])([H])[H])C([H])([H])C([H])([H])N([H])C(=O)N4C([H])([H])C([H])([H])C([H])([H])C([H])(n5nc(-c6c([H])c([H])c(Oc7c([H])c([H])c(F)c([H])c7F)c([H])c6[H])c(C(=O)N([H])[H])c5N([H])[H])C4([H])[H])c3[H])c([H])c([H])c2C1([H])[H]

>  <smiles>  (55) 
[H]c1c([H])c([H])c2c(c1[H])C([H])([H])C([H])([H])C([H])([H])C2([H])N([H])C(=O)C1([H])N(C(=O)C([H])(N([H])C(=O)C([H])(N([H])C([H])([H])[H])C([H])([H])[H])C(C([H])([H])[H])(C([H])([H])[H])C([H])([H])[H])C([H])([H])c2c([H])c(OC([H])([H])c3c([H])c([H])c(C([H])([H])[H])c(C([H])(C([H])([H])C([H])([H])[H])C([H])([H])C([H])([H])N([H])C(=O)N4C([H])([H])C([H])([H])C([H])([H])C([H])(n5nc(-c6c([H])c([H])c(Oc7c([H])c([H])c(F)c([H])c7F)c([H])c6[H])c(C(=O)N([H])[H])c5N([H])[H])C4([H])[H])c3[H])c([H])c([H])c2C1([H])[H]

$$$$
55:0:0
     RDKit          3D

 92100  0  0  1  0  0  0  0  0999 V2000
  -29.0580  -21.7180   20.1550 N   0  0  0  0  0  4  0  0  0  0  0  0
  -28.6870  -21.7630   19.2200 H   0  0  0  0  0  0  0  0  0  0  0  0
  -30.0630  -21.7830   20.1050 H   0  0  0  0  0  0  0  0  0  0  0  0
  -28.6780  -20.4100   20.7630 C   0  0  0  0  0  2  0  0  0  0  0  0
  -29.4070  -17.9460   20.8290 C   0  0  0  0  0  3  0  0  0  0  0  0
  -29.6200  -19.1230   18.7340 C   0  0  0  0  0  3  0  0  0  0  0  0
  -30.2560  -16.9030   18.8180 C   0  0  0  0  0  3  0  0  0  0  0  0
  -29.2650  -19.1500   20.0970 C   0  0  0  0  0  0  0  0  0  0  0  0
  -29.9100  -16.7920   20.1860 C   0  0  0  0  0  0  0  0  0  0  0  0
  -30.1130  -18.0370   18.1070 N   0  0  0  0  0  0  0  0  0  0  0  0
  -30.7310  -14.4910   20.4700 C   0  0  0  0  0  0  0  0  0  0  0  0
  -30.4510  -12.3270   19.3510 C   0  0  0  0  0  2  0  0  0  0  0  0
  -29.5340  -12.5590   18.1320 C   0  0  0  0  0  2  0  0  0  0  0  0
  -28.0510  -12.4360   18.5330 C   0  0  0  0  0  2  0  0  0  0  0  0
  -27.7010  -13.2650   19.7990 C   0  0  0  0  0  3  0  0  0  0  0  0
  -28.7340  -13.0230   20.9230 C   0  0  0  0  0  2  0  0  0  0  0  0
  -30.0740  -13.3060   20.3810 N   0  0  0  0  0  0  0  0  0  0  0  0
  -31.8730  -14.6690   20.0380 O   0  0  0  0  0  0  0  0  0  0  0  0
  -29.9850  -15.5370   20.8760 N   0  0  0  0  0  0  0  0  0  0  0  0
  -29.1940  -15.3050   21.4580 H   0  0  0  0  0  0  0  0  0  0  0  0
  -25.2870  -13.8800   20.4510 C   0  0  0  0  0  0  0  0  0  0  0  0
  -24.2120  -13.1120   20.8110 C   0  0  0  0  0  0  0  0  0  0  0  0
  -24.6750  -11.7600   20.8090 C   0  0  0  0  0  0  0  0  0  0  0  0
  -26.3370  -12.9980   20.2520 N   0  0  0  0  0  0  0  0  0  0  0  0
  -25.9710  -11.7190   20.5230 N   0  0  0  0  0  0  0  0  0  0  0  0
  -23.9470  -10.5010   21.0050 C   0  0  0  0  0  0  0  0  0  0  0  0
  -24.3700   -9.5430   21.9520 C   0  0  0  0  0  3  0  0  0  0  0  0
  -23.6440   -8.3460   22.1340 C   0  0  0  0  0  3  0  0  0  0  0  0
  -22.4800   -8.1000   21.3680 C   0  0  0  0  0  0  0  0  0  0  0  0
  -22.0760   -9.0470   20.4090 C   0  0  0  0  0  3  0  0  0  0  0  0
  -22.8020  -10.2350   20.2260 C   0  0  0  0  0  3  0  0  0  0  0  0
  -21.7250   -6.9550   21.4590 O   0  0  0  0  0  0  0  0  0  0  0  0
  -21.6700   -6.2180   22.6150 C   0  0  0  0  0  0  0  0  0  0  0  0
  -21.2380   -6.7800   23.8370 C   0  0  0  0  0  3  0  0  0  0  0  0
  -21.1310   -5.9690   24.9850 C   0  0  0  0  0  3  0  0  0  0  0  0
  -21.4440   -4.5980   24.9130 C   0  0  0  0  0  0  0  0  0  0  0  0
  -21.8680   -4.0370   23.6960 C   0  0  0  0  0  3  0  0  0  0  0  0
  -21.9790   -4.8440   22.5490 C   0  0  0  0  0  0  0  0  0  0  0  0
  -22.3670   -4.2930   21.3740 F   0  0  0  0  0  0  0  0  0  0  0  0
  -21.3330   -3.8190   26.0140 F   0  0  0  0  0  0  0  0  0  0  0  0
  -22.8100  -13.5920   21.0520 C   0  0  0  0  0  0  0  0  0  0  0  0
  -22.0650  -12.9070   21.9130 N   0  0  0  0  0  0  0  0  0  0  0  0
  -22.3810  -14.6100   20.5110 O   0  0  0  0  0  0  0  0  0  0  0  0
  -22.4240  -12.0850   22.3750 H   0  0  0  0  0  0  0  0  0  0  0  0
  -21.1240  -13.2140   22.1170 H   0  0  0  0  0  0  0  0  0  0  0  0
  -25.4530  -15.2490   20.2590 N   0  0  0  0  0  0  0  0  0  0  0  0
  -24.6830  -15.9020   20.3400 H   0  0  0  0  0  0  0  0  0  0  0  0
  -26.3100  -15.6810   19.9370 H   0  0  0  0  0  0  0  0  0  0  0  0
  -28.5560  -22.9100   20.8880 C   0  0  0  0  0  2  0  0  0  0  0  0
  -28.7680  -24.2490   20.1280 C   0  0  0  0  0  2  0  0  0  0  0  0
  -28.2770  -25.4780   20.9280 C   0  0  0  0  0  2  0  0  0  0  0  0
  -28.3850  -26.7100   20.1930 O   0  0  0  0  0  0  0  0  0  0  0  0
  -24.5810  -31.8850   23.2630 C   0  0  0  0  0  0  0  0  0  0  0  0
  -27.2320  -27.4620   20.1760 C   0  0  0  0  0  0  0  0  0  0  0  0
  -23.3770  -30.4880   21.6130 C   0  0  0  0  0  3  0  0  0  0  0  0
  -24.8370  -28.9590   20.1830 C   0  0  0  0  0  0  0  0  0  0  0  0
  -25.9020  -30.8570   21.4160 C   0  0  0  0  0  2  0  0  0  0  0  0
  -25.9930  -29.4880   20.7720 C   0  0  0  0  0  0  0  0  0  0  0  0
  -27.1970  -28.7480   20.7620 C   0  0  0  0  0  3  0  0  0  0  0  0
  -26.0630  -26.9480   19.5760 C   0  0  0  0  0  3  0  0  0  0  0  0
  -24.8670  -27.6890   19.5800 C   0  0  0  0  0  3  0  0  0  0  0  0
  -23.5900  -29.8130   20.2300 C   0  0  0  0  0  2  0  0  0  0  0  0
  -24.6380  -31.0910   22.1560 N   0  0  0  0  0  0  0  0  0  0  0  0
  -23.4980  -32.1530   23.8040 O   0  0  0  0  0  0  0  0  0  0  0  0
  -22.7280  -29.4620   22.5690 C   0  0  0  0  0  0  0  0  0  0  0  0
  -21.4040  -29.2800   22.4400 N   0  0  0  0  0  0  0  0  0  0  0  0
  -23.4120  -28.8320   23.3820 O   0  0  0  0  0  0  0  0  0  0  0  0
  -20.9160  -29.8420   21.7560 H   0  0  0  0  0  0  0  0  0  0  0  0
  -18.0270  -28.0880   22.9290 C   0  0  0  0  0  0  0  0  0  0  0  0
  -20.5850  -28.3380   23.2030 C   0  0  0  0  0  3  0  0  0  0  0  0
  -20.6840  -26.9120   22.6170 C   0  0  0  0  0  2  0  0  0  0  0  0
  -19.5820  -26.5970   21.6000 C   0  0  0  0  0  2  0  0  0  0  0  0
  -18.2010  -26.7420   22.2470 C   0  0  0  0  0  2  0  0  0  0  0  0
  -19.1470  -28.8440   23.3660 C   0  0  0  0  0  0  0  0  0  0  0  0
  -18.9320  -30.1040   23.9660 C   0  0  0  0  0  3  0  0  0  0  0  0
  -17.6290  -30.6080   24.1330 C   0  0  0  0  0  3  0  0  0  0  0  0
  -16.5230  -29.8490   23.7130 C   0  0  0  0  0  3  0  0  0  0  0  0
  -16.7220  -28.5910   23.1180 C   0  0  0  0  0  3  0  0  0  0  0  0
  -25.8660  -32.5130   23.8890 C   0  0  0  0  0  3  0  0  0  0  0  0
  -25.5590  -33.9100   24.2200 N   0  0  0  0  0  0  0  0  0  0  0  0
  -25.8990  -34.9610   23.4620 C   0  0  0  0  0  0  0  0  0  0  0  0
  -26.5760  -34.8560   22.4350 O   0  0  0  0  0  0  0  0  0  0  0  0
  -24.9610  -34.0660   25.0170 H   0  0  0  0  0  0  0  0  0  0  0  0
  -24.1830  -36.7600   23.0860 C   0  0  0  0  0  1  0  0  0  0  0  0
  -25.4110  -36.3500   23.9160 C   0  0  0  0  0  3  0  0  0  0  0  0
  -27.5380  -37.2240   24.7770 C   0  0  0  0  0  1  0  0  0  0  0  0
  -26.4490  -37.3990   23.8190 N   0  0  0  0  0  0  0  0  0  0  0  0
  -26.0440  -38.3190   23.9640 H   0  0  0  0  0  0  0  0  0  0  0  0
  -26.3810  -31.7380   25.1640 C   0  0  1  0  0  0  0  0  0  0  0  0
  -25.2860  -31.5020   26.2310 C   0  0  0  0  0  1  0  0  0  0  0  0
  -26.9620  -30.3610   24.7670 C   0  0  0  0  0  1  0  0  0  0  0  0
  -27.5320  -32.5290   25.8300 C   0  0  0  0  0  1  0  0  0  0  0  0
  1  4  1  0
  1 49  1  0
  2  1  1  0
  3  1  1  0
  6  8  1  0
  7  9  2  0
  8  4  1  0
  8  5  2  0
  9  5  1  0
  9 19  1  0
 10  6  2  0
 10  7  1  0
 11 19  1  0
 12 17  1  0
 13 14  1  0
 13 12  1  0
 15 14  1  0
 15 24  1  0
 15 16  1  0
 17 11  1  0
 17 16  1  0
 18 11  2  0
 19 20  1  0
 21 22  2  0
 22 41  1  0
 23 22  1  0
 23 26  1  0
 24 21  1  0
 24 25  1  0
 25 23  2  0
 26 27  1  0
 27 28  2  0
 29 32  1  0
 29 28  1  0
 30 29  2  0
 31 30  1  0
 31 26  2  0
 32 33  1  0
 33 34  1  0
 34 35  2  0
 36 35  1  0
 36 40  1  0
 37 36  2  0
 38 33  2  0
 38 37  1  0
 39 38  1  0
 41 42  1  0
 42 45  1  0
 42 44  1  0
 43 41  2  0
 46 47  1  0
 46 21  1  0
 48 46  1  0
 50 49  1  0
 50 51  1  0
 52 51  1  0
 53 64  2  0
 54 52  1  0
 54 59  1  0
 55 63  1  0
 55 65  1  0
 56 62  1  0
 56 58  1  0
 57 63  1  0
 58 57  1  0
 59 58  2  0
 60 61  1  0
 60 54  2  0
 61 56  2  0
 62 55  1  0
 63 53  1  0
 65 67  2  0
 66 65  1  0
 68 66  1  0
 69 78  2  0
 69 74  1  0
 70 66  1  0
 70 74  1  0
 71 70  1  0
 72 73  1  0
 72 71  1  0
 73 69  1  0
 74 75  2  0
 75 76  1  0
 77 76  2  0
 78 77  1  0
 79 53  1  0
 79 80  1  0
 79 89  1  0
 80 83  1  0
 81 85  1  0
 81 80  1  0
 82 81  2  0
 85 84  1  0
 87 85  1  0
 87 88  1  0
 87 86  1  0
 89 92  1  1
 89 90  1  0
 91 89  1  0
M  ISO  4  11 100  19 100  51 101  52 101
M  END
>  <TORSDO>  (56) 
F 21

>  <SCORE>  (56) 
-13.483

>  <name>  (56) 
55

>  <ligand_id>  (56) 
55

>  <original_smiles>  (56) 
[H]c1nc([H])c(C([H])([H])[N+]([H])([H])C([H])([H])C([H])([H])C([H])([H])Oc2c([H])c([H])c3c(c2[H])C([H])([H])N(C(=O)C([H])(N([H])C(=O)C([H])(N([H])C([H])([H])[H])C([H])([H])[H])C(C([H])([H])[H])(C([H])([H])[H])C([H])([H])[H])C([H])(C(=O)N([H])C2([H])c4c([H])c([H])c([H])c([H])c4C([H])([H])C([H])([H])C2([H])[H])C3([H])[H])c([H])c1N([H])C(=O)N1C([H])([H])C([H])([H])C([H])([H])C([H])(n2nc(-c3c([H])c([H])c(Oc4c([H])c([H])c(F)c([H])c4F)c([H])c3[H])c(C(=O)N([H])[H])c2N([H])[H])C1([H])[H]

>  <smiles>  (56) 
[H]c1nc([H])c(C([H])([H])[N+]([H])([H])C([H])([H])C([H])([H])C([H])([H])Oc2c([H])c([H])c3c(c2[H])C([H])([H])N(C(=O)C([H])(N([H])C(=O)C([H])(N([H])C([H])([H])[H])C([H])([H])[H])C(C([H])([H])[H])(C([H])([H])[H])C([H])([H])[H])C([H])(C(=O)N([H])C2([H])c4c([H])c([H])c([H])c([H])c4C([H])([H])C([H])([H])C2([H])[H])C3([H])[H])c([H])c1N([H])C(=O)N1C([H])([H])C([H])([H])C([H])([H])C([H])(n2nc(-c3c([H])c([H])c(Oc4c([H])c([H])c(F)c([H])c4F)c([H])c3[H])c(C(=O)N([H])[H])c2N([H])[H])C1([H])[H]

$$$$
56:0:0
     RDKit          3D

 91 99  0  0  1  0  0  0  0  0999 V2000
  -27.1960  -19.9350   19.2510 C   0  0  0  0  0  3  0  0  0  0  0  0
  -28.0740  -18.8920   19.6050 C   0  0  0  0  0  3  0  0  0  0  0  0
  -27.4580  -21.3110   19.4880 C   0  0  0  0  0  0  0  0  0  0  0  0
  -29.3020  -19.1450   20.2320 C   0  0  0  0  0  0  0  0  0  0  0  0
  -29.5540  -20.6010   20.4980 C   0  0  0  0  0  0  0  0  0  0  0  0
  -28.6580  -21.7440   20.1310 C   0  0  0  0  0  0  0  0  0  0  0  0
  -26.3900  -22.2770   19.0080 C   0  0  0  0  0  1  0  0  0  0  0  0
  -30.8470  -20.9830   21.2030 C   0  0  0  0  0  1  0  0  0  0  0  0
  -31.4720  -18.0550   19.4740 C   0  0  0  0  0  1  0  0  0  0  0  0
  -30.3040  -17.8410   20.4600 C   0  0  0  0  0  3  0  0  0  0  0  0
  -30.6180  -15.0760   20.3200 C   0  0  0  0  0  0  0  0  0  0  0  0
  -30.4610  -12.7390   19.3510 C   0  0  0  0  0  2  0  0  0  0  0  0
  -29.5160  -12.7010   18.1300 C   0  0  0  0  0  2  0  0  0  0  0  0
  -28.0580  -12.4880   18.5770 C   0  0  0  0  0  2  0  0  0  0  0  0
  -27.6650  -13.3950   19.7720 C   0  0  0  0  0  3  0  0  0  0  0  0
  -28.7360  -13.4090   20.8830 C   0  0  0  0  0  2  0  0  0  0  0  0
  -29.9910  -13.8320   20.2520 N   0  0  0  0  0  0  0  0  0  0  0  0
  -31.8280  -15.0820   20.0770 O   0  0  0  0  0  0  0  0  0  0  0  0
  -29.8850  -16.3000   20.4460 N   0  0  0  0  0  0  0  0  0  0  0  0
  -28.9000  -16.1510   20.5910 H   0  0  0  0  0  0  0  0  0  0  0  0
  -25.2920  -13.9520   20.5480 C   0  0  0  0  0  0  0  0  0  0  0  0
  -24.2340  -13.1670   20.9170 C   0  0  0  0  0  0  0  0  0  0  0  0
  -24.7060  -11.8180   20.8660 C   0  0  0  0  0  0  0  0  0  0  0  0
  -26.3360  -13.0820   20.2850 N   0  0  0  0  0  0  0  0  0  0  0  0
  -25.9940  -11.7930   20.5430 N   0  0  0  0  0  0  0  0  0  0  0  0
  -23.9860  -10.5510   21.0450 C   0  0  0  0  0  0  0  0  0  0  0  0
  -24.4180   -9.5820   21.9770 C   0  0  0  0  0  3  0  0  0  0  0  0
  -23.6970   -8.3800   22.1470 C   0  0  0  0  0  3  0  0  0  0  0  0
  -22.5290   -8.1400   21.3850 C   0  0  0  0  0  0  0  0  0  0  0  0
  -22.1170   -9.0970   20.4410 C   0  0  0  0  0  3  0  0  0  0  0  0
  -22.8380  -10.2900   20.2700 C   0  0  0  0  0  3  0  0  0  0  0  0
  -21.7800   -6.9900   21.4640 O   0  0  0  0  0  0  0  0  0  0  0  0
  -21.7070   -6.2560   22.6210 C   0  0  0  0  0  0  0  0  0  0  0  0
  -21.1870   -6.7980   23.8160 C   0  0  0  0  0  3  0  0  0  0  0  0
  -21.0660   -5.9870   24.9620 C   0  0  0  0  0  3  0  0  0  0  0  0
  -21.4550   -4.6350   24.9150 C   0  0  0  0  0  0  0  0  0  0  0  0
  -21.9680   -4.0920   23.7240 C   0  0  0  0  0  3  0  0  0  0  0  0
  -22.0910   -4.9000   22.5790 C   0  0  0  0  0  0  0  0  0  0  0  0
  -22.5660   -4.3660   21.4280 F   0  0  0  0  0  0  0  0  0  0  0  0
  -21.3330   -3.8540   26.0130 F   0  0  0  0  0  0  0  0  0  0  0  0
  -22.8380  -13.6350   21.2030 C   0  0  0  0  0  0  0  0  0  0  0  0
  -22.1180  -12.9210   22.0600 N   0  0  0  0  0  0  0  0  0  0  0  0
  -22.3960  -14.6670   20.7030 O   0  0  0  0  0  0  0  0  0  0  0  0
  -22.4910  -12.0850   22.4860 H   0  0  0  0  0  0  0  0  0  0  0  0
  -21.1800  -13.2150   22.2920 H   0  0  0  0  0  0  0  0  0  0  0  0
  -25.4460  -15.3250   20.3830 N   0  0  0  0  0  0  0  0  0  0  0  0
  -24.6720  -15.9690   20.5040 H   0  0  0  0  0  0  0  0  0  0  0  0
  -26.2760  -15.7700   20.0180 H   0  0  0  0  0  0  0  0  0  0  0  0
  -28.9710  -23.3700   20.3980 C   0  0  0  0  0  3  0  0  0  0  0  0
  -28.0240  -24.7380   20.0470 C   0  0  0  0  0  3  0  0  0  0  0  0
  -28.3030  -26.2550   20.2970 O   0  0  0  0  0  0  0  0  0  0  0  0
  -24.6300  -31.9090   23.2940 C   0  0  0  0  0  0  0  0  0  0  0  0
  -27.2540  -27.2470   20.2210 C   0  0  0  0  0  0  0  0  0  0  0  0
  -23.4530  -30.5360   21.6200 C   0  0  0  0  0  3  0  0  0  0  0  0
  -24.9230  -28.9900   20.1860 C   0  0  0  0  0  0  0  0  0  0  0  0
  -26.0080  -30.8110   21.4890 C   0  0  0  0  0  2  0  0  0  0  0  0
  -26.0940  -29.4290   20.8170 C   0  0  0  0  0  0  0  0  0  0  0  0
  -27.2610  -28.5740   20.8170 C   0  0  0  0  0  3  0  0  0  0  0  0
  -26.0580  -26.9160   19.5440 C   0  0  0  0  0  3  0  0  0  0  0  0
  -24.9190  -27.7500   19.5330 C   0  0  0  0  0  3  0  0  0  0  0  0
  -23.6920  -29.8820   20.2330 C   0  0  0  0  0  2  0  0  0  0  0  0
  -24.7170  -31.1050   22.1890 N   0  0  0  0  0  0  0  0  0  0  0  0
  -23.5370  -32.1830   23.8130 O   0  0  0  0  0  0  0  0  0  0  0  0
  -22.7660  -29.5120   22.5580 C   0  0  0  0  0  0  0  0  0  0  0  0
  -21.4450  -29.3210   22.3960 N   0  0  0  0  0  0  0  0  0  0  0  0
  -23.4260  -28.8920   23.3960 O   0  0  0  0  0  0  0  0  0  0  0  0
  -20.9690  -29.8730   21.6960 H   0  0  0  0  0  0  0  0  0  0  0  0
  -18.0660  -28.0840   22.8210 C   0  0  0  0  0  0  0  0  0  0  0  0
  -20.6160  -28.3680   23.1400 C   0  0  0  0  0  3  0  0  0  0  0  0
  -20.7440  -26.9430   22.5520 C   0  0  0  0  0  2  0  0  0  0  0  0
  -19.6640  -26.6210   21.5130 C   0  0  0  0  0  2  0  0  0  0  0  0
  -18.2690  -26.7460   22.1320 C   0  0  0  0  0  2  0  0  0  0  0  0
  -19.1690  -28.8530   23.2800 C   0  0  0  0  0  0  0  0  0  0  0  0
  -18.9250  -30.1050   23.8850 C   0  0  0  0  0  3  0  0  0  0  0  0
  -17.6110  -30.5900   24.0330 C   0  0  0  0  0  3  0  0  0  0  0  0
  -16.5230  -29.8180   23.5890 C   0  0  0  0  0  3  0  0  0  0  0  0
  -16.7520  -28.5670   22.9890 C   0  0  0  0  0  3  0  0  0  0  0  0
  -25.8990  -32.5380   23.9450 C   0  0  0  0  0  3  0  0  0  0  0  0
  -26.3560  -31.7910   25.2590 C   0  0  1  0  0  0  0  0  0  0  0  0
  -25.2190  -31.5900   26.2880 C   0  0  0  0  0  1  0  0  0  0  0  0
  -26.9380  -30.3970   24.9260 C   0  0  0  0  0  1  0  0  0  0  0  0
  -27.4900  -32.5880   25.9470 C   0  0  0  0  0  1  0  0  0  0  0  0
  -25.6020  -33.9490   24.2350 N   0  0  0  0  0  0  0  0  0  0  0  0
  -25.9610  -34.9810   23.4610 C   0  0  0  0  0  0  0  0  0  0  0  0
  -26.6440  -34.8450   22.4430 O   0  0  0  0  0  0  0  0  0  0  0  0
  -24.9980  -34.1300   25.0240 H   0  0  0  0  0  0  0  0  0  0  0  0
  -24.2710  -36.7980   23.0390 C   0  0  0  0  0  1  0  0  0  0  0  0
  -25.4890  -36.3880   23.8810 C   0  0  0  0  0  3  0  0  0  0  0  0
  -27.6120  -37.2670   24.7490 C   0  0  0  0  0  1  0  0  0  0  0  0
  -26.5400  -37.4210   23.7670 N   0  0  0  0  0  0  0  0  0  0  0  0
  -26.1440  -38.3510   23.8720 H   0  0  0  0  0  0  0  0  0  0  0  0
  1  3  2  0
  1  2  1  0
  2  4  2  0
  3  6  1  0
  4 10  1  0
  4  5  1  0
  5  8  1  0
  6 49  1  0
  6  5  2  0
  7  3  1  0
 10  9  1  0
 11 19  1  0
 12 17  1  0
 13 14  1  0
 13 12  1  0
 15 14  1  0
 15 24  1  0
 15 16  1  0
 17 11  1  0
 17 16  1  0
 18 11  2  0
 19 10  1  0
 19 20  1  0
 21 22  2  0
 22 41  1  0
 23 22  1  0
 23 26  1  0
 24 25  1  0
 24 21  1  0
 25 23  2  0
 26 27  1  0
 27 28  2  0
 29 32  1  0
 29 28  1  0
 30 29  2  0
 31 30  1  0
 31 26  2  0
 32 33  1  0
 33 34  1  0
 34 35  2  0
 36 35  1  0
 36 40  1  0
 37 36  2  0
 38 33  2  0
 38 37  1  0
 39 38  1  0
 41 42  1  0
 42 45  1  0
 42 44  1  0
 43 41  2  0
 46 47  1  0
 46 21  1  0
 48 46  1  0
 50 51  1  0
 50 49  2  0
 52 63  2  0
 53 51  1  0
 53 58  1  0
 54 62  1  0
 54 64  1  0
 55 61  1  0
 55 57  1  0
 56 62  1  0
 57 56  1  0
 58 57  2  0
 59 53  2  0
 60 59  1  0
 60 55  2  0
 61 54  1  0
 62 52  1  0
 64 66  2  0
 65 64  1  0
 67 65  1  0
 68 77  2  0
 68 73  1  0
 69 65  1  0
 69 73  1  0
 70 69  1  0
 71 72  1  0
 71 70  1  0
 72 68  1  0
 73 74  2  0
 74 75  1  0
 76 75  2  0
 77 76  1  0
 78 52  1  0
 78 83  1  0
 78 79  1  0
 79 82  1  1
 79 80  1  0
 81 79  1  0
 83 86  1  0
 84 88  1  0
 84 83  1  0
 85 84  2  0
 88 87  1  0
 90 91  1  0
 90 88  1  0
 90 89  1  0
M  ISO  4  11 100  19 100  50 101  51 101
M  END
>  <TORSDO>  (57) 
F 19

>  <SCORE>  (57) 
-15.125

>  <name>  (57) 
56

>  <ligand_id>  (57) 
56

>  <original_smiles>  (57) 
[H]c1c([H])c([H])c2c(c1[H])C([H])([H])C([H])([H])C([H])([H])C2([H])N([H])C(=O)C1([H])N(C(=O)C([H])(N([H])C(=O)C([H])(N([H])C([H])([H])[H])C([H])([H])[H])C(C([H])([H])[H])(C([H])([H])[H])C([H])([H])[H])C([H])([H])c2c([H])c(OC([H])([H])C([H])([H])c3c(C([H])([H])[H])c([H])c([H])c(C([H])(N([H])C(=O)N4C([H])([H])C([H])([H])C([H])([H])C([H])(n5nc(-c6c([H])c([H])c(Oc7c([H])c([H])c(F)c([H])c7F)c([H])c6[H])c(C(=O)N([H])[H])c5N([H])[H])C4([H])[H])C([H])([H])[H])c3C([H])([H])[H])c([H])c([H])c2C1([H])[H]

>  <smiles>  (57) 
[H]c1c([H])c([H])c2c(c1[H])C([H])([H])C([H])([H])C([H])([H])C2([H])N([H])C(=O)C1([H])N(C(=O)C([H])(N([H])C(=O)C([H])(N([H])C([H])([H])[H])C([H])([H])[H])C(C([H])([H])[H])(C([H])([H])[H])C([H])([H])[H])C([H])([H])c2c([H])c(OC([H])([H])C([H])([H])c3c(C([H])([H])[H])c([H])c([H])c(C([H])(N([H])C(=O)N4C([H])([H])C([H])([H])C([H])([H])C([H])(n5nc(-c6c([H])c([H])c(Oc7c([H])c([H])c(F)c([H])c7F)c([H])c6[H])c(C(=O)N([H])[H])c5N([H])[H])C4([H])[H])C([H])([H])[H])c3C([H])([H])[H])c([H])c([H])c2C1([H])[H]

$$$$
57:0:0
     RDKit          3D

 92102  0  0  1  0  0  0  0  0999 V2000
  -26.7150  -19.3700   18.4860 C   0  0  0  0  0  2  0  0  0  0  0  0
  -29.1960  -19.1540   17.8280 C   0  0  0  0  0  2  0  0  0  0  0  0
  -26.6040  -21.7170   18.1830 C   0  0  0  0  0  2  0  0  0  0  0  0
  -27.5610  -20.9640   20.2320 C   0  0  0  0  0  2  0  0  0  0  0  0
  -27.8610  -19.8210   17.5510 C   0  0  0  0  0  3  0  0  0  0  0  0
  -26.4040  -20.6630   19.2570 C   0  0  0  0  0  3  0  0  0  0  0  0
  -29.7190  -19.7480   19.1510 C   0  0  0  0  0  3  0  0  0  0  0  0
  -28.0480  -21.3040   17.9130 C   0  0  2  0  0  0  0  0  0  0  0  0
  -28.7740  -21.2940   19.3190 C   0  0  1  0  0  0  0  0  0  0  0  0
  -28.7330  -22.0920   16.7690 C   0  0  0  0  0  1  0  0  0  0  0  0
  -30.0900  -18.3090   20.1350 C   0  0  0  0  0  2  0  0  0  0  0  0
  -30.7740  -15.4370   20.0350 C   0  0  0  0  0  0  0  0  0  0  0  0
  -30.7390  -12.9720   19.2640 C   0  0  0  0  0  2  0  0  0  0  0  0
  -29.7950  -12.7480   18.0570 C   0  0  0  0  0  2  0  0  0  0  0  0
  -28.3390  -12.5260   18.5130 C   0  0  0  0  0  2  0  0  0  0  0  0
  -27.9090  -13.5170   19.6250 C   0  0  0  0  0  3  0  0  0  0  0  0
  -28.9810  -13.6800   20.7190 C   0  0  0  0  0  2  0  0  0  0  0  0
  -30.2010  -14.1400   20.0360 N   0  0  0  0  0  0  0  0  0  0  0  0
  -32.0080  -15.4420   19.9650 O   0  0  0  0  0  0  0  0  0  0  0  0
  -29.9890  -16.6720   19.8800 N   0  0  0  0  0  0  0  0  0  0  0  0
  -29.0350  -16.4160   19.6870 H   0  0  0  0  0  0  0  0  0  0  0  0
  -25.5520  -14.1110   20.4120 C   0  0  0  0  0  0  0  0  0  0  0  0
  -24.4890  -13.3490   20.7940 C   0  0  0  0  0  0  0  0  0  0  0  0
  -24.9380  -11.9920   20.7600 C   0  0  0  0  0  0  0  0  0  0  0  0
  -26.5850  -13.2240   20.1600 N   0  0  0  0  0  0  0  0  0  0  0  0
  -26.2270  -11.9410   20.4370 N   0  0  0  0  0  0  0  0  0  0  0  0
  -24.1930  -10.7420   20.9570 C   0  0  0  0  0  0  0  0  0  0  0  0
  -24.5900   -9.7820   21.9150 C   0  0  0  0  0  3  0  0  0  0  0  0
  -23.8420   -8.5980   22.0950 C   0  0  0  0  0  3  0  0  0  0  0  0
  -22.6840   -8.3630   21.3160 C   0  0  0  0  0  0  0  0  0  0  0  0
  -22.3100   -9.3070   20.3430 C   0  0  0  0  0  3  0  0  0  0  0  0
  -23.0570  -10.4830   20.1630 C   0  0  0  0  0  3  0  0  0  0  0  0
  -21.9120   -7.2290   21.4010 O   0  0  0  0  0  0  0  0  0  0  0  0
  -21.7890   -6.5290   22.5760 C   0  0  0  0  0  0  0  0  0  0  0  0
  -21.2470   -7.1160   23.7400 C   0  0  0  0  0  3  0  0  0  0  0  0
  -21.0810   -6.3450   24.9060 C   0  0  0  0  0  3  0  0  0  0  0  0
  -21.4400   -4.9830   24.9070 C   0  0  0  0  0  0  0  0  0  0  0  0
  -21.9690   -4.3950   23.7480 C   0  0  0  0  0  3  0  0  0  0  0  0
  -22.1410   -5.1630   22.5830 C   0  0  0  0  0  0  0  0  0  0  0  0
  -22.6360   -4.5860   21.4600 F   0  0  0  0  0  0  0  0  0  0  0  0
  -21.2730   -4.2370   26.0250 F   0  0  0  0  0  0  0  0  0  0  0  0
  -23.0980  -13.8430   21.0760 C   0  0  0  0  0  0  0  0  0  0  0  0
  -22.3700  -13.1630   21.9540 N   0  0  0  0  0  0  0  0  0  0  0  0
  -22.6680  -14.8670   20.5500 O   0  0  0  0  0  0  0  0  0  0  0  0
  -22.7280  -12.3330   22.4000 H   0  0  0  0  0  0  0  0  0  0  0  0
  -21.4360  -13.4740   22.1790 H   0  0  0  0  0  0  0  0  0  0  0  0
  -25.7240  -15.4780   20.2260 N   0  0  0  0  0  0  0  0  0  0  0  0
  -24.9380  -16.1170   20.2750 H   0  0  0  0  0  0  0  0  0  0  0  0
  -26.5390  -15.8910   19.7940 H   0  0  0  0  0  0  0  0  0  0  0  0
  -29.1720  -23.0230   19.6310 C   0  0  0  0  0  3  0  0  0  0  0  0
  -28.1890  -24.5270   19.5340 C   0  0  0  0  0  3  0  0  0  0  0  0
  -28.3990  -26.1050   19.8890 O   0  0  0  0  0  0  0  0  0  0  0  0
  -24.6860  -31.8230   23.1360 C   0  0  0  0  0  0  0  0  0  0  0  0
  -27.3490  -27.1510   19.8990 C   0  0  0  0  0  0  0  0  0  0  0  0
  -23.5170  -30.4500   21.4590 C   0  0  0  0  0  3  0  0  0  0  0  0
  -24.9920  -28.9340   19.9770 C   0  0  0  0  0  0  0  0  0  0  0  0
  -26.0730  -30.7310   21.3100 C   0  0  0  0  0  2  0  0  0  0  0  0
  -26.1740  -29.3540   20.5980 C   0  0  0  0  0  0  0  0  0  0  0  0
  -27.3450  -28.4780   20.5440 C   0  0  0  0  0  3  0  0  0  0  0  0
  -26.1290  -26.8740   19.2440 C   0  0  0  0  0  3  0  0  0  0  0  0
  -24.9850  -27.7110   19.2870 C   0  0  0  0  0  3  0  0  0  0  0  0
  -23.7520  -29.8180   20.0620 C   0  0  0  0  0  2  0  0  0  0  0  0
  -24.7800  -31.0270   22.0230 N   0  0  0  0  0  0  0  0  0  0  0  0
  -23.5930  -32.0710   23.6690 O   0  0  0  0  0  0  0  0  0  0  0  0
  -22.8510  -29.4060   22.3920 C   0  0  0  0  0  0  0  0  0  0  0  0
  -21.5210  -29.2300   22.2760 N   0  0  0  0  0  0  0  0  0  0  0  0
  -23.5320  -28.7580   23.1870 O   0  0  0  0  0  0  0  0  0  0  0  0
  -21.0230  -29.8130   21.6200 H   0  0  0  0  0  0  0  0  0  0  0  0
  -18.1550  -27.9790   22.7880 C   0  0  0  0  0  0  0  0  0  0  0  0
  -20.7170  -28.2530   23.0180 C   0  0  0  0  0  3  0  0  0  0  0  0
  -20.8160  -26.8490   22.3800 C   0  0  0  0  0  2  0  0  0  0  0  0
  -19.6990  -26.5610   21.3720 C   0  0  0  0  0  2  0  0  0  0  0  0
  -18.3280  -26.6640   22.0470 C   0  0  0  0  0  2  0  0  0  0  0  0
  -19.2760  -28.7340   23.2270 C   0  0  0  0  0  0  0  0  0  0  0  0
  -19.0560  -29.9640   23.8860 C   0  0  0  0  0  3  0  0  0  0  0  0
  -17.7510  -30.4390   24.1090 C   0  0  0  0  0  3  0  0  0  0  0  0
  -16.6460  -29.6820   23.6830 C   0  0  0  0  0  3  0  0  0  0  0  0
  -16.8490  -28.4530   23.0290 C   0  0  0  0  0  3  0  0  0  0  0  0
  -25.9460  -32.4720   23.7850 C   0  0  0  0  0  3  0  0  0  0  0  0
  -26.4490  -31.6970   25.0690 C   0  0  1  0  0  0  0  0  0  0  0  0
  -25.3430  -31.4380   26.1180 C   0  0  0  0  0  1  0  0  0  0  0  0
  -27.0570  -30.3280   24.6860 C   0  0  0  0  0  1  0  0  0  0  0  0
  -27.5790  -32.4970   25.7570 C   0  0  0  0  0  1  0  0  0  0  0  0
  -25.6110  -33.8640   24.1320 N   0  0  0  0  0  0  0  0  0  0  0  0
  -25.9250  -34.9360   23.3930 C   0  0  0  0  0  0  0  0  0  0  0  0
  -26.5880  -34.8580   22.3550 O   0  0  0  0  0  0  0  0  0  0  0  0
  -25.0230  -33.9970   24.9420 H   0  0  0  0  0  0  0  0  0  0  0  0
  -24.1690  -36.7150   23.0830 C   0  0  0  0  0  1  0  0  0  0  0  0
  -25.4220  -36.3120   23.8770 C   0  0  0  0  0  3  0  0  0  0  0  0
  -27.5380  -37.2230   24.7200 C   0  0  0  0  0  1  0  0  0  0  0  0
  -26.4390  -37.3810   23.7760 N   0  0  0  0  0  0  0  0  0  0  0  0
  -26.0180  -38.2940   23.9320 H   0  0  0  0  0  0  0  0  0  0  0  0
  1  6  1  0
  2  7  1  0
  5  2  1  0
  5  8  1  0
  5  1  1  0
  6  3  1  0
  6  4  1  0
  7  9  1  0
  7 11  1  0
  8 10  1  6
  8  3  1  0
  8  9  1  0
  9 50  1  1
  9  4  1  0
 12 18  1  0
 13 18  1  0
 14 15  1  0
 14 13  1  0
 16 15  1  0
 16 25  1  0
 16 17  1  0
 18 17  1  0
 19 12  2  0
 20 12  1  0
 20 11  1  0
 21 20  1  0
 22 23  2  0
 23 42  1  0
 24 23  1  0
 24 27  1  0
 25 22  1  0
 25 26  1  0
 26 24  2  0
 27 28  1  0
 28 29  2  0
 30 33  1  0
 30 29  1  0
 31 30  2  0
 32 31  1  0
 32 27  2  0
 33 34  1  0
 34 39  2  0
 34 35  1  0
 35 36  2  0
 36 37  1  0
 37 41  1  0
 38 37  2  0
 39 38  1  0
 40 39  1  0
 42 43  1  0
 43 46  1  0
 43 45  1  0
 44 42  2  0
 47 48  1  0
 47 22  1  0
 49 47  1  0
 51 50  2  0
 51 52  1  0
 52 54  1  0
 53 64  2  0
 54 59  1  0
 55 63  1  0
 55 65  1  0
 56 62  1  0
 56 58  1  0
 57 63  1  0
 58 57  1  0
 59 58  2  0
 60 61  1  0
 60 54  2  0
 61 56  2  0
 62 55  1  0
 63 53  1  0
 65 67  2  0
 66 65  1  0
 68 66  1  0
 69 78  2  0
 69 74  1  0
 70 66  1  0
 70 74  1  0
 71 70  1  0
 72 73  1  0
 72 71  1  0
 73 69  1  0
 74 75  2  0
 75 76  1  0
 77 76  2  0
 78 77  1  0
 79 53  1  0
 79 84  1  0
 79 80  1  0
 80 83  1  1
 80 81  1  0
 82 80  1  0
 84 87  1  0
 85 89  1  0
 85 84  1  0
 86 85  2  0
 89 88  1  0
 91 89  1  0
 91 92  1  0
 91 90  1  0
M  ISO  4  12 100  20 100  51 101  52 101
M  END
>  <TORSDO>  (58) 
F 19

>  <SCORE>  (58) 
-14.814

>  <name>  (58) 
57

>  <ligand_id>  (58) 
57

>  <original_smiles>  (58) 
[H]c1c([H])c([H])c2c(c1[H])C([H])([H])C([H])([H])C([H])([H])C2([H])N([H])C(=O)C1([H])N(C(=O)C([H])(N([H])C(=O)C([H])(N([H])C([H])([H])[H])C([H])([H])[H])C(C([H])([H])[H])(C([H])([H])[H])C([H])([H])[H])C([H])([H])c2c([H])c(OC([H])([H])C([H])([H])C34C([H])([H])C5([H])C([H])([H])C([H])(C([H])([H])C3([H])C([H])([H])N([H])C(=O)N3C([H])([H])C([H])([H])C([H])([H])C([H])(n6nc(-c7c([H])c([H])c(Oc8c([H])c([H])c(F)c([H])c8F)c([H])c7[H])c(C(=O)N([H])[H])c6N([H])[H])C3([H])[H])C4(C([H])([H])[H])C5([H])[H])c([H])c([H])c2C1([H])[H]

>  <smiles>  (58) 
[H]c1c([H])c([H])c2c(c1[H])C([H])([H])C([H])([H])C([H])([H])C2([H])N([H])C(=O)C1([H])N(C(=O)C([H])(N([H])C(=O)C([H])(N([H])C([H])([H])[H])C([H])([H])[H])C(C([H])([H])[H])(C([H])([H])[H])C([H])([H])[H])C([H])([H])c2c([H])c(OC([H])([H])C([H])([H])C34C([H])([H])C5([H])C([H])([H])C([H])(C([H])([H])C3([H])C([H])([H])N([H])C(=O)N3C([H])([H])C([H])([H])C([H])([H])C([H])(n6nc(-c7c([H])c([H])c(Oc8c([H])c([H])c(F)c([H])c8F)c([H])c7[H])c(C(=O)N([H])[H])c6N([H])[H])C3([H])[H])C4(C([H])([H])[H])C5([H])[H])c([H])c([H])c2C1([H])[H]

$$$$
58:0:0
     RDKit          3D

 91 99  0  0  1  0  0  0  0  0999 V2000
  -28.9000  -19.6070   19.0730 C   0  0  0  0  0  3  0  0  0  0  0  0
  -30.3090  -18.7000   21.2490 C   0  0  0  0  0  3  0  0  0  0  0  0
  -29.2820  -20.6600   19.9760 C   0  0  0  0  0  0  0  0  0  0  0  0
  -29.1780  -18.1960   19.2290 C   0  0  0  0  0  0  0  0  0  0  0  0
  -30.0330  -20.1250   21.0850 C   0  0  0  0  0  0  0  0  0  0  0  0
  -29.8980  -17.6610   20.3420 C   0  0  0  0  0  0  0  0  0  0  0  0
  -28.6140  -17.2380   18.1940 C   0  0  0  0  0  1  0  0  0  0  0  0
  -30.5120  -21.0710   22.1710 C   0  0  0  0  0  1  0  0  0  0  0  0
  -30.7610  -15.0850   20.3640 C   0  0  0  0  0  0  0  0  0  0  0  0
  -30.6900  -12.7290   19.4630 C   0  0  0  0  0  2  0  0  0  0  0  0
  -29.7740  -12.6940   18.2170 C   0  0  0  0  0  2  0  0  0  0  0  0
  -28.3010  -12.4910   18.6230 C   0  0  0  0  0  2  0  0  0  0  0  0
  -27.8770  -13.4230   19.7890 C   0  0  0  0  0  3  0  0  0  0  0  0
  -28.9130  -13.4180   20.9360 C   0  0  0  0  0  2  0  0  0  0  0  0
  -30.2060  -13.8130   20.3590 N   0  0  0  0  0  0  0  0  0  0  0  0
  -31.9360  -15.2180   20.0050 O   0  0  0  0  0  0  0  0  0  0  0  0
  -29.9310  -16.1800   20.6640 N   0  0  0  0  0  0  0  0  0  0  0  0
  -29.0550  -15.8530   21.0430 H   0  0  0  0  0  0  0  0  0  0  0  0
  -25.4810  -14.0060   20.4890 C   0  0  0  0  0  0  0  0  0  0  0  0
  -24.4120  -13.2300   20.8440 C   0  0  0  0  0  0  0  0  0  0  0  0
  -24.8780  -11.8790   20.8160 C   0  0  0  0  0  0  0  0  0  0  0  0
  -26.5290  -13.1280   20.2620 N   0  0  0  0  0  0  0  0  0  0  0  0
  -26.1720  -11.8440   20.5220 N   0  0  0  0  0  0  0  0  0  0  0  0
  -24.1500  -10.6150   20.9950 C   0  0  0  0  0  0  0  0  0  0  0  0
  -24.5380   -9.6710   21.9710 C   0  0  0  0  0  3  0  0  0  0  0  0
  -23.8090   -8.4730   22.1360 C   0  0  0  0  0  3  0  0  0  0  0  0
  -22.6800   -8.2110   21.3250 C   0  0  0  0  0  0  0  0  0  0  0  0
  -22.3120   -9.1430   20.3400 C   0  0  0  0  0  3  0  0  0  0  0  0
  -23.0400  -10.3330   20.1720 C   0  0  0  0  0  3  0  0  0  0  0  0
  -21.9280   -7.0630   21.3980 O   0  0  0  0  0  0  0  0  0  0  0  0
  -21.7800   -6.3730   22.5740 C   0  0  0  0  0  0  0  0  0  0  0  0
  -21.1790   -6.9570   23.7100 C   0  0  0  0  0  3  0  0  0  0  0  0
  -20.9840   -6.1900   24.8760 C   0  0  0  0  0  3  0  0  0  0  0  0
  -21.3770   -4.8390   24.9050 C   0  0  0  0  0  0  0  0  0  0  0  0
  -21.9690   -4.2540   23.7720 C   0  0  0  0  0  3  0  0  0  0  0  0
  -22.1670   -5.0190   22.6090 C   0  0  0  0  0  0  0  0  0  0  0  0
  -22.7190   -4.4430   21.5140 F   0  0  0  0  0  0  0  0  0  0  0  0
  -21.1820   -4.1000   26.0220 F   0  0  0  0  0  0  0  0  0  0  0  0
  -23.0110  -13.7050   21.0990 C   0  0  0  0  0  0  0  0  0  0  0  0
  -22.2760  -13.0120   21.9620 N   0  0  0  0  0  0  0  0  0  0  0  0
  -22.5770  -14.7270   20.5690 O   0  0  0  0  0  0  0  0  0  0  0  0
  -22.6410  -12.1870   22.4140 H   0  0  0  0  0  0  0  0  0  0  0  0
  -21.3350  -13.3130   22.1750 H   0  0  0  0  0  0  0  0  0  0  0  0
  -25.6440  -15.3760   20.3170 N   0  0  0  0  0  0  0  0  0  0  0  0
  -24.8720  -16.0260   20.4190 H   0  0  0  0  0  0  0  0  0  0  0  0
  -26.4910  -15.8210   19.9870 H   0  0  0  0  0  0  0  0  0  0  0  0
  -28.7140  -22.1480   19.6970 C   0  0  0  0  0  0  0  0  0  0  0  0
  -27.8090  -22.2280   18.8610 O   0  0  0  0  0  0  0  0  0  0  0  0
  -29.1360  -23.6080   20.2970 C   0  0  0  0  0  3  0  0  0  0  0  0
  -28.2040  -24.9450   19.9290 C   0  0  0  0  0  3  0  0  0  0  0  0
  -28.4270  -26.4280   20.2890 O   0  0  0  0  0  0  0  0  0  0  0  0
  -24.6700  -31.9360   23.3330 C   0  0  0  0  0  0  0  0  0  0  0  0
  -27.3530  -27.3760   20.2100 C   0  0  0  0  0  0  0  0  0  0  0  0
  -23.5100  -30.5740   21.6370 C   0  0  0  0  0  3  0  0  0  0  0  0
  -24.9970  -29.0640   20.1890 C   0  0  0  0  0  0  0  0  0  0  0  0
  -26.0590  -30.8820   21.5170 C   0  0  0  0  0  2  0  0  0  0  0  0
  -26.1590  -29.5150   20.8300 C   0  0  0  0  0  0  0  0  0  0  0  0
  -27.3370  -28.6860   20.8270 C   0  0  0  0  0  3  0  0  0  0  0  0
  -26.1680  -27.0250   19.5230 C   0  0  0  0  0  3  0  0  0  0  0  0
  -25.0120  -27.8320   19.5230 C   0  0  0  0  0  3  0  0  0  0  0  0
  -23.7570  -29.9390   20.2420 C   0  0  0  0  0  2  0  0  0  0  0  0
  -24.7640  -31.1500   22.2190 N   0  0  0  0  0  0  0  0  0  0  0  0
  -23.5730  -32.1930   23.8540 O   0  0  0  0  0  0  0  0  0  0  0  0
  -22.8310  -29.5310   22.5590 C   0  0  0  0  0  0  0  0  0  0  0  0
  -21.5150  -29.3190   22.3770 N   0  0  0  0  0  0  0  0  0  0  0  0
  -23.4900  -28.9150   23.4010 O   0  0  0  0  0  0  0  0  0  0  0  0
  -21.0390  -29.8680   21.6750 H   0  0  0  0  0  0  0  0  0  0  0  0
  -18.1630  -27.9890   22.7090 C   0  0  0  0  0  0  0  0  0  0  0  0
  -20.6930  -28.3480   23.1050 C   0  0  0  0  0  3  0  0  0  0  0  0
  -20.8790  -26.9230   22.5330 C   0  0  0  0  0  2  0  0  0  0  0  0
  -19.8410  -26.5620   21.4650 C   0  0  0  0  0  2  0  0  0  0  0  0
  -18.4250  -26.6510   22.0390 C   0  0  0  0  0  2  0  0  0  0  0  0
  -19.2290  -28.7930   23.1950 C   0  0  0  0  0  0  0  0  0  0  0  0
  -18.9300  -30.0430   23.7800 C   0  0  0  0  0  3  0  0  0  0  0  0
  -17.6000  -30.4910   23.8840 C   0  0  0  0  0  3  0  0  0  0  0  0
  -16.5480  -29.6850   23.4140 C   0  0  0  0  0  3  0  0  0  0  0  0
  -16.8310  -28.4360   22.8330 C   0  0  0  0  0  3  0  0  0  0  0  0
  -25.9330  -32.5650   23.9970 C   0  0  0  0  0  3  0  0  0  0  0  0
  -26.3830  -31.8130   25.3100 C   0  0  1  0  0  0  0  0  0  0  0  0
  -25.2420  -31.6090   26.3340 C   0  0  0  0  0  1  0  0  0  0  0  0
  -26.9660  -30.4210   24.9750 C   0  0  0  0  0  1  0  0  0  0  0  0
  -27.5140  -32.6080   26.0060 C   0  0  0  0  0  1  0  0  0  0  0  0
  -25.6280  -33.9740   24.2910 N   0  0  0  0  0  0  0  0  0  0  0  0
  -25.9710  -35.0080   23.5120 C   0  0  0  0  0  0  0  0  0  0  0  0
  -26.6460  -34.8770   22.4880 O   0  0  0  0  0  0  0  0  0  0  0  0
  -25.0300  -34.1490   25.0850 H   0  0  0  0  0  0  0  0  0  0  0  0
  -24.2490  -36.8020   23.1220 C   0  0  0  0  0  1  0  0  0  0  0  0
  -25.4920  -36.4110   23.9370 C   0  0  0  0  0  3  0  0  0  0  0  0
  -27.6270  -37.3170   24.7470 C   0  0  0  0  0  1  0  0  0  0  0  0
  -26.5300  -37.4560   23.7930 N   0  0  0  0  0  0  0  0  0  0  0  0
  -26.1250  -38.3820   23.9070 H   0  0  0  0  0  0  0  0  0  0  0  0
  1  4  2  0
  1  3  1  0
  3  5  2  0
  4  6  1  0
  5  2  1  0
  5  8  1  0
  6 17  1  0
  6  2  2  0
  7  4  1  0
  9 17  1  0
 10 15  1  0
 11 12  1  0
 11 10  1  0
 13 12  1  0
 13 22  1  0
 13 14  1  0
 15  9  1  0
 15 14  1  0
 16  9  2  0
 17 18  1  0
 19 20  2  0
 20 39  1  0
 21 20  1  0
 21 24  1  0
 22 19  1  0
 22 23  1  0
 23 21  2  0
 24 25  1  0
 25 26  2  0
 27 30  1  0
 27 26  1  0
 28 27  2  0
 29 28  1  0
 29 24  2  0
 30 31  1  0
 31 36  2  0
 31 32  1  0
 32 33  2  0
 33 34  1  0
 34 38  1  0
 35 34  2  0
 36 35  1  0
 37 36  1  0
 39 40  1  0
 40 43  1  0
 40 42  1  0
 41 39  2  0
 44 45  1  0
 44 19  1  0
 46 44  1  0
 47  3  1  0
 47 49  1  0
 48 47  2  0
 50 51  1  0
 50 49  2  0
 52 63  2  0
 53 51  1  0
 53 58  1  0
 54 62  1  0
 54 64  1  0
 55 61  1  0
 55 57  1  0
 56 62  1  0
 57 56  1  0
 58 57  2  0
 59 60  1  0
 59 53  2  0
 60 55  2  0
 61 54  1  0
 62 52  1  0
 64 66  2  0
 65 64  1  0
 67 65  1  0
 68 77  2  0
 68 73  1  0
 69 65  1  0
 69 73  1  0
 70 69  1  0
 71 72  1  0
 71 70  1  0
 72 68  1  0
 73 74  2  0
 74 75  1  0
 76 75  2  0
 77 76  1  0
 78 52  1  0
 78 83  1  0
 78 79  1  0
 79 82  1  1
 79 80  1  0
 81 79  1  0
 83 86  1  0
 84 88  1  0
 84 83  1  0
 85 84  2  0
 88 87  1  0
 90 91  1  0
 90 88  1  0
 90 89  1  0
M  ISO  4   9 100  17 100  50 101  51 101
M  END
>  <TORSDO>  (59) 
F 19

>  <SCORE>  (59) 
-13.994

>  <name>  (59) 
58

>  <ligand_id>  (59) 
58

>  <original_smiles>  (59) 
[H]c1c([H])c([H])c2c(c1[H])C([H])([H])C([H])([H])C([H])([H])C2([H])N([H])C(=O)C1([H])N(C(=O)C([H])(N([H])C(=O)C([H])(N([H])C([H])([H])[H])C([H])([H])[H])C(C([H])([H])[H])(C([H])([H])[H])C([H])([H])[H])C([H])([H])c2c([H])c(OC([H])([H])C([H])([H])C(=O)c3c([H])c(C([H])([H])[H])c(N([H])C(=O)N4C([H])([H])C([H])([H])C([H])([H])C([H])(n5nc(-c6c([H])c([H])c(Oc7c([H])c([H])c(F)c([H])c7F)c([H])c6[H])c(C(=O)N([H])[H])c5N([H])[H])C4([H])[H])c([H])c3C([H])([H])[H])c([H])c([H])c2C1([H])[H]

>  <smiles>  (59) 
[H]c1c([H])c([H])c2c(c1[H])C([H])([H])C([H])([H])C([H])([H])C2([H])N([H])C(=O)C1([H])N(C(=O)C([H])(N([H])C(=O)C([H])(N([H])C([H])([H])[H])C([H])([H])[H])C(C([H])([H])[H])(C([H])([H])[H])C([H])([H])[H])C([H])([H])c2c([H])c(OC([H])([H])C([H])([H])C(=O)c3c([H])c(C([H])([H])[H])c(N([H])C(=O)N4C([H])([H])C([H])([H])C([H])([H])C([H])(n5nc(-c6c([H])c([H])c(Oc7c([H])c([H])c(F)c([H])c7F)c([H])c6[H])c(C(=O)N([H])[H])c5N([H])[H])C4([H])[H])c([H])c3C([H])([H])[H])c([H])c([H])c2C1([H])[H]

$$$$
59:0:0
     RDKit          3D

 94103  0  0  1  0  0  0  0  0999 V2000
  -29.2910  -21.9690   20.7020 C   0  0  0  0  0  0  0  0  0  0  0  0
  -29.5590  -23.0570   19.9550 N   0  0  0  0  0  0  0  0  0  0  0  0
  -28.9190  -22.0540   21.8740 O   0  0  0  0  0  0  0  0  0  0  0  0
  -29.8630  -22.8970   19.0030 H   0  0  0  0  0  0  0  0  0  0  0  0
  -30.4130  -19.5930   20.8310 C   0  0  0  0  0  2  0  0  0  0  0  0
  -29.4750  -20.5720   20.0490 C   0  0  0  0  0  3  0  0  0  0  0  0
  -29.7130  -18.1980   20.9890 C   0  0  0  0  0  3  0  0  0  0  0  0
  -28.1690  -19.8020   19.9430 C   0  0  0  0  0  3  0  0  0  0  0  0
  -28.3220  -18.3820   20.4020 C   0  0  0  0  0  3  0  0  0  0  0  0
  -28.2290  -18.7110   18.9890 N   0  0  0  0  0  4  0  0  0  0  0  0
  -29.0680  -18.6530   18.4390 H   0  0  0  0  0  0  0  0  0  0  0  0
  -27.3520  -18.4970   18.5440 H   0  0  0  0  0  0  0  0  0  0  0  0
  -30.5450  -16.9900   20.4520 C   0  0  0  0  0  2  0  0  0  0  0  0
  -30.6840  -14.5210   20.2700 C   0  0  0  0  0  0  0  0  0  0  0  0
  -30.3030  -12.3790   19.1210 C   0  0  0  0  0  2  0  0  0  0  0  0
  -29.3250  -12.6110   17.9510 C   0  0  0  0  0  2  0  0  0  0  0  0
  -27.8690  -12.4720   18.4310 C   0  0  0  0  0  2  0  0  0  0  0  0
  -27.5790  -13.2860   19.7230 C   0  0  0  0  0  3  0  0  0  0  0  0
  -28.6780  -13.0710   20.7900 C   0  0  0  0  0  2  0  0  0  0  0  0
  -29.9770  -13.3620   20.1680 N   0  0  0  0  0  0  0  0  0  0  0  0
  -31.8180  -14.6410   19.8020 O   0  0  0  0  0  0  0  0  0  0  0  0
  -30.0170  -15.6220   20.6880 N   0  0  0  0  0  0  0  0  0  0  0  0
  -29.0810  -15.5030   21.0480 H   0  0  0  0  0  0  0  0  0  0  0  0
  -25.2110  -13.8780   20.5280 C   0  0  0  0  0  0  0  0  0  0  0  0
  -24.1550  -13.1000   20.9180 C   0  0  0  0  0  0  0  0  0  0  0  0
  -24.6150  -11.7490   20.8520 C   0  0  0  0  0  0  0  0  0  0  0  0
  -26.2470  -13.0010   20.2480 N   0  0  0  0  0  0  0  0  0  0  0  0
  -25.8950  -11.7140   20.5030 N   0  0  0  0  0  0  0  0  0  0  0  0
  -23.8940  -10.4830   21.0460 C   0  0  0  0  0  0  0  0  0  0  0  0
  -24.3470   -9.5090   21.9630 C   0  0  0  0  0  3  0  0  0  0  0  0
  -23.6270   -8.3080   22.1460 C   0  0  0  0  0  3  0  0  0  0  0  0
  -22.4380   -8.0750   21.4130 C   0  0  0  0  0  0  0  0  0  0  0  0
  -22.0050   -9.0370   20.4850 C   0  0  0  0  0  3  0  0  0  0  0  0
  -22.7260  -10.2290   20.2990 C   0  0  0  0  0  3  0  0  0  0  0  0
  -21.6870   -6.9280   21.5090 O   0  0  0  0  0  0  0  0  0  0  0  0
  -21.6490   -6.1870   22.6630 C   0  0  0  0  0  0  0  0  0  0  0  0
  -21.2080   -6.7360   23.8860 C   0  0  0  0  0  3  0  0  0  0  0  0
  -21.1180   -5.9200   25.0310 C   0  0  0  0  0  3  0  0  0  0  0  0
  -21.4570   -4.5560   24.9530 C   0  0  0  0  0  0  0  0  0  0  0  0
  -21.8920   -4.0070   23.7340 C   0  0  0  0  0  3  0  0  0  0  0  0
  -21.9850   -4.8200   22.5910 C   0  0  0  0  0  0  0  0  0  0  0  0
  -22.3850   -4.2810   21.4140 F   0  0  0  0  0  0  0  0  0  0  0  0
  -21.3620   -3.7690   26.0510 F   0  0  0  0  0  0  0  0  0  0  0  0
  -22.7670  -13.5720   21.2410 C   0  0  0  0  0  0  0  0  0  0  0  0
  -22.0660  -12.8620   22.1190 N   0  0  0  0  0  0  0  0  0  0  0  0
  -22.3120  -14.6040   20.7500 O   0  0  0  0  0  0  0  0  0  0  0  0
  -22.4440  -12.0260   22.5370 H   0  0  0  0  0  0  0  0  0  0  0  0
  -21.1360  -13.1620   22.3780 H   0  0  0  0  0  0  0  0  0  0  0  0
  -25.3750  -15.2500   20.3720 N   0  0  0  0  0  0  0  0  0  0  0  0
  -24.6250  -15.9120   20.5390 H   0  0  0  0  0  0  0  0  0  0  0  0
  -26.2380  -15.6860   20.0800 H   0  0  0  0  0  0  0  0  0  0  0  0
  -29.5530  -24.4690   20.3930 C   0  0  0  0  0  2  0  0  0  0  0  0
  -28.3140  -25.2650   19.9120 C   0  0  0  0  0  2  0  0  0  0  0  0
  -28.4120  -26.6780   20.2000 O   0  0  0  0  0  0  0  0  0  0  0  0
  -24.6180  -31.9100   23.2250 C   0  0  0  0  0  0  0  0  0  0  0  0
  -27.2470  -27.4300   20.1590 C   0  0  0  0  0  0  0  0  0  0  0  0
  -23.4130  -30.5170   21.5740 C   0  0  0  0  0  3  0  0  0  0  0  0
  -24.8650  -28.9750   20.1550 C   0  0  0  0  0  0  0  0  0  0  0  0
  -25.9460  -30.8550   21.3940 C   0  0  0  0  0  2  0  0  0  0  0  0
  -26.0240  -29.4820   20.7510 C   0  0  0  0  0  0  0  0  0  0  0  0
  -27.2180  -28.7180   20.7500 C   0  0  0  0  0  3  0  0  0  0  0  0
  -26.0650  -26.9510   19.5450 C   0  0  0  0  0  3  0  0  0  0  0  0
  -24.8810  -27.7100   19.5470 C   0  0  0  0  0  3  0  0  0  0  0  0
  -23.6270  -29.8410   20.1960 C   0  0  0  0  0  2  0  0  0  0  0  0
  -24.6770  -31.1100   22.1230 N   0  0  0  0  0  0  0  0  0  0  0  0
  -23.5350  -32.1900   23.7570 O   0  0  0  0  0  0  0  0  0  0  0  0
  -22.7500  -29.4980   22.5310 C   0  0  0  0  0  0  0  0  0  0  0  0
  -21.4230  -29.3270   22.3970 N   0  0  0  0  0  0  0  0  0  0  0  0
  -23.4240  -28.8650   23.3480 O   0  0  0  0  0  0  0  0  0  0  0  0
  -20.9390  -29.8870   21.7110 H   0  0  0  0  0  0  0  0  0  0  0  0
  -18.0340  -28.1770   22.8960 C   0  0  0  0  0  0  0  0  0  0  0  0
  -20.5970  -28.3960   23.1630 C   0  0  0  0  0  3  0  0  0  0  0  0
  -20.6770  -26.9690   22.5760 C   0  0  0  0  0  2  0  0  0  0  0  0
  -19.5680  -26.6690   21.5620 C   0  0  0  0  0  2  0  0  0  0  0  0
  -18.1900  -26.8310   22.2090 C   0  0  0  0  0  2  0  0  0  0  0  0
  -19.1650  -28.9180   23.3300 C   0  0  0  0  0  0  0  0  0  0  0  0
  -18.9650  -30.1820   23.9290 C   0  0  0  0  0  3  0  0  0  0  0  0
  -17.6680  -30.7010   24.1000 C   0  0  0  0  0  3  0  0  0  0  0  0
  -16.5530  -29.9550   23.6840 C   0  0  0  0  0  3  0  0  0  0  0  0
  -16.7370  -28.6940   23.0870 C   0  0  0  0  0  3  0  0  0  0  0  0
  -25.9030  -32.5330   23.8530 C   0  0  0  0  0  3  0  0  0  0  0  0
  -26.4210  -31.7470   25.1200 C   0  0  1  0  0  0  0  0  0  0  0  0
  -25.3260  -31.4980   26.1820 C   0  0  0  0  0  1  0  0  0  0  0  0
  -27.0050  -30.3750   24.7110 C   0  0  0  0  0  1  0  0  0  0  0  0
  -27.5710  -32.5350   25.7930 C   0  0  0  0  0  1  0  0  0  0  0  0
  -25.5980  -33.9280   24.1940 N   0  0  0  0  0  0  0  0  0  0  0  0
  -25.9280  -34.9860   23.4400 C   0  0  0  0  0  0  0  0  0  0  0  0
  -26.5930  -34.8900   22.4040 O   0  0  0  0  0  0  0  0  0  0  0  0
  -25.0070  -34.0790   24.9970 H   0  0  0  0  0  0  0  0  0  0  0  0
  -24.2000  -36.7820   23.1050 C   0  0  0  0  0  1  0  0  0  0  0  0
  -25.4410  -36.3710   23.9110 C   0  0  0  0  0  3  0  0  0  0  0  0
  -27.5750  -37.2480   24.7500 C   0  0  0  0  0  1  0  0  0  0  0  0
  -26.4740  -37.4230   23.8060 N   0  0  0  0  0  0  0  0  0  0  0  0
  -26.0690  -38.3430   23.9600 H   0  0  0  0  0  0  0  0  0  0  0  0
  1  3  2  0
  2 52  1  0
  2  1  1  0
  4  2  1  0
  5  7  1  0
  6  1  1  0
  6  5  1  0
  7 13  1  0
  8 10  1  0
  8  6  1  0
  8  9  1  0
  9 10  1  0
  9  7  1  0
 11 10  1  0
 12 10  1  0
 13 22  1  0
 14 22  1  0
 15 20  1  0
 16 17  1  0
 16 15  1  0
 18 17  1  0
 18 27  1  0
 18 19  1  0
 20 14  1  0
 20 19  1  0
 21 14  2  0
 22 23  1  0
 24 25  2  0
 25 44  1  0
 26 25  1  0
 26 29  1  0
 27 28  1  0
 27 24  1  0
 28 26  2  0
 29 30  1  0
 30 31  2  0
 32 35  1  0
 32 31  1  0
 33 32  2  0
 34 33  1  0
 34 29  2  0
 35 36  1  0
 36 37  1  0
 37 38  2  0
 39 38  1  0
 39 43  1  0
 40 39  2  0
 41 36  2  0
 41 40  1  0
 42 41  1  0
 44 45  1  0
 45 48  1  0
 45 47  1  0
 46 44  2  0
 49 24  1  0
 49 50  1  0
 51 49  1  0
 53 54  1  0
 53 52  1  0
 55 66  2  0
 56 54  1  0
 56 61  1  0
 57 65  1  0
 57 67  1  0
 58 64  1  0
 58 60  1  0
 59 65  1  0
 60 59  1  0
 61 60  2  0
 62 63  1  0
 62 56  2  0
 63 58  2  0
 64 57  1  0
 65 55  1  0
 67 69  2  0
 68 67  1  0
 70 68  1  0
 71 80  2  0
 71 76  1  0
 72 68  1  0
 72 76  1  0
 73 72  1  0
 74 75  1  0
 74 73  1  0
 75 71  1  0
 76 77  2  0
 77 78  1  0
 79 78  2  0
 80 79  1  0
 81 55  1  0
 81 86  1  0
 81 82  1  0
 82 85  1  1
 82 83  1  0
 84 82  1  0
 86 89  1  0
 87 91  1  0
 87 86  1  0
 88 87  2  0
 91 90  1  0
 93 91  1  0
 93 94  1  0
 93 92  1  0
M  ISO  4  14 100  22 100  53 101  54 101
M  END
>  <TORSDO>  (60) 
F 20

>  <SCORE>  (60) 
-14.065

>  <name>  (60) 
59

>  <ligand_id>  (60) 
59

>  <original_smiles>  (60) 
[H]c1c([H])c([H])c2c(c1[H])C([H])([H])C([H])([H])C([H])([H])C2([H])N([H])C(=O)C1([H])N(C(=O)C([H])(N([H])C(=O)C([H])(N([H])C([H])([H])[H])C([H])([H])[H])C(C([H])([H])[H])(C([H])([H])[H])C([H])([H])[H])C([H])([H])c2c([H])c(OC([H])([H])C([H])([H])N([H])C(=O)C3([H])C([H])([H])C([H])(C([H])([H])N([H])C(=O)N4C([H])([H])C([H])([H])C([H])([H])C([H])(n5nc(-c6c([H])c([H])c(Oc7c([H])c([H])c(F)c([H])c7F)c([H])c6[H])c(C(=O)N([H])[H])c5N([H])[H])C4([H])[H])C4([H])C3([H])[N+]4([H])[H])c([H])c([H])c2C1([H])[H]

>  <smiles>  (60) 
[H]c1c([H])c([H])c2c(c1[H])C([H])([H])C([H])([H])C([H])([H])C2([H])N([H])C(=O)C1([H])N(C(=O)C([H])(N([H])C(=O)C([H])(N([H])C([H])([H])[H])C([H])([H])[H])C(C([H])([H])[H])(C([H])([H])[H])C([H])([H])[H])C([H])([H])c2c([H])c(OC([H])([H])C([H])([H])N([H])C(=O)C3([H])C([H])([H])C([H])(C([H])([H])N([H])C(=O)N4C([H])([H])C([H])([H])C([H])([H])C([H])(n5nc(-c6c([H])c([H])c(Oc7c([H])c([H])c(F)c([H])c7F)c([H])c6[H])c(C(=O)N([H])[H])c5N([H])[H])C4([H])[H])C4([H])C3([H])[N+]4([H])[H])c([H])c([H])c2C1([H])[H]

$$$$
60:0:0
     RDKit          3D

 91100  0  0  1  0  0  0  0  0999 V2000
  -28.3460  -18.3860   19.1990 C   0  0  0  0  0  2  0  0  0  0  0  0
  -27.4320  -19.6360   19.2930 C   0  0  0  0  0  2  0  0  0  0  0  0
  -28.6060  -19.8120   21.6630 C   0  0  0  0  0  2  0  0  0  0  0  0
  -29.7960  -18.7370   19.6110 C   0  0  0  0  0  3  0  0  0  0  0  0
  -27.7690  -20.4860   20.5480 C   0  0  0  0  0  3  0  0  0  0  0  0
  -29.7630  -19.9640   20.6490 C   0  0  0  0  0  3  0  0  0  0  0  0
  -28.9970  -21.2710   20.4210 N   0  0  1  0  0  4  0  0  0  0  0  0
  -29.1060  -21.7410   21.3060 H   0  0  0  0  0  0  0  0  0  0  0  0
  -30.6620  -17.4530   20.1180 C   0  0  0  0  0  2  0  0  0  0  0  0
  -30.9850  -14.8610   19.8420 C   0  0  0  0  0  0  0  0  0  0  0  0
  -30.7420  -12.5440   18.9580 C   0  0  0  0  0  2  0  0  0  0  0  0
  -29.7420  -12.5570   17.7830 C   0  0  0  0  0  2  0  0  0  0  0  0
  -28.2930  -12.4120   18.2950 C   0  0  0  0  0  2  0  0  0  0  0  0
  -27.9790  -13.3560   19.4860 C   0  0  0  0  0  3  0  0  0  0  0  0
  -29.0950  -13.3240   20.5520 C   0  0  0  0  0  2  0  0  0  0  0  0
  -30.3560  -13.6420   19.8680 N   0  0  0  0  0  0  0  0  0  0  0  0
  -32.1720  -14.9440   19.5180 O   0  0  0  0  0  0  0  0  0  0  0  0
  -30.2110  -16.0000   19.9770 N   0  0  0  0  0  0  0  0  0  0  0  0
  -29.2310  -15.8280   20.1340 H   0  0  0  0  0  0  0  0  0  0  0  0
  -25.6720  -13.9930   20.4070 C   0  0  0  0  0  0  0  0  0  0  0  0
  -24.6050  -13.2390   20.8140 C   0  0  0  0  0  0  0  0  0  0  0  0
  -25.0160  -11.8770   20.6950 C   0  0  0  0  0  0  0  0  0  0  0  0
  -26.6640  -13.0910   20.0610 N   0  0  0  0  0  0  0  0  0  0  0  0
  -26.2810  -11.8090   20.2970 N   0  0  0  0  0  0  0  0  0  0  0  0
  -24.2570  -10.6310   20.8780 C   0  0  0  0  0  0  0  0  0  0  0  0
  -24.6880   -9.6260   21.7710 C   0  0  0  0  0  3  0  0  0  0  0  0
  -23.9310   -8.4470   21.9430 C   0  0  0  0  0  3  0  0  0  0  0  0
  -22.7290   -8.2640   21.2190 C   0  0  0  0  0  0  0  0  0  0  0  0
  -22.3170   -9.2560   20.3120 C   0  0  0  0  0  3  0  0  0  0  0  0
  -23.0740  -10.4270   20.1400 C   0  0  0  0  0  3  0  0  0  0  0  0
  -21.9420   -7.1400   21.3040 O   0  0  0  0  0  0  0  0  0  0  0  0
  -21.8690   -6.3980   22.4550 C   0  0  0  0  0  0  0  0  0  0  0  0
  -21.4390   -6.9590   23.6780 C   0  0  0  0  0  3  0  0  0  0  0  0
  -21.3160   -6.1460   24.8220 C   0  0  0  0  0  3  0  0  0  0  0  0
  -21.6090   -4.7700   24.7430 C   0  0  0  0  0  0  0  0  0  0  0  0
  -22.0300   -4.2090   23.5260 C   0  0  0  0  0  3  0  0  0  0  0  0
  -22.1580   -5.0200   22.3850 C   0  0  0  0  0  0  0  0  0  0  0  0
  -22.5460   -4.4700   21.2080 F   0  0  0  0  0  0  0  0  0  0  0  0
  -21.4820   -3.9860   25.8390 F   0  0  0  0  0  0  0  0  0  0  0  0
  -23.2470  -13.7510   21.1970 C   0  0  0  0  0  0  0  0  0  0  0  0
  -22.5560  -13.0510   22.0880 N   0  0  0  0  0  0  0  0  0  0  0  0
  -22.8120  -14.8080   20.7420 O   0  0  0  0  0  0  0  0  0  0  0  0
  -22.9230  -12.1960   22.4770 H   0  0  0  0  0  0  0  0  0  0  0  0
  -21.6470  -13.3770   22.3870 H   0  0  0  0  0  0  0  0  0  0  0  0
  -25.8720  -15.3640   20.2740 N   0  0  0  0  0  0  0  0  0  0  0  0
  -25.1250  -16.0290   20.4400 H   0  0  0  0  0  0  0  0  0  0  0  0
  -26.6880  -15.7790   19.8480 H   0  0  0  0  0  0  0  0  0  0  0  0
  -29.1710  -22.4260   19.4270 C   0  0  0  0  0  2  0  0  0  0  0  0
  -28.6910  -23.8840   19.9780 C   0  0  0  0  0  3  0  0  0  0  0  0
  -28.6690  -25.1890   19.0280 C   0  0  0  0  0  3  0  0  0  0  0  0
  -28.5560  -26.5830   19.5680 O   0  0  0  0  0  0  0  0  0  0  0  0
  -24.7260  -31.6760   22.9900 C   0  0  0  0  0  0  0  0  0  0  0  0
  -27.3810  -27.3610   19.5890 C   0  0  0  0  0  0  0  0  0  0  0  0
  -23.5100  -30.3090   21.3320 C   0  0  0  0  0  3  0  0  0  0  0  0
  -24.9520  -28.8870   19.7670 C   0  0  0  0  0  0  0  0  0  0  0  0
  -26.0250  -30.7360   21.0600 C   0  0  0  0  0  2  0  0  0  0  0  0
  -26.1270  -29.3940   20.3350 C   0  0  0  0  0  0  0  0  0  0  0  0
  -27.3370  -28.6440   20.2370 C   0  0  0  0  0  3  0  0  0  0  0  0
  -26.1760  -26.9080   19.0120 C   0  0  0  0  0  3  0  0  0  0  0  0
  -24.9790  -27.6520   19.0990 C   0  0  0  0  0  3  0  0  0  0  0  0
  -23.6880  -29.7130   19.9110 C   0  0  0  0  0  2  0  0  0  0  0  0
  -24.7740  -30.9240   21.8500 N   0  0  0  0  0  0  0  0  0  0  0  0
  -23.6570  -31.8800   23.5830 O   0  0  0  0  0  0  0  0  0  0  0  0
  -22.9340  -29.2210   22.2700 C   0  0  0  0  0  0  0  0  0  0  0  0
  -21.6070  -29.0150   22.2150 N   0  0  0  0  0  0  0  0  0  0  0  0
  -23.6750  -28.5690   23.0090 O   0  0  0  0  0  0  0  0  0  0  0  0
  -21.0610  -29.6180   21.6150 H   0  0  0  0  0  0  0  0  0  0  0  0
  -18.2970  -27.6720   22.8120 C   0  0  0  0  0  0  0  0  0  0  0  0
  -20.8590  -28.0070   22.9690 C   0  0  0  0  0  3  0  0  0  0  0  0
  -20.9790  -26.6130   22.3140 C   0  0  0  0  0  2  0  0  0  0  0  0
  -19.8360  -26.3120   21.3360 C   0  0  0  0  0  2  0  0  0  0  0  0
  -18.4830  -26.3710   22.0510 C   0  0  0  0  0  2  0  0  0  0  0  0
  -19.4130  -28.4480   23.2260 C   0  0  0  0  0  0  0  0  0  0  0  0
  -19.1850  -29.6690   23.8960 C   0  0  0  0  0  3  0  0  0  0  0  0
  -17.8760  -30.1180   24.1520 C   0  0  0  0  0  3  0  0  0  0  0  0
  -16.7760  -29.3370   23.7520 C   0  0  0  0  0  3  0  0  0  0  0  0
  -16.9870  -28.1150   23.0900 C   0  0  0  0  0  3  0  0  0  0  0  0
  -26.0080  -32.3320   23.5900 C   0  0  0  0  0  3  0  0  0  0  0  0
  -26.5980  -31.5340   24.8170 C   0  0  1  0  0  0  0  0  0  0  0  0
  -25.5600  -31.2280   25.9230 C   0  0  0  0  0  1  0  0  0  0  0  0
  -27.2020  -30.1860   24.3600 C   0  0  0  0  0  1  0  0  0  0  0  0
  -27.7520  -32.3390   25.4600 C   0  0  0  0  0  1  0  0  0  0  0  0
  -25.6610  -33.7040   23.9880 N   0  0  0  0  0  0  0  0  0  0  0  0
  -25.9310  -34.8000   23.2660 C   0  0  0  0  0  0  0  0  0  0  0  0
  -26.5690  -34.7620   22.2090 O   0  0  0  0  0  0  0  0  0  0  0  0
  -25.0830  -33.8010   24.8100 H   0  0  0  0  0  0  0  0  0  0  0  0
  -24.1290  -36.5450   23.0470 C   0  0  0  0  0  1  0  0  0  0  0  0
  -25.4120  -36.1510   23.7970 C   0  0  0  0  0  3  0  0  0  0  0  0
  -27.5400  -37.0790   24.5940 C   0  0  0  0  0  1  0  0  0  0  0  0
  -26.4040  -37.2440   23.6920 N   0  0  0  0  0  0  0  0  0  0  0  0
  -25.9710  -38.1430   23.8890 H   0  0  0  0  0  0  0  0  0  0  0  0
  1  2  1  0
  1  4  1  0
  4  9  1  0
  4  6  1  0
  5  2  1  0
  5  3  1  0
  6  3  1  0
  7  5  1  0
  7  6  1  0
  7  8  1  1
 10 16  1  0
 10 18  1  0
 11 16  1  0
 12 13  1  0
 12 11  1  0
 14 13  1  0
 14 23  1  0
 14 15  1  0
 16 15  1  0
 17 10  2  0
 18  9  1  0
 18 19  1  0
 20 21  2  0
 21 40  1  0
 22 21  1  0
 22 25  1  0
 23 24  1  0
 23 20  1  0
 24 22  2  0
 25 26  1  0
 26 27  2  0
 28 31  1  0
 28 27  1  0
 29 28  2  0
 30 29  1  0
 30 25  2  0
 31 32  1  0
 32 33  1  0
 33 34  2  0
 35 34  1  0
 35 39  1  0
 36 35  2  0
 37 32  2  0
 37 36  1  0
 38 37  1  0
 40 41  1  0
 41 44  1  0
 41 43  1  0
 42 40  2  0
 45 20  1  0
 45 46  1  0
 47 45  1  0
 48 49  1  0
 48  7  1  0
 50 51  1  0
 50 49  2  0
 51 53  1  0
 52 63  2  0
 53 58  1  0
 54 62  1  0
 54 64  1  0
 55 61  1  0
 55 57  1  0
 56 62  1  0
 57 56  1  0
 58 57  2  0
 59 60  1  0
 59 53  2  0
 60 55  2  0
 61 54  1  0
 62 52  1  0
 64 66  2  0
 65 64  1  0
 67 65  1  0
 68 77  2  0
 68 73  1  0
 69 65  1  0
 69 73  1  0
 70 69  1  0
 71 72  1  0
 71 70  1  0
 72 68  1  0
 73 74  2  0
 74 75  1  0
 76 75  2  0
 77 76  1  0
 78 52  1  0
 78 83  1  0
 78 79  1  0
 79 82  1  1
 79 80  1  0
 81 79  1  0
 83 86  1  0
 84 88  1  0
 84 83  1  0
 85 84  2  0
 88 87  1  0
 90 88  1  0
 90 91  1  0
 90 89  1  0
M  ISO  4  10 100  18 100  50 101  51 101
M  END
>  <TORSDO>  (61) 
F 20

>  <SCORE>  (61) 
-11.409

>  <name>  (61) 
60

>  <ligand_id>  (61) 
60

>  <original_smiles>  (61) 
[H]c1c([H])c([H])c2c(c1[H])C([H])([H])C([H])([H])C([H])([H])C2([H])N([H])C(=O)C1([H])N(C(=O)C([H])(N([H])C(=O)C([H])(N([H])C([H])([H])[H])C([H])([H])[H])C(C([H])([H])[H])(C([H])([H])[H])C([H])([H])[H])C([H])([H])c2c([H])c(OC([H])([H])C([H])([H])C([H])([H])[N+]3([H])C4([H])C([H])([H])C([H])([H])C([H])(C([H])([H])N([H])C(=O)N5C([H])([H])C([H])([H])C([H])([H])C([H])(n6nc(-c7c([H])c([H])c(Oc8c([H])c([H])c(F)c([H])c8F)c([H])c7[H])c(C(=O)N([H])[H])c6N([H])[H])C5([H])[H])C3([H])C4([H])[H])c([H])c([H])c2C1([H])[H]

>  <smiles>  (61) 
[H]c1c([H])c([H])c2c(c1[H])C([H])([H])C([H])([H])C([H])([H])C2([H])N([H])C(=O)C1([H])N(C(=O)C([H])(N([H])C(=O)C([H])(N([H])C([H])([H])[H])C([H])([H])[H])C(C([H])([H])[H])(C([H])([H])[H])C([H])([H])[H])C([H])([H])c2c([H])c(OC([H])([H])C([H])([H])C([H])([H])[N+]3([H])C4([H])C([H])([H])C([H])([H])C([H])(C([H])([H])N([H])C(=O)N5C([H])([H])C([H])([H])C([H])([H])C([H])(n6nc(-c7c([H])c([H])c(Oc8c([H])c([H])c(F)c([H])c8F)c([H])c7[H])c(C(=O)N([H])[H])c6N([H])[H])C5([H])[H])C3([H])C4([H])[H])c([H])c([H])c2C1([H])[H]

$$$$
61:0:0
     RDKit          3D

 96104  0  0  1  0  0  0  0  0999 V2000
  -30.2690  -19.4310   20.9190 C   0  0  0  0  0  3  0  0  0  0  0  0
  -29.4720  -17.8340   19.2590 C   0  0  0  0  0  3  0  0  0  0  0  0
  -29.3130  -20.2340   18.8310 C   0  0  0  0  0  3  0  0  0  0  0  0
  -30.0750  -18.0810   20.5110 C   0  0  0  0  0  0  0  0  0  0  0  0
  -29.8950  -20.5230   20.0870 C   0  0  0  0  0  0  0  0  0  0  0  0
  -29.0890  -18.9020   18.4180 C   0  0  0  0  0  0  0  0  0  0  0  0
  -28.4620  -18.6370   17.0540 C   0  0  1  0  0  0  0  0  0  0  0  0
  -28.1370  -17.3540   16.8920 F   0  0  0  0  0  0  0  0  0  0  0  0
  -27.3570  -19.3700   16.9150 F   0  0  0  0  0  0  0  0  0  0  0  0
  -29.3220  -18.9790   16.0950 F   0  0  0  0  0  0  0  0  0  0  0  0
  -30.5610  -16.9230   21.4050 C   0  0  0  0  0  2  0  0  0  0  0  0
  -30.7040  -14.5780   20.4670 C   0  0  0  0  0  0  0  0  0  0  0  0
  -30.3790  -12.4500   19.2530 C   0  0  0  0  0  2  0  0  0  0  0  0
  -29.4380  -12.6760   18.0510 C   0  0  0  0  0  2  0  0  0  0  0  0
  -27.9640  -12.5390   18.4790 C   0  0  0  0  0  2  0  0  0  0  0  0
  -27.6320  -13.3600   19.7530 C   0  0  0  0  0  3  0  0  0  0  0  0
  -28.6820  -13.1150   20.8590 C   0  0  0  0  0  2  0  0  0  0  0  0
  -30.0100  -13.4190   20.2990 N   0  0  0  0  0  0  0  0  0  0  0  0
  -31.8230  -14.7600   19.9810 O   0  0  0  0  0  0  0  0  0  0  0  0
  -30.0490  -15.5720   21.1000 N   0  0  0  0  0  0  0  0  0  0  0  0
  -29.1300  -15.3490   21.4510 H   0  0  0  0  0  0  0  0  0  0  0  0
  -25.2300  -13.9790   20.4400 C   0  0  0  0  0  0  0  0  0  0  0  0
  -24.1570  -13.2110   20.8060 C   0  0  0  0  0  0  0  0  0  0  0  0
  -24.6140  -11.8580   20.7880 C   0  0  0  0  0  0  0  0  0  0  0  0
  -26.2750  -13.0920   20.2240 N   0  0  0  0  0  0  0  0  0  0  0  0
  -25.9070  -11.8120   20.4910 N   0  0  0  0  0  0  0  0  0  0  0  0
  -23.8830  -10.5990   20.9820 C   0  0  0  0  0  0  0  0  0  0  0  0
  -24.2970   -9.6440   21.9370 C   0  0  0  0  0  3  0  0  0  0  0  0
  -23.5660   -8.4500   22.1170 C   0  0  0  0  0  3  0  0  0  0  0  0
  -22.4080   -8.2020   21.3420 C   0  0  0  0  0  0  0  0  0  0  0  0
  -22.0140   -9.1460   20.3790 C   0  0  0  0  0  3  0  0  0  0  0  0
  -22.7450  -10.3320   20.1960 C   0  0  0  0  0  3  0  0  0  0  0  0
  -21.6520   -7.0590   21.4310 O   0  0  0  0  0  0  0  0  0  0  0  0
  -21.5700   -6.3370   22.5950 C   0  0  0  0  0  0  0  0  0  0  0  0
  -21.1220   -6.9170   23.8020 C   0  0  0  0  0  3  0  0  0  0  0  0
  -20.9880   -6.1220   24.9570 C   0  0  0  0  0  3  0  0  0  0  0  0
  -21.2920   -4.7490   24.9080 C   0  0  0  0  0  0  0  0  0  0  0  0
  -21.7340   -4.1680   23.7060 C   0  0  0  0  0  3  0  0  0  0  0  0
  -21.8700   -4.9600   22.5520 C   0  0  0  0  0  0  0  0  0  0  0  0
  -22.2750   -4.3920   21.3910 F   0  0  0  0  0  0  0  0  0  0  0  0
  -21.1570   -3.9830   26.0160 F   0  0  0  0  0  0  0  0  0  0  0  0
  -22.7590  -13.6950   21.0640 C   0  0  0  0  0  0  0  0  0  0  0  0
  -22.0220  -13.0060   21.9280 N   0  0  0  0  0  0  0  0  0  0  0  0
  -22.3290  -14.7180   20.5350 O   0  0  0  0  0  0  0  0  0  0  0  0
  -22.3840  -12.1780   22.3790 H   0  0  0  0  0  0  0  0  0  0  0  0
  -21.0840  -13.3100   22.1440 H   0  0  0  0  0  0  0  0  0  0  0  0
  -25.4020  -15.3460   20.2530 N   0  0  0  0  0  0  0  0  0  0  0  0
  -24.6350  -16.0030   20.3470 H   0  0  0  0  0  0  0  0  0  0  0  0
  -26.2550  -15.7790   19.9220 H   0  0  0  0  0  0  0  0  0  0  0  0
  -30.1930  -21.9840   20.4940 C   0  0  0  0  0  2  0  0  0  0  0  0
  -29.0720  -22.9380   20.2620 N   0  0  0  0  0  4  0  0  0  0  0  0
  -28.3090  -22.6570   20.8590 H   0  0  0  0  0  0  0  0  0  0  0  0
  -28.7700  -22.8200   19.3100 H   0  0  0  0  0  0  0  0  0  0  0  0
  -29.3750  -24.3920   20.4840 C   0  0  0  0  0  2  0  0  0  0  0  0
  -28.1840  -25.3130   20.0930 C   0  0  0  0  0  2  0  0  0  0  0  0
  -28.3530  -26.7310   20.3460 O   0  0  0  0  0  0  0  0  0  0  0  0
  -24.5920  -32.0340   23.3360 C   0  0  0  0  0  0  0  0  0  0  0  0
  -27.2030  -27.5120   20.2980 C   0  0  0  0  0  0  0  0  0  0  0  0
  -23.3840  -30.6370   21.6950 C   0  0  0  0  0  3  0  0  0  0  0  0
  -24.8300  -29.0790   20.2870 C   0  0  0  0  0  0  0  0  0  0  0  0
  -25.9210  -30.9560   21.5200 C   0  0  0  0  0  2  0  0  0  0  0  0
  -25.9950  -29.5810   20.8820 C   0  0  0  0  0  0  0  0  0  0  0  0
  -27.1840  -28.8060   20.8820 C   0  0  0  0  0  3  0  0  0  0  0  0
  -26.0110  -27.0450   19.6870 C   0  0  0  0  0  3  0  0  0  0  0  0
  -24.8360  -27.8140   19.6860 C   0  0  0  0  0  3  0  0  0  0  0  0
  -23.5970  -29.9550   20.3200 C   0  0  0  0  0  2  0  0  0  0  0  0
  -24.6510  -31.2230   22.2410 N   0  0  0  0  0  0  0  0  0  0  0  0
  -23.5080  -32.3210   23.8640 O   0  0  0  0  0  0  0  0  0  0  0  0
  -22.7140  -29.6250   22.6540 C   0  0  0  0  0  0  0  0  0  0  0  0
  -21.3920  -29.4440   22.5070 N   0  0  0  0  0  0  0  0  0  0  0  0
  -23.3830  -29.0060   23.4870 O   0  0  0  0  0  0  0  0  0  0  0  0
  -20.9140  -29.9940   21.8060 H   0  0  0  0  0  0  0  0  0  0  0  0
  -18.0090  -28.2510   22.9520 C   0  0  0  0  0  0  0  0  0  0  0  0
  -20.5590  -28.5160   23.2740 C   0  0  0  0  0  3  0  0  0  0  0  0
  -20.6760  -27.0770   22.7220 C   0  0  0  0  0  2  0  0  0  0  0  0
  -19.5960  -26.7360   21.6900 C   0  0  0  0  0  2  0  0  0  0  0  0
  -18.2010  -26.8900   22.3020 C   0  0  0  0  0  2  0  0  0  0  0  0
  -19.1170  -29.0200   23.3940 C   0  0  0  0  0  0  0  0  0  0  0  0
  -18.8850  -30.2920   23.9590 C   0  0  0  0  0  3  0  0  0  0  0  0
  -17.5760  -30.7950   24.0880 C   0  0  0  0  0  3  0  0  0  0  0  0
  -16.4820  -30.0220   23.6640 C   0  0  0  0  0  3  0  0  0  0  0  0
  -16.6990  -28.7520   23.1010 C   0  0  0  0  0  3  0  0  0  0  0  0
  -25.8780  -32.6550   23.9620 C   0  0  0  0  0  3  0  0  0  0  0  0
  -25.5840  -34.0600   24.2740 N   0  0  0  0  0  0  0  0  0  0  0  0
  -25.9170  -35.0980   23.4960 C   0  0  0  0  0  0  0  0  0  0  0  0
  -26.5780  -34.9750   22.4620 O   0  0  0  0  0  0  0  0  0  0  0  0
  -24.9980  -34.2310   25.0780 H   0  0  0  0  0  0  0  0  0  0  0  0
  -24.1870  -36.8880   23.1450 C   0  0  0  0  0  1  0  0  0  0  0  0
  -25.4440  -36.4970   23.9380 C   0  0  0  0  0  3  0  0  0  0  0  0
  -27.5970  -37.3910   24.7080 C   0  0  0  0  0  1  0  0  0  0  0  0
  -26.4770  -37.5440   23.7820 N   0  0  0  0  0  0  0  0  0  0  0  0
  -26.0770  -38.4680   23.9190 H   0  0  0  0  0  0  0  0  0  0  0  0
  -26.3760  -31.8900   25.2490 C   0  0  1  0  0  0  0  0  0  0  0  0
  -25.2700  -31.6680   26.3070 C   0  0  0  0  0  1  0  0  0  0  0  0
  -26.9540  -30.5060   24.8710 C   0  0  0  0  0  1  0  0  0  0  0  0
  -27.5260  -32.6820   25.9170 C   0  0  0  0  0  1  0  0  0  0  0  0
  2  4  2  0
  3  5  1  0
  4  1  1  0
  4 11  1  0
  5 50  1  0
  5  1  2  0
  6  3  2  0
  6  2  1  0
  7  6  1  0
  7  8  1  1
  9  7  1  0
 10  7  1  0
 12 20  1  0
 13 18  1  0
 14 15  1  0
 14 13  1  0
 16 15  1  0
 16 25  1  0
 16 17  1  0
 18 12  1  0
 18 17  1  0
 19 12  2  0
 20 11  1  0
 20 21  1  0
 22 23  2  0
 23 42  1  0
 24 23  1  0
 24 27  1  0
 25 22  1  0
 25 26  1  0
 26 24  2  0
 27 28  1  0
 28 29  2  0
 30 33  1  0
 30 29  1  0
 31 30  2  0
 32 31  1  0
 32 27  2  0
 33 34  1  0
 34 35  1  0
 35 36  2  0
 37 36  1  0
 37 41  1  0
 38 37  2  0
 39 34  2  0
 39 38  1  0
 40 39  1  0
 42 43  1  0
 43 46  1  0
 43 45  1  0
 44 42  2  0
 47 48  1  0
 47 22  1  0
 49 47  1  0
 51 54  1  0
 51 50  1  0
 51 52  1  0
 53 51  1  0
 55 56  1  0
 55 54  1  0
 57 68  2  0
 58 56  1  0
 58 63  1  0
 59 67  1  0
 59 69  1  0
 60 66  1  0
 60 62  1  0
 61 67  1  0
 62 61  1  0
 63 62  2  0
 64 58  2  0
 65 64  1  0
 65 60  2  0
 66 59  1  0
 67 57  1  0
 69 71  2  0
 70 69  1  0
 72 70  1  0
 73 82  2  0
 73 78  1  0
 74 70  1  0
 74 78  1  0
 75 74  1  0
 76 77  1  0
 76 75  1  0
 77 73  1  0
 78 79  2  0
 79 80  1  0
 81 80  2  0
 82 81  1  0
 83 57  1  0
 83 84  1  0
 83 93  1  0
 84 87  1  0
 85 89  1  0
 85 84  1  0
 86 85  2  0
 89 88  1  0
 91 92  1  0
 91 89  1  0
 91 90  1  0
 93 96  1  1
 93 94  1  0
 95 93  1  0
M  ISO  4  12 100  20 100  55 101  56 101
M  END
>  <TORSDO>  (62) 
F 22

>  <SCORE>  (62) 
-12.934

>  <name>  (62) 
61

>  <ligand_id>  (62) 
61

>  <original_smiles>  (62) 
[H]c1c([H])c([H])c2c(c1[H])C([H])([H])C([H])([H])C([H])([H])C2([H])N([H])C(=O)C1([H])N(C(=O)C([H])(N([H])C(=O)C([H])(N([H])C([H])([H])[H])C([H])([H])[H])C(C([H])([H])[H])(C([H])([H])[H])C([H])([H])[H])C([H])([H])c2c([H])c(OC([H])([H])C([H])([H])[N+]([H])([H])C([H])([H])c3c([H])c(C(F)(F)F)c([H])c(C([H])([H])N([H])C(=O)N4C([H])([H])C([H])([H])C([H])([H])C([H])(n5nc(-c6c([H])c([H])c(Oc7c([H])c([H])c(F)c([H])c7F)c([H])c6[H])c(C(=O)N([H])[H])c5N([H])[H])C4([H])[H])c3[H])c([H])c([H])c2C1([H])[H]

>  <smiles>  (62) 
[H]c1c([H])c([H])c2c(c1[H])C([H])([H])C([H])([H])C([H])([H])C2([H])N([H])C(=O)C1([H])N(C(=O)C([H])(N([H])C(=O)C([H])(N([H])C([H])([H])[H])C([H])([H])[H])C(C([H])([H])[H])(C([H])([H])[H])C([H])([H])[H])C([H])([H])c2c([H])c(OC([H])([H])C([H])([H])[N+]([H])([H])C([H])([H])c3c([H])c(C(F)(F)F)c([H])c(C([H])([H])N([H])C(=O)N4C([H])([H])C([H])([H])C([H])([H])C([H])(n5nc(-c6c([H])c([H])c(Oc7c([H])c([H])c(F)c([H])c7F)c([H])c6[H])c(C(=O)N([H])[H])c5N([H])[H])C4([H])[H])c3[H])c([H])c([H])c2C1([H])[H]

$$$$
62:0:0
     RDKit          3D

 93102  0  0  1  0  0  0  0  0999 V2000
  -27.0900  -19.4410   18.7270 C   0  0  0  0  0  2  0  0  0  0  0  0
  -27.3090  -19.4860   20.7260 C   0  0  0  0  0  2  0  0  0  0  0  0
  -28.0220  -18.6090   19.6460 C   0  0  0  0  0  3  0  0  0  0  0  0
  -27.6250  -20.5640   19.6600 C   0  0  0  0  0  3  0  0  0  0  0  0
  -29.4960  -19.0380   19.3300 C   0  0  0  0  0  3  0  0  0  0  0  0
  -29.1210  -20.6910   19.6150 C   0  0  0  0  0  3  0  0  0  0  0  0
  -29.7820  -22.1220   19.9150 N   0  0  0  0  0  4  0  0  0  0  0  0
  -30.7720  -22.0850   19.6450 H   0  0  0  0  0  0  0  0  0  0  0  0
  -29.7980  -22.2010   20.9410 H   0  0  0  0  0  0  0  0  0  0  0  0
  -29.2110  -23.5110   19.3520 C   0  0  0  0  0  2  0  0  0  0  0  0
  -28.5120  -24.7820   20.2530 C   0  0  0  0  0  2  0  0  0  0  0  0
  -28.5520  -26.2840   19.8150 O   0  0  0  0  0  0  0  0  0  0  0  0
  -24.5990  -31.6460   23.0270 C   0  0  0  0  0  0  0  0  0  0  0  0
  -27.4250  -27.1850   19.8450 C   0  0  0  0  0  0  0  0  0  0  0  0
  -23.4720  -30.2900   21.2970 C   0  0  0  0  0  3  0  0  0  0  0  0
  -25.0010  -28.8150   19.8420 C   0  0  0  0  0  0  0  0  0  0  0  0
  -26.0240  -30.6480   21.1960 C   0  0  0  0  0  2  0  0  0  0  0  0
  -26.1500  -29.2900   20.4900 C   0  0  0  0  0  0  0  0  0  0  0  0
  -27.3650  -28.5070   20.4470 C   0  0  0  0  0  3  0  0  0  0  0  0
  -26.2580  -26.8160   19.1350 C   0  0  0  0  0  3  0  0  0  0  0  0
  -25.0810  -27.5940   19.1440 C   0  0  0  0  0  3  0  0  0  0  0  0
  -23.7380  -29.6650   19.9000 C   0  0  0  0  0  2  0  0  0  0  0  0
  -24.7150  -30.8800   21.8970 N   0  0  0  0  0  0  0  0  0  0  0  0
  -23.4980  -31.8730   23.5490 O   0  0  0  0  0  0  0  0  0  0  0  0
  -22.8090  -29.2230   22.2020 C   0  0  0  0  0  0  0  0  0  0  0  0
  -21.4750  -29.0910   22.1170 N   0  0  0  0  0  0  0  0  0  0  0  0
  -23.4950  -28.5190   22.9490 O   0  0  0  0  0  0  0  0  0  0  0  0
  -20.9780  -29.7130   21.5010 H   0  0  0  0  0  0  0  0  0  0  0  0
  -18.0890  -27.9460   22.7180 C   0  0  0  0  0  0  0  0  0  0  0  0
  -20.6670  -28.1140   22.8370 C   0  0  0  0  0  3  0  0  0  0  0  0
  -20.6820  -26.7360   22.1380 C   0  0  0  0  0  2  0  0  0  0  0  0
  -19.5070  -26.5480   21.1660 C   0  0  0  0  0  2  0  0  0  0  0  0
  -18.1750  -26.6640   21.9080 C   0  0  0  0  0  2  0  0  0  0  0  0
  -19.2590  -28.6340   23.1430 C   0  0  0  0  0  0  0  0  0  0  0  0
  -19.1160  -29.8340   23.8720 C   0  0  0  0  0  3  0  0  0  0  0  0
  -17.8410  -30.3480   24.1730 C   0  0  0  0  0  3  0  0  0  0  0  0
  -16.6890  -29.6610   23.7520 C   0  0  0  0  0  3  0  0  0  0  0  0
  -16.8150  -28.4610   23.0330 C   0  0  0  0  0  3  0  0  0  0  0  0
  -25.8490  -32.2930   23.7010 C   0  0  0  0  0  3  0  0  0  0  0  0
  -25.4880  -33.6640   24.0980 N   0  0  0  0  0  0  0  0  0  0  0  0
  -25.7900  -34.7700   23.4050 C   0  0  0  0  0  0  0  0  0  0  0  0
  -26.4820  -34.7490   22.3810 O   0  0  0  0  0  0  0  0  0  0  0  0
  -24.8690  -33.7470   24.8880 H   0  0  0  0  0  0  0  0  0  0  0  0
  -24.0100  -36.5330   23.1450 C   0  0  0  0  0  1  0  0  0  0  0  0
  -25.2580  -36.1160   23.9410 C   0  0  0  0  0  3  0  0  0  0  0  0
  -27.3410  -37.0250   24.8650 C   0  0  0  0  0  1  0  0  0  0  0  0
  -26.2590  -37.2050   23.9030 N   0  0  0  0  0  0  0  0  0  0  0  0
  -25.8160  -38.0970   24.1060 H   0  0  0  0  0  0  0  0  0  0  0  0
  -26.3730  -31.4760   24.9450 C   0  0  1  0  0  0  0  0  0  0  0  0
  -25.2790  -31.1670   25.9910 C   0  0  0  0  0  1  0  0  0  0  0  0
  -26.9970  -30.1310   24.5060 C   0  0  0  0  0  1  0  0  0  0  0  0
  -27.4990  -32.2670   25.6560 C   0  0  0  0  0  1  0  0  0  0  0  0
  -30.6660  -17.8690   19.7850 C   0  0  0  0  0  3  0  0  0  0  0  0
  -31.0480  -15.0950   19.7530 C   0  0  0  0  0  0  0  0  0  0  0  0
  -30.8620  -12.6590   19.0550 C   0  0  0  0  0  2  0  0  0  0  0  0
  -29.9300  -12.5300   17.8220 C   0  0  0  0  0  2  0  0  0  0  0  0
  -28.4580  -12.3920   18.2550 C   0  0  0  0  0  2  0  0  0  0  0  0
  -28.0880  -13.3700   19.4100 C   0  0  0  0  0  3  0  0  0  0  0  0
  -29.1690  -13.4830   20.5210 C   0  0  0  0  0  2  0  0  0  0  0  0
  -30.4240  -13.8440   19.8410 N   0  0  0  0  0  0  0  0  0  0  0  0
  -32.2450  -15.1100   19.4740 O   0  0  0  0  0  0  0  0  0  0  0  0
  -30.3110  -16.3130   19.8280 N   0  0  0  0  0  0  0  0  0  0  0  0
  -29.3290  -16.1400   19.9410 H   0  0  0  0  0  0  0  0  0  0  0  0
  -25.7830  -14.0210   20.2850 C   0  0  0  0  0  0  0  0  0  0  0  0
  -24.6910  -13.2880   20.6810 C   0  0  0  0  0  0  0  0  0  0  0  0
  -25.0870  -11.9210   20.6020 C   0  0  0  0  0  0  0  0  0  0  0  0
  -26.7670  -13.1020   19.9770 N   0  0  0  0  0  0  0  0  0  0  0  0
  -26.3650  -11.8270   20.2430 N   0  0  0  0  0  0  0  0  0  0  0  0
  -24.3100  -10.6920   20.8300 C   0  0  0  0  0  0  0  0  0  0  0  0
  -24.7030   -9.7360   21.7940 C   0  0  0  0  0  3  0  0  0  0  0  0
  -23.9300   -8.5710   21.9870 C   0  0  0  0  0  3  0  0  0  0  0  0
  -22.7570   -8.3550   21.2240 C   0  0  0  0  0  0  0  0  0  0  0  0
  -22.3900   -9.3050   20.2570 C   0  0  0  0  0  3  0  0  0  0  0  0
  -23.1580  -10.4620   20.0570 C   0  0  0  0  0  3  0  0  0  0  0  0
  -21.9570   -7.2420   21.3210 O   0  0  0  0  0  0  0  0  0  0  0  0
  -21.8070   -6.5680   22.5060 C   0  0  0  0  0  0  0  0  0  0  0  0
  -21.2790   -7.1970   23.6550 C   0  0  0  0  0  3  0  0  0  0  0  0
  -21.0730   -6.4500   24.8300 C   0  0  0  0  0  3  0  0  0  0  0  0
  -21.3850   -5.0780   24.8610 C   0  0  0  0  0  0  0  0  0  0  0  0
  -21.9140   -4.4520   23.7160 C   0  0  0  0  0  3  0  0  0  0  0  0
  -22.1200   -5.1940   22.5410 C   0  0  0  0  0  0  0  0  0  0  0  0
  -22.6020   -4.5800   21.4330 F   0  0  0  0  0  0  0  0  0  0  0  0
  -21.1890   -4.3550   25.9910 F   0  0  0  0  0  0  0  0  0  0  0  0
  -23.3390  -13.8410   21.0190 C   0  0  0  0  0  0  0  0  0  0  0  0
  -22.6190  -13.1680   21.9080 N   0  0  0  0  0  0  0  0  0  0  0  0
  -22.9300  -14.8860   20.5230 O   0  0  0  0  0  0  0  0  0  0  0  0
  -22.9740  -12.3190   22.3200 H   0  0  0  0  0  0  0  0  0  0  0  0
  -21.7120  -13.5120   22.1730 H   0  0  0  0  0  0  0  0  0  0  0  0
  -25.9840  -15.3790   20.1140 N   0  0  0  0  0  0  0  0  0  0  0  0
  -25.2180  -16.0270   20.2430 H   0  0  0  0  0  0  0  0  0  0  0  0
  -26.7870  -15.8090   19.6780 H   0  0  0  0  0  0  0  0  0  0  0  0
  -31.9990  -19.4500   21.8420 C   0  0  0  0  0  1  0  0  0  0  0  0
  -31.2600  -18.2350   21.1950 C   0  0  0  0  0  2  0  0  0  0  0  0
  3  1  1  0
  3  2  1  0
  4  1  1  0
  4  2  1  0
  5  6  1  0
  5  3  1  0
  5 53  1  0
  6  4  1  0
  6  7  1  0
  7  9  1  0
  8  7  1  0
 10  7  1  0
 10 11  1  0
 12 14  1  0
 12 11  1  0
 13 24  2  0
 14 19  1  0
 15 23  1  0
 15 25  1  0
 16 22  1  0
 16 18  1  0
 17 23  1  0
 18 17  1  0
 19 18  2  0
 20 21  1  0
 20 14  2  0
 21 16  2  0
 22 15  1  0
 23 13  1  0
 25 27  2  0
 26 25  1  0
 28 26  1  0
 29 38  2  0
 29 34  1  0
 30 26  1  0
 30 34  1  0
 31 30  1  0
 32 33  1  0
 32 31  1  0
 33 29  1  0
 34 35  2  0
 35 36  1  0
 37 36  2  0
 38 37  1  0
 39 13  1  0
 39 40  1  0
 39 49  1  0
 40 43  1  0
 41 45  1  0
 41 40  1  0
 42 41  2  0
 45 44  1  0
 47 45  1  0
 47 48  1  0
 47 46  1  0
 49 52  1  1
 49 50  1  0
 51 49  1  0
 53 62  1  0
 53 93  1  0
 54 62  1  0
 54 60  1  0
 55 60  1  0
 56 57  1  0
 56 55  1  0
 58 57  1  0
 58 67  1  0
 58 59  1  0
 60 59  1  0
 61 54  2  0
 62 63  1  0
 64 65  2  0
 65 84  1  0
 66 65  1  0
 66 69  1  0
 67 68  1  0
 67 64  1  0
 68 66  2  0
 69 70  1  0
 70 71  2  0
 72 75  1  0
 72 71  1  0
 73 72  2  0
 74 73  1  0
 74 69  2  0
 75 76  1  0
 76 81  2  0
 76 77  1  0
 77 78  2  0
 78 79  1  0
 79 83  1  0
 80 79  2  0
 81 80  1  0
 82 81  1  0
 84 85  1  0
 85 88  1  0
 85 87  1  0
 86 84  2  0
 89 90  1  0
 89 64  1  0
 91 89  1  0
 93 92  1  0
M  ISO  4  11 101  12 101  54 100  62 100
M  END
>  <TORSDO>  (63) 
F 21

>  <SCORE>  (63) 
-13.175

>  <name>  (63) 
62

>  <ligand_id>  (63) 
62

>  <original_smiles>  (63) 
[H]c1c([H])c([H])c2c(c1[H])C([H])([H])C([H])([H])C([H])([H])C2([H])N([H])C(=O)C1([H])N(C(=O)C([H])(N([H])C(=O)C([H])(N([H])C([H])([H])[H])C([H])([H])[H])C(C([H])([H])[H])(C([H])([H])[H])C([H])([H])[H])C([H])([H])c2c([H])c(OC([H])([H])C([H])([H])[N+]([H])([H])C3([H])C4([H])C([H])([H])C([H])(C4([H])[H])C3([H])C([H])(N([H])C(=O)N3C([H])([H])C([H])([H])C([H])([H])C([H])(n4nc(-c5c([H])c([H])c(Oc6c([H])c([H])c(F)c([H])c6F)c([H])c5[H])c(C(=O)N([H])[H])c4N([H])[H])C3([H])[H])C([H])([H])C([H])([H])[H])c([H])c([H])c2C1([H])[H]

>  <smiles>  (63) 
[H]c1c([H])c([H])c2c(c1[H])C([H])([H])C([H])([H])C([H])([H])C2([H])N([H])C(=O)C1([H])N(C(=O)C([H])(N([H])C(=O)C([H])(N([H])C([H])([H])[H])C([H])([H])[H])C(C([H])([H])[H])(C([H])([H])[H])C([H])([H])[H])C([H])([H])c2c([H])c(OC([H])([H])C([H])([H])[N+]([H])([H])C3([H])C4([H])C([H])([H])C([H])(C4([H])[H])C3([H])C([H])(N([H])C(=O)N3C([H])([H])C([H])([H])C([H])([H])C([H])(n4nc(-c5c([H])c([H])c(Oc6c([H])c([H])c(F)c([H])c6F)c([H])c5[H])c(C(=O)N([H])[H])c4N([H])[H])C3([H])[H])C([H])([H])C([H])([H])[H])c([H])c([H])c2C1([H])[H]

$$$$
63:0:0
     RDKit          3D

 91 99  0  0  1  0  0  0  0  0999 V2000
  -28.8110  -22.4220   19.0810 C   0  0  0  0  0  3  0  0  0  0  0  0
  -29.2150  -22.9640   21.3370 C   0  0  0  0  0  3  0  0  0  0  0  0
  -28.7990  -23.4600   20.0690 C   0  0  0  0  0  0  0  0  0  0  0  0
  -29.1130  -21.0250   19.3320 C   0  0  0  0  0  0  0  0  0  0  0  0
  -29.5330  -21.5730   21.6140 C   0  0  0  0  0  0  0  0  0  0  0  0
  -29.4660  -20.5120   20.6240 C   0  0  0  0  0  0  0  0  0  0  0  0
  -28.9620  -20.0520   18.1770 C   0  0  0  0  0  1  0  0  0  0  0  0
  -31.3860  -21.1630   23.3060 C   0  0  0  0  0  1  0  0  0  0  0  0
  -29.8760  -21.2720   23.0690 C   0  0  0  0  0  2  0  0  0  0  0  0
  -29.4930  -18.9030   20.9820 C   0  0  0  0  0  3  0  0  0  0  0  0
  -30.4890  -17.7110   20.4100 C   0  0  0  0  0  3  0  0  0  0  0  0
  -30.8890  -15.0320   20.3640 C   0  0  0  0  0  0  0  0  0  0  0  0
  -30.7090  -12.7320   19.3500 C   0  0  0  0  0  2  0  0  0  0  0  0
  -29.7890  -12.7760   18.1070 C   0  0  0  0  0  2  0  0  0  0  0  0
  -28.3110  -12.6060   18.5130 C   0  0  0  0  0  2  0  0  0  0  0  0
  -27.9180  -13.4940   19.7240 C   0  0  0  0  0  3  0  0  0  0  0  0
  -28.9620  -13.4230   20.8600 C   0  0  0  0  0  2  0  0  0  0  0  0
  -30.2590  -13.7980   20.2850 N   0  0  0  0  0  0  0  0  0  0  0  0
  -32.0760  -15.1090   20.0370 O   0  0  0  0  0  0  0  0  0  0  0  0
  -30.1390  -16.1970   20.6040 N   0  0  0  0  0  0  0  0  0  0  0  0
  -29.1770  -16.0140   20.8430 H   0  0  0  0  0  0  0  0  0  0  0  0
  -25.5240  -14.0870   20.4170 C   0  0  0  0  0  0  0  0  0  0  0  0
  -24.4520  -13.3180   20.7790 C   0  0  0  0  0  0  0  0  0  0  0  0
  -24.9140  -11.9660   20.7670 C   0  0  0  0  0  0  0  0  0  0  0  0
  -26.5690  -13.2050   20.2000 N   0  0  0  0  0  0  0  0  0  0  0  0
  -26.2090  -11.9250   20.4740 N   0  0  0  0  0  0  0  0  0  0  0  0
  -24.1810  -10.7070   20.9590 C   0  0  0  0  0  0  0  0  0  0  0  0
  -24.5830   -9.7570   21.9220 C   0  0  0  0  0  3  0  0  0  0  0  0
  -23.8490   -8.5640   22.1030 C   0  0  0  0  0  3  0  0  0  0  0  0
  -22.6960   -8.3150   21.3200 C   0  0  0  0  0  0  0  0  0  0  0  0
  -22.3140   -9.2540   20.3470 C   0  0  0  0  0  3  0  0  0  0  0  0
  -23.0490  -10.4380   20.1640 C   0  0  0  0  0  3  0  0  0  0  0  0
  -21.9380   -7.1720   21.4030 O   0  0  0  0  0  0  0  0  0  0  0  0
  -21.8260   -6.4680   22.5750 C   0  0  0  0  0  0  0  0  0  0  0  0
  -21.3410   -7.0660   23.7580 C   0  0  0  0  0  3  0  0  0  0  0  0
  -21.1760   -6.2890   24.9220 C   0  0  0  0  0  3  0  0  0  0  0  0
  -21.4840   -4.9170   24.9040 C   0  0  0  0  0  0  0  0  0  0  0  0
  -21.9630   -4.3190   23.7240 C   0  0  0  0  0  3  0  0  0  0  0  0
  -22.1290   -5.0920   22.5620 C   0  0  0  0  0  0  0  0  0  0  0  0
  -22.5700   -4.5070   21.4230 F   0  0  0  0  0  0  0  0  0  0  0  0
  -21.3190   -4.1680   26.0200 F   0  0  0  0  0  0  0  0  0  0  0  0
  -23.0520  -13.8020   21.0240 C   0  0  0  0  0  0  0  0  0  0  0  0
  -22.3130  -13.1270   21.8980 N   0  0  0  0  0  0  0  0  0  0  0  0
  -22.6210  -14.8150   20.4750 O   0  0  0  0  0  0  0  0  0  0  0  0
  -22.6760  -12.3120   22.3700 H   0  0  0  0  0  0  0  0  0  0  0  0
  -21.3720  -13.4330   22.1030 H   0  0  0  0  0  0  0  0  0  0  0  0
  -25.6930  -15.4560   20.2300 N   0  0  0  0  0  0  0  0  0  0  0  0
  -24.9230  -16.1110   20.3260 H   0  0  0  0  0  0  0  0  0  0  0  0
  -26.5350  -15.8860   19.8730 H   0  0  0  0  0  0  0  0  0  0  0  0
  -28.0060  -24.8620   19.8050 C   0  0  0  0  0  2  0  0  0  0  0  0
  -28.3630  -26.3170   20.1410 O   0  0  0  0  0  0  0  0  0  0  0  0
  -24.6980  -31.9070   23.1880 C   0  0  0  0  0  0  0  0  0  0  0  0
  -27.3120  -27.2970   20.0660 C   0  0  0  0  0  0  0  0  0  0  0  0
  -23.5030  -30.5160   21.5430 C   0  0  0  0  0  3  0  0  0  0  0  0
  -24.9590  -28.9950   20.0800 C   0  0  0  0  0  0  0  0  0  0  0  0
  -26.0510  -30.8220   21.3640 C   0  0  0  0  0  2  0  0  0  0  0  0
  -26.1360  -29.4450   20.6930 C   0  0  0  0  0  0  0  0  0  0  0  0
  -27.3110  -28.6070   20.6810 C   0  0  0  0  0  3  0  0  0  0  0  0
  -26.1090  -26.9590   19.3950 C   0  0  0  0  0  3  0  0  0  0  0  0
  -24.9560  -27.7620   19.4200 C   0  0  0  0  0  3  0  0  0  0  0  0
  -23.7200  -29.8680   20.1520 C   0  0  0  0  0  2  0  0  0  0  0  0
  -24.7710  -31.1020   22.0860 N   0  0  0  0  0  0  0  0  0  0  0  0
  -23.6130  -32.1730   23.7270 O   0  0  0  0  0  0  0  0  0  0  0  0
  -22.8490  -29.4830   22.4960 C   0  0  0  0  0  0  0  0  0  0  0  0
  -21.5200  -29.3050   22.3820 N   0  0  0  0  0  0  0  0  0  0  0  0
  -23.5360  -28.8490   23.3000 O   0  0  0  0  0  0  0  0  0  0  0  0
  -21.0250  -29.8670   21.7050 H   0  0  0  0  0  0  0  0  0  0  0  0
  -18.1530  -28.0810   22.9140 C   0  0  0  0  0  0  0  0  0  0  0  0
  -20.7130  -28.3530   23.1500 C   0  0  0  0  0  3  0  0  0  0  0  0
  -20.8150  -26.9300   22.5530 C   0  0  0  0  0  2  0  0  0  0  0  0
  -19.6990  -26.6150   21.5520 C   0  0  0  0  0  2  0  0  0  0  0  0
  -18.3270  -26.7430   22.2160 C   0  0  0  0  0  2  0  0  0  0  0  0
  -19.2720  -28.8450   23.3390 C   0  0  0  0  0  0  0  0  0  0  0  0
  -19.0520  -30.0950   23.9560 C   0  0  0  0  0  3  0  0  0  0  0  0
  -17.7460  -30.5840   24.1480 C   0  0  0  0  0  3  0  0  0  0  0  0
  -16.6420  -29.8180   23.7360 C   0  0  0  0  0  3  0  0  0  0  0  0
  -16.8460  -28.5680   23.1270 C   0  0  0  0  0  3  0  0  0  0  0  0
  -25.9730  -32.5500   23.8120 C   0  0  0  0  0  3  0  0  0  0  0  0
  -26.5050  -31.7700   25.0780 C   0  0  1  0  0  0  0  0  0  0  0  0
  -25.4200  -31.5080   26.1490 C   0  0  0  0  0  1  0  0  0  0  0  0
  -27.1010  -30.4040   24.6710 C   0  0  0  0  0  1  0  0  0  0  0  0
  -27.6540  -32.5680   25.7400 C   0  0  0  0  0  1  0  0  0  0  0  0
  -25.6450  -33.9390   24.1670 N   0  0  0  0  0  0  0  0  0  0  0  0
  -25.9480  -35.0090   23.4220 C   0  0  0  0  0  0  0  0  0  0  0  0
  -26.6040  -34.9310   22.3800 O   0  0  0  0  0  0  0  0  0  0  0  0
  -25.0600  -34.0700   24.9800 H   0  0  0  0  0  0  0  0  0  0  0  0
  -24.1880  -36.7830   23.1260 C   0  0  0  0  0  1  0  0  0  0  0  0
  -25.4490  -36.3830   23.9090 C   0  0  0  0  0  3  0  0  0  0  0  0
  -27.5850  -37.2890   24.7140 C   0  0  0  0  0  1  0  0  0  0  0  0
  -26.4630  -37.4540   23.7930 N   0  0  0  0  0  0  0  0  0  0  0  0
  -26.0460  -38.3660   23.9570 H   0  0  0  0  0  0  0  0  0  0  0  0
  1  4  2  0
  1  3  1  0
  2  5  1  0
  3  2  2  0
  4  6  1  0
  5  9  1  0
  6 10  1  0
  6  5  2  0
  7  4  1  0
  9  8  1  0
 11 20  1  0
 11 10  2  0
 12 20  1  0
 13 18  1  0
 14 15  1  0
 14 13  1  0
 16 15  1  0
 16 25  1  0
 16 17  1  0
 18 12  1  0
 18 17  1  0
 19 12  2  0
 20 21  1  0
 22 23  2  0
 23 42  1  0
 24 23  1  0
 24 27  1  0
 25 22  1  0
 25 26  1  0
 26 24  2  0
 27 28  1  0
 28 29  2  0
 30 33  1  0
 30 29  1  0
 31 30  2  0
 32 31  1  0
 32 27  2  0
 33 34  1  0
 34 35  1  0
 35 36  2  0
 37 36  1  0
 37 41  1  0
 38 37  2  0
 39 34  2  0
 39 38  1  0
 40 39  1  0
 42 43  1  0
 43 46  1  0
 43 45  1  0
 44 42  2  0
 47 48  1  0
 47 22  1  0
 49 47  1  0
 50  3  1  0
 50 51  1  0
 52 63  2  0
 53 51  1  0
 53 58  1  0
 54 62  1  0
 54 64  1  0
 55 61  1  0
 55 57  1  0
 56 62  1  0
 57 56  1  0
 58 57  2  0
 59 60  1  0
 59 53  2  0
 60 55  2  0
 61 54  1  0
 62 52  1  0
 64 66  2  0
 65 64  1  0
 67 65  1  0
 68 77  2  0
 68 73  1  0
 69 65  1  0
 69 73  1  0
 70 69  1  0
 71 72  1  0
 71 70  1  0
 72 68  1  0
 73 74  2  0
 74 75  1  0
 76 75  2  0
 77 76  1  0
 78 52  1  0
 78 83  1  0
 78 79  1  0
 79 82  1  1
 79 80  1  0
 81 79  1  0
 83 86  1  0
 84 88  1  0
 84 83  1  0
 85 84  2  0
 88 87  1  0
 90 88  1  0
 90 91  1  0
 90 89  1  0
M  ISO  4  12 100  20 100  50 101  51 101
M  END
>  <TORSDO>  (64) 
F 20

>  <SCORE>  (64) 
-13.788

>  <name>  (64) 
63

>  <ligand_id>  (64) 
63

>  <original_smiles>  (64) 
[H]c1c([H])c([H])c2c(c1[H])C([H])([H])C([H])([H])C([H])([H])C2([H])N([H])C(=O)C1([H])N(C(=O)C([H])(N([H])C(=O)C([H])(N([H])C([H])([H])[H])C([H])([H])[H])C(C([H])([H])[H])(C([H])([H])[H])C([H])([H])[H])C([H])([H])c2c([H])c(OC([H])([H])c3c([H])c(C([H])([H])[H])c(C([H])([H])C([H])([H])N([H])C(=O)N4C([H])([H])C([H])([H])C([H])([H])C([H])(n5nc(-c6c([H])c([H])c(Oc7c([H])c([H])c(F)c([H])c7F)c([H])c6[H])c(C(=O)N([H])[H])c5N([H])[H])C4([H])[H])c(C([H])([H])C([H])([H])[H])c3[H])c([H])c([H])c2C1([H])[H]

>  <smiles>  (64) 
[H]c1c([H])c([H])c2c(c1[H])C([H])([H])C([H])([H])C([H])([H])C2([H])N([H])C(=O)C1([H])N(C(=O)C([H])(N([H])C(=O)C([H])(N([H])C([H])([H])[H])C([H])([H])[H])C(C([H])([H])[H])(C([H])([H])[H])C([H])([H])[H])C([H])([H])c2c([H])c(OC([H])([H])c3c([H])c(C([H])([H])[H])c(C([H])([H])C([H])([H])N([H])C(=O)N4C([H])([H])C([H])([H])C([H])([H])C([H])(n5nc(-c6c([H])c([H])c(Oc7c([H])c([H])c(F)c([H])c7F)c([H])c6[H])c(C(=O)N([H])[H])c5N([H])[H])C4([H])[H])c(C([H])([H])C([H])([H])[H])c3[H])c([H])c([H])c2C1([H])[H]

$$$$
64:0:0
     RDKit          3D

 90 98  0  0  1  0  0  0  0  0999 V2000
  -30.5570  -22.0880   19.9900 C   0  0  0  0  0  3  0  0  0  0  0  0
  -31.4330  -20.9860   20.2400 C   0  0  0  0  0  3  0  0  0  0  0  0
  -29.1950  -21.9700   19.6440 C   0  0  0  0  0  0  0  0  0  0  0  0
  -31.1420  -19.5770   20.2080 C   0  0  0  0  0  0  0  0  0  0  0  0
  -28.9300  -20.3460   19.6240 C   0  0  0  0  0  0  0  0  0  0  0  0
  -29.8620  -19.0170   19.9020 C   0  0  0  0  0  0  0  0  0  0  0  0
  -32.3090  -18.6600   20.5230 C   0  0  0  0  0  1  0  0  0  0  0  0
  -30.4530  -15.8310   19.7900 C   0  0  0  0  0  0  0  0  0  0  0  0
  -30.5050  -13.2610   18.9450 C   0  0  0  0  0  2  0  0  0  0  0  0
  -29.5450  -12.8190   17.8010 C   0  0  0  0  0  2  0  0  0  0  0  0
  -28.1730  -12.4240   18.3610 C   0  0  0  0  0  2  0  0  0  0  0  0
  -27.7170  -13.4220   19.4470 C   0  0  0  0  0  3  0  0  0  0  0  0
  -28.8150  -13.7810   20.4790 C   0  0  0  0  0  2  0  0  0  0  0  0
  -29.9190  -14.4510   19.7380 N   0  0  0  0  0  0  0  0  0  0  0  0
  -31.6710  -15.7060   19.5440 O   0  0  0  0  0  0  0  0  0  0  0  0
  -29.7200  -17.2460   19.9220 N   0  0  0  0  0  0  0  0  0  0  0  0
  -28.7510  -17.0100   20.0730 H   0  0  0  0  0  0  0  0  0  0  0  0
  -25.4320  -13.9240   20.4260 C   0  0  0  0  0  0  0  0  0  0  0  0
  -24.3960  -13.1350   20.8360 C   0  0  0  0  0  0  0  0  0  0  0  0
  -24.8470  -11.7850   20.7000 C   0  0  0  0  0  0  0  0  0  0  0  0
  -26.4430  -13.0610   20.0560 N   0  0  0  0  0  0  0  0  0  0  0  0
  -26.1120  -11.7620   20.2850 N   0  0  0  0  0  0  0  0  0  0  0  0
  -24.1180  -10.5200   20.8820 C   0  0  0  0  0  0  0  0  0  0  0  0
  -24.5330   -9.5590   21.8290 C   0  0  0  0  0  3  0  0  0  0  0  0
  -23.8020   -8.3640   22.0050 C   0  0  0  0  0  3  0  0  0  0  0  0
  -22.6410   -8.1210   21.2330 C   0  0  0  0  0  0  0  0  0  0  0  0
  -22.2440   -9.0720   20.2780 C   0  0  0  0  0  3  0  0  0  0  0  0
  -22.9760  -10.2580   20.0990 C   0  0  0  0  0  3  0  0  0  0  0  0
  -21.8850   -6.9760   21.3170 O   0  0  0  0  0  0  0  0  0  0  0  0
  -21.7000   -6.3200   22.5070 C   0  0  0  0  0  0  0  0  0  0  0  0
  -21.1060   -6.9520   23.6210 C   0  0  0  0  0  3  0  0  0  0  0  0
  -20.8710   -6.2220   24.8030 C   0  0  0  0  0  3  0  0  0  0  0  0
  -21.2190   -4.8590   24.8700 C   0  0  0  0  0  0  0  0  0  0  0  0
  -21.8040   -4.2270   23.7610 C   0  0  0  0  0  3  0  0  0  0  0  0
  -22.0420   -4.9540   22.5820 C   0  0  0  0  0  0  0  0  0  0  0  0
  -22.5870   -4.3340   21.5070 F   0  0  0  0  0  0  0  0  0  0  0  0
  -20.9860   -4.1560   26.0030 F   0  0  0  0  0  0  0  0  0  0  0  0
  -23.0290  -13.6100   21.2310 C   0  0  0  0  0  0  0  0  0  0  0  0
  -22.3670  -12.8940   22.1320 N   0  0  0  0  0  0  0  0  0  0  0  0
  -22.5610  -14.6530   20.7750 O   0  0  0  0  0  0  0  0  0  0  0  0
  -22.7640  -12.0520   22.5220 H   0  0  0  0  0  0  0  0  0  0  0  0
  -21.4520  -13.1930   22.4360 H   0  0  0  0  0  0  0  0  0  0  0  0
  -25.5920  -15.3010   20.3030 N   0  0  0  0  0  0  0  0  0  0  0  0
  -24.8360  -15.9470   20.5010 H   0  0  0  0  0  0  0  0  0  0  0  0
  -26.4070  -15.7500   19.9100 H   0  0  0  0  0  0  0  0  0  0  0  0
  -26.8730  -19.0490   20.2950 C   0  0  0  0  0  1  0  0  0  0  0  0
  -27.3450  -19.5000   17.8260 C   0  0  0  0  0  1  0  0  0  0  0  0
  -27.4880  -20.0130   19.2680 C   0  0  0  0  0  3  0  0  0  0  0  0
  -28.2850  -23.6190   19.2880 C   0  0  0  0  0  2  0  0  0  0  0  0
  -28.4320  -25.4090   19.5110 O   0  0  0  0  0  0  0  0  0  0  0  0
  -24.7150  -31.4940   22.8470 C   0  0  0  0  0  0  0  0  0  0  0  0
  -27.4260  -26.6320   19.5490 C   0  0  0  0  0  0  0  0  0  0  0  0
  -23.5790  -30.1560   21.1280 C   0  0  0  0  0  3  0  0  0  0  0  0
  -25.0870  -28.6340   19.6200 C   0  0  0  0  0  0  0  0  0  0  0  0
  -26.1550  -30.3760   21.0220 C   0  0  0  0  0  2  0  0  0  0  0  0
  -26.2730  -28.9780   20.2800 C   0  0  0  0  0  0  0  0  0  0  0  0
  -27.4230  -28.0110   20.2100 C   0  0  0  0  0  3  0  0  0  0  0  0
  -26.1930  -26.5250   18.8470 C   0  0  0  0  0  3  0  0  0  0  0  0
  -25.0900  -27.4360   18.8820 C   0  0  0  0  0  3  0  0  0  0  0  0
  -23.8500  -29.5480   19.7190 C   0  0  0  0  0  2  0  0  0  0  0  0
  -24.8400  -30.7080   21.7190 N   0  0  0  0  0  0  0  0  0  0  0  0
  -23.6110  -31.7270   23.3710 O   0  0  0  0  0  0  0  0  0  0  0  0
  -22.8910  -29.1020   22.0380 C   0  0  0  0  0  0  0  0  0  0  0  0
  -21.5540  -28.9630   21.9530 N   0  0  0  0  0  0  0  0  0  0  0  0
  -23.5720  -28.4070   22.7950 O   0  0  0  0  0  0  0  0  0  0  0  0
  -21.0490  -29.5780   21.3290 H   0  0  0  0  0  0  0  0  0  0  0  0
  -18.1730  -27.7730   22.5790 C   0  0  0  0  0  0  0  0  0  0  0  0
  -20.7550  -27.9580   22.6700 C   0  0  0  0  0  3  0  0  0  0  0  0
  -20.7690  -26.6000   21.9290 C   0  0  0  0  0  2  0  0  0  0  0  0
  -19.5860  -26.4240   20.9700 C   0  0  0  0  0  2  0  0  0  0  0  0
  -18.2600  -26.5160   21.7310 C   0  0  0  0  0  2  0  0  0  0  0  0
  -19.3430  -28.4590   23.0060 C   0  0  0  0  0  0  0  0  0  0  0  0
  -19.2030  -29.6360   23.7710 C   0  0  0  0  0  3  0  0  0  0  0  0
  -17.9270  -30.1300   24.1080 C   0  0  0  0  0  3  0  0  0  0  0  0
  -16.7740  -29.4410   23.6930 C   0  0  0  0  0  3  0  0  0  0  0  0
  -16.8990  -28.2650   22.9340 C   0  0  0  0  0  3  0  0  0  0  0  0
  -25.9500  -32.1530   23.5320 C   0  0  0  0  0  3  0  0  0  0  0  0
  -25.5770  -33.5210   23.9460 N   0  0  0  0  0  0  0  0  0  0  0  0
  -25.8810  -34.6410   23.2780 C   0  0  0  0  0  0  0  0  0  0  0  0
  -26.5600  -34.6350   22.2500 O   0  0  0  0  0  0  0  0  0  0  0  0
  -24.9750  -33.5960   24.7520 H   0  0  0  0  0  0  0  0  0  0  0  0
  -24.0950  -36.4090   23.0660 C   0  0  0  0  0  1  0  0  0  0  0  0
  -25.3530  -35.9800   23.8390 C   0  0  0  0  0  3  0  0  0  0  0  0
  -27.4540  -36.8910   24.7290 C   0  0  0  0  0  1  0  0  0  0  0  0
  -26.3490  -37.0740   23.7930 N   0  0  0  0  0  0  0  0  0  0  0  0
  -25.9100  -37.9690   23.9950 H   0  0  0  0  0  0  0  0  0  0  0  0
  -26.4640  -31.3430   24.7880 C   0  0  1  0  0  0  0  0  0  0  0  0
  -25.3610  -31.0390   25.8290 C   0  0  0  0  0  1  0  0  0  0  0  0
  -27.0840  -29.9930   24.3620 C   0  0  0  0  0  1  0  0  0  0  0  0
  -27.5870  -32.1350   25.4990 C   0  0  0  0  0  1  0  0  0  0  0  0
  1  2  1  0
  3  1  2  0
  4  2  2  0
  4  7  1  0
  5  3  1  0
  5  6  2  0
  6 16  1  0
  6  4  1  0
  8 16  1  0
  9 14  1  0
 10 11  1  0
 10  9  1  0
 12 11  1  0
 12 21  1  0
 12 13  1  0
 14  8  1  0
 14 13  1  0
 15  8  2  0
 16 17  1  0
 18 19  2  0
 19 38  1  0
 20 19  1  0
 20 23  1  0
 21 22  1  0
 21 18  1  0
 22 20  2  0
 23 24  1  0
 24 25  2  0
 26 29  1  0
 26 25  1  0
 27 26  2  0
 28 27  1  0
 28 23  2  0
 29 30  1  0
 30 35  2  0
 30 31  1  0
 31 32  2  0
 32 33  1  0
 33 37  1  0
 34 33  2  0
 35 34  1  0
 36 35  1  0
 38 39  1  0
 39 42  1  0
 39 41  1  0
 40 38  2  0
 43 18  1  0
 43 44  1  0
 45 43  1  0
 47 48  1  0
 48  5  1  0
 48 46  1  0
 49 50  1  0
 49  3  1  0
 50 52  1  0
 51 62  2  0
 52 57  1  0
 53 61  1  0
 53 63  1  0
 54 60  1  0
 54 56  1  0
 55 61  1  0
 56 55  1  0
 57 56  2  0
 58 59  1  0
 58 52  2  0
 59 54  2  0
 60 53  1  0
 61 51  1  0
 63 65  2  0
 64 63  1  0
 66 64  1  0
 67 76  2  0
 67 72  1  0
 68 64  1  0
 68 72  1  0
 69 68  1  0
 70 71  1  0
 70 69  1  0
 71 67  1  0
 72 73  2  0
 73 74  1  0
 75 74  2  0
 76 75  1  0
 77 51  1  0
 77 78  1  0
 77 87  1  0
 78 81  1  0
 79 83  1  0
 79 78  1  0
 80 79  2  0
 83 82  1  0
 85 83  1  0
 85 86  1  0
 85 84  1  0
 87 90  1  1
 87 88  1  0
 89 87  1  0
M  ISO  4   8 100  16 100  49 101  50 101
M  END
>  <TORSDO>  (65) 
F 18

>  <SCORE>  (65) 
-14.338

>  <name>  (65) 
64

>  <ligand_id>  (65) 
64

>  <original_smiles>  (65) 
[H]c1c([H])c([H])c2c(c1[H])C([H])([H])C([H])([H])C([H])([H])C2([H])N([H])C(=O)C1([H])N(C(=O)C([H])(N([H])C(=O)C([H])(N([H])C([H])([H])[H])C([H])([H])[H])C(C([H])([H])[H])(C([H])([H])[H])C([H])([H])[H])C([H])([H])c2c([H])c(OC([H])([H])c3c([H])c([H])c(C([H])([H])[H])c(N([H])C(=O)N4C([H])([H])C([H])([H])C([H])([H])C([H])(n5nc(-c6c([H])c([H])c(Oc7c([H])c([H])c(F)c([H])c7F)c([H])c6[H])c(C(=O)N([H])[H])c5N([H])[H])C4([H])[H])c3C([H])(C([H])([H])[H])C([H])([H])[H])c([H])c([H])c2C1([H])[H]

>  <smiles>  (65) 
[H]c1c([H])c([H])c2c(c1[H])C([H])([H])C([H])([H])C([H])([H])C2([H])N([H])C(=O)C1([H])N(C(=O)C([H])(N([H])C(=O)C([H])(N([H])C([H])([H])[H])C([H])([H])[H])C(C([H])([H])[H])(C([H])([H])[H])C([H])([H])[H])C([H])([H])c2c([H])c(OC([H])([H])c3c([H])c([H])c(C([H])([H])[H])c(N([H])C(=O)N4C([H])([H])C([H])([H])C([H])([H])C([H])(n5nc(-c6c([H])c([H])c(Oc7c([H])c([H])c(F)c([H])c7F)c([H])c6[H])c(C(=O)N([H])[H])c5N([H])[H])C4([H])[H])c3C([H])(C([H])([H])[H])C([H])([H])[H])c([H])c([H])c2C1([H])[H]

$$$$
65:0:0
     RDKit          3D

 93101  0  0  1  0  0  0  0  0999 V2000
  -28.8320  -22.0990   20.8980 C   0  0  0  0  0  2  0  0  0  0  0  0
  -30.6860  -18.4490   21.0800 C   0  0  0  0  0  3  0  0  0  0  0  0
  -28.6790  -18.1890   19.8620 C   0  0  0  0  0  3  0  0  0  0  0  0
  -30.4400  -19.8860   21.1580 C   0  0  0  0  0  0  0  0  0  0  0  0
  -28.4220  -19.6080   19.9180 C   0  0  0  0  0  0  0  0  0  0  0  0
  -29.2840  -20.5460   20.5830 C   0  0  0  0  0  0  0  0  0  0  0  0
  -29.7950  -17.5220   20.4520 C   0  0  0  0  0  0  0  0  0  0  0  0
  -31.4310  -20.7060   21.9710 C   0  0  0  0  0  1  0  0  0  0  0  0
  -27.1250  -20.0840   19.2810 C   0  0  0  0  0  1  0  0  0  0  0  0
  -30.6980  -14.9450   20.2180 C   0  0  0  0  0  0  0  0  0  0  0  0
  -30.5580  -12.6590   19.1510 C   0  0  0  0  0  2  0  0  0  0  0  0
  -29.5750  -12.7330   17.9600 C   0  0  0  0  0  2  0  0  0  0  0  0
  -28.1210  -12.5270   18.4310 C   0  0  0  0  0  2  0  0  0  0  0  0
  -27.7760  -13.3730   19.6840 C   0  0  0  0  0  3  0  0  0  0  0  0
  -28.8720  -13.2610   20.7630 C   0  0  0  0  0  2  0  0  0  0  0  0
  -30.1350  -13.6800   20.1420 N   0  0  0  0  0  0  0  0  0  0  0  0
  -31.8760  -15.0980   19.8810 O   0  0  0  0  0  0  0  0  0  0  0  0
  -29.8200  -16.0080   20.4780 N   0  0  0  0  0  0  0  0  0  0  0  0
  -28.9000  -15.6300   20.6440 H   0  0  0  0  0  0  0  0  0  0  0  0
  -25.4080  -13.9390   20.4880 C   0  0  0  0  0  0  0  0  0  0  0  0
  -24.3560  -13.1540   20.8690 C   0  0  0  0  0  0  0  0  0  0  0  0
  -24.8220  -11.8050   20.7930 C   0  0  0  0  0  0  0  0  0  0  0  0
  -26.4470  -13.0700   20.2030 N   0  0  0  0  0  0  0  0  0  0  0  0
  -26.1040  -11.7800   20.4490 N   0  0  0  0  0  0  0  0  0  0  0  0
  -24.1020  -10.5370   20.9710 C   0  0  0  0  0  0  0  0  0  0  0  0
  -24.5360   -9.5680   21.9030 C   0  0  0  0  0  3  0  0  0  0  0  0
  -23.8170   -8.3650   22.0710 C   0  0  0  0  0  3  0  0  0  0  0  0
  -22.6530   -8.1210   21.3050 C   0  0  0  0  0  0  0  0  0  0  0  0
  -22.2370   -9.0780   20.3640 C   0  0  0  0  0  3  0  0  0  0  0  0
  -22.9560  -10.2740   20.1940 C   0  0  0  0  0  3  0  0  0  0  0  0
  -21.9050   -6.9700   21.3830 O   0  0  0  0  0  0  0  0  0  0  0  0
  -21.8200   -6.2450   22.5440 C   0  0  0  0  0  0  0  0  0  0  0  0
  -21.2860   -6.7960   23.7300 C   0  0  0  0  0  3  0  0  0  0  0  0
  -21.1540   -5.9940   24.8800 C   0  0  0  0  0  3  0  0  0  0  0  0
  -21.5440   -4.6400   24.8460 C   0  0  0  0  0  0  0  0  0  0  0  0
  -22.0680   -4.0900   23.6630 C   0  0  0  0  0  3  0  0  0  0  0  0
  -22.2040   -4.8890   22.5170 C   0  0  0  0  0  0  0  0  0  0  0  0
  -22.6910   -4.3490   21.3710 F   0  0  0  0  0  0  0  0  0  0  0  0
  -21.4100   -3.8660   25.9470 F   0  0  0  0  0  0  0  0  0  0  0  0
  -22.9660  -13.6180   21.1890 C   0  0  0  0  0  0  0  0  0  0  0  0
  -22.2660  -12.8980   22.0600 N   0  0  0  0  0  0  0  0  0  0  0  0
  -22.5100  -14.6550   20.7060 O   0  0  0  0  0  0  0  0  0  0  0  0
  -22.6520  -12.0580   22.4670 H   0  0  0  0  0  0  0  0  0  0  0  0
  -21.3360  -13.1890   22.3230 H   0  0  0  0  0  0  0  0  0  0  0  0
  -25.5570  -15.3140   20.3320 N   0  0  0  0  0  0  0  0  0  0  0  0
  -24.7750  -15.9470   20.4530 H   0  0  0  0  0  0  0  0  0  0  0  0
  -26.3550  -15.7520   19.8910 H   0  0  0  0  0  0  0  0  0  0  0  0
  -30.4780  -23.8800   19.9900 C   0  0  0  0  0  1  0  0  0  0  0  0
  -28.9870  -23.5030   20.0100 C   0  0  1  0  0  0  0  0  0  0  0  0
  -29.3430  -22.4080   17.6230 C   0  0  0  0  0  1  0  0  0  0  0  0
  -28.4750  -23.2770   18.5590 C   0  0  0  0  0  2  0  0  0  0  0  0
  -28.1850  -24.8490   20.5990 C   0  0  0  0  0  2  0  0  0  0  0  0
  -28.3830  -26.3250   20.2000 O   0  0  0  0  0  0  0  0  0  0  0  0
  -24.6230  -31.8800   23.2060 C   0  0  0  0  0  0  0  0  0  0  0  0
  -27.2900  -27.2470   20.1880 C   0  0  0  0  0  0  0  0  0  0  0  0
  -23.4520  -30.4730   21.5520 C   0  0  0  0  0  3  0  0  0  0  0  0
  -24.9330  -28.9240   20.1380 C   0  0  0  0  0  0  0  0  0  0  0  0
  -26.0020  -30.7850   21.4080 C   0  0  0  0  0  2  0  0  0  0  0  0
  -26.0990  -29.4000   20.7530 C   0  0  0  0  0  0  0  0  0  0  0  0
  -27.2840  -28.5800   20.7520 C   0  0  0  0  0  3  0  0  0  0  0  0
  -26.0970  -26.8540   19.5470 C   0  0  0  0  0  3  0  0  0  0  0  0
  -24.9440  -27.6660   19.5140 C   0  0  0  0  0  3  0  0  0  0  0  0
  -23.6930  -29.7990   20.1740 C   0  0  0  0  0  2  0  0  0  0  0  0
  -24.7120  -31.0670   22.1110 N   0  0  0  0  0  0  0  0  0  0  0  0
  -23.5290  -32.1520   23.7240 O   0  0  0  0  0  0  0  0  0  0  0  0
  -22.7780  -29.4570   22.5070 C   0  0  0  0  0  0  0  0  0  0  0  0
  -21.4500  -29.2850   22.3840 N   0  0  0  0  0  0  0  0  0  0  0  0
  -23.4530  -28.8220   23.3220 O   0  0  0  0  0  0  0  0  0  0  0  0
  -20.9610  -29.8500   21.7030 H   0  0  0  0  0  0  0  0  0  0  0  0
  -18.0610  -28.1180   22.9210 C   0  0  0  0  0  0  0  0  0  0  0  0
  -20.6300  -28.3400   23.1460 C   0  0  0  0  0  3  0  0  0  0  0  0
  -20.6990  -26.9210   22.5380 C   0  0  0  0  0  2  0  0  0  0  0  0
  -19.5750  -26.6360   21.5380 C   0  0  0  0  0  2  0  0  0  0  0  0
  -18.2060  -26.7840   22.2100 C   0  0  0  0  0  2  0  0  0  0  0  0
  -19.1980  -28.8560   23.3460 C   0  0  0  0  0  0  0  0  0  0  0  0
  -19.0040  -30.1070   23.9730 C   0  0  0  0  0  3  0  0  0  0  0  0
  -17.7080  -30.6210   24.1710 C   0  0  0  0  0  3  0  0  0  0  0  0
  -16.5880  -29.8790   23.7610 C   0  0  0  0  0  3  0  0  0  0  0  0
  -16.7650  -28.6280   23.1430 C   0  0  0  0  0  3  0  0  0  0  0  0
  -25.8910  -32.5280   23.8460 C   0  0  0  0  0  3  0  0  0  0  0  0
  -26.3900  -31.7700   25.1380 C   0  0  1  0  0  0  0  0  0  0  0  0
  -25.2790  -31.5300   26.1870 C   0  0  0  0  0  1  0  0  0  0  0  0
  -26.9890  -30.3920   24.7710 C   0  0  0  0  0  1  0  0  0  0  0  0
  -27.5190  -32.5810   25.8180 C   0  0  0  0  0  1  0  0  0  0  0  0
  -25.5650  -33.9280   24.1660 N   0  0  0  0  0  0  0  0  0  0  0  0
  -25.8970  -34.9820   23.4100 C   0  0  0  0  0  0  0  0  0  0  0  0
  -26.5790  -34.8800   22.3860 O   0  0  0  0  0  0  0  0  0  0  0  0
  -24.9670  -34.0810   24.9630 H   0  0  0  0  0  0  0  0  0  0  0  0
  -24.1760  -36.7750   23.0200 C   0  0  0  0  0  1  0  0  0  0  0  0
  -25.3990  -36.3680   23.8600 C   0  0  0  0  0  3  0  0  0  0  0  0
  -27.5050  -37.2620   24.7530 C   0  0  0  0  0  1  0  0  0  0  0  0
  -26.4310  -37.4230   23.7740 N   0  0  0  0  0  0  0  0  0  0  0  0
  -26.0200  -38.3430   23.9050 H   0  0  0  0  0  0  0  0  0  0  0  0
  2  4  1  0
  3  5  2  0
  3  7  1  0
  4  8  1  0
  5  6  1  0
  6  1  1  0
  6  4  2  0
  7 18  1  0
  7  2  2  0
  9  5  1  0
 10 18  1  0
 11 16  1  0
 12 13  1  0
 12 11  1  0
 14 13  1  0
 14 23  1  0
 14 15  1  0
 16 10  1  0
 16 15  1  0
 17 10  2  0
 18 19  1  0
 20 21  2  0
 21 40  1  0
 22 21  1  0
 22 25  1  0
 23 24  1  0
 23 20  1  0
 24 22  2  0
 25 26  1  0
 26 27  2  0
 28 31  1  0
 28 27  1  0
 29 28  2  0
 30 29  1  0
 30 25  2  0
 31 32  1  0
 32 33  1  0
 33 34  2  0
 35 34  1  0
 35 39  1  0
 36 35  2  0
 37 32  2  0
 37 36  1  0
 38 37  1  0
 40 41  1  0
 41 44  1  0
 41 43  1  0
 42 40  2  0
 45 46  1  0
 45 20  1  0
 47 45  1  0
 49 48  1  6
 49 52  1  0
 49  1  1  0
 50 51  1  0
 51 49  1  0
 53 52  1  0
 54 65  2  0
 55 53  1  0
 55 60  1  0
 56 64  1  0
 56 66  1  0
 57 63  1  0
 57 59  1  0
 58 64  1  0
 59 58  1  0
 60 59  2  0
 61 55  2  0
 62 61  1  0
 62 57  2  0
 63 56  1  0
 64 54  1  0
 66 68  2  0
 67 66  1  0
 69 67  1  0
 70 79  2  0
 70 75  1  0
 71 67  1  0
 71 75  1  0
 72 71  1  0
 73 74  1  0
 73 72  1  0
 74 70  1  0
 75 76  2  0
 76 77  1  0
 78 77  2  0
 79 78  1  0
 80 54  1  0
 80 85  1  0
 80 81  1  0
 81 84  1  1
 81 82  1  0
 83 81  1  0
 85 88  1  0
 86 90  1  0
 86 85  1  0
 87 86  2  0
 90 89  1  0
 92 90  1  0
 92 93  1  0
 92 91  1  0
M  ISO  4  10 100  18 100  52 101  53 101
M  END
>  <TORSDO>  (66) 
F 20

>  <SCORE>  (66) 
-14.075

>  <name>  (66) 
65

>  <ligand_id>  (66) 
65

>  <original_smiles>  (66) 
[H]c1c([H])c([H])c2c(c1[H])C([H])([H])C([H])([H])C([H])([H])C2([H])N([H])C(=O)C1([H])N(C(=O)C([H])(N([H])C(=O)C([H])(N([H])C([H])([H])[H])C([H])([H])[H])C(C([H])([H])[H])(C([H])([H])[H])C([H])([H])[H])C([H])([H])c2c([H])c(OC([H])([H])C(C([H])([H])[H])(C([H])([H])c3c(C([H])([H])[H])c([H])c(N([H])C(=O)N4C([H])([H])C([H])([H])C([H])([H])C([H])(n5nc(-c6c([H])c([H])c(Oc7c([H])c([H])c(F)c([H])c7F)c([H])c6[H])c(C(=O)N([H])[H])c5N([H])[H])C4([H])[H])c([H])c3C([H])([H])[H])C([H])([H])C([H])([H])[H])c([H])c([H])c2C1([H])[H]

>  <smiles>  (66) 
[H]c1c([H])c([H])c2c(c1[H])C([H])([H])C([H])([H])C([H])([H])C2([H])N([H])C(=O)C1([H])N(C(=O)C([H])(N([H])C(=O)C([H])(N([H])C([H])([H])[H])C([H])([H])[H])C(C([H])([H])[H])(C([H])([H])[H])C([H])([H])[H])C([H])([H])c2c([H])c(OC([H])([H])C(C([H])([H])[H])(C([H])([H])c3c(C([H])([H])[H])c([H])c(N([H])C(=O)N4C([H])([H])C([H])([H])C([H])([H])C([H])(n5nc(-c6c([H])c([H])c(Oc7c([H])c([H])c(F)c([H])c7F)c([H])c6[H])c(C(=O)N([H])[H])c5N([H])[H])C4([H])[H])c([H])c3C([H])([H])[H])C([H])([H])C([H])([H])[H])c([H])c([H])c2C1([H])[H]

$$$$
66:0:0
     RDKit          3D

 93101  0  0  1  0  0  0  0  0999 V2000
  -27.9630  -21.9530   20.5730 N   0  0  0  0  0  4  0  0  0  0  0  0
  -26.9750  -21.9120   20.7720 H   0  0  0  0  0  0  0  0  0  0  0  0
  -28.0700  -21.8820   19.5740 H   0  0  0  0  0  0  0  0  0  0  0  0
  -28.5950  -20.7810   21.2180 C   0  0  0  0  0  2  0  0  0  0  0  0
  -30.3010  -20.2730   19.2310 C   0  0  0  0  0  2  0  0  0  0  0  0
  -31.3380  -19.6010   20.1200 C   0  0  0  0  0  2  0  0  0  0  0  0
  -29.2060  -19.8070   20.2020 C   0  0  0  0  0  3  0  0  0  0  0  0
  -30.2070  -18.7510   20.7310 C   0  0  0  0  0  3  0  0  0  0  0  0
  -29.1220  -16.5800   21.4390 C   0  0  0  0  0  1  0  0  0  0  0  0
  -29.9800  -17.2700   20.3560 C   0  0  0  0  0  3  0  0  0  0  0  0
  -31.2760  -16.4830   20.0310 C   0  0  0  0  0  2  0  0  0  0  0  0
  -31.4920  -14.0420   19.4470 C   0  0  0  0  0  0  0  0  0  0  0  0
  -31.1010  -11.6690   18.8760 C   0  0  0  0  0  2  0  0  0  0  0  0
  -30.0850  -11.5440   17.7240 C   0  0  0  0  0  2  0  0  0  0  0  0
  -28.6390  -11.5690   18.2570 C   0  0  0  0  0  2  0  0  0  0  0  0
  -28.3840  -12.7590   19.2210 C   0  0  0  0  0  3  0  0  0  0  0  0
  -29.4840  -12.7930   20.3040 C   0  0  0  0  0  2  0  0  0  0  0  0
  -30.7960  -12.8900   19.6320 N   0  0  0  0  0  0  0  0  0  0  0  0
  -32.4450  -14.1530   18.6690 O   0  0  0  0  0  0  0  0  0  0  0  0
  -31.0430  -15.0560   20.1950 N   0  0  0  0  0  0  0  0  0  0  0  0
  -30.3340  -14.8120   20.8680 H   0  0  0  0  0  0  0  0  0  0  0  0
  -26.1910  -13.7250   20.1780 C   0  0  0  0  0  0  0  0  0  0  0  0
  -25.0460  -13.1200   20.6220 C   0  0  0  0  0  0  0  0  0  0  0  0
  -25.2660  -11.7140   20.4940 C   0  0  0  0  0  0  0  0  0  0  0  0
  -27.0480  -12.6950   19.8120 N   0  0  0  0  0  0  0  0  0  0  0  0
  -26.4960  -11.4790   20.0530 N   0  0  0  0  0  0  0  0  0  0  0  0
  -24.3590  -10.5790   20.7110 C   0  0  0  0  0  0  0  0  0  0  0  0
  -24.6710   -9.5480   21.6270 C   0  0  0  0  0  3  0  0  0  0  0  0
  -23.7770   -8.4760   21.8280 C   0  0  0  0  0  3  0  0  0  0  0  0
  -22.5560   -8.4250   21.1130 C   0  0  0  0  0  0  0  0  0  0  0  0
  -22.2600   -9.4420   20.1890 C   0  0  0  0  0  3  0  0  0  0  0  0
  -23.1550  -10.5070   19.9860 C   0  0  0  0  0  3  0  0  0  0  0  0
  -21.6400   -7.4080   21.2230 O   0  0  0  0  0  0  0  0  0  0  0  0
  -21.4640   -6.7220   22.3980 C   0  0  0  0  0  0  0  0  0  0  0  0
  -21.1050   -7.3750   23.5960 C   0  0  0  0  0  3  0  0  0  0  0  0
  -20.8670   -6.6240   24.7650 C   0  0  0  0  0  3  0  0  0  0  0  0
  -20.9790   -5.2190   24.7350 C   0  0  0  0  0  0  0  0  0  0  0  0
  -21.3290   -4.5670   23.5410 C   0  0  0  0  0  3  0  0  0  0  0  0
  -21.5690   -5.3170   22.3760 C   0  0  0  0  0  0  0  0  0  0  0  0
  -21.8870   -4.6790   21.2220 F   0  0  0  0  0  0  0  0  0  0  0  0
  -20.7420   -4.4980   25.8550 F   0  0  0  0  0  0  0  0  0  0  0  0
  -23.7800  -13.8050   21.0560 C   0  0  0  0  0  0  0  0  0  0  0  0
  -23.0450  -13.2090   21.9880 N   0  0  0  0  0  0  0  0  0  0  0  0
  -23.4580  -14.9030   20.6030 O   0  0  0  0  0  0  0  0  0  0  0  0
  -23.3150  -12.3180   22.3770 H   0  0  0  0  0  0  0  0  0  0  0  0
  -22.2020  -13.6550   22.3220 H   0  0  0  0  0  0  0  0  0  0  0  0
  -26.5650  -15.0580   20.0360 N   0  0  0  0  0  0  0  0  0  0  0  0
  -25.9350  -15.8210   20.2560 H   0  0  0  0  0  0  0  0  0  0  0  0
  -27.4540  -15.3700   19.6660 H   0  0  0  0  0  0  0  0  0  0  0  0
  -28.4810  -23.2540   21.0500 C   0  0  0  0  0  2  0  0  0  0  0  0
  -28.0010  -24.4390   20.1970 C   0  0  0  0  0  2  0  0  0  0  0  0
  -28.5450  -25.7800   20.7250 C   0  0  0  0  0  2  0  0  0  0  0  0
  -28.4040  -26.8440   19.7850 O   0  0  0  0  0  0  0  0  0  0  0  0
  -24.5360  -31.7830   23.1460 C   0  0  0  0  0  0  0  0  0  0  0  0
  -27.2170  -27.5270   19.8670 C   0  0  0  0  0  0  0  0  0  0  0  0
  -23.3260  -30.4010   21.4880 C   0  0  0  0  0  3  0  0  0  0  0  0
  -24.7830  -28.9460   19.9880 C   0  0  0  0  0  0  0  0  0  0  0  0
  -25.8350  -30.8340   21.2460 C   0  0  0  0  0  2  0  0  0  0  0  0
  -25.9390  -29.4840   20.5700 C   0  0  0  0  0  0  0  0  0  0  0  0
  -27.1590  -28.7770   20.5150 C   0  0  0  0  0  3  0  0  0  0  0  0
  -26.0530  -27.0030   19.2660 C   0  0  0  0  0  3  0  0  0  0  0  0
  -24.8350  -27.7020   19.3360 C   0  0  0  0  0  3  0  0  0  0  0  0
  -23.5190  -29.7680   20.0840 C   0  0  0  0  0  2  0  0  0  0  0  0
  -24.5850  -31.0190   22.0180 N   0  0  0  0  0  0  0  0  0  0  0  0
  -23.4610  -32.0140   23.7160 O   0  0  0  0  0  0  0  0  0  0  0  0
  -22.7250  -29.3350   22.4300 C   0  0  0  0  0  0  0  0  0  0  0  0
  -21.4120  -29.0870   22.2910 N   0  0  0  0  0  0  0  0  0  0  0  0
  -23.4330  -28.7350   23.2430 O   0  0  0  0  0  0  0  0  0  0  0  0
  -20.9010  -29.6190   21.6010 H   0  0  0  0  0  0  0  0  0  0  0  0
  -18.1090  -27.6870   22.7060 C   0  0  0  0  0  0  0  0  0  0  0  0
  -20.6380  -28.1020   23.0450 C   0  0  0  0  0  3  0  0  0  0  0  0
  -20.8450  -26.6800   22.4760 C   0  0  0  0  0  2  0  0  0  0  0  0
  -19.7940  -26.2920   21.4310 C   0  0  0  0  0  2  0  0  0  0  0  0
  -18.3880  -26.3530   22.0350 C   0  0  0  0  0  2  0  0  0  0  0  0
  -19.1660  -28.5160   23.1640 C   0  0  0  0  0  0  0  0  0  0  0  0
  -18.8580  -29.7630   23.7490 C   0  0  0  0  0  3  0  0  0  0  0  0
  -17.5200  -30.1850   23.8780 C   0  0  0  0  0  3  0  0  0  0  0  0
  -16.4770  -29.3530   23.4400 C   0  0  0  0  0  3  0  0  0  0  0  0
  -16.7700  -28.1060   22.8580 C   0  0  0  0  0  3  0  0  0  0  0  0
  -25.8220  -32.4260   23.7560 C   0  0  0  0  0  3  0  0  0  0  0  0
  -25.4970  -33.8120   24.1170 N   0  0  0  0  0  0  0  0  0  0  0  0
  -25.8080  -34.8830   23.3750 C   0  0  0  0  0  0  0  0  0  0  0  0
  -26.4710  -34.8090   22.3360 O   0  0  0  0  0  0  0  0  0  0  0  0
  -24.9100  -33.9430   24.9280 H   0  0  0  0  0  0  0  0  0  0  0  0
  -24.0470  -36.6500   23.0630 C   0  0  0  0  0  1  0  0  0  0  0  0
  -25.3010  -36.2550   23.8600 C   0  0  0  0  0  3  0  0  0  0  0  0
  -27.4260  -37.1570   24.6920 C   0  0  0  0  0  1  0  0  0  0  0  0
  -26.3160  -37.3250   23.7580 N   0  0  0  0  0  0  0  0  0  0  0  0
  -25.8980  -38.2370   23.9220 H   0  0  0  0  0  0  0  0  0  0  0  0
  -26.3770  -31.6400   25.0070 C   0  0  1  0  0  0  0  0  0  0  0  0
  -25.3070  -31.3570   26.0870 C   0  0  0  0  0  1  0  0  0  0  0  0
  -26.9830  -30.2850   24.5730 C   0  0  0  0  0  1  0  0  0  0  0  0
  -27.5250  -32.4430   25.6660 C   0  0  0  0  0  1  0  0  0  0  0  0
  1  2  1  0
  1 50  1  0
  1  4  1  0
  3  1  1  0
  5  6  1  0
  5  7  1  0
  6  8  1  0
  7  8  1  0
  7  4  1  0
  8 10  1  0
 10  9  1  0
 11 20  1  0
 11 10  1  0
 12 18  1  0
 12 20  1  0
 13 18  1  0
 14 15  1  0
 14 13  1  0
 16 15  1  0
 16 25  1  0
 16 17  1  0
 18 17  1  0
 19 12  2  0
 20 21  1  0
 22 23  2  0
 23 42  1  0
 24 23  1  0
 24 27  1  0
 25 26  1  0
 25 22  1  0
 26 24  2  0
 27 28  1  0
 28 29  2  0
 30 33  1  0
 30 29  1  0
 31 30  2  0
 32 31  1  0
 32 27  2  0
 33 34  1  0
 34 35  1  0
 35 36  2  0
 37 36  1  0
 37 41  1  0
 38 37  2  0
 39 34  2  0
 39 38  1  0
 40 39  1  0
 42 43  1  0
 43 46  1  0
 43 45  1  0
 44 42  2  0
 47 22  1  0
 47 48  1  0
 49 47  1  0
 51 52  1  0
 51 50  1  0
 53 55  1  0
 53 52  1  0
 54 65  2  0
 55 60  1  0
 56 64  1  0
 56 66  1  0
 57 63  1  0
 57 59  1  0
 58 64  1  0
 59 58  1  0
 60 59  2  0
 61 62  1  0
 61 55  2  0
 62 57  2  0
 63 56  1  0
 64 54  1  0
 66 68  2  0
 67 66  1  0
 69 67  1  0
 70 79  2  0
 70 75  1  0
 71 67  1  0
 71 75  1  0
 72 71  1  0
 73 74  1  0
 73 72  1  0
 74 70  1  0
 75 76  2  0
 76 77  1  0
 78 77  2  0
 79 78  1  0
 80 54  1  0
 80 81  1  0
 80 90  1  0
 81 84  1  0
 82 86  1  0
 82 81  1  0
 83 82  2  0
 86 85  1  0
 88 86  1  0
 88 89  1  0
 88 87  1  0
 90 93  1  1
 90 91  1  0
 92 90  1  0
M  ISO  4  12 100  20 100  52 101  53 101
M  END
>  <TORSDO>  (67) 
F 23

>  <SCORE>  (67) 
-11.596

>  <name>  (67) 
66

>  <ligand_id>  (67) 
66

>  <original_smiles>  (67) 
[H]c1c([H])c([H])c2c(c1[H])C([H])([H])C([H])([H])C([H])([H])C2([H])N([H])C(=O)C1([H])N(C(=O)C([H])(N([H])C(=O)C([H])(N([H])C([H])([H])[H])C([H])([H])[H])C(C([H])([H])[H])(C([H])([H])[H])C([H])([H])[H])C([H])([H])c2c([H])c(OC([H])([H])C([H])([H])C([H])([H])[N+]([H])([H])C([H])([H])C3([H])C([H])([H])C([H])([H])C3([H])C([H])(C([H])([H])[H])C([H])([H])N([H])C(=O)N3C([H])([H])C([H])([H])C([H])([H])C([H])(n4nc(-c5c([H])c([H])c(Oc6c([H])c([H])c(F)c([H])c6F)c([H])c5[H])c(C(=O)N([H])[H])c4N([H])[H])C3([H])[H])c([H])c([H])c2C1([H])[H]

>  <smiles>  (67) 
[H]c1c([H])c([H])c2c(c1[H])C([H])([H])C([H])([H])C([H])([H])C2([H])N([H])C(=O)C1([H])N(C(=O)C([H])(N([H])C(=O)C([H])(N([H])C([H])([H])[H])C([H])([H])[H])C(C([H])([H])[H])(C([H])([H])[H])C([H])([H])[H])C([H])([H])c2c([H])c(OC([H])([H])C([H])([H])C([H])([H])[N+]([H])([H])C([H])([H])C3([H])C([H])([H])C([H])([H])C3([H])C([H])(C([H])([H])[H])C([H])([H])N([H])C(=O)N3C([H])([H])C([H])([H])C([H])([H])C([H])(n4nc(-c5c([H])c([H])c(Oc6c([H])c([H])c(F)c([H])c6F)c([H])c5[H])c(C(=O)N([H])[H])c4N([H])[H])C3([H])[H])c([H])c([H])c2C1([H])[H]

$$$$
67:0:0
     RDKit          3D

 92100  0  0  1  0  0  0  0  0999 V2000
  -28.1250  -20.2270   20.2750 C   0  0  0  0  0  3  0  0  0  0  0  0
  -30.5950  -19.0230   20.3690 C   0  0  0  0  0  3  0  0  0  0  0  0
  -29.1450  -21.2410   20.4200 C   0  0  0  0  0  0  0  0  0  0  0  0
  -28.3050  -18.7600   20.1940 C   0  0  0  0  0  0  0  0  0  0  0  0
  -30.4150  -20.5030   20.4480 C   0  0  0  0  0  0  0  0  0  0  0  0
  -29.5580  -18.0080   20.2560 C   0  0  0  0  0  0  0  0  0  0  0  0
  -27.0340  -17.9530   20.0430 C   0  0  0  0  0  1  0  0  0  0  0  0
  -30.4390  -15.2170   20.0250 C   0  0  0  0  0  0  0  0  0  0  0  0
  -30.3650  -12.8270   19.0460 C   0  0  0  0  0  2  0  0  0  0  0  0
  -29.3690  -12.7190   17.8620 C   0  0  0  0  0  2  0  0  0  0  0  0
  -27.9400  -12.4420   18.3680 C   0  0  0  0  0  2  0  0  0  0  0  0
  -27.5640  -13.3430   19.5700 C   0  0  0  0  0  3  0  0  0  0  0  0
  -28.6800  -13.4030   20.6390 C   0  0  0  0  0  2  0  0  0  0  0  0
  -29.8880  -13.9140   19.9670 N   0  0  0  0  0  0  0  0  0  0  0  0
  -31.6380  -15.2780   19.7150 O   0  0  0  0  0  0  0  0  0  0  0  0
  -29.5990  -16.4020   20.2350 N   0  0  0  0  0  0  0  0  0  0  0  0
  -28.6690  -16.0450   20.3960 H   0  0  0  0  0  0  0  0  0  0  0  0
  -25.2280  -13.8640   20.4610 C   0  0  0  0  0  0  0  0  0  0  0  0
  -24.1920  -13.0760   20.8700 C   0  0  0  0  0  0  0  0  0  0  0  0
  -24.6650  -11.7310   20.7760 C   0  0  0  0  0  0  0  0  0  0  0  0
  -26.2630  -13.0070   20.1380 N   0  0  0  0  0  0  0  0  0  0  0  0
  -25.9380  -11.7130   20.3940 N   0  0  0  0  0  0  0  0  0  0  0  0
  -23.9520  -10.4620   20.9670 C   0  0  0  0  0  0  0  0  0  0  0  0
  -24.3950   -9.5000   21.9010 C   0  0  0  0  0  3  0  0  0  0  0  0
  -23.6790   -8.2970   22.0820 C   0  0  0  0  0  3  0  0  0  0  0  0
  -22.5080   -8.0480   21.3270 C   0  0  0  0  0  0  0  0  0  0  0  0
  -22.0830   -8.9990   20.3830 C   0  0  0  0  0  3  0  0  0  0  0  0
  -22.8000  -10.1930   20.2010 C   0  0  0  0  0  3  0  0  0  0  0  0
  -21.7660   -6.8940   21.4170 O   0  0  0  0  0  0  0  0  0  0  0  0
  -21.6790   -6.1850   22.5870 C   0  0  0  0  0  0  0  0  0  0  0  0
  -21.1220   -6.7450   23.7570 C   0  0  0  0  0  3  0  0  0  0  0  0
  -20.9850   -5.9590   24.9190 C   0  0  0  0  0  3  0  0  0  0  0  0
  -21.3950   -4.6120   24.9100 C   0  0  0  0  0  0  0  0  0  0  0  0
  -21.9470   -4.0520   23.7440 C   0  0  0  0  0  3  0  0  0  0  0  0
  -22.0840   -4.8360   22.5860 C   0  0  0  0  0  0  0  0  0  0  0  0
  -22.5960   -4.2860   21.4580 F   0  0  0  0  0  0  0  0  0  0  0  0
  -21.2580   -3.8540   26.0230 F   0  0  0  0  0  0  0  0  0  0  0  0
  -22.8090  -13.5420   21.2210 C   0  0  0  0  0  0  0  0  0  0  0  0
  -22.1200  -12.8200   22.0960 N   0  0  0  0  0  0  0  0  0  0  0  0
  -22.3500  -14.5860   20.7570 O   0  0  0  0  0  0  0  0  0  0  0  0
  -22.5030  -11.9750   22.4950 H   0  0  0  0  0  0  0  0  0  0  0  0
  -21.1950  -13.1160   22.3730 H   0  0  0  0  0  0  0  0  0  0  0  0
  -25.3580  -15.2350   20.3010 N   0  0  0  0  0  0  0  0  0  0  0  0
  -24.5630  -15.8540   20.4290 H   0  0  0  0  0  0  0  0  0  0  0  0
  -26.1240  -15.6640   19.8060 H   0  0  0  0  0  0  0  0  0  0  0  0
  -32.1480  -21.4270   22.0670 C   0  0  0  0  0  1  0  0  0  0  0  0
  -31.6880  -21.3190   20.6060 C   0  0  0  0  0  2  0  0  0  0  0  0
  -28.8720  -22.9090   20.8150 C   0  0  0  0  0  2  0  0  0  0  0  0
  -27.3580  -23.9350   18.9780 C   0  0  0  0  0  1  0  0  0  0  0  0
  -29.7190  -24.6090   19.0570 C   0  0  0  0  0  1  0  0  0  0  0  0
  -28.4740  -24.3830   19.9320 C   0  0  2  0  0  0  0  0  0  0  0  0
  -28.2880  -25.9300   20.4810 O   0  0  0  0  0  0  0  0  0  0  0  0
  -24.6310  -31.8810   23.2680 C   0  0  0  0  0  0  0  0  0  0  0  0
  -27.2520  -26.9930   20.3350 C   0  0  0  0  0  0  0  0  0  0  0  0
  -23.4750  -30.4780   21.6150 C   0  0  0  0  0  3  0  0  0  0  0  0
  -24.9520  -28.8720   20.2380 C   0  0  0  0  0  0  0  0  0  0  0  0
  -26.0460  -30.6840   21.5300 C   0  0  0  0  0  2  0  0  0  0  0  0
  -26.1260  -29.2750   20.8850 C   0  0  0  0  0  0  0  0  0  0  0  0
  -27.2660  -28.3550   20.9130 C   0  0  0  0  0  3  0  0  0  0  0  0
  -26.0420  -26.7510   19.6410 C   0  0  0  0  0  3  0  0  0  0  0  0
  -24.9350  -27.6290   19.5990 C   0  0  0  0  0  3  0  0  0  0  0  0
  -23.7330  -29.7900   20.2490 C   0  0  0  0  0  2  0  0  0  0  0  0
  -24.7380  -31.0390   22.1920 N   0  0  0  0  0  0  0  0  0  0  0  0
  -23.5300  -32.1790   23.7580 O   0  0  0  0  0  0  0  0  0  0  0  0
  -22.7550  -29.4860   22.5660 C   0  0  0  0  0  0  0  0  0  0  0  0
  -21.4240  -29.3420   22.4200 N   0  0  0  0  0  0  0  0  0  0  0  0
  -23.3980  -28.8500   23.4030 O   0  0  0  0  0  0  0  0  0  0  0  0
  -20.9580  -29.9030   21.7210 H   0  0  0  0  0  0  0  0  0  0  0  0
  -18.0080  -28.2230   22.9110 C   0  0  0  0  0  0  0  0  0  0  0  0
  -20.5740  -28.4190   23.1800 C   0  0  0  0  0  3  0  0  0  0  0  0
  -20.6390  -26.9910   22.5910 C   0  0  0  0  0  2  0  0  0  0  0  0
  -19.5310  -26.7080   21.5730 C   0  0  0  0  0  2  0  0  0  0  0  0
  -18.1520  -26.8780   22.2180 C   0  0  0  0  0  2  0  0  0  0  0  0
  -19.1450  -28.9540   23.3490 C   0  0  0  0  0  0  0  0  0  0  0  0
  -18.9560  -30.2120   23.9620 C   0  0  0  0  0  3  0  0  0  0  0  0
  -17.6630  -30.7400   24.1370 C   0  0  0  0  0  3  0  0  0  0  0  0
  -16.5410  -30.0060   23.7140 C   0  0  0  0  0  3  0  0  0  0  0  0
  -16.7140  -28.7500   23.1080 C   0  0  0  0  0  3  0  0  0  0  0  0
  -25.8880  -32.5250   23.9260 C   0  0  0  0  0  3  0  0  0  0  0  0
  -26.3430  -31.7830   25.2440 C   0  0  1  0  0  0  0  0  0  0  0  0
  -25.2020  -31.5780   26.2690 C   0  0  0  0  0  1  0  0  0  0  0  0
  -26.9340  -30.3920   24.9190 C   0  0  0  0  0  1  0  0  0  0  0  0
  -27.4670  -32.5900   25.9360 C   0  0  0  0  0  1  0  0  0  0  0  0
  -25.5740  -33.9340   24.2200 N   0  0  0  0  0  0  0  0  0  0  0  0
  -25.9150  -34.9740   23.4460 C   0  0  0  0  0  0  0  0  0  0  0  0
  -26.5910  -34.8470   22.4220 O   0  0  0  0  0  0  0  0  0  0  0  0
  -24.9730  -34.1050   25.0130 H   0  0  0  0  0  0  0  0  0  0  0  0
  -24.1980  -36.7720   23.0480 C   0  0  0  0  0  1  0  0  0  0  0  0
  -25.4330  -36.3760   23.8740 C   0  0  0  0  0  3  0  0  0  0  0  0
  -27.5550  -37.2840   24.7130 C   0  0  0  0  0  1  0  0  0  0  0  0
  -26.4730  -37.4210   23.7430 N   0  0  0  0  0  0  0  0  0  0  0  0
  -26.0680  -38.3480   23.8500 H   0  0  0  0  0  0  0  0  0  0  0  0
  1  3  1  0
  2  5  1  0
  3  5  2  0
  3 48  1  0
  4  6  1  0
  4  1  2  0
  5 47  1  0
  6  2  2  0
  7  4  1  0
  8 16  1  0
  9 14  1  0
 10 11  1  0
 10  9  1  0
 12 11  1  0
 12 21  1  0
 12 13  1  0
 14  8  1  0
 14 13  1  0
 15  8  2  0
 16  6  1  0
 16 17  1  0
 18 19  2  0
 19 38  1  0
 20 19  1  0
 20 23  1  0
 21 22  1  0
 21 18  1  0
 22 20  2  0
 23 24  1  0
 24 25  2  0
 26 29  1  0
 26 25  1  0
 27 26  2  0
 28 27  1  0
 28 23  2  0
 29 30  1  0
 30 31  1  0
 31 32  2  0
 33 32  1  0
 33 37  1  0
 34 33  2  0
 35 30  2  0
 35 34  1  0
 36 35  1  0
 38 39  1  0
 39 42  1  0
 39 41  1  0
 40 38  2  0
 43 44  1  0
 43 18  1  0
 45 43  1  0
 47 46  1  0
 51 49  1  6
 50 51  1  0
 51 52  1  0
 51 48  1  0
 53 64  2  0
 54 52  1  0
 54 59  1  0
 55 63  1  0
 55 65  1  0
 56 62  1  0
 56 58  1  0
 57 63  1  0
 58 59  2  0
 58 57  1  0
 60 54  2  0
 61 60  1  0
 61 56  2  0
 62 55  1  0
 63 53  1  0
 65 67  2  0
 66 65  1  0
 68 66  1  0
 69 78  2  0
 69 74  1  0
 70 66  1  0
 70 74  1  0
 71 70  1  0
 72 73  1  0
 72 71  1  0
 73 69  1  0
 74 75  2  0
 75 76  1  0
 77 76  2  0
 78 77  1  0
 79 53  1  0
 79 84  1  0
 79 80  1  0
 80 83  1  1
 80 81  1  0
 82 80  1  0
 84 87  1  0
 85 89  1  0
 85 84  1  0
 86 85  2  0
 89 88  1  0
 91 92  1  0
 91 89  1  0
 91 90  1  0
M  ISO  4   8 100  16 100  51 101  52 101
M  END
>  <TORSDO>  (68) 
F 19

>  <SCORE>  (68) 
-16.028

>  <name>  (68) 
67

>  <ligand_id>  (68) 
67

>  <original_smiles>  (68) 
[H]c1c([H])c([H])c2c(c1[H])C([H])([H])C([H])([H])C([H])([H])C2([H])N([H])C(=O)C1([H])N(C(=O)C([H])(N([H])C(=O)C([H])(N([H])C([H])([H])[H])C([H])([H])[H])C(C([H])([H])[H])(C([H])([H])[H])C([H])([H])[H])C([H])([H])c2c([H])c(OC(C([H])([H])[H])(C([H])([H])[H])C([H])([H])c3c([H])c(C([H])([H])[H])c(N([H])C(=O)N4C([H])([H])C([H])([H])C([H])([H])C([H])(n5nc(-c6c([H])c([H])c(Oc7c([H])c([H])c(F)c([H])c7F)c([H])c6[H])c(C(=O)N([H])[H])c5N([H])[H])C4([H])[H])c([H])c3C([H])([H])C([H])([H])[H])c([H])c([H])c2C1([H])[H]

>  <smiles>  (68) 
[H]c1c([H])c([H])c2c(c1[H])C([H])([H])C([H])([H])C([H])([H])C2([H])N([H])C(=O)C1([H])N(C(=O)C([H])(N([H])C(=O)C([H])(N([H])C([H])([H])[H])C([H])([H])[H])C(C([H])([H])[H])(C([H])([H])[H])C([H])([H])[H])C([H])([H])c2c([H])c(OC(C([H])([H])[H])(C([H])([H])[H])C([H])([H])c3c([H])c(C([H])([H])[H])c(N([H])C(=O)N4C([H])([H])C([H])([H])C([H])([H])C([H])(n5nc(-c6c([H])c([H])c(Oc7c([H])c([H])c(F)c([H])c7F)c([H])c6[H])c(C(=O)N([H])[H])c5N([H])[H])C4([H])[H])c([H])c3C([H])([H])C([H])([H])[H])c([H])c([H])c2C1([H])[H]

$$$$
68:0:0
     RDKit          3D

 93101  0  0  1  0  0  0  0  0999 V2000
  -30.7380  -20.1460   19.1680 C   0  0  0  0  0  3  0  0  0  0  0  0
  -30.4090  -21.5290   19.0620 C   0  0  0  0  0  0  0  0  0  0  0  0
  -30.2480  -19.3380   21.5130 C   0  0  0  0  0  2  0  0  0  0  0  0
  -29.0410  -20.2690   21.7540 C   0  0  0  0  0  2  0  0  0  0  0  0
  -29.0450  -22.1140   19.6290 C   0  0  0  0  0  2  0  0  0  0  0  0
  -29.9130  -19.1080   20.0290 C   0  0  1  0  0  0  0  0  0  0  0  0
  -28.7490  -20.4470   20.2570 C   0  0  1  0  0  0  0  0  0  0  0  0
  -27.3210  -20.0970   19.8480 C   0  0  0  0  0  1  0  0  0  0  0  0
  -30.5880  -15.9330   19.7750 C   0  0  0  0  0  0  0  0  0  0  0  0
  -30.6490  -13.3820   18.9340 C   0  0  0  0  0  2  0  0  0  0  0  0
  -29.6920  -12.9460   17.7870 C   0  0  0  0  0  2  0  0  0  0  0  0
  -28.3010  -12.5880   18.3300 C   0  0  0  0  0  2  0  0  0  0  0  0
  -27.8460  -13.5980   19.4060 C   0  0  0  0  0  3  0  0  0  0  0  0
  -28.9390  -13.9270   20.4510 C   0  0  0  0  0  2  0  0  0  0  0  0
  -30.0570  -14.5650   19.7130 N   0  0  0  0  0  0  0  0  0  0  0  0
  -31.8200  -15.8500   19.5910 O   0  0  0  0  0  0  0  0  0  0  0  0
  -29.8320  -17.3110   19.8460 N   0  0  0  0  0  0  0  0  0  0  0  0
  -28.8530  -17.0630   19.8530 H   0  0  0  0  0  0  0  0  0  0  0  0
  -25.5500  -14.1370   20.3390 C   0  0  0  0  0  0  0  0  0  0  0  0
  -24.5030  -13.3620   20.7500 C   0  0  0  0  0  0  0  0  0  0  0  0
  -24.9510  -12.0070   20.6490 C   0  0  0  0  0  0  0  0  0  0  0  0
  -26.5630  -13.2600   20.0040 N   0  0  0  0  0  0  0  0  0  0  0  0
  -26.2220  -11.9690   20.2560 N   0  0  0  0  0  0  0  0  0  0  0  0
  -24.2150  -10.7500   20.8460 C   0  0  0  0  0  0  0  0  0  0  0  0
  -24.6400   -9.7850   21.7860 C   0  0  0  0  0  3  0  0  0  0  0  0
  -23.9020   -8.5960   21.9740 C   0  0  0  0  0  3  0  0  0  0  0  0
  -22.7260   -8.3630   21.2230 C   0  0  0  0  0  0  0  0  0  0  0  0
  -22.3200   -9.3180   20.2740 C   0  0  0  0  0  3  0  0  0  0  0  0
  -23.0580  -10.4980   20.0840 C   0  0  0  0  0  3  0  0  0  0  0  0
  -21.9600   -7.2260   21.3200 O   0  0  0  0  0  0  0  0  0  0  0  0
  -21.8390   -6.5380   22.5010 C   0  0  0  0  0  0  0  0  0  0  0  0
  -21.2830   -7.1320   23.6560 C   0  0  0  0  0  3  0  0  0  0  0  0
  -21.1130   -6.3690   24.8270 C   0  0  0  0  0  3  0  0  0  0  0  0
  -21.4880   -5.0120   24.8460 C   0  0  0  0  0  0  0  0  0  0  0  0
  -22.0360   -4.4170   23.6950 C   0  0  0  0  0  3  0  0  0  0  0  0
  -22.2100   -5.1780   22.5250 C   0  0  0  0  0  0  0  0  0  0  0  0
  -22.7180   -4.5960   21.4140 F   0  0  0  0  0  0  0  0  0  0  0  0
  -21.3170   -4.2760   25.9680 F   0  0  0  0  0  0  0  0  0  0  0  0
  -23.1320  -13.8500   21.1100 C   0  0  0  0  0  0  0  0  0  0  0  0
  -22.4500  -13.1530   22.0110 N   0  0  0  0  0  0  0  0  0  0  0  0
  -22.6770  -14.8880   20.6280 O   0  0  0  0  0  0  0  0  0  0  0  0
  -22.8320  -12.3150   22.4230 H   0  0  0  0  0  0  0  0  0  0  0  0
  -21.5310  -13.4630   22.2930 H   0  0  0  0  0  0  0  0  0  0  0  0
  -25.7150  -15.5110   20.1900 N   0  0  0  0  0  0  0  0  0  0  0  0
  -24.9610  -16.1650   20.3650 H   0  0  0  0  0  0  0  0  0  0  0  0
  -26.5360  -15.9500   19.7960 H   0  0  0  0  0  0  0  0  0  0  0  0
  -31.2670  -22.4590   18.3270 C   0  0  0  0  0  0  0  0  0  0  0  0
  -32.4730  -21.9970   18.0090 N   0  0  0  0  0  0  0  0  0  0  0  0
  -30.9520  -23.6040   18.0100 O   0  0  0  0  0  0  0  0  0  0  0  0
  -32.7430  -21.0600   18.2670 H   0  0  0  0  0  0  0  0  0  0  0  0
  -33.1280  -22.5810   17.5120 H   0  0  0  0  0  0  0  0  0  0  0  0
  -28.5570  -23.9630   20.1420 C   0  0  0  0  0  1  0  0  0  0  0  0
  -28.5340  -25.7070   19.7550 O   0  0  0  0  0  0  0  0  0  0  0  0
  -24.8060  -31.8040   22.9750 C   0  0  0  0  0  0  0  0  0  0  0  0
  -27.5010  -26.8800   19.8330 C   0  0  0  0  0  0  0  0  0  0  0  0
  -23.6640  -30.4060   21.3090 C   0  0  0  0  0  3  0  0  0  0  0  0
  -25.1600  -28.8480   19.8480 C   0  0  0  0  0  0  0  0  0  0  0  0
  -26.2350  -30.6430   21.1770 C   0  0  0  0  0  2  0  0  0  0  0  0
  -26.3490  -29.2270   20.4830 C   0  0  0  0  0  0  0  0  0  0  0  0
  -27.5050  -28.2750   20.4370 C   0  0  0  0  0  3  0  0  0  0  0  0
  -26.2630  -26.7170   19.1580 C   0  0  0  0  0  3  0  0  0  0  0  0
  -25.1570  -27.6220   19.1620 C   0  0  0  0  0  3  0  0  0  0  0  0
  -23.9220  -29.7570   19.9190 C   0  0  0  0  0  2  0  0  0  0  0  0
  -24.9260  -30.9840   21.8740 N   0  0  0  0  0  0  0  0  0  0  0  0
  -23.7040  -32.0500   23.4980 O   0  0  0  0  0  0  0  0  0  0  0  0
  -22.9880  -29.3770   22.2560 C   0  0  0  0  0  0  0  0  0  0  0  0
  -21.6560  -29.1940   22.1510 N   0  0  0  0  0  0  0  0  0  0  0  0
  -23.6740  -28.7410   23.0600 O   0  0  0  0  0  0  0  0  0  0  0  0
  -21.1490  -29.7640   21.4890 H   0  0  0  0  0  0  0  0  0  0  0  0
  -18.3020  -27.9210   22.7360 C   0  0  0  0  0  0  0  0  0  0  0  0
  -20.8680  -28.2070   22.9020 C   0  0  0  0  0  3  0  0  0  0  0  0
  -20.9590  -26.8090   22.2460 C   0  0  0  0  0  2  0  0  0  0  0  0
  -19.8190  -26.5310   21.2630 C   0  0  0  0  0  2  0  0  0  0  0  0
  -18.4640  -26.6180   21.9710 C   0  0  0  0  0  2  0  0  0  0  0  0
  -19.4300  -28.6750   23.1590 C   0  0  0  0  0  0  0  0  0  0  0  0
  -19.2200  -29.8940   23.8400 C   0  0  0  0  0  3  0  0  0  0  0  0
  -17.9150  -30.3600   24.0970 C   0  0  0  0  0  3  0  0  0  0  0  0
  -16.8040  -29.6040   23.6860 C   0  0  0  0  0  3  0  0  0  0  0  0
  -16.9990  -28.3860   23.0120 C   0  0  0  0  0  3  0  0  0  0  0  0
  -26.0460  -32.4850   23.6320 C   0  0  0  0  0  3  0  0  0  0  0  0
  -25.6690  -33.8610   24.0150 N   0  0  0  0  0  0  0  0  0  0  0  0
  -25.9560  -34.9630   23.3100 C   0  0  0  0  0  0  0  0  0  0  0  0
  -26.6210  -34.9340   22.2730 O   0  0  0  0  0  0  0  0  0  0  0  0
  -25.0730  -33.9540   24.8240 H   0  0  0  0  0  0  0  0  0  0  0  0
  -24.1650  -36.7200   23.0590 C   0  0  0  0  0  1  0  0  0  0  0  0
  -25.4270  -36.3150   23.8400 C   0  0  0  0  0  3  0  0  0  0  0  0
  -27.5270  -37.2490   24.7070 C   0  0  0  0  0  1  0  0  0  0  0  0
  -26.4200  -37.4090   23.7670 N   0  0  0  0  0  0  0  0  0  0  0  0
  -25.9810  -38.3080   23.9470 H   0  0  0  0  0  0  0  0  0  0  0  0
  -26.5800  -31.7070   24.8980 C   0  0  1  0  0  0  0  0  0  0  0  0
  -25.4880  -31.4040   25.9510 C   0  0  0  0  0  1  0  0  0  0  0  0
  -27.2190  -30.3610   24.4950 C   0  0  0  0  0  1  0  0  0  0  0  0
  -27.6970  -32.5300   25.5850 C   0  0  0  0  0  1  0  0  0  0  0  0
  1  6  1  0
  2  1  2  0
  2  5  1  0
  3  4  1  0
  5  7  1  0
  6 17  1  6
  6  7  1  0
  6  3  1  0
  7  8  1  1
  7  4  1  0
  9 17  1  0
 10 15  1  0
 11 12  1  0
 11 10  1  0
 13 12  1  0
 13 22  1  0
 13 14  1  0
 15  9  1  0
 15 14  1  0
 16  9  2  0
 17 18  1  0
 19 20  2  0
 20 39  1  0
 21 20  1  0
 21 24  1  0
 22 23  1  0
 22 19  1  0
 23 21  2  0
 24 25  1  0
 25 26  2  0
 27 30  1  0
 27 26  1  0
 28 27  2  0
 29 28  1  0
 29 24  2  0
 30 31  1  0
 31 36  2  0
 31 32  1  0
 32 33  2  0
 33 34  1  0
 34 38  1  0
 35 34  2  0
 36 35  1  0
 37 36  1  0
 39 40  1  0
 40 43  1  0
 40 42  1  0
 41 39  2  0
 44 19  1  0
 44 45  1  0
 46 44  1  0
 47  2  1  0
 48 50  1  0
 48 47  1  0
 49 47  2  0
 51 48  1  0
 53 55  1  0
 53 52  1  0
 54 65  2  0
 55 60  1  0
 56 64  1  0
 56 66  1  0
 57 63  1  0
 57 59  1  0
 58 64  1  0
 59 58  1  0
 60 59  2  0
 61 62  1  0
 61 55  2  0
 62 57  2  0
 63 56  1  0
 64 54  1  0
 66 68  2  0
 67 66  1  0
 69 67  1  0
 70 79  2  0
 70 75  1  0
 71 67  1  0
 71 75  1  0
 72 71  1  0
 73 74  1  0
 73 72  1  0
 74 70  1  0
 75 76  2  0
 76 77  1  0
 78 77  2  0
 79 78  1  0
 80 54  1  0
 80 81  1  0
 80 90  1  0
 81 84  1  0
 82 86  1  0
 82 81  1  0
 83 82  2  0
 86 85  1  0
 88 86  1  0
 88 89  1  0
 88 87  1  0
 90 93  1  1
 90 91  1  0
 92 90  1  0
M  ISO  4   9 100  17 100  52 101  53 101
M  END
>  <TORSDO>  (69) 
F 18

>  <SCORE>  (69) 
-14.368

>  <name>  (69) 
68

>  <ligand_id>  (69) 
68

>  <original_smiles>  (69) 
[H]C1=C(C(=O)N([H])[H])C([H])(C([H])([H])Oc2c([H])c([H])c3c(c2[H])C([H])([H])N(C(=O)C([H])(N([H])C(=O)C([H])(N([H])C([H])([H])[H])C([H])([H])[H])C(C([H])([H])[H])(C([H])([H])[H])C([H])([H])[H])C([H])(C(=O)N([H])C2([H])c4c([H])c([H])c([H])c([H])c4C([H])([H])C([H])([H])C2([H])[H])C3([H])[H])C2(C([H])([H])[H])C([H])([H])C([H])([H])C12N([H])C(=O)N1C([H])([H])C([H])([H])C([H])([H])C([H])(n2nc(-c3c([H])c([H])c(Oc4c([H])c([H])c(F)c([H])c4F)c([H])c3[H])c(C(=O)N([H])[H])c2N([H])[H])C1([H])[H]

>  <smiles>  (69) 
[H]C1=C(C(=O)N([H])[H])C([H])(C([H])([H])Oc2c([H])c([H])c3c(c2[H])C([H])([H])N(C(=O)C([H])(N([H])C(=O)C([H])(N([H])C([H])([H])[H])C([H])([H])[H])C(C([H])([H])[H])(C([H])([H])[H])C([H])([H])[H])C([H])(C(=O)N([H])C2([H])c4c([H])c([H])c([H])c([H])c4C([H])([H])C([H])([H])C2([H])[H])C3([H])[H])C2(C([H])([H])[H])C([H])([H])C([H])([H])C12N([H])C(=O)N1C([H])([H])C([H])([H])C([H])([H])C([H])(n2nc(-c3c([H])c([H])c(Oc4c([H])c([H])c(F)c([H])c4F)c([H])c3[H])c(C(=O)N([H])[H])c2N([H])[H])C1([H])[H]

$$$$
69:0:0
     RDKit          3D

 90 99  0  0  1  0  0  0  0  0999 V2000
  -29.9640  -21.5450   20.9470 C   0  0  0  0  0  3  0  0  0  0  0  0
  -28.8160  -17.9090   19.9470 C   0  0  0  0  0  2  0  0  0  0  0  0
  -31.3350  -19.4500   20.7890 C   0  0  0  0  0  2  0  0  0  0  0  0
  -30.5540  -18.1840   21.1720 C   0  0  0  0  0  3  0  0  0  0  0  0
  -30.1250  -17.1030   20.1370 C   0  0  0  0  0  3  0  0  0  0  0  0
  -29.2940  -19.0260   20.9140 C   0  0  0  0  0  3  0  0  0  0  0  0
  -30.1060  -20.1480   20.3670 N   0  0  1  0  0  4  0  0  0  0  0  0
  -30.0650  -20.1740   19.3590 H   0  0  0  0  0  0  0  0  0  0  0  0
  -30.6590  -14.6150   20.3000 C   0  0  0  0  0  0  0  0  0  0  0  0
  -30.3730  -12.4150   19.2070 C   0  0  0  0  0  2  0  0  0  0  0  0
  -29.4250  -12.6000   18.0030 C   0  0  0  0  0  2  0  0  0  0  0  0
  -27.9540  -12.4560   18.4430 C   0  0  0  0  0  2  0  0  0  0  0  0
  -27.6220  -13.2970   19.7040 C   0  0  0  0  0  3  0  0  0  0  0  0
  -28.6890  -13.1090   20.8080 C   0  0  0  0  0  2  0  0  0  0  0  0
  -30.0030  -13.4180   20.2240 N   0  0  0  0  0  0  0  0  0  0  0  0
  -31.8080  -14.7550   19.8730 O   0  0  0  0  0  0  0  0  0  0  0  0
  -29.9050  -15.7040   20.6270 N   0  0  0  0  0  0  0  0  0  0  0  0
  -28.9900  -15.4910   20.9940 H   0  0  0  0  0  0  0  0  0  0  0  0
  -25.2320  -13.9030   20.4310 C   0  0  0  0  0  0  0  0  0  0  0  0
  -24.1660  -13.1320   20.8110 C   0  0  0  0  0  0  0  0  0  0  0  0
  -24.6260  -11.7800   20.7820 C   0  0  0  0  0  0  0  0  0  0  0  0
  -26.2740  -13.0200   20.1960 N   0  0  0  0  0  0  0  0  0  0  0  0
  -25.9140  -11.7390   20.4660 N   0  0  0  0  0  0  0  0  0  0  0  0
  -23.8990  -10.5200   20.9810 C   0  0  0  0  0  0  0  0  0  0  0  0
  -24.3320   -9.5570   21.9200 C   0  0  0  0  0  3  0  0  0  0  0  0
  -23.6050   -8.3620   22.1070 C   0  0  0  0  0  3  0  0  0  0  0  0
  -22.4320   -8.1190   21.3550 C   0  0  0  0  0  0  0  0  0  0  0  0
  -22.0170   -9.0710   20.4060 C   0  0  0  0  0  3  0  0  0  0  0  0
  -22.7440  -10.2580   20.2170 C   0  0  0  0  0  3  0  0  0  0  0  0
  -21.6770   -6.9760   21.4510 O   0  0  0  0  0  0  0  0  0  0  0  0
  -21.6270   -6.2410   22.6090 C   0  0  0  0  0  0  0  0  0  0  0  0
  -21.1920   -6.8040   23.8300 C   0  0  0  0  0  3  0  0  0  0  0  0
  -21.0890   -5.9970   24.9800 C   0  0  0  0  0  3  0  0  0  0  0  0
  -21.4090   -4.6280   24.9110 C   0  0  0  0  0  0  0  0  0  0  0  0
  -21.8360   -4.0640   23.6950 C   0  0  0  0  0  3  0  0  0  0  0  0
  -21.9410   -4.8690   22.5470 C   0  0  0  0  0  0  0  0  0  0  0  0
  -22.3320   -4.3170   21.3740 F   0  0  0  0  0  0  0  0  0  0  0  0
  -21.3030   -3.8490   26.0130 F   0  0  0  0  0  0  0  0  0  0  0  0
  -22.7700  -13.6130   21.0870 C   0  0  0  0  0  0  0  0  0  0  0  0
  -22.0460  -12.9220   21.9590 N   0  0  0  0  0  0  0  0  0  0  0  0
  -22.3310  -14.6370   20.5650 O   0  0  0  0  0  0  0  0  0  0  0  0
  -22.4110  -12.0950   22.4050 H   0  0  0  0  0  0  0  0  0  0  0  0
  -21.1090  -13.2260   22.1860 H   0  0  0  0  0  0  0  0  0  0  0  0
  -25.3960  -15.2720   20.2420 N   0  0  0  0  0  0  0  0  0  0  0  0
  -24.6250  -15.9230   20.3390 H   0  0  0  0  0  0  0  0  0  0  0  0
  -26.2310  -15.7020   19.8670 H   0  0  0  0  0  0  0  0  0  0  0  0
  -29.0490  -22.5840   20.1840 C   0  0  0  0  0  3  0  0  0  0  0  0
  -29.2130  -24.1100   20.5910 C   0  0  0  0  0  3  0  0  0  0  0  0
  -28.1670  -25.1170   19.9790 C   0  0  0  0  0  3  0  0  0  0  0  0
  -28.3360  -26.5500   20.2570 O   0  0  0  0  0  0  0  0  0  0  0  0
  -24.5880  -31.9040   23.2380 C   0  0  0  0  0  0  0  0  0  0  0  0
  -27.2050  -27.3720   20.1830 C   0  0  0  0  0  0  0  0  0  0  0  0
  -23.3840  -30.5080   21.5930 C   0  0  0  0  0  3  0  0  0  0  0  0
  -24.8350  -28.9630   20.1690 C   0  0  0  0  0  0  0  0  0  0  0  0
  -25.9210  -30.8310   21.4150 C   0  0  0  0  0  2  0  0  0  0  0  0
  -26.0000  -29.4550   20.7700 C   0  0  0  0  0  0  0  0  0  0  0  0
  -27.1850  -28.6700   20.7730 C   0  0  0  0  0  3  0  0  0  0  0  0
  -26.0200  -26.9320   19.5460 C   0  0  0  0  0  3  0  0  0  0  0  0
  -24.8460  -27.7050   19.5470 C   0  0  0  0  0  3  0  0  0  0  0  0
  -23.5980  -29.8340   20.2130 C   0  0  0  0  0  2  0  0  0  0  0  0
  -24.6500  -31.0980   22.1390 N   0  0  0  0  0  0  0  0  0  0  0  0
  -23.5050  -32.1830   23.7710 O   0  0  0  0  0  0  0  0  0  0  0  0
  -22.7200  -29.4910   22.5510 C   0  0  0  0  0  0  0  0  0  0  0  0
  -21.3940  -29.3170   22.4210 N   0  0  0  0  0  0  0  0  0  0  0  0
  -23.3940  -28.8610   23.3690 O   0  0  0  0  0  0  0  0  0  0  0  0
  -20.9090  -29.8760   21.7320 H   0  0  0  0  0  0  0  0  0  0  0  0
  -18.0080  -28.1460   22.9150 C   0  0  0  0  0  0  0  0  0  0  0  0
  -20.5680  -28.3850   23.1890 C   0  0  0  0  0  3  0  0  0  0  0  0
  -20.6600  -26.9540   22.6100 C   0  0  0  0  0  2  0  0  0  0  0  0
  -19.5570  -26.6410   21.5940 C   0  0  0  0  0  2  0  0  0  0  0  0
  -18.1760  -26.7960   22.2380 C   0  0  0  0  0  2  0  0  0  0  0  0
  -19.1330  -28.8980   23.3470 C   0  0  0  0  0  0  0  0  0  0  0  0
  -18.9220  -30.1620   23.9410 C   0  0  0  0  0  3  0  0  0  0  0  0
  -17.6210  -30.6730   24.1070 C   0  0  0  0  0  3  0  0  0  0  0  0
  -16.5110  -29.9170   23.6910 C   0  0  0  0  0  3  0  0  0  0  0  0
  -16.7060  -28.6550   23.1010 C   0  0  0  0  0  3  0  0  0  0  0  0
  -25.8730  -32.5300   23.8630 C   0  0  0  0  0  3  0  0  0  0  0  0
  -26.3810  -31.7590   25.1430 C   0  0  1  0  0  0  0  0  0  0  0  0
  -25.2820  -31.5290   26.2060 C   0  0  0  0  0  1  0  0  0  0  0  0
  -26.9600  -30.3790   24.7550 C   0  0  0  0  0  1  0  0  0  0  0  0
  -27.5320  -32.5500   25.8090 C   0  0  0  0  0  1  0  0  0  0  0  0
  -25.5690  -33.9300   24.1890 N   0  0  0  0  0  0  0  0  0  0  0  0
  -25.9060  -34.9800   23.4270 C   0  0  0  0  0  0  0  0  0  0  0  0
  -26.5770  -34.8710   22.3970 O   0  0  0  0  0  0  0  0  0  0  0  0
  -24.9760  -34.0890   24.9890 H   0  0  0  0  0  0  0  0  0  0  0  0
  -24.1860  -36.7800   23.0640 C   0  0  0  0  0  1  0  0  0  0  0  0
  -25.4230  -36.3710   23.8800 C   0  0  0  0  0  3  0  0  0  0  0  0
  -27.5590  -37.2470   24.7170 C   0  0  0  0  0  1  0  0  0  0  0  0
  -26.4600  -37.4200   23.7690 N   0  0  0  0  0  0  0  0  0  0  0  0
  -26.0570  -38.3410   23.9180 H   0  0  0  0  0  0  0  0  0  0  0  0
  2  5  1  0
  4  3  1  0
  5 17  1  0
  5  4  1  0
  6  2  1  0
  6  4  1  0
  7  3  1  0
  7  6  1  0
  7  1  1  0
  7  8  1  6
  9 17  1  0
 10 15  1  0
 11 12  1  0
 11 10  1  0
 13 12  1  0
 13 22  1  0
 13 14  1  0
 15  9  1  0
 15 14  1  0
 16  9  2  0
 17 18  1  0
 19 20  2  0
 20 39  1  0
 21 20  1  0
 21 24  1  0
 22 19  1  0
 22 23  1  0
 23 21  2  0
 24 25  1  0
 25 26  2  0
 27 30  1  0
 27 26  1  0
 28 27  2  0
 29 28  1  0
 29 24  2  0
 30 31  1  0
 31 32  1  0
 32 33  2  0
 34 33  1  0
 34 38  1  0
 35 34  2  0
 36 31  2  0
 36 35  1  0
 37 36  1  0
 39 40  1  0
 40 43  1  0
 40 42  1  0
 41 39  2  0
 44 45  1  0
 44 19  1  0
 46 44  1  0
 47 48  1  0
 47  1  2  0
 49 50  1  0
 49 48  2  0
 51 62  2  0
 52 50  1  0
 52 57  1  0
 53 61  1  0
 53 63  1  0
 54 60  1  0
 54 56  1  0
 55 61  1  0
 56 57  2  0
 56 55  1  0
 58 59  1  0
 58 52  2  0
 59 54  2  0
 60 53  1  0
 61 51  1  0
 63 65  2  0
 64 63  1  0
 66 64  1  0
 67 76  2  0
 67 72  1  0
 68 64  1  0
 68 72  1  0
 69 68  1  0
 70 71  1  0
 70 69  1  0
 71 67  1  0
 72 73  2  0
 73 74  1  0
 75 74  2  0
 76 75  1  0
 77 51  1  0
 77 82  1  0
 77 78  1  0
 78 81  1  1
 78 79  1  0
 80 78  1  0
 82 85  1  0
 83 87  1  0
 83 82  1  0
 84 83  2  0
 87 86  1  0
 89 87  1  0
 89 90  1  0
 89 88  1  0
M  ISO  4   9 100  17 100  49 101  50 101
M  END
>  <TORSDO>  (70) 
F 20

>  <SCORE>  (70) 
-13.795

>  <name>  (70) 
69

>  <ligand_id>  (70) 
69

>  <original_smiles>  (70) 
[H]c1c([H])c([H])c2c(c1[H])C([H])([H])C([H])([H])C([H])([H])C2([H])N([H])C(=O)C1([H])N(C(=O)C([H])(N([H])C(=O)C([H])(N([H])C([H])([H])[H])C([H])([H])[H])C(C([H])([H])[H])(C([H])([H])[H])C([H])([H])[H])C([H])([H])c2c([H])c(OC([H])([H])C([H])([H])C([H])([H])C([H])([H])[N+]3([H])C([H])([H])C4([H])C([H])(N([H])C(=O)N5C([H])([H])C([H])([H])C([H])([H])C([H])(n6nc(-c7c([H])c([H])c(Oc8c([H])c([H])c(F)c([H])c8F)c([H])c7[H])c(C(=O)N([H])[H])c6N([H])[H])C5([H])[H])C([H])([H])C43[H])c([H])c([H])c2C1([H])[H]

>  <smiles>  (70) 
[H]c1c([H])c([H])c2c(c1[H])C([H])([H])C([H])([H])C([H])([H])C2([H])N([H])C(=O)C1([H])N(C(=O)C([H])(N([H])C(=O)C([H])(N([H])C([H])([H])[H])C([H])([H])[H])C(C([H])([H])[H])(C([H])([H])[H])C([H])([H])[H])C([H])([H])c2c([H])c(OC([H])([H])C([H])([H])C([H])([H])C([H])([H])[N+]3([H])C([H])([H])C4([H])C([H])(N([H])C(=O)N5C([H])([H])C([H])([H])C([H])([H])C([H])(n6nc(-c7c([H])c([H])c(Oc8c([H])c([H])c(F)c([H])c8F)c([H])c7[H])c(C(=O)N([H])[H])c6N([H])[H])C5([H])[H])C([H])([H])C43[H])c([H])c([H])c2C1([H])[H]

$$$$
70:0:0
     RDKit          3D

 89 98  0  0  1  0  0  0  0  0999 V2000
  -27.5890  -20.2000   18.0940 C   0  0  0  0  0  2  0  0  0  0  0  0
  -29.1940  -19.5600   20.6920 C   0  0  0  0  0  2  0  0  0  0  0  0
  -29.1410  -18.1650   18.5230 C   0  0  0  0  0  2  0  0  0  0  0  0
  -28.8080  -20.9420   18.5340 C   0  0  0  0  0  3  0  0  0  0  0  0
  -29.1740  -21.1740   19.9860 C   0  0  0  0  0  3  0  0  0  0  0  0
  -29.7830  -18.0890   19.9330 C   0  0  0  0  0  3  0  0  0  0  0  0
  -28.9570  -19.5600   17.8540 C   0  0  2  0  0  0  0  0  0  0  0  0
  -29.5060  -19.5300   16.4380 C   0  0  0  0  0  1  0  0  0  0  0  0
  -30.4590  -15.2450   20.2230 C   0  0  0  0  0  0  0  0  0  0  0  0
  -30.4220  -12.8060   19.3670 C   0  0  0  0  0  2  0  0  0  0  0  0
  -29.4920  -12.6350   18.1390 C   0  0  0  0  0  2  0  0  0  0  0  0
  -28.0440  -12.3710   18.5890 C   0  0  0  0  0  2  0  0  0  0  0  0
  -27.6100  -13.3230   19.7310 C   0  0  0  0  0  3  0  0  0  0  0  0
  -28.6680  -13.4500   20.8490 C   0  0  0  0  0  2  0  0  0  0  0  0
  -29.9030  -13.9390   20.2150 N   0  0  0  0  0  0  0  0  0  0  0  0
  -31.6560  -15.2690   19.9030 O   0  0  0  0  0  0  0  0  0  0  0  0
  -29.6870  -16.4920   20.3900 N   0  0  0  0  0  0  0  0  0  0  0  0
  -28.7650  -16.2710   20.7390 H   0  0  0  0  0  0  0  0  0  0  0  0
  -25.2440  -13.8720   20.5080 C   0  0  0  0  0  0  0  0  0  0  0  0
  -24.1890  -13.0900   20.8870 C   0  0  0  0  0  0  0  0  0  0  0  0
  -24.6600  -11.7420   20.8440 C   0  0  0  0  0  0  0  0  0  0  0  0
  -26.2860  -13.0010   20.2500 N   0  0  0  0  0  0  0  0  0  0  0  0
  -25.9480  -11.7140   20.5190 N   0  0  0  0  0  0  0  0  0  0  0  0
  -23.9380  -10.4760   21.0360 C   0  0  0  0  0  0  0  0  0  0  0  0
  -24.3740   -9.5100   21.9690 C   0  0  0  0  0  3  0  0  0  0  0  0
  -23.6500   -8.3120   22.1510 C   0  0  0  0  0  3  0  0  0  0  0  0
  -22.4760   -8.0700   21.3980 C   0  0  0  0  0  0  0  0  0  0  0  0
  -22.0590   -9.0260   20.4540 C   0  0  0  0  0  3  0  0  0  0  0  0
  -22.7830  -10.2150   20.2710 C   0  0  0  0  0  3  0  0  0  0  0  0
  -21.7230   -6.9240   21.4890 O   0  0  0  0  0  0  0  0  0  0  0  0
  -21.6650   -6.1910   22.6470 C   0  0  0  0  0  0  0  0  0  0  0  0
  -21.2030   -6.7480   23.8600 C   0  0  0  0  0  3  0  0  0  0  0  0
  -21.0940   -5.9400   25.0090 C   0  0  0  0  0  3  0  0  0  0  0  0
  -21.4360   -4.5760   24.9460 C   0  0  0  0  0  0  0  0  0  0  0  0
  -21.8910   -4.0190   23.7380 C   0  0  0  0  0  3  0  0  0  0  0  0
  -22.0010   -4.8240   22.5920 C   0  0  0  0  0  0  0  0  0  0  0  0
  -22.4190   -4.2760   21.4250 F   0  0  0  0  0  0  0  0  0  0  0  0
  -21.3250   -3.7980   26.0480 F   0  0  0  0  0  0  0  0  0  0  0  0
  -22.7930  -13.5610   21.1710 C   0  0  0  0  0  0  0  0  0  0  0  0
  -22.0740  -12.8580   22.0370 N   0  0  0  0  0  0  0  0  0  0  0  0
  -22.3500  -14.5900   20.6610 O   0  0  0  0  0  0  0  0  0  0  0  0
  -22.4450  -12.0260   22.4710 H   0  0  0  0  0  0  0  0  0  0  0  0
  -21.1370  -13.1570   22.2710 H   0  0  0  0  0  0  0  0  0  0  0  0
  -25.3980  -15.2440   20.3340 N   0  0  0  0  0  0  0  0  0  0  0  0
  -24.6240  -15.8910   20.4520 H   0  0  0  0  0  0  0  0  0  0  0  0
  -26.2280  -15.6860   19.9600 H   0  0  0  0  0  0  0  0  0  0  0  0
  -28.5860  -22.7630   20.5810 C   0  0  0  0  0  2  0  0  0  0  0  0
  -28.2610  -24.3550   19.8270 C   0  0  0  0  0  2  0  0  0  0  0  0
  -28.2320  -25.9220   20.3140 O   0  0  0  0  0  0  0  0  0  0  0  0
  -24.6160  -31.8320   23.1940 C   0  0  0  0  0  0  0  0  0  0  0  0
  -27.2040  -26.9870   20.1860 C   0  0  0  0  0  0  0  0  0  0  0  0
  -23.4330  -30.4320   21.5490 C   0  0  0  0  0  3  0  0  0  0  0  0
  -24.8920  -28.8370   20.1290 C   0  0  0  0  0  0  0  0  0  0  0  0
  -25.9960  -30.6580   21.4130 C   0  0  0  0  0  2  0  0  0  0  0  0
  -26.0720  -29.2520   20.7560 C   0  0  0  0  0  0  0  0  0  0  0  0
  -27.2180  -28.3440   20.7660 C   0  0  0  0  0  3  0  0  0  0  0  0
  -25.9980  -26.7180   19.5000 C   0  0  0  0  0  3  0  0  0  0  0  0
  -24.8780  -27.5900   19.4800 C   0  0  0  0  0  3  0  0  0  0  0  0
  -23.6680  -29.7500   20.1730 C   0  0  0  0  0  2  0  0  0  0  0  0
  -24.7020  -31.0010   22.1050 N   0  0  0  0  0  0  0  0  0  0  0  0
  -23.5250  -32.1180   23.7120 O   0  0  0  0  0  0  0  0  0  0  0  0
  -22.7400  -29.4340   22.5130 C   0  0  0  0  0  0  0  0  0  0  0  0
  -21.4080  -29.2750   22.3910 N   0  0  0  0  0  0  0  0  0  0  0  0
  -23.4050  -28.8020   23.3370 O   0  0  0  0  0  0  0  0  0  0  0  0
  -20.9250  -29.8350   21.7030 H   0  0  0  0  0  0  0  0  0  0  0  0
  -18.0210  -28.0890   22.9130 C   0  0  0  0  0  0  0  0  0  0  0  0
  -20.5840  -28.3380   23.1610 C   0  0  0  0  0  3  0  0  0  0  0  0
  -20.6730  -26.9080   22.5760 C   0  0  0  0  0  2  0  0  0  0  0  0
  -19.5610  -26.6010   21.5660 C   0  0  0  0  0  2  0  0  0  0  0  0
  -18.1850  -26.7460   22.2210 C   0  0  0  0  0  2  0  0  0  0  0  0
  -19.1460  -28.8430   23.3400 C   0  0  0  0  0  0  0  0  0  0  0  0
  -18.9360  -30.0980   23.9500 C   0  0  0  0  0  3  0  0  0  0  0  0
  -17.6340  -30.6010   24.1370 C   0  0  0  0  0  3  0  0  0  0  0  0
  -16.5230  -29.8450   23.7230 C   0  0  0  0  0  3  0  0  0  0  0  0
  -16.7180  -28.5900   23.1180 C   0  0  0  0  0  3  0  0  0  0  0  0
  -25.8840  -32.4780   23.8320 C   0  0  0  0  0  3  0  0  0  0  0  0
  -25.5640  -33.8780   24.1570 N   0  0  0  0  0  0  0  0  0  0  0  0
  -25.9020  -34.9370   23.4090 C   0  0  0  0  0  0  0  0  0  0  0  0
  -26.5770  -34.8380   22.3830 O   0  0  0  0  0  0  0  0  0  0  0  0
  -24.9630  -34.0280   24.9540 H   0  0  0  0  0  0  0  0  0  0  0  0
  -24.1790  -36.7410   23.0560 C   0  0  0  0  0  1  0  0  0  0  0  0
  -25.4140  -36.3260   23.8720 C   0  0  0  0  0  3  0  0  0  0  0  0
  -27.5420  -37.2090   24.7240 C   0  0  0  0  0  1  0  0  0  0  0  0
  -26.4500  -37.3790   23.7700 N   0  0  0  0  0  0  0  0  0  0  0  0
  -26.0430  -38.3000   23.9130 H   0  0  0  0  0  0  0  0  0  0  0  0
  -26.3810  -31.7200   25.1250 C   0  0  1  0  0  0  0  0  0  0  0  0
  -25.2730  -31.4960   26.1810 C   0  0  0  0  0  1  0  0  0  0  0  0
  -26.9670  -30.3360   24.7640 C   0  0  0  0  0  1  0  0  0  0  0  0
  -27.5250  -32.5190   25.7940 C   0  0  0  0  0  1  0  0  0  0  0  0
  3  6  1  0
  4  1  1  0
  4  5  1  0
  5 47  1  0
  5  2  1  0
  6 17  1  0
  6  2  1  0
  7  8  1  6
  7  1  1  0
  7  3  1  0
  7  4  1  0
  9 17  1  0
 10 15  1  0
 11 12  1  0
 11 10  1  0
 13 12  1  0
 13 22  1  0
 13 14  1  0
 15  9  1  0
 15 14  1  0
 16  9  2  0
 17 18  1  0
 19 20  2  0
 20 39  1  0
 21 20  1  0
 21 24  1  0
 22 19  1  0
 22 23  1  0
 23 21  2  0
 24 25  1  0
 25 26  2  0
 27 30  1  0
 27 26  1  0
 28 27  2  0
 29 28  1  0
 29 24  2  0
 30 31  1  0
 31 32  1  0
 32 33  2  0
 34 33  1  0
 34 38  1  0
 35 34  2  0
 36 31  2  0
 36 35  1  0
 37 36  1  0
 39 40  1  0
 40 43  1  0
 40 42  1  0
 41 39  2  0
 44 45  1  0
 44 19  1  0
 46 44  1  0
 48 49  1  0
 48 47  1  0
 50 61  2  0
 51 49  1  0
 51 56  1  0
 52 60  1  0
 52 62  1  0
 53 59  1  0
 53 55  1  0
 54 60  1  0
 55 56  2  0
 55 54  1  0
 57 51  2  0
 58 57  1  0
 58 53  2  0
 59 52  1  0
 60 50  1  0
 62 64  2  0
 63 62  1  0
 65 63  1  0
 66 75  2  0
 66 71  1  0
 67 63  1  0
 67 71  1  0
 68 67  1  0
 69 70  1  0
 69 68  1  0
 70 66  1  0
 71 72  2  0
 72 73  1  0
 74 73  2  0
 75 74  1  0
 76 50  1  0
 76 77  1  0
 76 86  1  0
 77 80  1  0
 78 82  1  0
 78 77  1  0
 79 78  2  0
 82 81  1  0
 84 82  1  0
 84 85  1  0
 84 83  1  0
 86 89  1  1
 86 87  1  0
 88 86  1  0
M  ISO  4   9 100  17 100  48 101  49 101
M  END
>  <TORSDO>  (71) 
F 18

>  <SCORE>  (71) 
-15.774

>  <name>  (71) 
70

>  <ligand_id>  (71) 
70

>  <original_smiles>  (71) 
[H]c1c([H])c([H])c2c(c1[H])C([H])([H])C([H])([H])C([H])([H])C2([H])N([H])C(=O)C1([H])N(C(=O)C([H])(N([H])C(=O)C([H])(N([H])C([H])([H])[H])C([H])([H])[H])C(C([H])([H])[H])(C([H])([H])[H])C([H])([H])[H])C([H])([H])c2c([H])c(OC([H])([H])C([H])([H])C3([H])C([H])([H])C([H])(N([H])C(=O)N4C([H])([H])C([H])([H])C([H])([H])C([H])(n5nc(-c6c([H])c([H])c(Oc7c([H])c([H])c(F)c([H])c7F)c([H])c6[H])c(C(=O)N([H])[H])c5N([H])[H])C4([H])[H])C([H])([H])C4(C([H])([H])[H])C([H])([H])C34[H])c([H])c([H])c2C1([H])[H]

>  <smiles>  (71) 
[H]c1c([H])c([H])c2c(c1[H])C([H])([H])C([H])([H])C([H])([H])C2([H])N([H])C(=O)C1([H])N(C(=O)C([H])(N([H])C(=O)C([H])(N([H])C([H])([H])[H])C([H])([H])[H])C(C([H])([H])[H])(C([H])([H])[H])C([H])([H])[H])C([H])([H])c2c([H])c(OC([H])([H])C([H])([H])C3([H])C([H])([H])C([H])(N([H])C(=O)N4C([H])([H])C([H])([H])C([H])([H])C([H])(n5nc(-c6c([H])c([H])c(Oc7c([H])c([H])c(F)c([H])c7F)c([H])c6[H])c(C(=O)N([H])[H])c5N([H])[H])C4([H])[H])C([H])([H])C4(C([H])([H])[H])C([H])([H])C34[H])c([H])c([H])c2C1([H])[H]

$$$$
71:0:0
     RDKit          3D

 91100  0  0  1  0  0  0  0  0999 V2000
  -27.3130  -20.9600   20.1300 C   0  0  0  0  0  3  0  0  0  0  0  0
  -27.2890  -22.2950   19.8340 C   0  0  0  0  0  3  0  0  0  0  0  0
  -28.4530  -20.1250   20.6690 C   0  0  0  0  0  0  0  0  0  0  0  0
  -28.4690  -23.2900   19.8340 C   0  0  0  0  0  0  0  0  0  0  0  0
  -29.8100  -22.3420   20.0430 C   0  0  0  0  0  0  0  0  0  0  0  0
  -29.7900  -20.7590   20.5230 C   0  0  0  0  0  0  0  0  0  0  0  0
  -29.4770  -19.2680   19.8750 C   0  0  0  0  0  3  0  0  0  0  0  0
  -30.7350  -22.4870   18.8240 C   0  0  0  0  0  0  0  0  0  0  0  0
  -30.5090  -21.5650   17.6340 C   0  0  0  0  0  1  0  0  0  0  0  0
  -31.6140  -23.3520   18.7910 O   0  0  0  0  0  0  0  0  0  0  0  0
  -28.1340  -24.7820   20.5990 C   0  0  0  0  0  2  0  0  0  0  0  0
  -28.3350  -26.2830   20.1980 O   0  0  0  0  0  0  0  0  0  0  0  0
  -24.6190  -31.9290   23.2480 C   0  0  0  0  0  0  0  0  0  0  0  0
  -27.2600  -27.2460   20.2110 C   0  0  0  0  0  0  0  0  0  0  0  0
  -23.4400  -30.5230   21.6030 C   0  0  0  0  0  3  0  0  0  0  0  0
  -24.9110  -28.9630   20.1820 C   0  0  0  0  0  0  0  0  0  0  0  0
  -25.9930  -30.8180   21.4420 C   0  0  0  0  0  2  0  0  0  0  0  0
  -26.0860  -29.4260   20.7890 C   0  0  0  0  0  0  0  0  0  0  0  0
  -27.2620  -28.5850   20.7830 C   0  0  0  0  0  3  0  0  0  0  0  0
  -26.0550  -26.8810   19.5780 C   0  0  0  0  0  3  0  0  0  0  0  0
  -24.9080  -27.7040   19.5630 C   0  0  0  0  0  3  0  0  0  0  0  0
  -23.6720  -29.8470   20.2240 C   0  0  0  0  0  2  0  0  0  0  0  0
  -24.7050  -31.1130   22.1530 N   0  0  0  0  0  0  0  0  0  0  0  0
  -23.5290  -32.1980   23.7730 O   0  0  0  0  0  0  0  0  0  0  0  0
  -22.7740  -29.5070   22.5640 C   0  0  0  0  0  0  0  0  0  0  0  0
  -21.4470  -29.3190   22.4350 N   0  0  0  0  0  0  0  0  0  0  0  0
  -23.4520  -28.8880   23.3880 O   0  0  0  0  0  0  0  0  0  0  0  0
  -20.9550  -29.8680   21.7440 H   0  0  0  0  0  0  0  0  0  0  0  0
  -18.0790  -28.0800   22.9370 C   0  0  0  0  0  0  0  0  0  0  0  0
  -20.6350  -28.3690   23.2020 C   0  0  0  0  0  3  0  0  0  0  0  0
  -20.7530  -26.9400   22.6220 C   0  0  0  0  0  2  0  0  0  0  0  0
  -19.6530  -26.6090   21.6100 C   0  0  0  0  0  2  0  0  0  0  0  0
  -18.2700  -26.7380   22.2540 C   0  0  0  0  0  2  0  0  0  0  0  0
  -19.1910  -28.8530   23.3700 C   0  0  0  0  0  0  0  0  0  0  0  0
  -18.9570  -30.1100   23.9680 C   0  0  0  0  0  3  0  0  0  0  0  0
  -17.6470  -30.5940   24.1390 C   0  0  0  0  0  3  0  0  0  0  0  0
  -16.5500  -29.8190   23.7220 C   0  0  0  0  0  3  0  0  0  0  0  0
  -16.7680  -28.5630   23.1270 C   0  0  0  0  0  3  0  0  0  0  0  0
  -25.8860  -32.5810   23.8780 C   0  0  0  0  0  3  0  0  0  0  0  0
  -26.3870  -31.8330   25.1750 C   0  0  1  0  0  0  0  0  0  0  0  0
  -25.2790  -31.6060   26.2300 C   0  0  0  0  0  1  0  0  0  0  0  0
  -26.9870  -30.4530   24.8170 C   0  0  0  0  0  1  0  0  0  0  0  0
  -27.5230  -32.6450   25.8430 C   0  0  0  0  0  1  0  0  0  0  0  0
  -25.5630  -33.9820   24.1910 N   0  0  0  0  0  0  0  0  0  0  0  0
  -25.8950  -35.0340   23.4300 C   0  0  0  0  0  0  0  0  0  0  0  0
  -26.5730  -34.9260   22.4040 O   0  0  0  0  0  0  0  0  0  0  0  0
  -24.9640  -34.1420   24.9880 H   0  0  0  0  0  0  0  0  0  0  0  0
  -24.1670  -36.8220   23.0460 C   0  0  0  0  0  1  0  0  0  0  0  0
  -25.3980  -36.4220   23.8750 C   0  0  0  0  0  3  0  0  0  0  0  0
  -27.5140  -37.3240   24.7380 C   0  0  0  0  0  1  0  0  0  0  0  0
  -26.4290  -37.4780   23.7710 N   0  0  0  0  0  0  0  0  0  0  0  0
  -26.0170  -38.3980   23.9020 H   0  0  0  0  0  0  0  0  0  0  0  0
  -30.2290  -17.8470   20.3760 C   0  0  0  0  0  2  0  0  0  0  0  0
  -30.6230  -15.1230   20.0410 C   0  0  0  0  0  0  0  0  0  0  0  0
  -30.4760  -12.7740   19.0860 C   0  0  0  0  0  2  0  0  0  0  0  0
  -29.4880  -12.7150   17.8990 C   0  0  0  0  0  2  0  0  0  0  0  0
  -28.0440  -12.5030   18.3950 C   0  0  0  0  0  2  0  0  0  0  0  0
  -27.6880  -13.4230   19.5900 C   0  0  0  0  0  3  0  0  0  0  0  0
  -28.7900  -13.4410   20.6670 C   0  0  0  0  0  2  0  0  0  0  0  0
  -30.0240  -13.8650   19.9970 N   0  0  0  0  0  0  0  0  0  0  0  0
  -31.8290  -15.1780   19.7710 O   0  0  0  0  0  0  0  0  0  0  0  0
  -29.8480  -16.3150   20.1840 N   0  0  0  0  0  0  0  0  0  0  0  0
  -28.8620  -16.1280   20.2920 H   0  0  0  0  0  0  0  0  0  0  0  0
  -25.3490  -13.9970   20.4500 C   0  0  0  0  0  0  0  0  0  0  0  0
  -24.2990  -13.2200   20.8510 C   0  0  0  0  0  0  0  0  0  0  0  0
  -24.7560  -11.8690   20.7760 C   0  0  0  0  0  0  0  0  0  0  0  0
  -26.3760  -13.1210   20.1470 N   0  0  0  0  0  0  0  0  0  0  0  0
  -26.0320  -11.8340   20.4100 N   0  0  0  0  0  0  0  0  0  0  0  0
  -24.0330  -10.6060   20.9710 C   0  0  0  0  0  0  0  0  0  0  0  0
  -24.4770   -9.6370   21.8980 C   0  0  0  0  0  3  0  0  0  0  0  0
  -23.7530   -8.4390   22.0830 C   0  0  0  0  0  3  0  0  0  0  0  0
  -22.5710   -8.2020   21.3420 C   0  0  0  0  0  0  0  0  0  0  0  0
  -22.1470   -9.1590   20.4040 C   0  0  0  0  0  3  0  0  0  0  0  0
  -22.8710  -10.3490   20.2170 C   0  0  0  0  0  3  0  0  0  0  0  0
  -21.8160   -7.0570   21.4350 O   0  0  0  0  0  0  0  0  0  0  0  0
  -21.7520   -6.3330   22.5970 C   0  0  0  0  0  0  0  0  0  0  0  0
  -21.2670   -6.8930   23.7990 C   0  0  0  0  0  3  0  0  0  0  0  0
  -21.1530   -6.0940   24.9540 C   0  0  0  0  0  3  0  0  0  0  0  0
  -21.5110   -4.7330   24.9060 C   0  0  0  0  0  0  0  0  0  0  0  0
  -21.9870   -4.1710   23.7080 C   0  0  0  0  0  3  0  0  0  0  0  0
  -22.1040   -4.9690   22.5570 C   0  0  0  0  0  0  0  0  0  0  0  0
  -22.5440   -4.4170   21.3990 F   0  0  0  0  0  0  0  0  0  0  0  0
  -21.3930   -3.9620   26.0130 F   0  0  0  0  0  0  0  0  0  0  0  0
  -22.9160  -13.6970   21.1890 C   0  0  0  0  0  0  0  0  0  0  0  0
  -22.2200  -12.9820   22.0660 N   0  0  0  0  0  0  0  0  0  0  0  0
  -22.4650  -14.7360   20.7100 O   0  0  0  0  0  0  0  0  0  0  0  0
  -22.6000  -12.1380   22.4680 H   0  0  0  0  0  0  0  0  0  0  0  0
  -21.2950  -13.2800   22.3370 H   0  0  0  0  0  0  0  0  0  0  0  0
  -25.5100  -15.3720   20.2900 N   0  0  0  0  0  0  0  0  0  0  0  0
  -24.7480  -16.0220   20.4410 H   0  0  0  0  0  0  0  0  0  0  0  0
  -26.3300  -15.8110   19.8910 H   0  0  0  0  0  0  0  0  0  0  0  0
  1  3  1  0
  2  4  1  0
  2  1  2  0
  4  5  2  3
  4 11  1  0
  5  6  1  0
  6  3  2  0
  7 53  1  0
  7  6  1  0
  7  3  1  0
  8  5  1  0
  9  8  1  0
 10  8  2  0
 12 14  1  0
 12 11  1  0
 13 24  2  0
 14 19  1  0
 15 23  1  0
 15 25  1  0
 16 22  1  0
 16 18  1  0
 17 23  1  0
 18 17  1  0
 19 18  2  0
 20 14  2  0
 21 20  1  0
 21 16  2  0
 22 15  1  0
 23 13  1  0
 25 27  2  0
 26 25  1  0
 28 26  1  0
 29 38  2  0
 29 34  1  0
 30 26  1  0
 30 34  1  0
 31 30  1  0
 32 33  1  0
 32 31  1  0
 33 29  1  0
 34 35  2  0
 35 36  1  0
 37 36  2  0
 38 37  1  0
 39 13  1  0
 39 44  1  0
 39 40  1  0
 40 43  1  1
 40 41  1  0
 42 40  1  0
 44 47  1  0
 45 49  1  0
 45 44  1  0
 46 45  2  0
 49 48  1  0
 51 49  1  0
 51 52  1  0
 51 50  1  0
 54 62  1  0
 55 60  1  0
 56 57  1  0
 56 55  1  0
 58 57  1  0
 58 67  1  0
 58 59  1  0
 60 54  1  0
 60 59  1  0
 61 54  2  0
 62 63  1  0
 62 53  1  0
 64 65  2  0
 65 84  1  0
 66 65  1  0
 66 69  1  0
 67 68  1  0
 67 64  1  0
 68 66  2  0
 69 70  1  0
 70 71  2  0
 72 75  1  0
 72 71  1  0
 73 72  2  0
 74 73  1  0
 74 69  2  0
 75 76  1  0
 76 77  1  0
 77 78  2  0
 79 78  1  0
 79 83  1  0
 80 79  2  0
 81 76  2  0
 81 80  1  0
 82 81  1  0
 84 85  1  0
 85 88  1  0
 85 87  1  0
 86 84  2  0
 89 90  1  0
 89 64  1  0
 91 89  1  0
M  ISO  4  11 101  12 101  54 100  62 100
M  END
>  <TORSDO>  (72) 
F 19

>  <SCORE>  (72) 
-14.447

>  <name>  (72) 
71

>  <ligand_id>  (72) 
71

>  <original_smiles>  (72) 
[H]C1=C([H])C2([H])C([H])(C([H])([H])N([H])C(=O)N3C([H])([H])C([H])([H])C([H])([H])C([H])(n4nc(-c5c([H])c([H])c(Oc6c([H])c([H])c(F)c([H])c6F)c([H])c5[H])c(C(=O)N([H])[H])c4N([H])[H])C3([H])[H])C2([H])C([H])(C(=O)C([H])([H])[H])C1([H])C([H])([H])Oc1c([H])c([H])c2c(c1[H])C([H])([H])N(C(=O)C([H])(N([H])C(=O)C([H])(N([H])C([H])([H])[H])C([H])([H])[H])C(C([H])([H])[H])(C([H])([H])[H])C([H])([H])[H])C([H])(C(=O)N([H])C1([H])c3c([H])c([H])c([H])c([H])c3C([H])([H])C([H])([H])C1([H])[H])C2([H])[H]

>  <smiles>  (72) 
[H]C1=C([H])C2([H])C([H])(C([H])([H])N([H])C(=O)N3C([H])([H])C([H])([H])C([H])([H])C([H])(n4nc(-c5c([H])c([H])c(Oc6c([H])c([H])c(F)c([H])c6F)c([H])c5[H])c(C(=O)N([H])[H])c4N([H])[H])C3([H])[H])C2([H])C([H])(C(=O)C([H])([H])[H])C1([H])C([H])([H])Oc1c([H])c([H])c2c(c1[H])C([H])([H])N(C(=O)C([H])(N([H])C(=O)C([H])(N([H])C([H])([H])[H])C([H])([H])[H])C(C([H])([H])[H])(C([H])([H])[H])C([H])([H])[H])C([H])(C(=O)N([H])C1([H])c3c([H])c([H])c([H])c([H])c3C([H])([H])C([H])([H])C1([H])[H])C2([H])[H]

$$$$
72:0:0
     RDKit          3D

 94103  0  0  1  0  0  0  0  0999 V2000
  -29.5600  -21.8380   20.1330 C   0  0  0  0  0  0  0  0  0  0  0  0
  -29.8670  -23.1480   19.9520 N   0  0  0  0  0  0  0  0  0  0  0  0
  -28.6780  -21.4300   20.8860 O   0  0  0  0  0  0  0  0  0  0  0  0
  -30.5930  -23.2880   19.2610 H   0  0  0  0  0  0  0  0  0  0  0  0
  -31.7700  -19.8290   21.2750 C   0  0  0  0  0  2  0  0  0  0  0  0
  -31.0190  -18.4710   21.3490 C   0  0  0  0  0  2  0  0  0  0  0  0
  -31.6770  -19.3810   18.7040 C   0  0  0  0  0  2  0  0  0  0  0  0
  -30.4060  -20.8650   19.2650 C   0  0  0  0  0  3  0  0  0  0  0  0
  -31.7620  -20.4140   19.8470 C   0  0  0  0  0  3  0  0  0  0  0  0
  -30.1780  -19.3130   19.0930 C   0  0  0  0  0  3  0  0  0  0  0  0
  -29.9370  -18.2870   20.2470 C   0  0  0  0  0  3  0  0  0  0  0  0
  -29.9340  -16.8260   19.6540 C   0  0  0  0  0  2  0  0  0  0  0  0
  -30.6340  -14.5490   20.3990 C   0  0  0  0  0  0  0  0  0  0  0  0
  -30.3510  -12.3360   19.3650 C   0  0  0  0  0  2  0  0  0  0  0  0
  -29.4200  -12.5220   18.1470 C   0  0  0  0  0  2  0  0  0  0  0  0
  -27.9450  -12.3880   18.5710 C   0  0  0  0  0  2  0  0  0  0  0  0
  -27.5990  -13.2470   19.8170 C   0  0  0  0  0  3  0  0  0  0  0  0
  -28.6550  -13.0800   20.9370 C   0  0  0  0  0  2  0  0  0  0  0  0
  -29.9780  -13.3560   20.3600 N   0  0  0  0  0  0  0  0  0  0  0  0
  -31.8020  -14.6700   20.0190 O   0  0  0  0  0  0  0  0  0  0  0  0
  -29.8510  -15.6440   20.5560 N   0  0  0  0  0  0  0  0  0  0  0  0
  -28.9380  -15.4630   20.9480 H   0  0  0  0  0  0  0  0  0  0  0  0
  -25.2080  -13.8610   20.5320 C   0  0  0  0  0  0  0  0  0  0  0  0
  -24.1370  -13.0940   20.9020 C   0  0  0  0  0  0  0  0  0  0  0  0
  -24.5940  -11.7410   20.8760 C   0  0  0  0  0  0  0  0  0  0  0  0
  -26.2490  -12.9760   20.3000 N   0  0  0  0  0  0  0  0  0  0  0  0
  -25.8830  -11.6960   20.5670 N   0  0  0  0  0  0  0  0  0  0  0  0
  -23.8630  -10.4830   21.0700 C   0  0  0  0  0  0  0  0  0  0  0  0
  -24.3070   -9.5050   21.9870 C   0  0  0  0  0  3  0  0  0  0  0  0
  -23.5760   -8.3110   22.1700 C   0  0  0  0  0  3  0  0  0  0  0  0
  -22.3880   -8.0860   21.4350 C   0  0  0  0  0  0  0  0  0  0  0  0
  -21.9640   -9.0530   20.5070 C   0  0  0  0  0  3  0  0  0  0  0  0
  -22.6940  -10.2380   20.3220 C   0  0  0  0  0  3  0  0  0  0  0  0
  -21.6270   -6.9470   21.5280 O   0  0  0  0  0  0  0  0  0  0  0  0
  -21.6120   -6.1840   22.6690 C   0  0  0  0  0  0  0  0  0  0  0  0
  -21.2470   -6.7230   23.9220 C   0  0  0  0  0  3  0  0  0  0  0  0
  -21.1760   -5.8860   25.0540 C   0  0  0  0  0  3  0  0  0  0  0  0
  -21.4590   -4.5130   24.9350 C   0  0  0  0  0  0  0  0  0  0  0  0
  -21.8170   -3.9740   23.6860 C   0  0  0  0  0  3  0  0  0  0  0  0
  -21.8900   -4.8060   22.5570 C   0  0  0  0  0  0  0  0  0  0  0  0
  -22.2150   -4.2770   21.3530 F   0  0  0  0  0  0  0  0  0  0  0  0
  -21.3840   -3.7080   26.0200 F   0  0  0  0  0  0  0  0  0  0  0  0
  -22.7430  -13.5790   21.1750 C   0  0  0  0  0  0  0  0  0  0  0  0
  -22.0130  -12.8900   22.0450 N   0  0  0  0  0  0  0  0  0  0  0  0
  -22.3090  -14.6050   20.6520 O   0  0  0  0  0  0  0  0  0  0  0  0
  -22.3770  -12.0610   22.4910 H   0  0  0  0  0  0  0  0  0  0  0  0
  -21.0770  -13.1970   22.2700 H   0  0  0  0  0  0  0  0  0  0  0  0
  -25.3740  -15.2310   20.3510 N   0  0  0  0  0  0  0  0  0  0  0  0
  -24.6030  -15.8800   20.4650 H   0  0  0  0  0  0  0  0  0  0  0  0
  -26.2130  -15.6740   20.0000 H   0  0  0  0  0  0  0  0  0  0  0  0
  -29.2460  -24.2470   22.1400 C   0  0  0  0  0  1  0  0  0  0  0  0
  -29.4630  -24.4090   20.6260 C   0  0  0  0  0  3  0  0  0  0  0  0
  -28.3000  -25.1940   19.9400 C   0  0  0  0  0  2  0  0  0  0  0  0
  -28.3700  -26.6240   20.2000 O   0  0  0  0  0  0  0  0  0  0  0  0
  -24.6080  -31.8780   23.2500 C   0  0  0  0  0  0  0  0  0  0  0  0
  -27.2070  -27.3820   20.1620 C   0  0  0  0  0  0  0  0  0  0  0  0
  -23.3880  -30.4800   21.6180 C   0  0  0  0  0  3  0  0  0  0  0  0
  -24.8250  -28.9350   20.1810 C   0  0  0  0  0  0  0  0  0  0  0  0
  -25.9180  -30.8170   21.4090 C   0  0  0  0  0  2  0  0  0  0  0  0
  -25.9920  -29.4430   20.7650 C   0  0  0  0  0  0  0  0  0  0  0  0
  -27.1830  -28.6760   20.7490 C   0  0  0  0  0  3  0  0  0  0  0  0
  -26.0190  -26.9070   19.5590 C   0  0  0  0  0  3  0  0  0  0  0  0
  -24.8350  -27.6690   19.5740 C   0  0  0  0  0  3  0  0  0  0  0  0
  -23.5870  -29.8030   20.2360 C   0  0  0  0  0  2  0  0  0  0  0  0
  -24.6560  -31.0750   22.1500 N   0  0  0  0  0  0  0  0  0  0  0  0
  -23.5320  -32.1560   23.7960 O   0  0  0  0  0  0  0  0  0  0  0  0
  -22.7380  -29.4630   22.5840 C   0  0  0  0  0  0  0  0  0  0  0  0
  -21.4130  -29.2780   22.4600 N   0  0  0  0  0  0  0  0  0  0  0  0
  -23.4220  -28.8420   23.4010 O   0  0  0  0  0  0  0  0  0  0  0  0
  -20.9200  -29.8300   21.7720 H   0  0  0  0  0  0  0  0  0  0  0  0
  -18.0450  -28.0600   22.9530 C   0  0  0  0  0  0  0  0  0  0  0  0
  -20.5990  -28.3430   23.2380 C   0  0  0  0  0  3  0  0  0  0  0  0
  -20.7160  -26.9060   22.6790 C   0  0  0  0  0  2  0  0  0  0  0  0
  -19.6240  -26.5630   21.6620 C   0  0  0  0  0  2  0  0  0  0  0  0
  -18.2370  -26.7040   22.2950 C   0  0  0  0  0  2  0  0  0  0  0  0
  -19.1540  -28.8360   23.3820 C   0  0  0  0  0  0  0  0  0  0  0  0
  -18.9220  -30.1040   23.9570 C   0  0  0  0  0  3  0  0  0  0  0  0
  -17.6120  -30.5980   24.1070 C   0  0  0  0  0  3  0  0  0  0  0  0
  -16.5170  -29.8190   23.6940 C   0  0  0  0  0  3  0  0  0  0  0  0
  -16.7340  -28.5520   23.1230 C   0  0  0  0  0  3  0  0  0  0  0  0
  -25.9000  -32.5060   23.8590 C   0  0  0  0  0  3  0  0  0  0  0  0
  -26.4300  -31.7320   25.1270 C   0  0  1  0  0  0  0  0  0  0  0  0
  -25.3500  -31.4930   26.2070 C   0  0  0  0  0  1  0  0  0  0  0  0
  -27.0070  -30.3540   24.7260 C   0  0  0  0  0  1  0  0  0  0  0  0
  -27.5910  -32.5210   25.7770 C   0  0  0  0  0  1  0  0  0  0  0  0
  -25.5960  -33.9040   24.1950 N   0  0  0  0  0  0  0  0  0  0  0  0
  -25.9220  -34.9580   23.4340 C   0  0  0  0  0  0  0  0  0  0  0  0
  -26.5820  -34.8540   22.3950 O   0  0  0  0  0  0  0  0  0  0  0  0
  -25.0080  -34.0580   25.0010 H   0  0  0  0  0  0  0  0  0  0  0  0
  -24.1910  -36.7500   23.0980 C   0  0  0  0  0  1  0  0  0  0  0  0
  -25.4410  -36.3460   23.8960 C   0  0  0  0  0  3  0  0  0  0  0  0
  -27.5860  -37.2270   24.7010 C   0  0  0  0  0  1  0  0  0  0  0  0
  -26.4720  -37.3990   23.7710 N   0  0  0  0  0  0  0  0  0  0  0  0
  -26.0690  -38.3190   23.9260 H   0  0  0  0  0  0  0  0  0  0  0  0
  1  3  2  0
  2  1  1  0
  2 52  1  0
  4  2  1  0
  5  6  1  0
  8  9  1  0
  8  1  1  0
  9  7  1  0
  9  5  1  0
 10  7  1  0
 10  8  1  0
 10 11  1  0
 11 12  1  0
 11  6  1  0
 12 21  1  0
 13 21  1  0
 14 19  1  0
 15 16  1  0
 15 14  1  0
 17 16  1  0
 17 26  1  0
 17 18  1  0
 19 13  1  0
 19 18  1  0
 20 13  2  0
 21 22  1  0
 23 24  2  0
 24 43  1  0
 25 24  1  0
 25 28  1  0
 26 23  1  0
 26 27  1  0
 27 25  2  0
 28 29  1  0
 29 30  2  0
 31 34  1  0
 31 30  1  0
 32 31  2  0
 33 32  1  0
 33 28  2  0
 34 35  1  0
 35 36  1  0
 36 37  2  0
 38 37  1  0
 38 42  1  0
 39 38  2  0
 40 35  2  0
 40 39  1  0
 41 40  1  0
 43 44  1  0
 44 47  1  0
 44 46  1  0
 45 43  2  0
 48 49  1  0
 48 23  1  0
 50 48  1  0
 52 51  1  0
 53 54  1  0
 53 52  1  0
 55 66  2  0
 56 54  1  0
 56 61  1  0
 57 65  1  0
 57 67  1  0
 58 64  1  0
 58 60  1  0
 59 65  1  0
 60 59  1  0
 61 60  2  0
 62 63  1  0
 62 56  2  0
 63 58  2  0
 64 57  1  0
 65 55  1  0
 67 69  2  0
 68 67  1  0
 70 68  1  0
 71 80  2  0
 71 76  1  0
 72 68  1  0
 72 76  1  0
 73 72  1  0
 74 75  1  0
 74 73  1  0
 75 71  1  0
 76 77  2  0
 77 78  1  0
 79 78  2  0
 80 79  1  0
 81 55  1  0
 81 86  1  0
 81 82  1  0
 82 85  1  1
 82 83  1  0
 84 82  1  0
 86 89  1  0
 87 91  1  0
 87 86  1  0
 88 87  2  0
 91 90  1  0
 93 91  1  0
 93 94  1  0
 93 92  1  0
M  ISO  4  13 100  21 100  53 101  54 101
M  END
>  <TORSDO>  (73) 
F 20

>  <SCORE>  (73) 
-14.088

>  <name>  (73) 
72

>  <ligand_id>  (73) 
72

>  <original_smiles>  (73) 
[H]c1c([H])c([H])c2c(c1[H])C([H])([H])C([H])([H])C([H])([H])C2([H])N([H])C(=O)C1([H])N(C(=O)C([H])(N([H])C(=O)C([H])(N([H])C([H])([H])[H])C([H])([H])[H])C(C([H])([H])[H])(C([H])([H])[H])C([H])([H])[H])C([H])([H])c2c([H])c(OC([H])([H])C([H])(N([H])C(=O)C3([H])C4([H])C([H])([H])C([H])([H])C([H])(C([H])([H])N([H])C(=O)N5C([H])([H])C([H])([H])C([H])([H])C([H])(n6nc(-c7c([H])c([H])c(Oc8c([H])c([H])c(F)c([H])c8F)c([H])c7[H])c(C(=O)N([H])[H])c6N([H])[H])C5([H])[H])C3([H])C4([H])[H])C([H])([H])[H])c([H])c([H])c2C1([H])[H]

>  <smiles>  (73) 
[H]c1c([H])c([H])c2c(c1[H])C([H])([H])C([H])([H])C([H])([H])C2([H])N([H])C(=O)C1([H])N(C(=O)C([H])(N([H])C(=O)C([H])(N([H])C([H])([H])[H])C([H])([H])[H])C(C([H])([H])[H])(C([H])([H])[H])C([H])([H])[H])C([H])([H])c2c([H])c(OC([H])([H])C([H])(N([H])C(=O)C3([H])C4([H])C([H])([H])C([H])([H])C([H])(C([H])([H])N([H])C(=O)N5C([H])([H])C([H])([H])C([H])([H])C([H])(n6nc(-c7c([H])c([H])c(Oc8c([H])c([H])c(F)c([H])c8F)c([H])c7[H])c(C(=O)N([H])[H])c6N([H])[H])C5([H])[H])C3([H])C4([H])[H])C([H])([H])[H])c([H])c([H])c2C1([H])[H]

$$$$
73:0:0
     RDKit          3D

 93102  0  0  1  0  0  0  0  0999 V2000
  -28.3150  -20.4430   19.9530 C   0  0  0  0  0  2  0  0  0  0  0  0
  -29.8760  -22.9530   20.9110 C   0  0  0  0  0  2  0  0  0  0  0  0
  -28.1050  -21.7660   20.7400 C   0  0  0  0  0  3  0  0  0  0  0  0
  -28.4500  -23.2800   20.4220 C   0  0  0  0  0  3  0  0  0  0  0  0
  -29.2720  -21.7920   21.7520 C   0  0  0  0  0  3  0  0  0  0  0  0
  -28.9290  -19.5500   21.0630 C   0  0  0  0  0  3  0  0  0  0  0  0
  -29.9400  -20.4400   21.7070 N   0  0  0  0  0  4  0  0  0  0  0  0
  -30.1860  -20.1410   22.6380 H   0  0  0  0  0  0  0  0  0  0  0  0
  -30.7880  -20.4810   21.1640 H   0  0  0  0  0  0  0  0  0  0  0  0
  -28.5860  -23.2570   17.8710 C   0  0  0  0  0  1  0  0  0  0  0  0
  -28.1050  -24.0570   19.0980 C   0  0  0  0  0  3  0  0  0  0  0  0
  -28.6230  -25.5500   18.9190 C   0  0  0  0  0  2  0  0  0  0  0  0
  -28.3650  -26.6790   19.8060 O   0  0  0  0  0  0  0  0  0  0  0  0
  -24.6530  -31.8190   23.0890 C   0  0  0  0  0  0  0  0  0  0  0  0
  -27.2170  -27.4610   19.7550 C   0  0  0  0  0  0  0  0  0  0  0  0
  -23.4110  -30.4720   21.4370 C   0  0  0  0  0  3  0  0  0  0  0  0
  -24.8230  -28.9940   19.9000 C   0  0  0  0  0  0  0  0  0  0  0  0
  -25.9270  -30.8430   21.1630 C   0  0  0  0  0  2  0  0  0  0  0  0
  -25.9970  -29.4900   20.4740 C   0  0  0  0  0  0  0  0  0  0  0  0
  -27.1900  -28.7230   20.4120 C   0  0  0  0  0  3  0  0  0  0  0  0
  -26.0270  -27.0100   19.1430 C   0  0  0  0  0  3  0  0  0  0  0  0
  -24.8360  -27.7560   19.2360 C   0  0  0  0  0  3  0  0  0  0  0  0
  -23.5740  -29.8400   20.0280 C   0  0  0  0  0  2  0  0  0  0  0  0
  -24.6880  -31.0610   21.9540 N   0  0  0  0  0  0  0  0  0  0  0  0
  -23.5880  -32.0560   23.6740 O   0  0  0  0  0  0  0  0  0  0  0  0
  -22.8030  -29.4110   22.3840 C   0  0  0  0  0  0  0  0  0  0  0  0
  -21.4800  -29.2110   22.2890 N   0  0  0  0  0  0  0  0  0  0  0  0
  -23.5190  -28.7650   23.1540 O   0  0  0  0  0  0  0  0  0  0  0  0
  -20.9680  -29.7840   21.6330 H   0  0  0  0  0  0  0  0  0  0  0  0
  -18.1530  -27.9010   22.8110 C   0  0  0  0  0  0  0  0  0  0  0  0
  -20.7050  -28.2260   23.0450 C   0  0  0  0  0  3  0  0  0  0  0  0
  -20.8430  -26.8200   22.4200 C   0  0  0  0  0  2  0  0  0  0  0  0
  -19.7290  -26.4900   21.4210 C   0  0  0  0  0  2  0  0  0  0  0  0
  -18.3550  -26.5780   22.0960 C   0  0  0  0  0  2  0  0  0  0  0  0
  -19.2530  -28.6870   23.2430 C   0  0  0  0  0  0  0  0  0  0  0  0
  -19.0090  -29.9260   23.8690 C   0  0  0  0  0  3  0  0  0  0  0  0
  -17.6920  -30.3850   24.0650 C   0  0  0  0  0  3  0  0  0  0  0  0
  -16.6040  -29.5980   23.6520 C   0  0  0  0  0  3  0  0  0  0  0  0
  -16.8340  -28.3580   23.0300 C   0  0  0  0  0  3  0  0  0  0  0  0
  -25.9490  -32.4430   23.6910 C   0  0  0  0  0  3  0  0  0  0  0  0
  -26.5140  -31.6270   24.9180 C   0  0  1  0  0  0  0  0  0  0  0  0
  -25.4600  -31.3390   26.0140 C   0  0  0  0  0  1  0  0  0  0  0  0
  -27.0940  -30.2720   24.4470 C   0  0  0  0  0  1  0  0  0  0  0  0
  -27.6810  -32.4040   25.5670 C   0  0  0  0  0  1  0  0  0  0  0  0
  -25.6340  -33.8200   24.0870 N   0  0  0  0  0  0  0  0  0  0  0  0
  -25.9350  -34.9070   23.3600 C   0  0  0  0  0  0  0  0  0  0  0  0
  -26.5770  -34.8500   22.3060 O   0  0  0  0  0  0  0  0  0  0  0  0
  -25.0580  -33.9370   24.9060 H   0  0  0  0  0  0  0  0  0  0  0  0
  -24.1790  -36.6940   23.1230 C   0  0  0  0  0  1  0  0  0  0  0  0
  -25.4470  -36.2700   23.8820 C   0  0  0  0  0  3  0  0  0  0  0  0
  -27.5960  -37.1540   24.6850 C   0  0  0  0  0  1  0  0  0  0  0  0
  -26.4670  -37.3400   23.7770 N   0  0  0  0  0  0  0  0  0  0  0  0
  -26.0570  -38.2490   23.9620 H   0  0  0  0  0  0  0  0  0  0  0  0
  -29.0920  -17.9630   20.9570 C   0  0  0  0  0  2  0  0  0  0  0  0
  -30.2960  -17.1750   20.3140 C   0  0  0  0  0  2  0  0  0  0  0  0
  -30.9240  -14.6560   20.0430 C   0  0  0  0  0  0  0  0  0  0  0  0
  -30.6700  -12.4290   18.9680 C   0  0  0  0  0  2  0  0  0  0  0  0
  -29.7000  -12.5780   17.7760 C   0  0  0  0  0  2  0  0  0  0  0  0
  -28.2370  -12.4520   18.2430 C   0  0  0  0  0  2  0  0  0  0  0  0
  -27.9250  -13.3150   19.4950 C   0  0  0  0  0  3  0  0  0  0  0  0
  -28.9970  -13.1230   20.5870 C   0  0  0  0  0  2  0  0  0  0  0  0
  -30.3040  -13.4380   19.9870 N   0  0  0  0  0  0  0  0  0  0  0  0
  -32.0520  -14.8400   19.5810 O   0  0  0  0  0  0  0  0  0  0  0  0
  -30.1430  -15.6900   20.4720 N   0  0  0  0  0  0  0  0  0  0  0  0
  -29.2660  -15.3880   20.8600 H   0  0  0  0  0  0  0  0  0  0  0  0
  -25.5550  -13.9550   20.2530 C   0  0  0  0  0  0  0  0  0  0  0  0
  -24.4860  -13.2010   20.6600 C   0  0  0  0  0  0  0  0  0  0  0  0
  -24.9270  -11.8410   20.6240 C   0  0  0  0  0  0  0  0  0  0  0  0
  -26.5820  -13.0570   20.0070 N   0  0  0  0  0  0  0  0  0  0  0  0
  -26.2070  -11.7810   20.2820 N   0  0  0  0  0  0  0  0  0  0  0  0
  -24.1820  -10.5900   20.8320 C   0  0  0  0  0  0  0  0  0  0  0  0
  -24.5800   -9.6470   21.8070 C   0  0  0  0  0  3  0  0  0  0  0  0
  -23.8340   -8.4650   22.0020 C   0  0  0  0  0  3  0  0  0  0  0  0
  -22.6800   -8.2150   21.2220 C   0  0  0  0  0  0  0  0  0  0  0  0
  -22.3000   -9.1480   20.2410 C   0  0  0  0  0  3  0  0  0  0  0  0
  -23.0460  -10.3210   20.0430 C   0  0  0  0  0  3  0  0  0  0  0  0
  -21.9110   -7.0800   21.3270 O   0  0  0  0  0  0  0  0  0  0  0  0
  -21.7690   -6.4090   22.5160 C   0  0  0  0  0  0  0  0  0  0  0  0
  -21.2470   -7.0380   23.6680 C   0  0  0  0  0  3  0  0  0  0  0  0
  -21.0560   -6.2960   24.8500 C   0  0  0  0  0  3  0  0  0  0  0  0
  -21.3730   -4.9260   24.8820 C   0  0  0  0  0  0  0  0  0  0  0  0
  -21.8910   -4.2960   23.7360 C   0  0  0  0  0  3  0  0  0  0  0  0
  -22.0830   -5.0350   22.5550 C   0  0  0  0  0  0  0  0  0  0  0  0
  -22.5610   -4.4170   21.4480 F   0  0  0  0  0  0  0  0  0  0  0  0
  -21.1820   -4.2130   26.0170 F   0  0  0  0  0  0  0  0  0  0  0  0
  -23.1050  -13.7010   20.9650 C   0  0  0  0  0  0  0  0  0  0  0  0
  -22.3900  -13.0280   21.8570 N   0  0  0  0  0  0  0  0  0  0  0  0
  -22.6710  -14.7280   20.4420 O   0  0  0  0  0  0  0  0  0  0  0  0
  -22.7560  -12.1990   22.3010 H   0  0  0  0  0  0  0  0  0  0  0  0
  -21.4620  -13.3470   22.0990 H   0  0  0  0  0  0  0  0  0  0  0  0
  -25.7380  -15.3190   20.0520 N   0  0  0  0  0  0  0  0  0  0  0  0
  -24.9700  -15.9780   20.1100 H   0  0  0  0  0  0  0  0  0  0  0  0
  -26.5350  -15.6920   19.5520 H   0  0  0  0  0  0  0  0  0  0  0  0
  1  6  1  0
  3  1  1  0
  3  5  1  0
  4 11  1  0
  4  3  1  0
  4  2  1  0
  5  2  1  0
  6 54  1  0
  6  7  1  0
  7  5  1  0
  7  8  1  0
  9  7  1  0
 11 10  1  0
 12 11  1  0
 12 13  1  0
 14 25  2  0
 15 13  1  0
 15 20  1  0
 16 24  1  0
 16 26  1  0
 17 23  1  0
 17 19  1  0
 18 24  1  0
 19 18  1  0
 20 19  2  0
 21 22  1  0
 21 15  2  0
 22 17  2  0
 23 16  1  0
 24 14  1  0
 26 28  2  0
 27 26  1  0
 29 27  1  0
 30 39  2  0
 30 35  1  0
 31 27  1  0
 31 35  1  0
 32 31  1  0
 33 34  1  0
 33 32  1  0
 34 30  1  0
 35 36  2  0
 36 37  1  0
 38 37  2  0
 39 38  1  0
 40 14  1  0
 40 45  1  0
 40 41  1  0
 41 44  1  1
 41 42  1  0
 43 41  1  0
 45 48  1  0
 46 50  1  0
 46 45  1  0
 47 46  2  0
 50 49  1  0
 52 50  1  0
 52 53  1  0
 52 51  1  0
 55 64  1  0
 55 54  1  0
 56 64  1  0
 57 62  1  0
 58 59  1  0
 58 57  1  0
 60 59  1  0
 60 69  1  0
 60 61  1  0
 62 56  1  0
 62 61  1  0
 63 56  2  0
 64 65  1  0
 66 67  2  0
 67 86  1  0
 68 67  1  0
 68 71  1  0
 69 66  1  0
 69 70  1  0
 70 68  2  0
 71 72  1  0
 72 73  2  0
 74 77  1  0
 74 73  1  0
 75 74  2  0
 76 75  1  0
 76 71  2  0
 77 78  1  0
 78 83  2  0
 78 79  1  0
 79 80  2  0
 80 81  1  0
 81 85  1  0
 82 81  2  0
 83 82  1  0
 84 83  1  0
 86 87  1  0
 87 90  1  0
 87 89  1  0
 88 86  2  0
 91 92  1  0
 91 66  1  0
 93 91  1  0
M  ISO  4  12 101  13 101  56 100  64 100
M  END
>  <TORSDO>  (74) 
F 20

>  <SCORE>  (74) 
-13.251

>  <name>  (74) 
73

>  <ligand_id>  (74) 
73

>  <original_smiles>  (74) 
[H]c1c([H])c([H])c2c(c1[H])C([H])([H])C([H])([H])C([H])([H])C2([H])N([H])C(=O)C1([H])N(C(=O)C([H])(N([H])C(=O)C([H])(N([H])C([H])([H])[H])C([H])([H])[H])C(C([H])([H])[H])(C([H])([H])[H])C([H])([H])[H])C([H])([H])c2c([H])c(OC([H])([H])C([H])(C([H])([H])[H])C3([H])C([H])([H])C4([H])C3([H])C([H])([H])C([H])(C([H])([H])C([H])([H])N([H])C(=O)N3C([H])([H])C([H])([H])C([H])([H])C([H])(n5nc(-c6c([H])c([H])c(Oc7c([H])c([H])c(F)c([H])c7F)c([H])c6[H])c(C(=O)N([H])[H])c5N([H])[H])C3([H])[H])[N+]4([H])[H])c([H])c([H])c2C1([H])[H]

>  <smiles>  (74) 
[H]c1c([H])c([H])c2c(c1[H])C([H])([H])C([H])([H])C([H])([H])C2([H])N([H])C(=O)C1([H])N(C(=O)C([H])(N([H])C(=O)C([H])(N([H])C([H])([H])[H])C([H])([H])[H])C(C([H])([H])[H])(C([H])([H])[H])C([H])([H])[H])C([H])([H])c2c([H])c(OC([H])([H])C([H])(C([H])([H])[H])C3([H])C([H])([H])C4([H])C3([H])C([H])([H])C([H])(C([H])([H])C([H])([H])N([H])C(=O)N3C([H])([H])C([H])([H])C([H])([H])C([H])(n5nc(-c6c([H])c([H])c(Oc7c([H])c([H])c(F)c([H])c7F)c([H])c6[H])c(C(=O)N([H])[H])c5N([H])[H])C3([H])[H])[N+]4([H])[H])c([H])c([H])c2C1([H])[H]

$$$$
74:0:0
     RDKit          3D

 86 94  0  0  1  0  0  0  0  0999 V2000
  -28.4220  -22.7970   20.6020 C   0  0  0  0  0  0  0  0  0  0  0  0
  -28.0140  -22.7650   21.7680 O   0  0  0  0  0  0  0  0  0  0  0  0
  -29.1790  -21.3070   20.0820 C   0  0  0  0  0  2  0  0  0  0  0  0
  -28.8380  -19.5520   20.2830 C   0  0  0  0  0  2  0  0  0  0  0  0
  -30.3830  -15.2170   19.9230 C   0  0  0  0  0  0  0  0  0  0  0  0
  -30.2740  -12.8080   18.9530 C   0  0  0  0  0  2  0  0  0  0  0  0
  -29.2740  -12.6870   17.7780 C   0  0  0  0  0  2  0  0  0  0  0  0
  -27.8400  -12.4500   18.2920 C   0  0  0  0  0  2  0  0  0  0  0  0
  -27.4980  -13.3510   19.5080 C   0  0  0  0  0  3  0  0  0  0  0  0
  -28.6240  -13.4030   20.5560 C   0  0  0  0  0  2  0  0  0  0  0  0
  -29.8090  -13.9180   19.8630 N   0  0  0  0  0  0  0  0  0  0  0  0
  -31.5570  -15.2370   19.5230 O   0  0  0  0  0  0  0  0  0  0  0  0
  -30.4140  -17.7720   21.6740 C   0  0  0  0  0  2  0  0  0  0  0  0
  -29.3490  -16.6650   21.6650 C   0  0  0  0  0  2  0  0  0  0  0  0
  -29.9340  -18.1270   20.2730 C   0  0  0  0  0  3  0  0  0  0  0  0
  -29.6490  -16.4770   20.2410 N   0  0  0  0  0  0  0  0  0  0  0  0
  -25.2040  -13.9000   20.4680 C   0  0  0  0  0  0  0  0  0  0  0  0
  -24.1660  -13.1190   20.8940 C   0  0  0  0  0  0  0  0  0  0  0  0
  -24.6160  -11.7680   20.7780 C   0  0  0  0  0  0  0  0  0  0  0  0
  -26.2110  -13.0250   20.1040 N   0  0  0  0  0  0  0  0  0  0  0  0
  -25.8770  -11.7340   20.3600 N   0  0  0  0  0  0  0  0  0  0  0  0
  -23.8940  -10.5040   20.9810 C   0  0  0  0  0  0  0  0  0  0  0  0
  -24.3720   -9.5110   21.8650 C   0  0  0  0  0  3  0  0  0  0  0  0
  -23.6480   -8.3140   22.0600 C   0  0  0  0  0  3  0  0  0  0  0  0
  -22.4340   -8.1010   21.3680 C   0  0  0  0  0  0  0  0  0  0  0  0
  -21.9720   -9.0810   20.4710 C   0  0  0  0  0  3  0  0  0  0  0  0
  -22.6960  -10.2700   20.2770 C   0  0  0  0  0  3  0  0  0  0  0  0
  -21.6700   -6.9640   21.4780 O   0  0  0  0  0  0  0  0  0  0  0  0
  -21.6570   -6.2090   22.6230 C   0  0  0  0  0  0  0  0  0  0  0  0
  -21.2980   -6.7590   23.8730 C   0  0  0  0  0  3  0  0  0  0  0  0
  -21.2340   -5.9320   25.0120 C   0  0  0  0  0  3  0  0  0  0  0  0
  -21.5170   -4.5580   24.9030 C   0  0  0  0  0  0  0  0  0  0  0  0
  -21.8670   -4.0070   23.6580 C   0  0  0  0  0  3  0  0  0  0  0  0
  -21.9340   -4.8300   22.5200 C   0  0  0  0  0  0  0  0  0  0  0  0
  -22.2530   -4.2900   21.3190 F   0  0  0  0  0  0  0  0  0  0  0  0
  -21.4480   -3.7620   25.9960 F   0  0  0  0  0  0  0  0  0  0  0  0
  -22.8000  -13.5970   21.2880 C   0  0  0  0  0  0  0  0  0  0  0  0
  -22.1360  -12.8880   22.1940 N   0  0  0  0  0  0  0  0  0  0  0  0
  -22.3320  -14.6360   20.8270 O   0  0  0  0  0  0  0  0  0  0  0  0
  -22.5270  -12.0430   22.5860 H   0  0  0  0  0  0  0  0  0  0  0  0
  -21.2240  -13.1940   22.5000 H   0  0  0  0  0  0  0  0  0  0  0  0
  -25.3750  -15.2750   20.3350 N   0  0  0  0  0  0  0  0  0  0  0  0
  -24.6490  -15.9490   20.5520 H   0  0  0  0  0  0  0  0  0  0  0  0
  -26.2200  -15.7000   19.9760 H   0  0  0  0  0  0  0  0  0  0  0  0
  -28.1330  -24.3120   19.7810 C   0  0  0  0  0  2  0  0  0  0  0  0
  -28.1480  -25.8540   20.3540 O   0  0  0  0  0  0  0  0  0  0  0  0
  -24.6170  -31.8370   23.2010 C   0  0  0  0  0  0  0  0  0  0  0  0
  -27.1540  -26.9510   20.2090 C   0  0  0  0  0  0  0  0  0  0  0  0
  -23.4200  -30.4300   21.5750 C   0  0  0  0  0  3  0  0  0  0  0  0
  -24.8640  -28.8280   20.1460 C   0  0  0  0  0  0  0  0  0  0  0  0
  -25.9850  -30.6420   21.4250 C   0  0  0  0  0  2  0  0  0  0  0  0
  -26.0470  -29.2320   20.7730 C   0  0  0  0  0  0  0  0  0  0  0  0
  -27.1850  -28.3120   20.7890 C   0  0  0  0  0  3  0  0  0  0  0  0
  -25.9510  -26.7030   19.5090 C   0  0  0  0  0  3  0  0  0  0  0  0
  -24.8420  -27.5880   19.4890 C   0  0  0  0  0  3  0  0  0  0  0  0
  -23.6420  -29.7440   20.1990 C   0  0  0  0  0  2  0  0  0  0  0  0
  -24.6950  -30.9960   22.1180 N   0  0  0  0  0  0  0  0  0  0  0  0
  -23.5290  -32.1300   23.7220 O   0  0  0  0  0  0  0  0  0  0  0  0
  -22.7340  -29.4350   22.5490 C   0  0  0  0  0  0  0  0  0  0  0  0
  -21.4040  -29.2690   22.4330 N   0  0  0  0  0  0  0  0  0  0  0  0
  -23.4070  -28.8150   23.3780 O   0  0  0  0  0  0  0  0  0  0  0  0
  -20.9210  -29.8170   21.7340 H   0  0  0  0  0  0  0  0  0  0  0  0
  -18.0230  -28.0620   22.9630 C   0  0  0  0  0  0  0  0  0  0  0  0
  -20.5840  -28.3380   23.2130 C   0  0  0  0  0  3  0  0  0  0  0  0
  -20.6880  -26.9010   22.6480 C   0  0  0  0  0  2  0  0  0  0  0  0
  -19.5830  -26.5680   21.6420 C   0  0  0  0  0  2  0  0  0  0  0  0
  -18.2020  -26.7100   22.2900 C   0  0  0  0  0  2  0  0  0  0  0  0
  -19.1420  -28.8320   23.3800 C   0  0  0  0  0  0  0  0  0  0  0  0
  -18.9180  -30.0940   23.9720 C   0  0  0  0  0  3  0  0  0  0  0  0
  -17.6110  -30.5860   24.1490 C   0  0  0  0  0  3  0  0  0  0  0  0
  -16.5090  -29.8140   23.7430 C   0  0  0  0  0  3  0  0  0  0  0  0
  -16.7160  -28.5530   23.1550 C   0  0  0  0  0  3  0  0  0  0  0  0
  -25.8900  -32.4840   23.8250 C   0  0  0  0  0  3  0  0  0  0  0  0
  -26.4010  -31.7270   25.1140 C   0  0  1  0  0  0  0  0  0  0  0  0
  -25.3030  -31.5030   26.1810 C   0  0  0  0  0  1  0  0  0  0  0  0
  -26.9850  -30.3430   24.7480 C   0  0  0  0  0  1  0  0  0  0  0  0
  -27.5500  -32.5280   25.7700 C   0  0  0  0  0  1  0  0  0  0  0  0
  -25.5670  -33.8830   24.1560 N   0  0  0  0  0  0  0  0  0  0  0  0
  -25.8820  -34.9460   23.4010 C   0  0  0  0  0  0  0  0  0  0  0  0
  -26.5390  -34.8510   22.3610 O   0  0  0  0  0  0  0  0  0  0  0  0
  -24.9790  -34.0290   24.9620 H   0  0  0  0  0  0  0  0  0  0  0  0
  -24.1300  -36.7290   23.0940 C   0  0  0  0  0  1  0  0  0  0  0  0
  -25.3950  -36.3320   23.8730 C   0  0  0  0  0  3  0  0  0  0  0  0
  -27.5420  -37.2360   24.6480 C   0  0  0  0  0  1  0  0  0  0  0  0
  -26.4140  -37.3950   23.7340 N   0  0  0  0  0  0  0  0  0  0  0  0
  -26.0040  -38.3120   23.8890 H   0  0  0  0  0  0  0  0  0  0  0  0
  1  2  2  0
  3  4  1  0
  3  1  1  0
  5 16  1  0
  6 11  1  0
  7  8  1  0
  7  6  1  0
  9  8  1  0
  9 20  1  0
  9 10  1  0
 11  5  1  0
 11 10  1  0
 12  5  2  0
 14 13  1  0
 15  4  1  0
 15 13  1  0
 16 15  1  0
 16 14  1  0
 17 18  2  0
 18 37  1  0
 19 18  1  0
 19 22  1  0
 20 21  1  0
 20 17  1  0
 21 19  2  0
 22 23  1  0
 23 24  2  0
 25 28  1  0
 25 24  1  0
 26 25  2  0
 27 26  1  0
 27 22  2  0
 28 29  1  0
 29 30  1  0
 30 31  2  0
 32 31  1  0
 32 36  1  0
 33 32  2  0
 34 29  2  0
 34 33  1  0
 35 34  1  0
 37 38  1  0
 38 41  1  0
 38 40  1  0
 39 37  2  0
 42 17  1  0
 42 43  1  0
 44 42  1  0
 45 46  1  0
 45  1  1  0
 47 58  2  0
 48 46  1  0
 48 53  1  0
 49 57  1  0
 49 59  1  0
 50 56  1  0
 50 52  1  0
 51 57  1  0
 52 53  2  0
 52 51  1  0
 54 48  2  0
 55 54  1  0
 55 50  2  0
 56 49  1  0
 57 47  1  0
 59 61  2  0
 60 59  1  0
 62 60  1  0
 63 72  2  0
 63 68  1  0
 64 60  1  0
 64 68  1  0
 65 64  1  0
 66 67  1  0
 66 65  1  0
 67 63  1  0
 68 69  2  0
 69 70  1  0
 71 70  2  0
 72 71  1  0
 73 47  1  0
 73 78  1  0
 73 74  1  0
 74 77  1  1
 74 75  1  0
 76 74  1  0
 78 81  1  0
 79 83  1  0
 79 78  1  0
 80 79  2  0
 83 82  1  0
 85 83  1  0
 85 86  1  0
 85 84  1  0
M  ISO  4   5 100  16 100  45 101  46 101
M  END
>  <TORSDO>  (75) 
F 19

>  <SCORE>  (75) 
-15.608

>  <name>  (75) 
74

>  <ligand_id>  (75) 
74

>  <original_smiles>  (75) 
[H]c1c([H])c([H])c2c(c1[H])C([H])([H])C([H])([H])C([H])([H])C2([H])N([H])C(=O)C1([H])N(C(=O)C([H])(N([H])C(=O)C([H])(N([H])C([H])([H])[H])C([H])([H])[H])C(C([H])([H])[H])(C([H])([H])[H])C([H])([H])[H])C([H])([H])c2c([H])c(OC([H])([H])C(=O)C([H])([H])C([H])([H])C3([H])N(C(=O)N4C([H])([H])C([H])([H])C([H])([H])C([H])(n5nc(-c6c([H])c([H])c(Oc7c([H])c([H])c(F)c([H])c7F)c([H])c6[H])c(C(=O)N([H])[H])c5N([H])[H])C4([H])[H])C([H])([H])C3([H])[H])c([H])c([H])c2C1([H])[H]

>  <smiles>  (75) 
[H]c1c([H])c([H])c2c(c1[H])C([H])([H])C([H])([H])C([H])([H])C2([H])N([H])C(=O)C1([H])N(C(=O)C([H])(N([H])C(=O)C([H])(N([H])C([H])([H])[H])C([H])([H])[H])C(C([H])([H])[H])(C([H])([H])[H])C([H])([H])[H])C([H])([H])c2c([H])c(OC([H])([H])C(=O)C([H])([H])C([H])([H])C3([H])N(C(=O)N4C([H])([H])C([H])([H])C([H])([H])C([H])(n5nc(-c6c([H])c([H])c(Oc7c([H])c([H])c(F)c([H])c7F)c([H])c6[H])c(C(=O)N([H])[H])c5N([H])[H])C4([H])[H])C([H])([H])C3([H])[H])c([H])c([H])c2C1([H])[H]

$$$$
75:0:0
     RDKit          3D

 91100  0  0  1  0  0  0  0  0999 V2000
  -30.4160  -20.7480   22.3600 C   0  0  0  0  0  3  0  0  0  0  0  0
  -30.0520  -21.9300   21.6760 C   0  0  0  0  0  3  0  0  0  0  0  0
  -29.3480  -20.5350   19.8020 C   0  0  0  0  0  3  0  0  0  0  0  0
  -30.2260  -19.4730   21.7880 C   0  0  0  0  0  0  0  0  0  0  0  0
  -29.7540  -19.2650   20.4860 C   0  0  0  0  0  0  0  0  0  0  0  0
  -29.4630  -21.9170   20.3900 C   0  0  0  0  0  0  0  0  0  0  0  0
  -30.3300  -18.1910   22.5730 C   0  0  0  0  0  2  0  0  0  0  0  0
  -29.4640  -17.1930   21.7810 C   0  0  0  0  0  2  0  0  0  0  0  0
  -29.5110  -17.6210   20.2930 C   0  0  0  0  0  3  0  0  0  0  0  0
  -30.9970  -15.2540   19.6920 C   0  0  0  0  0  0  0  0  0  0  0  0
  -30.7380  -12.9240   18.7230 C   0  0  0  0  0  2  0  0  0  0  0  0
  -29.7050  -12.8260   17.5810 C   0  0  0  0  0  2  0  0  0  0  0  0
  -28.2990  -12.5830   18.1510 C   0  0  0  0  0  2  0  0  0  0  0  0
  -27.9740  -13.5130   19.3490 C   0  0  0  0  0  3  0  0  0  0  0  0
  -29.1270  -13.5960   20.3690 C   0  0  0  0  0  2  0  0  0  0  0  0
  -30.3100  -14.0400   19.6230 N   0  0  0  0  0  0  0  0  0  0  0  0
  -32.1890  -15.1980   19.3760 O   0  0  0  0  0  0  0  0  0  0  0  0
  -30.4140  -16.5580   19.5520 N   0  0  0  0  0  0  0  0  0  0  0  0
  -31.0620  -17.0800   18.9810 H   0  0  0  0  0  0  0  0  0  0  0  0
  -25.6940  -14.0370   20.3730 C   0  0  0  0  0  0  0  0  0  0  0  0
  -24.6730  -13.2390   20.8070 C   0  0  0  0  0  0  0  0  0  0  0  0
  -25.1290  -11.8930   20.6550 C   0  0  0  0  0  0  0  0  0  0  0  0
  -26.7030  -13.1780   19.9770 N   0  0  0  0  0  0  0  0  0  0  0  0
  -26.3810  -11.8780   20.2140 N   0  0  0  0  0  0  0  0  0  0  0  0
  -24.4220  -10.6200   20.8460 C   0  0  0  0  0  0  0  0  0  0  0  0
  -24.8620   -9.6640   21.7870 C   0  0  0  0  0  3  0  0  0  0  0  0
  -24.1530   -8.4580   21.9710 C   0  0  0  0  0  3  0  0  0  0  0  0
  -22.9870   -8.1980   21.2110 C   0  0  0  0  0  0  0  0  0  0  0  0
  -22.5660   -9.1420   20.2570 C   0  0  0  0  0  3  0  0  0  0  0  0
  -23.2770  -10.3390   20.0730 C   0  0  0  0  0  3  0  0  0  0  0  0
  -22.2480   -7.0420   21.3020 O   0  0  0  0  0  0  0  0  0  0  0  0
  -22.0610   -6.4020   22.5000 C   0  0  0  0  0  0  0  0  0  0  0  0
  -21.4470   -7.0390   23.6000 C   0  0  0  0  0  3  0  0  0  0  0  0
  -21.2120   -6.3220   24.7900 C   0  0  0  0  0  3  0  0  0  0  0  0
  -21.5800   -4.9670   24.8790 C   0  0  0  0  0  0  0  0  0  0  0  0
  -22.1840   -4.3270   23.7810 C   0  0  0  0  0  3  0  0  0  0  0  0
  -22.4210   -5.0430   22.5950 C   0  0  0  0  0  0  0  0  0  0  0  0
  -22.9860   -4.4170   21.5350 F   0  0  0  0  0  0  0  0  0  0  0  0
  -21.3460   -4.2720   26.0160 F   0  0  0  0  0  0  0  0  0  0  0  0
  -23.3090  -13.6960   21.2340 C   0  0  0  0  0  0  0  0  0  0  0  0
  -22.6770  -12.9720   22.1510 N   0  0  0  0  0  0  0  0  0  0  0  0
  -22.8150  -14.7320   20.7890 O   0  0  0  0  0  0  0  0  0  0  0  0
  -23.0900  -12.1340   22.5300 H   0  0  0  0  0  0  0  0  0  0  0  0
  -21.7690  -13.2660   22.4810 H   0  0  0  0  0  0  0  0  0  0  0  0
  -25.8400  -15.4160   20.2490 N   0  0  0  0  0  0  0  0  0  0  0  0
  -25.0880  -16.0600   20.4700 H   0  0  0  0  0  0  0  0  0  0  0  0
  -26.6330  -15.8640   19.8090 H   0  0  0  0  0  0  0  0  0  0  0  0
  -29.0760  -23.4120   19.7450 C   0  0  0  0  0  2  0  0  0  0  0  0
  -27.3850  -24.4950   21.4450 C   0  0  0  0  0  1  0  0  0  0  0  0
  -28.6280  -24.8250   20.6030 C   0  0  0  0  0  3  0  0  0  0  0  0
  -28.6300  -26.3510   20.1660 O   0  0  0  0  0  0  0  0  0  0  0  0
  -24.6210  -31.8140   23.1960 C   0  0  0  0  0  0  0  0  0  0  0  0
  -27.5080  -27.2700   20.1600 C   0  0  0  0  0  0  0  0  0  0  0  0
  -23.5290  -30.3720   21.5190 C   0  0  0  0  0  3  0  0  0  0  0  0
  -25.0900  -28.9040   20.0910 C   0  0  0  0  0  0  0  0  0  0  0  0
  -26.0660  -30.7800   21.4020 C   0  0  0  0  0  2  0  0  0  0  0  0
  -26.2300  -29.3990   20.7380 C   0  0  0  0  0  0  0  0  0  0  0  0
  -27.4390  -28.6000   20.7520 C   0  0  0  0  0  3  0  0  0  0  0  0
  -26.3450  -26.8920   19.4560 C   0  0  0  0  0  3  0  0  0  0  0  0
  -25.1670  -27.6720   19.4230 C   0  0  0  0  0  3  0  0  0  0  0  0
  -23.8110  -29.7290   20.1330 C   0  0  0  0  0  2  0  0  0  0  0  0
  -24.7550  -31.0140   22.0930 N   0  0  0  0  0  0  0  0  0  0  0  0
  -23.5130  -32.0250   23.7120 O   0  0  0  0  0  0  0  0  0  0  0  0
  -22.9010  -29.3130   22.4620 C   0  0  0  0  0  0  0  0  0  0  0  0
  -21.5930  -29.0430   22.2970 N   0  0  0  0  0  0  0  0  0  0  0  0
  -23.5920  -28.7380   23.3050 O   0  0  0  0  0  0  0  0  0  0  0  0
  -21.0880  -29.5580   21.5900 H   0  0  0  0  0  0  0  0  0  0  0  0
  -18.2970  -27.5970   22.7120 C   0  0  0  0  0  0  0  0  0  0  0  0
  -20.8230  -28.0460   23.0450 C   0  0  0  0  0  3  0  0  0  0  0  0
  -21.0440  -26.6290   22.4680 C   0  0  0  0  0  2  0  0  0  0  0  0
  -19.9940  -26.2330   21.4240 C   0  0  0  0  0  2  0  0  0  0  0  0
  -18.5910  -26.2700   22.0340 C   0  0  0  0  0  2  0  0  0  0  0  0
  -19.3460  -28.4390   23.1730 C   0  0  0  0  0  0  0  0  0  0  0  0
  -19.0170  -29.6770   23.7670 C   0  0  0  0  0  3  0  0  0  0  0  0
  -17.6740  -30.0760   23.9060 C   0  0  0  0  0  3  0  0  0  0  0  0
  -16.6410  -29.2350   23.4580 C   0  0  0  0  0  3  0  0  0  0  0  0
  -16.9540  -27.9970   22.8680 C   0  0  0  0  0  3  0  0  0  0  0  0
  -25.8490  -32.5180   23.8490 C   0  0  0  0  0  3  0  0  0  0  0  0
  -25.4690  -33.9130   24.1260 N   0  0  0  0  0  0  0  0  0  0  0  0
  -25.7860  -34.9620   23.3570 C   0  0  0  0  0  0  0  0  0  0  0  0
  -26.4940  -34.8600   22.3500 O   0  0  0  0  0  0  0  0  0  0  0  0
  -24.8400  -34.0620   24.9020 H   0  0  0  0  0  0  0  0  0  0  0  0
  -23.9940  -36.6740   22.9150 C   0  0  0  0  0  1  0  0  0  0  0  0
  -25.2310  -36.3400   23.7660 C   0  0  0  0  0  3  0  0  0  0  0  0
  -27.3020  -37.3410   24.6280 C   0  0  0  0  0  1  0  0  0  0  0  0
  -26.2210  -37.4340   23.6500 N   0  0  0  0  0  0  0  0  0  0  0  0
  -25.7710  -38.3390   23.7580 H   0  0  0  0  0  0  0  0  0  0  0  0
  -26.3420  -31.8100   25.1720 C   0  0  1  0  0  0  0  0  0  0  0  0
  -25.2130  -31.5490   26.1960 C   0  0  0  0  0  1  0  0  0  0  0  0
  -27.0110  -30.4530   24.8550 C   0  0  0  0  0  1  0  0  0  0  0  0
  -27.4170  -32.6830   25.8630 C   0  0  0  0  0  1  0  0  0  0  0  0
  2  1  2  0
  3  6  2  0
  3  5  1  0
  4  1  1  0
  4  7  1  0
  5  4  2  0
  6  2  1  0
  8  7  1  0
  9 18  1  0
  9  5  1  0
  9  8  1  0
 11 16  1  0
 12 13  1  0
 12 11  1  0
 14 13  1  0
 14 23  1  0
 14 15  1  0
 16 10  1  0
 16 15  1  0
 17 10  2  0
 18 10  1  0
 19 18  1  0
 20 21  2  0
 21 40  1  0
 22 21  1  0
 22 25  1  0
 23 24  1  0
 23 20  1  0
 24 22  2  0
 25 26  1  0
 26 27  2  0
 28 31  1  0
 28 27  1  0
 29 28  2  0
 30 29  1  0
 30 25  2  0
 31 32  1  0
 32 37  2  0
 32 33  1  0
 33 34  2  0
 34 35  1  0
 35 39  1  0
 36 35  2  0
 37 36  1  0
 38 37  1  0
 40 41  1  0
 41 44  1  0
 41 43  1  0
 42 40  2  0
 45 20  1  0
 45 46  1  0
 47 45  1  0
 48  6  1  0
 48 50  1  0
 50 49  1  0
 51 50  1  0
 52 63  2  0
 53 51  1  0
 53 58  1  0
 54 62  1  0
 54 64  1  0
 55 61  1  0
 55 57  1  0
 56 62  1  0
 57 58  2  0
 57 56  1  0
 59 53  2  0
 60 59  1  0
 60 55  2  0
 61 54  1  0
 62 52  1  0
 64 66  2  0
 65 64  1  0
 67 65  1  0
 68 77  2  0
 68 73  1  0
 69 65  1  0
 69 73  1  0
 70 69  1  0
 71 72  1  0
 71 70  1  0
 72 68  1  0
 73 74  2  0
 74 75  1  0
 76 75  2  0
 77 76  1  0
 78 52  1  0
 78 79  1  0
 78 88  1  0
 79 82  1  0
 80 84  1  0
 80 79  1  0
 81 80  2  0
 84 83  1  0
 86 87  1  0
 86 84  1  0
 86 85  1  0
 88 91  1  1
 88 89  1  0
 90 88  1  0
M  ISO  4  10 100  18 100  50 101  51 101
M  END
>  <TORSDO>  (76) 
F 18

>  <SCORE>  (76) 
-13.302

>  <name>  (76) 
75

>  <ligand_id>  (76) 
75

>  <original_smiles>  (76) 
[H]c1c([H])c([H])c2c(c1[H])C([H])([H])C([H])([H])C([H])([H])C2([H])N([H])C(=O)C1([H])N(C(=O)C([H])(N([H])C(=O)C([H])(N([H])C([H])([H])[H])C([H])([H])[H])C(C([H])([H])[H])(C([H])([H])[H])C([H])([H])[H])C([H])([H])c2c([H])c(OC([H])(C([H])([H])[H])C([H])([H])c3c([H])c([H])c4c(c3[H])C([H])(N([H])C(=O)N3C([H])([H])C([H])([H])C([H])([H])C([H])(n5nc(-c6c([H])c([H])c(Oc7c([H])c([H])c(F)c([H])c7F)c([H])c6[H])c(C(=O)N([H])[H])c5N([H])[H])C3([H])[H])C([H])([H])C4([H])[H])c([H])c([H])c2C1([H])[H]

>  <smiles>  (76) 
[H]c1c([H])c([H])c2c(c1[H])C([H])([H])C([H])([H])C([H])([H])C2([H])N([H])C(=O)C1([H])N(C(=O)C([H])(N([H])C(=O)C([H])(N([H])C([H])([H])[H])C([H])([H])[H])C(C([H])([H])[H])(C([H])([H])[H])C([H])([H])[H])C([H])([H])c2c([H])c(OC([H])(C([H])([H])[H])C([H])([H])c3c([H])c([H])c4c(c3[H])C([H])(N([H])C(=O)N3C([H])([H])C([H])([H])C([H])([H])C([H])(n5nc(-c6c([H])c([H])c(Oc7c([H])c([H])c(F)c([H])c7F)c([H])c6[H])c(C(=O)N([H])[H])c5N([H])[H])C3([H])[H])C([H])([H])C4([H])[H])c([H])c([H])c2C1([H])[H]

$$$$
76:0:0
     RDKit          3D

 91100  0  0  1  0  0  0  0  0999 V2000
  -30.1760  -19.6470   18.7270 C   0  0  0  0  0  3  0  0  0  0  0  0
  -29.8890  -19.8460   21.0580 C   0  0  0  0  0  3  0  0  0  0  0  0
  -29.8900  -20.5410   19.8110 C   0  0  0  0  0  0  0  0  0  0  0  0
  -30.3880  -18.2180   18.8410 C   0  0  0  0  0  0  0  0  0  0  0  0
  -30.1080  -18.4190   21.1990 C   0  0  0  0  0  0  0  0  0  0  0  0
  -30.3650  -17.5270   20.0970 C   0  0  0  0  0  0  0  0  0  0  0  0
  -30.5440  -17.4240   17.5560 C   0  0  0  0  0  1  0  0  0  0  0  0
  -30.0100  -17.8330   22.5970 C   0  0  0  0  0  1  0  0  0  0  0  0
  -31.1880  -14.9360   19.9420 C   0  0  0  0  0  0  0  0  0  0  0  0
  -31.0160  -12.6060   19.0080 C   0  0  0  0  0  2  0  0  0  0  0  0
  -30.0030  -12.6160   17.8380 C   0  0  0  0  0  2  0  0  0  0  0  0
  -28.5660  -12.4220   18.3580 C   0  0  0  0  0  2  0  0  0  0  0  0
  -28.2460  -13.3320   19.5720 C   0  0  0  0  0  3  0  0  0  0  0  0
  -29.3700  -13.2860   20.6320 C   0  0  0  0  0  2  0  0  0  0  0  0
  -30.6200  -13.6730   19.9620 N   0  0  0  0  0  0  0  0  0  0  0  0
  -32.3380  -15.0640   19.5070 O   0  0  0  0  0  0  0  0  0  0  0  0
  -30.3830  -16.0260   20.3020 N   0  0  0  0  0  0  0  0  0  0  0  0
  -29.5670  -15.6990   20.7960 H   0  0  0  0  0  0  0  0  0  0  0  0
  -25.9350  -13.9230   20.5120 C   0  0  0  0  0  0  0  0  0  0  0  0
  -24.8810  -13.1490   20.9150 C   0  0  0  0  0  0  0  0  0  0  0  0
  -25.3080  -11.7940   20.7720 C   0  0  0  0  0  0  0  0  0  0  0  0
  -26.9370  -13.0380   20.1450 N   0  0  0  0  0  0  0  0  0  0  0  0
  -26.5710  -11.7490   20.3650 N   0  0  0  0  0  0  0  0  0  0  0  0
  -24.5660  -10.5380   20.9450 C   0  0  0  0  0  0  0  0  0  0  0  0
  -24.9350   -9.5890   21.9240 C   0  0  0  0  0  3  0  0  0  0  0  0
  -24.1940   -8.3980   22.0820 C   0  0  0  0  0  3  0  0  0  0  0  0
  -23.0700   -8.1470   21.2600 C   0  0  0  0  0  0  0  0  0  0  0  0
  -22.7200   -9.0840   20.2710 C   0  0  0  0  0  3  0  0  0  0  0  0
  -23.4630  -10.2650   20.1110 C   0  0  0  0  0  3  0  0  0  0  0  0
  -22.3060   -7.0060   21.3260 O   0  0  0  0  0  0  0  0  0  0  0  0
  -22.0130   -6.4030   22.5220 C   0  0  0  0  0  0  0  0  0  0  0  0
  -21.3180   -7.0820   23.5470 C   0  0  0  0  0  3  0  0  0  0  0  0
  -20.9750   -6.4030   24.7340 C   0  0  0  0  0  3  0  0  0  0  0  0
  -21.3170   -5.0480   24.8950 C   0  0  0  0  0  0  0  0  0  0  0  0
  -22.0060   -4.3690   23.8730 C   0  0  0  0  0  3  0  0  0  0  0  0
  -22.3490   -5.0450   22.6890 C   0  0  0  0  0  0  0  0  0  0  0  0
  -22.9940   -4.3800   21.7000 F   0  0  0  0  0  0  0  0  0  0  0  0
  -20.9800   -4.3930   26.0310 F   0  0  0  0  0  0  0  0  0  0  0  0
  -23.5200  -13.6390   21.3190 C   0  0  0  0  0  0  0  0  0  0  0  0
  -22.8450  -12.9140   22.2040 N   0  0  0  0  0  0  0  0  0  0  0  0
  -23.0670  -14.6970   20.8840 O   0  0  0  0  0  0  0  0  0  0  0  0
  -23.2270  -12.0570   22.5760 H   0  0  0  0  0  0  0  0  0  0  0  0
  -21.9350  -13.2220   22.5170 H   0  0  0  0  0  0  0  0  0  0  0  0
  -26.1180  -15.2980   20.4020 N   0  0  0  0  0  0  0  0  0  0  0  0
  -25.3730  -15.9560   20.6060 H   0  0  0  0  0  0  0  0  0  0  0  0
  -26.9370  -15.7420   20.0060 H   0  0  0  0  0  0  0  0  0  0  0  0
  -30.4960  -23.0980   19.2010 C   0  0  0  0  0  2  0  0  0  0  0  0
  -29.4310  -22.0780   19.5390 C   0  0  0  0  0  3  0  0  0  0  0  0
  -29.5200  -23.5440   20.2660 C   0  0  0  0  0  3  0  0  0  0  0  0
  -28.5600  -24.8420   19.9890 C   0  0  0  0  0  2  0  0  0  0  0  0
  -28.8010  -26.3160   20.3410 O   0  0  0  0  0  0  0  0  0  0  0  0
  -25.0390  -31.8030   23.3940 C   0  0  0  0  0  0  0  0  0  0  0  0
  -27.7250  -27.2580   20.2680 C   0  0  0  0  0  0  0  0  0  0  0  0
  -23.8820  -30.4540   21.6860 C   0  0  0  0  0  3  0  0  0  0  0  0
  -25.3730  -28.9470   20.2420 C   0  0  0  0  0  0  0  0  0  0  0  0
  -26.4330  -30.7580   21.5790 C   0  0  0  0  0  2  0  0  0  0  0  0
  -26.5330  -29.3930   20.8880 C   0  0  0  0  0  0  0  0  0  0  0  0
  -27.7100  -28.5630   20.8880 C   0  0  0  0  0  3  0  0  0  0  0  0
  -26.5400  -26.9040   19.5820 C   0  0  0  0  0  3  0  0  0  0  0  0
  -25.3860  -27.7130   19.5760 C   0  0  0  0  0  3  0  0  0  0  0  0
  -24.1360  -29.8250   20.2890 C   0  0  0  0  0  2  0  0  0  0  0  0
  -25.1380  -31.0230   22.2770 N   0  0  0  0  0  0  0  0  0  0  0  0
  -23.9420  -32.0630   23.9080 O   0  0  0  0  0  0  0  0  0  0  0  0
  -23.1950  -29.4090   22.5990 C   0  0  0  0  0  0  0  0  0  0  0  0
  -21.8740  -29.2230   22.4270 N   0  0  0  0  0  0  0  0  0  0  0  0
  -23.8520  -28.7700   23.4250 O   0  0  0  0  0  0  0  0  0  0  0  0
  -21.4010  -29.7910   21.7390 H   0  0  0  0  0  0  0  0  0  0  0  0
  -18.4950  -27.9770   22.7990 C   0  0  0  0  0  0  0  0  0  0  0  0
  -21.0420  -28.2570   23.1480 C   0  0  0  0  0  3  0  0  0  0  0  0
  -21.1760  -26.8420   22.5380 C   0  0  0  0  0  2  0  0  0  0  0  0
  -20.1070  -26.5360   21.4840 C   0  0  0  0  0  2  0  0  0  0  0  0
  -18.7060  -26.6490   22.0920 C   0  0  0  0  0  2  0  0  0  0  0  0
  -19.5920  -28.7400   23.2810 C   0  0  0  0  0  0  0  0  0  0  0  0
  -19.3410  -29.9810   23.9030 C   0  0  0  0  0  3  0  0  0  0  0  0
  -18.0260  -30.4630   24.0460 C   0  0  0  0  0  3  0  0  0  0  0  0
  -16.9430  -29.6980   23.5780 C   0  0  0  0  0  3  0  0  0  0  0  0
  -17.1780  -28.4570   22.9610 C   0  0  0  0  0  3  0  0  0  0  0  0
  -26.3010  -32.4240   24.0690 C   0  0  0  0  0  3  0  0  0  0  0  0
  -25.9870  -33.8220   24.4000 N   0  0  0  0  0  0  0  0  0  0  0  0
  -26.3140  -34.8780   23.6430 C   0  0  0  0  0  0  0  0  0  0  0  0
  -26.9790  -34.7780   22.6080 O   0  0  0  0  0  0  0  0  0  0  0  0
  -25.3950  -33.9740   25.2030 H   0  0  0  0  0  0  0  0  0  0  0  0
  -24.5640  -36.6580   23.3240 C   0  0  0  0  0  1  0  0  0  0  0  0
  -25.8280  -36.2650   24.1050 C   0  0  0  0  0  3  0  0  0  0  0  0
  -27.9710  -37.1790   24.8840 C   0  0  0  0  0  1  0  0  0  0  0  0
  -26.8490  -37.3260   23.9610 N   0  0  0  0  0  0  0  0  0  0  0  0
  -26.4380  -38.2450   24.1040 H   0  0  0  0  0  0  0  0  0  0  0  0
  -26.7620  -31.6420   25.3590 C   0  0  1  0  0  0  0  0  0  0  0  0
  -25.6260  -31.3960   26.3790 C   0  0  0  0  0  1  0  0  0  0  0  0
  -27.3590  -30.2660   24.9820 C   0  0  0  0  0  1  0  0  0  0  0  0
  -27.8860  -32.4280   26.0730 C   0  0  0  0  0  1  0  0  0  0  0  0
  1  4  2  0
  1  3  1  0
  2  5  1  0
  3  2  2  0
  4  6  1  0
  5  8  1  0
  6 17  1  0
  6  5  2  0
  7  4  1  0
  9 15  1  0
  9 17  1  0
 10 15  1  0
 11 12  1  0
 11 10  1  0
 13 12  1  0
 13 22  1  0
 13 14  1  0
 15 14  1  0
 16  9  2  0
 17 18  1  0
 19 20  2  0
 20 39  1  0
 21 20  1  0
 21 24  1  0
 22 23  1  0
 22 19  1  0
 23 21  2  0
 24 25  1  0
 25 26  2  0
 27 30  1  0
 27 26  1  0
 28 27  2  0
 29 28  1  0
 29 24  2  0
 30 31  1  0
 31 36  2  0
 31 32  1  0
 32 33  2  0
 33 34  1  0
 34 38  1  0
 35 34  2  0
 36 35  1  0
 37 36  1  0
 39 40  1  0
 40 43  1  0
 40 42  1  0
 41 39  2  0
 44 19  1  0
 44 45  1  0
 46 44  1  0
 47 48  1  0
 47 49  1  0
 48  3  1  0
 48 49  1  0
 49 50  1  0
 50 51  1  0
 52 63  2  0
 53 51  1  0
 53 58  1  0
 54 62  1  0
 54 64  1  0
 55 61  1  0
 55 57  1  0
 56 62  1  0
 57 58  2  0
 57 56  1  0
 59 53  2  0
 60 59  1  0
 60 55  2  0
 61 54  1  0
 62 52  1  0
 64 66  2  0
 65 64  1  0
 67 65  1  0
 68 77  2  0
 68 73  1  0
 69 65  1  0
 69 73  1  0
 70 69  1  0
 71 72  1  0
 71 70  1  0
 72 68  1  0
 73 74  2  0
 74 75  1  0
 76 75  2  0
 77 76  1  0
 78 52  1  0
 78 79  1  0
 78 88  1  0
 79 82  1  0
 80 84  1  0
 80 79  1  0
 81 80  2  0
 84 83  1  0
 86 87  1  0
 86 84  1  0
 86 85  1  0
 88 91  1  1
 88 89  1  0
 90 88  1  0
M  ISO  4   9 100  17 100  50 101  51 101
M  END
>  <TORSDO>  (77) 
F 18

>  <SCORE>  (77) 
-12.186

>  <name>  (77) 
76

>  <ligand_id>  (77) 
76

>  <original_smiles>  (77) 
[H]c1c([H])c([H])c2c(c1[H])C([H])([H])C([H])([H])C([H])([H])C2([H])N([H])C(=O)C1([H])N(C(=O)C([H])(N([H])C(=O)C([H])(N([H])C([H])([H])[H])C([H])([H])[H])C(C([H])([H])[H])(C([H])([H])[H])C([H])([H])[H])C([H])([H])c2c([H])c(OC([H])([H])C3([H])C([H])([H])C3([H])c3c([H])c(C([H])([H])[H])c(N([H])C(=O)N4C([H])([H])C([H])([H])C([H])([H])C([H])(n5nc(-c6c([H])c([H])c(Oc7c([H])c([H])c(F)c([H])c7F)c([H])c6[H])c(C(=O)N([H])[H])c5N([H])[H])C4([H])[H])c(C([H])([H])[H])c3[H])c([H])c([H])c2C1([H])[H]

>  <smiles>  (77) 
[H]c1c([H])c([H])c2c(c1[H])C([H])([H])C([H])([H])C([H])([H])C2([H])N([H])C(=O)C1([H])N(C(=O)C([H])(N([H])C(=O)C([H])(N([H])C([H])([H])[H])C([H])([H])[H])C(C([H])([H])[H])(C([H])([H])[H])C([H])([H])[H])C([H])([H])c2c([H])c(OC([H])([H])C3([H])C([H])([H])C3([H])c3c([H])c(C([H])([H])[H])c(N([H])C(=O)N4C([H])([H])C([H])([H])C([H])([H])C([H])(n5nc(-c6c([H])c([H])c(Oc7c([H])c([H])c(F)c([H])c7F)c([H])c6[H])c(C(=O)N([H])[H])c5N([H])[H])C4([H])[H])c(C([H])([H])[H])c3[H])c([H])c([H])c2C1([H])[H]

$$$$
77:0:0
     RDKit          3D

 92101  0  0  1  0  0  0  0  0999 V2000
  -29.9310  -21.7800   20.6890 C   0  0  0  0  0  0  0  0  0  0  0  0
  -29.1300  -22.8190   20.3470 N   0  0  0  0  0  0  0  0  0  0  0  0
  -30.9980  -21.9660   21.2760 O   0  0  0  0  0  0  0  0  0  0  0  0
  -28.2740  -22.5880   19.8590 H   0  0  0  0  0  0  0  0  0  0  0  0
  -29.6140  -19.2290   21.4180 C   0  0  0  0  0  2  0  0  0  0  0  0
  -29.8670  -18.1250   19.1720 C   0  0  0  0  0  2  0  0  0  0  0  0
  -31.5520  -18.9180   19.9280 C   0  0  0  0  0  2  0  0  0  0  0  0
  -29.4650  -20.3300   20.3280 C   0  0  0  0  0  3  0  0  0  0  0  0
  -30.3230  -19.5970   19.2870 C   0  0  0  0  0  3  0  0  0  0  0  0
  -30.4000  -18.1540   20.6220 C   0  0  1  0  0  0  0  0  0  0  0  0
  -30.7350  -16.8510   21.4160 C   0  0  0  0  0  2  0  0  0  0  0  0
  -30.7570  -14.5450   20.3680 C   0  0  0  0  0  0  0  0  0  0  0  0
  -30.4020  -12.3860   19.2110 C   0  0  0  0  0  2  0  0  0  0  0  0
  -29.4670  -12.6010   18.0050 C   0  0  0  0  0  2  0  0  0  0  0  0
  -27.9940  -12.4600   18.4390 C   0  0  0  0  0  2  0  0  0  0  0  0
  -27.6660  -13.2970   19.7090 C   0  0  0  0  0  3  0  0  0  0  0  0
  -28.7260  -13.0940   20.8150 C   0  0  0  0  0  2  0  0  0  0  0  0
  -30.0450  -13.3860   20.2300 N   0  0  0  0  0  0  0  0  0  0  0  0
  -31.8890  -14.6800   19.9060 O   0  0  0  0  0  0  0  0  0  0  0  0
  -30.1200  -15.5810   20.9580 N   0  0  0  0  0  0  0  0  0  0  0  0
  -29.1740  -15.4060   21.2640 H   0  0  0  0  0  0  0  0  0  0  0  0
  -25.2710  -13.9140   20.4200 C   0  0  0  0  0  0  0  0  0  0  0  0
  -24.2000  -13.1490   20.7990 C   0  0  0  0  0  0  0  0  0  0  0  0
  -24.6550  -11.7960   20.7780 C   0  0  0  0  0  0  0  0  0  0  0  0
  -26.3130  -13.0270   20.1940 N   0  0  0  0  0  0  0  0  0  0  0  0
  -25.9460  -11.7480   20.4720 N   0  0  0  0  0  0  0  0  0  0  0  0
  -23.9210  -10.5390   20.9810 C   0  0  0  0  0  0  0  0  0  0  0  0
  -24.3520   -9.5750   21.9180 C   0  0  0  0  0  3  0  0  0  0  0  0
  -23.6220   -8.3840   22.1100 C   0  0  0  0  0  3  0  0  0  0  0  0
  -22.4430   -8.1460   21.3640 C   0  0  0  0  0  0  0  0  0  0  0  0
  -22.0310   -9.0960   20.4110 C   0  0  0  0  0  3  0  0  0  0  0  0
  -22.7630  -10.2790   20.2190 C   0  0  0  0  0  3  0  0  0  0  0  0
  -21.6850   -7.0040   21.4600 O   0  0  0  0  0  0  0  0  0  0  0  0
  -21.6340   -6.2700   22.6180 C   0  0  0  0  0  0  0  0  0  0  0  0
  -21.2100   -6.8340   23.8410 C   0  0  0  0  0  3  0  0  0  0  0  0
  -21.1030   -6.0250   24.9890 C   0  0  0  0  0  3  0  0  0  0  0  0
  -21.4130   -4.6530   24.9190 C   0  0  0  0  0  0  0  0  0  0  0  0
  -21.8320   -4.0890   23.7010 C   0  0  0  0  0  3  0  0  0  0  0  0
  -21.9370   -4.8960   22.5540 C   0  0  0  0  0  0  0  0  0  0  0  0
  -22.3160   -4.3410   21.3780 F   0  0  0  0  0  0  0  0  0  0  0  0
  -21.3070   -3.8760   26.0220 F   0  0  0  0  0  0  0  0  0  0  0  0
  -22.8040  -13.6350   21.0700 C   0  0  0  0  0  0  0  0  0  0  0  0
  -22.0720  -12.9510   21.9400 N   0  0  0  0  0  0  0  0  0  0  0  0
  -22.3710  -14.6550   20.5370 O   0  0  0  0  0  0  0  0  0  0  0  0
  -22.4340  -12.1260   22.3970 H   0  0  0  0  0  0  0  0  0  0  0  0
  -21.1320  -13.2560   22.1530 H   0  0  0  0  0  0  0  0  0  0  0  0
  -25.4400  -15.2830   20.2300 N   0  0  0  0  0  0  0  0  0  0  0  0
  -24.6810  -15.9440   20.3520 H   0  0  0  0  0  0  0  0  0  0  0  0
  -26.2930  -15.7210   19.8990 H   0  0  0  0  0  0  0  0  0  0  0  0
  -29.3640  -24.2620   20.6160 C   0  0  0  0  0  2  0  0  0  0  0  0
  -28.1910  -25.1710   20.1150 C   0  0  0  0  0  2  0  0  0  0  0  0
  -28.3530  -26.6100   20.2680 O   0  0  0  0  0  0  0  0  0  0  0  0
  -24.5640  -31.8920   23.2390 C   0  0  0  0  0  0  0  0  0  0  0  0
  -27.2020  -27.3920   20.1950 C   0  0  0  0  0  0  0  0  0  0  0  0
  -23.3610  -30.4860   21.6020 C   0  0  0  0  0  3  0  0  0  0  0  0
  -24.8130  -28.9470   20.1760 C   0  0  0  0  0  0  0  0  0  0  0  0
  -25.8900  -30.8320   21.4080 C   0  0  0  0  0  2  0  0  0  0  0  0
  -25.9740  -29.4570   20.7690 C   0  0  0  0  0  0  0  0  0  0  0  0
  -27.1700  -28.6910   20.7670 C   0  0  0  0  0  3  0  0  0  0  0  0
  -26.0180  -26.9170   19.5780 C   0  0  0  0  0  3  0  0  0  0  0  0
  -24.8360  -27.6810   19.5690 C   0  0  0  0  0  3  0  0  0  0  0  0
  -23.5690  -29.8080   20.2230 C   0  0  0  0  0  2  0  0  0  0  0  0
  -24.6240  -31.0850   22.1400 N   0  0  0  0  0  0  0  0  0  0  0  0
  -23.4820  -32.1670   23.7760 O   0  0  0  0  0  0  0  0  0  0  0  0
  -22.7050  -29.4680   22.5650 C   0  0  0  0  0  0  0  0  0  0  0  0
  -21.3790  -29.2920   22.4370 N   0  0  0  0  0  0  0  0  0  0  0  0
  -23.3850  -28.8410   23.3810 O   0  0  0  0  0  0  0  0  0  0  0  0
  -20.8950  -29.8440   21.7450 H   0  0  0  0  0  0  0  0  0  0  0  0
  -17.9990  -28.1110   22.9470 C   0  0  0  0  0  0  0  0  0  0  0  0
  -20.5590  -28.3580   23.2090 C   0  0  0  0  0  3  0  0  0  0  0  0
  -20.6540  -26.9270   22.6300 C   0  0  0  0  0  2  0  0  0  0  0  0
  -19.5450  -26.6090   21.6220 C   0  0  0  0  0  2  0  0  0  0  0  0
  -18.1650  -26.7620   22.2690 C   0  0  0  0  0  2  0  0  0  0  0  0
  -19.1230  -28.8670   23.3730 C   0  0  0  0  0  0  0  0  0  0  0  0
  -18.9130  -30.1310   23.9670 C   0  0  0  0  0  3  0  0  0  0  0  0
  -17.6120  -30.6380   24.1410 C   0  0  0  0  0  3  0  0  0  0  0  0
  -16.5010  -29.8810   23.7290 C   0  0  0  0  0  3  0  0  0  0  0  0
  -16.6960  -28.6200   23.1380 C   0  0  0  0  0  3  0  0  0  0  0  0
  -25.8490  -32.5220   23.8590 C   0  0  0  0  0  3  0  0  0  0  0  0
  -26.3690  -31.7500   25.1330 C   0  0  1  0  0  0  0  0  0  0  0  0
  -25.2760  -31.5100   26.2000 C   0  0  0  0  0  1  0  0  0  0  0  0
  -26.9550  -30.3730   24.7390 C   0  0  0  0  0  1  0  0  0  0  0  0
  -27.5210  -32.5440   25.7930 C   0  0  0  0  0  1  0  0  0  0  0  0
  -25.5400  -33.9200   24.1890 N   0  0  0  0  0  0  0  0  0  0  0  0
  -25.8680  -34.9720   23.4270 C   0  0  0  0  0  0  0  0  0  0  0  0
  -26.5320  -34.8660   22.3920 O   0  0  0  0  0  0  0  0  0  0  0  0
  -24.9550  -34.0750   24.9980 H   0  0  0  0  0  0  0  0  0  0  0  0
  -24.1370  -36.7610   23.0720 C   0  0  0  0  0  1  0  0  0  0  0  0
  -25.3790  -36.3600   23.8830 C   0  0  0  0  0  3  0  0  0  0  0  0
  -27.5160  -37.2450   24.7070 C   0  0  0  0  0  1  0  0  0  0  0  0
  -26.4110  -37.4130   23.7670 N   0  0  0  0  0  0  0  0  0  0  0  0
  -26.0080  -38.3340   23.9170 H   0  0  0  0  0  0  0  0  0  0  0  0
  1  3  2  0
  2 50  1  0
  2  1  1  0
  4  2  1  0
  6 10  1  0
  7 10  1  0
  8  1  1  0
  8  5  1  0
  9  6  1  0
  9  7  1  0
  9  8  1  0
 10 11  1  1
 10  5  1  0
 12 20  1  0
 13 18  1  0
 14 15  1  0
 14 13  1  0
 16 15  1  0
 16 25  1  0
 16 17  1  0
 18 12  1  0
 18 17  1  0
 19 12  2  0
 20 21  1  0
 20 11  1  0
 22 23  2  0
 23 42  1  0
 24 23  1  0
 24 27  1  0
 25 22  1  0
 25 26  1  0
 26 24  2  0
 27 28  1  0
 28 29  2  0
 30 33  1  0
 30 29  1  0
 31 30  2  0
 32 31  1  0
 32 27  2  0
 33 34  1  0
 34 35  1  0
 35 36  2  0
 37 36  1  0
 37 41  1  0
 38 37  2  0
 39 34  2  0
 39 38  1  0
 40 39  1  0
 42 43  1  0
 43 46  1  0
 43 45  1  0
 44 42  2  0
 47 48  1  0
 47 22  1  0
 49 47  1  0
 51 52  1  0
 51 50  1  0
 53 64  2  0
 54 52  1  0
 54 59  1  0
 55 63  1  0
 55 65  1  0
 56 62  1  0
 56 58  1  0
 57 63  1  0
 58 57  1  0
 59 58  2  0
 60 54  2  0
 61 60  1  0
 61 56  2  0
 62 55  1  0
 63 53  1  0
 65 67  2  0
 66 65  1  0
 68 66  1  0
 69 78  2  0
 69 74  1  0
 70 66  1  0
 70 74  1  0
 71 70  1  0
 72 73  1  0
 72 71  1  0
 73 69  1  0
 74 75  2  0
 75 76  1  0
 77 76  2  0
 78 77  1  0
 79 53  1  0
 79 84  1  0
 79 80  1  0
 80 83  1  1
 80 81  1  0
 82 80  1  0
 84 87  1  0
 85 89  1  0
 85 84  1  0
 86 85  2  0
 89 88  1  0
 91 89  1  0
 91 92  1  0
 91 90  1  0
M  ISO  4  12 100  20 100  51 101  52 101
M  END
>  <TORSDO>  (78) 
F 20

>  <SCORE>  (78) 
-13.743

>  <name>  (78) 
77

>  <ligand_id>  (78) 
77

>  <original_smiles>  (78) 
[H]c1c([H])c([H])c2c(c1[H])C([H])([H])C([H])([H])C([H])([H])C2([H])N([H])C(=O)C1([H])N(C(=O)C([H])(N([H])C(=O)C([H])(N([H])C([H])([H])[H])C([H])([H])[H])C(C([H])([H])[H])(C([H])([H])[H])C([H])([H])[H])C([H])([H])c2c([H])c(OC([H])([H])C([H])([H])N([H])C(=O)C3([H])C([H])([H])C4(C([H])([H])N([H])C(=O)N5C([H])([H])C([H])([H])C([H])([H])C([H])(n6nc(-c7c([H])c([H])c(Oc8c([H])c([H])c(F)c([H])c8F)c([H])c7[H])c(C(=O)N([H])[H])c6N([H])[H])C5([H])[H])C([H])([H])C3([H])C4([H])[H])c([H])c([H])c2C1([H])[H]

>  <smiles>  (78) 
[H]c1c([H])c([H])c2c(c1[H])C([H])([H])C([H])([H])C([H])([H])C2([H])N([H])C(=O)C1([H])N(C(=O)C([H])(N([H])C(=O)C([H])(N([H])C([H])([H])[H])C([H])([H])[H])C(C([H])([H])[H])(C([H])([H])[H])C([H])([H])[H])C([H])([H])c2c([H])c(OC([H])([H])C([H])([H])N([H])C(=O)C3([H])C([H])([H])C4(C([H])([H])N([H])C(=O)N5C([H])([H])C([H])([H])C([H])([H])C([H])(n6nc(-c7c([H])c([H])c(Oc8c([H])c([H])c(F)c([H])c8F)c([H])c7[H])c(C(=O)N([H])[H])c6N([H])[H])C5([H])[H])C([H])([H])C3([H])C4([H])[H])c([H])c([H])c2C1([H])[H]

$$$$
78:0:0
     RDKit          3D

 90 98  0  0  1  0  0  0  0  0999 V2000
  -29.3600  -20.5610   19.4230 C   0  0  0  0  0  0  0  0  0  0  0  0
  -29.5660  -21.8510   20.0080 N   0  0  0  0  0  0  0  0  0  0  0  0
  -28.5510  -20.4780   18.4970 O   0  0  0  0  0  0  0  0  0  0  0  0
  -30.2360  -21.8270   20.7660 H   0  0  0  0  0  0  0  0  0  0  0  0
  -30.2190  -19.1120   19.8540 C   0  0  0  0  0  0  0  0  0  0  0  0
  -31.3720  -19.2560   20.2760 O   0  0  0  0  0  0  0  0  0  0  0  0
  -30.7830  -14.9540   19.6430 C   0  0  0  0  0  0  0  0  0  0  0  0
  -30.4670  -12.6230   18.6250 C   0  0  0  0  0  2  0  0  0  0  0  0
  -29.4020  -12.6150   17.4950 C   0  0  0  0  0  2  0  0  0  0  0  0
  -27.9800  -12.4530   18.0710 C   0  0  0  0  0  2  0  0  0  0  0  0
  -27.7340  -13.3610   19.3020 C   0  0  0  0  0  3  0  0  0  0  0  0
  -28.8990  -13.2610   20.3030 C   0  0  0  0  0  2  0  0  0  0  0  0
  -30.1310  -13.7020   19.6120 N   0  0  0  0  0  0  0  0  0  0  0  0
  -31.8590  -15.0240   19.0410 O   0  0  0  0  0  0  0  0  0  0  0  0
  -29.1300  -17.2640   22.0810 C   0  0  0  0  0  2  0  0  0  0  0  0
  -28.4320  -17.5920   20.7630 C   0  0  0  0  0  2  0  0  0  0  0  0
  -30.0690  -16.1160   21.7020 C   0  0  0  0  0  2  0  0  0  0  0  0
  -29.5700  -17.5220   19.7350 C   0  0  0  0  0  3  0  0  0  0  0  0
  -30.1970  -16.1260   20.2320 N   0  0  0  0  0  0  0  0  0  0  0  0
  -25.4750  -14.0030   20.3290 C   0  0  0  0  0  0  0  0  0  0  0  0
  -24.4310  -13.2590   20.8060 C   0  0  0  0  0  0  0  0  0  0  0  0
  -24.8300  -11.8960   20.6750 C   0  0  0  0  0  0  0  0  0  0  0  0
  -26.4470  -13.0970   19.9400 N   0  0  0  0  0  0  0  0  0  0  0  0
  -26.0730  -11.8200   20.2130 N   0  0  0  0  0  0  0  0  0  0  0  0
  -24.0740  -10.6570   20.9080 C   0  0  0  0  0  0  0  0  0  0  0  0
  -24.5070   -9.6970   21.8490 C   0  0  0  0  0  3  0  0  0  0  0  0
  -23.7570   -8.5230   22.0710 C   0  0  0  0  0  3  0  0  0  0  0  0
  -22.5580   -8.2990   21.3510 C   0  0  0  0  0  0  0  0  0  0  0  0
  -22.1430   -9.2490   20.4000 C   0  0  0  0  0  3  0  0  0  0  0  0
  -22.8940  -10.4150   20.1780 C   0  0  0  0  0  3  0  0  0  0  0  0
  -21.7780   -7.1770   21.4800 O   0  0  0  0  0  0  0  0  0  0  0  0
  -21.6500   -6.5240   22.6800 C   0  0  0  0  0  0  0  0  0  0  0  0
  -21.1670   -7.1760   23.8360 C   0  0  0  0  0  3  0  0  0  0  0  0
  -20.9860   -6.4500   25.0300 C   0  0  0  0  0  3  0  0  0  0  0  0
  -21.2730   -5.0710   25.0650 C   0  0  0  0  0  0  0  0  0  0  0  0
  -21.7470   -4.4200   23.9140 C   0  0  0  0  0  3  0  0  0  0  0  0
  -21.9300   -5.1450   22.7240 C   0  0  0  0  0  0  0  0  0  0  0  0
  -22.3670   -4.5080   21.6100 F   0  0  0  0  0  0  0  0  0  0  0  0
  -21.0910   -4.3690   26.2090 F   0  0  0  0  0  0  0  0  0  0  0  0
  -23.0960  -13.7820   21.2560 C   0  0  0  0  0  0  0  0  0  0  0  0
  -22.4560  -13.1090   22.2050 N   0  0  0  0  0  0  0  0  0  0  0  0
  -22.6350  -14.8280   20.8010 O   0  0  0  0  0  0  0  0  0  0  0  0
  -22.8410  -12.2620   22.5970 H   0  0  0  0  0  0  0  0  0  0  0  0
  -21.5730  -13.4510   22.5550 H   0  0  0  0  0  0  0  0  0  0  0  0
  -25.6640  -15.3680   20.1650 N   0  0  0  0  0  0  0  0  0  0  0  0
  -24.9530  -16.0520   20.4000 H   0  0  0  0  0  0  0  0  0  0  0  0
  -26.4720  -15.7760   19.7130 H   0  0  0  0  0  0  0  0  0  0  0  0
  -29.1530  -23.3280   19.5300 C   0  0  0  0  0  2  0  0  0  0  0  0
  -28.6070  -24.6290   20.4900 C   0  0  0  0  0  2  0  0  0  0  0  0
  -28.6630  -26.1790   20.2360 O   0  0  0  0  0  0  0  0  0  0  0  0
  -24.5690  -31.6350   23.1750 C   0  0  0  0  0  0  0  0  0  0  0  0
  -27.5180  -27.0680   20.2290 C   0  0  0  0  0  0  0  0  0  0  0  0
  -23.5070  -30.1790   21.4930 C   0  0  0  0  0  3  0  0  0  0  0  0
  -25.0890  -28.6810   20.1230 C   0  0  0  0  0  0  0  0  0  0  0  0
  -26.0450  -30.5810   21.4170 C   0  0  0  0  0  2  0  0  0  0  0  0
  -26.2190  -29.1930   20.7710 C   0  0  0  0  0  0  0  0  0  0  0  0
  -27.4340  -28.4050   20.8020 C   0  0  0  0  0  3  0  0  0  0  0  0
  -26.3490  -26.6480   19.5590 C   0  0  0  0  0  3  0  0  0  0  0  0
  -25.1660  -27.4240   19.5010 C   0  0  0  0  0  3  0  0  0  0  0  0
  -23.8120  -29.5130   20.1240 C   0  0  0  0  0  2  0  0  0  0  0  0
  -24.7240  -30.8220   22.0850 N   0  0  0  0  0  0  0  0  0  0  0  0
  -23.4510  -31.8590   23.6620 O   0  0  0  0  0  0  0  0  0  0  0  0
  -22.8490  -29.1370   22.4320 C   0  0  0  0  0  0  0  0  0  0  0  0
  -21.5330  -28.9100   22.2720 N   0  0  0  0  0  0  0  0  0  0  0  0
  -23.5270  -28.5330   23.2660 O   0  0  0  0  0  0  0  0  0  0  0  0
  -21.0410  -29.4500   21.5740 H   0  0  0  0  0  0  0  0  0  0  0  0
  -18.1910  -27.5770   22.7010 C   0  0  0  0  0  0  0  0  0  0  0  0
  -20.7340  -27.9320   23.0160 C   0  0  0  0  0  3  0  0  0  0  0  0
  -20.9000  -26.5140   22.4210 C   0  0  0  0  0  2  0  0  0  0  0  0
  -19.8280  -26.1640   21.3840 C   0  0  0  0  0  2  0  0  0  0  0  0
  -18.4300  -26.2480   22.0060 C   0  0  0  0  0  2  0  0  0  0  0  0
  -19.2730  -28.3750   23.1610 C   0  0  0  0  0  0  0  0  0  0  0  0
  -18.9960  -29.6160   23.7720 C   0  0  0  0  0  3  0  0  0  0  0  0
  -17.6690  -30.0630   23.9270 C   0  0  0  0  0  3  0  0  0  0  0  0
  -16.6020  -29.2630   23.4820 C   0  0  0  0  0  3  0  0  0  0  0  0
  -16.8640  -28.0210   22.8760 C   0  0  0  0  0  3  0  0  0  0  0  0
  -25.7860  -32.3390   23.8490 C   0  0  0  0  0  3  0  0  0  0  0  0
  -26.2910  -31.5980   25.1470 C   0  0  1  0  0  0  0  0  0  0  0  0
  -25.1660  -31.2910   26.1650 C   0  0  0  0  0  1  0  0  0  0  0  0
  -26.9730  -30.2580   24.7830 C   0  0  0  0  0  1  0  0  0  0  0  0
  -27.3610  -32.4560   25.8620 C   0  0  0  0  0  1  0  0  0  0  0  0
  -25.3850  -33.7190   24.1710 N   0  0  0  0  0  0  0  0  0  0  0  0
  -25.6770  -34.7940   23.4270 C   0  0  0  0  0  0  0  0  0  0  0  0
  -26.3780  -34.7330   22.4130 O   0  0  0  0  0  0  0  0  0  0  0  0
  -24.7650  -33.8360   24.9570 H   0  0  0  0  0  0  0  0  0  0  0  0
  -23.8620  -36.4940   23.0370 C   0  0  0  0  0  1  0  0  0  0  0  0
  -25.1040  -36.1520   23.8770 C   0  0  0  0  0  3  0  0  0  0  0  0
  -27.1610  -37.1540   24.7670 C   0  0  0  0  0  1  0  0  0  0  0  0
  -26.0780  -37.2610   23.7940 N   0  0  0  0  0  0  0  0  0  0  0  0
  -25.6170  -38.1580   23.9320 H   0  0  0  0  0  0  0  0  0  0  0  0
  1  5  1  0
  1  2  1  0
  2  4  1  0
  3  1  2  0
  5  6  2  0
  7 19  1  0
  8 13  1  0
  9 10  1  0
  9  8  1  0
 11 10  1  0
 11 23  1  0
 11 12  1  0
 13  7  1  0
 13 12  1  0
 14  7  2  0
 16 15  1  0
 17 15  1  0
 18  5  1  0
 18 19  1  0
 18 16  1  0
 19 17  1  0
 20 21  2  0
 21 40  1  0
 22 21  1  0
 22 25  1  0
 23 24  1  0
 23 20  1  0
 24 22  2  0
 25 26  1  0
 26 27  2  0
 28 31  1  0
 28 27  1  0
 29 28  2  0
 30 29  1  0
 30 25  2  0
 31 32  1  0
 32 37  2  0
 32 33  1  0
 33 34  2  0
 34 35  1  0
 35 39  1  0
 36 35  2  0
 37 36  1  0
 38 37  1  0
 40 41  1  0
 41 44  1  0
 41 43  1  0
 42 40  2  0
 45 20  1  0
 45 46  1  0
 47 45  1  0
 48  2  1  0
 48 49  1  0
 50 49  1  0
 51 62  2  0
 52 50  1  0
 52 57  1  0
 53 61  1  0
 53 63  1  0
 54 60  1  0
 54 56  1  0
 55 61  1  0
 56 57  2  0
 56 55  1  0
 58 52  2  0
 59 58  1  0
 59 54  2  0
 60 53  1  0
 61 51  1  0
 63 65  2  0
 64 63  1  0
 66 64  1  0
 67 76  2  0
 67 72  1  0
 68 64  1  0
 68 72  1  0
 69 68  1  0
 70 71  1  0
 70 69  1  0
 71 67  1  0
 72 73  2  0
 73 74  1  0
 75 74  2  0
 76 75  1  0
 77 51  1  0
 77 82  1  0
 77 78  1  0
 78 81  1  1
 78 79  1  0
 80 78  1  0
 82 85  1  0
 83 87  1  0
 83 82  1  0
 84 83  2  0
 87 86  1  0
 89 87  1  0
 89 90  1  0
 89 88  1  0
M  ISO  4   7 100  19 100  49 101  50 101
M  END
>  <TORSDO>  (79) 
F 19

>  <SCORE>  (79) 
-13.092

>  <name>  (79) 
78

>  <ligand_id>  (79) 
78

>  <original_smiles>  (79) 
[H]c1c([H])c([H])c2c(c1[H])C([H])([H])C([H])([H])C([H])([H])C2([H])N([H])C(=O)C1([H])N(C(=O)C([H])(N([H])C(=O)C([H])(N([H])C([H])([H])[H])C([H])([H])[H])C(C([H])([H])[H])(C([H])([H])[H])C([H])([H])[H])C([H])([H])c2c([H])c(OC([H])([H])C([H])([H])N([H])C(=O)C(=O)C3([H])N(C(=O)N4C([H])([H])C([H])([H])C([H])([H])C([H])(n5nc(-c6c([H])c([H])c(Oc7c([H])c([H])c(F)c([H])c7F)c([H])c6[H])c(C(=O)N([H])[H])c5N([H])[H])C4([H])[H])C([H])([H])C([H])([H])C3([H])[H])c([H])c([H])c2C1([H])[H]

>  <smiles>  (79) 
[H]c1c([H])c([H])c2c(c1[H])C([H])([H])C([H])([H])C([H])([H])C2([H])N([H])C(=O)C1([H])N(C(=O)C([H])(N([H])C(=O)C([H])(N([H])C([H])([H])[H])C([H])([H])[H])C(C([H])([H])[H])(C([H])([H])[H])C([H])([H])[H])C([H])([H])c2c([H])c(OC([H])([H])C([H])([H])N([H])C(=O)C(=O)C3([H])N(C(=O)N4C([H])([H])C([H])([H])C([H])([H])C([H])(n5nc(-c6c([H])c([H])c(Oc7c([H])c([H])c(F)c([H])c7F)c([H])c6[H])c(C(=O)N([H])[H])c5N([H])[H])C4([H])[H])C([H])([H])C([H])([H])C3([H])[H])c([H])c([H])c2C1([H])[H]

$$$$
79:0:0
     RDKit          3D

 88 96  0  0  1  0  0  0  0  0999 V2000
  -28.9820  -23.4760   20.2880 C   0  0  0  0  0  0  0  0  0  0  0  0
  -30.1660  -23.8180   20.2210 O   0  0  0  0  0  0  0  0  0  0  0  0
  -28.6240  -21.8530   20.3740 C   0  0  0  0  0  2  0  0  0  0  0  0
  -30.8580  -20.7610   19.3330 C   0  0  0  0  0  2  0  0  0  0  0  0
  -31.0790  -20.8100   20.8240 C   0  0  0  0  0  2  0  0  0  0  0  0
  -29.6840  -20.5630   20.2770 C   0  0  1  0  0  0  0  0  0  0  0  0
  -29.1690  -18.9850   20.4250 C   0  0  0  0  0  3  0  0  0  0  0  0
  -30.1940  -17.6480   20.3080 C   0  0  0  0  0  3  0  0  0  0  0  0
  -30.5520  -14.9470   20.3230 C   0  0  0  0  0  0  0  0  0  0  0  0
  -30.4080  -12.6100   19.3740 C   0  0  0  0  0  2  0  0  0  0  0  0
  -29.4780  -12.6020   18.1400 C   0  0  0  0  0  2  0  0  0  0  0  0
  -28.0140  -12.3860   18.5730 C   0  0  0  0  0  2  0  0  0  0  0  0
  -27.6150  -13.2900   19.7700 C   0  0  0  0  0  3  0  0  0  0  0  0
  -28.6730  -13.2970   20.8930 C   0  0  0  0  0  2  0  0  0  0  0  0
  -29.9440  -13.6970   20.2800 N   0  0  0  0  0  0  0  0  0  0  0  0
  -31.7490  -15.0100   20.0330 O   0  0  0  0  0  0  0  0  0  0  0  0
  -29.7880  -16.1330   20.4730 N   0  0  0  0  0  0  0  0  0  0  0  0
  -28.8120  -15.9730   20.6680 H   0  0  0  0  0  0  0  0  0  0  0  0
  -25.2300  -13.8500   20.5070 C   0  0  0  0  0  0  0  0  0  0  0  0
  -24.1730  -13.0670   20.8820 C   0  0  0  0  0  0  0  0  0  0  0  0
  -24.6490  -11.7200   20.8540 C   0  0  0  0  0  0  0  0  0  0  0  0
  -26.2800  -12.9790   20.2690 N   0  0  0  0  0  0  0  0  0  0  0  0
  -25.9410  -11.6930   20.5420 N   0  0  0  0  0  0  0  0  0  0  0  0
  -23.9310  -10.4530   21.0460 C   0  0  0  0  0  0  0  0  0  0  0  0
  -24.3750   -9.4860   21.9760 C   0  0  0  0  0  3  0  0  0  0  0  0
  -23.6580   -8.2840   22.1580 C   0  0  0  0  0  3  0  0  0  0  0  0
  -22.4810   -8.0410   21.4100 C   0  0  0  0  0  0  0  0  0  0  0  0
  -22.0580   -8.9950   20.4680 C   0  0  0  0  0  3  0  0  0  0  0  0
  -22.7760  -10.1870   20.2830 C   0  0  0  0  0  3  0  0  0  0  0  0
  -21.7340   -6.8920   21.5030 O   0  0  0  0  0  0  0  0  0  0  0  0
  -21.6990   -6.1420   22.6520 C   0  0  0  0  0  0  0  0  0  0  0  0
  -21.2860   -6.6900   23.8860 C   0  0  0  0  0  3  0  0  0  0  0  0
  -21.1980   -5.8680   25.0280 C   0  0  0  0  0  3  0  0  0  0  0  0
  -21.5150   -4.4990   24.9350 C   0  0  0  0  0  0  0  0  0  0  0  0
  -21.9220   -3.9510   23.7070 C   0  0  0  0  0  3  0  0  0  0  0  0
  -22.0110   -4.7700   22.5680 C   0  0  0  0  0  0  0  0  0  0  0  0
  -22.3810   -4.2310   21.3810 F   0  0  0  0  0  0  0  0  0  0  0  0
  -21.4250   -3.7090   26.0300 F   0  0  0  0  0  0  0  0  0  0  0  0
  -22.7720  -13.5320   21.1500 C   0  0  0  0  0  0  0  0  0  0  0  0
  -22.0520  -12.8380   22.0230 N   0  0  0  0  0  0  0  0  0  0  0  0
  -22.3250  -14.5480   20.6200 O   0  0  0  0  0  0  0  0  0  0  0  0
  -22.4290  -12.0170   22.4760 H   0  0  0  0  0  0  0  0  0  0  0  0
  -21.1110  -13.1300   22.2410 H   0  0  0  0  0  0  0  0  0  0  0  0
  -25.3820  -15.2230   20.3240 N   0  0  0  0  0  0  0  0  0  0  0  0
  -24.6070  -15.8680   20.4200 H   0  0  0  0  0  0  0  0  0  0  0  0
  -26.2190  -15.6640   19.9650 H   0  0  0  0  0  0  0  0  0  0  0  0
  -27.8570  -24.6820   20.2780 C   0  0  0  0  0  2  0  0  0  0  0  0
  -28.2260  -26.1920   20.2420 O   0  0  0  0  0  0  0  0  0  0  0  0
  -24.6460  -31.8890   23.2420 C   0  0  0  0  0  0  0  0  0  0  0  0
  -27.1800  -27.1810   20.1920 C   0  0  0  0  0  0  0  0  0  0  0  0
  -23.4290  -30.5000   21.6100 C   0  0  0  0  0  3  0  0  0  0  0  0
  -24.8610  -28.9290   20.1740 C   0  0  0  0  0  0  0  0  0  0  0  0
  -25.9810  -30.7630   21.4260 C   0  0  0  0  0  2  0  0  0  0  0  0
  -26.0470  -29.3710   20.7760 C   0  0  0  0  0  0  0  0  0  0  0  0
  -27.2090  -28.5120   20.7680 C   0  0  0  0  0  3  0  0  0  0  0  0
  -25.9670  -26.8420   19.5500 C   0  0  0  0  0  3  0  0  0  0  0  0
  -24.8340  -27.6770   19.5450 C   0  0  0  0  0  3  0  0  0  0  0  0
  -23.6380  -29.8270   20.2280 C   0  0  0  0  0  2  0  0  0  0  0  0
  -24.7060  -31.0710   22.1490 N   0  0  0  0  0  0  0  0  0  0  0  0
  -23.5650  -32.1760   23.7800 O   0  0  0  0  0  0  0  0  0  0  0  0
  -22.7540  -29.4940   22.5750 C   0  0  0  0  0  0  0  0  0  0  0  0
  -21.4260  -29.3260   22.4540 N   0  0  0  0  0  0  0  0  0  0  0  0
  -23.4280  -28.8660   23.3940 O   0  0  0  0  0  0  0  0  0  0  0  0
  -20.9400  -29.8840   21.7660 H   0  0  0  0  0  0  0  0  0  0  0  0
  -18.0440  -28.1260   22.9580 C   0  0  0  0  0  0  0  0  0  0  0  0
  -20.6020  -28.3930   23.2290 C   0  0  0  0  0  3  0  0  0  0  0  0
  -20.7070  -26.9580   22.6620 C   0  0  0  0  0  2  0  0  0  0  0  0
  -19.6060  -26.6270   21.6500 C   0  0  0  0  0  2  0  0  0  0  0  0
  -18.2240  -26.7740   22.2910 C   0  0  0  0  0  2  0  0  0  0  0  0
  -19.1610  -28.8940   23.3850 C   0  0  0  0  0  0  0  0  0  0  0  0
  -18.9390  -30.1580   23.9720 C   0  0  0  0  0  3  0  0  0  0  0  0
  -17.6320  -30.6550   24.1400 C   0  0  0  0  0  3  0  0  0  0  0  0
  -16.5300  -29.8870   23.7290 C   0  0  0  0  0  3  0  0  0  0  0  0
  -16.7360  -28.6240   23.1430 C   0  0  0  0  0  3  0  0  0  0  0  0
  -25.9310  -32.5170   23.8620 C   0  0  0  0  0  3  0  0  0  0  0  0
  -25.6240  -33.9140   24.2090 N   0  0  0  0  0  0  0  0  0  0  0  0
  -25.9280  -34.9750   23.4490 C   0  0  0  0  0  0  0  0  0  0  0  0
  -26.5640  -34.8800   22.3950 O   0  0  0  0  0  0  0  0  0  0  0  0
  -25.0520  -34.0590   25.0280 H   0  0  0  0  0  0  0  0  0  0  0  0
  -24.1700  -36.7580   23.1840 C   0  0  0  0  0  1  0  0  0  0  0  0
  -25.4530  -36.3590   23.9320 C   0  0  0  0  0  3  0  0  0  0  0  0
  -27.6180  -37.2610   24.6590 C   0  0  0  0  0  1  0  0  0  0  0  0
  -26.4690  -37.4210   23.7720 N   0  0  0  0  0  0  0  0  0  0  0  0
  -26.0630  -38.3370   23.9410 H   0  0  0  0  0  0  0  0  0  0  0  0
  -26.4530  -31.7360   25.1310 C   0  0  1  0  0  0  0  0  0  0  0  0
  -25.3670  -31.4950   26.2060 C   0  0  0  0  0  1  0  0  0  0  0  0
  -27.0270  -30.3570   24.7320 C   0  0  0  0  0  1  0  0  0  0  0  0
  -27.6150  -32.5190   25.7880 C   0  0  0  0  0  1  0  0  0  0  0  0
  1  3  1  0
  2  1  2  0
  4  6  1  0
  4  5  1  0
  6  3  1  6
  6  7  1  0
  6  5  1  0
  8  7  2  0
  8 17  1  0
  9 17  1  0
 10 15  1  0
 11 12  1  0
 11 10  1  0
 13 12  1  0
 13 22  1  0
 13 14  1  0
 15  9  1  0
 15 14  1  0
 16  9  2  0
 17 18  1  0
 19 20  2  0
 20 39  1  0
 21 20  1  0
 21 24  1  0
 22 19  1  0
 22 23  1  0
 23 21  2  0
 24 25  1  0
 25 26  2  0
 27 30  1  0
 27 26  1  0
 28 27  2  0
 29 28  1  0
 29 24  2  0
 30 31  1  0
 31 32  1  0
 32 33  2  0
 34 33  1  0
 34 38  1  0
 35 34  2  0
 36 31  2  0
 36 35  1  0
 37 36  1  0
 39 40  1  0
 40 43  1  0
 40 42  1  0
 41 39  2  0
 44 45  1  0
 44 19  1  0
 46 44  1  0
 47  1  1  0
 48 47  1  0
 49 60  2  0
 50 48  1  0
 50 55  1  0
 51 59  1  0
 51 61  1  0
 52 58  1  0
 52 54  1  0
 53 59  1  0
 54 53  1  0
 55 54  2  0
 56 50  2  0
 57 56  1  0
 57 52  2  0
 58 51  1  0
 59 49  1  0
 61 63  2  0
 62 61  1  0
 64 62  1  0
 65 74  2  0
 65 70  1  0
 66 62  1  0
 66 70  1  0
 67 66  1  0
 68 69  1  0
 68 67  1  0
 69 65  1  0
 70 71  2  0
 71 72  1  0
 73 72  2  0
 74 73  1  0
 75 49  1  0
 75 76  1  0
 75 85  1  0
 76 79  1  0
 77 81  1  0
 77 76  1  0
 78 77  2  0
 81 80  1  0
 83 81  1  0
 83 84  1  0
 83 82  1  0
 85 88  1  1
 85 86  1  0
 87 85  1  0
M  ISO  4   9 100  17 100  47 101  48 101
M  END
>  <TORSDO>  (80) 
F 21

>  <SCORE>  (80) 
-13.315

>  <name>  (80) 
79

>  <ligand_id>  (80) 
79

>  <original_smiles>  (80) 
[H]c1c([H])c([H])c2c(c1[H])C([H])([H])C([H])([H])C([H])([H])C2([H])N([H])C(=O)C1([H])N(C(=O)C([H])(N([H])C(=O)C([H])(N([H])C([H])([H])[H])C([H])([H])[H])C(C([H])([H])[H])(C([H])([H])[H])C([H])([H])[H])C([H])([H])c2c([H])c(OC([H])([H])C(=O)C([H])([H])C3(C([H])([H])C([H])([H])N([H])C(=O)N4C([H])([H])C([H])([H])C([H])([H])C([H])(n5nc(-c6c([H])c([H])c(Oc7c([H])c([H])c(F)c([H])c7F)c([H])c6[H])c(C(=O)N([H])[H])c5N([H])[H])C4([H])[H])C([H])([H])C3([H])[H])c([H])c([H])c2C1([H])[H]

>  <smiles>  (80) 
[H]c1c([H])c([H])c2c(c1[H])C([H])([H])C([H])([H])C([H])([H])C2([H])N([H])C(=O)C1([H])N(C(=O)C([H])(N([H])C(=O)C([H])(N([H])C([H])([H])[H])C([H])([H])[H])C(C([H])([H])[H])(C([H])([H])[H])C([H])([H])[H])C([H])([H])c2c([H])c(OC([H])([H])C(=O)C([H])([H])C3(C([H])([H])C([H])([H])N([H])C(=O)N4C([H])([H])C([H])([H])C([H])([H])C([H])(n5nc(-c6c([H])c([H])c(Oc7c([H])c([H])c(F)c([H])c7F)c([H])c6[H])c(C(=O)N([H])[H])c5N([H])[H])C4([H])[H])C([H])([H])C3([H])[H])c([H])c([H])c2C1([H])[H]

$$$$
80:0:0
     RDKit          3D

 89 98  0  0  1  0  0  0  0  0999 V2000
  -29.0090  -22.9080   20.3280 C   0  0  0  0  0  0  0  0  0  0  0  0
  -28.7790  -21.4340   20.3050 N   0  0  0  0  0  0  0  0  0  0  0  0
  -30.1910  -23.2370   20.4360 O   0  0  0  0  0  0  0  0  0  0  0  0
  -27.7920  -21.2460   20.1760 H   0  0  0  0  0  0  0  0  0  0  0  0
  -27.8980  -24.2740   20.2130 C   0  0  0  0  0  2  0  0  0  0  0  0
  -28.1970  -25.9020   20.2710 O   0  0  0  0  0  0  0  0  0  0  0  0
  -24.6330  -31.9010   23.2120 C   0  0  0  0  0  0  0  0  0  0  0  0
  -27.1820  -27.0030   20.2180 C   0  0  0  0  0  0  0  0  0  0  0  0
  -23.4280  -30.4950   21.5900 C   0  0  0  0  0  3  0  0  0  0  0  0
  -24.8680  -28.8750   20.1720 C   0  0  0  0  0  0  0  0  0  0  0  0
  -25.9920  -30.7070   21.4240 C   0  0  0  0  0  2  0  0  0  0  0  0
  -26.0620  -29.2900   20.7790 C   0  0  0  0  0  0  0  0  0  0  0  0
  -27.2090  -28.3750   20.7800 C   0  0  0  0  0  3  0  0  0  0  0  0
  -25.9580  -26.7420   19.5600 C   0  0  0  0  0  3  0  0  0  0  0  0
  -24.8400  -27.6180   19.5460 C   0  0  0  0  0  3  0  0  0  0  0  0
  -23.6480  -29.7950   20.2210 C   0  0  0  0  0  2  0  0  0  0  0  0
  -24.7070  -31.0610   22.1290 N   0  0  0  0  0  0  0  0  0  0  0  0
  -23.5460  -32.1960   23.7350 O   0  0  0  0  0  0  0  0  0  0  0  0
  -22.7380  -29.5080   22.5670 C   0  0  0  0  0  0  0  0  0  0  0  0
  -21.4090  -29.3380   22.4430 N   0  0  0  0  0  0  0  0  0  0  0  0
  -23.4060  -28.8940   23.4030 O   0  0  0  0  0  0  0  0  0  0  0  0
  -20.9230  -29.8870   21.7460 H   0  0  0  0  0  0  0  0  0  0  0  0
  -18.0320  -28.1180   22.9640 C   0  0  0  0  0  0  0  0  0  0  0  0
  -20.5890  -28.4040   23.2220 C   0  0  0  0  0  3  0  0  0  0  0  0
  -20.7000  -26.9680   22.6630 C   0  0  0  0  0  2  0  0  0  0  0  0
  -19.6010  -26.6260   21.6520 C   0  0  0  0  0  2  0  0  0  0  0  0
  -18.2180  -26.7660   22.2950 C   0  0  0  0  0  2  0  0  0  0  0  0
  -19.1460  -28.8950   23.3830 C   0  0  0  0  0  0  0  0  0  0  0  0
  -18.9180  -30.1560   23.9720 C   0  0  0  0  0  3  0  0  0  0  0  0
  -17.6100  -30.6460   24.1430 C   0  0  0  0  0  3  0  0  0  0  0  0
  -16.5100  -29.8690   23.7380 C   0  0  0  0  0  3  0  0  0  0  0  0
  -16.7230  -28.6060   23.1550 C   0  0  0  0  0  3  0  0  0  0  0  0
  -25.9080  -32.5460   23.8350 C   0  0  0  0  0  3  0  0  0  0  0  0
  -25.5890  -33.9450   24.1710 N   0  0  0  0  0  0  0  0  0  0  0  0
  -25.8910  -35.0060   23.4110 C   0  0  0  0  0  0  0  0  0  0  0  0
  -26.5330  -34.9120   22.3620 O   0  0  0  0  0  0  0  0  0  0  0  0
  -25.0140  -34.0930   24.9870 H   0  0  0  0  0  0  0  0  0  0  0  0
  -24.1300  -36.7870   23.1410 C   0  0  0  0  0  1  0  0  0  0  0  0
  -25.4100  -36.3900   23.8920 C   0  0  0  0  0  3  0  0  0  0  0  0
  -27.5690  -37.3020   24.6310 C   0  0  0  0  0  1  0  0  0  0  0  0
  -26.4250  -37.4560   23.7360 N   0  0  0  0  0  0  0  0  0  0  0  0
  -26.0120  -38.3700   23.9030 H   0  0  0  0  0  0  0  0  0  0  0  0
  -26.4210  -31.7850   25.1210 C   0  0  1  0  0  0  0  0  0  0  0  0
  -25.3260  -31.5610   26.1910 C   0  0  0  0  0  1  0  0  0  0  0  0
  -27.0030  -30.4030   24.7480 C   0  0  0  0  0  1  0  0  0  0  0  0
  -27.5730  -32.5830   25.7760 C   0  0  0  0  0  1  0  0  0  0  0  0
  -29.6920  -20.0140   20.2710 C   0  0  0  0  0  2  0  0  0  0  0  0
  -30.4040  -15.4460   20.1870 C   0  0  0  0  0  0  0  0  0  0  0  0
  -30.3950  -13.0010   19.2660 C   0  0  0  0  0  2  0  0  0  0  0  0
  -29.4420  -12.7370   18.0750 C   0  0  0  0  0  2  0  0  0  0  0  0
  -28.0090  -12.4310   18.5590 C   0  0  0  0  0  2  0  0  0  0  0  0
  -27.5590  -13.3770   19.7030 C   0  0  0  0  0  3  0  0  0  0  0  0
  -28.6510  -13.5780   20.7780 C   0  0  0  0  0  2  0  0  0  0  0  0
  -29.8300  -14.1370   20.0810 N   0  0  0  0  0  0  0  0  0  0  0  0
  -31.6430  -15.4050   20.1770 O   0  0  0  0  0  0  0  0  0  0  0  0
  -28.4520  -17.8290   17.9350 C   0  0  0  0  0  2  0  0  0  0  0  0
  -27.7650  -18.2660   20.4340 C   0  0  0  0  0  2  0  0  0  0  0  0
  -27.5550  -17.5780   19.1200 C   0  0  0  0  0  3  0  0  0  0  0  0
  -28.7220  -16.6700   18.8750 C   0  0  0  0  0  3  0  0  0  0  0  0
  -29.2930  -18.2710   20.6210 C   0  0  0  0  0  3  0  0  0  0  0  0
  -29.6740  -16.7460   19.9520 N   0  0  0  0  0  0  0  0  0  0  0  0
  -25.2090  -13.9160   20.5290 C   0  0  0  0  0  0  0  0  0  0  0  0
  -24.1570  -13.1310   20.8920 C   0  0  0  0  0  0  0  0  0  0  0  0
  -24.6260  -11.7820   20.8260 C   0  0  0  0  0  0  0  0  0  0  0  0
  -26.2510  -13.0470   20.2490 N   0  0  0  0  0  0  0  0  0  0  0  0
  -25.9130  -11.7570   20.4940 N   0  0  0  0  0  0  0  0  0  0  0  0
  -23.9040  -10.5160   21.0020 C   0  0  0  0  0  0  0  0  0  0  0  0
  -24.3350   -9.5410   21.9300 C   0  0  0  0  0  3  0  0  0  0  0  0
  -23.6080   -8.3430   22.0960 C   0  0  0  0  0  3  0  0  0  0  0  0
  -22.4380   -8.1080   21.3360 C   0  0  0  0  0  0  0  0  0  0  0  0
  -22.0260   -9.0710   20.3990 C   0  0  0  0  0  3  0  0  0  0  0  0
  -22.7520  -10.2620   20.2290 C   0  0  0  0  0  3  0  0  0  0  0  0
  -21.6890   -6.9580   21.4150 O   0  0  0  0  0  0  0  0  0  0  0  0
  -21.6170   -6.2240   22.5710 C   0  0  0  0  0  0  0  0  0  0  0  0
  -21.1470   -6.7840   23.7790 C   0  0  0  0  0  3  0  0  0  0  0  0
  -21.0260   -5.9790   24.9290 C   0  0  0  0  0  3  0  0  0  0  0  0
  -21.3630   -4.6130   24.8730 C   0  0  0  0  0  0  0  0  0  0  0  0
  -21.8260   -4.0520   23.6690 C   0  0  0  0  0  3  0  0  0  0  0  0
  -21.9500   -4.8550   22.5230 C   0  0  0  0  0  0  0  0  0  0  0  0
  -22.3780   -4.3050   21.3600 F   0  0  0  0  0  0  0  0  0  0  0  0
  -21.2380   -3.8360   25.9750 F   0  0  0  0  0  0  0  0  0  0  0  0
  -22.7630  -13.6020   21.1900 C   0  0  0  0  0  0  0  0  0  0  0  0
  -22.0530  -12.8960   22.0610 N   0  0  0  0  0  0  0  0  0  0  0  0
  -22.3170  -14.6330   20.6870 O   0  0  0  0  0  0  0  0  0  0  0  0
  -22.4250  -12.0590   22.4850 H   0  0  0  0  0  0  0  0  0  0  0  0
  -21.1210  -13.1980   22.3070 H   0  0  0  0  0  0  0  0  0  0  0  0
  -25.3600  -15.2910   20.3870 N   0  0  0  0  0  0  0  0  0  0  0  0
  -24.5860  -15.9330   20.5250 H   0  0  0  0  0  0  0  0  0  0  0  0
  -26.2150  -15.7480   20.1100 H   0  0  0  0  0  0  0  0  0  0  0  0
  1  3  2  0
  2  1  1  0
  4  2  1  0
  5  6  1  0
  5  1  1  0
  7 18  2  0
  8  6  1  0
  8 13  1  0
  9 17  1  0
  9 19  1  0
 10 16  1  0
 10 12  1  0
 11 17  1  0
 12 13  2  0
 12 11  1  0
 14  8  2  0
 15 14  1  0
 15 10  2  0
 16  9  1  0
 17  7  1  0
 19 21  2  0
 20 19  1  0
 22 20  1  0
 23 32  2  0
 23 28  1  0
 24 20  1  0
 24 28  1  0
 25 24  1  0
 26 27  1  0
 26 25  1  0
 27 23  1  0
 28 29  2  0
 29 30  1  0
 31 30  2  0
 32 31  1  0
 33  7  1  0
 33 34  1  0
 33 43  1  0
 34 37  1  0
 35 39  1  0
 35 34  1  0
 36 35  2  0
 39 38  1  0
 41 39  1  0
 41 42  1  0
 41 40  1  0
 43 46  1  1
 43 44  1  0
 45 43  1  0
 47  2  1  0
 49 54  1  0
 50 51  1  0
 50 49  1  0
 52 51  1  0
 52 65  1  0
 52 53  1  0
 54 48  1  0
 54 53  1  0
 55 48  2  0
 57 60  1  0
 58 56  1  0
 58 57  1  0
 59 56  1  0
 59 58  1  0
 59 61  1  0
 60 47  1  0
 61 48  1  0
 61 60  1  0
 62 63  2  0
 63 82  1  0
 64 63  1  0
 64 67  1  0
 65 66  1  0
 65 62  1  0
 66 64  2  0
 67 68  1  0
 68 69  2  0
 70 73  1  0
 70 69  1  0
 71 70  2  0
 72 71  1  0
 72 67  2  0
 73 74  1  0
 74 75  1  0
 75 76  2  0
 77 76  1  0
 77 81  1  0
 78 77  2  0
 79 74  2  0
 79 78  1  0
 80 79  1  0
 82 83  1  0
 83 86  1  0
 83 85  1  0
 84 82  2  0
 87 88  1  0
 87 62  1  0
 89 87  1  0
M  ISO  4   5 101   6 101  48 100  61 100
M  END
>  <TORSDO>  (81) 
F 18

>  <SCORE>  (81) 
-16.816

>  <name>  (81) 
80

>  <ligand_id>  (81) 
80

>  <original_smiles>  (81) 
[H]c1c([H])c([H])c2c(c1[H])C([H])([H])C([H])([H])C([H])([H])C2([H])N([H])C(=O)C1([H])N(C(=O)C([H])(N([H])C(=O)C([H])(N([H])C([H])([H])[H])C([H])([H])[H])C(C([H])([H])[H])(C([H])([H])[H])C([H])([H])[H])C([H])([H])c2c([H])c(OC([H])([H])C(=O)N([H])C([H])([H])C3([H])N(C(=O)N4C([H])([H])C([H])([H])C([H])([H])C([H])(n5nc(-c6c([H])c([H])c(Oc7c([H])c([H])c(F)c([H])c7F)c([H])c6[H])c(C(=O)N([H])[H])c5N([H])[H])C4([H])[H])C4([H])C([H])([H])C4([H])C3([H])[H])c([H])c([H])c2C1([H])[H]

>  <smiles>  (81) 
[H]c1c([H])c([H])c2c(c1[H])C([H])([H])C([H])([H])C([H])([H])C2([H])N([H])C(=O)C1([H])N(C(=O)C([H])(N([H])C(=O)C([H])(N([H])C([H])([H])[H])C([H])([H])[H])C(C([H])([H])[H])(C([H])([H])[H])C([H])([H])[H])C([H])([H])c2c([H])c(OC([H])([H])C(=O)N([H])C([H])([H])C3([H])N(C(=O)N4C([H])([H])C([H])([H])C([H])([H])C([H])(n5nc(-c6c([H])c([H])c(Oc7c([H])c([H])c(F)c([H])c7F)c([H])c6[H])c(C(=O)N([H])[H])c5N([H])[H])C4([H])[H])C4([H])C([H])([H])C4([H])C3([H])[H])c([H])c([H])c2C1([H])[H]

$$$$
81:0:0
     RDKit          3D

 93102  0  0  1  0  0  0  0  0999 V2000
  -29.8470  -20.3560   21.8790 C   0  0  0  0  0  3  0  0  0  0  0  0
  -29.9580  -18.9900   21.4750 C   0  0  0  0  0  3  0  0  0  0  0  0
  -28.9650  -19.5880   19.3520 C   0  0  0  0  0  3  0  0  0  0  0  0
  -29.2980  -21.3640   21.0290 C   0  0  0  0  0  0  0  0  0  0  0  0
  -28.8500  -20.9630   19.7440 C   0  0  0  0  0  0  0  0  0  0  0  0
  -29.5390  -18.5640   20.1880 C   0  0  0  0  0  0  0  0  0  0  0  0
  -29.2380  -22.8290   21.4590 C   0  0  0  0  0  0  0  0  0  0  0  0
  -28.2470  -22.0060   18.7700 C   0  0  0  0  0  2  0  0  0  0  0  0
  -28.4550  -23.5140   19.1490 C   0  0  0  0  0  2  0  0  0  0  0  0
  -28.2920  -23.8010   20.6620 C   0  0  0  0  0  3  0  0  0  0  0  0
  -29.8970  -23.2470   22.4170 O   0  0  0  0  0  0  0  0  0  0  0  0
  -29.0740  -16.7820   18.3560 C   0  0  0  0  0  1  0  0  0  0  0  0
  -29.8590  -17.1030   19.6470 C   0  0  0  0  0  3  0  0  0  0  0  0
  -30.5840  -14.7470   20.3610 C   0  0  0  0  0  0  0  0  0  0  0  0
  -30.3640  -12.4870   19.3560 C   0  0  0  0  0  2  0  0  0  0  0  0
  -29.4290  -12.5860   18.1300 C   0  0  0  0  0  2  0  0  0  0  0  0
  -27.9530  -12.4560   18.5480 C   0  0  0  0  0  2  0  0  0  0  0  0
  -27.5920  -13.3220   19.7840 C   0  0  0  0  0  3  0  0  0  0  0  0
  -28.6460  -13.1990   20.9070 C   0  0  0  0  0  2  0  0  0  0  0  0
  -29.9560  -13.5270   20.3280 N   0  0  0  0  0  0  0  0  0  0  0  0
  -31.7550  -14.8590   19.9900 O   0  0  0  0  0  0  0  0  0  0  0  0
  -29.7930  -15.8670   20.5200 N   0  0  0  0  0  0  0  0  0  0  0  0
  -28.8970  -15.6920   20.9470 H   0  0  0  0  0  0  0  0  0  0  0  0
  -25.1980  -13.9230   20.4960 C   0  0  0  0  0  0  0  0  0  0  0  0
  -24.1310  -13.1500   20.8690 C   0  0  0  0  0  0  0  0  0  0  0  0
  -24.5950  -11.7980   20.8470 C   0  0  0  0  0  0  0  0  0  0  0  0
  -26.2430  -13.0410   20.2670 N   0  0  0  0  0  0  0  0  0  0  0  0
  -25.8870  -11.7610   20.5430 N   0  0  0  0  0  0  0  0  0  0  0  0
  -23.8710  -10.5350   21.0390 C   0  0  0  0  0  0  0  0  0  0  0  0
  -24.3040   -9.5680   21.9700 C   0  0  0  0  0  3  0  0  0  0  0  0
  -23.5750   -8.3710   22.1520 C   0  0  0  0  0  3  0  0  0  0  0  0
  -22.4000   -8.1370   21.4000 C   0  0  0  0  0  0  0  0  0  0  0  0
  -21.9860   -9.0920   20.4550 C   0  0  0  0  0  3  0  0  0  0  0  0
  -22.7170  -10.2790   20.2720 C   0  0  0  0  0  3  0  0  0  0  0  0
  -21.6430   -6.9910   21.4880 O   0  0  0  0  0  0  0  0  0  0  0  0
  -21.6010   -6.2440   22.6380 C   0  0  0  0  0  0  0  0  0  0  0  0
  -21.1870   -6.7970   23.8710 C   0  0  0  0  0  3  0  0  0  0  0  0
  -21.0910   -5.9770   25.0130 C   0  0  0  0  0  3  0  0  0  0  0  0
  -21.3990   -4.6060   24.9250 C   0  0  0  0  0  0  0  0  0  0  0  0
  -21.8050   -4.0530   23.6970 C   0  0  0  0  0  3  0  0  0  0  0  0
  -21.9020   -4.8690   22.5560 C   0  0  0  0  0  0  0  0  0  0  0  0
  -22.2720   -4.3280   21.3700 F   0  0  0  0  0  0  0  0  0  0  0  0
  -21.3000   -3.8150   26.0170 F   0  0  0  0  0  0  0  0  0  0  0  0
  -22.7330  -13.6260   21.1320 C   0  0  0  0  0  0  0  0  0  0  0  0
  -21.9990  -12.9300   21.9930 N   0  0  0  0  0  0  0  0  0  0  0  0
  -22.2950  -14.6500   20.6070 O   0  0  0  0  0  0  0  0  0  0  0  0
  -22.3690  -12.1050   22.4400 H   0  0  0  0  0  0  0  0  0  0  0  0
  -21.0570  -13.2270   22.2090 H   0  0  0  0  0  0  0  0  0  0  0  0
  -25.3580  -15.2940   20.3130 N   0  0  0  0  0  0  0  0  0  0  0  0
  -24.5820  -15.9390   20.4170 H   0  0  0  0  0  0  0  0  0  0  0  0
  -26.1960  -15.7340   19.9560 H   0  0  0  0  0  0  0  0  0  0  0  0
  -28.2160  -25.3380   21.1470 C   0  0  0  0  0  2  0  0  0  0  0  0
  -28.3650  -26.5300   20.2810 O   0  0  0  0  0  0  0  0  0  0  0  0
  -24.6050  -31.9430   23.2400 C   0  0  0  0  0  0  0  0  0  0  0  0
  -27.2680  -27.3940   20.2390 C   0  0  0  0  0  0  0  0  0  0  0  0
  -23.4230  -30.5220   21.6000 C   0  0  0  0  0  3  0  0  0  0  0  0
  -24.8970  -28.9760   20.1920 C   0  0  0  0  0  0  0  0  0  0  0  0
  -25.9590  -30.8630   21.4350 C   0  0  0  0  0  2  0  0  0  0  0  0
  -26.0560  -29.4820   20.7970 C   0  0  0  0  0  0  0  0  0  0  0  0
  -27.2520  -28.7000   20.8120 C   0  0  0  0  0  3  0  0  0  0  0  0
  -26.0910  -26.9300   19.6200 C   0  0  0  0  0  3  0  0  0  0  0  0
  -24.9130  -27.7040   19.5940 C   0  0  0  0  0  3  0  0  0  0  0  0
  -23.6510  -29.8410   20.2260 C   0  0  0  0  0  2  0  0  0  0  0  0
  -24.6800  -31.1250   22.1510 N   0  0  0  0  0  0  0  0  0  0  0  0
  -23.5170  -32.2180   23.7690 O   0  0  0  0  0  0  0  0  0  0  0  0
  -22.7630  -29.5090   22.5630 C   0  0  0  0  0  0  0  0  0  0  0  0
  -21.4430  -29.3080   22.4180 N   0  0  0  0  0  0  0  0  0  0  0  0
  -23.4360  -28.9100   23.4070 O   0  0  0  0  0  0  0  0  0  0  0  0
  -20.9620  -29.8350   21.7040 H   0  0  0  0  0  0  0  0  0  0  0  0
  -18.0820  -28.0590   22.8730 C   0  0  0  0  0  0  0  0  0  0  0  0
  -20.6260  -28.3720   23.1920 C   0  0  0  0  0  3  0  0  0  0  0  0
  -20.7700  -26.9330   22.6450 C   0  0  0  0  0  2  0  0  0  0  0  0
  -19.6990  -26.5720   21.6130 C   0  0  0  0  0  2  0  0  0  0  0  0
  -18.3000  -26.7010   22.2250 C   0  0  0  0  0  2  0  0  0  0  0  0
  -19.1760  -28.8480   23.3110 C   0  0  0  0  0  0  0  0  0  0  0  0
  -18.9200  -30.1140   23.8810 C   0  0  0  0  0  3  0  0  0  0  0  0
  -17.6030  -30.5930   24.0110 C   0  0  0  0  0  3  0  0  0  0  0  0
  -16.5240  -29.8010   23.5870 C   0  0  0  0  0  3  0  0  0  0  0  0
  -16.7620  -28.5340   23.0270 C   0  0  0  0  0  3  0  0  0  0  0  0
  -25.8830  -32.5880   23.8630 C   0  0  0  0  0  3  0  0  0  0  0  0
  -25.5640  -33.9890   24.1800 N   0  0  0  0  0  0  0  0  0  0  0  0
  -25.8990  -35.0360   23.4170 C   0  0  0  0  0  0  0  0  0  0  0  0
  -26.5790  -34.9260   22.3920 O   0  0  0  0  0  0  0  0  0  0  0  0
  -24.9600  -34.1480   24.9730 H   0  0  0  0  0  0  0  0  0  0  0  0
  -24.1650  -36.8130   23.0270 C   0  0  0  0  0  1  0  0  0  0  0  0
  -25.4010  -36.4250   23.8570 C   0  0  0  0  0  3  0  0  0  0  0  0
  -27.5230  -37.3200   24.6970 C   0  0  0  0  0  1  0  0  0  0  0  0
  -26.4300  -37.4820   23.7430 N   0  0  0  0  0  0  0  0  0  0  0  0
  -26.0210  -38.4020   23.8880 H   0  0  0  0  0  0  0  0  0  0  0  0
  -26.3930  -31.8330   25.1510 C   0  0  1  0  0  0  0  0  0  0  0  0
  -25.2920  -31.6010   26.2100 C   0  0  0  0  0  1  0  0  0  0  0  0
  -26.9890  -30.4550   24.7810 C   0  0  0  0  0  1  0  0  0  0  0  0
  -27.5380  -32.6370   25.8130 C   0  0  0  0  0  1  0  0  0  0  0  0
  2  1  1  0
  3  5  2  0
  3  6  1  0
  4  7  1  0
  4  1  2  0
  5  4  1  0
  6  2  2  0
  7 11  2  0
  8  9  1  0
  8  5  1  0
  9 10  1  0
 10 52  1  0
 10  7  1  0
 13 12  1  0
 13  6  1  0
 13 22  1  0
 14 22  1  0
 15 20  1  0
 16 17  1  0
 16 15  1  0
 18 17  1  0
 18 27  1  0
 18 19  1  0
 20 14  1  0
 20 19  1  0
 21 14  2  0
 22 23  1  0
 24 25  2  0
 25 44  1  0
 26 25  1  0
 26 29  1  0
 27 24  1  0
 27 28  1  0
 28 26  2  0
 29 30  1  0
 30 31  2  0
 32 35  1  0
 32 31  1  0
 33 32  2  0
 34 33  1  0
 34 29  2  0
 35 36  1  0
 36 37  1  0
 37 38  2  0
 39 38  1  0
 39 43  1  0
 40 39  2  0
 41 36  2  0
 41 40  1  0
 42 41  1  0
 44 45  1  0
 45 48  1  0
 45 47  1  0
 46 44  2  0
 49 50  1  0
 49 24  1  0
 51 49  1  0
 53 52  1  0
 54 65  2  0
 55 53  1  0
 55 60  1  0
 56 64  1  0
 56 66  1  0
 57 63  1  0
 57 59  1  0
 58 64  1  0
 59 60  2  0
 59 58  1  0
 61 55  2  0
 62 61  1  0
 62 57  2  0
 63 56  1  0
 64 54  1  0
 66 68  2  0
 67 66  1  0
 69 67  1  0
 70 79  2  0
 70 75  1  0
 71 67  1  0
 71 75  1  0
 72 71  1  0
 73 74  1  0
 73 72  1  0
 74 70  1  0
 75 76  2  0
 76 77  1  0
 78 77  2  0
 79 78  1  0
 80 54  1  0
 80 81  1  0
 80 90  1  0
 81 84  1  0
 82 86  1  0
 82 81  1  0
 83 82  2  0
 86 85  1  0
 88 86  1  0
 88 89  1  0
 88 87  1  0
 90 93  1  1
 90 91  1  0
 92 90  1  0
M  ISO  4  14 100  22 100  52 101  53 101
M  END
>  <TORSDO>  (82) 
F 18

>  <SCORE>  (82) 
-14.247

>  <name>  (82) 
81

>  <ligand_id>  (82) 
81

>  <original_smiles>  (82) 
[H]c1c([H])c([H])c2c(c1[H])C([H])([H])C([H])([H])C([H])([H])C2([H])N([H])C(=O)C1([H])N(C(=O)C([H])(N([H])C(=O)C([H])(N([H])C([H])([H])[H])C([H])([H])[H])C(C([H])([H])[H])(C([H])([H])[H])C([H])([H])[H])C([H])([H])c2c([H])c(OC([H])([H])C3([H])C(=O)c4c([H])c([H])c(C([H])(N([H])C(=O)N5C([H])([H])C([H])([H])C([H])([H])C([H])(n6nc(-c7c([H])c([H])c(Oc8c([H])c([H])c(F)c([H])c8F)c([H])c7[H])c(C(=O)N([H])[H])c6N([H])[H])C5([H])[H])C([H])([H])[H])c([H])c4C([H])([H])C3([H])[H])c([H])c([H])c2C1([H])[H]

>  <smiles>  (82) 
[H]c1c([H])c([H])c2c(c1[H])C([H])([H])C([H])([H])C([H])([H])C2([H])N([H])C(=O)C1([H])N(C(=O)C([H])(N([H])C(=O)C([H])(N([H])C([H])([H])[H])C([H])([H])[H])C(C([H])([H])[H])(C([H])([H])[H])C([H])([H])[H])C([H])([H])c2c([H])c(OC([H])([H])C3([H])C(=O)c4c([H])c([H])c(C([H])(N([H])C(=O)N5C([H])([H])C([H])([H])C([H])([H])C([H])(n6nc(-c7c([H])c([H])c(Oc8c([H])c([H])c(F)c([H])c8F)c([H])c7[H])c(C(=O)N([H])[H])c6N([H])[H])C5([H])[H])C([H])([H])[H])c([H])c4C([H])([H])C3([H])[H])c([H])c([H])c2C1([H])[H]

$$$$
82:0:0
     RDKit          3D

 91 99  0  0  1  0  0  0  0  0999 V2000
  -28.3320  -18.9090   19.7760 C   0  0  0  0  0  3  0  0  0  0  0  0
  -27.9440  -21.3210   19.2880 C   0  0  0  0  0  3  0  0  0  0  0  0
  -29.8200  -20.6220   20.6340 C   0  0  0  0  0  3  0  0  0  0  0  0
  -27.5920  -19.9510   19.1480 C   0  0  0  0  0  0  0  0  0  0  0  0
  -29.5100  -19.1640   20.5190 C   0  0  0  0  0  0  0  0  0  0  0  0
  -29.0530  -21.7520   20.0410 C   0  0  0  0  0  0  0  0  0  0  0  0
  -26.4640  -19.5830   18.1980 C   0  0  0  0  0  1  0  0  0  0  0  0
  -30.3870  -17.8690   21.1000 C   0  0  0  0  0  2  0  0  0  0  0  0
  -30.7310  -15.1100   21.1340 C   0  0  0  0  0  0  0  0  0  0  0  0
  -30.6970  -12.7620   20.1490 C   0  0  0  0  0  2  0  0  0  0  0  0
  -29.9280  -12.7290   18.8100 C   0  0  0  0  0  2  0  0  0  0  0  0
  -28.3960  -12.5930   19.0230 C   0  0  0  0  0  2  0  0  0  0  0  0
  -27.8750  -13.4520   20.2170 C   0  0  0  0  0  3  0  0  0  0  0  0
  -28.7990  -13.4260   21.4540 C   0  0  0  0  0  2  0  0  0  0  0  0
  -30.1250  -13.8550   20.9830 N   0  0  0  0  0  0  0  0  0  0  0  0
  -31.9610  -15.1450   21.0060 O   0  0  0  0  0  0  0  0  0  0  0  0
  -29.9730  -16.3240   21.1900 N   0  0  0  0  0  0  0  0  0  0  0  0
  -28.9750  -16.1790   21.2270 H   0  0  0  0  0  0  0  0  0  0  0  0
  -25.4260  -14.0080   20.6800 C   0  0  0  0  0  0  0  0  0  0  0  0
  -24.3260  -13.2290   20.9330 C   0  0  0  0  0  0  0  0  0  0  0  0
  -24.7940  -11.8810   20.9560 C   0  0  0  0  0  0  0  0  0  0  0  0
  -26.4960  -13.1340   20.5710 N   0  0  0  0  0  0  0  0  0  0  0  0
  -26.1150  -11.8440   20.8020 N   0  0  0  0  0  0  0  0  0  0  0  0
  -24.0460  -10.6180   21.0570 C   0  0  0  0  0  0  0  0  0  0  0  0
  -24.3550   -9.6500   22.0360 C   0  0  0  0  0  3  0  0  0  0  0  0
  -23.6050   -8.4580   22.1320 C   0  0  0  0  0  3  0  0  0  0  0  0
  -22.5230   -8.2260   21.2470 C   0  0  0  0  0  0  0  0  0  0  0  0
  -22.2340   -9.1820   20.2560 C   0  0  0  0  0  3  0  0  0  0  0  0
  -22.9860  -10.3660   20.1620 C   0  0  0  0  0  3  0  0  0  0  0  0
  -21.7470   -7.0940   21.2530 O   0  0  0  0  0  0  0  0  0  0  0  0
  -21.5510   -6.3620   22.3990 C   0  0  0  0  0  0  0  0  0  0  0  0
  -20.9460   -6.9230   23.5460 C   0  0  0  0  0  3  0  0  0  0  0  0
  -20.7060   -6.1200   24.6800 C   0  0  0  0  0  3  0  0  0  0  0  0
  -21.0490   -4.7520   24.6580 C   0  0  0  0  0  0  0  0  0  0  0  0
  -21.6370   -4.1890   23.5130 C   0  0  0  0  0  3  0  0  0  0  0  0
  -21.8880   -4.9950   22.3870 C   0  0  0  0  0  0  0  0  0  0  0  0
  -22.4380   -4.4410   21.2780 F   0  0  0  0  0  0  0  0  0  0  0  0
  -20.8010   -3.9780   25.7390 F   0  0  0  0  0  0  0  0  0  0  0  0
  -22.9060  -13.7090   21.0340 C   0  0  0  0  0  0  0  0  0  0  0  0
  -22.1000  -13.0300   21.8480 N   0  0  0  0  0  0  0  0  0  0  0  0
  -22.5250  -14.7090   20.4320 O   0  0  0  0  0  0  0  0  0  0  0  0
  -22.4260  -12.2120   22.3490 H   0  0  0  0  0  0  0  0  0  0  0  0
  -21.1400  -13.3150   21.9710 H   0  0  0  0  0  0  0  0  0  0  0  0
  -25.5890  -15.3770   20.4940 N   0  0  0  0  0  0  0  0  0  0  0  0
  -24.7530  -15.9290   20.3550 H   0  0  0  0  0  0  0  0  0  0  0  0
  -26.4060  -15.7790   20.0540 H   0  0  0  0  0  0  0  0  0  0  0  0
  -29.3880  -23.3830   19.9550 C   0  0  0  0  0  3  0  0  0  0  0  0
  -30.7660  -22.7750   17.7290 C   0  0  0  0  0  1  0  0  0  0  0  0
  -29.8240  -23.7310   18.4960 C   0  0  0  0  0  2  0  0  0  0  0  0
  -28.3030  -24.6320   20.3450 C   0  0  0  0  0  2  0  0  0  0  0  0
  -28.4900  -26.1670   20.1180 O   0  0  0  0  0  0  0  0  0  0  0  0
  -24.5470  -31.6540   23.1130 C   0  0  0  0  0  0  0  0  0  0  0  0
  -27.3900  -27.0980   20.0840 C   0  0  0  0  0  0  0  0  0  0  0  0
  -23.4560  -30.2480   21.4050 C   0  0  0  0  0  3  0  0  0  0  0  0
  -25.0050  -28.7580   20.0070 C   0  0  0  0  0  0  0  0  0  0  0  0
  -26.0020  -30.6090   21.3380 C   0  0  0  0  0  2  0  0  0  0  0  0
  -26.1470  -29.2340   20.6640 C   0  0  0  0  0  0  0  0  0  0  0  0
  -27.3440  -28.4250   20.6760 C   0  0  0  0  0  3  0  0  0  0  0  0
  -26.2200  -26.7160   19.3980 C   0  0  0  0  0  3  0  0  0  0  0  0
  -25.0560  -27.5140   19.3560 C   0  0  0  0  0  3  0  0  0  0  0  0
  -23.7520  -29.6190   20.0210 C   0  0  0  0  0  2  0  0  0  0  0  0
  -24.6860  -30.8600   22.0050 N   0  0  0  0  0  0  0  0  0  0  0  0
  -23.4320  -31.8890   23.6030 O   0  0  0  0  0  0  0  0  0  0  0  0
  -22.7820  -29.2000   22.3260 C   0  0  0  0  0  0  0  0  0  0  0  0
  -21.4630  -29.0000   22.1600 N   0  0  0  0  0  0  0  0  0  0  0  0
  -23.4530  -28.5730   23.1490 O   0  0  0  0  0  0  0  0  0  0  0  0
  -20.9880  -29.5640   21.4690 H   0  0  0  0  0  0  0  0  0  0  0  0
  -18.0710  -27.8100   22.6540 C   0  0  0  0  0  0  0  0  0  0  0  0
  -20.6400  -28.0250   22.8840 C   0  0  0  0  0  3  0  0  0  0  0  0
  -20.7110  -26.6350   22.2140 C   0  0  0  0  0  2  0  0  0  0  0  0
  -19.5840  -26.3890   21.2050 C   0  0  0  0  0  2  0  0  0  0  0  0
  -18.2160  -26.5070   21.8830 C   0  0  0  0  0  2  0  0  0  0  0  0
  -19.2080  -28.5320   23.1070 C   0  0  0  0  0  0  0  0  0  0  0  0
  -19.0140  -29.7500   23.7920 C   0  0  0  0  0  3  0  0  0  0  0  0
  -17.7190  -30.2480   24.0270 C   0  0  0  0  0  3  0  0  0  0  0  0
  -16.5970  -29.5270   23.5830 C   0  0  0  0  0  3  0  0  0  0  0  0
  -16.7740  -28.3090   22.9020 C   0  0  0  0  0  3  0  0  0  0  0  0
  -25.7740  -32.3190   23.8020 C   0  0  0  0  0  3  0  0  0  0  0  0
  -26.2840  -31.5280   25.0690 C   0  0  1  0  0  0  0  0  0  0  0  0
  -25.1630  -31.1920   26.0800 C   0  0  0  0  0  1  0  0  0  0  0  0
  -26.9570  -30.2010   24.6510 C   0  0  0  0  0  1  0  0  0  0  0  0
  -27.3600  -32.3600   25.8050 C   0  0  0  0  0  1  0  0  0  0  0  0
  -25.3880  -33.6910   24.1750 N   0  0  0  0  0  0  0  0  0  0  0  0
  -25.6940  -34.7920   23.4740 C   0  0  0  0  0  0  0  0  0  0  0  0
  -26.3950  -34.7610   22.4590 O   0  0  0  0  0  0  0  0  0  0  0  0
  -24.7660  -33.7870   24.9650 H   0  0  0  0  0  0  0  0  0  0  0  0
  -23.8900  -36.5250   23.1540 C   0  0  0  0  0  1  0  0  0  0  0  0
  -25.1310  -36.1390   23.9780 C   0  0  0  0  0  3  0  0  0  0  0  0
  -27.1960  -37.0980   24.9030 C   0  0  0  0  0  1  0  0  0  0  0  0
  -26.1180  -37.2420   23.9280 N   0  0  0  0  0  0  0  0  0  0  0  0
  -25.6660  -38.1400   24.0860 H   0  0  0  0  0  0  0  0  0  0  0  0
  1  5  1  0
  2  6  2  0
  4  2  1  0
  4  1  2  0
  5  3  2  0
  5  8  1  0
  6  3  1  0
  7  4  1  0
  8 17  1  0
  9 17  1  0
 10 15  1  0
 11 12  1  0
 11 10  1  0
 13 12  1  0
 13 22  1  0
 13 14  1  0
 15  9  1  0
 15 14  1  0
 16  9  2  0
 17 18  1  0
 19 20  2  0
 20 21  1  0
 20 39  1  0
 21 24  1  0
 22 19  1  0
 22 23  1  0
 23 21  2  0
 24 25  1  0
 25 26  2  0
 27 30  1  0
 27 26  1  0
 28 27  2  0
 29 28  1  0
 29 24  2  0
 30 31  1  0
 31 32  1  0
 32 33  2  0
 34 33  1  0
 34 38  1  0
 35 34  2  0
 36 31  2  0
 36 35  1  0
 37 36  1  0
 39 40  1  0
 40 43  1  0
 40 42  1  0
 41 39  2  0
 44 19  1  0
 45 44  1  0
 46 44  1  0
 47 49  1  0
 47  6  1  0
 47 50  1  0
 48 49  1  0
 51 50  1  0
 52 63  2  0
 53 51  1  0
 53 58  1  0
 54 62  1  0
 54 64  1  0
 55 61  1  0
 55 57  1  0
 56 62  1  0
 57 58  2  0
 57 56  1  0
 59 53  2  0
 60 59  1  0
 60 55  2  0
 61 54  1  0
 62 52  1  0
 64 66  2  0
 65 64  1  0
 67 65  1  0
 68 77  2  0
 68 73  1  0
 69 65  1  0
 69 73  1  0
 70 69  1  0
 71 72  1  0
 71 70  1  0
 72 68  1  0
 73 74  2  0
 74 75  1  0
 76 75  2  0
 77 76  1  0
 78 52  1  0
 78 83  1  0
 78 79  1  0
 79 82  1  1
 79 80  1  0
 81 79  1  0
 83 86  1  0
 84 88  1  0
 84 83  1  0
 85 84  2  0
 88 87  1  0
 90 88  1  0
 90 91  1  0
 90 89  1  0
M  ISO  4   9 100  17 100  50 101  51 101
M  END
>  <TORSDO>  (83) 
F 20

>  <SCORE>  (83) 
-13.780

>  <name>  (83) 
82

>  <ligand_id>  (83) 
82

>  <original_smiles>  (83) 
[H]c1c([H])c([H])c2c(c1[H])C([H])([H])C([H])([H])C([H])([H])C2([H])N([H])C(=O)C1([H])N(C(=O)C([H])(N([H])C(=O)C([H])(N([H])C([H])([H])[H])C([H])([H])[H])C(C([H])([H])[H])(C([H])([H])[H])C([H])([H])[H])C([H])([H])c2c([H])c(OC([H])([H])C([H])(c3c([H])c(C([H])([H])[H])c([H])c(C([H])([H])N([H])C(=O)N4C([H])([H])C([H])([H])C([H])([H])C([H])(n5nc(-c6c([H])c([H])c(Oc7c([H])c([H])c(F)c([H])c7F)c([H])c6[H])c(C(=O)N([H])[H])c5N([H])[H])C4([H])[H])c3[H])C([H])([H])C([H])([H])[H])c([H])c([H])c2C1([H])[H]

>  <smiles>  (83) 
[H]c1c([H])c([H])c2c(c1[H])C([H])([H])C([H])([H])C([H])([H])C2([H])N([H])C(=O)C1([H])N(C(=O)C([H])(N([H])C(=O)C([H])(N([H])C([H])([H])[H])C([H])([H])[H])C(C([H])([H])[H])(C([H])([H])[H])C([H])([H])[H])C([H])([H])c2c([H])c(OC([H])([H])C([H])(c3c([H])c(C([H])([H])[H])c([H])c(C([H])([H])N([H])C(=O)N4C([H])([H])C([H])([H])C([H])([H])C([H])(n5nc(-c6c([H])c([H])c(Oc7c([H])c([H])c(F)c([H])c7F)c([H])c6[H])c(C(=O)N([H])[H])c5N([H])[H])C4([H])[H])c3[H])C([H])([H])C([H])([H])[H])c([H])c([H])c2C1([H])[H]

$$$$
83:0:0
     RDKit          3D

 93103  0  0  1  0  0  0  0  0999 V2000
  -28.8350  -20.6340   20.4600 C   0  0  0  0  0  0  0  0  0  0  0  0
  -28.9860  -22.0240   20.1310 N   0  0  0  0  0  0  0  0  0  0  0  0
  -28.0320  -20.3160   21.3390 O   0  0  0  0  0  0  0  0  0  0  0  0
  -29.7400  -22.1480   19.4680 H   0  0  0  0  0  0  0  0  0  0  0  0
  -27.8110  -18.0200   18.5200 C   0  0  0  0  0  2  0  0  0  0  0  0
  -29.5820  -19.4130   19.5940 C   0  0  0  0  0  3  0  0  0  0  0  0
  -28.6970  -19.2670   18.3440 C   0  0  2  0  0  0  0  0  0  0  0  0
  -29.2090  -17.4060   18.3310 C   0  0  1  0  0  0  0  0  0  0  0  0
  -30.0360  -17.7270   19.5870 C   0  0  0  0  0  3  0  0  0  0  0  0
  -29.3470  -18.4490   17.1920 C   0  0  2  0  0  0  0  0  0  0  0  0
  -30.7680  -18.8150   16.7400 C   0  0  0  0  0  1  0  0  0  0  0  0
  -28.5490  -18.2250   15.8750 C   0  0  0  0  0  1  0  0  0  0  0  0
  -30.6650  -15.1730   20.2020 C   0  0  0  0  0  0  0  0  0  0  0  0
  -30.5340  -12.8270   19.2350 C   0  0  0  0  0  2  0  0  0  0  0  0
  -29.6110  -12.8350   17.9960 C   0  0  0  0  0  2  0  0  0  0  0  0
  -28.1330  -12.6600   18.4050 C   0  0  0  0  0  2  0  0  0  0  0  0
  -27.7480  -13.5310   19.6320 C   0  0  0  0  0  3  0  0  0  0  0  0
  -28.8050  -13.4860   20.7550 C   0  0  0  0  0  2  0  0  0  0  0  0
  -30.0740  -13.9090   20.1640 N   0  0  0  0  0  0  0  0  0  0  0  0
  -31.8460  -15.2300   19.8480 O   0  0  0  0  0  0  0  0  0  0  0  0
  -29.9030  -16.3740   20.4010 N   0  0  0  0  0  0  0  0  0  0  0  0
  -28.9820  -16.2110   20.7770 H   0  0  0  0  0  0  0  0  0  0  0  0
  -25.3610  -14.0880   20.3540 C   0  0  0  0  0  0  0  0  0  0  0  0
  -24.3050  -13.3080   20.7340 C   0  0  0  0  0  0  0  0  0  0  0  0
  -24.7840  -11.9630   20.7270 C   0  0  0  0  0  0  0  0  0  0  0  0
  -26.4150  -13.2190   20.1310 N   0  0  0  0  0  0  0  0  0  0  0  0
  -26.0770  -11.9330   20.4190 N   0  0  0  0  0  0  0  0  0  0  0  0
  -24.0690  -10.6970   20.9420 C   0  0  0  0  0  0  0  0  0  0  0  0
  -24.4890   -9.7640   21.9170 C   0  0  0  0  0  3  0  0  0  0  0  0
  -23.7720   -8.5640   22.1180 C   0  0  0  0  0  3  0  0  0  0  0  0
  -22.6200   -8.2900   21.3400 C   0  0  0  0  0  0  0  0  0  0  0  0
  -22.2230   -9.2100   20.3530 C   0  0  0  0  0  3  0  0  0  0  0  0
  -22.9400  -10.4010   20.1540 C   0  0  0  0  0  3  0  0  0  0  0  0
  -21.8770   -7.1410   21.4410 O   0  0  0  0  0  0  0  0  0  0  0  0
  -21.7700   -6.4580   22.6240 C   0  0  0  0  0  0  0  0  0  0  0  0
  -21.2650   -7.0670   23.7940 C   0  0  0  0  0  3  0  0  0  0  0  0
  -21.1090   -6.3060   24.9710 C   0  0  0  0  0  3  0  0  0  0  0  0
  -21.4470   -4.9400   24.9770 C   0  0  0  0  0  0  0  0  0  0  0  0
  -21.9470   -4.3340   23.8120 C   0  0  0  0  0  3  0  0  0  0  0  0
  -22.1070   -5.0900   22.6370 C   0  0  0  0  0  0  0  0  0  0  0  0
  -22.5660   -4.4950   21.5110 F   0  0  0  0  0  0  0  0  0  0  0  0
  -21.2910   -4.2070   26.1060 F   0  0  0  0  0  0  0  0  0  0  0  0
  -22.9030  -13.7750   20.9980 C   0  0  0  0  0  0  0  0  0  0  0  0
  -22.1910  -13.0940   21.8910 N   0  0  0  0  0  0  0  0  0  0  0  0
  -22.4500  -14.7770   20.4470 O   0  0  0  0  0  0  0  0  0  0  0  0
  -22.5750  -12.2840   22.3540 H   0  0  0  0  0  0  0  0  0  0  0  0
  -21.2510  -13.3850   22.1180 H   0  0  0  0  0  0  0  0  0  0  0  0
  -25.5080  -15.4560   20.1500 N   0  0  0  0  0  0  0  0  0  0  0  0
  -24.7140  -16.0850   20.2130 H   0  0  0  0  0  0  0  0  0  0  0  0
  -26.3210  -15.8840   19.7260 H   0  0  0  0  0  0  0  0  0  0  0  0
  -28.0670  -23.3350   20.1830 C   0  0  0  0  0  2  0  0  0  0  0  0
  -28.4480  -24.8890   20.7660 C   0  0  0  0  0  2  0  0  0  0  0  0
  -28.3430  -26.3520   20.2010 O   0  0  0  0  0  0  0  0  0  0  0  0
  -24.6060  -31.9820   23.2740 C   0  0  0  0  0  0  0  0  0  0  0  0
  -27.2400  -27.2760   20.2760 C   0  0  0  0  0  0  0  0  0  0  0  0
  -23.4320  -30.5710   21.6310 C   0  0  0  0  0  3  0  0  0  0  0  0
  -24.8990  -29.0010   20.2240 C   0  0  0  0  0  0  0  0  0  0  0  0
  -25.9810  -30.8640   21.4750 C   0  0  0  0  0  2  0  0  0  0  0  0
  -26.0720  -29.4660   20.8320 C   0  0  0  0  0  0  0  0  0  0  0  0
  -27.2470  -28.6210   20.8320 C   0  0  0  0  0  3  0  0  0  0  0  0
  -26.0380  -26.9030   19.6460 C   0  0  0  0  0  3  0  0  0  0  0  0
  -24.8950  -27.7360   19.6150 C   0  0  0  0  0  3  0  0  0  0  0  0
  -23.6680  -29.8920   20.2550 C   0  0  0  0  0  2  0  0  0  0  0  0
  -24.6920  -31.1630   22.1810 N   0  0  0  0  0  0  0  0  0  0  0  0
  -23.5130  -32.2530   23.7960 O   0  0  0  0  0  0  0  0  0  0  0  0
  -22.7570  -29.5600   22.5910 C   0  0  0  0  0  0  0  0  0  0  0  0
  -21.4310  -29.3740   22.4580 N   0  0  0  0  0  0  0  0  0  0  0  0
  -23.4310  -28.9410   23.4180 O   0  0  0  0  0  0  0  0  0  0  0  0
  -20.9420  -29.9240   21.7670 H   0  0  0  0  0  0  0  0  0  0  0  0
  -18.0590  -28.1480   22.9560 C   0  0  0  0  0  0  0  0  0  0  0  0
  -20.6160  -28.4300   23.2280 C   0  0  0  0  0  3  0  0  0  0  0  0
  -20.7300  -27.0000   22.6480 C   0  0  0  0  0  2  0  0  0  0  0  0
  -19.6320  -26.6720   21.6320 C   0  0  0  0  0  2  0  0  0  0  0  0
  -18.2480  -26.8030   22.2740 C   0  0  0  0  0  2  0  0  0  0  0  0
  -19.1720  -28.9190   23.3880 C   0  0  0  0  0  0  0  0  0  0  0  0
  -18.9410  -30.1750   23.9890 C   0  0  0  0  0  3  0  0  0  0  0  0
  -17.6320  -30.6650   24.1580 C   0  0  0  0  0  3  0  0  0  0  0  0
  -16.5350  -29.8920   23.7430 C   0  0  0  0  0  3  0  0  0  0  0  0
  -16.7480  -28.6360   23.1470 C   0  0  0  0  0  3  0  0  0  0  0  0
  -25.8740  -32.6350   23.9080 C   0  0  0  0  0  3  0  0  0  0  0  0
  -26.3780  -31.8810   25.2000 C   0  0  1  0  0  0  0  0  0  0  0  0
  -25.2670  -31.6250   26.2450 C   0  0  0  0  0  1  0  0  0  0  0  0
  -27.0020  -30.5160   24.8330 C   0  0  0  0  0  1  0  0  0  0  0  0
  -27.4950  -32.7040   25.8840 C   0  0  0  0  0  1  0  0  0  0  0  0
  -25.5470  -34.0340   24.2270 N   0  0  0  0  0  0  0  0  0  0  0  0
  -25.8790  -35.0890   23.4710 C   0  0  0  0  0  0  0  0  0  0  0  0
  -26.5620  -34.9880   22.4480 O   0  0  0  0  0  0  0  0  0  0  0  0
  -24.9400  -34.1850   25.0210 H   0  0  0  0  0  0  0  0  0  0  0  0
  -24.1430  -36.8710   23.1020 C   0  0  0  0  0  1  0  0  0  0  0  0
  -25.3820  -36.4780   23.9210 C   0  0  0  0  0  3  0  0  0  0  0  0
  -27.5080  -37.3800   24.7600 C   0  0  0  0  0  1  0  0  0  0  0  0
  -26.4090  -37.5370   23.8100 N   0  0  0  0  0  0  0  0  0  0  0  0
  -25.9970  -38.4540   23.9500 H   0  0  0  0  0  0  0  0  0  0  0  0
  1  3  2  0
  2 51  1  0
  2  1  1  0
  4  2  1  0
  6  1  1  0
  7  5  1  6
  7  6  1  0
  8  7  1  0
  8  5  1  6
  8  9  1  0
  9  6  1  0
  9 21  1  0
 10  8  1  0
 10  7  1  0
 10 11  1  6
 12 10  1  0
 13 21  1  0
 14 19  1  0
 15 16  1  0
 15 14  1  0
 17 16  1  0
 17 26  1  0
 17 18  1  0
 19 13  1  0
 19 18  1  0
 20 13  2  0
 21 22  1  0
 23 24  2  0
 24 43  1  0
 25 24  1  0
 25 28  1  0
 26 23  1  0
 26 27  1  0
 27 25  2  0
 28 29  1  0
 29 30  2  0
 31 34  1  0
 31 30  1  0
 32 31  2  0
 33 32  1  0
 33 28  2  0
 34 35  1  0
 35 40  2  0
 35 36  1  0
 36 37  2  0
 37 38  1  0
 38 42  1  0
 39 38  2  0
 40 39  1  0
 41 40  1  0
 43 44  1  0
 44 47  1  0
 44 46  1  0
 45 43  2  0
 48 49  1  0
 48 23  1  0
 50 48  1  0
 51 52  1  0
 53 55  1  0
 53 52  1  0
 54 65  2  0
 55 60  1  0
 56 64  1  0
 56 66  1  0
 57 63  1  0
 57 59  1  0
 58 64  1  0
 59 58  1  0
 60 59  2  0
 61 55  2  0
 62 61  1  0
 62 57  2  0
 63 56  1  0
 64 54  1  0
 66 68  2  0
 67 66  1  0
 69 67  1  0
 70 79  2  0
 70 75  1  0
 71 67  1  0
 71 75  1  0
 72 71  1  0
 73 74  1  0
 73 72  1  0
 74 70  1  0
 75 76  2  0
 76 77  1  0
 78 77  2  0
 79 78  1  0
 80 54  1  0
 80 85  1  0
 80 81  1  0
 81 84  1  1
 81 82  1  0
 83 81  1  0
 85 88  1  0
 86 90  1  0
 86 85  1  0
 87 86  2  0
 90 89  1  0
 92 90  1  0
 92 93  1  0
 92 91  1  0
M  ISO  4  13 100  21 100  52 101  53 101
M  END
>  <TORSDO>  (84) 
F 19

>  <SCORE>  (84) 
-14.091

>  <name>  (84) 
83

>  <ligand_id>  (84) 
83

>  <original_smiles>  (84) 
[H]c1c([H])c([H])c2c(c1[H])C([H])([H])C([H])([H])C([H])([H])C2([H])N([H])C(=O)C1([H])N(C(=O)C([H])(N([H])C(=O)C([H])(N([H])C([H])([H])[H])C([H])([H])[H])C(C([H])([H])[H])(C([H])([H])[H])C([H])([H])[H])C([H])([H])c2c([H])c(OC([H])([H])C([H])([H])N([H])C(=O)C3([H])C([H])(N([H])C(=O)N4C([H])([H])C([H])([H])C([H])([H])C([H])(n5nc(-c6c([H])c([H])c(Oc7c([H])c([H])c(F)c([H])c7F)c([H])c6[H])c(C(=O)N([H])[H])c5N([H])[H])C4([H])[H])C4([H])C([H])([H])C3([H])C4(C([H])([H])[H])C([H])([H])[H])c([H])c([H])c2C1([H])[H]

>  <smiles>  (84) 
[H]c1c([H])c([H])c2c(c1[H])C([H])([H])C([H])([H])C([H])([H])C2([H])N([H])C(=O)C1([H])N(C(=O)C([H])(N([H])C(=O)C([H])(N([H])C([H])([H])[H])C([H])([H])[H])C(C([H])([H])[H])(C([H])([H])[H])C([H])([H])[H])C([H])([H])c2c([H])c(OC([H])([H])C([H])([H])N([H])C(=O)C3([H])C([H])(N([H])C(=O)N4C([H])([H])C([H])([H])C([H])([H])C([H])(n5nc(-c6c([H])c([H])c(Oc7c([H])c([H])c(F)c([H])c7F)c([H])c6[H])c(C(=O)N([H])[H])c5N([H])[H])C4([H])[H])C4([H])C([H])([H])C3([H])C4(C([H])([H])[H])C([H])([H])[H])c([H])c([H])c2C1([H])[H]

$$$$
84:0:0
     RDKit          3D

 90 98  0  0  1  0  0  0  0  0999 V2000
  -27.1850  -22.2880   19.6160 C   0  0  0  0  0  3  0  0  0  0  0  0
  -26.8570  -20.9310   19.3290 C   0  0  0  0  0  3  0  0  0  0  0  0
  -29.2770  -21.4210   20.4180 C   0  0  0  0  0  3  0  0  0  0  0  0
  -28.4010  -22.6910   20.2000 C   0  0  0  0  0  0  0  0  0  0  0  0
  -29.0110  -19.9190   20.0870 C   0  0  0  0  0  0  0  0  0  0  0  0
  -27.7020  -19.8060   19.5560 C   0  0  0  0  0  0  0  0  0  0  0  0
  -27.2150  -18.5800   19.2450 F   0  0  0  0  0  0  0  0  0  0  0  0
  -28.4300  -24.3670   20.7770 C   0  0  0  0  0  2  0  0  0  0  0  0
  -28.3150  -25.9160   20.1660 O   0  0  0  0  0  0  0  0  0  0  0  0
  -24.6360  -31.9000   23.1950 C   0  0  0  0  0  0  0  0  0  0  0  0
  -27.2720  -26.9950   20.2620 C   0  0  0  0  0  0  0  0  0  0  0  0
  -23.4760  -30.4820   21.5530 C   0  0  0  0  0  3  0  0  0  0  0  0
  -24.9560  -28.8720   20.1670 C   0  0  0  0  0  0  0  0  0  0  0  0
  -26.0450  -30.7120   21.4310 C   0  0  0  0  0  2  0  0  0  0  0  0
  -26.1370  -29.2900   20.7970 C   0  0  0  0  0  0  0  0  0  0  0  0
  -27.2930  -28.3750   20.8100 C   0  0  0  0  0  3  0  0  0  0  0  0
  -26.0620  -26.7410   19.5850 C   0  0  0  0  0  3  0  0  0  0  0  0
  -24.9440  -27.6150   19.5450 C   0  0  0  0  0  3  0  0  0  0  0  0
  -23.7320  -29.7860   20.1880 C   0  0  0  0  0  2  0  0  0  0  0  0
  -24.7410  -31.0580   22.1160 N   0  0  0  0  0  0  0  0  0  0  0  0
  -23.5370  -32.1880   23.6950 O   0  0  0  0  0  0  0  0  0  0  0  0
  -22.7760  -29.4860   22.5210 C   0  0  0  0  0  0  0  0  0  0  0  0
  -21.4470  -29.3180   22.3900 N   0  0  0  0  0  0  0  0  0  0  0  0
  -23.4370  -28.8670   23.3570 O   0  0  0  0  0  0  0  0  0  0  0  0
  -20.9630  -29.8660   21.6940 H   0  0  0  0  0  0  0  0  0  0  0  0
  -18.0670  -28.1080   22.9050 C   0  0  0  0  0  0  0  0  0  0  0  0
  -20.6280  -28.3720   23.1530 C   0  0  0  0  0  3  0  0  0  0  0  0
  -20.7230  -26.9470   22.5600 C   0  0  0  0  0  2  0  0  0  0  0  0
  -19.6130  -26.6370   21.5500 C   0  0  0  0  0  2  0  0  0  0  0  0
  -18.2370  -26.7700   22.2080 C   0  0  0  0  0  2  0  0  0  0  0  0
  -19.1860  -28.8690   23.3310 C   0  0  0  0  0  0  0  0  0  0  0  0
  -18.9640  -30.1200   23.9450 C   0  0  0  0  0  3  0  0  0  0  0  0
  -17.6590  -30.6150   24.1250 C   0  0  0  0  0  3  0  0  0  0  0  0
  -16.5540  -29.8510   23.7080 C   0  0  0  0  0  3  0  0  0  0  0  0
  -16.7620  -28.6000   23.1040 C   0  0  0  0  0  3  0  0  0  0  0  0
  -25.8920  -32.5630   23.8420 C   0  0  0  0  0  3  0  0  0  0  0  0
  -26.3850  -31.8190   25.1440 C   0  0  1  0  0  0  0  0  0  0  0  0
  -25.2690  -31.5910   26.1900 C   0  0  0  0  0  1  0  0  0  0  0  0
  -26.9850  -30.4370   24.7940 C   0  0  0  0  0  1  0  0  0  0  0  0
  -27.5080  -32.6390   25.8210 C   0  0  0  0  0  1  0  0  0  0  0  0
  -25.5540  -33.9650   24.1520 N   0  0  0  0  0  0  0  0  0  0  0  0
  -25.8900  -35.0230   23.4020 C   0  0  0  0  0  0  0  0  0  0  0  0
  -26.5790  -34.9260   22.3820 O   0  0  0  0  0  0  0  0  0  0  0  0
  -24.9480  -34.1140   24.9460 H   0  0  0  0  0  0  0  0  0  0  0  0
  -24.1680  -36.8170   23.0130 C   0  0  0  0  0  1  0  0  0  0  0  0
  -25.3890  -36.4090   23.8510 C   0  0  0  0  0  3  0  0  0  0  0  0
  -27.4950  -37.3070   24.7440 C   0  0  0  0  0  1  0  0  0  0  0  0
  -26.4220  -37.4640   23.7670 N   0  0  0  0  0  0  0  0  0  0  0  0
  -26.0080  -38.3840   23.8940 H   0  0  0  0  0  0  0  0  0  0  0  0
  -30.0080  -18.4530   20.1800 C   0  0  0  0  0  0  0  0  0  0  0  0
  -30.4700  -15.4780   20.1270 C   0  0  0  0  0  0  0  0  0  0  0  0
  -30.4770  -13.0150   19.2630 C   0  0  0  0  0  2  0  0  0  0  0  0
  -29.5260  -12.7300   18.0700 C   0  0  0  0  0  2  0  0  0  0  0  0
  -28.1280  -12.3750   18.5940 C   0  0  0  0  0  2  0  0  0  0  0  0
  -27.6570  -13.3930   19.6590 C   0  0  0  0  0  3  0  0  0  0  0  0
  -28.7210  -13.6310   20.7500 C   0  0  0  0  0  2  0  0  0  0  0  0
  -29.9130  -14.1630   20.0740 N   0  0  0  0  0  0  0  0  0  0  0  0
  -31.6960  -15.4510   19.9320 O   0  0  0  0  0  0  0  0  0  0  0  0
  -29.7120  -16.7760   20.1900 N   0  0  0  0  0  4  0  0  0  0  0  0
  -28.7230  -16.5960   20.2480 H   0  0  0  0  0  0  0  0  0  0  0  0
  -25.3350  -13.9490   20.5370 C   0  0  0  0  0  0  0  0  0  0  0  0
  -24.2810  -13.1670   20.9230 C   0  0  0  0  0  0  0  0  0  0  0  0
  -24.7400  -11.8160   20.8370 C   0  0  0  0  0  0  0  0  0  0  0  0
  -26.3550  -13.0720   20.2220 N   0  0  0  0  0  0  0  0  0  0  0  0
  -26.0170  -11.7810   20.4720 N   0  0  0  0  0  0  0  0  0  0  0  0
  -24.0100  -10.5520   21.0180 C   0  0  0  0  0  0  0  0  0  0  0  0
  -24.4480   -9.5700   21.9340 C   0  0  0  0  0  3  0  0  0  0  0  0
  -23.7190   -8.3720   22.1020 C   0  0  0  0  0  3  0  0  0  0  0  0
  -22.5410   -8.1480   21.3520 C   0  0  0  0  0  0  0  0  0  0  0  0
  -22.1210   -9.1180   20.4260 C   0  0  0  0  0  3  0  0  0  0  0  0
  -22.8490  -10.3070   20.2560 C   0  0  0  0  0  3  0  0  0  0  0  0
  -21.7860   -7.0020   21.4290 O   0  0  0  0  0  0  0  0  0  0  0  0
  -21.7120   -6.2660   22.5840 C   0  0  0  0  0  0  0  0  0  0  0  0
  -21.2100   -6.8120   23.7850 C   0  0  0  0  0  3  0  0  0  0  0  0
  -21.0920   -6.0000   24.9300 C   0  0  0  0  0  3  0  0  0  0  0  0
  -21.4580   -4.6430   24.8740 C   0  0  0  0  0  0  0  0  0  0  0  0
  -21.9540   -4.0970   23.6760 C   0  0  0  0  0  3  0  0  0  0  0  0
  -22.0760   -4.9040   22.5340 C   0  0  0  0  0  0  0  0  0  0  0  0
  -22.5360   -4.3720   21.3760 F   0  0  0  0  0  0  0  0  0  0  0  0
  -21.3320   -3.8590   25.9700 F   0  0  0  0  0  0  0  0  0  0  0  0
  -22.8980  -13.6460   21.2520 C   0  0  0  0  0  0  0  0  0  0  0  0
  -22.1930  -12.9280   22.1180 N   0  0  0  0  0  0  0  0  0  0  0  0
  -22.4530  -14.6880   20.7740 O   0  0  0  0  0  0  0  0  0  0  0  0
  -22.5620  -12.0800   22.5210 H   0  0  0  0  0  0  0  0  0  0  0  0
  -21.2680  -13.2300   22.3840 H   0  0  0  0  0  0  0  0  0  0  0  0
  -25.4960  -15.3200   20.3840 N   0  0  0  0  0  0  0  0  0  0  0  0
  -24.7100  -15.9550   20.4900 H   0  0  0  0  0  0  0  0  0  0  0  0
  -26.3000  -15.7490   19.9450 H   0  0  0  0  0  0  0  0  0  0  0  0
  -30.6810  -18.5630   17.6830 C   0  0  0  0  0  1  0  0  0  0  0  0
  -31.1450  -18.6730   19.1510 C   0  0  0  0  0  2  0  0  0  0  0  0
  1  4  1  0
  2  6  1  0
  2  1  2  0
  4  3  2  0
  4  8  1  0
  5 50  1  0
  5  3  1  0
  6  5  2  0
  7  6  1  0
  9 11  1  0
  9  8  1  0
 10 21  2  0
 11 16  1  0
 12 20  1  0
 12 22  1  0
 13 19  1  0
 13 15  1  0
 14 20  1  0
 15 16  2  0
 15 14  1  0
 17 11  2  0
 18 17  1  0
 18 13  2  0
 19 12  1  0
 20 10  1  0
 22 24  2  0
 23 22  1  0
 25 23  1  0
 26 35  2  0
 26 31  1  0
 27 23  1  0
 27 31  1  0
 28 27  1  0
 29 30  1  0
 29 28  1  0
 30 26  1  0
 31 32  2  0
 32 33  1  0
 34 33  2  0
 35 34  1  0
 36 10  1  0
 36 41  1  0
 36 37  1  0
 37 40  1  1
 37 38  1  0
 39 37  1  0
 41 44  1  0
 42 46  1  0
 42 41  1  0
 43 42  2  0
 46 45  1  0
 48 46  1  0
 48 49  1  0
 48 47  1  0
 50 59  2  0
 51 59  1  0
 52 57  1  0
 53 54  1  0
 53 52  1  0
 55 54  1  0
 55 64  1  0
 55 56  1  0
 57 51  1  0
 57 56  1  0
 58 51  2  0
 59 60  1  0
 61 62  2  0
 62 81  1  0
 63 62  1  0
 63 66  1  0
 64 65  1  0
 64 61  1  0
 65 63  2  0
 66 67  1  0
 67 68  2  0
 69 72  1  0
 69 68  1  0
 70 69  2  0
 71 70  1  0
 71 66  2  0
 72 73  1  0
 73 74  1  0
 74 75  2  0
 76 75  1  0
 76 80  1  0
 77 76  2  0
 78 73  2  0
 78 77  1  0
 79 78  1  0
 81 82  1  0
 82 85  1  0
 82 84  1  0
 83 81  2  0
 86 87  1  0
 86 61  1  0
 88 86  1  0
 89 90  1  0
 90 50  1  0
M  ISO  4   8 101   9 101  51 100  59 100
M  END
>  <TORSDO>  (85) 
F 19

>  <SCORE>  (85) 
-16.315

>  <name>  (85) 
84

>  <ligand_id>  (85) 
84

>  <original_smiles>  (85) 
[H]c1c([H])c([H])c2c(c1[H])C([H])([H])C([H])([H])C([H])([H])C2([H])N([H])C(=O)C1([H])N(C(=O)C([H])(N([H])C(=O)C([H])(N([H])C([H])([H])[H])C([H])([H])[H])C(C([H])([H])[H])(C([H])([H])[H])C([H])([H])[H])C([H])([H])c2c([H])c(OC([H])([H])c3c([H])c([H])c(F)c(C([H])(N([H])C(=O)N4C([H])([H])C([H])([H])C([H])([H])C([H])(n5nc(-c6c([H])c([H])c(Oc7c([H])c([H])c(F)c([H])c7F)c([H])c6[H])c(C(=O)N([H])[H])c5N([H])[H])C4([H])[H])C([H])([H])C([H])([H])[H])c3[H])c([H])c([H])c2C1([H])[H]

>  <smiles>  (85) 
[H]c1c([H])c([H])c2c(c1[H])C([H])([H])C([H])([H])C([H])([H])C2([H])N([H])C(=O)C1([H])N(C(=O)C([H])(N([H])C(=O)C([H])(N([H])C([H])([H])[H])C([H])([H])[H])C(C([H])([H])[H])(C([H])([H])[H])C([H])([H])[H])C([H])([H])c2c([H])c(OC([H])([H])c3c([H])c([H])c(F)c(C([H])(N([H])C(=O)N4C([H])([H])C([H])([H])C([H])([H])C([H])(n5nc(-c6c([H])c([H])c(Oc7c([H])c([H])c(F)c([H])c7F)c([H])c6[H])c(C(=O)N([H])[H])c5N([H])[H])C4([H])[H])C([H])([H])C([H])([H])[H])c3[H])c([H])c([H])c2C1([H])[H]

$$$$
85:0:0
     RDKit          3D

 91100  0  0  1  0  0  0  0  0999 V2000
  -30.9900  -15.6250   19.1930 C   0  0  0  0  0  0  0  0  0  0  0  0
  -31.1420  -12.9480   19.2320 C   0  0  0  0  0  2  0  0  0  0  0  0
  -30.3070  -12.1400   18.1950 C   0  0  0  0  0  2  0  0  0  0  0  0
  -28.8780  -11.9070   18.7010 C   0  0  0  0  0  2  0  0  0  0  0  0
  -28.3120  -13.1820   19.3650 C   0  0  0  0  0  3  0  0  0  0  0  0
  -29.2940  -13.8620   20.3450 C   0  0  0  0  0  2  0  0  0  0  0  0
  -30.4700  -14.2960   19.5520 N   0  0  0  0  0  0  0  0  0  0  0  0
  -32.2200  -15.4890   19.0330 O   0  0  0  0  0  0  0  0  0  0  0  0
  -27.4460  -19.5860   18.3480 C   0  0  0  0  0  2  0  0  0  0  0  0
  -28.1040  -19.3270   16.9950 C   0  0  0  0  0  2  0  0  0  0  0  0
  -30.5890  -18.3510   17.8150 C   0  0  0  0  0  2  0  0  0  0  0  0
  -29.0410  -17.6070   19.3440 C   0  0  0  0  0  3  0  0  0  0  0  0
  -28.7920  -19.1910   18.9480 C   0  0  0  0  0  3  0  0  0  0  0  0
  -29.4430  -19.7570   17.6270 C   0  0  2  0  0  0  0  0  0  0  0  0
  -30.2850  -16.9720   18.7630 N   0  0  0  0  0  0  0  0  0  0  0  0
  -26.0590  -13.9700   20.2170 C   0  0  0  0  0  0  0  0  0  0  0  0
  -24.9300  -13.3100   20.6120 C   0  0  0  0  0  0  0  0  0  0  0  0
  -25.2430  -11.9170   20.5540 C   0  0  0  0  0  0  0  0  0  0  0  0
  -26.9870  -12.9890   19.9300 N   0  0  0  0  0  0  0  0  0  0  0  0
  -26.5130  -11.7440   20.1990 N   0  0  0  0  0  0  0  0  0  0  0  0
  -24.3830  -10.7430   20.7530 C   0  0  0  0  0  0  0  0  0  0  0  0
  -24.7430   -9.7020   21.6360 C   0  0  0  0  0  3  0  0  0  0  0  0
  -23.8870   -8.5970   21.8290 C   0  0  0  0  0  3  0  0  0  0  0  0
  -22.6540   -8.5250   21.1370 C   0  0  0  0  0  0  0  0  0  0  0  0
  -22.3100   -9.5520   20.2410 C   0  0  0  0  0  3  0  0  0  0  0  0
  -23.1670  -10.6490   20.0460 C   0  0  0  0  0  3  0  0  0  0  0  0
  -21.7710   -7.4780   21.2410 O   0  0  0  0  0  0  0  0  0  0  0  0
  -21.6760   -6.7260   22.3850 C   0  0  0  0  0  0  0  0  0  0  0  0
  -21.3550   -7.3040   23.6310 C   0  0  0  0  0  3  0  0  0  0  0  0
  -21.2000   -6.4880   24.7690 C   0  0  0  0  0  3  0  0  0  0  0  0
  -21.3570   -5.0920   24.6610 C   0  0  0  0  0  0  0  0  0  0  0  0
  -21.6700   -4.5130   23.4190 C   0  0  0  0  0  3  0  0  0  0  0  0
  -21.8270   -5.3280   22.2840 C   0  0  0  0  0  0  0  0  0  0  0  0
  -22.1090   -4.7630   21.0870 F   0  0  0  0  0  0  0  0  0  0  0  0
  -21.1990   -4.3060   25.7510 F   0  0  0  0  0  0  0  0  0  0  0  0
  -23.6040  -13.9400   20.9210 C   0  0  0  0  0  0  0  0  0  0  0  0
  -22.8580  -13.3620   21.8550 N   0  0  0  0  0  0  0  0  0  0  0  0
  -23.2480  -14.9810   20.3720 O   0  0  0  0  0  0  0  0  0  0  0  0
  -23.1620  -12.5200   22.3200 H   0  0  0  0  0  0  0  0  0  0  0  0
  -21.9700  -13.7700   22.1120 H   0  0  0  0  0  0  0  0  0  0  0  0
  -26.3620  -15.3160   20.0390 N   0  0  0  0  0  0  0  0  0  0  0  0
  -25.6380  -16.0220   20.1000 H   0  0  0  0  0  0  0  0  0  0  0  0
  -27.1950  -15.6370   19.5640 H   0  0  0  0  0  0  0  0  0  0  0  0
  -28.9450  -17.4360   20.8670 C   0  0  0  0  0  0  0  0  0  0  0  0
  -27.7600  -17.1160   21.3670 N   0  0  0  0  0  0  0  0  0  0  0  0
  -29.9220  -17.6030   21.5940 O   0  0  0  0  0  0  0  0  0  0  0  0
  -26.9730  -16.9670   20.7500 H   0  0  0  0  0  0  0  0  0  0  0  0
  -27.6250  -17.0200   22.3620 H   0  0  0  0  0  0  0  0  0  0  0  0
  -29.6360  -21.6480   17.1450 C   0  0  0  0  0  2  0  0  0  0  0  0
  -28.6570  -23.3430   17.1550 C   0  0  0  0  0  2  0  0  0  0  0  0
  -28.8700  -25.0900   17.3810 O   0  0  0  0  0  0  0  0  0  0  0  0
  -25.7570  -29.9100   22.6540 C   0  0  0  0  0  0  0  0  0  0  0  0
  -27.9610  -26.2710   17.8400 C   0  0  0  0  0  0  0  0  0  0  0  0
  -24.4780  -29.3120   20.6440 C   0  0  0  0  0  3  0  0  0  0  0  0
  -25.8130  -28.2780   18.6550 C   0  0  0  0  0  0  0  0  0  0  0  0
  -27.0600  -29.3690   20.5000 C   0  0  0  0  0  2  0  0  0  0  0  0
  -27.0350  -28.3010   19.3360 C   0  0  0  0  0  0  0  0  0  0  0  0
  -28.0960  -27.3380   18.9080 C   0  0  0  0  0  3  0  0  0  0  0  0
  -26.7150  -26.4680   17.1910 C   0  0  0  0  0  3  0  0  0  0  0  0
  -25.6940  -27.3960   17.5680 C   0  0  0  0  0  3  0  0  0  0  0  0
  -24.6660  -29.1990   19.1030 C   0  0  0  0  0  2  0  0  0  0  0  0
  -25.7930  -29.5380   21.3270 N   0  0  0  0  0  0  0  0  0  0  0  0
  -24.6860  -30.0370   23.2750 O   0  0  0  0  0  0  0  0  0  0  0  0
  -23.7150  -28.0690   21.1810 C   0  0  0  0  0  0  0  0  0  0  0  0
  -22.3750  -28.0460   21.0620 N   0  0  0  0  0  0  0  0  0  0  0  0
  -24.3430  -27.1320   21.6820 O   0  0  0  0  0  0  0  0  0  0  0  0
  -21.9200  -28.8570   20.6660 H   0  0  0  0  0  0  0  0  0  0  0  0
  -18.9280  -26.8980   21.1820 C   0  0  0  0  0  0  0  0  0  0  0  0
  -21.5050  -26.9260   21.4390 C   0  0  0  0  0  3  0  0  0  0  0  0
  -21.5150  -25.8240   20.3540 C   0  0  0  0  0  2  0  0  0  0  0  0
  -20.3830  -25.9720   19.3320 C   0  0  0  0  0  2  0  0  0  0  0  0
  -19.0200  -25.9150   20.0280 C   0  0  0  0  0  2  0  0  0  0  0  0
  -20.0930  -27.3830   21.8350 C   0  0  0  0  0  0  0  0  0  0  0  0
  -19.9470  -28.3140   22.8870 C   0  0  0  0  0  3  0  0  0  0  0  0
  -18.6720  -28.7590   23.2850 C   0  0  0  0  0  3  0  0  0  0  0  0
  -17.5230  -28.2670   22.6430 C   0  0  0  0  0  3  0  0  0  0  0  0
  -17.6520  -27.3350   21.5980 C   0  0  0  0  0  3  0  0  0  0  0  0
  -27.0580  -30.2000   23.4590 C   0  0  0  0  0  3  0  0  0  0  0  0
  -26.7760  -31.2860   24.4190 N   0  0  0  0  0  0  0  0  0  0  0  0
  -27.1610  -32.5630   24.2790 C   0  0  0  0  0  0  0  0  0  0  0  0
  -27.8510  -32.9480   23.3320 O   0  0  0  0  0  0  0  0  0  0  0  0
  -26.1700  -31.0550   25.1920 H   0  0  0  0  0  0  0  0  0  0  0  0
  -25.5250  -34.3980   24.8430 C   0  0  0  0  0  1  0  0  0  0  0  0
  -26.7160  -33.5740   25.3600 C   0  0  0  0  0  3  0  0  0  0  0  0
  -28.8460  -33.8240   26.5590 C   0  0  0  0  0  1  0  0  0  0  0  0
  -27.7950  -34.4890   25.7930 N   0  0  0  0  0  0  0  0  0  0  0  0
  -27.4220  -35.2450   26.3610 H   0  0  0  0  0  0  0  0  0  0  0  0
  -27.6040  -28.9350   24.2310 C   0  0  1  0  0  0  0  0  0  0  0  0
  -26.5460  -28.2450   25.1250 C   0  0  0  0  0  1  0  0  0  0  0  0
  -28.1370  -27.8740   23.2430 C   0  0  0  0  0  1  0  0  0  0  0  0
  -28.8000  -29.3430   25.1260 C   0  0  0  0  0  1  0  0  0  0  0  0
  1  7  1  0
  2  7  1  0
  3  4  1  0
  3  2  1  0
  5  4  1  0
  5 19  1  0
  5  6  1  0
  7  6  1  0
  8  1  2  0
 10 14  1  0
 10  9  1  0
 11 15  1  0
 12 44  1  0
 13  9  1  0
 13 12  1  0
 14 49  1  1
 14 11  1  0
 14 13  1  0
 15  1  1  0
 15 12  1  0
 16 17  2  0
 17 36  1  0
 18 17  1  0
 18 21  1  0
 19 20  1  0
 19 16  1  0
 20 18  2  0
 21 22  1  0
 22 23  2  0
 24 27  1  0
 24 23  1  0
 25 24  2  0
 26 25  1  0
 26 21  2  0
 27 28  1  0
 28 29  1  0
 29 30  2  0
 31 30  1  0
 31 35  1  0
 32 31  2  0
 33 28  2  0
 33 32  1  0
 34 33  1  0
 36 37  1  0
 37 40  1  0
 37 39  1  0
 38 36  2  0
 41 42  1  0
 41 16  1  0
 43 41  1  0
 44 45  1  0
 44 46  2  0
 45 48  1  0
 47 45  1  0
 49 50  1  0
 50 51  1  0
 51 53  1  0
 52 63  2  0
 53 58  1  0
 54 64  1  0
 54 62  1  0
 55 61  1  0
 55 57  1  0
 56 62  1  0
 57 56  1  0
 58 57  2  0
 59 60  1  0
 59 53  2  0
 60 55  2  0
 61 54  1  0
 62 52  1  0
 64 66  2  0
 65 64  1  0
 67 65  1  0
 68 77  2  0
 68 73  1  0
 69 65  1  0
 69 73  1  0
 70 69  1  0
 71 72  1  0
 71 70  1  0
 72 68  1  0
 73 74  2  0
 74 75  1  0
 76 75  2  0
 77 76  1  0
 78 52  1  0
 78 88  1  0
 78 79  1  0
 79 82  1  0
 80 79  1  0
 80 84  1  0
 81 80  2  0
 84 83  1  0
 84 86  1  0
 86 87  1  0
 86 85  1  0
 88 89  1  1
 88 91  1  0
 90 88  1  0
M  ISO  4   1 100  15 100  50 101  51 101
M  END
>  <TORSDO>  (86) 
F 18

>  <SCORE>  (86) 
-10.458

>  <name>  (86) 
85

>  <ligand_id>  (86) 
85

>  <original_smiles>  (86) 
[H]c1c([H])c([H])c2c(c1[H])C([H])([H])C([H])([H])C([H])([H])C2([H])N([H])C(=O)C1([H])N(C(=O)C([H])(N([H])C(=O)C([H])(N([H])C([H])([H])[H])C([H])([H])[H])C(C([H])([H])[H])(C([H])([H])[H])C([H])([H])[H])C([H])([H])c2c([H])c(OC([H])([H])C([H])([H])C34C([H])([H])N(C(=O)N5C([H])([H])C([H])([H])C([H])([H])C([H])(n6nc(-c7c([H])c([H])c(Oc8c([H])c([H])c(F)c([H])c8F)c([H])c7[H])c(C(=O)N([H])[H])c6N([H])[H])C5([H])[H])C([H])(C(=O)N([H])[H])C3([H])C([H])([H])C4([H])[H])c([H])c([H])c2C1([H])[H]

>  <smiles>  (86) 
[H]c1c([H])c([H])c2c(c1[H])C([H])([H])C([H])([H])C([H])([H])C2([H])N([H])C(=O)C1([H])N(C(=O)C([H])(N([H])C(=O)C([H])(N([H])C([H])([H])[H])C([H])([H])[H])C(C([H])([H])[H])(C([H])([H])[H])C([H])([H])[H])C([H])([H])c2c([H])c(OC([H])([H])C([H])([H])C34C([H])([H])N(C(=O)N5C([H])([H])C([H])([H])C([H])([H])C([H])(n6nc(-c7c([H])c([H])c(Oc8c([H])c([H])c(F)c([H])c8F)c([H])c7[H])c(C(=O)N([H])[H])c6N([H])[H])C5([H])[H])C([H])(C(=O)N([H])[H])C3([H])C([H])([H])C4([H])[H])c([H])c([H])c2C1([H])[H]

$$$$
86:0:0
     RDKit          3D

 92101  0  0  1  0  0  0  0  0999 V2000
  -28.3390  -19.4060   21.5060 C   0  0  0  0  0  2  0  0  0  0  0  0
  -28.1320  -18.7990   20.1160 C   0  0  0  0  0  2  0  0  0  0  0  0
  -30.5840  -20.7650   20.8990 C   0  0  0  0  0  2  0  0  0  0  0  0
  -29.8430  -19.4550   21.2290 C   0  0  0  0  0  3  0  0  0  0  0  0
  -30.0290  -20.7780   19.4650 C   0  0  0  0  0  3  0  0  0  0  0  0
  -29.5900  -19.1370   19.7380 C   0  0  2  0  0  0  0  0  0  0  0  0
  -30.9010  -15.1610   19.3070 C   0  0  0  0  0  0  0  0  0  0  0  0
  -30.6700  -12.7560   18.5070 C   0  0  0  0  0  2  0  0  0  0  0  0
  -29.6010  -12.6340   17.3970 C   0  0  0  0  0  2  0  0  0  0  0  0
  -28.2060  -12.4310   18.0100 C   0  0  0  0  0  2  0  0  0  0  0  0
  -27.9290  -13.4090   19.1830 C   0  0  0  0  0  3  0  0  0  0  0  0
  -29.1110  -13.5060   20.1700 C   0  0  0  0  0  2  0  0  0  0  0  0
  -30.2950  -13.9000   19.3960 N   0  0  0  0  0  0  0  0  0  0  0  0
  -32.0450  -15.1590   18.8420 O   0  0  0  0  0  0  0  0  0  0  0  0
  -30.4960  -17.7680   19.3290 C   0  0  0  0  0  0  0  0  0  0  0  0
  -30.1860  -16.3820   19.5700 N   0  0  0  0  0  0  0  0  0  0  0  0
  -31.5500  -18.0420   18.7500 O   0  0  0  0  0  0  0  0  0  0  0  0
  -29.2910  -16.2350   20.0070 H   0  0  0  0  0  0  0  0  0  0  0  0
  -25.7280  -14.0180   20.3290 C   0  0  0  0  0  0  0  0  0  0  0  0
  -24.6920  -13.2600   20.8040 C   0  0  0  0  0  0  0  0  0  0  0  0
  -25.0720  -11.8970   20.5940 C   0  0  0  0  0  0  0  0  0  0  0  0
  -26.6690  -13.1200   19.8560 N   0  0  0  0  0  0  0  0  0  0  0  0
  -26.2960  -11.8340   20.0820 N   0  0  0  0  0  0  0  0  0  0  0  0
  -24.3110  -10.6570   20.7960 C   0  0  0  0  0  0  0  0  0  0  0  0
  -24.7430   -9.6640   21.7040 C   0  0  0  0  0  3  0  0  0  0  0  0
  -23.9820   -8.4900   21.9000 C   0  0  0  0  0  3  0  0  0  0  0  0
  -22.7740   -8.3020   21.1880 C   0  0  0  0  0  0  0  0  0  0  0  0
  -22.3600   -9.2830   20.2660 C   0  0  0  0  0  3  0  0  0  0  0  0
  -23.1230  -10.4460   20.0690 C   0  0  0  0  0  3  0  0  0  0  0  0
  -21.9840   -7.1820   21.2900 O   0  0  0  0  0  0  0  0  0  0  0  0
  -21.8320   -6.5160   22.4790 C   0  0  0  0  0  0  0  0  0  0  0  0
  -21.2790   -7.1400   23.6190 C   0  0  0  0  0  3  0  0  0  0  0  0
  -21.0760   -6.3990   24.8000 C   0  0  0  0  0  3  0  0  0  0  0  0
  -21.4150   -5.0330   24.8410 C   0  0  0  0  0  0  0  0  0  0  0  0
  -21.9610   -4.4090   23.7060 C   0  0  0  0  0  3  0  0  0  0  0  0
  -22.1640   -5.1470   22.5270 C   0  0  0  0  0  0  0  0  0  0  0  0
  -22.6700   -4.5350   21.4300 F   0  0  0  0  0  0  0  0  0  0  0  0
  -21.2130   -4.3200   25.9720 F   0  0  0  0  0  0  0  0  0  0  0  0
  -23.3830  -13.7720   21.3240 C   0  0  0  0  0  0  0  0  0  0  0  0
  -22.7610  -13.0470   22.2480 N   0  0  0  0  0  0  0  0  0  0  0  0
  -22.9220  -14.8480   20.9440 O   0  0  0  0  0  0  0  0  0  0  0  0
  -23.1580  -12.1790   22.5780 H   0  0  0  0  0  0  0  0  0  0  0  0
  -21.8810  -13.3650   22.6270 H   0  0  0  0  0  0  0  0  0  0  0  0
  -25.9300  -15.3920   20.2330 N   0  0  0  0  0  0  0  0  0  0  0  0
  -25.2110  -16.0530   20.5050 H   0  0  0  0  0  0  0  0  0  0  0  0
  -26.6980  -15.8280   19.7410 H   0  0  0  0  0  0  0  0  0  0  0  0
  -29.3150  -23.4770   19.4630 C   0  0  0  0  0  0  0  0  0  0  0  0
  -29.0880  -22.0680   19.2780 N   0  0  0  0  0  0  0  0  0  0  0  0
  -30.3790  -23.8250   19.9750 O   0  0  0  0  0  0  0  0  0  0  0  0
  -28.1780  -21.8650   18.8880 H   0  0  0  0  0  0  0  0  0  0  0  0
  -28.2830  -24.7230   19.0320 C   0  0  0  0  0  2  0  0  0  0  0  0
  -28.4970  -26.2360   19.4090 O   0  0  0  0  0  0  0  0  0  0  0  0
  -24.6490  -31.4580   22.9450 C   0  0  0  0  0  0  0  0  0  0  0  0
  -27.4050  -27.1950   19.4250 C   0  0  0  0  0  0  0  0  0  0  0  0
  -23.4910  -30.1780   21.1850 C   0  0  0  0  0  3  0  0  0  0  0  0
  -24.9890  -28.8310   19.5840 C   0  0  0  0  0  0  0  0  0  0  0  0
  -26.0250  -30.5850   21.0160 C   0  0  0  0  0  2  0  0  0  0  0  0
  -26.1560  -29.2710   20.2230 C   0  0  0  0  0  0  0  0  0  0  0  0
  -27.3580  -28.4700   20.1290 C   0  0  0  0  0  3  0  0  0  0  0  0
  -26.2100  -26.8720   18.7410 C   0  0  0  0  0  3  0  0  0  0  0  0
  -25.0300  -27.6470   18.8260 C   0  0  0  0  0  3  0  0  0  0  0  0
  -23.7220  -29.6590   19.7410 C   0  0  0  0  0  2  0  0  0  0  0  0
  -24.7420  -30.7560   21.7720 N   0  0  0  0  0  0  0  0  0  0  0  0
  -23.5610  -31.6330   23.5130 O   0  0  0  0  0  0  0  0  0  0  0  0
  -22.8800  -29.0460   22.0480 C   0  0  0  0  0  0  0  0  0  0  0  0
  -21.5620  -28.8150   21.9150 N   0  0  0  0  0  0  0  0  0  0  0  0
  -23.5940  -28.3810   22.8030 O   0  0  0  0  0  0  0  0  0  0  0  0
  -21.0370  -29.4110   21.2900 H   0  0  0  0  0  0  0  0  0  0  0  0
  -18.2590  -27.3830   22.3190 C   0  0  0  0  0  0  0  0  0  0  0  0
  -20.8030  -27.7600   22.5930 C   0  0  0  0  0  3  0  0  0  0  0  0
  -20.9760  -26.4000   21.8780 C   0  0  0  0  0  2  0  0  0  0  0  0
  -19.8810  -26.1160   20.8460 C   0  0  0  0  0  2  0  0  0  0  0  0
  -18.5010  -26.1180   21.5100 C   0  0  0  0  0  2  0  0  0  0  0  0
  -19.3380  -28.1610   22.8130 C   0  0  0  0  0  0  0  0  0  0  0  0
  -19.0560  -29.3430   23.5310 C   0  0  0  0  0  3  0  0  0  0  0  0
  -17.7270  -29.7450   23.7620 C   0  0  0  0  0  3  0  0  0  0  0  0
  -16.6630  -28.9640   23.2810 C   0  0  0  0  0  3  0  0  0  0  0  0
  -16.9290  -27.7850   22.5640 C   0  0  0  0  0  3  0  0  0  0  0  0
  -25.9070  -32.0930   23.6160 C   0  0  0  0  0  3  0  0  0  0  0  0
  -25.5550  -33.4610   24.0230 N   0  0  0  0  0  0  0  0  0  0  0  0
  -25.8460  -34.5680   23.3240 C   0  0  0  0  0  0  0  0  0  0  0  0
  -26.5040  -34.5430   22.2810 O   0  0  0  0  0  0  0  0  0  0  0  0
  -24.9700  -33.5500   24.8380 H   0  0  0  0  0  0  0  0  0  0  0  0
  -24.0470  -36.3170   23.1190 C   0  0  0  0  0  1  0  0  0  0  0  0
  -25.3260  -35.9120   23.8690 C   0  0  0  0  0  3  0  0  0  0  0  0
  -27.4440  -36.8420   24.6930 C   0  0  0  0  0  1  0  0  0  0  0  0
  -26.3180  -37.0060   23.7780 N   0  0  0  0  0  0  0  0  0  0  0  0
  -25.8810  -37.9040   23.9690 H   0  0  0  0  0  0  0  0  0  0  0  0
  -26.4270  -31.2670   24.8580 C   0  0  1  0  0  0  0  0  0  0  0  0
  -25.3290  -30.9540   25.9030 C   0  0  0  0  0  1  0  0  0  0  0  0
  -27.0420  -29.9220   24.4070 C   0  0  0  0  0  1  0  0  0  0  0  0
  -27.5540  -32.0500   25.5690 C   0  0  0  0  0  1  0  0  0  0  0  0
  2  1  1  0
  4  3  1  0
  4  1  1  0
  5 48  1  0
  5  6  1  0
  5  3  1  0
  6 15  1  6
  6  2  1  0
  6  4  1  0
  7 13  1  0
  7 16  1  0
  8 13  1  0
  9 10  1  0
  9  8  1  0
 11 10  1  0
 11 22  1  0
 11 12  1  0
 13 12  1  0
 14  7  2  0
 15 16  1  0
 16 18  1  0
 17 15  2  0
 19 20  2  0
 20 39  1  0
 21 24  1  0
 21 20  1  0
 22 23  1  0
 22 19  1  0
 23 21  2  0
 24 25  1  0
 25 26  2  0
 27 30  1  0
 27 26  1  0
 28 27  2  0
 29 28  1  0
 29 24  2  0
 30 31  1  0
 31 36  2  0
 31 32  1  0
 32 33  2  0
 33 34  1  0
 34 38  1  0
 35 34  2  0
 36 35  1  0
 37 36  1  0
 39 40  1  0
 40 42  1  0
 40 43  1  0
 41 39  2  0
 44 19  1  0
 44 45  1  0
 46 44  1  0
 47 49  2  0
 48 47  1  0
 50 48  1  0
 51 52  1  0
 51 47  1  0
 52 54  1  0
 53 64  2  0
 54 59  1  0
 55 63  1  0
 55 65  1  0
 56 62  1  0
 56 58  1  0
 57 63  1  0
 58 57  1  0
 59 58  2  0
 60 61  1  0
 60 54  2  0
 61 56  2  0
 62 55  1  0
 63 53  1  0
 65 67  2  0
 66 65  1  0
 68 66  1  0
 69 78  2  0
 69 74  1  0
 70 66  1  0
 70 74  1  0
 71 70  1  0
 72 73  1  0
 72 71  1  0
 73 69  1  0
 74 75  2  0
 75 76  1  0
 77 76  2  0
 78 77  1  0
 79 53  1  0
 79 80  1  0
 79 89  1  0
 80 83  1  0
 81 85  1  0
 81 80  1  0
 82 81  2  0
 85 84  1  0
 87 85  1  0
 87 88  1  0
 87 86  1  0
 89 92  1  1
 89 90  1  0
 91 89  1  0
M  ISO  4   7 100  16 100  51 101  52 101
M  END
>  <TORSDO>  (87) 
F 18

>  <SCORE>  (87) 
-11.174

>  <name>  (87) 
86

>  <ligand_id>  (87) 
86

>  <original_smiles>  (87) 
[H]c1c([H])c([H])c2c(c1[H])C([H])([H])C([H])([H])C([H])([H])C2([H])N([H])C(=O)C1([H])N(C(=O)C([H])(N([H])C(=O)C([H])(N([H])C([H])([H])[H])C([H])([H])[H])C(C([H])([H])[H])(C([H])([H])[H])C([H])([H])[H])C([H])([H])c2c([H])c(OC([H])([H])C(=O)N([H])C3([H])C([H])([H])C4([H])C([H])([H])C([H])([H])C34C(=O)N([H])C(=O)N3C([H])([H])C([H])([H])C([H])([H])C([H])(n4nc(-c5c([H])c([H])c(Oc6c([H])c([H])c(F)c([H])c6F)c([H])c5[H])c(C(=O)N([H])[H])c4N([H])[H])C3([H])[H])c([H])c([H])c2C1([H])[H]

>  <smiles>  (87) 
[H]c1c([H])c([H])c2c(c1[H])C([H])([H])C([H])([H])C([H])([H])C2([H])N([H])C(=O)C1([H])N(C(=O)C([H])(N([H])C(=O)C([H])(N([H])C([H])([H])[H])C([H])([H])[H])C(C([H])([H])[H])(C([H])([H])[H])C([H])([H])[H])C([H])([H])c2c([H])c(OC([H])([H])C(=O)N([H])C3([H])C([H])([H])C4([H])C([H])([H])C([H])([H])C34C(=O)N([H])C(=O)N3C([H])([H])C([H])([H])C([H])([H])C([H])(n4nc(-c5c([H])c([H])c(Oc6c([H])c([H])c(F)c([H])c6F)c([H])c5[H])c(C(=O)N([H])[H])c4N([H])[H])C3([H])[H])c([H])c([H])c2C1([H])[H]

$$$$
87:0:0
     RDKit          3D

 92102  0  0  1  0  0  0  0  0999 V2000
  -29.5280  -19.7910   21.4870 C   0  0  0  0  0  2  0  0  0  0  0  0
  -29.3610  -21.4750   18.9340 C   0  0  0  0  0  3  0  0  0  0  0  0
  -27.6550  -20.9760   19.7260 C   0  0  0  0  0  3  0  0  0  0  0  0
  -29.2890  -21.4990   21.4460 C   0  0  0  0  0  3  0  0  0  0  0  0
  -28.8210  -19.9550   19.2220 C   0  0  0  0  0  3  0  0  0  0  0  0
  -29.6660  -18.8030   20.1700 C   0  0  0  0  0  3  0  0  0  0  0  0
  -28.6000  -22.2100   20.1450 C   0  0  1  0  0  0  0  0  0  0  0  0
  -30.3190  -15.7110   20.0850 C   0  0  0  0  0  0  0  0  0  0  0  0
  -30.3810  -13.2000   19.2220 C   0  0  0  0  0  2  0  0  0  0  0  0
  -29.4430  -12.8410   18.0350 C   0  0  0  0  0  2  0  0  0  0  0  0
  -28.0330  -12.4890   18.5360 C   0  0  0  0  0  2  0  0  0  0  0  0
  -27.5650  -13.4680   19.6370 C   0  0  0  0  0  3  0  0  0  0  0  0
  -28.6360  -13.7440   20.7170 C   0  0  0  0  0  2  0  0  0  0  0  0
  -29.7930  -14.3570   20.0270 N   0  0  0  0  0  0  0  0  0  0  0  0
  -31.5420  -15.6740   19.8550 O   0  0  0  0  0  0  0  0  0  0  0  0
  -29.5490  -17.0440   20.2080 N   0  0  0  0  0  0  0  0  0  0  0  0
  -28.5790  -16.7960   20.3470 H   0  0  0  0  0  0  0  0  0  0  0  0
  -25.2310  -13.9700   20.5090 C   0  0  0  0  0  0  0  0  0  0  0  0
  -24.1910  -13.1750   20.8990 C   0  0  0  0  0  0  0  0  0  0  0  0
  -24.6690  -11.8300   20.8170 C   0  0  0  0  0  0  0  0  0  0  0  0
  -26.2700  -13.1130   20.2000 N   0  0  0  0  0  0  0  0  0  0  0  0
  -25.9480  -11.8160   20.4530 N   0  0  0  0  0  0  0  0  0  0  0  0
  -23.9570  -10.5590   21.0030 C   0  0  0  0  0  0  0  0  0  0  0  0
  -24.4040   -9.5890   21.9270 C   0  0  0  0  0  3  0  0  0  0  0  0
  -23.6870   -8.3850   22.1050 C   0  0  0  0  0  3  0  0  0  0  0  0
  -22.5110   -8.1420   21.3570 C   0  0  0  0  0  0  0  0  0  0  0  0
  -22.0830   -9.1010   20.4220 C   0  0  0  0  0  3  0  0  0  0  0  0
  -22.7990  -10.2950   20.2430 C   0  0  0  0  0  3  0  0  0  0  0  0
  -21.7660   -6.9910   21.4450 O   0  0  0  0  0  0  0  0  0  0  0  0
  -21.6940   -6.2660   22.6060 C   0  0  0  0  0  0  0  0  0  0  0  0
  -21.1870   -6.8220   23.8020 C   0  0  0  0  0  3  0  0  0  0  0  0
  -21.0660   -6.0200   24.9550 C   0  0  0  0  0  3  0  0  0  0  0  0
  -21.4410   -4.6640   24.9130 C   0  0  0  0  0  0  0  0  0  0  0  0
  -21.9400   -4.1070   23.7230 C   0  0  0  0  0  3  0  0  0  0  0  0
  -22.0630   -4.9050   22.5720 C   0  0  0  0  0  0  0  0  0  0  0  0
  -22.5240   -4.3580   21.4220 F   0  0  0  0  0  0  0  0  0  0  0  0
  -21.3170   -3.8920   26.0180 F   0  0  0  0  0  0  0  0  0  0  0  0
  -22.8020  -13.6350   21.2260 C   0  0  0  0  0  0  0  0  0  0  0  0
  -22.1120  -12.9230   22.1090 N   0  0  0  0  0  0  0  0  0  0  0  0
  -22.3390  -14.6640   20.7350 O   0  0  0  0  0  0  0  0  0  0  0  0
  -22.5010  -12.0920   22.5290 H   0  0  0  0  0  0  0  0  0  0  0  0
  -21.1810  -13.2140   22.3710 H   0  0  0  0  0  0  0  0  0  0  0  0
  -25.3730  -15.3470   20.3580 N   0  0  0  0  0  0  0  0  0  0  0  0
  -24.6030  -15.9870   20.5140 H   0  0  0  0  0  0  0  0  0  0  0  0
  -26.1940  -15.8010   19.9760 H   0  0  0  0  0  0  0  0  0  0  0  0
  -30.5980  -22.2290   21.7900 C   0  0  0  0  0  0  0  0  0  0  0  0
  -30.5280  -23.2810   22.5980 N   0  0  0  0  0  0  0  0  0  0  0  0
  -31.6800  -21.8430   21.3500 O   0  0  0  0  0  0  0  0  0  0  0  0
  -29.6380  -23.5930   22.9620 H   0  0  0  0  0  0  0  0  0  0  0  0
  -31.3660  -23.7880   22.8480 H   0  0  0  0  0  0  0  0  0  0  0  0
  -27.8780  -24.0080   20.1330 C   0  0  0  0  0  2  0  0  0  0  0  0
  -28.1440  -25.7170   20.2490 O   0  0  0  0  0  0  0  0  0  0  0  0
  -24.6620  -31.9250   23.2510 C   0  0  0  0  0  0  0  0  0  0  0  0
  -27.1680  -26.9100   20.2110 C   0  0  0  0  0  0  0  0  0  0  0  0
  -23.4600  -30.5410   21.6140 C   0  0  0  0  0  3  0  0  0  0  0  0
  -24.8960  -28.9100   20.1790 C   0  0  0  0  0  0  0  0  0  0  0  0
  -26.0360  -30.6970   21.4700 C   0  0  0  0  0  2  0  0  0  0  0  0
  -26.0950  -29.2730   20.8040 C   0  0  0  0  0  0  0  0  0  0  0  0
  -27.2190  -28.3000   20.7880 C   0  0  0  0  0  3  0  0  0  0  0  0
  -25.9340  -26.7430   19.5360 C   0  0  0  0  0  3  0  0  0  0  0  0
  -24.8510  -27.6700   19.5210 C   0  0  0  0  0  3  0  0  0  0  0  0
  -23.6880  -29.8550   20.2360 C   0  0  0  0  0  2  0  0  0  0  0  0
  -24.7430  -31.0850   22.1640 N   0  0  0  0  0  0  0  0  0  0  0  0
  -23.5740  -32.2200   23.7740 O   0  0  0  0  0  0  0  0  0  0  0  0
  -22.7530  -29.5540   22.5810 C   0  0  0  0  0  0  0  0  0  0  0  0
  -21.4220  -29.3860   22.4510 N   0  0  0  0  0  0  0  0  0  0  0  0
  -23.4120  -28.9370   23.4210 O   0  0  0  0  0  0  0  0  0  0  0  0
  -20.9400  -29.9330   21.7520 H   0  0  0  0  0  0  0  0  0  0  0  0
  -18.0430  -28.1500   22.9520 C   0  0  0  0  0  0  0  0  0  0  0  0
  -20.6010  -28.4450   23.2230 C   0  0  0  0  0  3  0  0  0  0  0  0
  -20.7170  -27.0110   22.6550 C   0  0  0  0  0  2  0  0  0  0  0  0
  -19.6240  -26.6740   21.6370 C   0  0  0  0  0  2  0  0  0  0  0  0
  -18.2380  -26.8030   22.2750 C   0  0  0  0  0  2  0  0  0  0  0  0
  -19.1520  -28.9270   23.3840 C   0  0  0  0  0  0  0  0  0  0  0  0
  -18.9120  -30.1830   23.9810 C   0  0  0  0  0  3  0  0  0  0  0  0
  -17.6000  -30.6640   24.1480 C   0  0  0  0  0  3  0  0  0  0  0  0
  -16.5070  -29.8850   23.7310 C   0  0  0  0  0  3  0  0  0  0  0  0
  -16.7300  -28.6300   23.1390 C   0  0  0  0  0  3  0  0  0  0  0  0
  -25.9330  -32.5670   23.8870 C   0  0  0  0  0  3  0  0  0  0  0  0
  -25.6220  -33.9710   24.2180 N   0  0  0  0  0  0  0  0  0  0  0  0
  -25.9330  -35.0300   23.4570 C   0  0  0  0  0  0  0  0  0  0  0  0
  -26.5710  -34.9270   22.4060 O   0  0  0  0  0  0  0  0  0  0  0  0
  -25.0510  -34.1240   25.0350 H   0  0  0  0  0  0  0  0  0  0  0  0
  -24.1890  -36.8290   23.1780 C   0  0  0  0  0  1  0  0  0  0  0  0
  -25.4660  -36.4220   23.9330 C   0  0  0  0  0  3  0  0  0  0  0  0
  -27.6290  -37.3220   24.6740 C   0  0  0  0  0  1  0  0  0  0  0  0
  -26.4900  -37.4780   23.7730 N   0  0  0  0  0  0  0  0  0  0  0  0
  -26.0870  -38.3970   23.9290 H   0  0  0  0  0  0  0  0  0  0  0  0
  -26.4250  -31.8090   25.1810 C   0  0  1  0  0  0  0  0  0  0  0  0
  -25.3180  -31.6020   26.2420 C   0  0  0  0  0  1  0  0  0  0  0  0
  -26.9990  -30.4180   24.8280 C   0  0  0  0  0  1  0  0  0  0  0  0
  -27.5760  -32.6020   25.8460 C   0  0  0  0  0  1  0  0  0  0  0  0
  2  5  1  0
  2  3  1  0
  2  7  1  0
  3  7  1  0
  4  1  1  0
  4 46  1  0
  5  3  1  0
  5  6  1  0
  6 16  1  0
  6  1  1  0
  7  4  1  0
  8 16  1  0
  9 14  1  0
 10 11  1  0
 10  9  1  0
 11 12  1  0
 12 21  1  0
 12 13  1  0
 14  8  1  0
 14 13  1  0
 15  8  2  0
 16 17  1  0
 18 19  2  0
 19 38  1  0
 20 19  1  0
 20 23  1  0
 21 22  1  0
 21 18  1  0
 22 20  2  0
 23 24  1  0
 24 25  2  0
 26 29  1  0
 26 25  1  0
 27 26  2  0
 28 27  1  0
 28 23  2  0
 29 30  1  0
 30 31  1  0
 31 32  2  0
 33 32  1  0
 33 37  1  0
 34 33  2  0
 35 30  2  0
 35 34  1  0
 36 35  1  0
 38 39  1  0
 39 42  1  0
 39 41  1  0
 40 38  2  0
 43 18  1  0
 43 44  1  0
 45 43  1  0
 46 47  1  0
 47 50  1  0
 47 49  1  0
 48 46  2  0
  7 51  1  1
 51 52  1  0
 53 64  2  0
 53 79  1  0
 54 52  1  0
 54 59  1  0
 55 63  1  0
 55 65  1  0
 56 62  1  0
 56 58  1  0
 57 63  1  0
 58 57  1  0
 59 58  2  0
 60 54  2  0
 61 60  1  0
 61 56  2  0
 62 55  1  0
 63 53  1  0
 65 67  2  0
 66 65  1  0
 66 70  1  0
 68 66  1  0
 69 78  2  0
 69 74  1  0
 70 74  1  0
 71 70  1  0
 72 73  1  0
 72 71  1  0
 73 69  1  0
 74 75  2  0
 75 76  1  0
 77 76  2  0
 78 77  1  0
 79 80  1  0
 79 89  1  0
 80 83  1  0
 81 85  1  0
 81 80  1  0
 82 81  2  0
 84 85  1  0
 87 88  1  0
 87 85  1  0
 87 86  1  0
 89 92  1  1
 89 90  1  0
 91 89  1  0
M  ISO  4   8 100  16 100  51 101  52 101
M  END
>  <TORSDO>  (88) 
F 18

>  <SCORE>  (88) 
-16.249

>  <name>  (88) 
87

>  <ligand_id>  (88) 
87

>  <original_smiles>  (88) 
[H]c1c([H])c([H])c2c(c1[H])C([H])([H])C([H])([H])C([H])([H])C2([H])N([H])C(=O)C1([H])N(C(=O)C([H])(N([H])C(=O)C([H])(N([H])C([H])([H])[H])C([H])([H])[H])C(C([H])([H])[H])(C([H])([H])[H])C([H])([H])[H])C([H])([H])c2c([H])c(OC([H])([H])C34C([H])([H])C([H])(C3([H])[H])C([H])(N([H])C(=O)N3C([H])([H])C([H])([H])C([H])([H])C([H])(n5nc(-c6c([H])c([H])c(Oc7c([H])c([H])c(F)c([H])c7F)c([H])c6[H])c(C(=O)N([H])[H])c5N([H])[H])C3([H])[H])C([H])([H])C4([H])C(=O)N([H])[H])c([H])c([H])c2C1([H])[H]

>  <smiles>  (88) 
[H]c1c([H])c([H])c2c(c1[H])C([H])([H])C([H])([H])C([H])([H])C2([H])N([H])C(=O)C1([H])N(C(=O)C([H])(N([H])C(=O)C([H])(N([H])C([H])([H])[H])C([H])([H])[H])C(C([H])([H])[H])(C([H])([H])[H])C([H])([H])[H])C([H])([H])c2c([H])c(OC([H])([H])C34C([H])([H])C([H])(C3([H])[H])C([H])(N([H])C(=O)N3C([H])([H])C([H])([H])C([H])([H])C([H])(n5nc(-c6c([H])c([H])c(Oc7c([H])c([H])c(F)c([H])c7F)c([H])c6[H])c(C(=O)N([H])[H])c5N([H])[H])C3([H])[H])C([H])([H])C4([H])C(=O)N([H])[H])c([H])c([H])c2C1([H])[H]

$$$$
88:0:0
     RDKit          3D

 87 93  0  0  1  0  0  0  0  0999 V2000
  -31.1490  -21.2350   19.7540 C   0  0  0  0  0  2  0  0  0  0  0  0
  -30.9040  -20.5680   21.6080 C   0  0  0  0  0  2  0  0  0  0  0  0
  -30.8340  -19.8220   20.2710 C   0  0  0  0  0  3  0  0  0  0  0  0
  -29.4160  -19.4070   19.9750 C   0  0  0  0  0  2  0  0  0  0  0  0
  -28.8510  -21.3500   20.5130 C   0  0  0  0  0  1  0  0  0  0  0  0
  -30.2670  -21.6580   20.8480 N   0  0  2  0  0  4  0  0  0  0  0  0
  -30.4390  -22.5830   21.2150 H   0  0  0  0  0  0  0  0  0  0  0  0
  -30.1300  -16.0470   20.2120 C   0  0  0  0  0  0  0  0  0  0  0  0
  -30.3430  -13.4020   19.4600 C   0  0  0  0  0  2  0  0  0  0  0  0
  -29.5100  -12.8170   18.2710 C   0  0  0  0  0  2  0  0  0  0  0  0
  -28.1140  -12.3810   18.7280 C   0  0  0  0  0  2  0  0  0  0  0  0
  -27.5360  -13.4060   19.7230 C   0  0  0  0  0  3  0  0  0  0  0  0
  -28.5280  -13.8810   20.8250 C   0  0  0  0  0  2  0  0  0  0  0  0
  -29.6480  -14.6160   20.1580 N   0  0  0  0  0  0  0  0  0  0  0  0
  -31.3660  -15.9190   20.0350 O   0  0  0  0  0  0  0  0  0  0  0  0
  -29.3890  -17.5190   20.2850 N   0  0  0  0  0  0  0  0  0  0  0  0
  -28.4260  -17.2910   20.4880 H   0  0  0  0  0  0  0  0  0  0  0  0
  -25.1650  -13.8890   20.4580 C   0  0  0  0  0  0  0  0  0  0  0  0
  -24.1140  -13.0990   20.8200 C   0  0  0  0  0  0  0  0  0  0  0  0
  -24.6050  -11.7560   20.8130 C   0  0  0  0  0  0  0  0  0  0  0  0
  -26.2270  -13.0350   20.2400 N   0  0  0  0  0  0  0  0  0  0  0  0
  -25.9040  -11.7420   20.5180 N   0  0  0  0  0  0  0  0  0  0  0  0
  -23.8870  -10.4870   21.0090 C   0  0  0  0  0  0  0  0  0  0  0  0
  -24.3210   -9.5270   21.9500 C   0  0  0  0  0  3  0  0  0  0  0  0
  -23.5990   -8.3300   22.1390 C   0  0  0  0  0  3  0  0  0  0  0  0
  -22.4260   -8.0810   21.3860 C   0  0  0  0  0  0  0  0  0  0  0  0
  -22.0100   -9.0280   20.4350 C   0  0  0  0  0  3  0  0  0  0  0  0
  -22.7340  -10.2180   20.2440 C   0  0  0  0  0  3  0  0  0  0  0  0
  -21.6750   -6.9340   21.4830 O   0  0  0  0  0  0  0  0  0  0  0  0
  -21.6440   -6.1880   22.6340 C   0  0  0  0  0  0  0  0  0  0  0  0
  -21.2420   -6.7400   23.8690 C   0  0  0  0  0  3  0  0  0  0  0  0
  -21.1590   -5.9200   25.0130 C   0  0  0  0  0  3  0  0  0  0  0  0
  -21.4690   -4.5500   24.9230 C   0  0  0  0  0  0  0  0  0  0  0  0
  -21.8640   -3.9970   23.6920 C   0  0  0  0  0  3  0  0  0  0  0  0
  -21.9500   -4.8130   22.5510 C   0  0  0  0  0  0  0  0  0  0  0  0
  -22.3100   -4.2700   21.3630 F   0  0  0  0  0  0  0  0  0  0  0  0
  -21.3820   -3.7610   26.0190 F   0  0  0  0  0  0  0  0  0  0  0  0
  -22.7060  -13.5610   21.0550 C   0  0  0  0  0  0  0  0  0  0  0  0
  -21.9730  -12.8740   21.9220 N   0  0  0  0  0  0  0  0  0  0  0  0
  -22.2680  -14.5700   20.5050 O   0  0  0  0  0  0  0  0  0  0  0  0
  -22.3420  -12.0600   22.3890 H   0  0  0  0  0  0  0  0  0  0  0  0
  -21.0280  -13.1680   22.1240 H   0  0  0  0  0  0  0  0  0  0  0  0
  -25.3050  -15.2600   20.2600 N   0  0  0  0  0  0  0  0  0  0  0  0
  -24.5210  -15.8980   20.3420 H   0  0  0  0  0  0  0  0  0  0  0  0
  -26.1420  -15.7030   19.9050 H   0  0  0  0  0  0  0  0  0  0  0  0
  -28.1880  -23.2810   19.9770 C   0  0  0  0  0 15  0  0  0  0  0  0
  -28.1280  -25.1500   20.3330 O   0  0  0  0  0  1  0  0  0  0  0  0
  -24.6230  -31.7790   23.1310 C   0  0  0  0  0  0  0  0  0  0  0  0
  -27.1860  -26.4770   20.2190 C   0  0  0  0  0  0  0  0  0  0  0  0
  -23.4650  -30.3590   21.4970 C   0  0  0  0  0  3  0  0  0  0  0  0
  -24.9340  -28.6600   20.1190 C   0  0  0  0  0  0  0  0  0  0  0  0
  -26.0540  -30.4390   21.4280 C   0  0  0  0  0  2  0  0  0  0  0  0
  -26.1250  -28.9760   20.7800 C   0  0  0  0  0  0  0  0  0  0  0  0
  -27.2190  -27.9190   20.7940 C   0  0  0  0  0  3  0  0  0  0  0  0
  -25.9590  -26.4400   19.4860 C   0  0  0  0  0  3  0  0  0  0  0  0
  -24.9050  -27.4220   19.4470 C   0  0  0  0  0  3  0  0  0  0  0  0
  -23.7320  -29.6340   20.1410 C   0  0  0  0  0  2  0  0  0  0  0  0
  -24.7400  -30.8990   22.0700 N   0  0  0  0  0  0  0  0  0  0  0  0
  -23.5190  -32.0890   23.6170 O   0  0  0  0  0  0  0  0  0  0  0  0
  -22.7200  -29.4090   22.4740 C   0  0  0  0  0  0  0  0  0  0  0  0
  -21.3830  -29.2790   22.3550 N   0  0  0  0  0  0  0  0  0  0  0  0
  -23.3620  -28.7800   23.3190 O   0  0  0  0  0  0  0  0  0  0  0  0
  -20.9110  -29.8340   21.6560 H   0  0  0  0  0  0  0  0  0  0  0  0
  -17.9800  -28.1000   22.8890 C   0  0  0  0  0  0  0  0  0  0  0  0
  -20.5460  -28.3510   23.1300 C   0  0  0  0  0  3  0  0  0  0  0  0
  -20.6300  -26.9180   22.5550 C   0  0  0  0  0  2  0  0  0  0  0  0
  -19.5200  -26.6080   21.5450 C   0  0  0  0  0  2  0  0  0  0  0  0
  -18.1430  -26.7570   22.1990 C   0  0  0  0  0  2  0  0  0  0  0  0
  -19.1070  -28.8570   23.3110 C   0  0  0  0  0  0  0  0  0  0  0  0
  -18.8960  -30.1110   23.9250 C   0  0  0  0  0  3  0  0  0  0  0  0
  -17.5930  -30.6100   24.1140 C   0  0  0  0  0  3  0  0  0  0  0  0
  -16.4820  -29.8530   23.7030 C   0  0  0  0  0  3  0  0  0  0  0  0
  -16.6770  -28.5990   23.0970 C   0  0  0  0  0  3  0  0  0  0  0  0
  -25.8670  -32.4510   23.7890 C   0  0  0  0  0  3  0  0  0  0  0  0
  -25.5190  -33.8480   24.1330 N   0  0  0  0  0  0  0  0  0  0  0  0
  -25.8340  -34.9300   23.4070 C   0  0  0  0  0  0  0  0  0  0  0  0
  -26.4990  -34.8590   22.3710 O   0  0  0  0  0  0  0  0  0  0  0  0
  -24.9220  -33.9750   24.9380 H   0  0  0  0  0  0  0  0  0  0  0  0
  -24.0710  -36.7140   23.1370 C   0  0  0  0  0  1  0  0  0  0  0  0
  -25.3410  -36.3080   23.9030 C   0  0  0  0  0  3  0  0  0  0  0  0
  -27.4820  -37.2250   24.6880 C   0  0  0  0  0  1  0  0  0  0  0  0
  -26.3540  -37.3810   23.7750 N   0  0  0  0  0  0  0  0  0  0  0  0
  -25.9360  -38.2930   23.9410 H   0  0  0  0  0  0  0  0  0  0  0  0
  -26.3590  -31.6990   25.0890 C   0  0  1  0  0  0  0  0  0  0  0  0
  -25.2450  -31.4670   26.1380 C   0  0  0  0  0  1  0  0  0  0  0  0
  -26.9590  -30.3200   24.7410 C   0  0  0  0  0  1  0  0  0  0  0  0
  -27.4910  -32.5080   25.7650 C   0  0  0  0  0  1  0  0  0  0  0  0
  1  3  1  0
  1  6  1  0
  3  2  1  0
  4  3  1  0
  4 16  1  0
  5  6  1  0
  6  7  1  1
  6  2  1  0
  8 16  1  0
  9 14  1  0
 10 11  1  0
 10  9  1  0
 12 11  1  0
 12 21  1  0
 12 13  1  0
 14  8  1  0
 14 13  1  0
 15  8  2  0
 16 17  1  0
 18 19  2  0
 19 38  1  0
 20 19  1  0
 20 23  1  0
 21 18  1  0
 21 22  1  0
 22 20  2  0
 23 24  1  0
 24 25  2  0
 26 29  1  0
 26 25  1  0
 27 26  2  0
 28 27  1  0
 28 23  2  0
 29 30  1  0
 30 31  1  0
 31 32  2  0
 33 32  1  0
 33 37  1  0
 34 33  2  0
 35 30  2  0
 35 34  1  0
 36 35  1  0
 38 39  1  0
 39 42  1  0
 39 41  1  0
 40 38  2  0
 43 44  1  0
 43 18  1  0
 45 43  1  0
 48 59  2  0
 49 47  1  0
 49 54  1  0
 50 58  1  0
 50 60  1  0
 51 57  1  0
 51 53  1  0
 52 58  1  0
 53 54  2  0
 53 52  1  0
 55 49  2  0
 56 55  1  0
 56 51  2  0
 57 50  1  0
 58 48  1  0
 60 62  2  0
 61 60  1  0
 63 61  1  0
 64 73  2  0
 64 69  1  0
 65 61  1  0
 65 69  1  0
 66 65  1  0
 67 68  1  0
 67 66  1  0
 68 64  1  0
 69 70  2  0
 70 71  1  0
 72 71  2  0
 73 72  1  0
 74 48  1  0
 74 75  1  0
 74 84  1  0
 75 78  1  0
 76 80  1  0
 76 75  1  0
 77 76  2  0
 80 79  1  0
 82 80  1  0
 82 83  1  0
 82 81  1  0
 84 87  1  1
 84 85  1  0
 86 84  1  0
M  ISO  4   8 100  16 100  46 101  47 101
M  END
>  <TORSDO>  (89) 
F 17

>  <SCORE>  (89) 
-16.385

>  <name>  (89) 
88

>  <ligand_id>  (89) 
88

>  <original_smiles>  (89) 
[H]c1c([H])c([H])c2c(c1[H])C([H])([H])C([H])([H])C([H])([H])C2([H])N([H])C(=O)C1([H])N(C(=O)C([H])(N([H])C(=O)C([H])(N([H])C([H])([H])[H])C([H])([H])[H])C(C([H])([H])[H])(C([H])([H])[H])C([H])([H])[H])C([H])([H])c2c([H])c(OC([H])([H])C3([H])C([H])(N([H])C(=O)N4C([H])([H])C([H])([H])C([H])([H])C([H])(n5nc(-c6c([H])c([H])c(Oc7c([H])c([H])c(F)c([H])c7F)c([H])c6[H])c(C(=O)N([H])[H])c5N([H])[H])C4([H])[H])C4([H])C([H])([H])[N+]3([H])C4([H])[H])c([H])c([H])c2C1([H])[H]

>  <smiles>  (89) 
[H]c1c([H])c([H])c2c(c1[H])C([H])([H])C([H])([H])C([H])([H])C2([H])N([H])C(=O)C1([H])N(C(=O)C([H])(N([H])C(=O)C([H])(N([H])C([H])([H])[H])C([H])([H])[H])C(C([H])([H])[H])(C([H])([H])[H])C([H])([H])[H])C([H])([H])c2c([H])c(OC([H])([H])C3([H])C([H])(N([H])C(=O)N4C([H])([H])C([H])([H])C([H])([H])C([H])(n5nc(-c6c([H])c([H])c(Oc7c([H])c([H])c(F)c([H])c7F)c([H])c6[H])c(C(=O)N([H])[H])c5N([H])[H])C4([H])[H])C4([H])C([H])([H])[N+]3([H])C4([H])[H])c([H])c([H])c2C1([H])[H]

$$$$
89:0:0
     RDKit          3D

 94103  0  0  1  0  0  0  0  0999 V2000
  -30.3940  -20.8320   22.3740 C   0  0  0  0  0  2  0  0  0  0  0  0
  -29.2110  -19.9160   22.0120 C   0  0  0  0  0  2  0  0  0  0  0  0
  -31.7140  -19.8640   20.4810 C   0  0  0  0  0  2  0  0  0  0  0  0
  -30.9830  -21.1460   20.9830 C   0  0  0  0  0  3  0  0  0  0  0  0
  -29.3640  -19.8000   20.4770 C   0  0  0  0  0  3  0  0  0  0  0  0
  -30.5970  -18.8160   20.1070 C   0  0  1  0  0  0  0  0  0  0  0  0
  -29.8090  -21.2070   20.1070 N   0  0  1  0  0  4  0  0  0  0  0  0
  -30.1250  -21.2020   19.1480 H   0  0  0  0  0  0  0  0  0  0  0  0
  -30.6310  -18.5720   18.5780 C   0  0  0  0  0  0  0  0  0  0  0  0
  -31.8520  -17.8790   17.9840 C   0  0  0  0  0  1  0  0  0  0  0  0
  -29.7300  -18.9700   17.8350 O   0  0  0  0  0  0  0  0  0  0  0  0
  -30.8730  -17.3990   20.8900 C   0  0  0  0  0  2  0  0  0  0  0  0
  -31.0000  -14.8820   20.1970 C   0  0  0  0  0  0  0  0  0  0  0  0
  -30.6940  -12.6520   19.1220 C   0  0  0  0  0  2  0  0  0  0  0  0
  -29.7350  -12.7740   17.9200 C   0  0  0  0  0  2  0  0  0  0  0  0
  -28.2710  -12.6250   18.3810 C   0  0  0  0  0  2  0  0  0  0  0  0
  -27.9430  -13.5030   19.6170 C   0  0  0  0  0  3  0  0  0  0  0  0
  -29.0220  -13.3760   20.7140 C   0  0  0  0  0  2  0  0  0  0  0  0
  -30.3140  -13.6970   20.0970 N   0  0  0  0  0  0  0  0  0  0  0  0
  -32.1790  -14.9490   19.8440 O   0  0  0  0  0  0  0  0  0  0  0  0
  -30.3050  -16.0320   20.5200 N   0  0  0  0  0  0  0  0  0  0  0  0
  -29.3230  -15.8950   20.7070 H   0  0  0  0  0  0  0  0  0  0  0  0
  -25.5750  -14.1280   20.3860 C   0  0  0  0  0  0  0  0  0  0  0  0
  -24.5050  -13.3690   20.7720 C   0  0  0  0  0  0  0  0  0  0  0  0
  -24.9480  -12.0120   20.7310 C   0  0  0  0  0  0  0  0  0  0  0  0
  -26.6030  -13.2350   20.1310 N   0  0  0  0  0  0  0  0  0  0  0  0
  -26.2330  -11.9560   20.4010 N   0  0  0  0  0  0  0  0  0  0  0  0
  -24.2050  -10.7590   20.9290 C   0  0  0  0  0  0  0  0  0  0  0  0
  -24.6130   -9.8020   21.8840 C   0  0  0  0  0  3  0  0  0  0  0  0
  -23.8720   -8.6150   22.0690 C   0  0  0  0  0  3  0  0  0  0  0  0
  -22.7090   -8.3770   21.2990 C   0  0  0  0  0  0  0  0  0  0  0  0
  -22.3190   -9.3230   20.3350 C   0  0  0  0  0  3  0  0  0  0  0  0
  -23.0610  -10.5020   20.1480 C   0  0  0  0  0  3  0  0  0  0  0  0
  -21.9400   -7.2420   21.3930 O   0  0  0  0  0  0  0  0  0  0  0  0
  -21.8300   -6.5430   22.5670 C   0  0  0  0  0  0  0  0  0  0  0  0
  -21.3340   -7.1400   23.7470 C   0  0  0  0  0  3  0  0  0  0  0  0
  -21.1720   -6.3660   24.9140 C   0  0  0  0  0  3  0  0  0  0  0  0
  -21.4950   -4.9960   24.9020 C   0  0  0  0  0  0  0  0  0  0  0  0
  -21.9850   -4.3990   23.7270 C   0  0  0  0  0  3  0  0  0  0  0  0
  -22.1490   -5.1690   22.5630 C   0  0  0  0  0  0  0  0  0  0  0  0
  -22.6010   -4.5830   21.4270 F   0  0  0  0  0  0  0  0  0  0  0  0
  -21.3330   -4.2520   26.0210 F   0  0  0  0  0  0  0  0  0  0  0  0
  -23.1190  -13.8660   21.0650 C   0  0  0  0  0  0  0  0  0  0  0  0
  -22.3990  -13.1860   21.9500 N   0  0  0  0  0  0  0  0  0  0  0  0
  -22.6850  -14.8930   20.5450 O   0  0  0  0  0  0  0  0  0  0  0  0
  -22.7630  -12.3560   22.3920 H   0  0  0  0  0  0  0  0  0  0  0  0
  -21.4710  -13.5010   22.1910 H   0  0  0  0  0  0  0  0  0  0  0  0
  -25.7540  -15.4960   20.2070 N   0  0  0  0  0  0  0  0  0  0  0  0
  -24.9900  -16.1540   20.3170 H   0  0  0  0  0  0  0  0  0  0  0  0
  -26.5900  -15.9220   19.8260 H   0  0  0  0  0  0  0  0  0  0  0  0
  -28.8440  -22.4020   20.2360 C   0  0  0  0  0  2  0  0  0  0  0  0
  -29.3830  -23.9230   20.1820 C   0  0  0  0  0  3  0  0  0  0  0  0
  -28.2840  -25.0700   19.9340 C   0  0  0  0  0  3  0  0  0  0  0  0
  -28.5320  -26.5370   20.1020 O   0  0  0  0  0  0  0  0  0  0  0  0
  -24.6630  -31.8510   23.1660 C   0  0  0  0  0  0  0  0  0  0  0  0
  -27.4110  -27.3970   20.0480 C   0  0  0  0  0  0  0  0  0  0  0  0
  -23.5140  -30.4640   21.4790 C   0  0  0  0  0  3  0  0  0  0  0  0
  -25.0170  -28.9820   20.0380 C   0  0  0  0  0  0  0  0  0  0  0  0
  -26.0510  -30.8340   21.3420 C   0  0  0  0  0  2  0  0  0  0  0  0
  -26.1700  -29.4720   20.6640 C   0  0  0  0  0  0  0  0  0  0  0  0
  -27.3710  -28.6940   20.6570 C   0  0  0  0  0  3  0  0  0  0  0  0
  -26.2300  -26.9740   19.3930 C   0  0  0  0  0  3  0  0  0  0  0  0
  -25.0510  -27.7390   19.3910 C   0  0  0  0  0  3  0  0  0  0  0  0
  -23.7620  -29.8290   20.0870 C   0  0  0  0  0  2  0  0  0  0  0  0
  -24.7600  -31.0660   22.0530 N   0  0  0  0  0  0  0  0  0  0  0  0
  -23.5640  -32.0940   23.6890 O   0  0  0  0  0  0  0  0  0  0  0  0
  -22.8590  -29.4120   22.4050 C   0  0  0  0  0  0  0  0  0  0  0  0
  -21.5330  -29.2320   22.2730 N   0  0  0  0  0  0  0  0  0  0  0  0
  -23.5420  -28.7620   23.2000 O   0  0  0  0  0  0  0  0  0  0  0  0
  -21.0410  -29.8100   21.6060 H   0  0  0  0  0  0  0  0  0  0  0  0
  -18.1560  -28.0290   22.7690 C   0  0  0  0  0  0  0  0  0  0  0  0
  -20.7190  -28.2660   23.0130 C   0  0  0  0  0  3  0  0  0  0  0  0
  -20.8050  -26.8600   22.3750 C   0  0  0  0  0  2  0  0  0  0  0  0
  -19.6880  -26.5870   21.3630 C   0  0  0  0  0  2  0  0  0  0  0  0
  -18.3150  -26.7090   22.0320 C   0  0  0  0  0  2  0  0  0  0  0  0
  -19.2840  -28.7660   23.2140 C   0  0  0  0  0  0  0  0  0  0  0  0
  -19.0810  -30.0040   23.8640 C   0  0  0  0  0  3  0  0  0  0  0  0
  -17.7810  -30.5030   24.0710 C   0  0  0  0  0  3  0  0  0  0  0  0
  -16.6670  -29.7620   23.6410 C   0  0  0  0  0  3  0  0  0  0  0  0
  -16.8550  -28.5270   22.9960 C   0  0  0  0  0  3  0  0  0  0  0  0
  -25.9220  -32.4970   23.8210 C   0  0  0  0  0  3  0  0  0  0  0  0
  -25.5830  -33.8870   24.1590 N   0  0  0  0  0  0  0  0  0  0  0  0
  -25.9170  -34.9540   23.4220 C   0  0  0  0  0  0  0  0  0  0  0  0
  -26.6160  -34.8730   22.4080 O   0  0  0  0  0  0  0  0  0  0  0  0
  -24.9650  -34.0210   24.9460 H   0  0  0  0  0  0  0  0  0  0  0  0
  -24.1840  -36.7350   23.0350 C   0  0  0  0  0  1  0  0  0  0  0  0
  -25.4000  -36.3300   23.8830 C   0  0  0  0  0  3  0  0  0  0  0  0
  -27.4880  -37.2280   24.8100 C   0  0  0  0  0  1  0  0  0  0  0  0
  -26.4240  -37.3950   23.8240 N   0  0  0  0  0  0  0  0  0  0  0  0
  -26.0020  -38.3080   23.9650 H   0  0  0  0  0  0  0  0  0  0  0  0
  -26.4210  -31.7200   25.1010 C   0  0  1  0  0  0  0  0  0  0  0  0
  -25.3080  -31.4500   26.1410 C   0  0  0  0  0  1  0  0  0  0  0  0
  -27.0390  -30.3570   24.7090 C   0  0  0  0  0  1  0  0  0  0  0  0
  -27.5410  -32.5280   25.7990 C   0  0  0  0  0  1  0  0  0  0  0  0
  2  1  1  0
  4  3  1  0
  4  1  1  0
  5  2  1  0
  6  5  1  0
  6  3  1  0
  6 12  1  1
  7 51  1  0
  7  5  1  0
  7  4  1  0
  7  8  1  6
  9  6  1  0
 10  9  1  0
 11  9  2  0
 13 21  1  0
 14 19  1  0
 15 16  1  0
 15 14  1  0
 17 16  1  0
 17 26  1  0
 17 18  1  0
 19 13  1  0
 19 18  1  0
 20 13  2  0
 21 22  1  0
 21 12  1  0
 23 24  2  0
 24 43  1  0
 25 24  1  0
 25 28  1  0
 26 23  1  0
 26 27  1  0
 27 25  2  0
 28 29  1  0
 29 30  2  0
 31 34  1  0
 31 30  1  0
 32 31  2  0
 33 32  1  0
 33 28  2  0
 34 35  1  0
 35 36  1  0
 36 37  2  0
 38 37  1  0
 38 42  1  0
 39 38  2  0
 40 35  2  0
 40 39  1  0
 41 40  1  0
 43 44  1  0
 44 47  1  0
 44 46  1  0
 45 43  2  0
 48 49  1  0
 48 23  1  0
 50 48  1  0
 52 51  1  0
 53 54  1  0
 53 52  2  0
 55 66  2  0
 56 54  1  0
 56 61  1  0
 57 65  1  0
 57 67  1  0
 58 64  1  0
 58 60  1  0
 59 65  1  0
 60 59  1  0
 61 60  2  0
 62 56  2  0
 63 62  1  0
 63 58  2  0
 64 57  1  0
 65 55  1  0
 67 69  2  0
 68 67  1  0
 70 68  1  0
 71 80  2  0
 71 76  1  0
 72 68  1  0
 72 76  1  0
 73 72  1  0
 74 75  1  0
 74 73  1  0
 75 71  1  0
 76 77  2  0
 77 78  1  0
 79 78  2  0
 80 79  1  0
 81 55  1  0
 81 82  1  0
 81 91  1  0
 82 85  1  0
 83 87  1  0
 83 82  1  0
 84 83  2  0
 87 86  1  0
 89 87  1  0
 89 90  1  0
 89 88  1  0
 91 94  1  1
 91 92  1  0
 93 91  1  0
M  ISO  4  13 100  21 100  53 101  54 101
M  END
>  <TORSDO>  (90) 
F 21

>  <SCORE>  (90) 
-12.500

>  <name>  (90) 
89

>  <ligand_id>  (90) 
89

>  <original_smiles>  (90) 
[H]c1c([H])c([H])c2c(c1[H])C([H])([H])C([H])([H])C([H])([H])C2([H])N([H])C(=O)C1([H])N(C(=O)C([H])(N([H])C(=O)C([H])(N([H])C([H])([H])[H])C([H])([H])[H])C(C([H])([H])[H])(C([H])([H])[H])C([H])([H])[H])C([H])([H])c2c([H])c(OC([H])([H])C([H])([H])C([H])([H])[N+]3([H])C4([H])C([H])([H])C([H])([H])C3([H])C(C(=O)C([H])([H])[H])(C([H])([H])N([H])C(=O)N3C([H])([H])C([H])([H])C([H])([H])C([H])(n5nc(-c6c([H])c([H])c(Oc7c([H])c([H])c(F)c([H])c7F)c([H])c6[H])c(C(=O)N([H])[H])c5N([H])[H])C3([H])[H])C4([H])[H])c([H])c([H])c2C1([H])[H]

>  <smiles>  (90) 
[H]c1c([H])c([H])c2c(c1[H])C([H])([H])C([H])([H])C([H])([H])C2([H])N([H])C(=O)C1([H])N(C(=O)C([H])(N([H])C(=O)C([H])(N([H])C([H])([H])[H])C([H])([H])[H])C(C([H])([H])[H])(C([H])([H])[H])C([H])([H])[H])C([H])([H])c2c([H])c(OC([H])([H])C([H])([H])C([H])([H])[N+]3([H])C4([H])C([H])([H])C([H])([H])C3([H])C(C(=O)C([H])([H])[H])(C([H])([H])N([H])C(=O)N3C([H])([H])C([H])([H])C([H])([H])C([H])(n5nc(-c6c([H])c([H])c(Oc7c([H])c([H])c(F)c([H])c7F)c([H])c6[H])c(C(=O)N([H])[H])c5N([H])[H])C3([H])[H])C4([H])[H])c([H])c([H])c2C1([H])[H]

$$$$
90:0:0
     RDKit          3D

 92101  0  0  1  0  0  0  0  0999 V2000
  -29.3000  -21.1520   20.1840 N   0  0  0  0  0  4  0  0  0  0  0  0
  -28.5110  -20.9340   19.5960 H   0  0  0  0  0  0  0  0  0  0  0  0
  -30.0700  -21.3720   19.5710 H   0  0  0  0  0  0  0  0  0  0  0  0
  -29.6550  -19.8830   20.9670 C   0  0  0  0  0  2  0  0  0  0  0  0
  -28.1060  -17.1780   18.4170 C   0  0  0  0  0  2  0  0  0  0  0  0
  -30.3940  -18.4380   18.8420 C   0  0  0  0  0  2  0  0  0  0  0  0
  -29.0720  -18.2970   18.1320 C   0  0  0  0  0  3  0  0  0  0  0  0
  -28.3630  -18.2360   19.4730 C   0  0  0  0  0  3  0  0  0  0  0  0
  -29.6880  -18.4550   20.2030 C   0  0  2  0  0  0  0  0  0  0  0  0
  -30.0770  -17.2250   21.1610 C   0  0  0  0  0  2  0  0  0  0  0  0
  -30.5630  -14.7170   20.4720 C   0  0  0  0  0  0  0  0  0  0  0  0
  -30.3750  -12.4830   19.3720 C   0  0  0  0  0  2  0  0  0  0  0  0
  -29.4480  -12.5880   18.1440 C   0  0  0  0  0  2  0  0  0  0  0  0
  -27.9680  -12.4260   18.5480 C   0  0  0  0  0  2  0  0  0  0  0  0
  -27.5850  -13.2860   19.7800 C   0  0  0  0  0  3  0  0  0  0  0  0
  -28.6240  -13.1480   20.9100 C   0  0  0  0  0  2  0  0  0  0  0  0
  -29.9350  -13.5030   20.3470 N   0  0  0  0  0  0  0  0  0  0  0  0
  -31.7470  -14.8600   20.1580 O   0  0  0  0  0  0  0  0  0  0  0  0
  -29.7650  -15.7910   20.7850 N   0  0  0  0  0  0  0  0  0  0  0  0
  -28.7960  -15.5420   20.9110 H   0  0  0  0  0  0  0  0  0  0  0  0
  -25.1790  -13.8810   20.4500 C   0  0  0  0  0  0  0  0  0  0  0  0
  -24.1110  -13.1080   20.8120 C   0  0  0  0  0  0  0  0  0  0  0  0
  -24.5800  -11.7580   20.8070 C   0  0  0  0  0  0  0  0  0  0  0  0
  -26.2300  -13.0040   20.2440 N   0  0  0  0  0  0  0  0  0  0  0  0
  -25.8760  -11.7230   20.5240 N   0  0  0  0  0  0  0  0  0  0  0  0
  -23.8570  -10.4940   21.0000 C   0  0  0  0  0  0  0  0  0  0  0  0
  -24.2750   -9.5440   21.9590 C   0  0  0  0  0  3  0  0  0  0  0  0
  -23.5520   -8.3430   22.1380 C   0  0  0  0  0  3  0  0  0  0  0  0
  -22.3970   -8.0870   21.3610 C   0  0  0  0  0  0  0  0  0  0  0  0
  -21.9990   -9.0280   20.3940 C   0  0  0  0  0  3  0  0  0  0  0  0
  -22.7220  -10.2180   20.2120 C   0  0  0  0  0  3  0  0  0  0  0  0
  -21.6470   -6.9410   21.4520 O   0  0  0  0  0  0  0  0  0  0  0  0
  -21.5760   -6.2160   22.6140 C   0  0  0  0  0  0  0  0  0  0  0  0
  -21.1060   -6.7830   23.8180 C   0  0  0  0  0  3  0  0  0  0  0  0
  -20.9830   -5.9830   24.9710 C   0  0  0  0  0  3  0  0  0  0  0  0
  -21.3180   -4.6170   24.9210 C   0  0  0  0  0  0  0  0  0  0  0  0
  -21.7810   -4.0490   23.7200 C   0  0  0  0  0  3  0  0  0  0  0  0
  -21.9070   -4.8460   22.5700 C   0  0  0  0  0  0  0  0  0  0  0  0
  -22.3320   -4.2890   21.4100 F   0  0  0  0  0  0  0  0  0  0  0  0
  -21.1920   -3.8460   26.0270 F   0  0  0  0  0  0  0  0  0  0  0  0
  -22.7040  -13.5790   21.0480 C   0  0  0  0  0  0  0  0  0  0  0  0
  -21.9630  -12.8910   21.9080 N   0  0  0  0  0  0  0  0  0  0  0  0
  -22.2730  -14.5980   20.5080 O   0  0  0  0  0  0  0  0  0  0  0  0
  -22.3240  -12.0690   22.3700 H   0  0  0  0  0  0  0  0  0  0  0  0
  -21.0180  -13.1870   22.1100 H   0  0  0  0  0  0  0  0  0  0  0  0
  -25.3400  -15.2500   20.2510 N   0  0  0  0  0  0  0  0  0  0  0  0
  -24.5650  -15.9000   20.3360 H   0  0  0  0  0  0  0  0  0  0  0  0
  -26.1810  -15.6820   19.8950 H   0  0  0  0  0  0  0  0  0  0  0  0
  -28.9220  -22.4170   20.9610 C   0  0  0  0  0  2  0  0  0  0  0  0
  -28.9870  -23.8500   20.2140 C   0  0  0  0  0  3  0  0  0  0  0  0
  -28.1340  -25.0810   20.8120 C   0  0  0  0  0  3  0  0  0  0  0  0
  -28.3510  -26.4720   20.3060 O   0  0  0  0  0  0  0  0  0  0  0  0
  -24.6000  -31.9140   23.2620 C   0  0  0  0  0  0  0  0  0  0  0  0
  -27.2480  -27.3400   20.2500 C   0  0  0  0  0  0  0  0  0  0  0  0
  -23.4200  -30.5110   21.6060 C   0  0  0  0  0  3  0  0  0  0  0  0
  -24.8890  -28.9670   20.1860 C   0  0  0  0  0  0  0  0  0  0  0  0
  -25.9600  -30.8270   21.4580 C   0  0  0  0  0  2  0  0  0  0  0  0
  -26.0490  -29.4480   20.8120 C   0  0  0  0  0  0  0  0  0  0  0  0
  -27.2280  -28.6460   20.8330 C   0  0  0  0  0  3  0  0  0  0  0  0
  -26.0810  -26.9270   19.5710 C   0  0  0  0  0  3  0  0  0  0  0  0
  -24.9120  -27.7150   19.5500 C   0  0  0  0  0  3  0  0  0  0  0  0
  -23.6520  -29.8430   20.2230 C   0  0  0  0  0  2  0  0  0  0  0  0
  -24.6780  -31.1020   22.1640 N   0  0  0  0  0  0  0  0  0  0  0  0
  -23.5100  -32.1890   23.7850 O   0  0  0  0  0  0  0  0  0  0  0  0
  -22.7480  -29.4930   22.5610 C   0  0  0  0  0  0  0  0  0  0  0  0
  -21.4280  -29.2960   22.4030 N   0  0  0  0  0  0  0  0  0  0  0  0
  -23.4160  -28.8850   23.4000 O   0  0  0  0  0  0  0  0  0  0  0  0
  -20.9490  -29.8360   21.6960 H   0  0  0  0  0  0  0  0  0  0  0  0
  -18.0620  -28.0460   22.8350 C   0  0  0  0  0  0  0  0  0  0  0  0
  -20.6060  -28.3550   23.1650 C   0  0  0  0  0  3  0  0  0  0  0  0
  -20.7500  -26.9190   22.6080 C   0  0  0  0  0  2  0  0  0  0  0  0
  -19.6790  -26.5640   21.5720 C   0  0  0  0  0  2  0  0  0  0  0  0
  -18.2790  -26.6940   22.1800 C   0  0  0  0  0  2  0  0  0  0  0  0
  -19.1550  -28.8330   23.2840 C   0  0  0  0  0  0  0  0  0  0  0  0
  -18.9010  -30.0980   23.8560 C   0  0  0  0  0  3  0  0  0  0  0  0
  -17.5840  -30.5760   23.9860 C   0  0  0  0  0  3  0  0  0  0  0  0
  -16.5030  -29.7850   23.5540 C   0  0  0  0  0  3  0  0  0  0  0  0
  -16.7430  -28.5230   22.9840 C   0  0  0  0  0  3  0  0  0  0  0  0
  -25.8760  -32.5500   23.8950 C   0  0  0  0  0  3  0  0  0  0  0  0
  -25.5690  -33.9540   24.2100 N   0  0  0  0  0  0  0  0  0  0  0  0
  -25.9040  -34.9990   23.4420 C   0  0  0  0  0  0  0  0  0  0  0  0
  -26.5800  -34.8820   22.4160 O   0  0  0  0  0  0  0  0  0  0  0  0
  -24.9840  -34.1200   25.0160 H   0  0  0  0  0  0  0  0  0  0  0  0
  -24.1840  -36.7880   23.0470 C   0  0  0  0  0  1  0  0  0  0  0  0
  -25.4140  -36.3930   23.8810 C   0  0  0  0  0  3  0  0  0  0  0  0
  -27.5380  -37.2800   24.7310 C   0  0  0  0  0  1  0  0  0  0  0  0
  -26.4510  -37.4410   23.7710 N   0  0  0  0  0  0  0  0  0  0  0  0
  -26.0460  -38.3630   23.9020 H   0  0  0  0  0  0  0  0  0  0  0  0
  -26.3720  -31.7920   25.1870 C   0  0  1  0  0  0  0  0  0  0  0  0
  -25.2660  -31.5680   26.2430 C   0  0  0  0  0  1  0  0  0  0  0  0
  -26.9560  -30.4080   24.8200 C   0  0  0  0  0  1  0  0  0  0  0  0
  -27.5170  -32.5890   25.8540 C   0  0  0  0  0  1  0  0  0  0  0  0
  1 49  1  0
  1  4  1  0
  2  1  1  0
  3  1  1  0
  6  9  1  0
  7  5  1  0
  7  6  1  0
  7  8  1  0
  8  5  1  0
  8  9  1  0
  9  4  1  1
  9 10  1  0
 11 19  1  0
 12 17  1  0
 13 14  1  0
 13 12  1  0
 15 14  1  0
 15 24  1  0
 15 16  1  0
 17 11  1  0
 17 16  1  0
 18 11  2  0
 19 20  1  0
 19 10  1  0
 21 22  2  0
 22 41  1  0
 23 22  1  0
 23 26  1  0
 24 21  1  0
 24 25  1  0
 25 23  2  0
 26 27  1  0
 27 28  2  0
 29 32  1  0
 29 28  1  0
 30 29  2  0
 31 30  1  0
 31 26  2  0
 32 33  1  0
 33 34  1  0
 34 35  2  0
 36 35  1  0
 36 40  1  0
 37 36  2  0
 38 33  2  0
 38 37  1  0
 39 38  1  0
 41 42  1  0
 42 45  1  0
 42 44  1  0
 43 41  2  0
 46 47  1  0
 46 21  1  0
 48 46  1  0
 50 51  2  0
 50 49  1  0
 52 51  1  0
 53 64  2  0
 54 52  1  0
 54 59  1  0
 55 63  1  0
 55 65  1  0
 56 62  1  0
 56 58  1  0
 57 63  1  0
 58 59  2  0
 58 57  1  0
 60 54  2  0
 61 60  1  0
 61 56  2  0
 62 55  1  0
 63 53  1  0
 65 67  2  0
 66 65  1  0
 68 66  1  0
 69 78  2  0
 69 74  1  0
 70 66  1  0
 70 74  1  0
 71 70  1  0
 72 73  1  0
 72 71  1  0
 73 69  1  0
 74 75  2  0
 75 76  1  0
 77 76  2  0
 78 77  1  0
 79 53  1  0
 79 80  1  0
 79 89  1  0
 80 83  1  0
 81 85  1  0
 81 80  1  0
 82 81  2  0
 85 84  1  0
 87 85  1  0
 87 88  1  0
 87 86  1  0
 89 92  1  1
 89 90  1  0
 91 89  1  0
M  ISO  4  11 100  19 100  51 101  52 101
M  END
>  <TORSDO>  (91) 
F 22

>  <SCORE>  (91) 
-13.195

>  <name>  (91) 
90

>  <ligand_id>  (91) 
90

>  <original_smiles>  (91) 
[H]c1c([H])c([H])c2c(c1[H])C([H])([H])C([H])([H])C([H])([H])C2([H])N([H])C(=O)C1([H])N(C(=O)C([H])(N([H])C(=O)C([H])(N([H])C([H])([H])[H])C([H])([H])[H])C(C([H])([H])[H])(C([H])([H])[H])C([H])([H])[H])C([H])([H])c2c([H])c(OC([H])([H])C([H])([H])C([H])([H])[N+]([H])([H])C([H])([H])C3(C([H])([H])N([H])C(=O)N4C([H])([H])C([H])([H])C([H])([H])C([H])(n5nc(-c6c([H])c([H])c(Oc7c([H])c([H])c(F)c([H])c7F)c([H])c6[H])c(C(=O)N([H])[H])c5N([H])[H])C4([H])[H])C([H])([H])C4([H])C([H])([H])C43[H])c([H])c([H])c2C1([H])[H]

>  <smiles>  (91) 
[H]c1c([H])c([H])c2c(c1[H])C([H])([H])C([H])([H])C([H])([H])C2([H])N([H])C(=O)C1([H])N(C(=O)C([H])(N([H])C(=O)C([H])(N([H])C([H])([H])[H])C([H])([H])[H])C(C([H])([H])[H])(C([H])([H])[H])C([H])([H])[H])C([H])([H])c2c([H])c(OC([H])([H])C([H])([H])C([H])([H])[N+]([H])([H])C([H])([H])C3(C([H])([H])N([H])C(=O)N4C([H])([H])C([H])([H])C([H])([H])C([H])(n5nc(-c6c([H])c([H])c(Oc7c([H])c([H])c(F)c([H])c7F)c([H])c6[H])c(C(=O)N([H])[H])c5N([H])[H])C4([H])[H])C([H])([H])C4([H])C([H])([H])C43[H])c([H])c([H])c2C1([H])[H]

$$$$
91:0:0
     RDKit          3D

 92102  0  0  1  0  0  0  0  0999 V2000
  -27.9440  -23.3920   20.6750 C   0  0  0  0  0  0  0  0  0  0  0  0
  -28.3210  -22.1730   21.0930 N   0  0  0  0  0  0  0  0  0  0  0  0
  -26.8220  -23.6200   20.2220 O   0  0  0  0  0  0  0  0  0  0  0  0
  -29.2560  -22.1030   21.4750 H   0  0  0  0  0  0  0  0  0  0  0  0
  -29.0020  -24.5070   20.7580 C   0  0  0  0  0  2  0  0  0  0  0  0
  -28.4860  -25.8930   21.2130 C   0  0  0  0  0  2  0  0  0  0  0  0
  -28.3930  -26.8100   20.1160 O   0  0  0  0  0  0  0  0  0  0  0  0
  -24.5720  -31.9330   23.2500 C   0  0  0  0  0  0  0  0  0  0  0  0
  -27.2460  -27.5560   20.1270 C   0  0  0  0  0  0  0  0  0  0  0  0
  -23.3740  -30.5290   21.6000 C   0  0  0  0  0  3  0  0  0  0  0  0
  -24.8400  -29.0200   20.1590 C   0  0  0  0  0  0  0  0  0  0  0  0
  -25.8930  -30.9240   21.3950 C   0  0  0  0  0  2  0  0  0  0  0  0
  -25.9920  -29.5570   20.7490 C   0  0  0  0  0  0  0  0  0  0  0  0
  -27.2020  -28.8290   20.7360 C   0  0  0  0  0  3  0  0  0  0  0  0
  -26.0850  -27.0270   19.5290 C   0  0  0  0  0  3  0  0  0  0  0  0
  -24.8790  -27.7530   19.5470 C   0  0  0  0  0  3  0  0  0  0  0  0
  -23.5860  -29.8630   20.2130 C   0  0  0  0  0  2  0  0  0  0  0  0
  -24.6310  -31.1410   22.1420 N   0  0  0  0  0  0  0  0  0  0  0  0
  -23.4900  -32.1920   23.7960 O   0  0  0  0  0  0  0  0  0  0  0  0
  -22.7380  -29.4920   22.5520 C   0  0  0  0  0  0  0  0  0  0  0  0
  -21.4150  -29.3040   22.4320 N   0  0  0  0  0  0  0  0  0  0  0  0
  -23.4310  -28.8620   23.3550 O   0  0  0  0  0  0  0  0  0  0  0  0
  -20.9190  -29.8660   21.7550 H   0  0  0  0  0  0  0  0  0  0  0  0
  -18.0450  -28.1050   22.9480 C   0  0  0  0  0  0  0  0  0  0  0  0
  -20.6040  -28.3580   23.1980 C   0  0  0  0  0  3  0  0  0  0  0  0
  -20.7010  -26.9340   22.6030 C   0  0  0  0  0  2  0  0  0  0  0  0
  -19.5890  -26.6240   21.5950 C   0  0  0  0  0  2  0  0  0  0  0  0
  -18.2150  -26.7650   22.2540 C   0  0  0  0  0  2  0  0  0  0  0  0
  -19.1680  -28.8600   23.3780 C   0  0  0  0  0  0  0  0  0  0  0  0
  -18.9570  -30.1140   23.9890 C   0  0  0  0  0  3  0  0  0  0  0  0
  -17.6560  -30.6170   24.1730 C   0  0  0  0  0  3  0  0  0  0  0  0
  -16.5480  -29.8570   23.7600 C   0  0  0  0  0  3  0  0  0  0  0  0
  -16.7420  -28.6030   23.1540 C   0  0  0  0  0  3  0  0  0  0  0  0
  -25.8560  -32.5700   23.8700 C   0  0  0  0  0  3  0  0  0  0  0  0
  -25.5430  -33.9680   24.1900 N   0  0  0  0  0  0  0  0  0  0  0  0
  -25.8840  -35.0150   23.4270 C   0  0  0  0  0  0  0  0  0  0  0  0
  -26.5660  -34.9060   22.4050 O   0  0  0  0  0  0  0  0  0  0  0  0
  -24.9440  -34.1290   24.9870 H   0  0  0  0  0  0  0  0  0  0  0  0
  -24.1650  -36.8060   23.0320 C   0  0  0  0  0  1  0  0  0  0  0  0
  -25.3910  -36.4060   23.8690 C   0  0  0  0  0  3  0  0  0  0  0  0
  -27.5110  -37.2890   24.7380 C   0  0  0  0  0  1  0  0  0  0  0  0
  -26.4280  -37.4570   23.7720 N   0  0  0  0  0  0  0  0  0  0  0  0
  -26.0220  -38.3790   23.9100 H   0  0  0  0  0  0  0  0  0  0  0  0
  -26.3720  -31.8050   25.1490 C   0  0  1  0  0  0  0  0  0  0  0  0
  -25.2760  -31.5680   26.2150 C   0  0  0  0  0  1  0  0  0  0  0  0
  -26.9600  -30.4300   24.7610 C   0  0  0  0  0  1  0  0  0  0  0  0
  -27.5200  -32.6040   25.8100 C   0  0  0  0  0  1  0  0  0  0  0  0
  -27.5790  -20.9080   21.0050 C   0  0  0  0  0  2  0  0  0  0  0  0
  -28.2410  -19.9630   19.9760 C   0  0  0  0  0  2  0  0  0  0  0  0
  -28.4610  -18.4760   20.3960 C   0  0  0  0  0  2  0  0  0  0  0  0
  -31.0080  -14.5140   20.4470 C   0  0  0  0  0  0  0  0  0  0  0  0
  -30.6440  -12.3220   19.4080 C   0  0  0  0  0  2  0  0  0  0  0  0
  -29.7580  -12.5050   18.1620 C   0  0  0  0  0  2  0  0  0  0  0  0
  -28.2700  -12.4000   18.5500 C   0  0  0  0  0  2  0  0  0  0  0  0
  -27.8960  -13.2840   19.7690 C   0  0  0  0  0  3  0  0  0  0  0  0
  -28.9230  -13.1510   20.9160 C   0  0  0  0  0  2  0  0  0  0  0  0
  -30.2590  -13.3830   20.3530 N   0  0  0  0  0  0  0  0  0  0  0  0
  -32.2150  -14.5070   20.1890 O   0  0  0  0  0  0  0  0  0  0  0  0
  -31.3460  -17.1030   18.8350 C   0  0  0  0  0  2  0  0  0  0  0  0
  -31.0320  -16.8160   21.2700 C   0  0  0  0  0  2  0  0  0  0  0  0
  -31.0100  -17.8320   20.1390 C   0  0  1  0  0  0  0  0  0  0  0  0
  -29.6000  -17.8970   19.5400 C   0  0  0  0  0  3  0  0  0  0  0  0
  -30.0300  -16.4070   19.3100 C   0  0  1  0  0  0  0  0  0  0  0  0
  -30.3600  -15.7080   20.5770 N   0  0  0  0  0  0  0  0  0  0  0  0
  -25.4880  -13.9050   20.4140 C   0  0  0  0  0  0  0  0  0  0  0  0
  -24.4090  -13.1440   20.7750 C   0  0  0  0  0  0  0  0  0  0  0  0
  -24.8670  -11.7900   20.7810 C   0  0  0  0  0  0  0  0  0  0  0  0
  -26.5340  -13.0160   20.2260 N   0  0  0  0  0  0  0  0  0  0  0  0
  -26.1640  -11.7390   20.5070 N   0  0  0  0  0  0  0  0  0  0  0  0
  -24.1290  -10.5330   20.9740 C   0  0  0  0  0  0  0  0  0  0  0  0
  -24.5220   -9.5890   21.9470 C   0  0  0  0  0  3  0  0  0  0  0  0
  -23.7840   -8.3980   22.1270 C   0  0  0  0  0  3  0  0  0  0  0  0
  -22.6380   -8.1460   21.3340 C   0  0  0  0  0  0  0  0  0  0  0  0
  -22.2680   -9.0810   20.3510 C   0  0  0  0  0  3  0  0  0  0  0  0
  -23.0060  -10.2610   20.1670 C   0  0  0  0  0  3  0  0  0  0  0  0
  -21.8760   -7.0060   21.4210 O   0  0  0  0  0  0  0  0  0  0  0  0
  -21.7660   -6.3020   22.5930 C   0  0  0  0  0  0  0  0  0  0  0  0
  -21.2750   -6.8950   23.7780 C   0  0  0  0  0  3  0  0  0  0  0  0
  -21.1060   -6.1140   24.9380 C   0  0  0  0  0  3  0  0  0  0  0  0
  -21.4250   -4.7420   24.9180 C   0  0  0  0  0  0  0  0  0  0  0  0
  -21.9160   -4.1520   23.7380 C   0  0  0  0  0  3  0  0  0  0  0  0
  -22.0820   -4.9290   22.5790 C   0  0  0  0  0  0  0  0  0  0  0  0
  -22.5310   -4.3490   21.4400 F   0  0  0  0  0  0  0  0  0  0  0  0
  -21.2600   -3.9910   26.0290 F   0  0  0  0  0  0  0  0  0  0  0  0
  -23.0080  -13.6320   21.0030 C   0  0  0  0  0  0  0  0  0  0  0  0
  -22.2570  -12.9550   21.8650 N   0  0  0  0  0  0  0  0  0  0  0  0
  -22.5840  -14.6490   20.4520 O   0  0  0  0  0  0  0  0  0  0  0  0
  -22.6120  -12.1340   22.3330 H   0  0  0  0  0  0  0  0  0  0  0  0
  -21.3130  -13.2600   22.0500 H   0  0  0  0  0  0  0  0  0  0  0  0
  -25.6640  -15.2690   20.2050 N   0  0  0  0  0  0  0  0  0  0  0  0
  -24.8900  -15.9220   20.2710 H   0  0  0  0  0  0  0  0  0  0  0  0
  -26.5180  -15.6930   19.8650 H   0  0  0  0  0  0  0  0  0  0  0  0
  1  5  1  0
  1  2  1  0
  2  4  1  0
  3  1  2  0
  5  6  1  0
  7  9  1  0
  7  6  1  0
  8 19  2  0
  9 14  1  0
 10 18  1  0
 10 20  1  0
 11 17  1  0
 11 13  1  0
 12 18  1  0
 13 12  1  0
 14 13  2  0
 15 16  1  0
 15  9  2  0
 16 11  2  0
 17 10  1  0
 18  8  1  0
 20 22  2  0
 21 20  1  0
 23 21  1  0
 24 33  2  0
 24 29  1  0
 25 21  1  0
 25 29  1  0
 26 25  1  0
 27 28  1  0
 27 26  1  0
 28 24  1  0
 29 30  2  0
 30 31  1  0
 32 31  2  0
 33 32  1  0
 34  8  1  0
 34 35  1  0
 34 44  1  0
 35 38  1  0
 36 40  1  0
 36 35  1  0
 37 36  2  0
 40 39  1  0
 42 40  1  0
 42 43  1  0
 42 41  1  0
 44 47  1  1
 44 45  1  0
 46 44  1  0
 48  2  1  0
 49 50  1  0
 49 48  1  0
 51 64  1  0
 52 57  1  0
 53 54  1  0
 53 52  1  0
 55 54  1  0
 55 68  1  0
 55 56  1  0
 57 51  1  0
 57 56  1  0
 58 51  2  0
 61 59  1  1
 61 60  1  0
 62 61  1  0
 62 50  1  0
 63 59  1  6
 63 62  1  0
 63 61  1  0
 63 64  1  0
 64 60  1  0
 65 66  2  0
 66 67  1  0
 66 85  1  0
 67 70  1  0
 68 65  1  0
 68 69  1  0
 69 67  2  0
 70 71  1  0
 71 72  2  0
 73 76  1  0
 73 72  1  0
 74 73  2  0
 75 74  1  0
 75 70  2  0
 76 77  1  0
 77 78  1  0
 78 79  2  0
 80 79  1  0
 80 84  1  0
 81 80  2  0
 82 77  2  0
 82 81  1  0
 83 82  1  0
 85 86  1  0
 86 89  1  0
 86 88  1  0
 87 85  2  0
 90 91  1  0
 90 65  1  0
 92 90  1  0
M  ISO  4   6 101   7 101  51 100  64 100
M  END
>  <TORSDO>  (92) 
F 21

>  <SCORE>  (92) 
-13.082

>  <name>  (92) 
91

>  <ligand_id>  (92) 
91

>  <original_smiles>  (92) 
[H]c1c([H])c([H])c2c(c1[H])C([H])([H])C([H])([H])C([H])([H])C2([H])N([H])C(=O)C1([H])N(C(=O)C([H])(N([H])C(=O)C([H])(N([H])C([H])([H])[H])C([H])([H])[H])C(C([H])([H])[H])(C([H])([H])[H])C([H])([H])[H])C([H])([H])c2c([H])c(OC([H])([H])C([H])([H])C(=O)N([H])C([H])([H])C([H])([H])C([H])([H])C3([H])C4([H])N(C(=O)N5C([H])([H])C([H])([H])C([H])([H])C([H])(n6nc(-c7c([H])c([H])c(Oc8c([H])c([H])c(F)c([H])c8F)c([H])c7[H])c(C(=O)N([H])[H])c6N([H])[H])C5([H])[H])C([H])([H])C3([H])C4([H])[H])c([H])c([H])c2C1([H])[H]

>  <smiles>  (92) 
[H]c1c([H])c([H])c2c(c1[H])C([H])([H])C([H])([H])C([H])([H])C2([H])N([H])C(=O)C1([H])N(C(=O)C([H])(N([H])C(=O)C([H])(N([H])C([H])([H])[H])C([H])([H])[H])C(C([H])([H])[H])(C([H])([H])[H])C([H])([H])[H])C([H])([H])c2c([H])c(OC([H])([H])C([H])([H])C(=O)N([H])C([H])([H])C([H])([H])C([H])([H])C3([H])C4([H])N(C(=O)N5C([H])([H])C([H])([H])C([H])([H])C([H])(n6nc(-c7c([H])c([H])c(Oc8c([H])c([H])c(F)c([H])c8F)c([H])c7[H])c(C(=O)N([H])[H])c6N([H])[H])C5([H])[H])C([H])([H])C3([H])C4([H])[H])c([H])c([H])c2C1([H])[H]

$$$$
92:0:0
     RDKit          3D

 90 99  0  0  1  0  0  0  0  0999 V2000
  -29.5530  -22.0040   20.0450 C   0  0  0  0  0  0  0  0  0  0  0  0
  -30.7140  -22.3200   20.3210 O   0  0  0  0  0  0  0  0  0  0  0  0
  -30.1310  -18.9540   18.1670 C   0  0  0  0  0  2  0  0  0  0  0  0
  -27.9430  -20.1220   19.0340 C   0  0  0  0  0  2  0  0  0  0  0  0
  -29.1770  -20.1230   18.1740 C   0  0  0  0  0  3  0  0  0  0  0  0
  -30.4060  -19.1420   19.6440 C   0  0  0  0  0  3  0  0  0  0  0  0
  -29.2880  -20.3950   19.6740 C   0  0  2  0  0  0  0  0  0  0  0  0
  -32.1060  -17.7660   21.0100 C   0  0  0  0  0  1  0  0  0  0  0  0
  -30.6040  -17.7640   20.6220 C   0  0  0  0  0  3  0  0  0  0  0  0
  -30.7160  -14.9780   20.0440 C   0  0  0  0  0  0  0  0  0  0  0  0
  -30.4390  -12.7040   18.9190 C   0  0  0  0  0  2  0  0  0  0  0  0
  -29.4180  -12.6590   17.7580 C   0  0  0  0  0  2  0  0  0  0  0  0
  -27.9810  -12.4370   18.2540 C   0  0  0  0  0  2  0  0  0  0  0  0
  -27.6540  -13.3230   19.4800 C   0  0  0  0  0  3  0  0  0  0  0  0
  -28.7570  -13.2420   20.5370 C   0  0  0  0  0  2  0  0  0  0  0  0
  -30.0260  -13.7430   19.9280 N   0  0  0  0  0  0  0  0  0  0  0  0
  -31.8620  -14.9910   19.5690 O   0  0  0  0  0  0  0  0  0  0  0  0
  -29.4470  -16.0040   21.8290 C   0  0  0  0  0  1  0  0  0  0  0  0
  -30.1270  -16.2100   20.5330 N   0  0  0  0  0  0  0  0  0  0  0  0
  -25.3300  -13.9250   20.3950 C   0  0  0  0  0  0  0  0  0  0  0  0
  -24.2810  -13.1440   20.8250 C   0  0  0  0  0  0  0  0  0  0  0  0
  -24.7470  -11.7980   20.7490 C   0  0  0  0  0  0  0  0  0  0  0  0
  -26.3470  -13.0410   20.0600 N   0  0  0  0  0  0  0  0  0  0  0  0
  -26.0120  -11.7600   20.3480 N   0  0  0  0  0  0  0  0  0  0  0  0
  -24.0320  -10.5250   20.9600 C   0  0  0  0  0  0  0  0  0  0  0  0
  -24.4900   -9.5520   21.8740 C   0  0  0  0  0  3  0  0  0  0  0  0
  -23.7650   -8.3540   22.0710 C   0  0  0  0  0  3  0  0  0  0  0  0
  -22.5750   -8.1240   21.3440 C   0  0  0  0  0  0  0  0  0  0  0  0
  -22.1420   -9.0770   20.4060 C   0  0  0  0  0  3  0  0  0  0  0  0
  -22.8650  -10.2660   20.2080 C   0  0  0  0  0  3  0  0  0  0  0  0
  -21.8120   -6.9920   21.4490 O   0  0  0  0  0  0  0  0  0  0  0  0
  -21.7550   -6.2680   22.6130 C   0  0  0  0  0  0  0  0  0  0  0  0
  -21.3230   -6.8430   23.8320 C   0  0  0  0  0  3  0  0  0  0  0  0
  -21.2250   -6.0410   24.9890 C   0  0  0  0  0  3  0  0  0  0  0  0
  -21.5410   -4.6710   24.9270 C   0  0  0  0  0  0  0  0  0  0  0  0
  -21.9450   -4.0970   23.7120 C   0  0  0  0  0  3  0  0  0  0  0  0
  -22.0530   -4.8910   22.5610 C   0  0  0  0  0  0  0  0  0  0  0  0
  -22.4350   -4.3250   21.3900 F   0  0  0  0  0  0  0  0  0  0  0  0
  -21.4310   -3.9070   26.0390 F   0  0  0  0  0  0  0  0  0  0  0  0
  -22.9020  -13.6140   21.1820 C   0  0  0  0  0  0  0  0  0  0  0  0
  -22.2270  -12.9070   22.0880 N   0  0  0  0  0  0  0  0  0  0  0  0
  -22.4350  -14.6470   20.7040 O   0  0  0  0  0  0  0  0  0  0  0  0
  -22.6180  -12.0760   22.4980 H   0  0  0  0  0  0  0  0  0  0  0  0
  -21.2980  -13.2010   22.3720 H   0  0  0  0  0  0  0  0  0  0  0  0
  -25.4810  -15.2960   20.2290 N   0  0  0  0  0  0  0  0  0  0  0  0
  -24.7300  -15.9600   20.3660 H   0  0  0  0  0  0  0  0  0  0  0  0
  -26.3410  -15.7420   19.9310 H   0  0  0  0  0  0  0  0  0  0  0  0
  -28.4220  -23.2340   20.1480 C   0  0  0  0  0  2  0  0  0  0  0  0
  -28.5250  -24.8370   19.5990 C   0  0  0  0  0  2  0  0  0  0  0  0
  -28.3140  -26.2310   20.2830 O   0  0  0  0  0  0  0  0  0  0  0  0
  -24.6170  -31.8780   23.2260 C   0  0  0  0  0  0  0  0  0  0  0  0
  -27.2190  -27.1690   20.1660 C   0  0  0  0  0  0  0  0  0  0  0  0
  -23.4080  -30.4610   21.6010 C   0  0  0  0  0  3  0  0  0  0  0  0
  -24.8600  -28.8780   20.1740 C   0  0  0  0  0  0  0  0  0  0  0  0
  -25.9580  -30.7400   21.4170 C   0  0  0  0  0  2  0  0  0  0  0  0
  -26.0390  -29.3450   20.7670 C   0  0  0  0  0  0  0  0  0  0  0  0
  -27.2080  -28.5000   20.7560 C   0  0  0  0  0  3  0  0  0  0  0  0
  -26.0160  -26.8020   19.5300 C   0  0  0  0  0  3  0  0  0  0  0  0
  -24.8570  -27.6220   19.5500 C   0  0  0  0  0  3  0  0  0  0  0  0
  -23.6270  -29.7660   20.2280 C   0  0  0  0  0  2  0  0  0  0  0  0
  -24.6800  -31.0550   22.1370 N   0  0  0  0  0  0  0  0  0  0  0  0
  -23.5340  -32.1640   23.7550 O   0  0  0  0  0  0  0  0  0  0  0  0
  -22.7390  -29.4690   22.5750 C   0  0  0  0  0  0  0  0  0  0  0  0
  -21.4110  -29.2940   22.4580 N   0  0  0  0  0  0  0  0  0  0  0  0
  -23.4150  -28.8580   23.4060 O   0  0  0  0  0  0  0  0  0  0  0  0
  -20.9220  -29.8430   21.7660 H   0  0  0  0  0  0  0  0  0  0  0  0
  -18.0390  -28.0610   22.9570 C   0  0  0  0  0  0  0  0  0  0  0  0
  -20.5980  -28.3560   23.2320 C   0  0  0  0  0  3  0  0  0  0  0  0
  -20.7160  -26.9180   22.6750 C   0  0  0  0  0  2  0  0  0  0  0  0
  -19.6240  -26.5710   21.6590 C   0  0  0  0  0  2  0  0  0  0  0  0
  -18.2380  -26.7050   22.2950 C   0  0  0  0  0  2  0  0  0  0  0  0
  -19.1490  -28.8430   23.3820 C   0  0  0  0  0  0  0  0  0  0  0  0
  -18.9120  -30.1080   23.9600 C   0  0  0  0  0  3  0  0  0  0  0  0
  -17.5990  -30.5950   24.1190 C   0  0  0  0  0  3  0  0  0  0  0  0
  -16.5040  -29.8100   23.7080 C   0  0  0  0  0  3  0  0  0  0  0  0
  -16.7280  -28.5460   23.1360 C   0  0  0  0  0  3  0  0  0  0  0  0
  -25.8960  -32.5190   23.8430 C   0  0  0  0  0  3  0  0  0  0  0  0
  -26.4180  -31.7540   25.1210 C   0  0  1  0  0  0  0  0  0  0  0  0
  -25.3310  -31.5150   26.1950 C   0  0  0  0  0  1  0  0  0  0  0  0
  -27.0030  -30.3740   24.7390 C   0  0  0  0  0  1  0  0  0  0  0  0
  -27.5720  -32.5490   25.7790 C   0  0  0  0  0  1  0  0  0  0  0  0
  -25.5820  -33.9180   24.1780 N   0  0  0  0  0  0  0  0  0  0  0  0
  -25.9100  -34.9750   23.4270 C   0  0  0  0  0  0  0  0  0  0  0  0
  -26.5710  -34.8810   22.3910 O   0  0  0  0  0  0  0  0  0  0  0  0
  -24.9900  -34.0670   24.9800 H   0  0  0  0  0  0  0  0  0  0  0  0
  -24.1740  -36.7730   23.1030 C   0  0  0  0  0  1  0  0  0  0  0  0
  -25.4250  -36.3640   23.8970 C   0  0  0  0  0  3  0  0  0  0  0  0
  -27.5640  -37.2530   24.7130 C   0  0  0  0  0  1  0  0  0  0  0  0
  -26.4540  -37.4190   23.7790 N   0  0  0  0  0  0  0  0  0  0  0  0
  -26.0430  -38.3370   23.9320 H   0  0  0  0  0  0  0  0  0  0  0  0
  1 48  1  0
  1  2  2  0
  3  6  1  0
  4  7  1  0
  5  3  1  0
  5  4  1  0
  5  7  1  0
  6  7  1  0
  6  9  1  0
  7  1  1  6
  9  8  1  0
 10 19  1  0
 11 16  1  0
 12 13  1  0
 12 11  1  0
 14 13  1  0
 14 23  1  0
 14 15  1  0
 16 10  1  0
 16 15  1  0
 17 10  2  0
 19  9  1  0
 19 18  1  0
 20 21  2  0
 21 40  1  0
 22 21  1  0
 22 25  1  0
 23 24  1  0
 23 20  1  0
 24 22  2  0
 25 26  1  0
 26 27  2  0
 28 31  1  0
 28 27  1  0
 29 28  2  0
 30 29  1  0
 30 25  2  0
 31 32  1  0
 32 33  1  0
 33 34  2  0
 35 34  1  0
 35 39  1  0
 36 35  2  0
 37 32  2  0
 37 36  1  0
 38 37  1  0
 40 41  1  0
 41 44  1  0
 41 43  1  0
 42 40  2  0
 45 46  1  0
 45 20  1  0
 47 45  1  0
 49 48  1  0
 49 50  1  0
 51 62  2  0
 52 50  1  0
 52 57  1  0
 53 61  1  0
 53 63  1  0
 54 60  1  0
 54 56  1  0
 55 61  1  0
 56 55  1  0
 57 56  2  0
 58 59  1  0
 58 52  2  0
 59 54  2  0
 60 53  1  0
 61 51  1  0
 63 65  2  0
 64 63  1  0
 66 64  1  0
 67 76  2  0
 67 72  1  0
 68 64  1  0
 68 72  1  0
 69 68  1  0
 70 71  1  0
 70 69  1  0
 71 67  1  0
 72 73  2  0
 73 74  1  0
 75 74  2  0
 76 75  1  0
 77 51  1  0
 77 82  1  0
 77 78  1  0
 78 81  1  1
 78 79  1  0
 80 78  1  0
 82 85  1  0
 83 87  1  0
 83 82  1  0
 84 83  2  0
 87 86  1  0
 89 87  1  0
 89 90  1  0
 89 88  1  0
M  ISO  4  10 100  19 100  49 101  50 101
M  END
>  <TORSDO>  (93) 
F 20

>  <SCORE>  (93) 
-14.422

>  <name>  (93) 
92

>  <ligand_id>  (93) 
92

>  <original_smiles>  (93) 
[H]c1c([H])c([H])c2c(c1[H])C([H])([H])C([H])([H])C([H])([H])C2([H])N([H])C(=O)C1([H])N(C(=O)C([H])(N([H])C(=O)C([H])(N([H])C([H])([H])[H])C([H])([H])[H])C(C([H])([H])[H])(C([H])([H])[H])C([H])([H])[H])C([H])([H])c2c([H])c(OC([H])([H])C([H])([H])C(=O)C34C([H])([H])C3([H])C([H])([H])C4([H])C([H])(N(C(=O)N3C([H])([H])C([H])([H])C([H])([H])C([H])(n4nc(-c5c([H])c([H])c(Oc6c([H])c([H])c(F)c([H])c6F)c([H])c5[H])c(C(=O)N([H])[H])c4N([H])[H])C3([H])[H])C([H])([H])[H])C([H])([H])[H])c([H])c([H])c2C1([H])[H]

>  <smiles>  (93) 
[H]c1c([H])c([H])c2c(c1[H])C([H])([H])C([H])([H])C([H])([H])C2([H])N([H])C(=O)C1([H])N(C(=O)C([H])(N([H])C(=O)C([H])(N([H])C([H])([H])[H])C([H])([H])[H])C(C([H])([H])[H])(C([H])([H])[H])C([H])([H])[H])C([H])([H])c2c([H])c(OC([H])([H])C([H])([H])C(=O)C34C([H])([H])C3([H])C([H])([H])C4([H])C([H])(N(C(=O)N3C([H])([H])C([H])([H])C([H])([H])C([H])(n4nc(-c5c([H])c([H])c(Oc6c([H])c([H])c(F)c([H])c6F)c([H])c5[H])c(C(=O)N([H])[H])c4N([H])[H])C3([H])[H])C([H])([H])[H])C([H])([H])[H])c([H])c([H])c2C1([H])[H]

$$$$
93:0:0
     RDKit          3D

 85 94  0  0  1  0  0  0  0  0999 V2000
  -30.2630  -15.7910   20.2960 C   0  0  0  0  0  0  0  0  0  0  0  0
  -30.4070  -13.2080   19.5210 C   0  0  0  0  0  2  0  0  0  0  0  0
  -29.5580  -12.7020   18.3180 C   0  0  0  0  0  2  0  0  0  0  0  0
  -28.1400  -12.3200   18.7640 C   0  0  0  0  0  2  0  0  0  0  0  0
  -27.5830  -13.3430   19.7780 C   0  0  0  0  0  3  0  0  0  0  0  0
  -28.5840  -13.7510   20.8880 C   0  0  0  0  0  2  0  0  0  0  0  0
  -29.7340  -14.4110   20.2170 N   0  0  0  0  0  0  0  0  0  0  0  0
  -31.5050  -15.6690   20.2200 O   0  0  0  0  0  0  0  0  0  0  0  0
  -28.7310  -21.1160   18.9280 C   0  0  0  0  0  2  0  0  0  0  0  0
  -28.6920  -21.8610   20.0880 C   0  0  0  0  0  3  0  0  0  0  0  0
  -29.0600  -18.1350   19.1420 C   0  0  0  0  0  2  0  0  0  0  0  0
  -29.8370  -18.7390   20.9930 C   0  0  0  0  0  2  0  0  0  0  0  0
  -28.3460  -19.6340   19.4960 C   0  0  0  0  0  3  0  0  0  0  0  0
  -28.7480  -20.1700   20.8320 C   0  0  0  0  0  3  0  0  0  0  0  0
  -29.5670  -17.2300   20.3190 N   0  0  0  0  0  0  0  0  0  0  0  0
  -25.2080  -13.8420   20.5110 C   0  0  0  0  0  0  0  0  0  0  0  0
  -24.1540  -13.0520   20.8690 C   0  0  0  0  0  0  0  0  0  0  0  0
  -24.6430  -11.7080   20.8560 C   0  0  0  0  0  0  0  0  0  0  0  0
  -26.2670  -12.9850   20.2910 N   0  0  0  0  0  0  0  0  0  0  0  0
  -25.9420  -11.6940   20.5660 N   0  0  0  0  0  0  0  0  0  0  0  0
  -23.9260  -10.4380   21.0440 C   0  0  0  0  0  0  0  0  0  0  0  0
  -24.3560   -9.4760   21.9840 C   0  0  0  0  0  3  0  0  0  0  0  0
  -23.6340   -8.2760   22.1620 C   0  0  0  0  0  3  0  0  0  0  0  0
  -22.4670   -8.0280   21.4020 C   0  0  0  0  0  0  0  0  0  0  0  0
  -22.0570   -8.9790   20.4500 C   0  0  0  0  0  3  0  0  0  0  0  0
  -22.7790  -10.1700   20.2690 C   0  0  0  0  0  3  0  0  0  0  0  0
  -21.7170   -6.8800   21.4900 O   0  0  0  0  0  0  0  0  0  0  0  0
  -21.6720   -6.1370   22.6410 C   0  0  0  0  0  0  0  0  0  0  0  0
  -21.2610   -6.6950   23.8720 C   0  0  0  0  0  3  0  0  0  0  0  0
  -21.1600   -5.8780   25.0170 C   0  0  0  0  0  3  0  0  0  0  0  0
  -21.4620   -4.5050   24.9320 C   0  0  0  0  0  0  0  0  0  0  0  0
  -21.8650   -3.9470   23.7070 C   0  0  0  0  0  3  0  0  0  0  0  0
  -21.9670   -4.7600   22.5650 C   0  0  0  0  0  0  0  0  0  0  0  0
  -22.3350   -4.2120   21.3810 F   0  0  0  0  0  0  0  0  0  0  0  0
  -21.3590   -3.7190   26.0290 F   0  0  0  0  0  0  0  0  0  0  0  0
  -22.7460  -13.5130   21.1040 C   0  0  0  0  0  0  0  0  0  0  0  0
  -22.0120  -12.8250   21.9700 N   0  0  0  0  0  0  0  0  0  0  0  0
  -22.3070  -14.5220   20.5540 O   0  0  0  0  0  0  0  0  0  0  0  0
  -22.3830  -12.0100   22.4360 H   0  0  0  0  0  0  0  0  0  0  0  0
  -21.0650  -13.1150   22.1670 H   0  0  0  0  0  0  0  0  0  0  0  0
  -25.3520  -15.2150   20.3180 N   0  0  0  0  0  0  0  0  0  0  0  0
  -24.5680  -15.8550   20.3900 H   0  0  0  0  0  0  0  0  0  0  0  0
  -26.1970  -15.6600   19.9810 H   0  0  0  0  0  0  0  0  0  0  0  0
  -27.8640  -23.5810   20.2860 C   0  0  0  0  0  2  0  0  0  0  0  0
  -28.1200  -25.3620   20.1570 O   0  0  0  0  0  0  0  0  0  0  0  0
  -24.6800  -31.8150   23.0900 C   0  0  0  0  0  0  0  0  0  0  0  0
  -27.1630  -26.6210   20.1430 C   0  0  0  0  0  0  0  0  0  0  0  0
  -23.4770  -30.3960   21.4850 C   0  0  0  0  0  3  0  0  0  0  0  0
  -24.9070  -28.7150   20.0820 C   0  0  0  0  0  0  0  0  0  0  0  0
  -26.0590  -30.5120   21.3400 C   0  0  0  0  0  2  0  0  0  0  0  0
  -26.1140  -29.0610   20.7020 C   0  0  0  0  0  0  0  0  0  0  0  0
  -27.2240  -28.0470   20.6920 C   0  0  0  0  0  3  0  0  0  0  0  0
  -25.9160  -26.5070   19.4720 C   0  0  0  0  0  3  0  0  0  0  0  0
  -24.8520  -27.4640   19.4420 C   0  0  0  0  0  3  0  0  0  0  0  0
  -23.7060  -29.6780   20.1240 C   0  0  0  0  0  2  0  0  0  0  0  0
  -24.7650  -30.9430   22.0250 N   0  0  0  0  0  0  0  0  0  0  0  0
  -23.5920  -32.1270   23.6040 O   0  0  0  0  0  0  0  0  0  0  0  0
  -22.7640  -29.4380   22.4770 C   0  0  0  0  0  0  0  0  0  0  0  0
  -21.4270  -29.2980   22.3760 N   0  0  0  0  0  0  0  0  0  0  0  0
  -23.4260  -28.8160   23.3120 O   0  0  0  0  0  0  0  0  0  0  0  0
  -20.9430  -29.8480   21.6810 H   0  0  0  0  0  0  0  0  0  0  0  0
  -18.0380  -28.1090   22.9550 C   0  0  0  0  0  0  0  0  0  0  0  0
  -20.6050  -28.3730   23.1700 C   0  0  0  0  0  3  0  0  0  0  0  0
  -20.6890  -26.9360   22.6060 C   0  0  0  0  0  2  0  0  0  0  0  0
  -19.5700  -26.6100   21.6130 C   0  0  0  0  0  2  0  0  0  0  0  0
  -18.2020  -26.7550   22.2840 C   0  0  0  0  0  2  0  0  0  0  0  0
  -19.1670  -28.8740   23.3570 C   0  0  0  0  0  0  0  0  0  0  0  0
  -18.9550  -30.1380   23.9520 C   0  0  0  0  0  3  0  0  0  0  0  0
  -17.6520  -30.6340   24.1470 C   0  0  0  0  0  3  0  0  0  0  0  0
  -16.5400  -29.8670   23.7590 C   0  0  0  0  0  3  0  0  0  0  0  0
  -16.7350  -28.6050   23.1690 C   0  0  0  0  0  3  0  0  0  0  0  0
  -25.9480  -32.4770   23.7130 C   0  0  0  0  0  3  0  0  0  0  0  0
  -25.6100  -33.8660   24.0860 N   0  0  0  0  0  0  0  0  0  0  0  0
  -25.9100  -34.9550   23.3660 C   0  0  0  0  0  0  0  0  0  0  0  0
  -26.5540  -34.8980   22.3160 O   0  0  0  0  0  0  0  0  0  0  0  0
  -25.0320  -33.9800   24.9060 H   0  0  0  0  0  0  0  0  0  0  0  0
  -24.1470  -36.7440   23.1400 C   0  0  0  0  0  1  0  0  0  0  0  0
  -25.4220  -36.3250   23.8890 C   0  0  0  0  0  3  0  0  0  0  0  0
  -27.5750  -37.2190   24.6670 C   0  0  0  0  0  1  0  0  0  0  0  0
  -26.4350  -37.3980   23.7710 N   0  0  0  0  0  0  0  0  0  0  0  0
  -26.0240  -38.3080   23.9630 H   0  0  0  0  0  0  0  0  0  0  0  0
  -26.4870  -31.7040   24.9810 C   0  0  1  0  0  0  0  0  0  0  0  0
  -25.4100  -31.4500   26.0640 C   0  0  0  0  0  1  0  0  0  0  0  0
  -27.0760  -30.3320   24.5850 C   0  0  0  0  0  1  0  0  0  0  0  0
  -27.6420  -32.5020   25.6300 C   0  0  0  0  0  1  0  0  0  0  0  0
  1 15  1  0
  2  7  1  0
  3  4  1  0
  3  2  1  0
  5  4  1  0
  5 19  1  0
  5  6  1  0
  7  1  1  0
  7  6  1  0
  8  1  2  0
  9 10  1  0
 10 44  1  0
 10 14  1  0
 11 13  1  0
 11 15  1  0
 13  9  1  0
 13 14  1  0
 14 12  1  0
 15 12  1  0
 16 17  2  0
 17 36  1  0
 18 17  1  0
 18 21  1  0
 19 16  1  0
 19 20  1  0
 20 18  2  0
 21 22  1  0
 22 23  2  0
 24 27  1  0
 24 23  1  0
 25 24  2  0
 26 25  1  0
 26 21  2  0
 27 28  1  0
 28 29  1  0
 29 30  2  0
 31 30  1  0
 31 35  1  0
 32 31  2  0
 33 28  2  0
 33 32  1  0
 34 33  1  0
 36 37  1  0
 37 40  1  0
 37 39  1  0
 38 36  2  0
 41 42  1  0
 41 16  1  0
 43 41  1  0
 45 44  1  0
 46 57  2  0
 47 45  1  0
 47 52  1  0
 48 56  1  0
 48 58  1  0
 49 55  1  0
 49 51  1  0
 50 56  1  0
 51 50  1  0
 52 51  2  0
 53 47  2  0
 54 53  1  0
 54 49  2  0
 55 48  1  0
 56 46  1  0
 58 60  2  0
 59 58  1  0
 61 59  1  0
 62 71  2  0
 62 67  1  0
 63 59  1  0
 63 67  1  0
 64 63  1  0
 65 66  1  0
 65 64  1  0
 66 62  1  0
 67 68  2  0
 68 69  1  0
 70 69  2  0
 71 70  1  0
 72 46  1  0
 72 73  1  0
 72 82  1  0
 73 76  1  0
 74 78  1  0
 74 73  1  0
 75 74  2  0
 78 77  1  0
 80 78  1  0
 80 81  1  0
 80 79  1  0
 82 85  1  1
 82 83  1  0
 84 82  1  0
M  ISO  4   1 100  15 100  44 101  45 101
M  END
>  <TORSDO>  (94) 
F 16

>  <SCORE>  (94) 
-16.309

>  <name>  (94) 
93

>  <ligand_id>  (94) 
93

>  <original_smiles>  (94) 
[H]C1=C(C([H])([H])Oc2c([H])c([H])c3c(c2[H])C([H])([H])N(C(=O)C([H])(N([H])C(=O)C([H])(N([H])C([H])([H])[H])C([H])([H])[H])C(C([H])([H])[H])(C([H])([H])[H])C([H])([H])[H])C([H])(C(=O)N([H])C2([H])c4c([H])c([H])c([H])c([H])c4C([H])([H])C([H])([H])C2([H])[H])C3([H])[H])C2([H])C([H])([H])N(C(=O)N3C([H])([H])C([H])([H])C([H])([H])C([H])(n4nc(-c5c([H])c([H])c(Oc6c([H])c([H])c(F)c([H])c6F)c([H])c5[H])c(C(=O)N([H])[H])c4N([H])[H])C3([H])[H])C([H])([H])C12[H]

>  <smiles>  (94) 
[H]C1=C(C([H])([H])Oc2c([H])c([H])c3c(c2[H])C([H])([H])N(C(=O)C([H])(N([H])C(=O)C([H])(N([H])C([H])([H])[H])C([H])([H])[H])C(C([H])([H])[H])(C([H])([H])[H])C([H])([H])[H])C([H])(C(=O)N([H])C2([H])c4c([H])c([H])c([H])c([H])c4C([H])([H])C([H])([H])C2([H])[H])C3([H])[H])C2([H])C([H])([H])N(C(=O)N3C([H])([H])C([H])([H])C([H])([H])C([H])(n4nc(-c5c([H])c([H])c(Oc6c([H])c([H])c(F)c([H])c6F)c([H])c5[H])c(C(=O)N([H])[H])c4N([H])[H])C3([H])[H])C([H])([H])C12[H]

$$$$
94:0:0
     RDKit          3D

 94104  0  0  1  0  0  0  0  0999 V2000
  -30.3680  -20.1180   20.5540 C   0  0  0  0  0  2  0  0  0  0  0  0
  -31.0190  -14.6280   19.9370 C   0  0  0  0  0  0  0  0  0  0  0  0
  -30.6220  -12.3890   18.9460 C   0  0  0  0  0  2  0  0  0  0  0  0
  -29.6180  -12.5070   17.7840 C   0  0  0  0  0  2  0  0  0  0  0  0
  -28.1810  -12.3530   18.3120 C   0  0  0  0  0  2  0  0  0  0  0  0
  -27.8940  -13.2590   19.5410 C   0  0  0  0  0  3  0  0  0  0  0  0
  -29.0260  -13.1840   20.5910 C   0  0  0  0  0  2  0  0  0  0  0  0
  -30.2940  -13.4640   19.9050 N   0  0  0  0  0  0  0  0  0  0  0  0
  -32.1870  -14.6420   19.5370 O   0  0  0  0  0  0  0  0  0  0  0  0
  -27.8690  -17.2750   21.1200 C   0  0  0  0  0  2  0  0  0  0  0  0
  -28.2160  -17.5520   18.6140 C   0  0  0  0  0  2  0  0  0  0  0  0
  -27.9980  -19.3730   20.0790 C   0  0  0  0  0  2  0  0  0  0  0  0
  -30.3220  -16.5690   21.3030 C   0  0  0  0  0  2  0  0  0  0  0  0
  -30.6480  -16.8460   18.9760 C   0  0  0  0  0  2  0  0  0  0  0  0
  -27.4130  -18.0050   19.8430 C   0  0  0  0  0  3  0  0  0  0  0  0
  -29.3100  -17.7730   21.3380 C   0  0  0  0  0  3  0  0  0  0  0  0
  -29.6500  -18.0520   18.9090 C   0  0  0  0  0  3  0  0  0  0  0  0
  -29.4400  -18.8780   20.2240 C   0  0  2  0  0  0  0  0  0  0  0  0
  -30.3500  -15.8300   20.0220 N   0  0  0  0  0  0  0  0  0  0  0  0
  -25.5560  -13.8480   20.4300 C   0  0  0  0  0  0  0  0  0  0  0  0
  -24.5130  -13.0790   20.8590 C   0  0  0  0  0  0  0  0  0  0  0  0
  -24.9580  -11.7260   20.7570 C   0  0  0  0  0  0  0  0  0  0  0  0
  -26.5820  -12.9710   20.1160 N   0  0  0  0  0  0  0  0  0  0  0  0
  -26.2280  -11.6840   20.3710 N   0  0  0  0  0  0  0  0  0  0  0  0
  -24.2250  -10.4700   20.9510 C   0  0  0  0  0  0  0  0  0  0  0  0
  -24.6580   -9.4970   21.8770 C   0  0  0  0  0  3  0  0  0  0  0  0
  -23.9230   -8.3060   22.0610 C   0  0  0  0  0  3  0  0  0  0  0  0
  -22.7400   -8.0820   21.3170 C   0  0  0  0  0  0  0  0  0  0  0  0
  -22.3230   -9.0440   20.3810 C   0  0  0  0  0  3  0  0  0  0  0  0
  -23.0590  -10.2270   20.1950 C   0  0  0  0  0  3  0  0  0  0  0  0
  -21.9750   -6.9450   21.4100 O   0  0  0  0  0  0  0  0  0  0  0  0
  -21.8570   -6.2530   22.5870 C   0  0  0  0  0  0  0  0  0  0  0  0
  -21.3130   -6.8450   23.7480 C   0  0  0  0  0  3  0  0  0  0  0  0
  -21.1450   -6.0770   24.9180 C   0  0  0  0  0  3  0  0  0  0  0  0
  -21.5100   -4.7170   24.9260 C   0  0  0  0  0  0  0  0  0  0  0  0
  -22.0500   -4.1260   23.7700 C   0  0  0  0  0  3  0  0  0  0  0  0
  -22.2190   -4.8910   22.6040 C   0  0  0  0  0  0  0  0  0  0  0  0
  -22.7180   -4.3100   21.4860 F   0  0  0  0  0  0  0  0  0  0  0  0
  -21.3430   -3.9760   26.0470 F   0  0  0  0  0  0  0  0  0  0  0  0
  -23.1470  -13.5670   21.2410 C   0  0  0  0  0  0  0  0  0  0  0  0
  -22.4910  -12.8780   22.1680 N   0  0  0  0  0  0  0  0  0  0  0  0
  -22.6750  -14.5960   20.7590 O   0  0  0  0  0  0  0  0  0  0  0  0
  -22.8890  -12.0450   22.5730 H   0  0  0  0  0  0  0  0  0  0  0  0
  -21.5820  -13.1920   22.4780 H   0  0  0  0  0  0  0  0  0  0  0  0
  -25.6920  -15.2160   20.2530 N   0  0  0  0  0  0  0  0  0  0  0  0
  -24.9330  -15.8610   20.4430 H   0  0  0  0  0  0  0  0  0  0  0  0
  -26.5280  -15.6730   19.9150 H   0  0  0  0  0  0  0  0  0  0  0  0
  -30.2300  -21.5050   19.7770 C   0  0  0  0  0  2  0  0  0  0  0  0
  -29.2990  -22.5590   20.3450 N   0  0  0  0  0  4  0  0  0  0  0  0
  -28.3600  -22.2890   20.0980 H   0  0  0  0  0  0  0  0  0  0  0  0
  -29.3620  -22.5170   21.3520 H   0  0  0  0  0  0  0  0  0  0  0  0
  -29.5290  -24.0110   19.9340 C   0  0  0  0  0  3  0  0  0  0  0  0
  -28.3340  -25.0180   20.2350 C   0  0  0  0  0  3  0  0  0  0  0  0
  -28.5080  -26.4720   19.9930 O   0  0  0  0  0  0  0  0  0  0  0  0
  -24.5490  -31.6400   23.1380 C   0  0  0  0  0  0  0  0  0  0  0  0
  -27.3560  -27.2710   19.9760 C   0  0  0  0  0  0  0  0  0  0  0  0
  -23.4130  -30.2520   21.4410 C   0  0  0  0  0  3  0  0  0  0  0  0
  -24.9310  -28.7900   19.9960 C   0  0  0  0  0  0  0  0  0  0  0  0
  -25.9440  -30.6580   21.3050 C   0  0  0  0  0  2  0  0  0  0  0  0
  -26.0780  -29.3060   20.6150 C   0  0  0  0  0  0  0  0  0  0  0  0
  -27.2940  -28.5610   20.5930 C   0  0  0  0  0  3  0  0  0  0  0  0
  -26.1870  -26.8170   19.3210 C   0  0  0  0  0  3  0  0  0  0  0  0
  -24.9870  -27.5490   19.3450 C   0  0  0  0  0  3  0  0  0  0  0  0
  -23.6660  -29.6200   20.0470 C   0  0  0  0  0  2  0  0  0  0  0  0
  -24.6520  -30.8680   22.0160 N   0  0  0  0  0  0  0  0  0  0  0  0
  -23.4530  -31.8690   23.6680 O   0  0  0  0  0  0  0  0  0  0  0  0
  -22.7710  -29.1890   22.3660 C   0  0  0  0  0  0  0  0  0  0  0  0
  -21.4510  -28.9780   22.2180 N   0  0  0  0  0  0  0  0  0  0  0  0
  -23.4570  -28.5590   23.1740 O   0  0  0  0  0  0  0  0  0  0  0  0
  -20.9570  -29.5360   21.5360 H   0  0  0  0  0  0  0  0  0  0  0  0
  -18.0970  -27.7000   22.6770 C   0  0  0  0  0  0  0  0  0  0  0  0
  -20.6520  -27.9940   22.9490 C   0  0  0  0  0  3  0  0  0  0  0  0
  -20.7770  -26.5910   22.3120 C   0  0  0  0  0  2  0  0  0  0  0  0
  -19.6770  -26.2910   21.2900 C   0  0  0  0  0  2  0  0  0  0  0  0
  -18.2960  -26.3830   21.9440 C   0  0  0  0  0  2  0  0  0  0  0  0
  -19.2040  -28.4630   23.1350 C   0  0  0  0  0  0  0  0  0  0  0  0
  -18.9640  -29.6940   23.7810 C   0  0  0  0  0  3  0  0  0  0  0  0
  -17.6530  -30.1650   23.9750 C   0  0  0  0  0  3  0  0  0  0  0  0
  -16.5600  -29.3990   23.5340 C   0  0  0  0  0  3  0  0  0  0  0  0
  -16.7830  -28.1670   22.8900 C   0  0  0  0  0  3  0  0  0  0  0  0
  -25.8070  -32.2890   23.7960 C   0  0  0  0  0  3  0  0  0  0  0  0
  -26.3120  -31.5140   25.0760 C   0  0  1  0  0  0  0  0  0  0  0  0
  -25.1980  -31.2380   26.1130 C   0  0  0  0  0  1  0  0  0  0  0  0
  -26.9360  -30.1530   24.6890 C   0  0  0  0  0  1  0  0  0  0  0  0
  -27.4280  -32.3300   25.7730 C   0  0  0  0  0  1  0  0  0  0  0  0
  -25.4640  -33.6780   24.1320 N   0  0  0  0  0  0  0  0  0  0  0  0
  -25.7950  -34.7450   23.3950 C   0  0  0  0  0  0  0  0  0  0  0  0
  -26.4970  -34.6680   22.3820 O   0  0  0  0  0  0  0  0  0  0  0  0
  -24.8440  -33.8110   24.9190 H   0  0  0  0  0  0  0  0  0  0  0  0
  -24.0600  -36.5210   23.0010 C   0  0  0  0  0  1  0  0  0  0  0  0
  -25.2730  -36.1190   23.8550 C   0  0  0  0  0  3  0  0  0  0  0  0
  -27.3490  -37.0280   24.8000 C   0  0  0  0  0  1  0  0  0  0  0  0
  -26.2960  -37.1870   23.8010 N   0  0  0  0  0  0  0  0  0  0  0  0
  -25.8670  -38.0990   23.9310 H   0  0  0  0  0  0  0  0  0  0  0  0
  2 19  1  0
  3  8  1  0
  4  5  1  0
  4  3  1  0
  6  5  1  0
  6 23  1  0
  6  7  1  0
  8  2  1  0
  8  7  1  0
  9  2  2  0
 12 18  1  0
 13 16  1  0
 14 19  1  0
 15 11  1  0
 15 12  1  0
 15 10  1  0
 16 10  1  0
 17 11  1  0
 17 14  1  0
 17 18  1  0
 18  1  1  1
 18 16  1  0
 19 13  1  0
 20 21  2  0
 21 40  1  0
 22 21  1  0
 22 25  1  0
 23 24  1  0
 23 20  1  0
 24 22  2  0
 25 26  1  0
 26 27  2  0
 28 31  1  0
 28 27  1  0
 29 28  2  0
 30 29  1  0
 30 25  2  0
 31 32  1  0
 32 37  2  0
 32 33  1  0
 33 34  2  0
 34 35  1  0
 35 39  1  0
 36 35  2  0
 37 36  1  0
 38 37  1  0
 40 41  1  0
 41 44  1  0
 41 43  1  0
 42 40  2  0
 45 20  1  0
 45 46  1  0
 47 45  1  0
 48 49  1  0
 48  1  1  0
 49 51  1  0
 50 49  1  0
 52 53  2  0
 52 49  1  0
 54 53  1  0
 55 66  2  0
 56 54  1  0
 56 61  1  0
 57 65  1  0
 57 67  1  0
 58 64  1  0
 58 60  1  0
 59 65  1  0
 60 59  1  0
 61 60  2  0
 62 63  1  0
 62 56  2  0
 63 58  2  0
 64 57  1  0
 65 55  1  0
 67 69  2  0
 68 67  1  0
 70 68  1  0
 71 80  2  0
 71 76  1  0
 72 68  1  0
 72 76  1  0
 73 72  1  0
 74 75  1  0
 74 73  1  0
 75 71  1  0
 76 77  2  0
 77 78  1  0
 79 78  2  0
 80 79  1  0
 81 55  1  0
 81 86  1  0
 81 82  1  0
 82 85  1  1
 82 83  1  0
 84 82  1  0
 86 89  1  0
 87 91  1  0
 87 86  1  0
 88 87  2  0
 91 90  1  0
 93 91  1  0
 93 94  1  0
 93 92  1  0
M  ISO  4   2 100  19 100  53 101  54 101
M  END
>  <TORSDO>  (95) 
F 20

>  <SCORE>  (95) 
-12.787

>  <name>  (95) 
94

>  <ligand_id>  (95) 
94

>  <original_smiles>  (95) 
[H]c1c([H])c([H])c2c(c1[H])C([H])([H])C([H])([H])C([H])([H])C2([H])N([H])C(=O)C1([H])N(C(=O)C([H])(N([H])C(=O)C([H])(N([H])C([H])([H])[H])C([H])([H])[H])C(C([H])([H])[H])(C([H])([H])[H])C([H])([H])[H])C([H])([H])c2c([H])c(OC([H])([H])C([H])([H])[N+]([H])([H])C([H])([H])C([H])([H])C34C([H])([H])C5([H])C([H])([H])C3([H])C([H])([H])N(C(=O)N3C([H])([H])C([H])([H])C([H])([H])C([H])(n6nc(-c7c([H])c([H])c(Oc8c([H])c([H])c(F)c([H])c8F)c([H])c7[H])c(C(=O)N([H])[H])c6N([H])[H])C3([H])[H])C([H])([H])C4([H])C5([H])[H])c([H])c([H])c2C1([H])[H]

>  <smiles>  (95) 
[H]c1c([H])c([H])c2c(c1[H])C([H])([H])C([H])([H])C([H])([H])C2([H])N([H])C(=O)C1([H])N(C(=O)C([H])(N([H])C(=O)C([H])(N([H])C([H])([H])[H])C([H])([H])[H])C(C([H])([H])[H])(C([H])([H])[H])C([H])([H])[H])C([H])([H])c2c([H])c(OC([H])([H])C([H])([H])[N+]([H])([H])C([H])([H])C([H])([H])C34C([H])([H])C5([H])C([H])([H])C3([H])C([H])([H])N(C(=O)N3C([H])([H])C([H])([H])C([H])([H])C([H])(n6nc(-c7c([H])c([H])c(Oc8c([H])c([H])c(F)c([H])c8F)c([H])c7[H])c(C(=O)N([H])[H])c6N([H])[H])C3([H])[H])C([H])([H])C4([H])C5([H])[H])c([H])c([H])c2C1([H])[H]

$$$$
95:0:0
     RDKit          3D

100108  0  0  1  0  0  0  0  0999 V2000
  -28.7790  -19.6840   20.4350 C   0  0  0  0  0  3  0  0  0  0  0  0
  -29.2340  -18.3820   20.7410 C   0  0  0  0  0  3  0  0  0  0  0  0
  -29.6800  -20.7270   20.1170 C   0  0  0  0  0  0  0  0  0  0  0  0
  -30.6120  -18.0740   20.7500 C   0  0  0  0  0  0  0  0  0  0  0  0
  -31.0740  -20.4260   20.0930 C   0  0  0  0  0  0  0  0  0  0  0  0
  -31.5340  -19.1100   20.4060 C   0  0  0  0  0  0  0  0  0  0  0  0
  -32.0910  -21.5110   19.7320 C   0  0  0  0  0  1  0  0  0  0  0  0
  -33.0350  -18.7990   20.3900 C   0  0  0  0  0  1  0  0  0  0  0  0
  -29.1240  -22.1320   19.7860 C   0  0  0  0  0  2  0  0  0  0  0  0
  -29.3040  -23.0910   20.9100 N   0  0  0  0  0  4  0  0  0  0  0  0
  -30.1560  -22.7990   21.3600 H   0  0  0  0  0  0  0  0  0  0  0  0
  -28.5680  -22.9440   21.5830 H   0  0  0  0  0  0  0  0  0  0  0  0
  -30.1870  -25.2360   21.7660 C   0  0  0  0  0  1  0  0  0  0  0  0
  -29.4620  -24.5500   20.5900 C   0  0  0  0  0  3  0  0  0  0  0  0
  -28.1180  -25.2730   20.2760 C   0  0  0  0  0  2  0  0  0  0  0  0
  -28.2700  -26.7070   20.1360 O   0  0  0  0  0  0  0  0  0  0  0  0
  -24.5280  -31.9470   23.2160 C   0  0  0  0  0  0  0  0  0  0  0  0
  -27.1080  -27.4590   20.1270 C   0  0  0  0  0  0  0  0  0  0  0  0
  -23.2930  -30.5380   21.6050 C   0  0  0  0  0  3  0  0  0  0  0  0
  -24.7200  -28.9900   20.1640 C   0  0  0  0  0  0  0  0  0  0  0  0
  -25.8190  -30.8870   21.3620 C   0  0  0  0  0  2  0  0  0  0  0  0
  -25.8910  -29.5100   20.7270 C   0  0  0  0  0  0  0  0  0  0  0  0
  -27.0900  -28.7560   20.6980 C   0  0  0  0  0  3  0  0  0  0  0  0
  -25.9150  -26.9630   19.5510 C   0  0  0  0  0  3  0  0  0  0  0  0
  -24.7290  -27.7180   19.5680 C   0  0  0  0  0  3  0  0  0  0  0  0
  -23.4780  -29.8520   20.2260 C   0  0  0  0  0  2  0  0  0  0  0  0
  -24.5660  -31.1400   22.1180 N   0  0  0  0  0  0  0  0  0  0  0  0
  -23.4560  -32.2250   23.7710 O   0  0  0  0  0  0  0  0  0  0  0  0
  -22.6570  -29.5230   22.5820 C   0  0  0  0  0  0  0  0  0  0  0  0
  -21.3340  -29.3270   22.4650 N   0  0  0  0  0  0  0  0  0  0  0  0
  -23.3520  -28.9150   23.4010 O   0  0  0  0  0  0  0  0  0  0  0  0
  -20.8350  -29.8690   21.7730 H   0  0  0  0  0  0  0  0  0  0  0  0
  -17.9790  -28.0810   22.9700 C   0  0  0  0  0  0  0  0  0  0  0  0
  -20.5300  -28.3900   23.2510 C   0  0  0  0  0  3  0  0  0  0  0  0
  -20.6630  -26.9490   22.7060 C   0  0  0  0  0  2  0  0  0  0  0  0
  -19.5730  -26.5850   21.6930 C   0  0  0  0  0  2  0  0  0  0  0  0
  -18.1840  -26.7200   22.3250 C   0  0  0  0  0  2  0  0  0  0  0  0
  -19.0820  -28.8710   23.3900 C   0  0  0  0  0  0  0  0  0  0  0  0
  -18.8360  -30.1440   23.9510 C   0  0  0  0  0  3  0  0  0  0  0  0
  -17.5230  -30.6270   24.0970 C   0  0  0  0  0  3  0  0  0  0  0  0
  -16.4350  -29.8330   23.6940 C   0  0  0  0  0  3  0  0  0  0  0  0
  -16.6640  -28.5630   23.1350 C   0  0  0  0  0  3  0  0  0  0  0  0
  -25.8250  -32.5810   23.8110 C   0  0  0  0  0  3  0  0  0  0  0  0
  -25.5180  -33.9760   24.1560 N   0  0  0  0  0  0  0  0  0  0  0  0
  -25.8320  -35.0340   23.3970 C   0  0  0  0  0  0  0  0  0  0  0  0
  -26.4840  -34.9390   22.3530 O   0  0  0  0  0  0  0  0  0  0  0  0
  -24.9400  -34.1230   24.9710 H   0  0  0  0  0  0  0  0  0  0  0  0
  -24.0900  -36.8180   23.0860 C   0  0  0  0  0  1  0  0  0  0  0  0
  -25.3470  -36.4160   23.8720 C   0  0  0  0  0  3  0  0  0  0  0  0
  -27.4970  -37.3000   24.6630 C   0  0  0  0  0  1  0  0  0  0  0  0
  -26.3710  -37.4750   23.7490 N   0  0  0  0  0  0  0  0  0  0  0  0
  -25.9630  -38.3910   23.9200 H   0  0  0  0  0  0  0  0  0  0  0  0
  -26.3750  -31.8040   25.0700 C   0  0  1  0  0  0  0  0  0  0  0  0
  -25.3080  -31.5480   26.1580 C   0  0  0  0  0  1  0  0  0  0  0  0
  -26.9590  -30.4330   24.6500 C   0  0  0  0  0  1  0  0  0  0  0  0
  -27.5340  -32.6010   25.7130 C   0  0  0  0  0  1  0  0  0  0  0  0
  -31.0900  -16.6760   21.2360 C   0  0  0  0  0  3  0  0  0  0  0  0
  -30.8720  -14.5030   19.9800 C   0  0  0  0  0  0  0  0  0  0  0  0
  -30.4340  -12.3360   18.8720 C   0  0  0  0  0  2  0  0  0  0  0  0
  -29.4510  -12.5140   17.6990 C   0  0  0  0  0  2  0  0  0  0  0  0
  -27.9940  -12.4260   18.1930 C   0  0  0  0  0  2  0  0  0  0  0  0
  -27.7280  -13.3200   19.4320 C   0  0  0  0  0  3  0  0  0  0  0  0
  -28.8200  -13.1180   20.5060 C   0  0  0  0  0  2  0  0  0  0  0  0
  -30.1270  -13.3670   19.8750 N   0  0  0  0  0  0  0  0  0  0  0  0
  -31.9580  -14.6350   19.4130 O   0  0  0  0  0  0  0  0  0  0  0  0
  -30.3500  -15.4960   20.7320 N   0  0  0  0  0  0  0  0  0  0  0  0
  -29.4070  -15.3610   21.0600 H   0  0  0  0  0  0  0  0  0  0  0  0
  -25.3930  -14.0240   20.2500 C   0  0  0  0  0  0  0  0  0  0  0  0
  -24.3120  -13.2960   20.6680 C   0  0  0  0  0  0  0  0  0  0  0  0
  -24.7160  -11.9260   20.6180 C   0  0  0  0  0  0  0  0  0  0  0  0
  -26.3900  -13.1000   19.9730 N   0  0  0  0  0  0  0  0  0  0  0  0
  -25.9880  -11.8330   20.2530 N   0  0  0  0  0  0  0  0  0  0  0  0
  -23.9470  -10.6950   20.8420 C   0  0  0  0  0  0  0  0  0  0  0  0
  -24.3690   -9.7190   21.7710 C   0  0  0  0  0  3  0  0  0  0  0  0
  -23.6030   -8.5510   21.9820 C   0  0  0  0  0  3  0  0  0  0  0  0
  -22.4000   -8.3530   21.2640 C   0  0  0  0  0  0  0  0  0  0  0  0
  -21.9960   -9.3180   20.3250 C   0  0  0  0  0  3  0  0  0  0  0  0
  -22.7630  -10.4760   20.1110 C   0  0  0  0  0  3  0  0  0  0  0  0
  -21.6050   -7.2390   21.3850 O   0  0  0  0  0  0  0  0  0  0  0  0
  -21.5420   -6.5230   22.5530 C   0  0  0  0  0  0  0  0  0  0  0  0
  -21.1680   -7.1230   23.7750 C   0  0  0  0  0  3  0  0  0  0  0  0
  -21.0490   -6.3350   24.9380 C   0  0  0  0  0  3  0  0  0  0  0  0
  -21.2930   -4.9500   24.8790 C   0  0  0  0  0  0  0  0  0  0  0  0
  -21.6600   -4.3510   23.6610 C   0  0  0  0  0  3  0  0  0  0  0  0
  -21.7820   -5.1350   22.5010 C   0  0  0  0  0  0  0  0  0  0  0  0
  -22.1140   -4.5490   21.3250 F   0  0  0  0  0  0  0  0  0  0  0  0
  -21.1710   -4.1910   25.9930 F   0  0  0  0  0  0  0  0  0  0  0  0
  -22.9490  -13.8300   21.0020 C   0  0  0  0  0  0  0  0  0  0  0  0
  -22.2370  -13.1700   21.9090 N   0  0  0  0  0  0  0  0  0  0  0  0
  -22.5270  -14.8680   20.4940 O   0  0  0  0  0  0  0  0  0  0  0  0
  -22.5910  -12.3300   22.3410 H   0  0  0  0  0  0  0  0  0  0  0  0
  -21.3240  -13.5100   22.1750 H   0  0  0  0  0  0  0  0  0  0  0  0
  -25.6060  -15.3860   20.0620 N   0  0  0  0  0  0  0  0  0  0  0  0
  -24.8680  -16.0690   20.1900 H   0  0  0  0  0  0  0  0  0  0  0  0
  -26.4490  -15.7860   19.6700 H   0  0  0  0  0  0  0  0  0  0  0  0
  -31.1580  -16.6440   22.7820 C   0  0  0  0  0  2  0  0  0  0  0  0
  -31.6750  -15.3700   23.3170 N   0  0  0  0  0  4  0  0  0  0  0  0
  -31.0720  -14.6030   23.0790 H   0  0  0  0  0  0  0  0  0  0  0  0
  -31.7250  -15.4200   24.3190 H   0  0  0  0  0  0  0  0  0  0  0  0
  -32.5970  -15.1820   22.9680 H   0  0  0  0  0  0  0  0  0  0  0  0
  1  2  1  0
  2  4  2  0
  3  1  2  0
  4 57  1  0
  5  3  1  0
  5  6  2  0
  6  4  1  0
  7  5  1  0
  8  6  1  0
  9  3  1  0
  9 10  1  0
 10 11  1  0
 10 12  1  0
 14 10  1  0
 14 13  1  0
 15 14  1  0
 16 15  1  0
 17 28  2  0
 18 16  1  0
 18 23  1  0
 19 27  1  0
 19 29  1  0
 20 26  1  0
 20 22  1  0
 21 27  1  0
 22 21  1  0
 23 22  2  0
 24 25  1  0
 24 18  2  0
 25 20  2  0
 26 19  1  0
 27 17  1  0
 29 31  2  0
 30 29  1  0
 32 30  1  0
 33 42  2  0
 33 38  1  0
 34 30  1  0
 34 38  1  0
 35 34  1  0
 36 37  1  0
 36 35  1  0
 37 33  1  0
 38 39  2  0
 39 40  1  0
 41 40  2  0
 42 41  1  0
 43 17  1  0
 43 44  1  0
 43 53  1  0
 44 47  1  0
 45 49  1  0
 45 44  1  0
 46 45  2  0
 49 48  1  0
 51 49  1  0
 51 52  1  0
 51 50  1  0
 53 56  1  1
 53 54  1  0
 55 53  1  0
 57 96  1  0
 58 66  1  0
 59 64  1  0
 60 61  1  0
 60 59  1  0
 62 61  1  0
 62 71  1  0
 62 63  1  0
 64 58  1  0
 64 63  1  0
 65 58  2  0
 66 67  1  0
 66 57  1  0
 68 69  2  0
 69 88  1  0
 70 69  1  0
 70 73  1  0
 71 68  1  0
 71 72  1  0
 72 70  2  0
 73 74  1  0
 74 75  2  0
 76 79  1  0
 76 75  1  0
 77 76  2  0
 78 77  1  0
 78 73  2  0
 79 80  1  0
 80 81  1  0
 81 82  2  0
 83 82  1  0
 83 87  1  0
 84 83  2  0
 85 80  2  0
 85 84  1  0
 86 85  1  0
 88 89  1  0
 89 92  1  0
 89 91  1  0
 90 88  2  0
 93 94  1  0
 93 68  1  0
 95 93  1  0
 96 97  1  0
 97 99  1  0
 98 97  1  0
100 97  1  0
M  ISO  4  15 101  16 101  58 100  66 100
M  END
>  <TORSDO>  (96) 
F 23

>  <SCORE>  (96) 
-11.020

>  <name>  (96) 
95

>  <ligand_id>  (96) 
95

>  <original_smiles>  (96) 
[H]c1c([H])c([H])c2c(c1[H])C([H])([H])C([H])([H])C([H])([H])C2([H])N([H])C(=O)C1([H])N(C(=O)C([H])(N([H])C(=O)C([H])(N([H])C([H])([H])[H])C([H])([H])[H])C(C([H])([H])[H])(C([H])([H])[H])C([H])([H])[H])C([H])([H])c2c([H])c(OC([H])([H])C([H])(C([H])([H])[H])[N+]([H])([H])C([H])([H])c3c([H])c([H])c(C([H])(N([H])C(=O)N4C([H])([H])C([H])([H])C([H])([H])C([H])(n5nc(-c6c([H])c([H])c(Oc7c([H])c([H])c(F)c([H])c7F)c([H])c6[H])c(C(=O)N([H])[H])c5N([H])[H])C4([H])[H])C([H])([H])[N+]([H])([H])[H])c(C([H])([H])[H])c3C([H])([H])[H])c([H])c([H])c2C1([H])[H]

>  <smiles>  (96) 
[H]c1c([H])c([H])c2c(c1[H])C([H])([H])C([H])([H])C([H])([H])C2([H])N([H])C(=O)C1([H])N(C(=O)C([H])(N([H])C(=O)C([H])(N([H])C([H])([H])[H])C([H])([H])[H])C(C([H])([H])[H])(C([H])([H])[H])C([H])([H])[H])C([H])([H])c2c([H])c(OC([H])([H])C([H])(C([H])([H])[H])[N+]([H])([H])C([H])([H])c3c([H])c([H])c(C([H])(N([H])C(=O)N4C([H])([H])C([H])([H])C([H])([H])C([H])(n5nc(-c6c([H])c([H])c(Oc7c([H])c([H])c(F)c([H])c7F)c([H])c6[H])c(C(=O)N([H])[H])c5N([H])[H])C4([H])[H])C([H])([H])[N+]([H])([H])[H])c(C([H])([H])[H])c3C([H])([H])[H])c([H])c([H])c2C1([H])[H]

$$$$
