0:0:0
     RDKit          3D

 94102  0  0  1  0  0  0  0  0999 V2000
  -28.6140  -18.7880   20.2090 C   0  0  0  0  0  2  0  0  0  0  0  0
  -30.8310  -19.8030   19.6190 C   0  0  0  0  0  2  0  0  0  0  0  0
  -28.1290  -20.0460   19.4000 C   0  0  0  0  0  2  0  0  0  0  0  0
  -30.2310  -21.2190   19.9580 C   0  0  0  0  0  2  0  0  0  0  0  0
  -30.1590  -18.5270   20.2420 C   0  0  1  0  0  0  0  0  0  0  0  0
  -28.7450  -21.3460   19.8250 N   0  0  1  0  0  4  0  0  0  0  0  0
  -28.3970  -21.5000   20.7590 H   0  0  0  0  0  0  0  0  0  0  0  0
  -30.6860  -18.2120   21.6850 C   0  0  0  0  0  2  0  0  0  0  0  0
  -30.6250  -20.4990   22.9030 C   0  0  0  0  0  1  0  0  0  0  0  0
  -32.0470  -18.6300   23.7760 C   0  0  0  0  0  1  0  0  0  0  0  0
  -31.4650  -19.2730   22.5060 C   0  0  0  0  0  3  0  0  0  0  0  0
  -30.5750  -17.2630   19.3560 C   0  0  0  0  0  2  0  0  0  0  0  0
  -30.9460  -14.7640   19.6320 C   0  0  0  0  0  0  0  0  0  0  0  0
  -30.7190  -12.4000   18.9360 C   0  0  0  0  0  2  0  0  0  0  0  0
  -29.7200  -12.3290   17.7610 C   0  0  0  0  0  2  0  0  0  0  0  0
  -28.2750  -12.2120   18.2830 C   0  0  0  0  0  2  0  0  0  0  0  0
  -27.9530  -13.2440   19.3980 C   0  0  0  0  0  3  0  0  0  0  0  0
  -29.0660  -13.2920   20.4670 C   0  0  0  0  0  2  0  0  0  0  0  0
  -30.3340  -13.5510   19.7740 N   0  0  0  0  0  0  0  0  0  0  0  0
  -32.0910  -14.8560   19.1800 O   0  0  0  0  0  0  0  0  0  0  0  0
  -30.1760  -15.8810   19.7860 N   0  0  0  0  0  0  0  0  0  0  0  0
  -29.2330  -15.7480   20.1180 H   0  0  0  0  0  0  0  0  0  0  0  0
  -25.6710  -13.9190   20.3630 C   0  0  0  0  0  0  0  0  0  0  0  0
  -24.6000  -13.1820   20.7880 C   0  0  0  0  0  0  0  0  0  0  0  0
  -24.9830  -11.8120   20.6470 C   0  0  0  0  0  0  0  0  0  0  0  0
  -26.6410  -13.0030   19.9900 N   0  0  0  0  0  0  0  0  0  0  0  0
  -26.2370  -11.7270   20.2210 N   0  0  0  0  0  0  0  0  0  0  0  0
  -24.2090  -10.5790   20.8370 C   0  0  0  0  0  0  0  0  0  0  0  0
  -24.6350   -9.5670   21.7260 C   0  0  0  0  0  3  0  0  0  0  0  0
  -23.8640   -8.4000   21.9050 C   0  0  0  0  0  3  0  0  0  0  0  0
  -22.6510   -8.2350   21.1960 C   0  0  0  0  0  0  0  0  0  0  0  0
  -22.2420   -9.2340   20.2950 C   0  0  0  0  0  3  0  0  0  0  0  0
  -23.0140  -10.3930   20.1130 C   0  0  0  0  0  3  0  0  0  0  0  0
  -21.8480   -7.1230   21.2870 O   0  0  0  0  0  0  0  0  0  0  0  0
  -21.7690   -6.3860   22.4410 C   0  0  0  0  0  0  0  0  0  0  0  0
  -21.3690   -6.9610   23.6670 C   0  0  0  0  0  3  0  0  0  0  0  0
  -21.2350   -6.1520   24.8120 C   0  0  0  0  0  3  0  0  0  0  0  0
  -21.4900   -4.7700   24.7340 C   0  0  0  0  0  0  0  0  0  0  0  0
  -21.8830   -4.1950   23.5120 C   0  0  0  0  0  3  0  0  0  0  0  0
  -22.0190   -5.0010   22.3690 C   0  0  0  0  0  0  0  0  0  0  0  0
  -22.3770   -4.4370   21.1900 F   0  0  0  0  0  0  0  0  0  0  0  0
  -21.3530   -3.9910   25.8320 F   0  0  0  0  0  0  0  0  0  0  0  0
  -23.2610  -13.7120   21.2090 C   0  0  0  0  0  0  0  0  0  0  0  0
  -22.5830  -13.0140   22.1150 N   0  0  0  0  0  0  0  0  0  0  0  0
  -22.8290  -14.7770   20.7730 O   0  0  0  0  0  0  0  0  0  0  0  0
  -22.9470  -12.1510   22.4870 H   0  0  0  0  0  0  0  0  0  0  0  0
  -21.6870  -13.3490   22.4400 H   0  0  0  0  0  0  0  0  0  0  0  0
  -25.8950  -15.2880   20.2390 N   0  0  0  0  0  0  0  0  0  0  0  0
  -25.1760  -15.9710   20.4500 H   0  0  0  0  0  0  0  0  0  0  0  0
  -26.7230  -15.7000   19.8300 H   0  0  0  0  0  0  0  0  0  0  0  0
  -28.2670  -22.5470   19.0210 C   0  0  0  0  0  2  0  0  0  0  0  0
  -28.1740  -23.9590   19.7420 C   0  0  0  0  0  3  0  0  0  0  0  0
  -27.9110  -25.1910   18.7820 C   0  0  0  0  0  3  0  0  0  0  0  0
  -27.9120  -26.5470   19.3410 O   0  0  0  0  0  0  0  0  0  0  0  0
  -24.5000  -31.6910   22.9980 C   0  0  0  0  0  0  0  0  0  0  0  0
  -26.7620  -27.3340   19.4370 C   0  0  0  0  0  0  0  0  0  0  0  0
  -23.1360  -30.4330   21.3670 C   0  0  0  0  0  3  0  0  0  0  0  0
  -24.4300  -28.9540   19.7340 C   0  0  0  0  0  0  0  0  0  0  0  0
  -25.6570  -30.7220   21.0020 C   0  0  0  0  0  2  0  0  0  0  0  0
  -25.6490  -29.3920   20.2630 C   0  0  0  0  0  0  0  0  0  0  0  0
  -26.8130  -28.5900   20.1080 C   0  0  0  0  0  3  0  0  0  0  0  0
  -25.5140  -26.9260   18.9160 C   0  0  0  0  0  3  0  0  0  0  0  0
  -24.3610  -27.7250   19.0560 C   0  0  0  0  0  3  0  0  0  0  0  0
  -23.2220  -29.8440   19.9330 C   0  0  0  0  0  2  0  0  0  0  0  0
  -24.4550  -30.9610   21.8450 N   0  0  0  0  0  0  0  0  0  0  0  0
  -23.4690  -31.9520   23.6350 O   0  0  0  0  0  0  0  0  0  0  0  0
  -22.5270  -29.3670   22.3080 C   0  0  0  0  0  0  0  0  0  0  0  0
  -21.1970  -29.1890   22.2330 N   0  0  0  0  0  0  0  0  0  0  0  0
  -23.2460  -28.7060   23.0610 O   0  0  0  0  0  0  0  0  0  0  0  0
  -20.6760  -29.7730   21.5950 H   0  0  0  0  0  0  0  0  0  0  0  0
  -17.8630  -27.8930   22.7620 C   0  0  0  0  0  0  0  0  0  0  0  0
  -20.4180  -28.2110   22.9950 C   0  0  0  0  0  3  0  0  0  0  0  0
  -20.5480  -26.7990   22.3810 C   0  0  0  0  0  2  0  0  0  0  0  0
  -19.4360  -26.4720   21.3790 C   0  0  0  0  0  2  0  0  0  0  0  0
  -18.0630  -26.5650   22.0500 C   0  0  0  0  0  2  0  0  0  0  0  0
  -18.9690  -28.6730   23.1920 C   0  0  0  0  0  0  0  0  0  0  0  0
  -18.7310  -29.9140   23.8190 C   0  0  0  0  0  3  0  0  0  0  0  0
  -17.4170  -30.3780   24.0220 C   0  0  0  0  0  3  0  0  0  0  0  0
  -16.3250  -29.5950   23.6080 C   0  0  0  0  0  3  0  0  0  0  0  0
  -16.5490  -28.3550   22.9840 C   0  0  0  0  0  3  0  0  0  0  0  0
  -25.8440  -32.2510   23.5580 C   0  0  0  0  0  3  0  0  0  0  0  0
  -25.5910  -33.6190   24.0350 N   0  0  0  0  0  0  0  0  0  0  0  0
  -25.8950  -34.7310   23.3530 C   0  0  0  0  0  0  0  0  0  0  0  0
  -26.4910  -34.7110   22.2730 O   0  0  0  0  0  0  0  0  0  0  0  0
  -25.0590  -33.7080   24.8880 H   0  0  0  0  0  0  0  0  0  0  0  0
  -24.1860  -36.5740   23.2900 C   0  0  0  0  0  1  0  0  0  0  0  0
  -25.4730  -36.0780   23.9690 C   0  0  0  0  0  3  0  0  0  0  0  0
  -27.6800  -36.8530   24.7150 C   0  0  0  0  0  1  0  0  0  0  0  0
  -26.5170  -37.1220   23.8740 N   0  0  0  0  0  0  0  0  0  0  0  0
  -26.1440  -38.0310   24.1330 H   0  0  0  0  0  0  0  0  0  0  0  0
  -26.4530  -31.3650   24.7150 C   0  0  1  0  0  0  0  0  0  0  0  0
  -25.4530  -31.0590   25.8550 C   0  0  0  0  0  1  0  0  0  0  0  0
  -26.9620  -30.0150   24.1560 C   0  0  0  0  0  1  0  0  0  0  0  0
  -27.6780  -32.0800   25.3320 C   0  0  0  0  0  1  0  0  0  0  0  0
  1  5  1  0
  2  4  1  0
  2  5  1  0
  3  6  1  0
  3  1  1  0
  5 12  1  6
  5  8  1  0
  6  4  1  0
  6  7  1  1
  8 11  1  0
 11  9  1  0
 11 10  1  0
 12 21  1  0
 13 19  1  0
 13 21  1  0
 14 19  1  0
 15 16  1  0
 15 14  1  0
 17 16  1  0
 17 26  1  0
 17 18  1  0
 19 18  1  0
 20 13  2  0
 21 22  1  0
 23 24  2  0
 24 43  1  0
 25 24  1  0
 25 28  1  0
 26 27  1  0
 26 23  1  0
 27 25  2  0
 28 29  1  0
 29 30  2  0
 31 34  1  0
 31 30  1  0
 32 31  2  0
 33 32  1  0
 33 28  2  0
 34 35  1  0
 35 36  1  0
 36 37  2  0
 38 37  1  0
 38 42  1  0
 39 38  2  0
 40 35  2  0
 40 39  1  0
 41 40  1  0
 43 44  1  0
 44 47  1  0
 44 46  1  0
 45 43  2  0
 48 23  1  0
 48 49  1  0
 50 48  1  0
 51 52  1  0
 51  6  1  0
 53 54  1  0
 53 52  2  0
 54 56  1  0
 55 66  2  0
 56 61  1  0
 57 65  1  0
 57 67  1  0
 58 64  1  0
 58 60  1  0
 59 65  1  0
 60 59  1  0
 61 60  2  0
 62 63  1  0
 62 56  2  0
 63 58  2  0
 64 57  1  0
 65 55  1  0
 67 69  2  0
 68 67  1  0
 70 68  1  0
 71 80  2  0
 71 76  1  0
 72 68  1  0
 72 76  1  0
 73 72  1  0
 74 75  1  0
 74 73  1  0
 75 71  1  0
 76 77  2  0
 77 78  1  0
 79 78  2  0
 80 79  1  0
 81 55  1  0
 81 82  1  0
 81 91  1  0
 82 85  1  0
 83 87  1  0
 83 82  1  0
 84 83  2  0
 87 86  1  0
 89 87  1  0
 89 90  1  0
 89 88  1  0
 91 94  1  1
 91 92  1  0
 93 91  1  0
M  ISO  4  13 100  21 100  53 101  54 101
M  END
>  <TORSDO>  (1) 
F 22

>  <SCORE>  (1) 
-11.007

>  <name>  (1) 
0

>  <ligand_id>  (1) 
0

>  <original_smiles>  (1) 
[H]c1c([H])c([H])c2c(c1[H])C([H])([H])C([H])([H])C([H])([H])C2([H])N([H])C(=O)C1([H])N(C(=O)C([H])(N([H])C(=O)C([H])(N([H])C([H])([H])[H])C([H])([H])[H])C(C([H])([H])[H])(C([H])([H])[H])C([H])([H])[H])C([H])([H])c2c([H])c(OC([H])([H])C([H])([H])C([H])([H])[N+]3([H])C([H])([H])C([H])([H])C(C([H])([H])N([H])C(=O)N4C([H])([H])C([H])([H])C([H])([H])C([H])(n5nc(-c6c([H])c([H])c(Oc7c([H])c([H])c(F)c([H])c7F)c([H])c6[H])c(C(=O)N([H])[H])c5N([H])[H])C4([H])[H])(C([H])([H])C([H])(C([H])([H])[H])C([H])([H])[H])C([H])([H])C3([H])[H])c([H])c([H])c2C1([H])[H]

>  <smiles>  (1) 
[H]c1c([H])c([H])c2c(c1[H])C([H])([H])C([H])([H])C([H])([H])C2([H])N([H])C(=O)C1([H])N(C(=O)C([H])(N([H])C(=O)C([H])(N([H])C([H])([H])[H])C([H])([H])[H])C(C([H])([H])[H])(C([H])([H])[H])C([H])([H])[H])C([H])([H])c2c([H])c(OC([H])([H])C([H])([H])C([H])([H])[N+]3([H])C([H])([H])C([H])([H])C(C([H])([H])N([H])C(=O)N4C([H])([H])C([H])([H])C([H])([H])C([H])(n5nc(-c6c([H])c([H])c(Oc7c([H])c([H])c(F)c([H])c7F)c([H])c6[H])c(C(=O)N([H])[H])c5N([H])[H])C4([H])[H])(C([H])([H])C([H])(C([H])([H])[H])C([H])([H])[H])C([H])([H])C3([H])[H])c([H])c([H])c2C1([H])[H]

$$$$
1:0:0
     RDKit          3D

 90 99  0  0  1  0  0  0  0  0999 V2000
  -31.1140  -22.4710   20.8450 C   0  0  0  0  0  3  0  0  0  0  0  0
  -30.7200  -21.1140   20.7470 C   0  0  0  0  0  3  0  0  0  0  0  0
  -30.2280  -23.5520   20.6180 C   0  0  0  0  0  3  0  0  0  0  0  0
  -29.4050  -20.7240   20.4130 C   0  0  0  0  0  0  0  0  0  0  0  0
  -28.8790  -23.3390   20.2770 C   0  0  0  0  0  0  0  0  0  0  0  0
  -28.5020  -21.8950   20.1810 C   0  0  0  0  0  0  0  0  0  0  0  0
  -27.0590  -21.6020   19.8140 C   0  0  0  0  0  1  0  0  0  0  0  0
  -29.3190  -18.3480   19.0930 C   0  0  0  0  0  2  0  0  0  0  0  0
  -29.0990  -19.0920   20.3800 C   0  0  0  0  0  3  0  0  0  0  0  0
  -30.0420  -17.6980   20.2590 C   0  0  0  0  0  3  0  0  0  0  0  0
  -30.5030  -15.0010   20.3070 C   0  0  0  0  0  0  0  0  0  0  0  0
  -30.3720  -12.6530   19.3600 C   0  0  0  0  0  2  0  0  0  0  0  0
  -29.4340  -12.6260   18.1330 C   0  0  0  0  0  2  0  0  0  0  0  0
  -27.9690  -12.4230   18.5670 C   0  0  0  0  0  2  0  0  0  0  0  0
  -27.5740  -13.3340   19.7590 C   0  0  0  0  0  3  0  0  0  0  0  0
  -28.6350  -13.3320   20.8790 C   0  0  0  0  0  2  0  0  0  0  0  0
  -29.9050  -13.7420   20.2650 N   0  0  0  0  0  0  0  0  0  0  0  0
  -31.7030  -15.0640   20.0160 O   0  0  0  0  0  0  0  0  0  0  0  0
  -29.7180  -16.1820   20.4450 N   0  0  0  0  0  0  0  0  0  0  0  0
  -28.7520  -15.9900   20.6620 H   0  0  0  0  0  0  0  0  0  0  0  0
  -25.1980  -13.9090   20.5180 C   0  0  0  0  0  0  0  0  0  0  0  0
  -24.1360  -13.1340   20.8900 C   0  0  0  0  0  0  0  0  0  0  0  0
  -24.5990  -11.7820   20.8470 C   0  0  0  0  0  0  0  0  0  0  0  0
  -26.2390  -13.0320   20.2640 N   0  0  0  0  0  0  0  0  0  0  0  0
  -25.8890  -11.7470   20.5290 N   0  0  0  0  0  0  0  0  0  0  0  0
  -23.8710  -10.5200   21.0330 C   0  0  0  0  0  0  0  0  0  0  0  0
  -24.2940   -9.5520   21.9700 C   0  0  0  0  0  3  0  0  0  0  0  0
  -23.5640   -8.3570   22.1440 C   0  0  0  0  0  3  0  0  0  0  0  0
  -22.3960   -8.1200   21.3800 C   0  0  0  0  0  0  0  0  0  0  0  0
  -21.9930   -9.0760   20.4310 C   0  0  0  0  0  3  0  0  0  0  0  0
  -22.7230  -10.2630   20.2550 C   0  0  0  0  0  3  0  0  0  0  0  0
  -21.6390   -6.9770   21.4620 O   0  0  0  0  0  0  0  0  0  0  0  0
  -21.5690   -6.2420   22.6190 C   0  0  0  0  0  0  0  0  0  0  0  0
  -21.1110   -6.8020   23.8310 C   0  0  0  0  0  3  0  0  0  0  0  0
  -20.9880   -5.9940   24.9790 C   0  0  0  0  0  3  0  0  0  0  0  0
  -21.3130   -4.6250   24.9150 C   0  0  0  0  0  0  0  0  0  0  0  0
  -21.7630   -4.0640   23.7070 C   0  0  0  0  0  3  0  0  0  0  0  0
  -21.8880   -4.8700   22.5610 C   0  0  0  0  0  0  0  0  0  0  0  0
  -22.3010   -4.3200   21.3950 F   0  0  0  0  0  0  0  0  0  0  0  0
  -21.1880   -3.8470   26.0150 F   0  0  0  0  0  0  0  0  0  0  0  0
  -22.7420  -13.6120   21.1700 C   0  0  0  0  0  0  0  0  0  0  0  0
  -22.0140  -12.9130   22.0350 N   0  0  0  0  0  0  0  0  0  0  0  0
  -22.3050  -14.6410   20.6580 O   0  0  0  0  0  0  0  0  0  0  0  0
  -22.3810  -12.0800   22.4720 H   0  0  0  0  0  0  0  0  0  0  0  0
  -21.0780  -13.2140   22.2620 H   0  0  0  0  0  0  0  0  0  0  0  0
  -25.3610  -15.2820   20.3460 N   0  0  0  0  0  0  0  0  0  0  0  0
  -24.5880  -15.9290   20.4530 H   0  0  0  0  0  0  0  0  0  0  0  0
  -26.1910  -15.7210   19.9690 H   0  0  0  0  0  0  0  0  0  0  0  0
  -27.9140  -24.6590   20.0060 C   0  0  0  0  0  2  0  0  0  0  0  0
  -28.2540  -26.1710   20.2170 O   0  0  0  0  0  0  0  0  0  0  0  0
  -24.6590  -31.8710   23.2490 C   0  0  0  0  0  0  0  0  0  0  0  0
  -27.2140  -27.1790   20.1540 C   0  0  0  0  0  0  0  0  0  0  0  0
  -23.4510  -30.4990   21.5980 C   0  0  0  0  0  3  0  0  0  0  0  0
  -24.8920  -28.9400   20.1490 C   0  0  0  0  0  0  0  0  0  0  0  0
  -26.0070  -30.7580   21.4280 C   0  0  0  0  0  2  0  0  0  0  0  0
  -26.0760  -29.3730   20.7590 C   0  0  0  0  0  0  0  0  0  0  0  0
  -27.2380  -28.5100   20.7440 C   0  0  0  0  0  3  0  0  0  0  0  0
  -26.0020  -26.8560   19.5020 C   0  0  0  0  0  3  0  0  0  0  0  0
  -24.8700  -27.6960   19.5030 C   0  0  0  0  0  3  0  0  0  0  0  0
  -23.6660  -29.8390   20.2100 C   0  0  0  0  0  2  0  0  0  0  0  0
  -24.7260  -31.0640   22.1460 N   0  0  0  0  0  0  0  0  0  0  0  0
  -23.5760  -32.1520   23.7840 O   0  0  0  0  0  0  0  0  0  0  0  0
  -22.7730  -29.4810   22.5490 C   0  0  0  0  0  0  0  0  0  0  0  0
  -21.4440  -29.3130   22.4250 N   0  0  0  0  0  0  0  0  0  0  0  0
  -23.4450  -28.8440   23.3650 O   0  0  0  0  0  0  0  0  0  0  0  0
  -20.9570  -29.8790   21.7440 H   0  0  0  0  0  0  0  0  0  0  0  0
  -18.0620  -28.1140   22.9250 C   0  0  0  0  0  0  0  0  0  0  0  0
  -20.6220  -28.3700   23.1880 C   0  0  0  0  0  3  0  0  0  0  0  0
  -20.7200  -26.9440   22.6000 C   0  0  0  0  0  2  0  0  0  0  0  0
  -19.6150  -26.6320   21.5850 C   0  0  0  0  0  2  0  0  0  0  0  0
  -18.2350  -26.7710   22.2340 C   0  0  0  0  0  2  0  0  0  0  0  0
  -19.1830  -28.8710   23.3590 C   0  0  0  0  0  0  0  0  0  0  0  0
  -18.9650  -30.1260   23.9680 C   0  0  0  0  0  3  0  0  0  0  0  0
  -17.6610  -30.6240   24.1450 C   0  0  0  0  0  3  0  0  0  0  0  0
  -16.5550  -29.8650   23.7250 C   0  0  0  0  0  3  0  0  0  0  0  0
  -16.7560  -28.6110   23.1220 C   0  0  0  0  0  3  0  0  0  0  0  0
  -25.9400  -32.4970   23.8790 C   0  0  0  0  0  3  0  0  0  0  0  0
  -25.6320  -33.8950   24.2230 N   0  0  0  0  0  0  0  0  0  0  0  0
  -25.9370  -34.9550   23.4630 C   0  0  0  0  0  0  0  0  0  0  0  0
  -26.5720  -34.8590   22.4090 O   0  0  0  0  0  0  0  0  0  0  0  0
  -25.0640  -34.0420   25.0440 H   0  0  0  0  0  0  0  0  0  0  0  0
  -24.1770  -36.7360   23.2000 C   0  0  0  0  0  1  0  0  0  0  0  0
  -25.4630  -36.3400   23.9450 C   0  0  0  0  0  3  0  0  0  0  0  0
  -27.6280  -37.2490   24.6660 C   0  0  0  0  0  1  0  0  0  0  0  0
  -26.4790  -37.4030   23.7780 N   0  0  0  0  0  0  0  0  0  0  0  0
  -26.0720  -38.3200   23.9420 H   0  0  0  0  0  0  0  0  0  0  0  0
  -26.4500  -31.7160   25.1530 C   0  0  1  0  0  0  0  0  0  0  0  0
  -25.3530  -31.4780   26.2170 C   0  0  0  0  0  1  0  0  0  0  0  0
  -27.0260  -30.3370   24.7600 C   0  0  0  0  0  1  0  0  0  0  0  0
  -27.6030  -32.5000   25.8220 C   0  0  0  0  0  1  0  0  0  0  0  0
  2  1  1  0
  3  1  2  0
  4  2  2  0
  5  3  1  0
  6  5  2  0
  6  4  1  0
  7  6  1  0
  8 10  1  0
  8  9  1  0
  9  4  1  0
 10  9  1  0
 10 19  1  0
 11 19  1  0
 12 17  1  0
 13 14  1  0
 13 12  1  0
 15 14  1  0
 15 24  1  0
 15 16  1  0
 17 11  1  0
 17 16  1  0
 18 11  2  0
 19 20  1  0
 21 22  2  0
 22 41  1  0
 23 22  1  0
 23 26  1  0
 24 21  1  0
 24 25  1  0
 25 23  2  0
 26 27  1  0
 27 28  2  0
 29 32  1  0
 29 28  1  0
 30 29  2  0
 31 30  1  0
 31 26  2  0
 32 33  1  0
 33 34  1  0
 34 35  2  0
 36 35  1  0
 36 40  1  0
 37 36  2  0
 38 33  2  0
 38 37  1  0
 39 38  1  0
 41 42  1  0
 42 45  1  0
 42 44  1  0
 43 41  2  0
 46 47  1  0
 46 21  1  0
 48 46  1  0
 49 50  1  0
 49  5  1  0
 51 62  2  0
 52 50  1  0
 52 57  1  0
 53 61  1  0
 53 63  1  0
 54 60  1  0
 54 56  1  0
 55 61  1  0
 56 55  1  0
 57 56  2  0
 58 59  1  0
 58 52  2  0
 59 54  2  0
 60 53  1  0
 61 51  1  0
 63 65  2  0
 64 63  1  0
 66 64  1  0
 67 76  2  0
 67 72  1  0
 68 64  1  0
 68 72  1  0
 69 68  1  0
 70 71  1  0
 70 69  1  0
 71 67  1  0
 72 73  2  0
 73 74  1  0
 75 74  2  0
 76 75  1  0
 77 51  1  0
 77 78  1  0
 77 87  1  0
 78 81  1  0
 79 83  1  0
 79 78  1  0
 80 79  2  0
 83 82  1  0
 85 86  1  0
 85 83  1  0
 85 84  1  0
 87 90  1  1
 87 88  1  0
 89 87  1  0
M  ISO  4  11 100  19 100  49 101  50 101
M  END
>  <TORSDO>  (2) 
F 18

>  <SCORE>  (2) 
-14.481

>  <name>  (2) 
1

>  <ligand_id>  (2) 
1

>  <original_smiles>  (2) 
[H]c1c([H])c([H])c2c(c1[H])C([H])([H])C([H])([H])C([H])([H])C2([H])N([H])C(=O)C1([H])N(C(=O)C([H])(N([H])C(=O)C([H])(N([H])C([H])([H])[H])C([H])([H])[H])C(C([H])([H])[H])(C([H])([H])[H])C([H])([H])[H])C([H])([H])c2c([H])c(OC([H])([H])c3c([H])c([H])c([H])c(C4([H])C([H])([H])C4([H])N([H])C(=O)N4C([H])([H])C([H])([H])C([H])([H])C([H])(n5nc(-c6c([H])c([H])c(Oc7c([H])c([H])c(F)c([H])c7F)c([H])c6[H])c(C(=O)N([H])[H])c5N([H])[H])C4([H])[H])c3C([H])([H])[H])c([H])c([H])c2C1([H])[H]

>  <smiles>  (2) 
[H]c1c([H])c([H])c2c(c1[H])C([H])([H])C([H])([H])C([H])([H])C2([H])N([H])C(=O)C1([H])N(C(=O)C([H])(N([H])C(=O)C([H])(N([H])C([H])([H])[H])C([H])([H])[H])C(C([H])([H])[H])(C([H])([H])[H])C([H])([H])[H])C([H])([H])c2c([H])c(OC([H])([H])c3c([H])c([H])c([H])c(C4([H])C([H])([H])C4([H])N([H])C(=O)N4C([H])([H])C([H])([H])C([H])([H])C([H])(n5nc(-c6c([H])c([H])c(Oc7c([H])c([H])c(F)c([H])c7F)c([H])c6[H])c(C(=O)N([H])[H])c5N([H])[H])C4([H])[H])c3C([H])([H])[H])c([H])c([H])c2C1([H])[H]

$$$$
2:0:0
     RDKit          3D

 89 98  0  0  1  0  0  0  0  0999 V2000
  -26.8950  -21.4890   19.7930 C   0  0  0  0  0  2  0  0  0  0  0  0
  -27.3760  -21.6860   21.2000 C   0  0  0  0  0  2  0  0  0  0  0  0
  -28.3930  -21.5650   20.0650 C   0  0  1  0  0  0  0  0  0  0  0  0
  -30.8090  -18.0830   19.4060 C   0  0  0  0  0  3  0  0  0  0  0  0
  -28.8620  -17.3640   20.4200 C   0  0  0  0  0  3  0  0  0  0  0  0
  -30.3550  -19.4930   19.4550 C   0  0  0  0  0  3  0  0  0  0  0  0
  -28.4160  -18.7710   20.4590 C   0  0  0  0  0  3  0  0  0  0  0  0
  -30.1070  -16.8900   19.8700 C   0  0  0  0  0  0  0  0  0  0  0  0
  -29.1010  -19.9800   19.9910 C   0  0  0  0  0  0  0  0  0  0  0  0
  -30.7310  -15.3550   19.7790 C   0  0  0  0  0  0  0  0  0  0  0  0
  -30.5700  -12.9360   18.9420 C   0  0  0  0  0  2  0  0  0  0  0  0
  -29.5690  -12.7800   17.7730 C   0  0  0  0  0  2  0  0  0  0  0  0
  -28.1530  -12.5250   18.3140 C   0  0  0  0  0  2  0  0  0  0  0  0
  -27.7890  -13.4870   19.4730 C   0  0  0  0  0  3  0  0  0  0  0  0
  -28.9150  -13.6320   20.5170 C   0  0  0  0  0  2  0  0  0  0  0  0
  -30.1160  -14.0830   19.8050 N   0  0  0  0  0  0  0  0  0  0  0  0
  -31.9240  -15.2990   19.4490 O   0  0  0  0  0  0  0  0  0  0  0  0
  -25.5070  -14.0250   20.4760 C   0  0  0  0  0  0  0  0  0  0  0  0
  -24.4740  -13.2380   20.8990 C   0  0  0  0  0  0  0  0  0  0  0  0
  -24.9160  -11.8880   20.7490 C   0  0  0  0  0  0  0  0  0  0  0  0
  -26.5090  -13.1560   20.0850 N   0  0  0  0  0  0  0  0  0  0  0  0
  -26.1730  -11.8600   20.3170 N   0  0  0  0  0  0  0  0  0  0  0  0
  -24.1910  -10.6230   20.9320 C   0  0  0  0  0  0  0  0  0  0  0  0
  -24.6210   -9.6510   21.8620 C   0  0  0  0  0  3  0  0  0  0  0  0
  -23.8930   -8.4540   22.0360 C   0  0  0  0  0  3  0  0  0  0  0  0
  -22.7210   -8.2190   21.2780 C   0  0  0  0  0  0  0  0  0  0  0  0
  -22.3100   -9.1790   20.3370 C   0  0  0  0  0  3  0  0  0  0  0  0
  -23.0380  -10.3680   20.1610 C   0  0  0  0  0  3  0  0  0  0  0  0
  -21.9650   -7.0750   21.3600 O   0  0  0  0  0  0  0  0  0  0  0  0
  -21.8110   -6.3960   22.5430 C   0  0  0  0  0  0  0  0  0  0  0  0
  -21.2600   -7.0110   23.6880 C   0  0  0  0  0  3  0  0  0  0  0  0
  -21.0550   -6.2580   24.8610 C   0  0  0  0  0  3  0  0  0  0  0  0
  -21.3910   -4.8920   24.8890 C   0  0  0  0  0  0  0  0  0  0  0  0
  -21.9350   -4.2760   23.7480 C   0  0  0  0  0  3  0  0  0  0  0  0
  -22.1410   -5.0270   22.5770 C   0  0  0  0  0  0  0  0  0  0  0  0
  -22.6450   -4.4230   21.4740 F   0  0  0  0  0  0  0  0  0  0  0  0
  -21.1890   -4.1660   26.0140 F   0  0  0  0  0  0  0  0  0  0  0  0
  -23.1140  -13.7110   21.3200 C   0  0  0  0  0  0  0  0  0  0  0  0
  -22.4610  -12.9820   22.2170 N   0  0  0  0  0  0  0  0  0  0  0  0
  -22.6440  -14.7640   20.8890 O   0  0  0  0  0  0  0  0  0  0  0  0
  -22.8570  -12.1290   22.5850 H   0  0  0  0  0  0  0  0  0  0  0  0
  -21.5510  -13.2790   22.5400 H   0  0  0  0  0  0  0  0  0  0  0  0
  -25.6710  -15.4020   20.3610 N   0  0  0  0  0  0  0  0  0  0  0  0
  -24.9200  -16.0500   20.5750 H   0  0  0  0  0  0  0  0  0  0  0  0
  -26.4690  -15.8510   19.9310 H   0  0  0  0  0  0  0  0  0  0  0  0
  -28.9230  -23.1540   19.7340 C   0  0  0  0  0  0  0  0  0  0  0  0
  -30.1200  -23.2840   19.4520 O   0  0  0  0  0  0  0  0  0  0  0  0
  -27.9730  -24.5950   19.7540 C   0  0  0  0  0  2  0  0  0  0  0  0
  -28.2890  -26.1740   19.7520 O   0  0  0  0  0  0  0  0  0  0  0  0
  -24.7290  -31.8380   23.0790 C   0  0  0  0  0  0  0  0  0  0  0  0
  -27.2540  -27.2150   19.7710 C   0  0  0  0  0  0  0  0  0  0  0  0
  -23.5030  -30.5100   21.4060 C   0  0  0  0  0  3  0  0  0  0  0  0
  -24.9280  -29.0060   19.8710 C   0  0  0  0  0  0  0  0  0  0  0  0
  -26.0560  -30.7840   21.1960 C   0  0  0  0  0  2  0  0  0  0  0  0
  -26.1250  -29.4160   20.4740 C   0  0  0  0  0  0  0  0  0  0  0  0
  -27.2870  -28.5410   20.4000 C   0  0  0  0  0  3  0  0  0  0  0  0
  -26.0280  -26.9320   19.1330 C   0  0  0  0  0  3  0  0  0  0  0  0
  -24.8990  -27.7840   19.1810 C   0  0  0  0  0  3  0  0  0  0  0  0
  -23.6990  -29.8990   19.9920 C   0  0  0  0  0  2  0  0  0  0  0  0
  -24.7840  -31.0660   21.9490 N   0  0  0  0  0  0  0  0  0  0  0  0
  -23.6520  -32.0880   23.6450 O   0  0  0  0  0  0  0  0  0  0  0  0
  -22.8500  -29.4570   22.3370 C   0  0  0  0  0  0  0  0  0  0  0  0
  -21.5190  -29.2860   22.2400 N   0  0  0  0  0  0  0  0  0  0  0  0
  -23.5460  -28.7960   23.1140 O   0  0  0  0  0  0  0  0  0  0  0  0
  -21.0120  -29.8690   21.5910 H   0  0  0  0  0  0  0  0  0  0  0  0
  -18.1590  -28.0440   22.7980 C   0  0  0  0  0  0  0  0  0  0  0  0
  -20.7260  -28.3050   22.9880 C   0  0  0  0  0  3  0  0  0  0  0  0
  -20.8090  -26.9070   22.3320 C   0  0  0  0  0  2  0  0  0  0  0  0
  -19.6730  -26.6350   21.3420 C   0  0  0  0  0  2  0  0  0  0  0  0
  -18.3140  -26.7370   22.0400 C   0  0  0  0  0  2  0  0  0  0  0  0
  -19.2890  -28.7880   23.2290 C   0  0  0  0  0  0  0  0  0  0  0  0
  -19.0860  -30.0120   23.9030 C   0  0  0  0  0  3  0  0  0  0  0  0
  -17.7860  -30.4940   24.1470 C   0  0  0  0  0  3  0  0  0  0  0  0
  -16.6700  -29.7480   23.7290 C   0  0  0  0  0  3  0  0  0  0  0  0
  -16.8580  -28.5240   23.0610 C   0  0  0  0  0  3  0  0  0  0  0  0
  -26.0120  -32.4600   23.7070 C   0  0  0  0  0  3  0  0  0  0  0  0
  -26.5590  -31.6390   24.9390 C   0  0  1  0  0  0  0  0  0  0  0  0
  -25.4920  -31.3510   26.0200 C   0  0  0  0  0  1  0  0  0  0  0  0
  -27.1410  -30.2810   24.4840 C   0  0  0  0  0  1  0  0  0  0  0  0
  -27.7210  -32.4100   25.6100 C   0  0  0  0  0  1  0  0  0  0  0  0
  -25.6930  -33.8380   24.1160 N   0  0  0  0  0  0  0  0  0  0  0  0
  -25.9600  -34.9340   23.3930 C   0  0  0  0  0  0  0  0  0  0  0  0
  -26.5660  -34.8930   22.3200 O   0  0  0  0  0  0  0  0  0  0  0  0
  -25.1450  -33.9420   24.9570 H   0  0  0  0  0  0  0  0  0  0  0  0
  -24.1650  -36.6960   23.2630 C   0  0  0  0  0  1  0  0  0  0  0  0
  -25.4800  -36.2920   23.9470 C   0  0  0  0  0  3  0  0  0  0  0  0
  -27.6530  -37.2080   24.6360 C   0  0  0  0  0  1  0  0  0  0  0  0
  -26.4740  -37.3760   23.7910 N   0  0  0  0  0  0  0  0  0  0  0  0
  -26.0590  -38.2790   24.0030 H   0  0  0  0  0  0  0  0  0  0  0  0
  1  3  1  0
  1  2  1  0
  3  2  1  0
  4  6  2  0
  4  8  1  0
  5  7  1  0
  6  9  1  0
  8  5  2  0
  9  3  1  0
  9  7  2  0
 10 16  1  0
 10  8  1  0
 11 16  1  0
 12 13  1  0
 12 11  1  0
 14 13  1  0
 14 21  1  0
 14 15  1  0
 16 15  1  0
 17 10  2  0
 18 19  2  0
 19 38  1  0
 20 19  1  0
 20 23  1  0
 21 22  1  0
 21 18  1  0
 22 20  2  0
 23 24  1  0
 24 25  2  0
 26 29  1  0
 26 25  1  0
 27 26  2  0
 28 27  1  0
 28 23  2  0
 29 30  1  0
 30 35  2  0
 30 31  1  0
 31 32  2  0
 32 33  1  0
 33 37  1  0
 34 33  2  0
 35 34  1  0
 36 35  1  0
 38 39  1  0
 39 42  1  0
 39 41  1  0
 40 38  2  0
 43 18  1  0
 43 44  1  0
 45 43  1  0
 46 48  1  0
  3 46  1  6
 47 46  2  0
 49 48  1  0
 49 51  1  0
 50 61  2  0
 51 56  1  0
 52 60  1  0
 52 62  1  0
 53 59  1  0
 53 55  1  0
 54 60  1  0
 55 54  1  0
 56 55  2  0
 57 58  1  0
 57 51  2  0
 58 53  2  0
 59 52  1  0
 60 50  1  0
 62 64  2  0
 63 62  1  0
 65 63  1  0
 66 75  2  0
 66 71  1  0
 67 63  1  0
 67 71  1  0
 68 67  1  0
 69 70  1  0
 69 68  1  0
 70 66  1  0
 71 72  2  0
 72 73  1  0
 74 73  2  0
 75 74  1  0
 76 50  1  0
 76 81  1  0
 76 77  1  0
 77 80  1  1
 77 78  1  0
 79 77  1  0
 81 84  1  0
 82 86  1  0
 82 81  1  0
 83 82  2  0
 86 85  1  0
 88 86  1  0
 88 89  1  0
 88 87  1  0
M  ISO  4   8 100  10 100  48 101  49 101
M  END
>  <TORSDO>  (3) 
F 19

>  <SCORE>  (3) 
-14.473

>  <name>  (3) 
2

>  <ligand_id>  (3) 
2

>  <original_smiles>  (3) 
[H]c1c([H])c([H])c2c(c1[H])C([H])([H])C([H])([H])C([H])([H])C2([H])N([H])C(=O)C1([H])N(C(=O)C([H])(N([H])C(=O)C([H])(N([H])C([H])([H])[H])C([H])([H])[H])C(C([H])([H])[H])(C([H])([H])[H])C([H])([H])[H])C([H])([H])c2c([H])c(OC([H])([H])C(=O)C3(c4c([H])c([H])c(C(=O)N5C([H])([H])C([H])([H])C([H])([H])C([H])(n6nc(-c7c([H])c([H])c(Oc8c([H])c([H])c(F)c([H])c8F)c([H])c7[H])c(C(=O)N([H])[H])c6N([H])[H])C5([H])[H])c([H])c4[H])C([H])([H])C3([H])[H])c([H])c([H])c2C1([H])[H]

>  <smiles>  (3) 
[H]c1c([H])c([H])c2c(c1[H])C([H])([H])C([H])([H])C([H])([H])C2([H])N([H])C(=O)C1([H])N(C(=O)C([H])(N([H])C(=O)C([H])(N([H])C([H])([H])[H])C([H])([H])[H])C(C([H])([H])[H])(C([H])([H])[H])C([H])([H])[H])C([H])([H])c2c([H])c(OC([H])([H])C(=O)C3(c4c([H])c([H])c(C(=O)N5C([H])([H])C([H])([H])C([H])([H])C([H])(n6nc(-c7c([H])c([H])c(Oc8c([H])c([H])c(F)c([H])c8F)c([H])c7[H])c(C(=O)N([H])[H])c6N([H])[H])C5([H])[H])c([H])c4[H])C([H])([H])C3([H])[H])c([H])c([H])c2C1([H])[H]

$$$$
3:0:0
     RDKit          3D

 92100  0  0  1  0  0  0  0  0999 V2000
  -29.1140  -22.5630   20.6970 C   0  0  0  0  0  3  0  0  0  0  0  0
  -26.8900  -21.8520   19.2420 C   0  0  0  0  0  3  0  0  0  0  0  0
  -28.9970  -21.1590   20.2810 C   0  0  0  0  0  0  0  0  0  0  0  0
  -28.1450  -23.6250   20.4170 C   0  0  0  0  0  0  0  0  0  0  0  0
  -27.8690  -20.8650   19.4670 C   0  0  0  0  0  0  0  0  0  0  0  0
  -26.9680  -23.1550   19.7680 C   0  0  0  0  0  0  0  0  0  0  0  0
  -27.5670  -19.4850   18.9090 C   0  0  0  0  0  1  0  0  0  0  0  0
  -25.6650  -23.9250   19.7130 C   0  0  0  0  0  1  0  0  0  0  0  0
  -29.8840  -20.0010   20.8690 C   0  0  0  0  0  0  0  0  0  0  0  0
  -30.3290  -20.1390   22.0120 O   0  0  0  0  0  0  0  0  0  0  0  0
  -30.3710  -18.6570   20.1170 C   0  0  0  0  0  2  0  0  0  0  0  0
  -29.6130  -17.2220   20.1730 C   0  0  0  0  0  2  0  0  0  0  0  0
  -30.8490  -14.8380   20.2170 C   0  0  0  0  0  0  0  0  0  0  0  0
  -30.6480  -12.5560   19.2100 C   0  0  0  0  0  2  0  0  0  0  0  0
  -29.6930  -12.6410   17.9960 C   0  0  0  0  0  2  0  0  0  0  0  0
  -28.2260  -12.4820   18.4390 C   0  0  0  0  0  2  0  0  0  0  0  0
  -27.8780  -13.3690   19.6620 C   0  0  0  0  0  3  0  0  0  0  0  0
  -28.9460  -13.2510   20.7750 C   0  0  0  0  0  2  0  0  0  0  0  0
  -30.2520  -13.5960   20.1900 N   0  0  0  0  0  0  0  0  0  0  0  0
  -31.9500  -15.0110   19.6870 O   0  0  0  0  0  0  0  0  0  0  0  0
  -30.1230  -15.8910   20.7460 N   0  0  0  0  0  0  0  0  0  0  0  0
  -29.4500  -15.5200   21.4020 H   0  0  0  0  0  0  0  0  0  0  0  0
  -25.5010  -13.9900   20.4090 C   0  0  0  0  0  0  0  0  0  0  0  0
  -24.4300  -13.2300   20.7950 C   0  0  0  0  0  0  0  0  0  0  0  0
  -24.8760  -11.8730   20.7590 C   0  0  0  0  0  0  0  0  0  0  0  0
  -26.5320  -13.1000   20.1610 N   0  0  0  0  0  0  0  0  0  0  0  0
  -26.1630  -11.8210   20.4330 N   0  0  0  0  0  0  0  0  0  0  0  0
  -24.1390  -10.6190   20.9640 C   0  0  0  0  0  0  0  0  0  0  0  0
  -24.5520   -9.6660   21.9200 C   0  0  0  0  0  3  0  0  0  0  0  0
  -23.8160   -8.4770   22.1120 C   0  0  0  0  0  3  0  0  0  0  0  0
  -22.6510   -8.2320   21.3470 C   0  0  0  0  0  0  0  0  0  0  0  0
  -22.2560   -9.1740   20.3800 C   0  0  0  0  0  3  0  0  0  0  0  0
  -22.9930  -10.3540   20.1870 C   0  0  0  0  0  3  0  0  0  0  0  0
  -21.8880   -7.0930   21.4450 O   0  0  0  0  0  0  0  0  0  0  0  0
  -21.7970   -6.3880   22.6180 C   0  0  0  0  0  0  0  0  0  0  0  0
  -21.3030   -6.9750   23.8020 C   0  0  0  0  0  3  0  0  0  0  0  0
  -21.1600   -6.1940   24.9680 C   0  0  0  0  0  3  0  0  0  0  0  0
  -21.5010   -4.8280   24.9470 C   0  0  0  0  0  0  0  0  0  0  0  0
  -21.9870   -4.2410   23.7650 C   0  0  0  0  0  3  0  0  0  0  0  0
  -22.1320   -5.0190   22.6040 C   0  0  0  0  0  0  0  0  0  0  0  0
  -22.5810   -4.4430   21.4620 F   0  0  0  0  0  0  0  0  0  0  0  0
  -21.3550   -4.0750   26.0620 F   0  0  0  0  0  0  0  0  0  0  0  0
  -23.0410  -13.7220   21.0840 C   0  0  0  0  0  0  0  0  0  0  0  0
  -22.3200  -13.0370   21.9630 N   0  0  0  0  0  0  0  0  0  0  0  0
  -22.6070  -14.7500   20.5660 O   0  0  0  0  0  0  0  0  0  0  0  0
  -22.6830  -12.2060   22.4030 H   0  0  0  0  0  0  0  0  0  0  0  0
  -21.3890  -13.3500   22.2010 H   0  0  0  0  0  0  0  0  0  0  0  0
  -25.6780  -15.3580   20.2250 N   0  0  0  0  0  0  0  0  0  0  0  0
  -24.9160  -16.0160   20.3370 H   0  0  0  0  0  0  0  0  0  0  0  0
  -26.5240  -15.7820   19.8670 H   0  0  0  0  0  0  0  0  0  0  0  0
  -28.2270  -25.1230   21.0300 C   0  0  0  0  0  2  0  0  0  0  0  0
  -28.3170  -26.4070   20.2330 O   0  0  0  0  0  0  0  0  0  0  0  0
  -24.5750  -31.8900   23.2670 C   0  0  0  0  0  0  0  0  0  0  0  0
  -27.2530  -27.3360   20.2240 C   0  0  0  0  0  0  0  0  0  0  0  0
  -23.4120  -30.5090   21.5850 C   0  0  0  0  0  3  0  0  0  0  0  0
  -24.9030  -28.9870   20.1610 C   0  0  0  0  0  0  0  0  0  0  0  0
  -25.9560  -30.8230   21.4690 C   0  0  0  0  0  2  0  0  0  0  0  0
  -26.0520  -29.4460   20.8160 C   0  0  0  0  0  0  0  0  0  0  0  0
  -27.2290  -28.6260   20.8570 C   0  0  0  0  0  3  0  0  0  0  0  0
  -26.1260  -27.0090   19.4530 C   0  0  0  0  0  3  0  0  0  0  0  0
  -24.9430  -27.7710   19.4650 C   0  0  0  0  0  3  0  0  0  0  0  0
  -23.6600  -29.8570   20.1980 C   0  0  0  0  0  2  0  0  0  0  0  0
  -24.6650  -31.0930   22.1630 N   0  0  0  0  0  0  0  0  0  0  0  0
  -23.4810  -32.1570   23.7830 O   0  0  0  0  0  0  0  0  0  0  0  0
  -22.7320  -29.4760   22.5180 C   0  0  0  0  0  0  0  0  0  0  0  0
  -21.4080  -29.3020   22.3690 N   0  0  0  0  0  0  0  0  0  0  0  0
  -23.3980  -28.8380   23.3370 O   0  0  0  0  0  0  0  0  0  0  0  0
  -20.9280  -29.8740   21.6880 H   0  0  0  0  0  0  0  0  0  0  0  0
  -18.0160  -28.1230   22.8360 C   0  0  0  0  0  0  0  0  0  0  0  0
  -20.5770  -28.3520   23.1140 C   0  0  0  0  0  3  0  0  0  0  0  0
  -20.6650  -26.9340   22.5030 C   0  0  0  0  0  2  0  0  0  0  0  0
  -19.5630  -26.6490   21.4790 C   0  0  0  0  0  2  0  0  0  0  0  0
  -18.1820  -26.7900   22.1240 C   0  0  0  0  0  2  0  0  0  0  0  0
  -19.1420  -28.8640   23.2860 C   0  0  0  0  0  0  0  0  0  0  0  0
  -18.9330  -30.1120   23.9120 C   0  0  0  0  0  3  0  0  0  0  0  0
  -17.6320  -30.6210   24.0900 C   0  0  0  0  0  3  0  0  0  0  0  0
  -16.5220  -29.8770   23.6530 C   0  0  0  0  0  3  0  0  0  0  0  0
  -16.7150  -28.6300   23.0320 C   0  0  0  0  0  3  0  0  0  0  0  0
  -25.8430  -32.5210   23.9210 C   0  0  0  0  0  3  0  0  0  0  0  0
  -26.3100  -31.7630   25.2240 C   0  0  1  0  0  0  0  0  0  0  0  0
  -25.1790  -31.5450   26.2560 C   0  0  0  0  0  1  0  0  0  0  0  0
  -26.8960  -30.3750   24.8750 C   0  0  0  0  0  1  0  0  0  0  0  0
  -27.4440  -32.5560   25.9120 C   0  0  0  0  0  1  0  0  0  0  0  0
  -25.5360  -33.9260   24.2230 N   0  0  0  0  0  0  0  0  0  0  0  0
  -25.8940  -34.9660   23.4570 C   0  0  0  0  0  0  0  0  0  0  0  0
  -26.5850  -34.8420   22.4420 O   0  0  0  0  0  0  0  0  0  0  0  0
  -24.9250  -34.0970   25.0070 H   0  0  0  0  0  0  0  0  0  0  0  0
  -24.1900  -36.7680   23.0350 C   0  0  0  0  0  1  0  0  0  0  0  0
  -25.4080  -36.3650   23.8820 C   0  0  0  0  0  3  0  0  0  0  0  0
  -27.5260  -37.2490   24.7560 C   0  0  0  0  0  1  0  0  0  0  0  0
  -26.4520  -37.4080   23.7780 N   0  0  0  0  0  0  0  0  0  0  0  0
  -26.0510  -38.3340   23.8960 H   0  0  0  0  0  0  0  0  0  0  0  0
  2  5  2  0
  2  6  1  0
  3  1  2  0
  3  9  1  0
  4  1  1  0
  4 51  1  0
  5  3  1  0
  6  4  2  0
  7  5  1  0
  8  6  1  0
  9 10  2  0
 11 12  1  0
 11  9  1  0
 12 21  1  0
 13 21  1  0
 14 19  1  0
 15 16  1  0
 15 14  1  0
 17 16  1  0
 17 26  1  0
 17 18  1  0
 19 13  1  0
 19 18  1  0
 20 13  2  0
 21 22  1  0
 23 24  2  0
 24 43  1  0
 25 24  1  0
 25 28  1  0
 26 23  1  0
 26 27  1  0
 27 25  2  0
 28 29  1  0
 29 30  2  0
 31 34  1  0
 31 30  1  0
 32 31  2  0
 33 32  1  0
 33 28  2  0
 34 35  1  0
 35 36  1  0
 36 37  2  0
 38 37  1  0
 38 42  1  0
 39 38  2  0
 40 35  2  0
 40 39  1  0
 41 40  1  0
 43 44  1  0
 44 47  1  0
 44 46  1  0
 45 43  2  0
 48 49  1  0
 48 23  1  0
 50 48  1  0
 52 51  1  0
 53 64  2  0
 54 52  1  0
 54 59  1  0
 55 63  1  0
 55 65  1  0
 56 62  1  0
 56 58  1  0
 57 63  1  0
 58 59  2  0
 58 57  1  0
 60 61  1  0
 60 54  2  0
 61 56  2  0
 62 55  1  0
 63 53  1  0
 65 67  2  0
 66 65  1  0
 68 66  1  0
 69 78  2  0
 69 74  1  0
 70 66  1  0
 70 74  1  0
 71 70  1  0
 72 73  1  0
 72 71  1  0
 73 69  1  0
 74 75  2  0
 75 76  1  0
 77 76  2  0
 78 77  1  0
 79 53  1  0
 79 84  1  0
 79 80  1  0
 80 83  1  1
 80 81  1  0
 82 80  1  0
 84 87  1  0
 85 89  1  0
 85 84  1  0
 86 85  2  0
 89 88  1  0
 91 89  1  0
 91 92  1  0
 91 90  1  0
M  ISO  4  13 100  21 100  51 101  52 101
M  END
>  <TORSDO>  (4) 
F 20

>  <SCORE>  (4) 
-13.932

>  <name>  (4) 
3

>  <ligand_id>  (4) 
3

>  <original_smiles>  (4) 
[H]c1c([H])c([H])c2c(c1[H])C([H])([H])C([H])([H])C([H])([H])C2([H])N([H])C(=O)C1([H])N(C(=O)C([H])(N([H])C(=O)C([H])(N([H])C([H])([H])[H])C([H])([H])[H])C(C([H])([H])[H])(C([H])([H])[H])C([H])([H])[H])C([H])([H])c2c([H])c(OC([H])([H])c3c([H])c(C(=O)C([H])([H])C([H])([H])N([H])C(=O)N4C([H])([H])C([H])([H])C([H])([H])C([H])(n5nc(-c6c([H])c([H])c(Oc7c([H])c([H])c(F)c([H])c7F)c([H])c6[H])c(C(=O)N([H])[H])c5N([H])[H])C4([H])[H])c(C([H])([H])[H])c([H])c3C([H])([H])[H])c([H])c([H])c2C1([H])[H]

>  <smiles>  (4) 
[H]c1c([H])c([H])c2c(c1[H])C([H])([H])C([H])([H])C([H])([H])C2([H])N([H])C(=O)C1([H])N(C(=O)C([H])(N([H])C(=O)C([H])(N([H])C([H])([H])[H])C([H])([H])[H])C(C([H])([H])[H])(C([H])([H])[H])C([H])([H])[H])C([H])([H])c2c([H])c(OC([H])([H])c3c([H])c(C(=O)C([H])([H])C([H])([H])N([H])C(=O)N4C([H])([H])C([H])([H])C([H])([H])C([H])(n5nc(-c6c([H])c([H])c(Oc7c([H])c([H])c(F)c([H])c7F)c([H])c6[H])c(C(=O)N([H])[H])c5N([H])[H])C4([H])[H])c(C([H])([H])[H])c([H])c3C([H])([H])[H])c([H])c([H])c2C1([H])[H]

$$$$
4:0:0
     RDKit          3D

 89 98  0  0  1  0  0  0  0  0999 V2000
  -27.4710  -22.2010   21.4700 C   0  0  0  0  0  2  0  0  0  0  0  0
  -27.5870  -23.6890   21.2080 C   0  0  0  0  0  3  0  0  0  0  0  0
  -28.6430  -23.4350   20.1530 C   0  0  0  0  0  3  0  0  0  0  0  0
  -28.4370  -21.9020   20.3280 C   0  0  0  0  0  3  0  0  0  0  0  0
  -28.8880  -24.4550   21.2900 C   0  0  0  0  0  3  0  0  0  0  0  0
  -29.6780  -20.9700   20.5150 C   0  0  0  0  0  2  0  0  0  0  0  0
  -29.4120  -19.5450   21.1450 C   0  0  0  0  0  2  0  0  0  0  0  0
  -29.8130  -18.2430   20.3480 C   0  0  0  0  0  2  0  0  0  0  0  0
  -30.3420  -17.0400   21.2250 C   0  0  0  0  0  2  0  0  0  0  0  0
  -30.6990  -14.6470   20.3210 C   0  0  0  0  0  0  0  0  0  0  0  0
  -30.4410  -12.4690   19.1660 C   0  0  0  0  0  2  0  0  0  0  0  0
  -29.4790  -12.6420   17.9720 C   0  0  0  0  0  2  0  0  0  0  0  0
  -28.0110  -12.4850   18.4170 C   0  0  0  0  0  2  0  0  0  0  0  0
  -27.6770  -13.3240   19.6800 C   0  0  0  0  0  3  0  0  0  0  0  0
  -28.7470  -13.1150   20.7750 C   0  0  0  0  0  2  0  0  0  0  0  0
  -30.0550  -13.4530   20.1900 N   0  0  0  0  0  0  0  0  0  0  0  0
  -31.8410  -14.8350   19.8920 O   0  0  0  0  0  0  0  0  0  0  0  0
  -29.9510  -15.6600   20.8240 N   0  0  0  0  0  0  0  0  0  0  0  0
  -29.0120  -15.3850   21.0740 H   0  0  0  0  0  0  0  0  0  0  0  0
  -25.2840  -13.9350   20.4050 C   0  0  0  0  0  0  0  0  0  0  0  0
  -24.2190  -13.1640   20.7900 C   0  0  0  0  0  0  0  0  0  0  0  0
  -24.6820  -11.8120   20.7690 C   0  0  0  0  0  0  0  0  0  0  0  0
  -26.3290  -13.0520   20.1720 N   0  0  0  0  0  0  0  0  0  0  0  0
  -25.9710  -11.7710   20.4500 N   0  0  0  0  0  0  0  0  0  0  0  0
  -23.9570  -10.5520   20.9750 C   0  0  0  0  0  0  0  0  0  0  0  0
  -24.3990   -9.5930   21.9110 C   0  0  0  0  0  3  0  0  0  0  0  0
  -23.6770   -8.3950   22.1040 C   0  0  0  0  0  3  0  0  0  0  0  0
  -22.5000   -8.1490   21.3570 C   0  0  0  0  0  0  0  0  0  0  0  0
  -22.0770   -9.0970   20.4100 C   0  0  0  0  0  3  0  0  0  0  0  0
  -22.7990  -10.2860   20.2160 C   0  0  0  0  0  3  0  0  0  0  0  0
  -21.7480   -7.0030   21.4590 O   0  0  0  0  0  0  0  0  0  0  0  0
  -21.7090   -6.2680   22.6160 C   0  0  0  0  0  0  0  0  0  0  0  0
  -21.2900   -6.8300   23.8420 C   0  0  0  0  0  3  0  0  0  0  0  0
  -21.1970   -6.0210   24.9910 C   0  0  0  0  0  3  0  0  0  0  0  0
  -21.5140   -4.6510   24.9180 C   0  0  0  0  0  0  0  0  0  0  0  0
  -21.9240   -4.0880   23.6970 C   0  0  0  0  0  3  0  0  0  0  0  0
  -22.0190   -4.8930   22.5490 C   0  0  0  0  0  0  0  0  0  0  0  0
  -22.3950   -4.3410   21.3700 F   0  0  0  0  0  0  0  0  0  0  0  0
  -21.4150   -3.8720   26.0210 F   0  0  0  0  0  0  0  0  0  0  0  0
  -22.8240  -13.6430   21.0700 C   0  0  0  0  0  0  0  0  0  0  0  0
  -22.1030  -12.9550   21.9490 N   0  0  0  0  0  0  0  0  0  0  0  0
  -22.3790  -14.6610   20.5460 O   0  0  0  0  0  0  0  0  0  0  0  0
  -22.4730  -12.1310   22.4000 H   0  0  0  0  0  0  0  0  0  0  0  0
  -21.1670  -13.2600   22.1760 H   0  0  0  0  0  0  0  0  0  0  0  0
  -25.4400  -15.3040   20.2170 N   0  0  0  0  0  0  0  0  0  0  0  0
  -24.6620  -15.9490   20.3170 H   0  0  0  0  0  0  0  0  0  0  0  0
  -26.2780  -15.7510   19.8710 H   0  0  0  0  0  0  0  0  0  0  0  0
  -28.8300  -26.0110   21.2480 C   0  0  0  0  0  2  0  0  0  0  0  0
  -28.3810  -26.6740   20.0510 O   0  0  0  0  0  0  0  0  0  0  0  0
  -24.5950  -31.9200   23.2350 C   0  0  0  0  0  0  0  0  0  0  0  0
  -27.2500  -27.4670   20.1430 C   0  0  0  0  0  0  0  0  0  0  0  0
  -23.3960  -30.5190   21.5890 C   0  0  0  0  0  3  0  0  0  0  0  0
  -24.8570  -28.9880   20.1620 C   0  0  0  0  0  0  0  0  0  0  0  0
  -25.9250  -30.8800   21.3960 C   0  0  0  0  0  2  0  0  0  0  0  0
  -26.0180  -29.5060   20.7560 C   0  0  0  0  0  0  0  0  0  0  0  0
  -27.2210  -28.7510   20.7490 C   0  0  0  0  0  3  0  0  0  0  0  0
  -26.0780  -26.9780   19.5390 C   0  0  0  0  0  3  0  0  0  0  0  0
  -24.8820  -27.7210   19.5540 C   0  0  0  0  0  3  0  0  0  0  0  0
  -23.6120  -29.8440   20.2090 C   0  0  0  0  0  2  0  0  0  0  0  0
  -24.6560  -31.1230   22.1300 N   0  0  0  0  0  0  0  0  0  0  0  0
  -23.5130  -32.1850   23.7760 O   0  0  0  0  0  0  0  0  0  0  0  0
  -22.7490  -29.4910   22.5470 C   0  0  0  0  0  0  0  0  0  0  0  0
  -21.4250  -29.3010   22.4180 N   0  0  0  0  0  0  0  0  0  0  0  0
  -23.4350  -28.8670   23.3610 O   0  0  0  0  0  0  0  0  0  0  0  0
  -20.9290  -29.8620   21.7390 H   0  0  0  0  0  0  0  0  0  0  0  0
  -18.0630  -28.0640   22.8980 C   0  0  0  0  0  0  0  0  0  0  0  0
  -20.6150  -28.3510   23.1820 C   0  0  0  0  0  3  0  0  0  0  0  0
  -20.7390  -26.9210   22.6060 C   0  0  0  0  0  2  0  0  0  0  0  0
  -19.6450  -26.5830   21.5880 C   0  0  0  0  0  2  0  0  0  0  0  0
  -18.2600  -26.7130   22.2300 C   0  0  0  0  0  2  0  0  0  0  0  0
  -19.1700  -28.8390   23.3320 C   0  0  0  0  0  0  0  0  0  0  0  0
  -18.9340  -30.1020   23.9170 C   0  0  0  0  0  3  0  0  0  0  0  0
  -17.6220  -30.5890   24.0730 C   0  0  0  0  0  3  0  0  0  0  0  0
  -16.5290  -29.8110   23.6560 C   0  0  0  0  0  3  0  0  0  0  0  0
  -16.7500  -28.5490   23.0730 C   0  0  0  0  0  3  0  0  0  0  0  0
  -25.8780  -32.5570   23.8550 C   0  0  0  0  0  3  0  0  0  0  0  0
  -25.5660  -33.9550   24.1780 N   0  0  0  0  0  0  0  0  0  0  0  0
  -25.9050  -35.0040   23.4180 C   0  0  0  0  0  0  0  0  0  0  0  0
  -26.5800  -34.8980   22.3910 O   0  0  0  0  0  0  0  0  0  0  0  0
  -24.9690  -34.1140   24.9760 H   0  0  0  0  0  0  0  0  0  0  0  0
  -24.1810  -36.7970   23.0450 C   0  0  0  0  0  1  0  0  0  0  0  0
  -25.4140  -36.3930   23.8680 C   0  0  0  0  0  3  0  0  0  0  0  0
  -27.5420  -37.2780   24.7150 C   0  0  0  0  0  1  0  0  0  0  0  0
  -26.4480  -37.4460   23.7620 N   0  0  0  0  0  0  0  0  0  0  0  0
  -26.0420  -38.3650   23.9060 H   0  0  0  0  0  0  0  0  0  0  0  0
  -26.3960  -31.7900   25.1330 C   0  0  1  0  0  0  0  0  0  0  0  0
  -25.3030  -31.5550   26.2030 C   0  0  0  0  0  1  0  0  0  0  0  0
  -26.9800  -30.4110   24.7460 C   0  0  0  0  0  1  0  0  0  0  0  0
  -27.5460  -32.5890   25.7940 C   0  0  0  0  0  1  0  0  0  0  0  0
  2  5  1  0
  2  1  1  0
  3  4  1  0
  3  2  1  0
  3  5  1  0
  4  6  1  0
  4  1  1  0
  6  7  1  0
  8  7  1  0
  8  9  1  0
 10 18  1  0
 11 16  1  0
 12 13  1  0
 12 11  1  0
 13 14  1  0
 14 23  1  0
 14 15  1  0
 16 10  1  0
 16 15  1  0
 17 10  2  0
 18 19  1  0
 18  9  1  0
 20 21  2  0
 21 40  1  0
 22 21  1  0
 22 25  1  0
 23 20  1  0
 23 24  1  0
 24 22  2  0
 25 26  1  0
 26 27  2  0
 28 31  1  0
 28 27  1  0
 29 28  2  0
 30 29  1  0
 30 25  2  0
 31 32  1  0
 32 33  1  0
 33 34  2  0
 35 34  1  0
 35 39  1  0
 36 35  2  0
 37 32  2  0
 37 36  1  0
 38 37  1  0
 40 41  1  0
 41 44  1  0
 41 43  1  0
 42 40  2  0
 45 46  1  0
 45 20  1  0
 47 45  1  0
 48  5  1  0
 49 51  1  0
 49 48  1  0
 50 61  2  0
 50 76  1  0
 51 56  1  0
 52 60  1  0
 52 62  1  0
 53 59  1  0
 53 55  1  0
 54 60  1  0
 55 54  1  0
 56 55  2  0
 57 58  1  0
 57 51  2  0
 58 53  2  0
 59 52  1  0
 60 50  1  0
 62 64  2  0
 63 62  1  0
 63 67  1  0
 65 63  1  0
 66 75  2  0
 66 71  1  0
 67 71  1  0
 68 67  1  0
 69 70  1  0
 69 68  1  0
 70 66  1  0
 71 72  2  0
 72 73  1  0
 74 73  2  0
 75 74  1  0
 76 77  1  0
 76 86  1  0
 77 80  1  0
 78 82  1  0
 78 77  1  0
 79 78  2  0
 81 82  1  0
 84 82  1  0
 84 85  1  0
 84 83  1  0
 86 89  1  1
 86 87  1  0
 88 86  1  0
M  ISO  4  10 100  18 100  48 101  49 101
M  END
>  <TORSDO>  (5) 
F 21

>  <SCORE>  (5) 
-13.227

>  <name>  (5) 
4

>  <ligand_id>  (5) 
4

>  <original_smiles>  (5) 
[H]c1c([H])c([H])c2c(c1[H])C([H])([H])C([H])([H])C([H])([H])C2([H])N([H])C(=O)C1([H])N(C(=O)C([H])(N([H])C(=O)C([H])(N([H])C([H])([H])[H])C([H])([H])[H])C(C([H])([H])[H])(C([H])([H])[H])C([H])([H])[H])C([H])([H])c2c([H])c(OC([H])([H])C3([H])C4([H])C([H])([H])C([H])(C([H])([H])C([H])([H])C([H])([H])C([H])([H])N([H])C(=O)N5C([H])([H])C([H])([H])C([H])([H])C([H])(n6nc(-c7c([H])c([H])c(Oc8c([H])c([H])c(F)c([H])c8F)c([H])c7[H])c(C(=O)N([H])[H])c6N([H])[H])C5([H])[H])C34[H])c([H])c([H])c2C1([H])[H]

>  <smiles>  (5) 
[H]c1c([H])c([H])c2c(c1[H])C([H])([H])C([H])([H])C([H])([H])C2([H])N([H])C(=O)C1([H])N(C(=O)C([H])(N([H])C(=O)C([H])(N([H])C([H])([H])[H])C([H])([H])[H])C(C([H])([H])[H])(C([H])([H])[H])C([H])([H])[H])C([H])([H])c2c([H])c(OC([H])([H])C3([H])C4([H])C([H])([H])C([H])(C([H])([H])C([H])([H])C([H])([H])C([H])([H])N([H])C(=O)N5C([H])([H])C([H])([H])C([H])([H])C([H])(n6nc(-c7c([H])c([H])c(Oc8c([H])c([H])c(F)c([H])c8F)c([H])c7[H])c(C(=O)N([H])[H])c6N([H])[H])C5([H])[H])C34[H])c([H])c([H])c2C1([H])[H]

$$$$
5:0:0
     RDKit          3D

 87 95  0  0  1  0  0  0  0  0999 V2000
  -30.0390  -22.0320   21.1930 C   0  0  0  0  0  2  0  0  0  0  0  0
  -28.7490  -20.6600   19.2930 C   0  0  0  0  0  2  0  0  0  0  0  0
  -29.2830  -20.7020   21.2000 C   0  0  0  0  0  3  0  0  0  0  0  0
  -29.5720  -19.3960   20.1390 C   0  0  0  0  0  3  0  0  0  0  0  0
  -28.8790  -22.0460   20.2410 C   0  0  1  0  0  0  0  0  0  0  0  0
  -31.0440  -19.4150   19.8140 C   0  0  0  0  0  0  0  0  0  0  0  0
  -31.9720  -19.0740   20.9730 C   0  0  0  0  0  1  0  0  0  0  0  0
  -31.5440  -19.6790   18.7180 O   0  0  0  0  0  0  0  0  0  0  0  0
  -29.3640  -17.4480   20.3490 C   0  0  0  0  0  1  0  0  0  0  0  0
  -30.2310  -15.7780   20.1100 C   0  0  0  0  0  0  0  0  0  0  0  0
  -30.3680  -13.2240   19.2690 C   0  0  0  0  0  2  0  0  0  0  0  0
  -29.4450  -12.8410   18.0710 C   0  0  0  0  0  2  0  0  0  0  0  0
  -28.0340  -12.4690   18.5520 C   0  0  0  0  0  2  0  0  0  0  0  0
  -27.5460  -13.4460   19.6450 C   0  0  0  0  0  3  0  0  0  0  0  0
  -28.6020  -13.7400   20.7340 C   0  0  0  0  0  2  0  0  0  0  0  0
  -29.7670  -14.3820   20.0790 N   0  0  0  0  0  0  0  0  0  0  0  0
  -31.4480  -15.7350   19.8440 O   0  0  0  0  0  0  0  0  0  0  0  0
  -25.2040  -13.9420   20.4880 C   0  0  0  0  0  0  0  0  0  0  0  0
  -24.1630  -13.1480   20.8740 C   0  0  0  0  0  0  0  0  0  0  0  0
  -24.6440  -11.8030   20.8090 C   0  0  0  0  0  0  0  0  0  0  0  0
  -26.2480  -13.0850   20.1970 N   0  0  0  0  0  0  0  0  0  0  0  0
  -25.9280  -11.7900   20.4580 N   0  0  0  0  0  0  0  0  0  0  0  0
  -23.9310  -10.5320   21.0010 C   0  0  0  0  0  0  0  0  0  0  0  0
  -24.3790   -9.5640   21.9260 C   0  0  0  0  0  3  0  0  0  0  0  0
  -23.6620   -8.3610   22.1090 C   0  0  0  0  0  3  0  0  0  0  0  0
  -22.4820   -8.1180   21.3670 C   0  0  0  0  0  0  0  0  0  0  0  0
  -22.0520   -9.0750   20.4310 C   0  0  0  0  0  3  0  0  0  0  0  0
  -22.7710  -10.2690   20.2450 C   0  0  0  0  0  3  0  0  0  0  0  0
  -21.7360   -6.9670   21.4580 O   0  0  0  0  0  0  0  0  0  0  0  0
  -21.6850   -6.2320   22.6160 C   0  0  0  0  0  0  0  0  0  0  0  0
  -21.2290   -6.7860   23.8310 C   0  0  0  0  0  3  0  0  0  0  0  0
  -21.1270   -5.9770   24.9800 C   0  0  0  0  0  3  0  0  0  0  0  0
  -21.4710   -4.6140   24.9150 C   0  0  0  0  0  0  0  0  0  0  0  0
  -21.9210   -4.0590   23.7040 C   0  0  0  0  0  3  0  0  0  0  0  0
  -22.0250   -4.8650   22.5570 C   0  0  0  0  0  0  0  0  0  0  0  0
  -22.4380   -4.3200   21.3880 F   0  0  0  0  0  0  0  0  0  0  0  0
  -21.3680   -3.8340   26.0160 F   0  0  0  0  0  0  0  0  0  0  0  0
  -22.7690  -13.6090   21.1840 C   0  0  0  0  0  0  0  0  0  0  0  0
  -22.0690  -12.8970   22.0600 N   0  0  0  0  0  0  0  0  0  0  0  0
  -22.3110  -14.6360   20.6850 O   0  0  0  0  0  0  0  0  0  0  0  0
  -22.4540  -12.0660   22.4830 H   0  0  0  0  0  0  0  0  0  0  0  0
  -21.1350  -13.1880   22.3110 H   0  0  0  0  0  0  0  0  0  0  0  0
  -25.3470  -15.3180   20.3280 N   0  0  0  0  0  0  0  0  0  0  0  0
  -24.5780  -15.9620   20.4760 H   0  0  0  0  0  0  0  0  0  0  0  0
  -26.1820  -15.7730   19.9810 H   0  0  0  0  0  0  0  0  0  0  0  0
  -27.9840  -23.7740   20.1610 C   0  0  0  0  0  2  0  0  0  0  0  0
  -28.1590  -25.5380   20.3250 O   0  0  0  0  0  0  0  0  0  0  0  0
  -24.6750  -31.8840   23.2320 C   0  0  0  0  0  0  0  0  0  0  0  0
  -27.1920  -26.7670   20.2620 C   0  0  0  0  0  0  0  0  0  0  0  0
  -23.4860  -30.4860   21.5970 C   0  0  0  0  0  3  0  0  0  0  0  0
  -24.9320  -28.8240   20.1920 C   0  0  0  0  0  0  0  0  0  0  0  0
  -26.0670  -30.6130   21.4810 C   0  0  0  0  0  2  0  0  0  0  0  0
  -26.1280  -29.1750   20.8280 C   0  0  0  0  0  0  0  0  0  0  0  0
  -27.2410  -28.1760   20.8290 C   0  0  0  0  0  3  0  0  0  0  0  0
  -25.9610  -26.6340   19.5690 C   0  0  0  0  0  3  0  0  0  0  0  0
  -24.8890  -27.5800   19.5380 C   0  0  0  0  0  3  0  0  0  0  0  0
  -23.7290  -29.7830   20.2290 C   0  0  0  0  0  2  0  0  0  0  0  0
  -24.7680  -31.0280   22.1560 N   0  0  0  0  0  0  0  0  0  0  0  0
  -23.5810  -32.1900   23.7370 O   0  0  0  0  0  0  0  0  0  0  0  0
  -22.7630  -29.5160   22.5700 C   0  0  0  0  0  0  0  0  0  0  0  0
  -21.4300  -29.3680   22.4440 N   0  0  0  0  0  0  0  0  0  0  0  0
  -23.4140  -28.8940   23.4130 O   0  0  0  0  0  0  0  0  0  0  0  0
  -20.9540  -29.9200   21.7440 H   0  0  0  0  0  0  0  0  0  0  0  0
  -18.0380  -28.1630   22.9510 C   0  0  0  0  0  0  0  0  0  0  0  0
  -20.5980  -28.4370   23.2180 C   0  0  0  0  0  3  0  0  0  0  0  0
  -20.7010  -26.9990   22.6550 C   0  0  0  0  0  2  0  0  0  0  0  0
  -19.6030  -26.6700   21.6370 C   0  0  0  0  0  2  0  0  0  0  0  0
  -18.2190  -26.8130   22.2760 C   0  0  0  0  0  2  0  0  0  0  0  0
  -19.1540  -28.9310   23.3780 C   0  0  0  0  0  0  0  0  0  0  0  0
  -18.9270  -30.1900   23.9750 C   0  0  0  0  0  3  0  0  0  0  0  0
  -17.6190  -30.6820   24.1450 C   0  0  0  0  0  3  0  0  0  0  0  0
  -16.5190  -29.9130   23.7310 C   0  0  0  0  0  3  0  0  0  0  0  0
  -16.7290  -28.6540   23.1400 C   0  0  0  0  0  3  0  0  0  0  0  0
  -25.9380  -32.5350   23.8740 C   0  0  0  0  0  3  0  0  0  0  0  0
  -26.4280  -31.7790   25.1720 C   0  0  1  0  0  0  0  0  0  0  0  0
  -25.3170  -31.5630   26.2270 C   0  0  0  0  0  1  0  0  0  0  0  0
  -27.0100  -30.3920   24.8200 C   0  0  0  0  0  1  0  0  0  0  0  0
  -27.5730  -32.5760   25.8410 C   0  0  0  0  0  1  0  0  0  0  0  0
  -25.6160  -33.9370   24.2070 N   0  0  0  0  0  0  0  0  0  0  0  0
  -25.9270  -35.0020   23.4550 C   0  0  0  0  0  0  0  0  0  0  0  0
  -26.5710  -34.9070   22.4070 O   0  0  0  0  0  0  0  0  0  0  0  0
  -25.0400  -34.0830   25.0240 H   0  0  0  0  0  0  0  0  0  0  0  0
  -24.1730  -36.7930   23.1910 C   0  0  0  0  0  1  0  0  0  0  0  0
  -25.4550  -36.3900   23.9380 C   0  0  0  0  0  3  0  0  0  0  0  0
  -27.6160  -37.3010   24.6700 C   0  0  0  0  0  1  0  0  0  0  0  0
  -26.4740  -37.4520   23.7730 N   0  0  0  0  0  0  0  0  0  0  0  0
  -26.0660  -38.3700   23.9310 H   0  0  0  0  0  0  0  0  0  0  0  0
  2  4  1  0
  2  5  1  0
  3  1  1  0
  4  6  1  0
  4  3  1  0
  5 46  1  1
  5  1  1  0
  5  3  1  0
  6  7  1  0
  8  6  2  0
 10  9  1  0
 11 16  1  0
 12 13  1  0
 12 11  1  0
 14 13  1  0
 14 21  1  0
 14 15  1  0
 16 10  1  0
 16 15  1  0
 17 10  2  0
 18 19  2  0
 19 38  1  0
 20 19  1  0
 20 23  1  0
 21 22  1  0
 21 18  1  0
 22 20  2  0
 23 24  1  0
 24 25  2  0
 26 29  1  0
 26 25  1  0
 27 26  2  0
 28 27  1  0
 28 23  2  0
 29 30  1  0
 30 31  1  0
 31 32  2  0
 33 32  1  0
 33 37  1  0
 34 33  2  0
 35 30  2  0
 35 34  1  0
 36 35  1  0
 38 39  1  0
 39 42  1  0
 39 41  1  0
 40 38  2  0
 43 44  1  0
 43 18  1  0
 45 43  1  0
 46 47  1  0
 48 59  2  0
 49 47  1  0
 49 54  1  0
 50 58  1  0
 50 60  1  0
 51 57  1  0
 51 53  1  0
 52 58  1  0
 53 54  2  0
 53 52  1  0
 55 49  2  0
 56 55  1  0
 56 51  2  0
 57 50  1  0
 58 48  1  0
 60 62  2  0
 61 60  1  0
 63 61  1  0
 64 73  2  0
 64 69  1  0
 65 61  1  0
 65 69  1  0
 66 65  1  0
 67 68  1  0
 67 66  1  0
 68 64  1  0
 69 70  2  0
 70 71  1  0
 72 71  2  0
 73 72  1  0
 74 48  1  0
 74 79  1  0
 74 75  1  0
 75 78  1  1
 75 76  1  0
 77 75  1  0
 79 82  1  0
 80 84  1  0
 80 79  1  0
 81 80  2  0
 84 83  1  0
 86 87  1  0
 86 84  1  0
 86 85  1  0
M  ISO  4   9 100  10 100  46 101  47 101
M  END
>  <TORSDO>  (6) 
F 19

>  <SCORE>  (6) 
-16.546

>  <name>  (6) 
5

>  <ligand_id>  (6) 
5

>  <original_smiles>  (6) 
[H]c1c([H])c([H])c2c(c1[H])C([H])([H])C([H])([H])C([H])([H])C2([H])N([H])C(=O)C1([H])N(C(=O)C([H])(N([H])C(=O)C([H])(N([H])C([H])([H])[H])C([H])([H])[H])C(C([H])([H])[H])(C([H])([H])[H])C([H])([H])[H])C([H])([H])c2c([H])c(OC([H])([H])C34C([H])([H])C3([H])C(C(=O)C([H])([H])[H])(C([H])([H])C(=O)N3C([H])([H])C([H])([H])C([H])([H])C([H])(n5nc(-c6c([H])c([H])c(Oc7c([H])c([H])c(F)c([H])c7F)c([H])c6[H])c(C(=O)N([H])[H])c5N([H])[H])C3([H])[H])C4([H])[H])c([H])c([H])c2C1([H])[H]

>  <smiles>  (6) 
[H]c1c([H])c([H])c2c(c1[H])C([H])([H])C([H])([H])C([H])([H])C2([H])N([H])C(=O)C1([H])N(C(=O)C([H])(N([H])C(=O)C([H])(N([H])C([H])([H])[H])C([H])([H])[H])C(C([H])([H])[H])(C([H])([H])[H])C([H])([H])[H])C([H])([H])c2c([H])c(OC([H])([H])C34C([H])([H])C3([H])C(C(=O)C([H])([H])[H])(C([H])([H])C(=O)N3C([H])([H])C([H])([H])C([H])([H])C([H])(n5nc(-c6c([H])c([H])c(Oc7c([H])c([H])c(F)c([H])c7F)c([H])c6[H])c(C(=O)N([H])[H])c5N([H])[H])C3([H])[H])C4([H])[H])c([H])c([H])c2C1([H])[H]

$$$$
6:0:0
     RDKit          3D

 89 98  0  0  1  0  0  0  0  0999 V2000
  -28.1320  -20.3570   20.2570 C   0  0  0  0  0  3  0  0  0  0  0  0
  -27.7080  -21.7640   20.3000 C   0  0  0  0  0  3  0  0  0  0  0  0
  -29.8440  -22.4700   19.7730 C   0  0  0  0  0  3  0  0  0  0  0  0
  -29.4530  -19.8620   19.9490 C   0  0  0  0  0  0  0  0  0  0  0  0
  -28.5090  -22.9480   20.0510 C   0  0  0  0  0  0  0  0  0  0  0  0
  -30.2820  -21.0520   19.7350 C   0  0  0  0  0  0  0  0  0  0  0  0
  -31.7400  -20.8180   19.3880 C   0  0  0  0  0  1  0  0  0  0  0  0
  -28.9200  -17.2130   19.2490 C   0  0  0  0  0  2  0  0  0  0  0  0
  -29.9440  -18.2340   19.6740 C   0  0  0  0  0  3  0  0  0  0  0  0
  -29.8180  -16.6420   20.3330 C   0  0  1  0  0  0  0  0  0  0  0  0
  -29.3620  -16.6070   21.7820 C   0  0  0  0  0  1  0  0  0  0  0  0
  -30.5890  -15.1900   19.9200 C   0  0  0  0  0  0  0  0  0  0  0  0
  -30.4590  -12.8130   18.9510 C   0  0  0  0  0  2  0  0  0  0  0  0
  -29.4490  -12.7460   17.7780 C   0  0  0  0  0  2  0  0  0  0  0  0
  -28.0210  -12.4940   18.2940 C   0  0  0  0  0  2  0  0  0  0  0  0
  -27.6780  -13.3890   19.5120 C   0  0  0  0  0  3  0  0  0  0  0  0
  -28.8050  -13.4050   20.5630 C   0  0  0  0  0  2  0  0  0  0  0  0
  -30.0210  -13.8950   19.8960 N   0  0  0  0  0  0  0  0  0  0  0  0
  -31.7560  -15.2200   19.5100 O   0  0  0  0  0  0  0  0  0  0  0  0
  -25.3640  -13.9280   20.4480 C   0  0  0  0  0  0  0  0  0  0  0  0
  -24.3270  -13.1390   20.8600 C   0  0  0  0  0  0  0  0  0  0  0  0
  -24.7840  -11.7900   20.7430 C   0  0  0  0  0  0  0  0  0  0  0  0
  -26.3830  -13.0610   20.0950 N   0  0  0  0  0  0  0  0  0  0  0  0
  -26.0500  -11.7660   20.3380 N   0  0  0  0  0  0  0  0  0  0  0  0
  -24.0660  -10.5220   20.9360 C   0  0  0  0  0  0  0  0  0  0  0  0
  -24.5170   -9.5490   21.8550 C   0  0  0  0  0  3  0  0  0  0  0  0
  -23.7970   -8.3480   22.0360 C   0  0  0  0  0  3  0  0  0  0  0  0
  -22.6130   -8.1100   21.2980 C   0  0  0  0  0  0  0  0  0  0  0  0
  -22.1820   -9.0720   20.3670 C   0  0  0  0  0  3  0  0  0  0  0  0
  -22.9020  -10.2650   20.1840 C   0  0  0  0  0  3  0  0  0  0  0  0
  -21.8640   -6.9620   21.3880 O   0  0  0  0  0  0  0  0  0  0  0  0
  -21.7690   -6.2550   22.5600 C   0  0  0  0  0  0  0  0  0  0  0  0
  -21.2790   -6.8410   23.7460 C   0  0  0  0  0  3  0  0  0  0  0  0
  -21.1320   -6.0600   24.9100 C   0  0  0  0  0  3  0  0  0  0  0  0
  -21.4670   -4.6930   24.8870 C   0  0  0  0  0  0  0  0  0  0  0  0
  -21.9500   -4.1050   23.7050 C   0  0  0  0  0  3  0  0  0  0  0  0
  -22.0980   -4.8840   22.5440 C   0  0  0  0  0  0  0  0  0  0  0  0
  -22.5450   -4.3080   21.4020 F   0  0  0  0  0  0  0  0  0  0  0  0
  -21.3190   -3.9400   26.0020 F   0  0  0  0  0  0  0  0  0  0  0  0
  -22.9540  -13.6070   21.2480 C   0  0  0  0  0  0  0  0  0  0  0  0
  -22.2900  -12.8830   22.1410 N   0  0  0  0  0  0  0  0  0  0  0  0
  -22.4820  -14.6480   20.7930 O   0  0  0  0  0  0  0  0  0  0  0  0
  -22.6870  -12.0400   22.5290 H   0  0  0  0  0  0  0  0  0  0  0  0
  -21.3720  -13.1770   22.4440 H   0  0  0  0  0  0  0  0  0  0  0  0
  -25.5210  -15.3040   20.3170 N   0  0  0  0  0  0  0  0  0  0  0  0
  -24.7700  -15.9560   20.5140 H   0  0  0  0  0  0  0  0  0  0  0  0
  -26.3510  -15.7540   19.9530 H   0  0  0  0  0  0  0  0  0  0  0  0
  -27.7820  -24.4900   19.9020 C   0  0  0  0  0  2  0  0  0  0  0  0
  -28.1800  -26.0090   20.2030 O   0  0  0  0  0  0  0  0  0  0  0  0
  -24.6700  -31.8710   23.2330 C   0  0  0  0  0  0  0  0  0  0  0  0
  -27.1810  -27.0880   20.1370 C   0  0  0  0  0  0  0  0  0  0  0  0
  -23.4500  -30.4930   21.6000 C   0  0  0  0  0  3  0  0  0  0  0  0
  -24.8770  -28.9170   20.1420 C   0  0  0  0  0  0  0  0  0  0  0  0
  -26.0110  -30.7220   21.4160 C   0  0  0  0  0  2  0  0  0  0  0  0
  -26.0700  -29.3280   20.7490 C   0  0  0  0  0  0  0  0  0  0  0  0
  -27.2210  -28.4310   20.7290 C   0  0  0  0  0  3  0  0  0  0  0  0
  -25.9600  -26.8190   19.4760 C   0  0  0  0  0  3  0  0  0  0  0  0
  -24.8400  -27.6800   19.4860 C   0  0  0  0  0  3  0  0  0  0  0  0
  -23.6560  -29.8270   20.2130 C   0  0  0  0  0  2  0  0  0  0  0  0
  -24.7320  -31.0520   22.1370 N   0  0  0  0  0  0  0  0  0  0  0  0
  -23.5890  -32.1580   23.7710 O   0  0  0  0  0  0  0  0  0  0  0  0
  -22.7710  -29.4840   22.5620 C   0  0  0  0  0  0  0  0  0  0  0  0
  -21.4440  -29.3000   22.4310 N   0  0  0  0  0  0  0  0  0  0  0  0
  -23.4440  -28.8690   23.3930 O   0  0  0  0  0  0  0  0  0  0  0  0
  -20.9560  -29.8470   21.7370 H   0  0  0  0  0  0  0  0  0  0  0  0
  -18.0810  -28.0300   22.9030 C   0  0  0  0  0  0  0  0  0  0  0  0
  -20.6300  -28.3570   23.2040 C   0  0  0  0  0  3  0  0  0  0  0  0
  -20.7720  -26.9190   22.6520 C   0  0  0  0  0  2  0  0  0  0  0  0
  -19.6930  -26.5560   21.6260 C   0  0  0  0  0  2  0  0  0  0  0  0
  -18.2990  -26.6770   22.2470 C   0  0  0  0  0  2  0  0  0  0  0  0
  -19.1750  -28.8260   23.3380 C   0  0  0  0  0  0  0  0  0  0  0  0
  -18.9160  -30.0890   23.9130 C   0  0  0  0  0  3  0  0  0  0  0  0
  -17.5970  -30.5580   24.0570 C   0  0  0  0  0  3  0  0  0  0  0  0
  -16.5170  -29.7620   23.6360 C   0  0  0  0  0  3  0  0  0  0  0  0
  -16.7610  -28.5000   23.0660 C   0  0  0  0  0  3  0  0  0  0  0  0
  -25.9550  -32.5020   23.8520 C   0  0  0  0  0  3  0  0  0  0  0  0
  -25.6480  -33.9010   24.1950 N   0  0  0  0  0  0  0  0  0  0  0  0
  -25.9550  -34.9610   23.4360 C   0  0  0  0  0  0  0  0  0  0  0  0
  -26.5910  -34.8650   22.3820 O   0  0  0  0  0  0  0  0  0  0  0  0
  -25.0790  -34.0490   25.0160 H   0  0  0  0  0  0  0  0  0  0  0  0
  -24.2060  -36.7530   23.1690 C   0  0  0  0  0  1  0  0  0  0  0  0
  -25.4860  -36.3480   23.9190 C   0  0  0  0  0  3  0  0  0  0  0  0
  -27.6520  -37.2430   24.6550 C   0  0  0  0  0  1  0  0  0  0  0  0
  -26.5090  -37.4060   23.7610 N   0  0  0  0  0  0  0  0  0  0  0  0
  -26.1050  -38.3240   23.9250 H   0  0  0  0  0  0  0  0  0  0  0  0
  -26.4720  -31.7280   25.1270 C   0  0  1  0  0  0  0  0  0  0  0  0
  -25.3810  -31.4960   26.2000 C   0  0  0  0  0  1  0  0  0  0  0  0
  -27.0460  -30.3450   24.7390 C   0  0  0  0  0  1  0  0  0  0  0  0
  -27.6290  -32.5160   25.7840 C   0  0  0  0  0  1  0  0  0  0  0  0
  1  2  1  0
  3  5  1  0
  4  1  2  0
  5  2  2  0
  6  3  2  0
  6  4  1  0
  7  6  1  0
  8  9  1  0
  8 10  1  0
  9  4  1  0
  9 10  1  0
 10 11  1  1
 12 10  1  0
 13 18  1  0
 14 15  1  0
 14 13  1  0
 16 15  1  0
 16 23  1  0
 16 17  1  0
 18 12  1  0
 18 17  1  0
 19 12  2  0
 20 21  2  0
 21 40  1  0
 22 21  1  0
 22 25  1  0
 23 24  1  0
 23 20  1  0
 24 22  2  0
 25 26  1  0
 26 27  2  0
 28 31  1  0
 28 27  1  0
 29 28  2  0
 30 29  1  0
 30 25  2  0
 31 32  1  0
 32 33  1  0
 33 34  2  0
 35 34  1  0
 35 39  1  0
 36 35  2  0
 37 32  2  0
 37 36  1  0
 38 37  1  0
 40 41  1  0
 41 44  1  0
 41 43  1  0
 42 40  2  0
 45 20  1  0
 45 46  1  0
 47 45  1  0
 48  5  1  0
 48 49  1  0
 50 61  2  0
 51 49  1  0
 51 56  1  0
 52 60  1  0
 52 62  1  0
 53 59  1  0
 53 55  1  0
 54 60  1  0
 55 54  1  0
 56 55  2  0
 57 58  1  0
 57 51  2  0
 58 53  2  0
 59 52  1  0
 60 50  1  0
 62 64  2  0
 63 62  1  0
 65 63  1  0
 66 75  2  0
 66 71  1  0
 67 63  1  0
 67 71  1  0
 68 67  1  0
 69 70  1  0
 69 68  1  0
 70 66  1  0
 71 72  2  0
 72 73  1  0
 74 73  2  0
 75 74  1  0
 76 50  1  0
 76 77  1  0
 76 86  1  0
 77 80  1  0
 78 82  1  0
 78 77  1  0
 79 78  2  0
 82 81  1  0
 84 82  1  0
 84 85  1  0
 84 83  1  0
 86 89  1  1
 86 87  1  0
 88 86  1  0
M  ISO  4  10 100  12 100  48 101  49 101
M  END
>  <TORSDO>  (7) 
F 18

>  <SCORE>  (7) 
-15.593

>  <name>  (7) 
6

>  <ligand_id>  (7) 
6

>  <original_smiles>  (7) 
[H]c1c([H])c([H])c2c(c1[H])C([H])([H])C([H])([H])C([H])([H])C2([H])N([H])C(=O)C1([H])N(C(=O)C([H])(N([H])C(=O)C([H])(N([H])C([H])([H])[H])C([H])([H])[H])C(C([H])([H])[H])(C([H])([H])[H])C([H])([H])[H])C([H])([H])c2c([H])c(OC([H])([H])c3c([H])c([H])c(C4([H])C([H])([H])C4(C(=O)N4C([H])([H])C([H])([H])C([H])([H])C([H])(n5nc(-c6c([H])c([H])c(Oc7c([H])c([H])c(F)c([H])c7F)c([H])c6[H])c(C(=O)N([H])[H])c5N([H])[H])C4([H])[H])C([H])([H])[H])c(C([H])([H])[H])c3[H])c([H])c([H])c2C1([H])[H]

>  <smiles>  (7) 
[H]c1c([H])c([H])c2c(c1[H])C([H])([H])C([H])([H])C([H])([H])C2([H])N([H])C(=O)C1([H])N(C(=O)C([H])(N([H])C(=O)C([H])(N([H])C([H])([H])[H])C([H])([H])[H])C(C([H])([H])[H])(C([H])([H])[H])C([H])([H])[H])C([H])([H])c2c([H])c(OC([H])([H])c3c([H])c([H])c(C4([H])C([H])([H])C4(C(=O)N4C([H])([H])C([H])([H])C([H])([H])C([H])(n5nc(-c6c([H])c([H])c(Oc7c([H])c([H])c(F)c([H])c7F)c([H])c6[H])c(C(=O)N([H])[H])c5N([H])[H])C4([H])[H])C([H])([H])[H])c(C([H])([H])[H])c3[H])c([H])c([H])c2C1([H])[H]

$$$$
7:0:0
     RDKit          3D

 90 99  0  0  1  0  0  0  0  0999 V2000
  -30.7950  -19.9340   20.8210 C   0  0  0  0  0  2  0  0  0  0  0  0
  -28.6890  -19.8240   19.7690 C   0  0  0  0  0  2  0  0  0  0  0  0
  -30.6720  -18.4680   20.2740 C   0  0  0  0  0  3  0  0  0  0  0  0
  -29.3470  -18.4050   19.6070 C   0  0  0  0  0  3  0  0  0  0  0  0
  -29.6900  -17.3330   20.6960 C   0  0  2  0  0  0  0  0  0  0  0  0
  -28.8770  -17.4170   21.9790 C   0  0  0  0  0  1  0  0  0  0  0  0
  -29.5670  -20.7730   20.5360 N   0  0  2  0  0  4  0  0  0  0  0  0
  -29.1360  -20.8950   21.4400 H   0  0  0  0  0  0  0  0  0  0  0  0
  -30.6360  -14.8410   20.0260 C   0  0  0  0  0  0  0  0  0  0  0  0
  -30.4820  -12.5930   18.9010 C   0  0  0  0  0  2  0  0  0  0  0  0
  -29.4420  -12.6740   17.7560 C   0  0  0  0  0  2  0  0  0  0  0  0
  -27.9980  -12.4800   18.2740 C   0  0  0  0  0  2  0  0  0  0  0  0
  -27.7040  -13.3050   19.5540 C   0  0  0  0  0  3  0  0  0  0  0  0
  -28.8420  -13.1470   20.5850 C   0  0  0  0  0  2  0  0  0  0  0  0
  -30.0860  -13.5810   19.9290 N   0  0  0  0  0  0  0  0  0  0  0  0
  -31.8040  -15.0370   19.6700 O   0  0  0  0  0  0  0  0  0  0  0  0
  -29.7330  -15.8500   20.3470 N   0  0  0  0  0  0  0  0  0  0  0  0
  -28.8470  -15.4110   20.5480 H   0  0  0  0  0  0  0  0  0  0  0  0
  -25.3750  -13.8620   20.4780 C   0  0  0  0  0  0  0  0  0  0  0  0
  -24.3380  -13.0690   20.8890 C   0  0  0  0  0  0  0  0  0  0  0  0
  -24.8010  -11.7230   20.7680 C   0  0  0  0  0  0  0  0  0  0  0  0
  -26.4000  -12.9960   20.1310 N   0  0  0  0  0  0  0  0  0  0  0  0
  -26.0670  -11.7020   20.3680 N   0  0  0  0  0  0  0  0  0  0  0  0
  -24.0920  -10.4500   20.9580 C   0  0  0  0  0  0  0  0  0  0  0  0
  -24.5440   -9.4850   21.8860 C   0  0  0  0  0  3  0  0  0  0  0  0
  -23.8350   -8.2770   22.0660 C   0  0  0  0  0  3  0  0  0  0  0  0
  -22.6610   -8.0270   21.3170 C   0  0  0  0  0  0  0  0  0  0  0  0
  -22.2290   -8.9800   20.3800 C   0  0  0  0  0  3  0  0  0  0  0  0
  -22.9390  -10.1780   20.1970 C   0  0  0  0  0  3  0  0  0  0  0  0
  -21.9240   -6.8690   21.4060 O   0  0  0  0  0  0  0  0  0  0  0  0
  -21.8180   -6.1700   22.5820 C   0  0  0  0  0  0  0  0  0  0  0  0
  -21.2890   -6.7570   23.7530 C   0  0  0  0  0  3  0  0  0  0  0  0
  -21.1280   -5.9830   24.9180 C   0  0  0  0  0  3  0  0  0  0  0  0
  -21.4930   -4.6230   24.9160 C   0  0  0  0  0  0  0  0  0  0  0  0
  -22.0200   -4.0370   23.7510 C   0  0  0  0  0  3  0  0  0  0  0  0
  -22.1770   -4.8070   22.5870 C   0  0  0  0  0  0  0  0  0  0  0  0
  -22.6590   -4.2310   21.4580 F   0  0  0  0  0  0  0  0  0  0  0  0
  -21.3350   -3.8750   26.0330 F   0  0  0  0  0  0  0  0  0  0  0  0
  -22.9610  -13.5240   21.2800 C   0  0  0  0  0  0  0  0  0  0  0  0
  -22.2930  -12.7880   22.1630 N   0  0  0  0  0  0  0  0  0  0  0  0
  -22.4820  -14.5650   20.8330 O   0  0  0  0  0  0  0  0  0  0  0  0
  -22.6910  -11.9450   22.5500 H   0  0  0  0  0  0  0  0  0  0  0  0
  -21.3730  -13.0740   22.4630 H   0  0  0  0  0  0  0  0  0  0  0  0
  -25.5160  -15.2400   20.3480 N   0  0  0  0  0  0  0  0  0  0  0  0
  -24.7390  -15.8650   20.5390 H   0  0  0  0  0  0  0  0  0  0  0  0
  -26.3180  -15.7180   19.9590 H   0  0  0  0  0  0  0  0  0  0  0  0
  -29.7850  -22.2210   19.9860 C   0  0  0  0  0  3  0  0  0  0  0  0
  -28.7930  -23.5220   20.3410 C   0  0  0  0  0  3  0  0  0  0  0  0
  -28.5720  -25.0020   19.5970 C   0  0  0  0  0  2  0  0  0  0  0  0
  -28.4690  -26.3720   20.2590 O   0  0  0  0  0  0  0  0  0  0  0  0
  -24.7180  -31.8730   23.2310 C   0  0  0  0  0  0  0  0  0  0  0  0
  -27.3520  -27.2570   20.1670 C   0  0  0  0  0  0  0  0  0  0  0  0
  -23.5280  -30.4720   21.5850 C   0  0  0  0  0  3  0  0  0  0  0  0
  -24.9880  -28.9270   20.1540 C   0  0  0  0  0  0  0  0  0  0  0  0
  -26.0730  -30.7810   21.4180 C   0  0  0  0  0  2  0  0  0  0  0  0
  -26.1580  -29.3980   20.7610 C   0  0  0  0  0  0  0  0  0  0  0  0
  -27.3370  -28.5780   20.7540 C   0  0  0  0  0  3  0  0  0  0  0  0
  -26.1480  -26.8650   19.5380 C   0  0  0  0  0  3  0  0  0  0  0  0
  -24.9920  -27.6730   19.5270 C   0  0  0  0  0  3  0  0  0  0  0  0
  -23.7500  -29.8040   20.2030 C   0  0  0  0  0  2  0  0  0  0  0  0
  -24.7920  -31.0620   22.1330 N   0  0  0  0  0  0  0  0  0  0  0  0
  -23.6300  -32.1440   23.7590 O   0  0  0  0  0  0  0  0  0  0  0  0
  -22.8660  -29.4510   22.5430 C   0  0  0  0  0  0  0  0  0  0  0  0
  -21.5410  -29.2630   22.4110 N   0  0  0  0  0  0  0  0  0  0  0  0
  -23.5430  -28.8310   23.3670 O   0  0  0  0  0  0  0  0  0  0  0  0
  -21.0520  -29.8190   21.7230 H   0  0  0  0  0  0  0  0  0  0  0  0
  -18.1680  -28.0400   22.9070 C   0  0  0  0  0  0  0  0  0  0  0  0
  -20.7250  -28.3180   23.1780 C   0  0  0  0  0  3  0  0  0  0  0  0
  -20.8360  -26.8880   22.5980 C   0  0  0  0  0  2  0  0  0  0  0  0
  -19.7360  -26.5620   21.5820 C   0  0  0  0  0  2  0  0  0  0  0  0
  -18.3530  -26.6940   22.2270 C   0  0  0  0  0  2  0  0  0  0  0  0
  -19.2800  -28.8090   23.3400 C   0  0  0  0  0  0  0  0  0  0  0  0
  -19.0540  -30.0670   23.9380 C   0  0  0  0  0  3  0  0  0  0  0  0
  -17.7450  -30.5580   24.1050 C   0  0  0  0  0  3  0  0  0  0  0  0
  -16.6470  -29.7870   23.6890 C   0  0  0  0  0  3  0  0  0  0  0  0
  -16.8580  -28.5290   23.0960 C   0  0  0  0  0  3  0  0  0  0  0  0
  -25.9890  -32.5170   23.8620 C   0  0  0  0  0  3  0  0  0  0  0  0
  -26.4960  -31.7600   25.1510 C   0  0  1  0  0  0  0  0  0  0  0  0
  -25.3930  -31.5220   26.2090 C   0  0  0  0  0  1  0  0  0  0  0  0
  -27.0910  -30.3810   24.7820 C   0  0  0  0  0  1  0  0  0  0  0  0
  -27.6370  -32.5660   25.8170 C   0  0  0  0  0  1  0  0  0  0  0  0
  -25.6690  -33.9170   24.1790 N   0  0  0  0  0  0  0  0  0  0  0  0
  -26.0050  -34.9690   23.4210 C   0  0  0  0  0  0  0  0  0  0  0  0
  -26.6850  -34.8640   22.3970 O   0  0  0  0  0  0  0  0  0  0  0  0
  -25.0660  -34.0720   24.9750 H   0  0  0  0  0  0  0  0  0  0  0  0
  -24.2770  -36.7600   23.0430 C   0  0  0  0  0  1  0  0  0  0  0  0
  -25.5100  -36.3590   23.8700 C   0  0  0  0  0  3  0  0  0  0  0  0
  -27.6310  -37.2500   24.7290 C   0  0  0  0  0  1  0  0  0  0  0  0
  -26.5420  -37.4140   23.7680 N   0  0  0  0  0  0  0  0  0  0  0  0
  -26.1330  -38.3350   23.9050 H   0  0  0  0  0  0  0  0  0  0  0  0
  2  7  1  0
  3  5  1  0
  3  1  1  0
  4  2  1  0
  4  3  1  0
  4  5  1  0
  5  6  1  1
  7  1  1  0
  7  8  1  1
  9 17  1  0
 10 15  1  0
 11 12  1  0
 11 10  1  0
 13 12  1  0
 13 22  1  0
 13 14  1  0
 15  9  1  0
 15 14  1  0
 16  9  2  0
 17 18  1  0
 17  5  1  0
 19 20  2  0
 20 39  1  0
 21 20  1  0
 21 24  1  0
 22 23  1  0
 22 19  1  0
 23 21  2  0
 24 25  1  0
 25 26  2  0
 27 30  1  0
 27 26  1  0
 28 27  2  0
 29 28  1  0
 29 24  2  0
 30 31  1  0
 31 36  2  0
 31 32  1  0
 32 33  2  0
 34 33  1  0
 34 38  1  0
 35 34  2  0
 36 35  1  0
 37 36  1  0
 39 40  1  0
 40 43  1  0
 40 42  1  0
 41 39  2  0
 44 19  1  0
 44 45  1  0
 46 44  1  0
 47 48  2  0
 47  7  1  0
 49 50  1  0
 49 48  1  0
 51 62  2  0
 52 50  1  0
 52 57  1  0
 53 61  1  0
 53 63  1  0
 54 60  1  0
 54 56  1  0
 55 61  1  0
 56 55  1  0
 57 56  2  0
 58 52  2  0
 59 58  1  0
 59 54  2  0
 60 53  1  0
 61 51  1  0
 63 65  2  0
 64 63  1  0
 66 64  1  0
 67 76  2  0
 67 72  1  0
 68 64  1  0
 68 72  1  0
 69 68  1  0
 70 71  1  0
 70 69  1  0
 71 67  1  0
 72 73  2  0
 73 74  1  0
 75 74  2  0
 76 75  1  0
 77 51  1  0
 77 82  1  0
 77 78  1  0
 78 81  1  1
 78 79  1  0
 80 78  1  0
 82 85  1  0
 83 87  1  0
 83 82  1  0
 84 83  2  0
 87 86  1  0
 89 87  1  0
 89 90  1  0
 89 88  1  0
M  ISO  4   9 100  17 100  49 101  50 101
M  END
>  <TORSDO>  (8) 
F 19

>  <SCORE>  (8) 
-12.345

>  <name>  (8) 
7

>  <ligand_id>  (8) 
7

>  <original_smiles>  (8) 
[H]c1c([H])c([H])c2c(c1[H])C([H])([H])C([H])([H])C([H])([H])C2([H])N([H])C(=O)C1([H])N(C(=O)C([H])(N([H])C(=O)C([H])(N([H])C([H])([H])[H])C([H])([H])[H])C(C([H])([H])[H])(C([H])([H])[H])C([H])([H])[H])C([H])([H])c2c([H])c(OC([H])([H])C([H])([H])C([H])([H])[N+]3([H])C([H])([H])C4([H])C([H])(C4(N([H])C(=O)N4C([H])([H])C([H])([H])C([H])([H])C([H])(n5nc(-c6c([H])c([H])c(Oc7c([H])c([H])c(F)c([H])c7F)c([H])c6[H])c(C(=O)N([H])[H])c5N([H])[H])C4([H])[H])C([H])([H])[H])C3([H])[H])c([H])c([H])c2C1([H])[H]

>  <smiles>  (8) 
[H]c1c([H])c([H])c2c(c1[H])C([H])([H])C([H])([H])C([H])([H])C2([H])N([H])C(=O)C1([H])N(C(=O)C([H])(N([H])C(=O)C([H])(N([H])C([H])([H])[H])C([H])([H])[H])C(C([H])([H])[H])(C([H])([H])[H])C([H])([H])[H])C([H])([H])c2c([H])c(OC([H])([H])C([H])([H])C([H])([H])[N+]3([H])C([H])([H])C4([H])C([H])(C4(N([H])C(=O)N4C([H])([H])C([H])([H])C([H])([H])C([H])(n5nc(-c6c([H])c([H])c(Oc7c([H])c([H])c(F)c([H])c7F)c([H])c6[H])c(C(=O)N([H])[H])c5N([H])[H])C4([H])[H])C([H])([H])[H])C3([H])[H])c([H])c([H])c2C1([H])[H]

$$$$
8:0:0
     RDKit          3D

 93102  0  0  1  0  0  0  0  0999 V2000
  -30.1460  -20.8560   23.1080 C   0  0  0  0  0  3  0  0  0  0  0  0
  -30.0040  -19.4910   23.1030 C   0  0  0  0  0  3  0  0  0  0  0  0
  -30.6260  -21.9560   19.5770 C   0  0  0  0  0  3  0  0  0  0  0  0
  -30.3680  -23.8900   21.0600 C   0  0  0  0  0  3  0  0  0  0  0  0
  -30.4100  -21.5750   21.9330 C   0  0  0  0  0  0  0  0  0  0  0  0
  -30.6590  -20.8980   20.6650 C   0  0  0  0  0  0  0  0  0  0  0  0
  -30.2800  -18.7490   21.9600 C   0  0  0  0  0  0  0  0  0  0  0  0
  -30.4020  -23.4550   19.7430 C   0  0  0  0  0  0  0  0  0  0  0  0
  -30.3530  -22.9950   22.1270 C   0  0  0  0  0  0  0  0  0  0  0  0
  -30.8100  -19.3350   20.7460 C   0  0  0  0  0  0  0  0  0  0  0  0
  -29.9670  -17.2710   22.1840 C   0  0  0  0  0  1  0  0  0  0  0  0
  -30.1890  -23.6450   23.5050 C   0  0  0  0  0  1  0  0  0  0  0  0
  -31.5120  -18.1020   19.8110 C   0  0  0  0  0  2  0  0  0  0  0  0
  -32.1610  -15.2550   19.7310 C   0  0  0  0  0  0  0  0  0  0  0  0
  -31.9290  -12.8460   18.8880 C   0  0  0  0  0  2  0  0  0  0  0  0
  -30.9310  -12.7450   17.7070 C   0  0  0  0  0  2  0  0  0  0  0  0
  -29.4850  -12.6120   18.2130 C   0  0  0  0  0  2  0  0  0  0  0  0
  -29.1710  -13.6120   19.3550 C   0  0  0  0  0  3  0  0  0  0  0  0
  -30.2760  -13.6460   20.4320 C   0  0  0  0  0  2  0  0  0  0  0  0
  -31.5270  -14.0020   19.7490 N   0  0  0  0  0  0  0  0  0  0  0  0
  -33.3530  -15.2540   19.4030 O   0  0  0  0  0  0  0  0  0  0  0  0
  -31.4040  -16.4740   19.8900 N   0  0  0  0  0  0  0  0  0  0  0  0
  -30.4550  -16.2240   20.1140 H   0  0  0  0  0  0  0  0  0  0  0  0
  -26.8830  -14.3410   20.2320 C   0  0  0  0  0  0  0  0  0  0  0  0
  -25.7840  -13.6390   20.6410 C   0  0  0  0  0  0  0  0  0  0  0  0
  -26.1450  -12.2590   20.5630 C   0  0  0  0  0  0  0  0  0  0  0  0
  -27.8450  -13.3960   19.9210 N   0  0  0  0  0  0  0  0  0  0  0  0
  -27.4130  -12.1360   20.1870 N   0  0  0  0  0  0  0  0  0  0  0  0
  -25.3360  -11.0510   20.7700 C   0  0  0  0  0  0  0  0  0  0  0  0
  -25.6160  -10.1460   21.8170 C   0  0  0  0  0  3  0  0  0  0  0  0
  -24.8120   -9.0020   22.0080 C   0  0  0  0  0  3  0  0  0  0  0  0
  -23.7130   -8.7560   21.1500 C   0  0  0  0  0  0  0  0  0  0  0  0
  -23.4500   -9.6490   20.0950 C   0  0  0  0  0  3  0  0  0  0  0  0
  -24.2550  -10.7850   19.9030 C   0  0  0  0  0  3  0  0  0  0  0  0
  -22.8900   -7.6620   21.2470 O   0  0  0  0  0  0  0  0  0  0  0  0
  -22.4210   -7.2160   22.4570 C   0  0  0  0  0  0  0  0  0  0  0  0
  -21.6890   -8.0550   23.3270 C   0  0  0  0  0  3  0  0  0  0  0  0
  -21.1630   -7.5370   24.5270 C   0  0  0  0  0  3  0  0  0  0  0  0
  -21.3600   -6.1830   24.8580 C   0  0  0  0  0  0  0  0  0  0  0  0
  -22.0860   -5.3460   23.9920 C   0  0  0  0  0  3  0  0  0  0  0  0
  -22.6100   -5.8600   22.7940 C   0  0  0  0  0  0  0  0  0  0  0  0
  -23.2880   -5.0420   21.9510 F   0  0  0  0  0  0  0  0  0  0  0  0
  -20.8490   -5.6850   26.0060 F   0  0  0  0  0  0  0  0  0  0  0  0
  -24.4400  -14.2140   20.9810 C   0  0  0  0  0  0  0  0  0  0  0  0
  -23.7300  -13.6020   21.9220 N   0  0  0  0  0  0  0  0  0  0  0  0
  -24.0350  -15.2480   20.4490 O   0  0  0  0  0  0  0  0  0  0  0  0
  -24.0760  -12.7720   22.3800 H   0  0  0  0  0  0  0  0  0  0  0  0
  -22.8290  -13.9710   22.1900 H   0  0  0  0  0  0  0  0  0  0  0  0
  -27.1270  -15.7010   20.0680 N   0  0  0  0  0  0  0  0  0  0  0  0
  -26.3790  -16.3710   20.2090 H   0  0  0  0  0  0  0  0  0  0  0  0
  -27.9170  -16.0890   19.5740 H   0  0  0  0  0  0  0  0  0  0  0  0
  -30.0770  -24.7070   18.6910 C   0  0  0  0  0  2  0  0  0  0  0  0
  -29.8930  -26.2420   19.0700 O   0  0  0  0  0  0  0  0  0  0  0  0
  -25.3100  -30.5890   22.9310 C   0  0  0  0  0  0  0  0  0  0  0  0
  -28.6580  -27.0150   19.1260 C   0  0  0  0  0  0  0  0  0  0  0  0
  -24.3450  -29.2620   21.0900 C   0  0  0  0  0  3  0  0  0  0  0  0
  -26.0210  -28.2640   19.4060 C   0  0  0  0  0  0  0  0  0  0  0  0
  -26.7890  -30.0560   20.9520 C   0  0  0  0  0  2  0  0  0  0  0  0
  -27.1140  -28.8270   20.0740 C   0  0  0  0  0  0  0  0  0  0  0  0
  -28.4240  -28.2180   19.9260 C   0  0  0  0  0  3  0  0  0  0  0  0
  -27.5160  -26.5790   18.4200 C   0  0  0  0  0  3  0  0  0  0  0  0
  -26.2340  -27.1600   18.5650 C   0  0  0  0  0  3  0  0  0  0  0  0
  -24.6420  -28.8750   19.6160 C   0  0  0  0  0  2  0  0  0  0  0  0
  -25.4990  -29.9870   21.7150 N   0  0  0  0  0  0  0  0  0  0  0  0
  -24.2130  -30.5520   23.5100 O   0  0  0  0  0  0  0  0  0  0  0  0
  -23.9230  -27.9970   21.8750 C   0  0  0  0  0  0  0  0  0  0  0  0
  -22.6830  -27.5210   21.6570 N   0  0  0  0  0  0  0  0  0  0  0  0
  -24.7130  -27.4490   22.6470 O   0  0  0  0  0  0  0  0  0  0  0  0
  -22.0820  -28.0310   21.0270 H   0  0  0  0  0  0  0  0  0  0  0  0
  -19.7440  -25.4020   21.7530 C   0  0  0  0  0  0  0  0  0  0  0  0
  -22.1140  -26.3090   22.2550 C   0  0  0  0  0  3  0  0  0  0  0  0
  -22.6370  -25.0370   21.5480 C   0  0  0  0  0  2  0  0  0  0  0  0
  -21.7220  -24.5560   20.4170 C   0  0  0  0  0  2  0  0  0  0  0  0
  -20.3230  -24.2440   20.9540 C   0  0  0  0  0  2  0  0  0  0  0  0
  -20.5850  -26.3790   22.3510 C   0  0  0  0  0  0  0  0  0  0  0  0
  -19.9940  -27.4510   23.0540 C   0  0  0  0  0  3  0  0  0  0  0  0
  -18.5940  -27.5580   23.1630 C   0  0  0  0  0  3  0  0  0  0  0  0
  -17.7680  -26.5810   22.5820 C   0  0  0  0  0  3  0  0  0  0  0  0
  -18.3440  -25.5010   21.8860 C   0  0  0  0  0  3  0  0  0  0  0  0
  -26.4580  -31.3660   23.6440 C   0  0  0  0  0  3  0  0  0  0  0  0
  -25.8960  -32.6250   24.1630 N   0  0  0  0  0  0  0  0  0  0  0  0
  -26.0490  -33.8250   23.5900 C   0  0  0  0  0  0  0  0  0  0  0  0
  -26.7460  -34.0010   22.5870 O   0  0  0  0  0  0  0  0  0  0  0  0
  -25.2770  -32.5480   24.9570 H   0  0  0  0  0  0  0  0  0  0  0  0
  -24.0390  -35.3330   23.4330 C   0  0  0  0  0  1  0  0  0  0  0  0
  -25.3170  -35.0240   24.2300 C   0  0  0  0  0  3  0  0  0  0  0  0
  -27.2460  -36.1250   25.2820 C   0  0  0  0  0  1  0  0  0  0  0  0
  -26.1510  -36.2430   24.3220 N   0  0  0  0  0  0  0  0  0  0  0  0
  -25.5870  -37.0480   24.5840 H   0  0  0  0  0  0  0  0  0  0  0  0
  -27.1280  -30.5450   24.8150 C   0  0  1  0  0  0  0  0  0  0  0  0
  -26.1150  -29.9770   25.8370 C   0  0  0  0  0  1  0  0  0  0  0  0
  -27.9490  -29.3600   24.2580 C   0  0  0  0  0  1  0  0  0  0  0  0
  -28.1240  -31.4450   25.5840 C   0  0  0  0  0  1  0  0  0  0  0  0
  2  1  1  0
  3  8  2  0
  3  6  1  0
  4  9  2  0
  5  9  1  0
  5  1  2  0
  6 10  2  0
  6  5  1  0
  7 11  1  0
  7  2  2  0
  8  4  1  0
  9 12  1  0
 10  7  1  0
 13 22  1  0
 13 10  1  0
 14 20  1  0
 14 22  1  0
 15 20  1  0
 16 17  1  0
 16 15  1  0
 18 17  1  0
 18 27  1  0
 18 19  1  0
 20 19  1  0
 21 14  2  0
 22 23  1  0
 24 25  2  0
 25 44  1  0
 26 25  1  0
 26 29  1  0
 27 28  1  0
 27 24  1  0
 28 26  2  0
 29 30  1  0
 30 31  2  0
 32 35  1  0
 32 31  1  0
 33 32  2  0
 34 33  1  0
 34 29  2  0
 35 36  1  0
 36 41  2  0
 36 37  1  0
 37 38  2  0
 38 39  1  0
 39 43  1  0
 40 39  2  0
 41 40  1  0
 42 41  1  0
 44 45  1  0
 45 48  1  0
 45 47  1  0
 46 44  2  0
 49 50  1  0
 49 24  1  0
 51 49  1  0
 52 53  1  0
 52  8  1  0
 53 55  1  0
 54 65  2  0
 55 60  1  0
 56 64  1  0
 56 66  1  0
 57 63  1  0
 57 59  1  0
 58 64  1  0
 59 58  1  0
 60 59  2  0
 61 62  1  0
 61 55  2  0
 62 57  2  0
 63 56  1  0
 64 54  1  0
 66 68  2  0
 67 66  1  0
 69 67  1  0
 70 79  2  0
 70 75  1  0
 71 67  1  0
 71 75  1  0
 72 71  1  0
 73 74  1  0
 73 72  1  0
 74 70  1  0
 75 76  2  0
 76 77  1  0
 78 77  2  0
 79 78  1  0
 80 54  1  0
 80 81  1  0
 80 90  1  0
 81 84  1  0
 82 81  1  0
 82 86  1  0
 83 82  2  0
 86 85  1  0
 86 88  1  0
 88 89  1  0
 88 87  1  0
 90 93  1  1
 90 91  1  0
 92 90  1  0
M  ISO  4  14 100  22 100  52 101  53 101
M  END
>  <TORSDO>  (9) 
F 18

>  <SCORE>  (9) 
-6.965

>  <name>  (9) 
8

>  <ligand_id>  (9) 
8

>  <original_smiles>  (9) 
[H]c1c([H])c([H])c2c(c1[H])C([H])([H])C([H])([H])C([H])([H])C2([H])N([H])C(=O)C1([H])N(C(=O)C([H])(N([H])C(=O)C([H])(N([H])C([H])([H])[H])C([H])([H])[H])C(C([H])([H])[H])(C([H])([H])[H])C([H])([H])[H])C([H])([H])c2c([H])c(OC([H])([H])c3c([H])c(C([H])([H])[H])c4c([H])c([H])c(C([H])([H])[H])c(C([H])([H])N([H])C(=O)N5C([H])([H])C([H])([H])C([H])([H])C([H])(n6nc(-c7c([H])c([H])c(Oc8c([H])c([H])c(F)c([H])c8F)c([H])c7[H])c(C(=O)N([H])[H])c6N([H])[H])C5([H])[H])c4c3[H])c([H])c([H])c2C1([H])[H]

>  <smiles>  (9) 
[H]c1c([H])c([H])c2c(c1[H])C([H])([H])C([H])([H])C([H])([H])C2([H])N([H])C(=O)C1([H])N(C(=O)C([H])(N([H])C(=O)C([H])(N([H])C([H])([H])[H])C([H])([H])[H])C(C([H])([H])[H])(C([H])([H])[H])C([H])([H])[H])C([H])([H])c2c([H])c(OC([H])([H])c3c([H])c(C([H])([H])[H])c4c([H])c([H])c(C([H])([H])[H])c(C([H])([H])N([H])C(=O)N5C([H])([H])C([H])([H])C([H])([H])C([H])(n6nc(-c7c([H])c([H])c(Oc8c([H])c([H])c(F)c([H])c8F)c([H])c7[H])c(C(=O)N([H])[H])c6N([H])[H])C5([H])[H])c4c3[H])c([H])c([H])c2C1([H])[H]

$$$$
9:0:0
     RDKit          3D

 94102  0  0  1  0  0  0  0  0999 V2000
  -30.4720  -20.0670   19.4260 C   0  0  0  0  0  3  0  0  0  0  0  0
  -30.2880  -21.4700   19.1290 C   0  0  0  0  0  3  0  0  0  0  0  0
  -28.6480  -20.1530   20.9200 C   0  0  0  0  0  3  0  0  0  0  0  0
  -29.7010  -19.3380   20.3860 C   0  0  0  0  0  0  0  0  0  0  0  0
  -29.3080  -22.3160   19.7450 C   0  0  0  0  0  0  0  0  0  0  0  0
  -28.4480  -21.5670   20.6260 C   0  0  0  0  0  0  0  0  0  0  0  0
  -31.7020  -18.1190   21.4490 C   0  0  0  0  0  1  0  0  0  0  0  0
  -30.2150  -17.9410   21.0770 C   0  0  0  0  0  0  0  0  0  0  0  0
  -30.6530  -15.2780   20.6510 C   0  0  0  0  0  0  0  0  0  0  0  0
  -30.6210  -12.9030   19.8080 C   0  0  0  0  0  2  0  0  0  0  0  0
  -29.7790  -12.7880   18.5200 C   0  0  0  0  0  2  0  0  0  0  0  0
  -28.2930  -12.5660   18.8630 C   0  0  0  0  0  2  0  0  0  0  0  0
  -27.7840  -13.5330   19.9650 C   0  0  0  0  0  3  0  0  0  0  0  0
  -28.7600  -13.6310   21.1550 C   0  0  0  0  0  2  0  0  0  0  0  0
  -30.0620  -14.0260   20.6060 N   0  0  0  0  0  0  0  0  0  0  0  0
  -31.8720  -15.3320   20.4650 O   0  0  0  0  0  0  0  0  0  0  0  0
  -29.8720  -16.4540   20.7210 N   0  0  0  0  0  4  0  0  0  0  0  0
  -28.8810  -16.2670   20.7130 H   0  0  0  0  0  0  0  0  0  0  0  0
  -25.3520  -14.0630   20.5670 C   0  0  0  0  0  0  0  0  0  0  0  0
  -24.2860  -13.2650   20.8780 C   0  0  0  0  0  0  0  0  0  0  0  0
  -24.7820  -11.9250   20.8790 C   0  0  0  0  0  0  0  0  0  0  0  0
  -26.4270  -13.2070   20.3900 N   0  0  0  0  0  0  0  0  0  0  0  0
  -26.0890  -11.9170   20.6450 N   0  0  0  0  0  0  0  0  0  0  0  0
  -24.0730  -10.6460   21.0280 C   0  0  0  0  0  0  0  0  0  0  0  0
  -24.4870   -9.6770   21.9700 C   0  0  0  0  0  3  0  0  0  0  0  0
  -23.7750   -8.4660   22.1100 C   0  0  0  0  0  3  0  0  0  0  0  0
  -22.6360   -8.2150   21.3080 C   0  0  0  0  0  0  0  0  0  0  0  0
  -22.2440   -9.1730   20.3560 C   0  0  0  0  0  3  0  0  0  0  0  0
  -22.9550  -10.3750   20.2140 C   0  0  0  0  0  3  0  0  0  0  0  0
  -21.8990   -7.0560   21.3560 O   0  0  0  0  0  0  0  0  0  0  0  0
  -21.8460   -6.2830   22.4890 C   0  0  0  0  0  0  0  0  0  0  0  0
  -21.4030   -6.8030   23.7250 C   0  0  0  0  0  3  0  0  0  0  0  0
  -21.2980   -5.9570   24.8480 C   0  0  0  0  0  3  0  0  0  0  0  0
  -21.6270   -4.5930   24.7350 C   0  0  0  0  0  0  0  0  0  0  0  0
  -22.0640   -4.0730   23.5040 C   0  0  0  0  0  3  0  0  0  0  0  0
  -22.1700   -4.9160   22.3830 C   0  0  0  0  0  0  0  0  0  0  0  0
  -22.5710   -4.4060   21.1940 F   0  0  0  0  0  0  0  0  0  0  0  0
  -21.5190   -3.7790   25.8100 F   0  0  0  0  0  0  0  0  0  0  0  0
  -22.8650  -13.7110   21.0620 C   0  0  0  0  0  0  0  0  0  0  0  0
  -22.1020  -13.0040   21.8880 N   0  0  0  0  0  0  0  0  0  0  0  0
  -22.4370  -14.7230   20.5080 O   0  0  0  0  0  0  0  0  0  0  0  0
  -22.4590  -12.1860   22.3590 H   0  0  0  0  0  0  0  0  0  0  0  0
  -21.1470  -13.2860   22.0520 H   0  0  0  0  0  0  0  0  0  0  0  0
  -25.4920  -15.4360   20.3910 N   0  0  0  0  0  0  0  0  0  0  0  0
  -24.6980  -16.0660   20.4540 H   0  0  0  0  0  0  0  0  0  0  0  0
  -26.3340  -15.8930   20.0660 H   0  0  0  0  0  0  0  0  0  0  0  0
  -29.4330  -23.9510   19.6540 C   0  0  0  0  0  3  0  0  0  0  0  0
  -28.3290  -25.0820   19.1740 C   0  0  0  0  0  3  0  0  0  0  0  0
  -28.5240  -26.5860   19.4200 O   0  0  0  0  0  0  0  0  0  0  0  0
  -24.7570  -31.7020   23.0600 C   0  0  0  0  0  0  0  0  0  0  0  0
  -27.4140  -27.4850   19.4800 C   0  0  0  0  0  0  0  0  0  0  0  0
  -23.5590  -30.4420   21.3120 C   0  0  0  0  0  3  0  0  0  0  0  0
  -25.0180  -29.0910   19.6930 C   0  0  0  0  0  0  0  0  0  0  0  0
  -26.0910  -30.8370   21.1100 C   0  0  0  0  0  2  0  0  0  0  0  0
  -26.1950  -29.5300   20.3140 C   0  0  0  0  0  0  0  0  0  0  0  0
  -27.3940  -28.7440   20.1920 C   0  0  0  0  0  3  0  0  0  0  0  0
  -26.2090  -27.1350   18.8340 C   0  0  0  0  0  3  0  0  0  0  0  0
  -25.0340  -27.9070   18.9410 C   0  0  0  0  0  3  0  0  0  0  0  0
  -23.7610  -29.9250   19.8650 C   0  0  0  0  0  2  0  0  0  0  0  0
  -24.8240  -31.0080   21.8840 N   0  0  0  0  0  0  0  0  0  0  0  0
  -23.6780  -31.8870   23.6430 O   0  0  0  0  0  0  0  0  0  0  0  0
  -22.9480  -29.3120   22.1770 C   0  0  0  0  0  0  0  0  0  0  0  0
  -21.6220  -29.1140   22.0730 N   0  0  0  0  0  0  0  0  0  0  0  0
  -23.6660  -28.6210   22.9030 O   0  0  0  0  0  0  0  0  0  0  0  0
  -21.0970  -29.7270   21.4660 H   0  0  0  0  0  0  0  0  0  0  0  0
  -18.2910  -27.7800   22.5610 C   0  0  0  0  0  0  0  0  0  0  0  0
  -20.8530  -28.0740   22.7620 C   0  0  0  0  0  3  0  0  0  0  0  0
  -20.9610  -26.7200   22.0230 C   0  0  0  0  0  2  0  0  0  0  0  0
  -19.8270  -26.4860   21.0200 C   0  0  0  0  0  2  0  0  0  0  0  0
  -18.4690  -26.5220   21.7270 C   0  0  0  0  0  2  0  0  0  0  0  0
  -19.4090  -28.5170   23.0330 C   0  0  0  0  0  0  0  0  0  0  0  0
  -19.1870  -29.6970   23.7760 C   0  0  0  0  0  3  0  0  0  0  0  0
  -17.8800  -30.1400   24.0490 C   0  0  0  0  0  3  0  0  0  0  0  0
  -16.7760  -29.3990   23.5910 C   0  0  0  0  0  3  0  0  0  0  0  0
  -16.9830  -28.2200   22.8530 C   0  0  0  0  0  3  0  0  0  0  0  0
  -26.0310  -32.3140   23.7190 C   0  0  0  0  0  3  0  0  0  0  0  0
  -25.6870  -33.6650   24.1860 N   0  0  0  0  0  0  0  0  0  0  0  0
  -25.9610  -34.7960   23.5210 C   0  0  0  0  0  0  0  0  0  0  0  0
  -26.5980  -34.8110   22.4650 O   0  0  0  0  0  0  0  0  0  0  0  0
  -25.1140  -33.7250   25.0160 H   0  0  0  0  0  0  0  0  0  0  0  0
  -24.1550  -36.5460   23.4100 C   0  0  0  0  0  1  0  0  0  0  0  0
  -25.4480  -36.1190   24.1220 C   0  0  0  0  0  3  0  0  0  0  0  0
  -27.5870  -37.0140   24.9310 C   0  0  0  0  0  1  0  0  0  0  0  0
  -26.4360  -37.2190   24.0560 N   0  0  0  0  0  0  0  0  0  0  0  0
  -26.0040  -38.1060   24.3030 H   0  0  0  0  0  0  0  0  0  0  0  0
  -26.5890  -31.4450   24.9130 C   0  0  1  0  0  0  0  0  0  0  0  0
  -25.5250  -31.0870   25.9760 C   0  0  0  0  0  1  0  0  0  0  0  0
  -27.1960  -30.1220   24.3930 C   0  0  0  0  0  1  0  0  0  0  0  0
  -27.7350  -32.2060   25.6220 C   0  0  0  0  0  1  0  0  0  0  0  0
  -27.3060  -22.2750   21.3450 C   0  0  0  0  0  2  0  0  0  0  0  0
  -26.1370  -22.3960   20.4660 N   0  0  0  0  0  4  0  0  0  0  0  0
  -26.3700  -22.9180   19.6420 H   0  0  0  0  0  0  0  0  0  0  0  0
  -25.3900  -22.8610   20.9490 H   0  0  0  0  0  0  0  0  0  0  0  0
  -25.8190  -21.4860   20.1880 H   0  0  0  0  0  0  0  0  0  0  0  0
  1  4  1  0
  2  1  2  0
  2  5  1  0
  4  3  2  0
  4  8  1  0
  5  6  2  0
  6  3  1  0
  6 90  1  0
  8  7  1  0
  9 17  1  0
 10 15  1  0
 11 12  1  0
 11 10  1  0
 13 12  1  0
 13 22  1  0
 13 14  1  0
 15  9  1  0
 15 14  1  0
 16  9  2  0
 17  8  2  0
 18 17  1  0
 19 20  2  0
 20 21  1  0
 20 39  1  0
 21 24  1  0
 22 19  1  0
 22 23  1  0
 23 21  2  0
 24 25  1  0
 25 26  2  0
 27 30  1  0
 27 26  1  0
 28 27  2  0
 29 28  1  0
 29 24  2  0
 30 31  1  0
 31 32  1  0
 32 33  2  0
 34 33  1  0
 34 38  1  0
 35 34  2  0
 36 31  2  0
 36 35  1  0
 37 36  1  0
 39 40  1  0
 40 43  1  0
 40 42  1  0
 41 39  2  0
 44 45  1  0
 44 19  1  0
 46 44  1  0
 47  5  1  0
 48 49  1  0
 48 47  2  0
 49 51  1  0
 50 61  2  0
 51 56  1  0
 52 60  1  0
 52 62  1  0
 53 59  1  0
 53 55  1  0
 54 60  1  0
 55 54  1  0
 56 55  2  0
 57 58  1  0
 57 51  2  0
 58 53  2  0
 59 52  1  0
 60 50  1  0
 62 64  2  0
 63 62  1  0
 65 63  1  0
 66 75  2  0
 66 71  1  0
 67 63  1  0
 67 71  1  0
 68 67  1  0
 69 70  1  0
 69 68  1  0
 70 66  1  0
 71 72  2  0
 72 73  1  0
 74 73  2  0
 75 74  1  0
 76 50  1  0
 76 77  1  0
 76 86  1  0
 77 80  1  0
 78 82  1  0
 78 77  1  0
 79 78  2  0
 82 81  1  0
 84 82  1  0
 84 85  1  0
 84 83  1  0
 86 89  1  1
 86 87  1  0
 88 86  1  0
 91 93  1  0
 91 90  1  0
 92 91  1  0
 94 91  1  0
M  ISO  4   9 100  17 100  48 101  49 101
M  END
>  <TORSDO>  (10) 
F 21

>  <SCORE>  (10) 
-12.544

>  <name>  (10) 
9

>  <ligand_id>  (10) 
9

>  <original_smiles>  (10) 
[H]c1c([H])c([H])c2c(c1[H])C([H])([H])C([H])([H])C([H])([H])C2([H])N([H])C(=O)C1([H])N(C(=O)C([H])(N([H])C(=O)C([H])(N([H])C([H])([H])[H])C([H])([H])[H])C(C([H])([H])[H])(C([H])([H])[H])C([H])([H])[H])C([H])([H])c2c([H])c(OC([H])([H])C([H])([H])c3c([H])c([H])c(C([H])(N([H])C(=O)N4C([H])([H])C([H])([H])C([H])([H])C([H])(n5nc(-c6c([H])c([H])c(Oc7c([H])c([H])c(F)c([H])c7F)c([H])c6[H])c(C(=O)N([H])[H])c5N([H])[H])C4([H])[H])C([H])([H])[H])c([H])c3C([H])([H])[N+]([H])([H])[H])c([H])c([H])c2C1([H])[H]

>  <smiles>  (10) 
[H]c1c([H])c([H])c2c(c1[H])C([H])([H])C([H])([H])C([H])([H])C2([H])N([H])C(=O)C1([H])N(C(=O)C([H])(N([H])C(=O)C([H])(N([H])C([H])([H])[H])C([H])([H])[H])C(C([H])([H])[H])(C([H])([H])[H])C([H])([H])[H])C([H])([H])c2c([H])c(OC([H])([H])C([H])([H])c3c([H])c([H])c(C([H])(N([H])C(=O)N4C([H])([H])C([H])([H])C([H])([H])C([H])(n5nc(-c6c([H])c([H])c(Oc7c([H])c([H])c(F)c([H])c7F)c([H])c6[H])c(C(=O)N([H])[H])c5N([H])[H])C4([H])[H])C([H])([H])[H])c([H])c3C([H])([H])[N+]([H])([H])[H])c([H])c([H])c2C1([H])[H]

$$$$
10:0:0
     RDKit          3D

 93102  0  0  1  0  0  0  0  0999 V2000
  -29.2340  -22.8790   20.8690 C   0  0  0  0  0  0  0  0  0  0  0  0
  -29.8060  -21.8410   20.2160 N   0  0  0  0  0  0  0  0  0  0  0  0
  -28.7350  -22.7440   21.9890 O   0  0  0  0  0  0  0  0  0  0  0  0
  -30.1400  -22.0490   19.2860 H   0  0  0  0  0  0  0  0  0  0  0  0
  -32.2930  -20.5550   19.7170 C   0  0  0  0  0  2  0  0  0  0  0  0
  -31.3060  -20.0040   18.6660 C   0  0  0  0  0  2  0  0  0  0  0  0
  -31.6520  -18.6930   21.2960 C   0  0  0  0  0  2  0  0  0  0  0  0
  -31.5700  -20.2260   21.0420 C   0  0  0  0  0  3  0  0  0  0  0  0
  -30.1840  -19.4000   19.5510 C   0  0  0  0  0  3  0  0  0  0  0  0
  -30.7410  -18.0710   20.2050 C   0  0  0  0  0  3  0  0  0  0  0  0
  -30.0930  -20.4530   20.6850 C   0  0  0  0  0  3  0  0  0  0  0  0
  -29.6150  -17.1020   20.7220 C   0  0  0  0  0  2  0  0  0  0  0  0
  -30.5920  -14.6380   20.4810 C   0  0  0  0  0  0  0  0  0  0  0  0
  -30.3870  -12.4400   19.3420 C   0  0  0  0  0  2  0  0  0  0  0  0
  -29.4390  -12.6230   18.1330 C   0  0  0  0  0  2  0  0  0  0  0  0
  -27.9580  -12.4790   18.5430 C   0  0  0  0  0  2  0  0  0  0  0  0
  -27.6160  -13.2680   19.8370 C   0  0  0  0  0  3  0  0  0  0  0  0
  -28.6780  -13.0400   20.9390 C   0  0  0  0  0  2  0  0  0  0  0  0
  -29.9900  -13.4100   20.3800 N   0  0  0  0  0  0  0  0  0  0  0  0
  -31.7090  -14.8580   20.0130 O   0  0  0  0  0  0  0  0  0  0  0  0
  -29.7970  -15.6290   20.9730 N   0  0  0  0  0  0  0  0  0  0  0  0
  -28.9720  -15.2340   21.4020 H   0  0  0  0  0  0  0  0  0  0  0  0
  -25.2110  -13.8600   20.5220 C   0  0  0  0  0  0  0  0  0  0  0  0
  -24.1420  -13.0850   20.8900 C   0  0  0  0  0  0  0  0  0  0  0  0
  -24.6060  -11.7340   20.8650 C   0  0  0  0  0  0  0  0  0  0  0  0
  -26.2610  -12.9800   20.3060 N   0  0  0  0  0  0  0  0  0  0  0  0
  -25.9000  -11.6950   20.5600 N   0  0  0  0  0  0  0  0  0  0  0  0
  -23.8790  -10.4730   21.0550 C   0  0  0  0  0  0  0  0  0  0  0  0
  -24.3090   -9.5030   21.9860 C   0  0  0  0  0  3  0  0  0  0  0  0
  -23.5810   -8.3070   22.1630 C   0  0  0  0  0  3  0  0  0  0  0  0
  -22.4080   -8.0720   21.4070 C   0  0  0  0  0  0  0  0  0  0  0  0
  -21.9960   -9.0310   20.4650 C   0  0  0  0  0  3  0  0  0  0  0  0
  -22.7250  -10.2180   20.2870 C   0  0  0  0  0  3  0  0  0  0  0  0
  -21.6510   -6.9280   21.4940 O   0  0  0  0  0  0  0  0  0  0  0  0
  -21.6080   -6.1780   22.6420 C   0  0  0  0  0  0  0  0  0  0  0  0
  -21.1880   -6.7260   23.8750 C   0  0  0  0  0  3  0  0  0  0  0  0
  -21.0920   -5.9030   25.0140 C   0  0  0  0  0  3  0  0  0  0  0  0
  -21.4020   -4.5330   24.9230 C   0  0  0  0  0  0  0  0  0  0  0  0
  -21.8190   -3.9860   23.6970 C   0  0  0  0  0  3  0  0  0  0  0  0
  -21.9170   -4.8050   22.5590 C   0  0  0  0  0  0  0  0  0  0  0  0
  -22.2940   -4.2650   21.3740 F   0  0  0  0  0  0  0  0  0  0  0  0
  -21.3060   -3.7420   26.0180 F   0  0  0  0  0  0  0  0  0  0  0  0
  -22.7430  -13.5630   21.1550 C   0  0  0  0  0  0  0  0  0  0  0  0
  -22.0100  -12.8670   22.0200 N   0  0  0  0  0  0  0  0  0  0  0  0
  -22.3080  -14.5880   20.6330 O   0  0  0  0  0  0  0  0  0  0  0  0
  -22.3780  -12.0420   22.4700 H   0  0  0  0  0  0  0  0  0  0  0  0
  -21.0700  -13.1680   22.2340 H   0  0  0  0  0  0  0  0  0  0  0  0
  -25.3660  -15.2290   20.3400 N   0  0  0  0  0  0  0  0  0  0  0  0
  -24.5800  -15.8670   20.4220 H   0  0  0  0  0  0  0  0  0  0  0  0
  -26.2040  -15.6800   19.9950 H   0  0  0  0  0  0  0  0  0  0  0  0
  -29.2570  -24.2700   20.1710 C   0  0  0  0  0  2  0  0  0  0  0  0
  -28.4200  -25.4060   20.8540 C   0  0  0  0  0  2  0  0  0  0  0  0
  -28.4200  -26.6710   20.1400 O   0  0  0  0  0  0  0  0  0  0  0  0
  -24.5850  -31.8740   23.2270 C   0  0  0  0  0  0  0  0  0  0  0  0
  -27.2480  -27.4080   20.1690 C   0  0  0  0  0  0  0  0  0  0  0  0
  -23.3840  -30.4670   21.5860 C   0  0  0  0  0  3  0  0  0  0  0  0
  -24.8430  -28.9180   20.1740 C   0  0  0  0  0  0  0  0  0  0  0  0
  -25.9050  -30.8330   21.3740 C   0  0  0  0  0  2  0  0  0  0  0  0
  -26.0020  -29.4510   20.7520 C   0  0  0  0  0  0  0  0  0  0  0  0
  -27.2100  -28.7080   20.7370 C   0  0  0  0  0  3  0  0  0  0  0  0
  -26.0670  -26.8920   19.5960 C   0  0  0  0  0  3  0  0  0  0  0  0
  -24.8710  -27.6370   19.5930 C   0  0  0  0  0  3  0  0  0  0  0  0
  -23.5960  -29.7770   20.2120 C   0  0  0  0  0  2  0  0  0  0  0  0
  -24.6450  -31.0740   22.1230 N   0  0  0  0  0  0  0  0  0  0  0  0
  -23.5040  -32.1440   23.7660 O   0  0  0  0  0  0  0  0  0  0  0  0
  -22.7290  -29.4540   22.5530 C   0  0  0  0  0  0  0  0  0  0  0  0
  -21.4030  -29.2760   22.4320 N   0  0  0  0  0  0  0  0  0  0  0  0
  -23.4110  -28.8300   23.3710 O   0  0  0  0  0  0  0  0  0  0  0  0
  -20.9150  -29.8350   21.7470 H   0  0  0  0  0  0  0  0  0  0  0  0
  -18.0230  -28.0940   22.9430 C   0  0  0  0  0  0  0  0  0  0  0  0
  -20.5840  -28.3400   23.2030 C   0  0  0  0  0  3  0  0  0  0  0  0
  -20.6790  -26.9100   22.6200 C   0  0  0  0  0  2  0  0  0  0  0  0
  -19.5680  -26.5960   21.6130 C   0  0  0  0  0  2  0  0  0  0  0  0
  -18.1900  -26.7460   22.2640 C   0  0  0  0  0  2  0  0  0  0  0  0
  -19.1480  -28.8480   23.3710 C   0  0  0  0  0  0  0  0  0  0  0  0
  -18.9400  -30.1100   23.9680 C   0  0  0  0  0  3  0  0  0  0  0  0
  -17.6380  -30.6150   24.1460 C   0  0  0  0  0  3  0  0  0  0  0  0
  -16.5280  -29.8570   23.7360 C   0  0  0  0  0  3  0  0  0  0  0  0
  -16.7220  -28.6000   23.1370 C   0  0  0  0  0  3  0  0  0  0  0  0
  -25.8680  -32.5090   23.8460 C   0  0  0  0  0  3  0  0  0  0  0  0
  -26.3890  -31.7400   25.1200 C   0  0  1  0  0  0  0  0  0  0  0  0
  -25.2960  -31.4990   26.1890 C   0  0  0  0  0  1  0  0  0  0  0  0
  -26.9750  -30.3670   24.7170 C   0  0  0  0  0  1  0  0  0  0  0  0
  -27.5430  -32.5350   25.7740 C   0  0  0  0  0  1  0  0  0  0  0  0
  -25.5560  -33.9060   24.1750 N   0  0  0  0  0  0  0  0  0  0  0  0
  -25.9000  -34.9580   23.4200 C   0  0  0  0  0  0  0  0  0  0  0  0
  -26.5770  -34.8530   22.3940 O   0  0  0  0  0  0  0  0  0  0  0  0
  -24.9510  -34.0600   24.9690 H   0  0  0  0  0  0  0  0  0  0  0  0
  -24.1820  -36.7580   23.0510 C   0  0  0  0  0  1  0  0  0  0  0  0
  -25.4140  -36.3490   23.8750 C   0  0  0  0  0  3  0  0  0  0  0  0
  -27.5430  -37.2220   24.7300 C   0  0  0  0  0  1  0  0  0  0  0  0
  -26.4510  -37.3980   23.7770 N   0  0  0  0  0  0  0  0  0  0  0  0
  -26.0450  -38.3190   23.9250 H   0  0  0  0  0  0  0  0  0  0  0  0
  1  3  2  0
  2  1  1  0
  4  2  1  0
  6  5  1  0
  8  5  1  0
  8  7  1  0
  9  6  1  0
  9 10  1  0
  9 11  1  0
 10 12  1  0
 10  7  1  0
 11  2  1  0
 11  8  1  0
 12 21  1  0
 13 21  1  0
 14 19  1  0
 15 16  1  0
 15 14  1  0
 17 16  1  0
 17 26  1  0
 17 18  1  0
 19 13  1  0
 19 18  1  0
 20 13  2  0
 21 22  1  0
 23 24  2  0
 24 43  1  0
 25 24  1  0
 25 28  1  0
 26 23  1  0
 26 27  1  0
 27 25  2  0
 28 29  1  0
 29 30  2  0
 31 34  1  0
 31 30  1  0
 32 31  2  0
 33 32  1  0
 33 28  2  0
 34 35  1  0
 35 36  1  0
 36 37  2  0
 38 37  1  0
 38 42  1  0
 39 38  2  0
 40 35  2  0
 40 39  1  0
 41 40  1  0
 43 44  1  0
 44 47  1  0
 44 46  1  0
 45 43  2  0
 48 49  1  0
 48 23  1  0
 50 48  1  0
 51 52  1  0
 51  1  1  0
 53 55  1  0
 53 52  1  0
 54 65  2  0
 55 60  1  0
 56 64  1  0
 56 66  1  0
 57 63  1  0
 57 59  1  0
 58 64  1  0
 59 58  1  0
 60 59  2  0
 61 55  2  0
 62 61  1  0
 62 57  2  0
 63 56  1  0
 64 54  1  0
 66 68  2  0
 67 66  1  0
 69 67  1  0
 70 79  2  0
 70 75  1  0
 71 67  1  0
 71 75  1  0
 72 71  1  0
 73 74  1  0
 73 72  1  0
 74 70  1  0
 75 76  2  0
 76 77  1  0
 78 77  2  0
 79 78  1  0
 80 54  1  0
 80 85  1  0
 80 81  1  0
 81 84  1  1
 81 82  1  0
 83 81  1  0
 85 88  1  0
 86 90  1  0
 86 85  1  0
 87 86  2  0
 90 89  1  0
 92 90  1  0
 92 93  1  0
 92 91  1  0
M  ISO  4  13 100  21 100  52 101  53 101
M  END
>  <TORSDO>  (11) 
F 20

>  <SCORE>  (11) 
-14.100

>  <name>  (11) 
10

>  <ligand_id>  (11) 
10

>  <original_smiles>  (11) 
[H]c1c([H])c([H])c2c(c1[H])C([H])([H])C([H])([H])C([H])([H])C2([H])N([H])C(=O)C1([H])N(C(=O)C([H])(N([H])C(=O)C([H])(N([H])C([H])([H])[H])C([H])([H])[H])C(C([H])([H])[H])(C([H])([H])[H])C([H])([H])[H])C([H])([H])c2c([H])c(OC([H])([H])C([H])([H])C(=O)N([H])C3([H])C4([H])C([H])([H])C([H])([H])C3([H])C([H])(C([H])([H])N([H])C(=O)N3C([H])([H])C([H])([H])C([H])([H])C([H])(n5nc(-c6c([H])c([H])c(Oc7c([H])c([H])c(F)c([H])c7F)c([H])c6[H])c(C(=O)N([H])[H])c5N([H])[H])C3([H])[H])C4([H])[H])c([H])c([H])c2C1([H])[H]

>  <smiles>  (11) 
[H]c1c([H])c([H])c2c(c1[H])C([H])([H])C([H])([H])C([H])([H])C2([H])N([H])C(=O)C1([H])N(C(=O)C([H])(N([H])C(=O)C([H])(N([H])C([H])([H])[H])C([H])([H])[H])C(C([H])([H])[H])(C([H])([H])[H])C([H])([H])[H])C([H])([H])c2c([H])c(OC([H])([H])C([H])([H])C(=O)N([H])C3([H])C4([H])C([H])([H])C([H])([H])C3([H])C([H])(C([H])([H])N([H])C(=O)N3C([H])([H])C([H])([H])C([H])([H])C([H])(n5nc(-c6c([H])c([H])c(Oc7c([H])c([H])c(F)c([H])c7F)c([H])c6[H])c(C(=O)N([H])[H])c5N([H])[H])C3([H])[H])C4([H])[H])c([H])c([H])c2C1([H])[H]

$$$$
11:0:0
     RDKit          3D

 92101  0  0  1  0  0  0  0  0999 V2000
  -30.5970  -20.8790   19.1600 C   0  0  0  0  0  2  0  0  0  0  0  0
  -30.3590  -23.2570   18.0840 C   0  0  0  0  0  2  0  0  0  0  0  0
  -29.6420  -20.6430   20.3470 C   0  0  0  0  0  3  0  0  0  0  0  0
  -31.0890  -22.3220   19.0340 C   0  0  0  0  0  3  0  0  0  0  0  0
  -30.2980  -23.5160   19.5630 C   0  0  0  0  0  3  0  0  0  0  0  0
  -29.0180  -23.3370   20.3730 C   0  0  0  0  0  3  0  0  0  0  0  0
  -28.5720  -21.8080   20.3180 N   0  0  0  0  0  4  0  0  0  0  0  0
  -27.9390  -21.6370   21.0830 H   0  0  0  0  0  0  0  0  0  0  0  0
  -28.0290  -21.6660   19.4810 H   0  0  0  0  0  0  0  0  0  0  0  0
  -29.1620  -19.0090   20.3830 C   0  0  0  0  0  0  0  0  0  0  0  0
  -27.9590  -18.7360   20.4080 O   0  0  0  0  0  0  0  0  0  0  0  0
  -30.1940  -17.7070   20.3910 C   0  0  0  0  0  2  0  0  0  0  0  0
  -30.5010  -14.9860   20.3300 C   0  0  0  0  0  0  0  0  0  0  0  0
  -30.3580  -12.6450   19.3690 C   0  0  0  0  0  2  0  0  0  0  0  0
  -29.4130  -12.6100   18.1450 C   0  0  0  0  0  2  0  0  0  0  0  0
  -27.9540  -12.3980   18.5920 C   0  0  0  0  0  2  0  0  0  0  0  0
  -27.5590  -13.3110   19.7830 C   0  0  0  0  0  3  0  0  0  0  0  0
  -28.6280  -13.3190   20.8970 C   0  0  0  0  0  2  0  0  0  0  0  0
  -29.8890  -13.7350   20.2720 N   0  0  0  0  0  0  0  0  0  0  0  0
  -31.7020  -15.0370   20.0530 O   0  0  0  0  0  0  0  0  0  0  0  0
  -29.7520  -16.1860   20.4810 N   0  0  0  0  0  0  0  0  0  0  0  0
  -28.7650  -16.0540   20.6410 H   0  0  0  0  0  0  0  0  0  0  0  0
  -25.1820  -13.8710   20.5460 C   0  0  0  0  0  0  0  0  0  0  0  0
  -24.1260  -13.0860   20.9200 C   0  0  0  0  0  0  0  0  0  0  0  0
  -24.6000  -11.7390   20.8820 C   0  0  0  0  0  0  0  0  0  0  0  0
  -26.2290  -13.0000   20.2940 N   0  0  0  0  0  0  0  0  0  0  0  0
  -25.8900  -11.7120   20.5640 N   0  0  0  0  0  0  0  0  0  0  0  0
  -23.8840  -10.4720   21.0730 C   0  0  0  0  0  0  0  0  0  0  0  0
  -24.3340   -9.4980   21.9910 C   0  0  0  0  0  3  0  0  0  0  0  0
  -23.6140   -8.2970   22.1700 C   0  0  0  0  0  3  0  0  0  0  0  0
  -22.4300   -8.0610   21.4310 C   0  0  0  0  0  0  0  0  0  0  0  0
  -21.9990   -9.0240   20.5010 C   0  0  0  0  0  3  0  0  0  0  0  0
  -22.7200  -10.2150   20.3200 C   0  0  0  0  0  3  0  0  0  0  0  0
  -21.6810   -6.9120   21.5210 O   0  0  0  0  0  0  0  0  0  0  0  0
  -21.6610   -6.1540   22.6630 C   0  0  0  0  0  0  0  0  0  0  0  0
  -21.2550   -6.6880   23.9060 C   0  0  0  0  0  3  0  0  0  0  0  0
  -21.1820   -5.8560   25.0410 C   0  0  0  0  0  3  0  0  0  0  0  0
  -21.5060   -4.4900   24.9350 C   0  0  0  0  0  0  0  0  0  0  0  0
  -21.9050   -3.9550   23.6970 C   0  0  0  0  0  3  0  0  0  0  0  0
  -21.9800   -4.7840   22.5650 C   0  0  0  0  0  0  0  0  0  0  0  0
  -22.3450   -4.2590   21.3700 F   0  0  0  0  0  0  0  0  0  0  0  0
  -21.4300   -3.6880   26.0220 F   0  0  0  0  0  0  0  0  0  0  0  0
  -22.7280  -13.5540   21.1990 C   0  0  0  0  0  0  0  0  0  0  0  0
  -22.0110  -12.8560   22.0740 N   0  0  0  0  0  0  0  0  0  0  0  0
  -22.2800  -14.5750   20.6780 O   0  0  0  0  0  0  0  0  0  0  0  0
  -22.3890  -12.0310   22.5170 H   0  0  0  0  0  0  0  0  0  0  0  0
  -21.0730  -13.1500   22.3020 H   0  0  0  0  0  0  0  0  0  0  0  0
  -25.3310  -15.2430   20.3700 N   0  0  0  0  0  0  0  0  0  0  0  0
  -24.5540  -15.8850   20.4880 H   0  0  0  0  0  0  0  0  0  0  0  0
  -26.1620  -15.6960   20.0120 H   0  0  0  0  0  0  0  0  0  0  0  0
  -27.9600  -24.6440   20.1390 C   0  0  0  0  0  2  0  0  0  0  0  0
  -28.2450  -26.1800   20.2650 O   0  0  0  0  0  0  0  0  0  0  0  0
  -24.6410  -31.8970   23.2470 C   0  0  0  0  0  0  0  0  0  0  0  0
  -27.1920  -27.1690   20.2070 C   0  0  0  0  0  0  0  0  0  0  0  0
  -23.4330  -30.5120   21.6050 C   0  0  0  0  0  3  0  0  0  0  0  0
  -24.8730  -28.9310   20.1790 C   0  0  0  0  0  0  0  0  0  0  0  0
  -25.9900  -30.7610   21.4420 C   0  0  0  0  0  2  0  0  0  0  0  0
  -26.0560  -29.3690   20.7870 C   0  0  0  0  0  0  0  0  0  0  0  0
  -27.2160  -28.5040   20.7810 C   0  0  0  0  0  3  0  0  0  0  0  0
  -25.9800  -26.8340   19.5620 C   0  0  0  0  0  3  0  0  0  0  0  0
  -24.8480  -27.6770   19.5510 C   0  0  0  0  0  3  0  0  0  0  0  0
  -23.6520  -29.8370   20.2260 C   0  0  0  0  0  2  0  0  0  0  0  0
  -24.7080  -31.0790   22.1530 N   0  0  0  0  0  0  0  0  0  0  0  0
  -23.5560  -32.1870   23.7750 O   0  0  0  0  0  0  0  0  0  0  0  0
  -22.7480  -29.5070   22.5640 C   0  0  0  0  0  0  0  0  0  0  0  0
  -21.4190  -29.3400   22.4330 N   0  0  0  0  0  0  0  0  0  0  0  0
  -23.4140  -28.8780   23.3910 O   0  0  0  0  0  0  0  0  0  0  0  0
  -20.9380  -29.8970   21.7410 H   0  0  0  0  0  0  0  0  0  0  0  0
  -18.0360  -28.1400   22.9160 C   0  0  0  0  0  0  0  0  0  0  0  0
  -20.5920  -28.4060   23.2030 C   0  0  0  0  0  3  0  0  0  0  0  0
  -20.7000  -26.9710   22.6380 C   0  0  0  0  0  2  0  0  0  0  0  0
  -19.6070  -26.6410   21.6160 C   0  0  0  0  0  2  0  0  0  0  0  0
  -18.2200  -26.7880   22.2480 C   0  0  0  0  0  2  0  0  0  0  0  0
  -19.1500  -28.9070   23.3510 C   0  0  0  0  0  0  0  0  0  0  0  0
  -18.9220  -30.1720   23.9370 C   0  0  0  0  0  3  0  0  0  0  0  0
  -17.6150  -30.6690   24.0910 C   0  0  0  0  0  3  0  0  0  0  0  0
  -16.5160  -29.9000   23.6710 C   0  0  0  0  0  3  0  0  0  0  0  0
  -16.7280  -28.6370   23.0900 C   0  0  0  0  0  3  0  0  0  0  0  0
  -25.9220  -32.5250   23.8760 C   0  0  0  0  0  3  0  0  0  0  0  0
  -26.4290  -31.7500   25.1540 C   0  0  1  0  0  0  0  0  0  0  0  0
  -25.3300  -31.5210   26.2190 C   0  0  0  0  0  1  0  0  0  0  0  0
  -27.0040  -30.3680   24.7680 C   0  0  0  0  0  1  0  0  0  0  0  0
  -27.5830  -32.5370   25.8200 C   0  0  0  0  0  1  0  0  0  0  0  0
  -25.6160  -33.9240   24.2130 N   0  0  0  0  0  0  0  0  0  0  0  0
  -25.9300  -34.9810   23.4530 C   0  0  0  0  0  0  0  0  0  0  0  0
  -26.5760  -34.8800   22.4060 O   0  0  0  0  0  0  0  0  0  0  0  0
  -25.0390  -34.0750   25.0280 H   0  0  0  0  0  0  0  0  0  0  0  0
  -24.1820  -36.7690   23.1670 C   0  0  0  0  0  1  0  0  0  0  0  0
  -25.4570  -36.3690   23.9270 C   0  0  0  0  0  3  0  0  0  0  0  0
  -27.6180  -37.2680   24.6720 C   0  0  0  0  0  1  0  0  0  0  0  0
  -26.4800  -37.4260   23.7700 N   0  0  0  0  0  0  0  0  0  0  0  0
  -26.0760  -38.3460   23.9290 H   0  0  0  0  0  0  0  0  0  0  0  0
  1  3  1  0
  3 10  1  0
  4  2  1  0
  4  1  1  0
  4  5  1  0
  5  2  1  0
  5  6  1  0
  6 51  1  0
  7  3  1  0
  7  6  1  0
  7  8  1  0
  9  7  1  0
 10 12  1  0
 10 11  2  0
 12 21  1  0
 13 21  1  0
 14 19  1  0
 15 16  1  0
 15 14  1  0
 17 16  1  0
 17 26  1  0
 17 18  1  0
 19 13  1  0
 19 18  1  0
 20 13  2  0
 21 22  1  0
 23 24  2  0
 24 43  1  0
 25 24  1  0
 25 28  1  0
 26 23  1  0
 26 27  1  0
 27 25  2  0
 28 29  1  0
 29 30  2  0
 31 34  1  0
 31 30  1  0
 32 31  2  0
 33 32  1  0
 33 28  2  0
 34 35  1  0
 35 36  1  0
 36 37  2  0
 38 37  1  0
 38 42  1  0
 39 38  2  0
 40 35  2  0
 40 39  1  0
 41 40  1  0
 43 44  1  0
 44 47  1  0
 44 46  1  0
 45 43  2  0
 48 49  1  0
 48 23  1  0
 50 48  1  0
 51 52  1  0
 53 64  2  0
 54 52  1  0
 54 59  1  0
 55 63  1  0
 55 65  1  0
 56 62  1  0
 56 58  1  0
 57 63  1  0
 58 57  1  0
 59 58  2  0
 60 54  2  0
 61 60  1  0
 61 56  2  0
 62 55  1  0
 63 53  1  0
 65 67  2  0
 66 65  1  0
 68 66  1  0
 69 78  2  0
 69 74  1  0
 70 66  1  0
 70 74  1  0
 71 70  1  0
 72 73  1  0
 72 71  1  0
 73 69  1  0
 74 75  2  0
 75 76  1  0
 77 76  2  0
 78 77  1  0
 79 53  1  0
 79 84  1  0
 79 80  1  0
 80 83  1  1
 80 81  1  0
 82 80  1  0
 84 87  1  0
 85 89  1  0
 85 84  1  0
 86 85  2  0
 89 88  1  0
 91 89  1  0
 91 92  1  0
 91 90  1  0
M  ISO  4  13 100  21 100  51 101  52 101
M  END
>  <TORSDO>  (12) 
F 19

>  <SCORE>  (12) 
-15.333

>  <name>  (12) 
11

>  <ligand_id>  (12) 
11

>  <original_smiles>  (12) 
[H]c1c([H])c([H])c2c(c1[H])C([H])([H])C([H])([H])C([H])([H])C2([H])N([H])C(=O)C1([H])N(C(=O)C([H])(N([H])C(=O)C([H])(N([H])C([H])([H])[H])C([H])([H])[H])C(C([H])([H])[H])(C([H])([H])[H])C([H])([H])[H])C([H])([H])c2c([H])c(OC([H])([H])C3([H])C4([H])C([H])([H])C4([H])C([H])([H])C([H])(C(=O)C([H])([H])N([H])C(=O)N4C([H])([H])C([H])([H])C([H])([H])C([H])(n5nc(-c6c([H])c([H])c(Oc7c([H])c([H])c(F)c([H])c7F)c([H])c6[H])c(C(=O)N([H])[H])c5N([H])[H])C4([H])[H])[N+]3([H])[H])c([H])c([H])c2C1([H])[H]

>  <smiles>  (12) 
[H]c1c([H])c([H])c2c(c1[H])C([H])([H])C([H])([H])C([H])([H])C2([H])N([H])C(=O)C1([H])N(C(=O)C([H])(N([H])C(=O)C([H])(N([H])C([H])([H])[H])C([H])([H])[H])C(C([H])([H])[H])(C([H])([H])[H])C([H])([H])[H])C([H])([H])c2c([H])c(OC([H])([H])C3([H])C4([H])C([H])([H])C4([H])C([H])([H])C([H])(C(=O)C([H])([H])N([H])C(=O)N4C([H])([H])C([H])([H])C([H])([H])C([H])(n5nc(-c6c([H])c([H])c(Oc7c([H])c([H])c(F)c([H])c7F)c([H])c6[H])c(C(=O)N([H])[H])c5N([H])[H])C4([H])[H])[N+]3([H])[H])c([H])c([H])c2C1([H])[H]

$$$$
12:0:0
     RDKit          3D

 91100  0  0  1  0  0  0  0  0999 V2000
  -29.1130  -23.0170   17.6450 C   0  0  0  0  0  1  0  0  0  0  0  0
  -29.4080  -22.6670   19.1330 C   0  0  0  0  0  3  0  0  0  0  0  0
  -30.7060  -20.6120   18.4110 C   0  0  0  0  0  2  0  0  0  0  0  0
  -31.2690  -20.5130   21.0430 C   0  0  0  0  0  2  0  0  0  0  0  0
  -31.3480  -20.0000   19.6190 C   0  0  0  0  0  3  0  0  0  0  0  0
  -29.4370  -21.0250   19.1920 C   0  0  0  0  0  3  0  0  0  0  0  0
  -30.0160  -20.0640   20.3320 C   0  0  2  0  0  0  0  0  0  0  0  0
  -29.3870  -18.5900   20.5230 C   0  0  0  0  0  3  0  0  0  0  0  0
  -30.3580  -17.2930   20.4220 C   0  0  0  0  0  3  0  0  0  0  0  0
  -30.6090  -14.7270   20.3950 C   0  0  0  0  0  0  0  0  0  0  0  0
  -30.3780  -12.4830   19.3440 C   0  0  0  0  0  2  0  0  0  0  0  0
  -29.4540  -12.6160   18.1150 C   0  0  0  0  0  2  0  0  0  0  0  0
  -27.9790  -12.4510   18.5290 C   0  0  0  0  0  2  0  0  0  0  0  0
  -27.6070  -13.3050   19.7700 C   0  0  0  0  0  3  0  0  0  0  0  0
  -28.6590  -13.1800   20.8950 C   0  0  0  0  0  2  0  0  0  0  0  0
  -29.9620  -13.5190   20.3170 N   0  0  0  0  0  0  0  0  0  0  0  0
  -31.7880  -14.8230   20.0440 O   0  0  0  0  0  0  0  0  0  0  0  0
  -29.8720  -15.8690   20.6420 N   0  0  0  0  0  0  0  0  0  0  0  0
  -28.9060  -15.7420   20.9060 H   0  0  0  0  0  0  0  0  0  0  0  0
  -25.2080  -13.8830   20.4740 C   0  0  0  0  0  0  0  0  0  0  0  0
  -24.1450  -13.1040   20.8380 C   0  0  0  0  0  0  0  0  0  0  0  0
  -24.6150  -11.7550   20.8160 C   0  0  0  0  0  0  0  0  0  0  0  0
  -26.2600  -13.0100   20.2490 N   0  0  0  0  0  0  0  0  0  0  0  0
  -25.9090  -11.7250   20.5160 N   0  0  0  0  0  0  0  0  0  0  0  0
  -23.8950  -10.4890   21.0030 C   0  0  0  0  0  0  0  0  0  0  0  0
  -24.3140   -9.5340   21.9560 C   0  0  0  0  0  3  0  0  0  0  0  0
  -23.5950   -8.3320   22.1300 C   0  0  0  0  0  3  0  0  0  0  0  0
  -22.4390   -8.0770   21.3530 C   0  0  0  0  0  0  0  0  0  0  0  0
  -22.0410   -9.0210   20.3910 C   0  0  0  0  0  3  0  0  0  0  0  0
  -22.7610  -10.2150   20.2130 C   0  0  0  0  0  3  0  0  0  0  0  0
  -21.6910   -6.9290   21.4380 O   0  0  0  0  0  0  0  0  0  0  0  0
  -21.6110   -6.2040   22.6010 C   0  0  0  0  0  0  0  0  0  0  0  0
  -21.1110   -6.7670   23.7950 C   0  0  0  0  0  3  0  0  0  0  0  0
  -20.9800   -5.9670   24.9480 C   0  0  0  0  0  3  0  0  0  0  0  0
  -21.3400   -4.6070   24.9060 C   0  0  0  0  0  0  0  0  0  0  0  0
  -21.8340   -4.0440   23.7170 C   0  0  0  0  0  3  0  0  0  0  0  0
  -21.9650   -4.8410   22.5650 C   0  0  0  0  0  0  0  0  0  0  0  0
  -22.4210   -4.2880   21.4150 F   0  0  0  0  0  0  0  0  0  0  0  0
  -21.2080   -3.8370   26.0120 F   0  0  0  0  0  0  0  0  0  0  0  0
  -22.7410  -13.5750   21.0970 C   0  0  0  0  0  0  0  0  0  0  0  0
  -22.0070  -12.8720   21.9520 N   0  0  0  0  0  0  0  0  0  0  0  0
  -22.3070  -14.6010   20.5760 O   0  0  0  0  0  0  0  0  0  0  0  0
  -22.3720  -12.0420   22.3980 H   0  0  0  0  0  0  0  0  0  0  0  0
  -21.0650  -13.1700   22.1650 H   0  0  0  0  0  0  0  0  0  0  0  0
  -25.3640  -15.2540   20.2930 N   0  0  0  0  0  0  0  0  0  0  0  0
  -24.5850  -15.8980   20.3820 H   0  0  0  0  0  0  0  0  0  0  0  0
  -26.2040  -15.6970   19.9430 H   0  0  0  0  0  0  0  0  0  0  0  0
  -27.1260  -23.2560   20.2740 C   0  0  0  0  0  1  0  0  0  0  0  0
  -28.5630  -23.7260   20.0290 C   0  0  0  0  0  3  0  0  0  0  0  0
  -28.5730  -25.2560   19.4560 C   0  0  0  0  0  2  0  0  0  0  0  0
  -28.3630  -26.4980   20.2460 O   0  0  0  0  0  0  0  0  0  0  0  0
  -24.5880  -31.8660   23.2410 C   0  0  0  0  0  0  0  0  0  0  0  0
  -27.2260  -27.3240   20.1510 C   0  0  0  0  0  0  0  0  0  0  0  0
  -23.3910  -30.4740   21.5870 C   0  0  0  0  0  3  0  0  0  0  0  0
  -24.8500  -28.9340   20.1480 C   0  0  0  0  0  0  0  0  0  0  0  0
  -25.9300  -30.7960   21.4140 C   0  0  0  0  0  2  0  0  0  0  0  0
  -26.0130  -29.4210   20.7550 C   0  0  0  0  0  0  0  0  0  0  0  0
  -27.1980  -28.6250   20.7510 C   0  0  0  0  0  3  0  0  0  0  0  0
  -26.0370  -26.8880   19.5270 C   0  0  0  0  0  3  0  0  0  0  0  0
  -24.8650  -27.6720   19.5260 C   0  0  0  0  0  3  0  0  0  0  0  0
  -23.6090  -29.8030   20.2030 C   0  0  0  0  0  2  0  0  0  0  0  0
  -24.6550  -31.0640   22.1370 N   0  0  0  0  0  0  0  0  0  0  0  0
  -23.5030  -32.1390   23.7750 O   0  0  0  0  0  0  0  0  0  0  0  0
  -22.7280  -29.4530   22.5410 C   0  0  0  0  0  0  0  0  0  0  0  0
  -21.4010  -29.2800   22.4160 N   0  0  0  0  0  0  0  0  0  0  0  0
  -23.4070  -28.8200   23.3550 O   0  0  0  0  0  0  0  0  0  0  0  0
  -20.9130  -29.8420   21.7320 H   0  0  0  0  0  0  0  0  0  0  0  0
  -18.0200  -28.1050   22.9300 C   0  0  0  0  0  0  0  0  0  0  0  0
  -20.5820  -28.3390   23.1800 C   0  0  0  0  0  3  0  0  0  0  0  0
  -20.6660  -26.9140   22.5840 C   0  0  0  0  0  2  0  0  0  0  0  0
  -19.5530  -26.6170   21.5740 C   0  0  0  0  0  2  0  0  0  0  0  0
  -18.1780  -26.7650   22.2320 C   0  0  0  0  0  2  0  0  0  0  0  0
  -19.1480  -28.8510   23.3610 C   0  0  0  0  0  0  0  0  0  0  0  0
  -18.9450  -30.1070   23.9740 C   0  0  0  0  0  3  0  0  0  0  0  0
  -17.6460  -30.6160   24.1590 C   0  0  0  0  0  3  0  0  0  0  0  0
  -16.5320  -29.8650   23.7450 C   0  0  0  0  0  3  0  0  0  0  0  0
  -16.7190  -28.6120   23.1370 C   0  0  0  0  0  3  0  0  0  0  0  0
  -25.8680  -32.4980   23.8700 C   0  0  0  0  0  3  0  0  0  0  0  0
  -25.5580  -33.8970   24.1980 N   0  0  0  0  0  0  0  0  0  0  0  0
  -25.8950  -34.9510   23.4420 C   0  0  0  0  0  0  0  0  0  0  0  0
  -26.5670  -34.8470   22.4120 O   0  0  0  0  0  0  0  0  0  0  0  0
  -24.9590  -34.0510   24.9960 H   0  0  0  0  0  0  0  0  0  0  0  0
  -24.1750  -36.7500   23.0800 C   0  0  0  0  0  1  0  0  0  0  0  0
  -25.4080  -36.3390   23.9010 C   0  0  0  0  0  3  0  0  0  0  0  0
  -27.5360  -37.2170   24.7570 C   0  0  0  0  0  1  0  0  0  0  0  0
  -26.4450  -37.3890   23.8000 N   0  0  0  0  0  0  0  0  0  0  0  0
  -26.0400  -38.3100   23.9440 H   0  0  0  0  0  0  0  0  0  0  0  0
  -26.3760  -31.7290   25.1510 C   0  0  1  0  0  0  0  0  0  0  0  0
  -25.2770  -31.4930   26.2130 C   0  0  0  0  0  1  0  0  0  0  0  0
  -26.9620  -30.3510   24.7660 C   0  0  0  0  0  1  0  0  0  0  0  0
  -27.5220  -32.5240   25.8180 C   0  0  0  0  0  1  0  0  0  0  0  0
  2  1  1  0
  2 49  1  0
  3  6  1  0
  5  3  1  0
  5  7  1  0
  5  4  1  0
  6  2  1  0
  6  7  1  0
  7  8  1  1
  7  4  1  0
  9  8  2  0
  9 18  1  0
 10 18  1  0
 11 16  1  0
 12 13  1  0
 12 11  1  0
 14 13  1  0
 14 23  1  0
 14 15  1  0
 16 10  1  0
 16 15  1  0
 17 10  2  0
 18 19  1  0
 20 21  2  0
 21 40  1  0
 22 21  1  0
 22 25  1  0
 23 20  1  0
 23 24  1  0
 24 22  2  0
 25 26  1  0
 26 27  2  0
 28 31  1  0
 28 27  1  0
 29 28  2  0
 30 29  1  0
 30 25  2  0
 31 32  1  0
 32 33  1  0
 33 34  2  0
 35 34  1  0
 35 39  1  0
 36 35  2  0
 37 32  2  0
 37 36  1  0
 38 37  1  0
 40 41  1  0
 41 44  1  0
 41 43  1  0
 42 40  2  0
 45 46  1  0
 45 20  1  0
 47 45  1  0
 49 48  1  0
 50 49  1  0
 50 51  1  0
 52 63  2  0
 53 51  1  0
 53 58  1  0
 54 62  1  0
 54 64  1  0
 55 61  1  0
 55 57  1  0
 56 62  1  0
 57 56  1  0
 58 57  2  0
 59 53  2  0
 60 59  1  0
 60 55  2  0
 61 54  1  0
 62 52  1  0
 64 66  2  0
 65 64  1  0
 67 65  1  0
 68 77  2  0
 68 73  1  0
 69 65  1  0
 69 73  1  0
 70 69  1  0
 71 72  1  0
 71 70  1  0
 72 68  1  0
 73 74  2  0
 74 75  1  0
 76 75  2  0
 77 76  1  0
 78 52  1  0
 78 79  1  0
 78 88  1  0
 79 82  1  0
 80 84  1  0
 80 79  1  0
 81 80  2  0
 84 83  1  0
 86 84  1  0
 86 87  1  0
 86 85  1  0
 88 91  1  1
 88 89  1  0
 90 88  1  0
M  ISO  4  10 100  18 100  50 101  51 101
M  END
>  <TORSDO>  (13) 
F 21

>  <SCORE>  (13) 
-13.479

>  <name>  (13) 
12

>  <ligand_id>  (13) 
12

>  <original_smiles>  (13) 
[H]c1c([H])c([H])c2c(c1[H])C([H])([H])C([H])([H])C([H])([H])C2([H])N([H])C(=O)C1([H])N(C(=O)C([H])(N([H])C(=O)C([H])(N([H])C([H])([H])[H])C([H])([H])[H])C(C([H])([H])[H])(C([H])([H])[H])C([H])([H])[H])C([H])([H])c2c([H])c(OC([H])([H])C([H])(C([H])([H])[H])C([H])(C([H])([H])[H])C3([H])C([H])([H])C4([H])C([H])([H])C43C([H])([H])C([H])([H])N([H])C(=O)N3C([H])([H])C([H])([H])C([H])([H])C([H])(n4nc(-c5c([H])c([H])c(Oc6c([H])c([H])c(F)c([H])c6F)c([H])c5[H])c(C(=O)N([H])[H])c4N([H])[H])C3([H])[H])c([H])c([H])c2C1([H])[H]

>  <smiles>  (13) 
[H]c1c([H])c([H])c2c(c1[H])C([H])([H])C([H])([H])C([H])([H])C2([H])N([H])C(=O)C1([H])N(C(=O)C([H])(N([H])C(=O)C([H])(N([H])C([H])([H])[H])C([H])([H])[H])C(C([H])([H])[H])(C([H])([H])[H])C([H])([H])[H])C([H])([H])c2c([H])c(OC([H])([H])C([H])(C([H])([H])[H])C([H])(C([H])([H])[H])C3([H])C([H])([H])C4([H])C([H])([H])C43C([H])([H])C([H])([H])N([H])C(=O)N3C([H])([H])C([H])([H])C([H])([H])C([H])(n4nc(-c5c([H])c([H])c(Oc6c([H])c([H])c(F)c([H])c6F)c([H])c5[H])c(C(=O)N([H])[H])c4N([H])[H])C3([H])[H])c([H])c([H])c2C1([H])[H]

$$$$
13:0:0
     RDKit          3D

 91 99  0  0  1  0  0  0  0  0999 V2000
  -29.1820  -21.8770   21.5000 C   0  0  0  0  0  3  0  0  0  0  0  0
  -29.4890  -20.7070   22.2370 C   0  0  0  0  0  3  0  0  0  0  0  0
  -30.1560  -20.7890   19.5870 C   0  0  0  0  0  3  0  0  0  0  0  0
  -29.5120  -22.0180   20.1380 C   0  0  0  0  0  0  0  0  0  0  0  0
  -30.1220  -19.5630   21.6840 C   0  0  0  0  0  0  0  0  0  0  0  0
  -30.4730  -19.5160   20.3120 C   0  0  0  0  0  0  0  0  0  0  0  0
  -30.4080  -18.3970   22.6160 C   0  0  0  0  0  1  0  0  0  0  0  0
  -29.2620  -23.4940   19.4060 C   0  0  0  0  0  2  0  0  0  0  0  0
  -28.3010  -24.7900   19.9430 C   0  0  0  0  0  2  0  0  0  0  0  0
  -28.4730  -26.3300   19.6830 O   0  0  0  0  0  0  0  0  0  0  0  0
  -24.6220  -31.6980   23.0250 C   0  0  0  0  0  0  0  0  0  0  0  0
  -27.3690  -27.2640   19.7260 C   0  0  0  0  0  0  0  0  0  0  0  0
  -23.4650  -30.3230   21.3380 C   0  0  0  0  0  3  0  0  0  0  0  0
  -24.9650  -28.8990   19.8150 C   0  0  0  0  0  0  0  0  0  0  0  0
  -26.0010  -30.7320   21.1420 C   0  0  0  0  0  2  0  0  0  0  0  0
  -26.1340  -29.3750   20.4220 C   0  0  0  0  0  0  0  0  0  0  0  0
  -27.3400  -28.5760   20.3560 C   0  0  0  0  0  3  0  0  0  0  0  0
  -26.1690  -26.8950   19.0850 C   0  0  0  0  0  3  0  0  0  0  0  0
  -24.9910  -27.6730   19.1350 C   0  0  0  0  0  3  0  0  0  0  0  0
  -23.6990  -29.7310   19.9230 C   0  0  0  0  0  2  0  0  0  0  0  0
  -24.7170  -30.9360   21.8910 N   0  0  0  0  0  0  0  0  0  0  0  0
  -23.5330  -31.8970   23.5840 O   0  0  0  0  0  0  0  0  0  0  0  0
  -22.8580  -29.2340   22.2570 C   0  0  0  0  0  0  0  0  0  0  0  0
  -21.5400  -28.9950   22.1400 N   0  0  0  0  0  0  0  0  0  0  0  0
  -23.5750  -28.6090   23.0430 O   0  0  0  0  0  0  0  0  0  0  0  0
  -21.0130  -29.5510   21.4820 H   0  0  0  0  0  0  0  0  0  0  0  0
  -18.2460  -27.5570   22.6000 C   0  0  0  0  0  0  0  0  0  0  0  0
  -20.7850  -27.9770   22.8750 C   0  0  0  0  0  3  0  0  0  0  0  0
  -20.9820  -26.5790   22.2450 C   0  0  0  0  0  2  0  0  0  0  0  0
  -19.9010  -26.2220   21.2210 C   0  0  0  0  0  2  0  0  0  0  0  0
  -18.5120  -26.2500   21.8690 C   0  0  0  0  0  2  0  0  0  0  0  0
  -19.3140  -28.3750   23.0570 C   0  0  0  0  0  0  0  0  0  0  0  0
  -19.0130  -29.5950   23.7000 C   0  0  0  0  0  3  0  0  0  0  0  0
  -17.6800  -30.0010   23.8890 C   0  0  0  0  0  3  0  0  0  0  0  0
  -16.6260  -29.1800   23.4500 C   0  0  0  0  0  3  0  0  0  0  0  0
  -16.9110  -27.9590   22.8110 C   0  0  0  0  0  3  0  0  0  0  0  0
  -25.8780  -32.3700   23.6600 C   0  0  0  0  0  3  0  0  0  0  0  0
  -26.4330  -31.5850   24.9130 C   0  0  1  0  0  0  0  0  0  0  0  0
  -25.3500  -31.2450   25.9640 C   0  0  0  0  0  1  0  0  0  0  0  0
  -27.1010  -30.2600   24.4810 C   0  0  0  0  0  1  0  0  0  0  0  0
  -27.5290  -32.4240   25.6110 C   0  0  0  0  0  1  0  0  0  0  0  0
  -25.5100  -33.7440   24.0370 N   0  0  0  0  0  0  0  0  0  0  0  0
  -25.8190  -34.8400   23.3300 C   0  0  0  0  0  0  0  0  0  0  0  0
  -26.5110  -34.8020   22.3080 O   0  0  0  0  0  0  0  0  0  0  0  0
  -24.9000  -33.8460   24.8330 H   0  0  0  0  0  0  0  0  0  0  0  0
  -24.0330  -36.5880   23.0300 C   0  0  0  0  0  1  0  0  0  0  0  0
  -25.2780  -36.1910   23.8390 C   0  0  0  0  0  3  0  0  0  0  0  0
  -27.3670  -37.1170   24.7400 C   0  0  0  0  0  1  0  0  0  0  0  0
  -26.2740  -37.2850   23.7840 N   0  0  0  0  0  0  0  0  0  0  0  0
  -25.8300  -38.1800   23.9680 H   0  0  0  0  0  0  0  0  0  0  0  0
  -31.1160  -18.1330   19.6350 C   0  0  0  0  0  3  0  0  0  0  0  0
  -31.8460  -15.4500   19.9070 C   0  0  0  0  0  0  0  0  0  0  0  0
  -31.6210  -13.1080   18.9550 C   0  0  0  0  0  2  0  0  0  0  0  0
  -30.6390  -13.1060   17.7580 C   0  0  0  0  0  2  0  0  0  0  0  0
  -29.1770  -12.9950   18.2320 C   0  0  0  0  0  2  0  0  0  0  0  0
  -28.8650  -13.8880   19.4620 C   0  0  0  0  0  3  0  0  0  0  0  0
  -29.9670  -13.8180   20.5420 C   0  0  0  0  0  2  0  0  0  0  0  0
  -31.2270  -14.2000   19.8940 N   0  0  0  0  0  0  0  0  0  0  0  0
  -33.0070  -15.5010   19.4870 O   0  0  0  0  0  0  0  0  0  0  0  0
  -31.0970  -16.6350   20.1850 N   0  0  0  0  0  0  0  0  0  0  0  0
  -30.2200  -16.4130   20.6270 H   0  0  0  0  0  0  0  0  0  0  0  0
  -26.5480  -14.5380   20.3320 C   0  0  0  0  0  0  0  0  0  0  0  0
  -25.4670  -13.7940   20.7190 C   0  0  0  0  0  0  0  0  0  0  0  0
  -25.8640  -12.4270   20.6070 C   0  0  0  0  0  0  0  0  0  0  0  0
  -27.5380  -13.6250   20.0080 N   0  0  0  0  0  0  0  0  0  0  0  0
  -27.1370  -12.3460   20.2330 N   0  0  0  0  0  0  0  0  0  0  0  0
  -25.0850  -11.1910   20.7770 C   0  0  0  0  0  0  0  0  0  0  0  0
  -25.3980  -10.2520   21.7850 C   0  0  0  0  0  3  0  0  0  0  0  0
  -24.6240   -9.0830   21.9410 C   0  0  0  0  0  3  0  0  0  0  0  0
  -23.5190   -8.8440   21.0880 C   0  0  0  0  0  0  0  0  0  0  0  0
  -23.2250   -9.7700   20.0720 C   0  0  0  0  0  3  0  0  0  0  0  0
  -24.0010  -10.9310   19.9150 C   0  0  0  0  0  3  0  0  0  0  0  0
  -22.7250   -7.7240   21.1500 O   0  0  0  0  0  0  0  0  0  0  0  0
  -22.3580   -7.1660   22.3490 C   0  0  0  0  0  0  0  0  0  0  0  0
  -21.6460   -7.8990   23.3220 C   0  0  0  0  0  3  0  0  0  0  0  0
  -21.2260   -7.2690   24.5110 C   0  0  0  0  0  3  0  0  0  0  0  0
  -21.5050   -5.9080   24.7230 C   0  0  0  0  0  0  0  0  0  0  0  0
  -22.2080   -5.1730   23.7520 C   0  0  0  0  0  3  0  0  0  0  0  0
  -22.6290   -5.8000   22.5670 C   0  0  0  0  0  0  0  0  0  0  0  0
  -23.2880   -5.0820   21.6250 F   0  0  0  0  0  0  0  0  0  0  0  0
  -21.0950   -5.3010   25.8630 F   0  0  0  0  0  0  0  0  0  0  0  0
  -24.1090  -14.3220   21.0760 C   0  0  0  0  0  0  0  0  0  0  0  0
  -23.3990  -13.6360   21.9650 N   0  0  0  0  0  0  0  0  0  0  0  0
  -23.6880  -15.3750   20.6010 O   0  0  0  0  0  0  0  0  0  0  0  0
  -23.7550  -12.7820   22.3720 H   0  0  0  0  0  0  0  0  0  0  0  0
  -22.4860  -13.9670   22.2430 H   0  0  0  0  0  0  0  0  0  0  0  0
  -26.7650  -15.9060   20.2020 N   0  0  0  0  0  0  0  0  0  0  0  0
  -26.0320  -16.5870   20.3590 H   0  0  0  0  0  0  0  0  0  0  0  0
  -27.5970  -16.3150   19.7990 H   0  0  0  0  0  0  0  0  0  0  0  0
  -31.2460  -17.3320   17.1610 C   0  0  0  0  0  1  0  0  0  0  0  0
  -30.4340  -18.0410   18.2490 C   0  0  0  0  0  2  0  0  0  0  0  0
  1  2  1  0
  3  4  1  0
  3  6  2  0
  4  1  2  0
  5  2  2  0
  5  7  1  0
  6  5  1  0
  8  9  1  0
  8  4  1  0
 10 12  1  0
 10  9  1  0
 11 22  2  0
 12 17  1  0
 13 21  1  0
 13 23  1  0
 14 20  1  0
 14 16  1  0
 15 21  1  0
 16 15  1  0
 17 16  2  0
 18 19  1  0
 18 12  2  0
 19 14  2  0
 20 13  1  0
 21 11  1  0
 23 25  2  0
 24 23  1  0
 26 24  1  0
 27 36  2  0
 27 32  1  0
 28 24  1  0
 28 32  1  0
 29 28  1  0
 30 31  1  0
 30 29  1  0
 31 27  1  0
 32 33  2  0
 33 34  1  0
 35 34  2  0
 36 35  1  0
 37 11  1  0
 37 42  1  0
 37 38  1  0
 38 41  1  1
 38 39  1  0
 40 38  1  0
 42 45  1  0
 43 47  1  0
 43 42  1  0
 44 43  2  0
 47 46  1  0
 49 47  1  0
 49 50  1  0
 49 48  1  0
 51 91  1  0
 51 60  1  0
 51  6  1  0
 52 60  1  0
 53 58  1  0
 54 55  1  0
 54 53  1  0
 56 55  1  0
 56 65  1  0
 56 57  1  0
 58 52  1  0
 58 57  1  0
 59 52  2  0
 60 61  1  0
 62 63  2  0
 63 82  1  0
 64 63  1  0
 64 67  1  0
 65 66  1  0
 65 62  1  0
 66 64  2  0
 67 68  1  0
 68 69  2  0
 70 73  1  0
 70 69  1  0
 71 70  2  0
 72 71  1  0
 72 67  2  0
 73 74  1  0
 74 79  2  0
 74 75  1  0
 75 76  2  0
 76 77  1  0
 77 81  1  0
 78 77  2  0
 79 78  1  0
 80 79  1  0
 82 83  1  0
 83 86  1  0
 83 85  1  0
 84 82  2  0
 87 62  1  0
 87 88  1  0
 89 87  1  0
 90 91  1  0
M  ISO  4   9 101  10 101  52 100  60 100
M  END
>  <TORSDO>  (14) 
F 20

>  <SCORE>  (14) 
-10.952

>  <name>  (14) 
13

>  <ligand_id>  (14) 
13

>  <original_smiles>  (14) 
[H]c1c([H])c([H])c2c(c1[H])C([H])([H])C([H])([H])C([H])([H])C2([H])N([H])C(=O)C1([H])N(C(=O)C([H])(N([H])C(=O)C([H])(N([H])C([H])([H])[H])C([H])([H])[H])C(C([H])([H])[H])(C([H])([H])[H])C([H])([H])[H])C([H])([H])c2c([H])c(OC([H])([H])C([H])([H])c3c([H])c([H])c(C([H])([H])[H])c(C([H])(N([H])C(=O)N4C([H])([H])C([H])([H])C([H])([H])C([H])(n5nc(-c6c([H])c([H])c(Oc7c([H])c([H])c(F)c([H])c7F)c([H])c6[H])c(C(=O)N([H])[H])c5N([H])[H])C4([H])[H])C([H])([H])C([H])([H])[H])c3[H])c([H])c([H])c2C1([H])[H]

>  <smiles>  (14) 
[H]c1c([H])c([H])c2c(c1[H])C([H])([H])C([H])([H])C([H])([H])C2([H])N([H])C(=O)C1([H])N(C(=O)C([H])(N([H])C(=O)C([H])(N([H])C([H])([H])[H])C([H])([H])[H])C(C([H])([H])[H])(C([H])([H])[H])C([H])([H])[H])C([H])([H])c2c([H])c(OC([H])([H])C([H])([H])c3c([H])c([H])c(C([H])([H])[H])c(C([H])(N([H])C(=O)N4C([H])([H])C([H])([H])C([H])([H])C([H])(n5nc(-c6c([H])c([H])c(Oc7c([H])c([H])c(F)c([H])c7F)c([H])c6[H])c(C(=O)N([H])[H])c5N([H])[H])C4([H])[H])C([H])([H])C([H])([H])[H])c3[H])c([H])c([H])c2C1([H])[H]

$$$$
14:0:0
     RDKit          3D

 86 94  0  0  1  0  0  0  0  0999 V2000
  -29.0130  -20.6150   22.1600 C   0  0  0  0  0  2  0  0  0  0  0  0
  -28.5690  -20.4850   19.4280 C   0  0  0  0  0  2  0  0  0  0  0  0
  -29.6270  -21.6010   21.1790 C   0  0  0  0  0  3  0  0  0  0  0  0
  -30.0190  -20.0170   21.1840 C   0  0  0  0  0  3  0  0  0  0  0  0
  -28.8560  -22.2130   19.9400 C   0  0  0  0  0  2  0  0  0  0  0  0
  -29.6280  -19.1020   19.9510 C   0  0  0  0  0  3  0  0  0  0  0  0
  -30.3300  -15.9490   19.9330 C   0  0  0  0  0  0  0  0  0  0  0  0
  -30.4600  -13.3900   19.1450 C   0  0  0  0  0  2  0  0  0  0  0  0
  -29.5330  -12.9360   17.9810 C   0  0  0  0  0  2  0  0  0  0  0  0
  -28.1400  -12.5520   18.5030 C   0  0  0  0  0  2  0  0  0  0  0  0
  -27.6480  -13.5560   19.5690 C   0  0  0  0  0  3  0  0  0  0  0  0
  -28.7150  -13.9200   20.6290 C   0  0  0  0  0  2  0  0  0  0  0  0
  -29.8370  -14.5680   19.9070 N   0  0  0  0  0  0  0  0  0  0  0  0
  -31.5570  -15.9060   19.7140 O   0  0  0  0  0  0  0  0  0  0  0  0
  -29.5440  -17.3060   20.0130 N   0  0  0  0  0  0  0  0  0  0  0  0
  -28.5760  -17.0490   20.1450 H   0  0  0  0  0  0  0  0  0  0  0  0
  -25.3320  -14.0400   20.4860 C   0  0  0  0  0  0  0  0  0  0  0  0
  -24.2990  -13.2390   20.8820 C   0  0  0  0  0  0  0  0  0  0  0  0
  -24.7750  -11.8950   20.7760 C   0  0  0  0  0  0  0  0  0  0  0  0
  -26.3660  -13.1870   20.1510 N   0  0  0  0  0  0  0  0  0  0  0  0
  -26.0500  -11.8870   20.3920 N   0  0  0  0  0  0  0  0  0  0  0  0
  -24.0670  -10.6210   20.9570 C   0  0  0  0  0  0  0  0  0  0  0  0
  -24.4890   -9.6660   21.9080 C   0  0  0  0  0  3  0  0  0  0  0  0
  -23.7740   -8.4620   22.0790 C   0  0  0  0  0  3  0  0  0  0  0  0
  -22.6220   -8.2010   21.2990 C   0  0  0  0  0  0  0  0  0  0  0  0
  -22.2190   -9.1440   20.3370 C   0  0  0  0  0  3  0  0  0  0  0  0
  -22.9340  -10.3400   20.1640 C   0  0  0  0  0  3  0  0  0  0  0  0
  -21.8820   -7.0470   21.3790 O   0  0  0  0  0  0  0  0  0  0  0  0
  -21.7340   -6.3650   22.5610 C   0  0  0  0  0  0  0  0  0  0  0  0
  -21.1210   -6.9540   23.6880 C   0  0  0  0  0  3  0  0  0  0  0  0
  -20.9270   -6.1950   24.8600 C   0  0  0  0  0  3  0  0  0  0  0  0
  -21.3360   -4.8500   24.9040 C   0  0  0  0  0  0  0  0  0  0  0  0
  -21.9420   -4.2600   23.7810 C   0  0  0  0  0  3  0  0  0  0  0  0
  -22.1370   -5.0160   22.6110 C   0  0  0  0  0  0  0  0  0  0  0  0
  -22.7020   -4.4360   21.5250 F   0  0  0  0  0  0  0  0  0  0  0  0
  -21.1440   -4.1190   26.0280 F   0  0  0  0  0  0  0  0  0  0  0  0
  -22.9150  -13.6940   21.2380 C   0  0  0  0  0  0  0  0  0  0  0  0
  -22.2390  -12.9690   22.1210 N   0  0  0  0  0  0  0  0  0  0  0  0
  -22.4450  -14.7310   20.7700 O   0  0  0  0  0  0  0  0  0  0  0  0
  -22.6350  -12.1310   22.5200 H   0  0  0  0  0  0  0  0  0  0  0  0
  -21.3120  -13.2560   22.4010 H   0  0  0  0  0  0  0  0  0  0  0  0
  -25.4700  -15.4180   20.3490 N   0  0  0  0  0  0  0  0  0  0  0  0
  -24.7000  -16.0560   20.5190 H   0  0  0  0  0  0  0  0  0  0  0  0
  -26.2820  -15.8750   19.9560 H   0  0  0  0  0  0  0  0  0  0  0  0
  -27.9070  -23.9410   19.9750 C   0  0  0  0  0  1  0  0  0  0  0  0
  -28.0750  -25.7070   20.0800 O   0  0  0  0  0  0  0  0  0  0  0  0
  -24.6170  -31.9610   23.1920 C   0  0  0  0  0  0  0  0  0  0  0  0
  -27.0890  -26.9180   20.0710 C   0  0  0  0  0  0  0  0  0  0  0  0
  -23.3880  -30.5670   21.5840 C   0  0  0  0  0  3  0  0  0  0  0  0
  -24.8010  -28.9420   20.1090 C   0  0  0  0  0  0  0  0  0  0  0  0
  -25.9600  -30.7300   21.3770 C   0  0  0  0  0  2  0  0  0  0  0  0
  -26.0150  -29.3020   20.7050 C   0  0  0  0  0  0  0  0  0  0  0  0
  -27.1410  -28.3200   20.6520 C   0  0  0  0  0  3  0  0  0  0  0  0
  -25.8350  -26.7730   19.4240 C   0  0  0  0  0  3  0  0  0  0  0  0
  -24.7500  -27.7040   19.4430 C   0  0  0  0  0  3  0  0  0  0  0  0
  -23.5870  -29.8820   20.2010 C   0  0  0  0  0  2  0  0  0  0  0  0
  -24.6810  -31.1190   22.1030 N   0  0  0  0  0  0  0  0  0  0  0  0
  -23.5390  -32.2470   23.7410 O   0  0  0  0  0  0  0  0  0  0  0  0
  -22.7130  -29.5760   22.5710 C   0  0  0  0  0  0  0  0  0  0  0  0
  -21.3860  -29.3680   22.4550 N   0  0  0  0  0  0  0  0  0  0  0  0
  -23.3950  -28.9910   23.4150 O   0  0  0  0  0  0  0  0  0  0  0  0
  -20.8830  -29.8930   21.7530 H   0  0  0  0  0  0  0  0  0  0  0  0
  -18.0570  -28.0080   22.9790 C   0  0  0  0  0  0  0  0  0  0  0  0
  -20.6000  -28.4110   23.2440 C   0  0  0  0  0  3  0  0  0  0  0  0
  -20.7730  -26.9720   22.7030 C   0  0  0  0  0  2  0  0  0  0  0  0
  -19.6950  -26.5730   21.6910 C   0  0  0  0  0  2  0  0  0  0  0  0
  -18.3050  -26.6590   22.3260 C   0  0  0  0  0  2  0  0  0  0  0  0
  -19.1330  -28.8380   23.3950 C   0  0  0  0  0  0  0  0  0  0  0  0
  -18.8430  -30.0930   23.9700 C   0  0  0  0  0  3  0  0  0  0  0  0
  -17.5130  -30.5230   24.1310 C   0  0  0  0  0  3  0  0  0  0  0  0
  -16.4520  -29.6940   23.7270 C   0  0  0  0  0  3  0  0  0  0  0  0
  -16.7250  -28.4380   23.1580 C   0  0  0  0  0  3  0  0  0  0  0  0
  -25.8940  -32.6210   23.7960 C   0  0  0  0  0  3  0  0  0  0  0  0
  -25.5780  -34.0250   24.1270 N   0  0  0  0  0  0  0  0  0  0  0  0
  -25.8490  -35.0830   23.3500 C   0  0  0  0  0  0  0  0  0  0  0  0
  -26.4490  -34.9800   22.2770 O   0  0  0  0  0  0  0  0  0  0  0  0
  -25.0330  -34.1750   24.9640 H   0  0  0  0  0  0  0  0  0  0  0  0
  -24.0650  -36.8520   23.1470 C   0  0  0  0  0  1  0  0  0  0  0  0
  -25.3860  -36.4730   23.8370 C   0  0  0  0  0  3  0  0  0  0  0  0
  -27.5660  -37.4220   24.4580 C   0  0  0  0  0  1  0  0  0  0  0  0
  -26.3840  -37.5420   23.6090 N   0  0  0  0  0  0  0  0  0  0  0  0
  -25.9730  -38.4580   23.7670 H   0  0  0  0  0  0  0  0  0  0  0  0
  -26.4220  -31.8760   25.0850 C   0  0  1  0  0  0  0  0  0  0  0  0
  -25.3470  -31.6850   26.1810 C   0  0  0  0  0  1  0  0  0  0  0  0
  -26.9760  -30.4770   24.7310 C   0  0  0  0  0  1  0  0  0  0  0  0
  -27.5980  -32.6680   25.7030 C   0  0  0  0  0  1  0  0  0  0  0  0
  2  5  1  0
  2  6  1  0
  3  5  1  0
  3  4  1  0
  3  1  1  0
  4  1  1  0
  6 15  1  0
  6  4  1  0
  7 15  1  0
  8 13  1  0
  9 10  1  0
  9  8  1  0
 11 10  1  0
 11 20  1  0
 11 12  1  0
 13  7  1  0
 13 12  1  0
 14  7  2  0
 15 16  1  0
 17 18  2  0
 18 37  1  0
 19 18  1  0
 19 22  1  0
 20 21  1  0
 20 17  1  0
 21 19  2  0
 22 23  1  0
 23 24  2  0
 25 28  1  0
 25 24  1  0
 26 25  2  0
 27 26  1  0
 27 22  2  0
 28 29  1  0
 29 34  2  0
 29 30  1  0
 30 31  2  0
 31 32  1  0
 32 36  1  0
 33 32  2  0
 34 33  1  0
 35 34  1  0
 37 38  1  0
 38 41  1  0
 38 40  1  0
 39 37  2  0
 42 17  1  0
 42 43  1  0
 44 42  1  0
 45 46  1  0
 47 58  2  0
 48 46  1  0
 48 53  1  0
 49 57  1  0
 49 59  1  0
 50 56  1  0
 50 52  1  0
 51 57  1  0
 52 51  1  0
 53 52  2  0
 54 55  1  0
 54 48  2  0
 55 50  2  0
 56 49  1  0
 57 47  1  0
 59 61  2  0
 60 59  1  0
 62 60  1  0
 63 72  2  0
 63 68  1  0
 64 60  1  0
 64 68  1  0
 65 64  1  0
 66 67  1  0
 66 65  1  0
 67 63  1  0
 68 69  2  0
 69 70  1  0
 71 70  2  0
 72 71  1  0
 73 47  1  0
 73 74  1  0
 73 83  1  0
 74 77  1  0
 75 79  1  0
 75 74  1  0
 76 75  2  0
 79 78  1  0
 81 82  1  0
 81 79  1  0
 81 80  1  0
 83 86  1  1
 83 84  1  0
 85 83  1  0
M  ISO  4   7 100  15 100  45 101  46 101
M  END
>  <TORSDO>  (15) 
F 17

>  <SCORE>  (15) 
-15.363

>  <name>  (15) 
14

>  <ligand_id>  (15) 
14

>  <original_smiles>  (15) 
[H]c1c([H])c([H])c2c(c1[H])C([H])([H])C([H])([H])C([H])([H])C2([H])N([H])C(=O)C1([H])N(C(=O)C([H])(N([H])C(=O)C([H])(N([H])C([H])([H])[H])C([H])([H])[H])C(C([H])([H])[H])(C([H])([H])[H])C([H])([H])[H])C([H])([H])c2c([H])c(OC([H])([H])C3([H])C([H])([H])C([H])(N([H])C(=O)N4C([H])([H])C([H])([H])C([H])([H])C([H])(n5nc(-c6c([H])c([H])c(Oc7c([H])c([H])c(F)c([H])c7F)c([H])c6[H])c(C(=O)N([H])[H])c5N([H])[H])C4([H])[H])C4([H])C([H])([H])C34[H])c([H])c([H])c2C1([H])[H]

>  <smiles>  (15) 
[H]c1c([H])c([H])c2c(c1[H])C([H])([H])C([H])([H])C([H])([H])C2([H])N([H])C(=O)C1([H])N(C(=O)C([H])(N([H])C(=O)C([H])(N([H])C([H])([H])[H])C([H])([H])[H])C(C([H])([H])[H])(C([H])([H])[H])C([H])([H])[H])C([H])([H])c2c([H])c(OC([H])([H])C3([H])C([H])([H])C([H])(N([H])C(=O)N4C([H])([H])C([H])([H])C([H])([H])C([H])(n5nc(-c6c([H])c([H])c(Oc7c([H])c([H])c(F)c([H])c7F)c([H])c6[H])c(C(=O)N([H])[H])c5N([H])[H])C4([H])[H])C4([H])C([H])([H])C34[H])c([H])c([H])c2C1([H])[H]

$$$$
15:0:0
     RDKit          3D

 85 94  0  0  1  0  0  0  0  0999 V2000
  -30.6030  -19.8190   19.8940 C   0  0  0  0  0  2  0  0  0  0  0  0
  -29.9220  -21.1640   20.4720 C   0  0  0  0  0  3  0  0  0  0  0  0
  -28.6390  -20.3440   20.6000 C   0  0  0  0  0  3  0  0  0  0  0  0
  -28.7080  -22.0930   20.0320 C   0  0  0  0  0  3  0  0  0  0  0  0
  -29.6260  -18.8170   20.5580 C   0  0  0  0  0  3  0  0  0  0  0  0
  -30.2370  -15.6910   20.2190 C   0  0  0  0  0  0  0  0  0  0  0  0
  -30.3120  -13.1640   19.3450 C   0  0  0  0  0  2  0  0  0  0  0  0
  -29.4040  -12.7700   18.1450 C   0  0  0  0  0  2  0  0  0  0  0  0
  -27.9840  -12.4210   18.6130 C   0  0  0  0  0  2  0  0  0  0  0  0
  -27.4890  -13.4110   19.6920 C   0  0  0  0  0  3  0  0  0  0  0  0
  -28.5350  -13.7100   20.7900 C   0  0  0  0  0  2  0  0  0  0  0  0
  -29.6950  -14.3360   20.1140 N   0  0  0  0  0  0  0  0  0  0  0  0
  -31.4750  -15.6130   20.0990 O   0  0  0  0  0  0  0  0  0  0  0  0
  -29.4880  -17.0610   20.2640 N   0  0  0  0  0  0  0  0  0  0  0  0
  -28.5050  -16.8370   20.1990 H   0  0  0  0  0  0  0  0  0  0  0  0
  -25.1310  -13.9350   20.4750 C   0  0  0  0  0  0  0  0  0  0  0  0
  -24.0780  -13.1500   20.8490 C   0  0  0  0  0  0  0  0  0  0  0  0
  -24.5570  -11.8030   20.8180 C   0  0  0  0  0  0  0  0  0  0  0  0
  -26.1790  -13.0690   20.2240 N   0  0  0  0  0  0  0  0  0  0  0  0
  -25.8480  -11.7780   20.5000 N   0  0  0  0  0  0  0  0  0  0  0  0
  -23.8370  -10.5370   21.0130 C   0  0  0  0  0  0  0  0  0  0  0  0
  -24.2700   -9.5740   21.9500 C   0  0  0  0  0  3  0  0  0  0  0  0
  -23.5460   -8.3760   22.1360 C   0  0  0  0  0  3  0  0  0  0  0  0
  -22.3720   -8.1330   21.3830 C   0  0  0  0  0  0  0  0  0  0  0  0
  -21.9570   -9.0840   20.4340 C   0  0  0  0  0  3  0  0  0  0  0  0
  -22.6820  -10.2720   20.2470 C   0  0  0  0  0  3  0  0  0  0  0  0
  -21.6200   -6.9870   21.4760 O   0  0  0  0  0  0  0  0  0  0  0  0
  -21.5690   -6.2510   22.6340 C   0  0  0  0  0  0  0  0  0  0  0  0
  -21.1230   -6.8080   23.8510 C   0  0  0  0  0  3  0  0  0  0  0  0
  -21.0200   -5.9990   25.0000 C   0  0  0  0  0  3  0  0  0  0  0  0
  -21.3550   -4.6340   24.9320 C   0  0  0  0  0  0  0  0  0  0  0  0
  -21.7950   -4.0760   23.7190 C   0  0  0  0  0  3  0  0  0  0  0  0
  -21.8990   -4.8820   22.5730 C   0  0  0  0  0  0  0  0  0  0  0  0
  -22.3020   -4.3340   21.4010 F   0  0  0  0  0  0  0  0  0  0  0  0
  -21.2500   -3.8540   26.0350 F   0  0  0  0  0  0  0  0  0  0  0  0
  -22.6790  -13.6190   21.1160 C   0  0  0  0  0  0  0  0  0  0  0  0
  -21.9560  -12.9270   21.9890 N   0  0  0  0  0  0  0  0  0  0  0  0
  -22.2350  -14.6370   20.5860 O   0  0  0  0  0  0  0  0  0  0  0  0
  -22.3300  -12.1040   22.4400 H   0  0  0  0  0  0  0  0  0  0  0  0
  -21.0170  -13.2240   22.2120 H   0  0  0  0  0  0  0  0  0  0  0  0
  -25.2800  -15.3060   20.2910 N   0  0  0  0  0  0  0  0  0  0  0  0
  -24.5060  -15.9520   20.4030 H   0  0  0  0  0  0  0  0  0  0  0  0
  -26.1150  -15.7490   19.9320 H   0  0  0  0  0  0  0  0  0  0  0  0
  -28.0980  -23.8420   20.5540 C   0  0  0  0  0  2  0  0  0  0  0  0
  -28.2180  -25.5840   20.2880 O   0  0  0  0  0  0  0  0  0  0  0  0
  -24.6310  -31.8610   23.2040 C   0  0  0  0  0  0  0  0  0  0  0  0
  -27.2170  -26.7740   20.2860 C   0  0  0  0  0  0  0  0  0  0  0  0
  -23.4630  -30.4380   21.5750 C   0  0  0  0  0  3  0  0  0  0  0  0
  -24.9300  -28.7840   20.1940 C   0  0  0  0  0  0  0  0  0  0  0  0
  -26.0420  -30.6010   21.4640 C   0  0  0  0  0  2  0  0  0  0  0  0
  -26.1220  -29.1610   20.8260 C   0  0  0  0  0  0  0  0  0  0  0  0
  -27.2520  -28.1850   20.8330 C   0  0  0  0  0  3  0  0  0  0  0  0
  -25.9850  -26.6040   19.6040 C   0  0  0  0  0  3  0  0  0  0  0  0
  -24.9000  -27.5310   19.5590 C   0  0  0  0  0  3  0  0  0  0  0  0
  -23.7160  -29.7270   20.2140 C   0  0  0  0  0  2  0  0  0  0  0  0
  -24.7360  -31.0000   22.1330 N   0  0  0  0  0  0  0  0  0  0  0  0
  -23.5320  -32.1570   23.7050 O   0  0  0  0  0  0  0  0  0  0  0  0
  -22.7480  -29.4650   22.5510 C   0  0  0  0  0  0  0  0  0  0  0  0
  -21.4170  -29.3010   22.4200 N   0  0  0  0  0  0  0  0  0  0  0  0
  -23.4040  -28.8550   23.4000 O   0  0  0  0  0  0  0  0  0  0  0  0
  -20.9380  -29.8440   21.7160 H   0  0  0  0  0  0  0  0  0  0  0  0
  -18.0360  -28.0700   22.9280 C   0  0  0  0  0  0  0  0  0  0  0  0
  -20.5930  -28.3660   23.1970 C   0  0  0  0  0  3  0  0  0  0  0  0
  -20.7090  -26.9280   22.6410 C   0  0  0  0  0  2  0  0  0  0  0  0
  -19.6160  -26.5850   21.6240 C   0  0  0  0  0  2  0  0  0  0  0  0
  -18.2290  -26.7190   22.2600 C   0  0  0  0  0  2  0  0  0  0  0  0
  -19.1440  -28.8500   23.3540 C   0  0  0  0  0  0  0  0  0  0  0  0
  -18.9060  -30.1110   23.9420 C   0  0  0  0  0  3  0  0  0  0  0  0
  -17.5940  -30.5930   24.1060 C   0  0  0  0  0  3  0  0  0  0  0  0
  -16.5010  -29.8130   23.6930 C   0  0  0  0  0  3  0  0  0  0  0  0
  -16.7230  -28.5530   23.1100 C   0  0  0  0  0  3  0  0  0  0  0  0
  -25.8850  -32.5280   23.8460 C   0  0  0  0  0  3  0  0  0  0  0  0
  -25.5470  -33.9270   24.1710 N   0  0  0  0  0  0  0  0  0  0  0  0
  -25.8720  -34.9940   23.4260 C   0  0  0  0  0  0  0  0  0  0  0  0
  -26.5440  -34.9020   22.3970 O   0  0  0  0  0  0  0  0  0  0  0  0
  -24.9480  -34.0700   24.9700 H   0  0  0  0  0  0  0  0  0  0  0  0
  -24.1280  -36.7820   23.0950 C   0  0  0  0  0  1  0  0  0  0  0  0
  -25.3770  -36.3780   23.8950 C   0  0  0  0  0  3  0  0  0  0  0  0
  -27.5070  -37.2860   24.7190 C   0  0  0  0  0  1  0  0  0  0  0  0
  -26.4000  -37.4430   23.7800 N   0  0  0  0  0  0  0  0  0  0  0  0
  -25.9850  -38.3580   23.9280 H   0  0  0  0  0  0  0  0  0  0  0  0
  -26.3820  -31.7820   25.1480 C   0  0  1  0  0  0  0  0  0  0  0  0
  -25.2710  -31.5620   26.2030 C   0  0  0  0  0  1  0  0  0  0  0  0
  -26.9750  -30.3990   24.8020 C   0  0  0  0  0  1  0  0  0  0  0  0
  -27.5190  -32.5920   25.8130 C   0  0  0  0  0  1  0  0  0  0  0  0
  1  5  1  0
  2  1  1  0
  2  3  1  0
  4  2  1  0
  4 44  1  0
  4  3  1  0
  5  3  1  0
  6 14  1  0
  7 12  1  0
  8  9  1  0
  8  7  1  0
  9 10  1  0
 10 19  1  0
 10 11  1  0
 12  6  1  0
 12 11  1  0
 13  6  2  0
 14  5  1  0
 15 14  1  0
 16 17  2  0
 17 36  1  0
 18 17  1  0
 18 21  1  0
 19 16  1  0
 19 20  1  0
 20 18  2  0
 21 22  1  0
 22 23  2  0
 24 27  1  0
 24 23  1  0
 25 24  2  0
 26 25  1  0
 26 21  2  0
 27 28  1  0
 28 29  1  0
 29 30  2  0
 31 30  1  0
 31 35  1  0
 32 31  2  0
 33 28  2  0
 33 32  1  0
 34 33  1  0
 36 37  1  0
 37 40  1  0
 37 39  1  0
 38 36  2  0
 41 42  1  0
 41 16  1  0
 43 41  1  0
 45 44  1  0
 46 57  2  0
 46 72  1  0
 47 45  1  0
 47 52  1  0
 48 56  1  0
 48 58  1  0
 49 55  1  0
 49 51  1  0
 50 56  1  0
 51 52  2  0
 51 50  1  0
 53 47  2  0
 54 53  1  0
 54 49  2  0
 55 48  1  0
 56 46  1  0
 58 60  2  0
 59 58  1  0
 59 63  1  0
 61 59  1  0
 62 71  2  0
 62 67  1  0
 63 67  1  0
 64 63  1  0
 65 66  1  0
 65 64  1  0
 66 62  1  0
 67 68  2  0
 68 69  1  0
 70 69  2  0
 71 70  1  0
 72 73  1  0
 72 82  1  0
 73 76  1  0
 74 78  1  0
 74 73  1  0
 75 74  2  0
 77 78  1  0
 80 78  1  0
 80 81  1  0
 80 79  1  0
 82 85  1  1
 82 83  1  0
 84 82  1  0
M  ISO  4   6 100  14 100  44 101  45 101
M  END
>  <TORSDO>  (16) 
F 17

>  <SCORE>  (16) 
-16.438

>  <name>  (16) 
15

>  <ligand_id>  (16) 
15

>  <original_smiles>  (16) 
[H]c1c([H])c([H])c2c(c1[H])C([H])([H])C([H])([H])C([H])([H])C2([H])N([H])C(=O)C1([H])N(C(=O)C([H])(N([H])C(=O)C([H])(N([H])C([H])([H])[H])C([H])([H])[H])C(C([H])([H])[H])(C([H])([H])[H])C([H])([H])[H])C([H])([H])c2c([H])c(OC([H])([H])C3([H])C4([H])C([H])([H])C([H])(N([H])C(=O)N5C([H])([H])C([H])([H])C([H])([H])C([H])(n6nc(-c7c([H])c([H])c(Oc8c([H])c([H])c(F)c([H])c8F)c([H])c7[H])c(C(=O)N([H])[H])c6N([H])[H])C5([H])[H])C34[H])c([H])c([H])c2C1([H])[H]

>  <smiles>  (16) 
[H]c1c([H])c([H])c2c(c1[H])C([H])([H])C([H])([H])C([H])([H])C2([H])N([H])C(=O)C1([H])N(C(=O)C([H])(N([H])C(=O)C([H])(N([H])C([H])([H])[H])C([H])([H])[H])C(C([H])([H])[H])(C([H])([H])[H])C([H])([H])[H])C([H])([H])c2c([H])c(OC([H])([H])C3([H])C4([H])C([H])([H])C([H])(N([H])C(=O)N5C([H])([H])C([H])([H])C([H])([H])C([H])(n6nc(-c7c([H])c([H])c(Oc8c([H])c([H])c(F)c([H])c8F)c([H])c7[H])c(C(=O)N([H])[H])c6N([H])[H])C5([H])[H])C34[H])c([H])c([H])c2C1([H])[H]

$$$$
16:0:0
     RDKit          3D

 87 96  0  0  1  0  0  0  0  0999 V2000
  -30.6210  -21.7140   20.7460 C   0  0  0  0  0  2  0  0  0  0  0  0
  -29.6950  -23.1170   18.6990 C   0  0  0  0  0  2  0  0  0  0  0  0
  -30.4080  -23.0320   20.0230 C   0  0  0  0  0  3  0  0  0  0  0  0
  -29.1480  -21.2960   20.6850 C   0  0  0  0  0  3  0  0  0  0  0  0
  -28.9060  -22.8870   19.9710 C   0  0  2  0  0  0  0  0  0  0  0  0
  -28.9970  -19.6150   20.0960 C   0  0  0  0  0  3  0  0  0  0  0  0
  -29.9110  -18.1390   20.5410 C   0  0  0  0  0  3  0  0  0  0  0  0
  -30.3840  -15.2550   20.2580 C   0  0  0  0  0  0  0  0  0  0  0  0
  -30.3340  -12.8300   19.3490 C   0  0  0  0  0  2  0  0  0  0  0  0
  -29.3940  -12.6490   18.1310 C   0  0  0  0  0  2  0  0  0  0  0  0
  -27.9480  -12.3860   18.5900 C   0  0  0  0  0  2  0  0  0  0  0  0
  -27.5190  -13.3380   19.7340 C   0  0  0  0  0  3  0  0  0  0  0  0
  -28.5840  -13.4640   20.8420 C   0  0  0  0  0  2  0  0  0  0  0  0
  -29.8070  -13.9600   20.1910 N   0  0  0  0  0  0  0  0  0  0  0  0
  -31.6060  -15.2590   20.0540 O   0  0  0  0  0  0  0  0  0  0  0  0
  -29.6180  -16.5140   20.3560 N   0  0  0  0  0  0  0  0  0  0  0  0
  -28.6310  -16.3110   20.4060 H   0  0  0  0  0  0  0  0  0  0  0  0
  -25.1570  -13.8940   20.5170 C   0  0  0  0  0  0  0  0  0  0  0  0
  -24.1010  -13.1150   20.8980 C   0  0  0  0  0  0  0  0  0  0  0  0
  -24.5710  -11.7660   20.8600 C   0  0  0  0  0  0  0  0  0  0  0  0
  -26.1980  -13.0210   20.2600 N   0  0  0  0  0  0  0  0  0  0  0  0
  -25.8590  -11.7350   20.5340 N   0  0  0  0  0  0  0  0  0  0  0  0
  -23.8480  -10.5010   21.0540 C   0  0  0  0  0  0  0  0  0  0  0  0
  -24.2970   -9.5260   21.9710 C   0  0  0  0  0  3  0  0  0  0  0  0
  -23.5730   -8.3280   22.1560 C   0  0  0  0  0  3  0  0  0  0  0  0
  -22.3830   -8.0990   21.4240 C   0  0  0  0  0  0  0  0  0  0  0  0
  -21.9510   -9.0630   20.4970 C   0  0  0  0  0  3  0  0  0  0  0  0
  -22.6780  -10.2520   20.3100 C   0  0  0  0  0  3  0  0  0  0  0  0
  -21.6280   -6.9550   21.5200 O   0  0  0  0  0  0  0  0  0  0  0  0
  -21.6130   -6.1960   22.6620 C   0  0  0  0  0  0  0  0  0  0  0  0
  -21.2360   -6.7350   23.9110 C   0  0  0  0  0  3  0  0  0  0  0  0
  -21.1670   -5.9020   25.0470 C   0  0  0  0  0  3  0  0  0  0  0  0
  -21.4650   -4.5320   24.9330 C   0  0  0  0  0  0  0  0  0  0  0  0
  -21.8360   -3.9910   23.6890 C   0  0  0  0  0  3  0  0  0  0  0  0
  -21.9060   -4.8210   22.5560 C   0  0  0  0  0  0  0  0  0  0  0  0
  -22.2430   -4.2910   21.3560 F   0  0  0  0  0  0  0  0  0  0  0  0
  -21.3930   -3.7290   26.0210 F   0  0  0  0  0  0  0  0  0  0  0  0
  -22.7060  -13.5890   21.1800 C   0  0  0  0  0  0  0  0  0  0  0  0
  -21.9870  -12.8930   22.0530 N   0  0  0  0  0  0  0  0  0  0  0  0
  -22.2630  -14.6130   20.6620 O   0  0  0  0  0  0  0  0  0  0  0  0
  -22.3590  -12.0650   22.4940 H   0  0  0  0  0  0  0  0  0  0  0  0
  -21.0500  -13.1930   22.2840 H   0  0  0  0  0  0  0  0  0  0  0  0
  -25.3100  -15.2660   20.3380 N   0  0  0  0  0  0  0  0  0  0  0  0
  -24.5370  -15.9110   20.4550 H   0  0  0  0  0  0  0  0  0  0  0  0
  -26.1390  -15.7080   19.9630 H   0  0  0  0  0  0  0  0  0  0  0  0
  -28.0220  -24.3210   20.4930 C   0  0  0  0  0  2  0  0  0  0  0  0
  -28.2370  -25.9360   20.2840 O   0  0  0  0  0  0  0  0  0  0  0  0
  -24.6410  -31.8830   23.2240 C   0  0  0  0  0  0  0  0  0  0  0  0
  -27.2040  -27.0020   20.2600 C   0  0  0  0  0  0  0  0  0  0  0  0
  -23.4480  -30.4730   21.5970 C   0  0  0  0  0  3  0  0  0  0  0  0
  -24.8980  -28.8580   20.1940 C   0  0  0  0  0  0  0  0  0  0  0  0
  -26.0130  -30.6920   21.4480 C   0  0  0  0  0  2  0  0  0  0  0  0
  -26.0850  -29.2780   20.8080 C   0  0  0  0  0  0  0  0  0  0  0  0
  -27.2350  -28.3720   20.8120 C   0  0  0  0  0  3  0  0  0  0  0  0
  -25.9860  -26.7240   19.6020 C   0  0  0  0  0  3  0  0  0  0  0  0
  -24.8710  -27.6010   19.5710 C   0  0  0  0  0  3  0  0  0  0  0  0
  -23.6790  -29.7770   20.2270 C   0  0  0  0  0  2  0  0  0  0  0  0
  -24.7220  -31.0430   22.1430 N   0  0  0  0  0  0  0  0  0  0  0  0
  -23.5510  -32.1770   23.7430 O   0  0  0  0  0  0  0  0  0  0  0  0
  -22.7550  -29.4840   22.5700 C   0  0  0  0  0  0  0  0  0  0  0  0
  -21.4240  -29.3210   22.4470 N   0  0  0  0  0  0  0  0  0  0  0  0
  -23.4200  -28.8640   23.4030 O   0  0  0  0  0  0  0  0  0  0  0  0
  -20.9410  -29.8710   21.7510 H   0  0  0  0  0  0  0  0  0  0  0  0
  -18.0410  -28.1160   22.9610 C   0  0  0  0  0  0  0  0  0  0  0  0
  -20.6000  -28.3910   23.2250 C   0  0  0  0  0  3  0  0  0  0  0  0
  -20.7050  -26.9520   22.6660 C   0  0  0  0  0  2  0  0  0  0  0  0
  -19.6050  -26.6180   21.6530 C   0  0  0  0  0  2  0  0  0  0  0  0
  -18.2220  -26.7630   22.2940 C   0  0  0  0  0  2  0  0  0  0  0  0
  -19.1570  -28.8880   23.3830 C   0  0  0  0  0  0  0  0  0  0  0  0
  -18.9320  -30.1520   23.9690 C   0  0  0  0  0  3  0  0  0  0  0  0
  -17.6240  -30.6460   24.1340 C   0  0  0  0  0  3  0  0  0  0  0  0
  -16.5240  -29.8740   23.7250 C   0  0  0  0  0  3  0  0  0  0  0  0
  -16.7330  -28.6110   23.1450 C   0  0  0  0  0  3  0  0  0  0  0  0
  -25.9120  -32.5310   23.8520 C   0  0  0  0  0  3  0  0  0  0  0  0
  -26.4250  -31.7680   25.1370 C   0  0  1  0  0  0  0  0  0  0  0  0
  -25.3290  -31.5370   26.2040 C   0  0  0  0  0  1  0  0  0  0  0  0
  -27.0110  -30.3880   24.7640 C   0  0  0  0  0  1  0  0  0  0  0  0
  -27.5730  -32.5680   25.7970 C   0  0  0  0  0  1  0  0  0  0  0  0
  -25.5890  -33.9290   24.1890 N   0  0  0  0  0  0  0  0  0  0  0  0
  -25.9110  -34.9920   23.4410 C   0  0  0  0  0  0  0  0  0  0  0  0
  -26.5730  -34.9010   22.4040 O   0  0  0  0  0  0  0  0  0  0  0  0
  -24.9980  -34.0720   24.9940 H   0  0  0  0  0  0  0  0  0  0  0  0
  -24.1680  -36.7840   23.1250 C   0  0  0  0  0  1  0  0  0  0  0  0
  -25.4230  -36.3770   23.9140 C   0  0  0  0  0  3  0  0  0  0  0  0
  -27.5650  -37.2720   24.7200 C   0  0  0  0  0  1  0  0  0  0  0  0
  -26.4480  -37.4380   23.7930 N   0  0  0  0  0  0  0  0  0  0  0  0
  -26.0390  -38.3550   23.9500 H   0  0  0  0  0  0  0  0  0  0  0  0
  2  5  1  0
  3  2  1  0
  3  1  1  0
  4  6  1  0
  4  1  1  0
  5  3  1  0
  5 46  1  1
  5  4  1  0
  6  7  2  0
  8 16  1  0
  9 14  1  0
 10 11  1  0
 10  9  1  0
 12 11  1  0
 12 21  1  0
 12 13  1  0
 14  8  1  0
 14 13  1  0
 15  8  2  0
 16 17  1  0
 16  7  1  0
 18 19  2  0
 19 38  1  0
 20 19  1  0
 20 23  1  0
 21 18  1  0
 21 22  1  0
 22 20  2  0
 23 24  1  0
 24 25  2  0
 26 29  1  0
 26 25  1  0
 27 26  2  0
 28 27  1  0
 28 23  2  0
 29 30  1  0
 30 31  1  0
 31 32  2  0
 33 32  1  0
 33 37  1  0
 34 33  2  0
 35 30  2  0
 35 34  1  0
 36 35  1  0
 38 39  1  0
 39 42  1  0
 39 41  1  0
 40 38  2  0
 43 44  1  0
 43 18  1  0
 45 43  1  0
 47 46  1  0
 48 59  2  0
 49 47  1  0
 49 54  1  0
 50 58  1  0
 50 60  1  0
 51 57  1  0
 51 53  1  0
 52 58  1  0
 53 54  2  0
 53 52  1  0
 55 49  2  0
 56 55  1  0
 56 51  2  0
 57 50  1  0
 58 48  1  0
 60 62  2  0
 61 60  1  0
 63 61  1  0
 64 73  2  0
 64 69  1  0
 65 61  1  0
 65 69  1  0
 66 65  1  0
 67 68  1  0
 67 66  1  0
 68 64  1  0
 69 70  2  0
 70 71  1  0
 72 71  2  0
 73 72  1  0
 74 48  1  0
 74 79  1  0
 74 75  1  0
 75 78  1  1
 75 76  1  0
 77 75  1  0
 79 82  1  0
 80 84  1  0
 80 79  1  0
 81 80  2  0
 84 83  1  0
 86 84  1  0
 86 87  1  0
 86 85  1  0
M  ISO  4   8 100  16 100  46 101  47 101
M  END
>  <TORSDO>  (17) 
F 19

>  <SCORE>  (17) 
-15.798

>  <name>  (17) 
16

>  <ligand_id>  (17) 
16

>  <original_smiles>  (17) 
[H]c1c([H])c([H])c2c(c1[H])C([H])([H])C([H])([H])C([H])([H])C2([H])N([H])C(=O)C1([H])N(C(=O)C([H])(N([H])C(=O)C([H])(N([H])C([H])([H])[H])C([H])([H])[H])C(C([H])([H])[H])(C([H])([H])[H])C([H])([H])[H])C([H])([H])c2c([H])c(OC([H])([H])C34C([H])([H])C3([H])C([H])([H])C4([H])C([H])([H])C([H])([H])N([H])C(=O)N3C([H])([H])C([H])([H])C([H])([H])C([H])(n4nc(-c5c([H])c([H])c(Oc6c([H])c([H])c(F)c([H])c6F)c([H])c5[H])c(C(=O)N([H])[H])c4N([H])[H])C3([H])[H])c([H])c([H])c2C1([H])[H]

>  <smiles>  (17) 
[H]c1c([H])c([H])c2c(c1[H])C([H])([H])C([H])([H])C([H])([H])C2([H])N([H])C(=O)C1([H])N(C(=O)C([H])(N([H])C(=O)C([H])(N([H])C([H])([H])[H])C([H])([H])[H])C(C([H])([H])[H])(C([H])([H])[H])C([H])([H])[H])C([H])([H])c2c([H])c(OC([H])([H])C34C([H])([H])C3([H])C([H])([H])C4([H])C([H])([H])C([H])([H])N([H])C(=O)N3C([H])([H])C([H])([H])C([H])([H])C([H])(n4nc(-c5c([H])c([H])c(Oc6c([H])c([H])c(F)c([H])c6F)c([H])c5[H])c(C(=O)N([H])[H])c4N([H])[H])C3([H])[H])c([H])c([H])c2C1([H])[H]

$$$$
17:0:0
     RDKit          3D

 94103  0  0  1  0  0  0  0  0999 V2000
  -28.5790  -20.5780   21.2230 C   0  0  0  0  0  3  0  0  0  0  0  0
  -30.1250  -22.0360   19.4050 C   0  0  0  0  0  3  0  0  0  0  0  0
  -28.4230  -21.9760   21.0830 C   0  0  0  0  0  0  0  0  0  0  0  0
  -29.1800  -22.7340   20.1990 C   0  0  0  0  0  0  0  0  0  0  0  0
  -30.2890  -20.6080   19.5180 C   0  0  0  0  0  0  0  0  0  0  0  0
  -29.5130  -19.8230   20.4470 C   0  0  0  0  0  0  0  0  0  0  0  0
  -27.5060  -22.8470   21.9040 C   0  0  0  0  0  2  0  0  0  0  0  0
  -27.6300  -24.2490   21.2640 C   0  0  0  0  0  2  0  0  0  0  0  0
  -28.9230  -24.2570   20.4110 C   0  0  0  0  0  3  0  0  0  0  0  0
  -31.3620  -19.9830   18.6430 C   0  0  0  0  0  1  0  0  0  0  0  0
  -28.1840  -17.6860   20.9120 C   0  0  0  0  0  1  0  0  0  0  0  0
  -30.3410  -18.1300   22.1280 C   0  0  0  0  0  1  0  0  0  0  0  0
  -29.6240  -18.2540   20.7690 C   0  0  2  0  0  0  0  0  0  0  0  0
  -30.3960  -17.2460   19.7980 C   0  0  0  0  0  2  0  0  0  0  0  0
  -30.9740  -14.7090   19.7290 C   0  0  0  0  0  0  0  0  0  0  0  0
  -30.6230  -12.4820   18.7010 C   0  0  0  0  0  2  0  0  0  0  0  0
  -29.5850  -12.6480   17.5690 C   0  0  0  0  0  2  0  0  0  0  0  0
  -28.1530  -12.5010   18.1170 C   0  0  0  0  0  2  0  0  0  0  0  0
  -27.9100  -13.3650   19.3830 C   0  0  0  0  0  3  0  0  0  0  0  0
  -29.0580  -13.1940   20.4070 C   0  0  0  0  0  2  0  0  0  0  0  0
  -30.3250  -13.5030   19.7230 N   0  0  0  0  0  0  0  0  0  0  0  0
  -32.0840  -14.8550   19.2140 O   0  0  0  0  0  0  0  0  0  0  0  0
  -30.2350  -15.7830   20.1220 N   0  0  0  0  0  0  0  0  0  0  0  0
  -29.3530  -15.5450   20.5450 H   0  0  0  0  0  0  0  0  0  0  0  0
  -25.5990  -13.9830   20.3300 C   0  0  0  0  0  0  0  0  0  0  0  0
  -24.5530  -13.2160   20.7680 C   0  0  0  0  0  0  0  0  0  0  0  0
  -24.9820  -11.8590   20.6480 C   0  0  0  0  0  0  0  0  0  0  0  0
  -26.6020  -13.0940   19.9770 N   0  0  0  0  0  0  0  0  0  0  0  0
  -26.2400  -11.8090   20.2250 N   0  0  0  0  0  0  0  0  0  0  0  0
  -24.2480  -10.6040   20.8530 C   0  0  0  0  0  0  0  0  0  0  0  0
  -24.6740   -9.6410   21.7940 C   0  0  0  0  0  3  0  0  0  0  0  0
  -23.9370   -8.4530   21.9880 C   0  0  0  0  0  3  0  0  0  0  0  0
  -22.7600   -8.2180   21.2390 C   0  0  0  0  0  0  0  0  0  0  0  0
  -22.3530   -9.1680   20.2850 C   0  0  0  0  0  3  0  0  0  0  0  0
  -23.0910  -10.3470   20.0890 C   0  0  0  0  0  3  0  0  0  0  0  0
  -21.9970   -7.0790   21.3410 O   0  0  0  0  0  0  0  0  0  0  0  0
  -21.8470   -6.4160   22.5330 C   0  0  0  0  0  0  0  0  0  0  0  0
  -21.3100   -7.0490   23.6750 C   0  0  0  0  0  3  0  0  0  0  0  0
  -21.1090   -6.3110   24.8590 C   0  0  0  0  0  3  0  0  0  0  0  0
  -21.4400   -4.9450   24.9020 C   0  0  0  0  0  0  0  0  0  0  0  0
  -21.9690   -4.3120   23.7650 C   0  0  0  0  0  3  0  0  0  0  0  0
  -22.1710   -5.0450   22.5830 C   0  0  0  0  0  0  0  0  0  0  0  0
  -22.6630   -4.4250   21.4830 F   0  0  0  0  0  0  0  0  0  0  0  0
  -21.2390   -4.2340   26.0370 F   0  0  0  0  0  0  0  0  0  0  0  0
  -23.1960  -13.7080   21.1840 C   0  0  0  0  0  0  0  0  0  0  0  0
  -22.5390  -12.9970   22.0930 N   0  0  0  0  0  0  0  0  0  0  0  0
  -22.7320  -14.7570   20.7380 O   0  0  0  0  0  0  0  0  0  0  0  0
  -22.9260  -12.1450   22.4700 H   0  0  0  0  0  0  0  0  0  0  0  0
  -21.6350  -13.3100   22.4200 H   0  0  0  0  0  0  0  0  0  0  0  0
  -25.7740  -15.3550   20.1800 N   0  0  0  0  0  0  0  0  0  0  0  0
  -25.0300  -16.0170   20.3740 H   0  0  0  0  0  0  0  0  0  0  0  0
  -26.5960  -15.7910   19.7870 H   0  0  0  0  0  0  0  0  0  0  0  0
  -28.8410  -25.2830   19.2140 C   0  0  0  0  0  2  0  0  0  0  0  0
  -28.7220  -26.6990   19.6110 O   0  0  0  0  0  0  0  0  0  0  0  0
  -24.7300  -31.6250   22.9990 C   0  0  0  0  0  0  0  0  0  0  0  0
  -27.5090  -27.3970   19.6470 C   0  0  0  0  0  0  0  0  0  0  0  0
  -23.5600  -30.2580   21.3050 C   0  0  0  0  0  3  0  0  0  0  0  0
  -25.0560  -28.8560   19.7770 C   0  0  0  0  0  0  0  0  0  0  0  0
  -26.0750  -30.7170   21.0940 C   0  0  0  0  0  2  0  0  0  0  0  0
  -26.2070  -29.3820   20.3750 C   0  0  0  0  0  0  0  0  0  0  0  0
  -27.4330  -28.6630   20.3010 C   0  0  0  0  0  3  0  0  0  0  0  0
  -26.3260  -26.9060   19.0460 C   0  0  0  0  0  3  0  0  0  0  0  0
  -25.1150  -27.6230   19.1090 C   0  0  0  0  0  3  0  0  0  0  0  0
  -23.7780  -29.6610   19.8890 C   0  0  0  0  0  2  0  0  0  0  0  0
  -24.8070  -30.8820   21.8560 N   0  0  0  0  0  0  0  0  0  0  0  0
  -23.6470  -31.8220   23.5670 O   0  0  0  0  0  0  0  0  0  0  0  0
  -22.9680  -29.1640   22.2210 C   0  0  0  0  0  0  0  0  0  0  0  0
  -21.6480  -28.9380   22.1160 N   0  0  0  0  0  0  0  0  0  0  0  0
  -23.6930  -28.5230   22.9860 O   0  0  0  0  0  0  0  0  0  0  0  0
  -21.1230  -29.5190   21.4790 H   0  0  0  0  0  0  0  0  0  0  0  0
  -18.3300  -27.5960   22.6270 C   0  0  0  0  0  0  0  0  0  0  0  0
  -20.8850  -27.9220   22.8420 C   0  0  0  0  0  3  0  0  0  0  0  0
  -21.0150  -26.5400   22.1620 C   0  0  0  0  0  2  0  0  0  0  0  0
  -19.8910  -26.2530   21.1610 C   0  0  0  0  0  2  0  0  0  0  0  0
  -18.5280  -26.3030   21.8560 C   0  0  0  0  0  2  0  0  0  0  0  0
  -19.4360  -28.3650   23.0760 C   0  0  0  0  0  0  0  0  0  0  0  0
  -19.1950  -29.5760   23.7590 C   0  0  0  0  0  3  0  0  0  0  0  0
  -17.8810  -30.0230   23.9940 C   0  0  0  0  0  3  0  0  0  0  0  0
  -16.7910  -29.2520   23.5600 C   0  0  0  0  0  3  0  0  0  0  0  0
  -17.0150  -28.0400   22.8820 C   0  0  0  0  0  3  0  0  0  0  0  0
  -25.9960  -32.2820   23.6330 C   0  0  0  0  0  3  0  0  0  0  0  0
  -26.5610  -31.4760   24.8660 C   0  0  1  0  0  0  0  0  0  0  0  0
  -25.4920  -31.1460   25.9330 C   0  0  0  0  0  1  0  0  0  0  0  0
  -27.1950  -30.1450   24.4020 C   0  0  0  0  0  1  0  0  0  0  0  0
  -27.6840  -32.2880   25.5510 C   0  0  0  0  0  1  0  0  0  0  0  0
  -25.6310  -33.6480   24.0320 N   0  0  0  0  0  0  0  0  0  0  0  0
  -25.9110  -34.7510   23.3240 C   0  0  0  0  0  0  0  0  0  0  0  0
  -26.5740  -34.7260   22.2830 O   0  0  0  0  0  0  0  0  0  0  0  0
  -25.0370  -33.7360   24.8430 H   0  0  0  0  0  0  0  0  0  0  0  0
  -24.1010  -36.4810   23.0800 C   0  0  0  0  0  1  0  0  0  0  0  0
  -25.3710  -36.0930   23.8530 C   0  0  0  0  0  3  0  0  0  0  0  0
  -27.4730  -37.0350   24.7000 C   0  0  0  0  0  1  0  0  0  0  0  0
  -26.3560  -37.1950   23.7740 N   0  0  0  0  0  0  0  0  0  0  0  0
  -25.9110  -38.0900   23.9660 H   0  0  0  0  0  0  0  0  0  0  0  0
  2  5  2  0
  2  4  1  0
  3  1  1  0
  3  7  1  0
  4  9  1  0
  4  3  2  0
  5  6  1  0
  6 13  1  0
  6  1  2  0
  8  7  1  0
  9 53  1  0
  9  8  1  0
 10  5  1  0
 13 11  1  1
 13 12  1  0
 14 23  1  0
 14 13  1  0
 15 23  1  0
 16 21  1  0
 17 18  1  0
 17 16  1  0
 19 18  1  0
 19 28  1  0
 19 20  1  0
 21 15  1  0
 21 20  1  0
 22 15  2  0
 23 24  1  0
 25 26  2  0
 26 45  1  0
 27 26  1  0
 27 30  1  0
 28 29  1  0
 28 25  1  0
 29 27  2  0
 30 31  1  0
 31 32  2  0
 33 36  1  0
 33 32  1  0
 34 33  2  0
 35 34  1  0
 35 30  2  0
 36 37  1  0
 37 42  2  0
 37 38  1  0
 38 39  2  0
 39 40  1  0
 40 44  1  0
 41 40  2  0
 42 41  1  0
 43 42  1  0
 45 46  1  0
 46 49  1  0
 46 48  1  0
 47 45  2  0
 50 25  1  0
 50 51  1  0
 52 50  1  0
 53 54  1  0
 54 56  1  0
 55 66  2  0
 56 61  1  0
 57 65  1  0
 57 67  1  0
 58 64  1  0
 58 60  1  0
 59 65  1  0
 60 59  1  0
 61 60  2  0
 62 63  1  0
 62 56  2  0
 63 58  2  0
 64 57  1  0
 65 55  1  0
 67 69  2  0
 68 67  1  0
 70 68  1  0
 71 80  2  0
 71 76  1  0
 72 68  1  0
 72 76  1  0
 73 72  1  0
 74 75  1  0
 74 73  1  0
 75 71  1  0
 76 77  2  0
 77 78  1  0
 79 78  2  0
 80 79  1  0
 81 55  1  0
 81 86  1  0
 81 82  1  0
 82 85  1  1
 82 83  1  0
 84 82  1  0
 86 89  1  0
 87 91  1  0
 87 86  1  0
 88 87  2  0
 91 90  1  0
 93 91  1  0
 93 94  1  0
 93 92  1  0
M  ISO  4  15 100  23 100  53 101  54 101
M  END
>  <TORSDO>  (18) 
F 19

>  <SCORE>  (18) 
-12.313

>  <name>  (18) 
17

>  <ligand_id>  (18) 
17

>  <original_smiles>  (18) 
[H]c1c([H])c([H])c2c(c1[H])C([H])([H])C([H])([H])C([H])([H])C2([H])N([H])C(=O)C1([H])N(C(=O)C([H])(N([H])C(=O)C([H])(N([H])C([H])([H])[H])C([H])([H])[H])C(C([H])([H])[H])(C([H])([H])[H])C([H])([H])[H])C([H])([H])c2c([H])c(OC([H])([H])C3([H])c4c([H])c(C([H])([H])[H])c(C(C([H])([H])[H])(C([H])([H])[H])C([H])([H])N([H])C(=O)N5C([H])([H])C([H])([H])C([H])([H])C([H])(n6nc(-c7c([H])c([H])c(Oc8c([H])c([H])c(F)c([H])c8F)c([H])c7[H])c(C(=O)N([H])[H])c6N([H])[H])C5([H])[H])c([H])c4C([H])([H])C3([H])[H])c([H])c([H])c2C1([H])[H]

>  <smiles>  (18) 
[H]c1c([H])c([H])c2c(c1[H])C([H])([H])C([H])([H])C([H])([H])C2([H])N([H])C(=O)C1([H])N(C(=O)C([H])(N([H])C(=O)C([H])(N([H])C([H])([H])[H])C([H])([H])[H])C(C([H])([H])[H])(C([H])([H])[H])C([H])([H])[H])C([H])([H])c2c([H])c(OC([H])([H])C3([H])c4c([H])c(C([H])([H])[H])c(C(C([H])([H])[H])(C([H])([H])[H])C([H])([H])N([H])C(=O)N5C([H])([H])C([H])([H])C([H])([H])C([H])(n6nc(-c7c([H])c([H])c(Oc8c([H])c([H])c(F)c([H])c8F)c([H])c7[H])c(C(=O)N([H])[H])c6N([H])[H])C5([H])[H])c([H])c4C([H])([H])C3([H])[H])c([H])c([H])c2C1([H])[H]

$$$$
18:0:0
     RDKit          3D

 89 98  0  0  1  0  0  0  0  0999 V2000
  -30.4020  -22.0380   21.6190 C   0  0  0  0  0  2  0  0  0  0  0  0
  -31.1970  -21.3200   20.4950 C   0  0  0  0  0  2  0  0  0  0  0  0
  -28.6490  -20.3010   21.1390 C   0  0  0  0  0  2  0  0  0  0  0  0
  -29.3890  -22.1370   18.9530 C   0  0  0  0  0  3  0  0  0  0  0  0
  -28.8870  -21.9310   21.3320 C   0  0  0  0  0  3  0  0  0  0  0  0
  -30.2300  -20.7980   19.4020 C   0  0  0  0  0  3  0  0  0  0  0  0
  -29.4410  -19.4980   19.9720 C   0  0  0  0  0  3  0  0  0  0  0  0
  -28.5390  -22.8950   20.0860 C   0  0  0  0  0  0  0  0  0  0  0  0
  -30.3220  -18.0050   20.2140 C   0  0  0  0  0  2  0  0  0  0  0  0
  -30.6120  -15.2020   20.1390 C   0  0  0  0  0  0  0  0  0  0  0  0
  -30.4970  -12.8080   19.2400 C   0  0  0  0  0  2  0  0  0  0  0  0
  -29.5430  -12.6750   18.0300 C   0  0  0  0  0  2  0  0  0  0  0  0
  -28.0990  -12.4340   18.5050 C   0  0  0  0  0  2  0  0  0  0  0  0
  -27.6930  -13.3910   19.6550 C   0  0  0  0  0  3  0  0  0  0  0  0
  -28.7700  -13.4860   20.7560 C   0  0  0  0  0  2  0  0  0  0  0  0
  -30.0080  -13.9320   20.1010 N   0  0  0  0  0  0  0  0  0  0  0  0
  -31.8200  -15.2160   19.8720 O   0  0  0  0  0  0  0  0  0  0  0  0
  -29.8810  -16.4470   20.2670 N   0  0  0  0  0  0  0  0  0  0  0  0
  -28.8940  -16.3080   20.4300 H   0  0  0  0  0  0  0  0  0  0  0  0
  -25.3350  -13.9550   20.4610 C   0  0  0  0  0  0  0  0  0  0  0  0
  -24.2790  -13.1760   20.8470 C   0  0  0  0  0  0  0  0  0  0  0  0
  -24.7440  -11.8250   20.7950 C   0  0  0  0  0  0  0  0  0  0  0  0
  -26.3720  -13.0800   20.1880 N   0  0  0  0  0  0  0  0  0  0  0  0
  -26.0300  -11.7930   20.4580 N   0  0  0  0  0  0  0  0  0  0  0  0
  -24.0220  -10.5610   20.9870 C   0  0  0  0  0  0  0  0  0  0  0  0
  -24.4580   -9.5950   21.9200 C   0  0  0  0  0  3  0  0  0  0  0  0
  -23.7330   -8.3980   22.1030 C   0  0  0  0  0  3  0  0  0  0  0  0
  -22.5580   -8.1570   21.3530 C   0  0  0  0  0  0  0  0  0  0  0  0
  -22.1410   -9.1120   20.4080 C   0  0  0  0  0  3  0  0  0  0  0  0
  -22.8670  -10.3000   20.2240 C   0  0  0  0  0  3  0  0  0  0  0  0
  -21.8050   -7.0120   21.4450 O   0  0  0  0  0  0  0  0  0  0  0  0
  -21.7390   -6.2850   22.6060 C   0  0  0  0  0  0  0  0  0  0  0  0
  -21.2810   -6.8510   23.8150 C   0  0  0  0  0  3  0  0  0  0  0  0
  -21.1650   -6.0490   24.9690 C   0  0  0  0  0  3  0  0  0  0  0  0
  -21.4980   -4.6820   24.9130 C   0  0  0  0  0  0  0  0  0  0  0  0
  -21.9480   -4.1150   23.7080 C   0  0  0  0  0  3  0  0  0  0  0  0
  -22.0650   -4.9140   22.5570 C   0  0  0  0  0  0  0  0  0  0  0  0
  -22.4800   -4.3580   21.3930 F   0  0  0  0  0  0  0  0  0  0  0  0
  -21.3800   -3.9100   26.0190 F   0  0  0  0  0  0  0  0  0  0  0  0
  -22.8880  -13.6500   21.1480 C   0  0  0  0  0  0  0  0  0  0  0  0
  -22.1780  -12.9480   22.0250 N   0  0  0  0  0  0  0  0  0  0  0  0
  -22.4400  -14.6770   20.6410 O   0  0  0  0  0  0  0  0  0  0  0  0
  -22.5550  -12.1170   22.4540 H   0  0  0  0  0  0  0  0  0  0  0  0
  -21.2460  -13.2480   22.2720 H   0  0  0  0  0  0  0  0  0  0  0  0
  -25.4920  -15.3280   20.2870 N   0  0  0  0  0  0  0  0  0  0  0  0
  -24.7240  -15.9780   20.4160 H   0  0  0  0  0  0  0  0  0  0  0  0
  -26.3240  -15.7660   19.9190 H   0  0  0  0  0  0  0  0  0  0  0  0
  -27.8950  -24.5370   20.0230 C   0  0  0  0  0  2  0  0  0  0  0  0
  -28.2580  -26.0820   20.2280 O   0  0  0  0  0  0  0  0  0  0  0  0
  -24.6700  -31.8890   23.2630 C   0  0  0  0  0  0  0  0  0  0  0  0
  -27.2340  -27.1370   20.1760 C   0  0  0  0  0  0  0  0  0  0  0  0
  -23.4680  -30.5090   21.6160 C   0  0  0  0  0  3  0  0  0  0  0  0
  -24.9140  -28.9440   20.1670 C   0  0  0  0  0  0  0  0  0  0  0  0
  -26.0280  -30.7580   21.4460 C   0  0  0  0  0  2  0  0  0  0  0  0
  -26.1010  -29.3650   20.7790 C   0  0  0  0  0  0  0  0  0  0  0  0
  -27.2600  -28.4810   20.7640 C   0  0  0  0  0  3  0  0  0  0  0  0
  -26.0160  -26.8500   19.5180 C   0  0  0  0  0  3  0  0  0  0  0  0
  -24.8900  -27.7040   19.5180 C   0  0  0  0  0  3  0  0  0  0  0  0
  -23.6870  -29.8470   20.2300 C   0  0  0  0  0  2  0  0  0  0  0  0
  -24.7440  -31.0760   22.1630 N   0  0  0  0  0  0  0  0  0  0  0  0
  -23.5850  -32.1650   23.7980 O   0  0  0  0  0  0  0  0  0  0  0  0
  -22.7900  -29.4930   22.5720 C   0  0  0  0  0  0  0  0  0  0  0  0
  -21.4620  -29.3150   22.4460 N   0  0  0  0  0  0  0  0  0  0  0  0
  -23.4640  -28.8670   23.3940 O   0  0  0  0  0  0  0  0  0  0  0  0
  -20.9730  -29.8730   21.7580 H   0  0  0  0  0  0  0  0  0  0  0  0
  -18.0900  -28.0780   22.9420 C   0  0  0  0  0  0  0  0  0  0  0  0
  -20.6470  -28.3680   23.2120 C   0  0  0  0  0  3  0  0  0  0  0  0
  -20.7630  -26.9380   22.6320 C   0  0  0  0  0  2  0  0  0  0  0  0
  -19.6660  -26.6100   21.6150 C   0  0  0  0  0  2  0  0  0  0  0  0
  -18.2810  -26.7360   22.2560 C   0  0  0  0  0  2  0  0  0  0  0  0
  -19.2010  -28.8520   23.3750 C   0  0  0  0  0  0  0  0  0  0  0  0
  -18.9640  -30.1060   23.9760 C   0  0  0  0  0  3  0  0  0  0  0  0
  -17.6540  -30.5900   24.1470 C   0  0  0  0  0  3  0  0  0  0  0  0
  -16.5580  -29.8150   23.7280 C   0  0  0  0  0  3  0  0  0  0  0  0
  -16.7780  -28.5610   23.1310 C   0  0  0  0  0  3  0  0  0  0  0  0
  -25.9450  -32.5260   23.8920 C   0  0  0  0  0  3  0  0  0  0  0  0
  -25.6350  -33.9250   24.2280 N   0  0  0  0  0  0  0  0  0  0  0  0
  -25.9390  -34.9820   23.4650 C   0  0  0  0  0  0  0  0  0  0  0  0
  -26.5770  -34.8850   22.4140 O   0  0  0  0  0  0  0  0  0  0  0  0
  -25.0650  -34.0730   25.0480 H   0  0  0  0  0  0  0  0  0  0  0  0
  -24.1780  -36.7600   23.1860 C   0  0  0  0  0  1  0  0  0  0  0  0
  -25.4600  -36.3700   23.9400 C   0  0  0  0  0  3  0  0  0  0  0  0
  -27.6180  -37.2840   24.6700 C   0  0  0  0  0  1  0  0  0  0  0  0
  -26.4750  -37.4330   23.7730 N   0  0  0  0  0  0  0  0  0  0  0  0
  -26.0660  -38.3510   23.9300 H   0  0  0  0  0  0  0  0  0  0  0  0
  -26.4510  -31.7570   25.1740 C   0  0  1  0  0  0  0  0  0  0  0  0
  -25.3520  -31.5250   26.2380 C   0  0  0  0  0  1  0  0  0  0  0  0
  -27.0330  -30.3770   24.7940 C   0  0  0  0  0  1  0  0  0  0  0  0
  -27.6010  -32.5490   25.8390 C   0  0  0  0  0  1  0  0  0  0  0  0
  2  1  1  0
  4  8  2  0
  5  3  1  0
  5  1  1  0
  6  4  1  0
  6  7  1  0
  6  2  1  0
  7  9  1  0
  7  3  1  0
  8  5  1  0
  9 18  1  0
 10 18  1  0
 11 16  1  0
 12 13  1  0
 12 11  1  0
 14 13  1  0
 14 23  1  0
 14 15  1  0
 16 10  1  0
 16 15  1  0
 17 10  2  0
 18 19  1  0
 20 21  2  0
 21 40  1  0
 22 21  1  0
 22 25  1  0
 23 24  1  0
 23 20  1  0
 24 22  2  0
 25 26  1  0
 26 27  2  0
 28 31  1  0
 28 27  1  0
 29 28  2  0
 30 29  1  0
 30 25  2  0
 31 32  1  0
 32 33  1  0
 33 34  2  0
 35 34  1  0
 35 39  1  0
 36 35  2  0
 37 32  2  0
 37 36  1  0
 38 37  1  0
 40 41  1  0
 41 44  1  0
 41 43  1  0
 42 40  2  0
 45 46  1  0
 45 20  1  0
 47 45  1  0
 48  8  1  0
 48 49  1  0
 50 61  2  0
 51 49  1  0
 51 56  1  0
 52 60  1  0
 52 62  1  0
 53 59  1  0
 53 55  1  0
 54 60  1  0
 55 54  1  0
 56 55  2  0
 57 51  2  0
 58 57  1  0
 58 53  2  0
 59 52  1  0
 60 50  1  0
 62 64  2  0
 63 62  1  0
 65 63  1  0
 66 75  2  0
 66 71  1  0
 67 63  1  0
 67 71  1  0
 68 67  1  0
 69 70  1  0
 69 68  1  0
 70 66  1  0
 71 72  2  0
 72 73  1  0
 74 73  2  0
 75 74  1  0
 76 50  1  0
 76 77  1  0
 76 86  1  0
 77 80  1  0
 78 82  1  0
 78 77  1  0
 79 78  2  0
 82 81  1  0
 84 85  1  0
 84 82  1  0
 84 83  1  0
 86 89  1  1
 86 87  1  0
 88 86  1  0
M  ISO  4  10 100  18 100  48 101  49 101
M  END
>  <TORSDO>  (19) 
F 18

>  <SCORE>  (19) 
-15.824

>  <name>  (19) 
18

>  <ligand_id>  (19) 
18

>  <original_smiles>  (19) 
[H]c1c([H])c([H])c2c(c1[H])C([H])([H])C([H])([H])C([H])([H])C2([H])N([H])C(=O)C1([H])N(C(=O)C([H])(N([H])C(=O)C([H])(N([H])C([H])([H])[H])C([H])([H])[H])C(C([H])([H])[H])(C([H])([H])[H])C([H])([H])[H])C([H])([H])c2c([H])c(OC([H])([H])C3([H])C([H])([H])C4([H])C([H])([H])C([H])([H])C3([H])C([H])([H])C4([H])C([H])([H])N([H])C(=O)N3C([H])([H])C([H])([H])C([H])([H])C([H])(n4nc(-c5c([H])c([H])c(Oc6c([H])c([H])c(F)c([H])c6F)c([H])c5[H])c(C(=O)N([H])[H])c4N([H])[H])C3([H])[H])c([H])c([H])c2C1([H])[H]

>  <smiles>  (19) 
[H]c1c([H])c([H])c2c(c1[H])C([H])([H])C([H])([H])C([H])([H])C2([H])N([H])C(=O)C1([H])N(C(=O)C([H])(N([H])C(=O)C([H])(N([H])C([H])([H])[H])C([H])([H])[H])C(C([H])([H])[H])(C([H])([H])[H])C([H])([H])[H])C([H])([H])c2c([H])c(OC([H])([H])C3([H])C([H])([H])C4([H])C([H])([H])C([H])([H])C3([H])C([H])([H])C4([H])C([H])([H])N([H])C(=O)N3C([H])([H])C([H])([H])C([H])([H])C([H])(n4nc(-c5c([H])c([H])c(Oc6c([H])c([H])c(F)c([H])c6F)c([H])c5[H])c(C(=O)N([H])[H])c4N([H])[H])C3([H])[H])c([H])c([H])c2C1([H])[H]

$$$$
19:0:0
     RDKit          3D

 91100  0  0  1  0  0  0  0  0999 V2000
  -30.7290  -20.1150   20.1560 C   0  0  0  0  0  2  0  0  0  0  0  0
  -29.8750  -21.3890   20.5790 C   0  0  0  0  0  3  0  0  0  0  0  0
  -28.6680  -20.5630   20.1810 C   0  0  0  0  0  3  0  0  0  0  0  0
  -29.6200  -19.0320   20.3600 C   0  0  1  0  0  0  0  0  0  0  0  0
  -28.8820  -22.3280   19.8010 C   0  0  2  0  0  0  0  0  0  0  0  0
  -29.1960  -22.5860   18.3430 C   0  0  0  0  0  1  0  0  0  0  0  0
  -29.5780  -17.2520   19.6620 C   0  0  0  0  0  2  0  0  0  0  0  0
  -30.4410  -15.6180   19.7320 C   0  0  0  0  0  0  0  0  0  0  0  0
  -30.4800  -13.0860   18.9370 C   0  0  0  0  0  2  0  0  0  0  0  0
  -29.4930  -12.7530   17.7820 C   0  0  0  0  0  2  0  0  0  0  0  0
  -28.0950  -12.4240   18.3280 C   0  0  0  0  0  2  0  0  0  0  0  0
  -27.6740  -13.4200   19.4330 C   0  0  0  0  0  3  0  0  0  0  0  0
  -28.7830  -13.6870   20.4730 C   0  0  0  0  0  2  0  0  0  0  0  0
  -29.9400  -14.2560   19.7530 N   0  0  0  0  0  0  0  0  0  0  0  0
  -31.6630  -15.5720   19.4920 O   0  0  0  0  0  0  0  0  0  0  0  0
  -25.3920  -13.9600   20.4140 C   0  0  0  0  0  0  0  0  0  0  0  0
  -24.3540  -13.1820   20.8420 C   0  0  0  0  0  0  0  0  0  0  0  0
  -24.7990  -11.8280   20.7270 C   0  0  0  0  0  0  0  0  0  0  0  0
  -26.3980  -13.0850   20.0510 N   0  0  0  0  0  0  0  0  0  0  0  0
  -26.0610  -11.7920   20.3060 N   0  0  0  0  0  0  0  0  0  0  0  0
  -24.0730  -10.5680   20.9350 C   0  0  0  0  0  0  0  0  0  0  0  0
  -24.5300   -9.5900   21.8440 C   0  0  0  0  0  3  0  0  0  0  0  0
  -23.8000   -8.3980   22.0430 C   0  0  0  0  0  3  0  0  0  0  0  0
  -22.5970   -8.1770   21.3320 C   0  0  0  0  0  0  0  0  0  0  0  0
  -22.1570   -9.1430   20.4100 C   0  0  0  0  0  3  0  0  0  0  0  0
  -22.8870  -10.3260   20.2110 C   0  0  0  0  0  3  0  0  0  0  0  0
  -21.8340   -7.0380   21.4390 O   0  0  0  0  0  0  0  0  0  0  0  0
  -21.7850   -6.3120   22.6010 C   0  0  0  0  0  0  0  0  0  0  0  0
  -21.3130   -6.8720   23.8100 C   0  0  0  0  0  3  0  0  0  0  0  0
  -21.2140   -6.0710   24.9650 C   0  0  0  0  0  3  0  0  0  0  0  0
  -21.5750   -4.7110   24.9150 C   0  0  0  0  0  0  0  0  0  0  0  0
  -22.0390   -4.1500   23.7100 C   0  0  0  0  0  3  0  0  0  0  0  0
  -22.1410   -4.9490   22.5580 C   0  0  0  0  0  0  0  0  0  0  0  0
  -22.5690   -4.3990   21.3950 F   0  0  0  0  0  0  0  0  0  0  0  0
  -21.4720   -3.9390   26.0210 F   0  0  0  0  0  0  0  0  0  0  0  0
  -22.9890  -13.6660   21.2360 C   0  0  0  0  0  0  0  0  0  0  0  0
  -22.3310  -12.9610   22.1500 N   0  0  0  0  0  0  0  0  0  0  0  0
  -22.5200  -14.7010   20.7660 O   0  0  0  0  0  0  0  0  0  0  0  0
  -22.7280  -12.1260   22.5550 H   0  0  0  0  0  0  0  0  0  0  0  0
  -21.4170  -13.2640   22.4520 H   0  0  0  0  0  0  0  0  0  0  0  0
  -25.5570  -15.3350   20.2720 N   0  0  0  0  0  0  0  0  0  0  0  0
  -24.8080  -15.9890   20.4730 H   0  0  0  0  0  0  0  0  0  0  0  0
  -26.3760  -15.7810   19.8830 H   0  0  0  0  0  0  0  0  0  0  0  0
  -29.3910  -18.6860   21.8610 C   0  0  0  0  0  2  0  0  0  0  0  0
  -30.6200  -18.2390   22.6660 C   0  0  0  0  0  0  0  0  0  0  0  0
  -31.2930  -19.1670   23.3370 N   0  0  0  0  0  0  0  0  0  0  0  0
  -30.9380  -17.0540   22.7350 O   0  0  0  0  0  0  0  0  0  0  0  0
  -31.0130  -20.1370   23.2820 H   0  0  0  0  0  0  0  0  0  0  0  0
  -32.0920  -18.9170   23.9030 H   0  0  0  0  0  0  0  0  0  0  0  0
  -28.0950  -23.9630   20.3010 C   0  0  0  0  0  2  0  0  0  0  0  0
  -28.2750  -25.6800   20.1970 O   0  0  0  0  0  0  0  0  0  0  0  0
  -24.5890  -31.8110   23.1020 C   0  0  0  0  0  0  0  0  0  0  0  0
  -27.2630  -26.8340   20.1640 C   0  0  0  0  0  0  0  0  0  0  0  0
  -23.4570  -30.3970   21.4390 C   0  0  0  0  0  3  0  0  0  0  0  0
  -24.9580  -28.7850   20.0570 C   0  0  0  0  0  0  0  0  0  0  0  0
  -26.0310  -30.6010   21.3640 C   0  0  0  0  0  2  0  0  0  0  0  0
  -26.1320  -29.1760   20.7120 C   0  0  0  0  0  0  0  0  0  0  0  0
  -27.2750  -28.2280   20.7320 C   0  0  0  0  0  3  0  0  0  0  0  0
  -26.0500  -26.6340   19.4610 C   0  0  0  0  0  3  0  0  0  0  0  0
  -24.9500  -27.5390   19.4070 C   0  0  0  0  0  3  0  0  0  0  0  0
  -23.7330  -29.7100   20.0730 C   0  0  0  0  0  2  0  0  0  0  0  0
  -24.7140  -30.9660   22.0220 N   0  0  0  0  0  0  0  0  0  0  0  0
  -23.4820  -32.0900   23.5930 O   0  0  0  0  0  0  0  0  0  0  0  0
  -22.7420  -29.4020   22.3930 C   0  0  0  0  0  0  0  0  0  0  0  0
  -21.4130  -29.2370   22.2490 N   0  0  0  0  0  0  0  0  0  0  0  0
  -23.3950  -28.7760   23.2320 O   0  0  0  0  0  0  0  0  0  0  0  0
  -20.9370  -29.7940   21.5540 H   0  0  0  0  0  0  0  0  0  0  0  0
  -18.0260  -28.0090   22.7190 C   0  0  0  0  0  0  0  0  0  0  0  0
  -20.5840  -28.2890   23.0030 C   0  0  0  0  0  3  0  0  0  0  0  0
  -20.6960  -26.8620   22.4160 C   0  0  0  0  0  2  0  0  0  0  0  0
  -19.6040  -26.5440   21.3890 C   0  0  0  0  0  2  0  0  0  0  0  0
  -18.2170  -26.6710   22.0230 C   0  0  0  0  0  2  0  0  0  0  0  0
  -19.1360  -28.7760   23.1640 C   0  0  0  0  0  0  0  0  0  0  0  0
  -18.9010  -30.0260   23.7770 C   0  0  0  0  0  3  0  0  0  0  0  0
  -17.5890  -30.5100   23.9450 C   0  0  0  0  0  3  0  0  0  0  0  0
  -16.4950  -29.7420   23.5130 C   0  0  0  0  0  3  0  0  0  0  0  0
  -16.7140  -28.4920   22.9060 C   0  0  0  0  0  3  0  0  0  0  0  0
  -25.8310  -32.4770   23.7690 C   0  0  0  0  0  3  0  0  0  0  0  0
  -26.3240  -31.7110   25.0590 C   0  0  1  0  0  0  0  0  0  0  0  0
  -25.2050  -31.4430   26.0940 C   0  0  0  0  0  1  0  0  0  0  0  0
  -26.9500  -30.3480   24.6890 C   0  0  0  0  0  1  0  0  0  0  0  0
  -27.4360  -32.5270   25.7590 C   0  0  0  0  0  1  0  0  0  0  0  0
  -25.4770  -33.8660   24.1160 N   0  0  0  0  0  0  0  0  0  0  0  0
  -25.7900  -34.9470   23.3890 C   0  0  0  0  0  0  0  0  0  0  0  0
  -26.4680  -34.8800   22.3610 O   0  0  0  0  0  0  0  0  0  0  0  0
  -24.8720  -33.9890   24.9140 H   0  0  0  0  0  0  0  0  0  0  0  0
  -24.0290  -36.7210   23.0670 C   0  0  0  0  0  1  0  0  0  0  0  0
  -25.2740  -36.3190   23.8750 C   0  0  0  0  0  3  0  0  0  0  0  0
  -27.3790  -37.2400   24.7450 C   0  0  0  0  0  1  0  0  0  0  0  0
  -26.2870  -37.3950   23.7890 N   0  0  0  0  0  0  0  0  0  0  0  0
  -25.8590  -38.3050   23.9420 H   0  0  0  0  0  0  0  0  0  0  0  0
  1  4  1  0
  2  1  1  0
  3  4  1  0
  3  2  1  0
  4 44  1  1
  5  3  1  0
  5 50  1  0
  5  2  1  0
  5  6  1  6
  7  8  1  0
  7  4  1  0
  8 14  1  0
  9 14  1  0
 10 11  1  0
 10  9  1  0
 11 12  1  0
 12 19  1  0
 12 13  1  0
 14 13  1  0
 15  8  2  0
 16 17  2  0
 17 36  1  0
 18 17  1  0
 18 21  1  0
 19 20  1  0
 19 16  1  0
 20 18  2  0
 21 22  1  0
 22 23  2  0
 24 27  1  0
 24 23  1  0
 25 24  2  0
 26 25  1  0
 26 21  2  0
 27 28  1  0
 28 29  1  0
 29 30  2  0
 31 30  1  0
 31 35  1  0
 32 31  2  0
 33 28  2  0
 33 32  1  0
 34 33  1  0
 36 37  1  0
 37 40  1  0
 37 39  1  0
 38 36  2  0
 41 16  1  0
 41 42  1  0
 43 41  1  0
 44 45  1  0
 45 47  2  0
 45 46  1  0
 46 49  1  0
 48 46  1  0
 51 50  1  0
 52 63  2  0
 52 78  1  0
 53 51  1  0
 53 58  1  0
 54 62  1  0
 54 64  1  0
 55 61  1  0
 55 57  1  0
 56 62  1  0
 57 58  2  0
 57 56  1  0
 59 53  2  0
 60 59  1  0
 60 55  2  0
 61 54  1  0
 62 52  1  0
 64 66  2  0
 65 64  1  0
 65 69  1  0
 67 65  1  0
 68 77  2  0
 68 73  1  0
 69 73  1  0
 70 69  1  0
 71 72  1  0
 71 70  1  0
 72 68  1  0
 73 74  2  0
 74 75  1  0
 76 75  2  0
 77 76  1  0
 78 83  1  0
 78 79  1  0
 79 82  1  1
 79 80  1  0
 81 79  1  0
 83 86  1  0
 84 88  1  0
 84 83  1  0
 85 84  2  0
 87 88  1  0
 90 88  1  0
 90 91  1  0
 90 89  1  0
M  ISO  4   7 100   8 100  50 101  51 101
M  END
>  <TORSDO>  (20) 
F 20

>  <SCORE>  (20) 
-14.341

>  <name>  (20) 
19

>  <ligand_id>  (20) 
19

>  <original_smiles>  (20) 
[H]c1c([H])c([H])c2c(c1[H])C([H])([H])C([H])([H])C([H])([H])C2([H])N([H])C(=O)C1([H])N(C(=O)C([H])(N([H])C(=O)C([H])(N([H])C([H])([H])[H])C([H])([H])[H])C(C([H])([H])[H])(C([H])([H])[H])C([H])([H])[H])C([H])([H])c2c([H])c(OC([H])([H])C3(C([H])([H])[H])C4([H])C([H])([H])C(C([H])([H])C(=O)N([H])[H])(C([H])([H])C(=O)N5C([H])([H])C([H])([H])C([H])([H])C([H])(n6nc(-c7c([H])c([H])c(Oc8c([H])c([H])c(F)c([H])c8F)c([H])c7[H])c(C(=O)N([H])[H])c6N([H])[H])C5([H])[H])C43[H])c([H])c([H])c2C1([H])[H]

>  <smiles>  (20) 
[H]c1c([H])c([H])c2c(c1[H])C([H])([H])C([H])([H])C([H])([H])C2([H])N([H])C(=O)C1([H])N(C(=O)C([H])(N([H])C(=O)C([H])(N([H])C([H])([H])[H])C([H])([H])[H])C(C([H])([H])[H])(C([H])([H])[H])C([H])([H])[H])C([H])([H])c2c([H])c(OC([H])([H])C3(C([H])([H])[H])C4([H])C([H])([H])C(C([H])([H])C(=O)N([H])[H])(C([H])([H])C(=O)N5C([H])([H])C([H])([H])C([H])([H])C([H])(n6nc(-c7c([H])c([H])c(Oc8c([H])c([H])c(F)c([H])c8F)c([H])c7[H])c(C(=O)N([H])[H])c6N([H])[H])C5([H])[H])C43[H])c([H])c([H])c2C1([H])[H]

$$$$
20:0:0
     RDKit          3D

 91101  0  0  1  0  0  0  0  0999 V2000
  -30.3100  -19.5310   18.9210 C   0  0  0  0  0  2  0  0  0  0  0  0
  -28.4830  -17.8090   19.4400 C   0  0  0  0  0  2  0  0  0  0  0  0
  -28.7880  -19.3810   19.1970 C   0  0  2  0  0  0  0  0  0  0  0  0
  -30.1120  -18.9680   20.3440 C   0  0  2  0  0  0  0  0  0  0  0  0
  -29.0700  -20.4430   20.3720 C   0  0  0  0  0  3  0  0  0  0  0  0
  -29.6310  -17.2260   20.3370 C   0  0  2  0  0  0  0  0  0  0  0  0
  -30.3830  -15.5770   19.8970 C   0  0  0  0  0  0  0  0  0  0  0  0
  -30.3890  -13.0830   18.9610 C   0  0  0  0  0  2  0  0  0  0  0  0
  -29.3990  -12.8240   17.7860 C   0  0  0  0  0  2  0  0  0  0  0  0
  -27.9920  -12.4850   18.3070 C   0  0  0  0  0  2  0  0  0  0  0  0
  -27.5890  -13.4090   19.4780 C   0  0  0  0  0  3  0  0  0  0  0  0
  -28.7050  -13.5910   20.5300 C   0  0  0  0  0  2  0  0  0  0  0  0
  -29.8700  -14.2110   19.8530 N   0  0  0  0  0  0  0  0  0  0  0  0
  -31.5740  -15.5300   19.5340 O   0  0  0  0  0  0  0  0  0  0  0  0
  -25.2880  -13.9140   20.4370 C   0  0  0  0  0  0  0  0  0  0  0  0
  -24.2600  -13.1200   20.8620 C   0  0  0  0  0  0  0  0  0  0  0  0
  -24.7260  -11.7720   20.7490 C   0  0  0  0  0  0  0  0  0  0  0  0
  -26.3070  -13.0530   20.0760 N   0  0  0  0  0  0  0  0  0  0  0  0
  -25.9910  -11.7560   20.3340 N   0  0  0  0  0  0  0  0  0  0  0  0
  -24.0140  -10.5010   20.9450 C   0  0  0  0  0  0  0  0  0  0  0  0
  -24.4750   -9.5290   21.8600 C   0  0  0  0  0  3  0  0  0  0  0  0
  -23.7590   -8.3290   22.0520 C   0  0  0  0  0  3  0  0  0  0  0  0
  -22.5660   -8.0900   21.3270 C   0  0  0  0  0  0  0  0  0  0  0  0
  -22.1230   -9.0510   20.4030 C   0  0  0  0  0  3  0  0  0  0  0  0
  -22.8400  -10.2440   20.2090 C   0  0  0  0  0  3  0  0  0  0  0  0
  -21.8200   -6.9400   21.4260 O   0  0  0  0  0  0  0  0  0  0  0  0
  -21.7570   -6.2210   22.5940 C   0  0  0  0  0  0  0  0  0  0  0  0
  -21.2730   -6.7890   23.7920 C   0  0  0  0  0  3  0  0  0  0  0  0
  -21.1590   -5.9950   24.9520 C   0  0  0  0  0  3  0  0  0  0  0  0
  -21.5180   -4.6350   24.9120 C   0  0  0  0  0  0  0  0  0  0  0  0
  -21.9950   -4.0660   23.7180 C   0  0  0  0  0  3  0  0  0  0  0  0
  -22.1100   -4.8580   22.5610 C   0  0  0  0  0  0  0  0  0  0  0  0
  -22.5500   -4.3000   21.4080 F   0  0  0  0  0  0  0  0  0  0  0  0
  -21.4020   -3.8700   26.0220 F   0  0  0  0  0  0  0  0  0  0  0  0
  -22.8850  -13.5830   21.2410 C   0  0  0  0  0  0  0  0  0  0  0  0
  -22.2180  -12.8680   22.1410 N   0  0  0  0  0  0  0  0  0  0  0  0
  -22.4110  -14.6180   20.7730 O   0  0  0  0  0  0  0  0  0  0  0  0
  -22.6180  -12.0350   22.5450 H   0  0  0  0  0  0  0  0  0  0  0  0
  -21.2970  -13.1630   22.4330 H   0  0  0  0  0  0  0  0  0  0  0  0
  -25.4370  -15.2890   20.2870 N   0  0  0  0  0  0  0  0  0  0  0  0
  -24.6180  -15.8830   20.3830 H   0  0  0  0  0  0  0  0  0  0  0  0
  -26.1130  -15.6660   19.6390 H   0  0  0  0  0  0  0  0  0  0  0  0
  -29.1460  -16.9840   21.7050 N   0  0  0  0  0  4  0  0  0  0  0  0
  -28.7430  -17.8150   22.0960 H   0  0  0  0  0  0  0  0  0  0  0  0
  -29.9200  -16.7130   22.2830 H   0  0  0  0  0  0  0  0  0  0  0  0
  -28.4630  -16.2470   21.7270 H   0  0  0  0  0  0  0  0  0  0  0  0
  -30.5640  -22.6570   20.9160 C   0  0  0  0  0  1  0  0  0  0  0  0
  -29.5360  -22.5860   18.6580 C   0  0  0  0  0  1  0  0  0  0  0  0
  -29.2610  -22.3530   20.1580 C   0  0  1  0  0  0  0  0  0  0  0  0
  -28.2260  -23.9170   20.4970 C   0  0  0  0  0  2  0  0  0  0  0  0
  -28.3910  -25.6420   20.4240 O   0  0  0  0  0  0  0  0  0  0  0  0
  -24.7300  -31.8320   23.2340 C   0  0  0  0  0  0  0  0  0  0  0  0
  -27.3810  -26.7980   20.3700 C   0  0  0  0  0  0  0  0  0  0  0  0
  -23.5900  -30.4010   21.5920 C   0  0  0  0  0  3  0  0  0  0  0  0
  -25.0840  -28.7580   20.2380 C   0  0  0  0  0  0  0  0  0  0  0  0
  -26.1680  -30.5880   21.5170 C   0  0  0  0  0  2  0  0  0  0  0  0
  -26.2620  -29.1530   20.8850 C   0  0  0  0  0  0  0  0  0  0  0  0
  -27.4020  -28.2020   20.9120 C   0  0  0  0  0  3  0  0  0  0  0  0
  -26.1680  -26.5900   19.6720 C   0  0  0  0  0  3  0  0  0  0  0  0
  -25.0720  -27.5000   19.6100 C   0  0  0  0  0  3  0  0  0  0  0  0
  -23.8660  -29.6900   20.2360 C   0  0  0  0  0  2  0  0  0  0  0  0
  -24.8510  -30.9720   22.1680 N   0  0  0  0  0  0  0  0  0  0  0  0
  -23.6230  -32.1240   23.7180 O   0  0  0  0  0  0  0  0  0  0  0  0
  -22.8650  -29.4260   22.5580 C   0  0  0  0  0  0  0  0  0  0  0  0
  -21.5360  -29.2680   22.4130 N   0  0  0  0  0  0  0  0  0  0  0  0
  -23.5110  -28.8080   23.4080 O   0  0  0  0  0  0  0  0  0  0  0  0
  -21.0670  -29.8120   21.7020 H   0  0  0  0  0  0  0  0  0  0  0  0
  -18.1340  -28.0920   22.9100 C   0  0  0  0  0  0  0  0  0  0  0  0
  -20.6960  -28.3380   23.1820 C   0  0  0  0  0  3  0  0  0  0  0  0
  -20.7880  -26.9050   22.6050 C   0  0  0  0  0  2  0  0  0  0  0  0
  -19.6870  -26.5930   21.5870 C   0  0  0  0  0  2  0  0  0  0  0  0
  -18.3030  -26.7460   22.2260 C   0  0  0  0  0  2  0  0  0  0  0  0
  -19.2580  -28.8480   23.3420 C   0  0  0  0  0  0  0  0  0  0  0  0
  -19.0410  -30.1060   23.9440 C   0  0  0  0  0  3  0  0  0  0  0  0
  -17.7380  -30.6100   24.1150 C   0  0  0  0  0  3  0  0  0  0  0  0
  -16.6310  -29.8530   23.6940 C   0  0  0  0  0  3  0  0  0  0  0  0
  -16.8290  -28.5960   23.0980 C   0  0  0  0  0  3  0  0  0  0  0  0
  -25.9740  -32.5010   23.8930 C   0  0  0  0  0  3  0  0  0  0  0  0
  -26.4530  -31.7560   25.2010 C   0  0  1  0  0  0  0  0  0  0  0  0
  -25.3270  -31.5230   26.2380 C   0  0  0  0  0  1  0  0  0  0  0  0
  -27.0640  -30.3790   24.8620 C   0  0  0  0  0  1  0  0  0  0  0  0
  -27.5740  -32.5720   25.8870 C   0  0  0  0  0  1  0  0  0  0  0  0
  -25.6280  -33.8990   24.2110 N   0  0  0  0  0  0  0  0  0  0  0  0
  -25.9410  -34.9610   23.4550 C   0  0  0  0  0  0  0  0  0  0  0  0
  -26.6060  -34.8660   22.4210 O   0  0  0  0  0  0  0  0  0  0  0  0
  -25.0360  -34.0450   25.0170 H   0  0  0  0  0  0  0  0  0  0  0  0
  -24.1710  -36.7230   23.1290 C   0  0  0  0  0  1  0  0  0  0  0  0
  -25.4360  -36.3440   23.9160 C   0  0  0  0  0  3  0  0  0  0  0  0
  -27.5650  -37.2870   24.7020 C   0  0  0  0  0  1  0  0  0  0  0  0
  -26.4450  -37.4180   23.7730 N   0  0  0  0  0  0  0  0  0  0  0  0
  -26.0210  -38.3320   23.9120 H   0  0  0  0  0  0  0  0  0  0  0  0
  2  6  1  0
  3  1  1  6
  3  2  1  0
  3  4  1  0
  3  5  1  0
  4  1  1  6
  4  5  1  0
  5 49  1  0
  6  7  1  0
  6  4  1  0
  6 43  1  1
  8 13  1  0
  9 10  1  0
  9  8  1  0
 11 10  1  0
 11 18  1  0
 11 12  1  0
 13  7  1  0
 13 12  1  0
 14  7  2  0
 15 16  2  0
 16 35  1  0
 17 16  1  0
 17 20  1  0
 18 19  1  0
 18 15  1  0
 19 17  2  0
 20 21  1  0
 21 22  2  0
 23 26  1  0
 23 22  1  0
 24 23  2  0
 25 24  1  0
 25 20  2  0
 26 27  1  0
 27 28  1  0
 28 29  2  0
 30 29  1  0
 30 34  1  0
 31 30  2  0
 32 27  2  0
 32 31  1  0
 33 32  1  0
 35 36  1  0
 36 39  1  0
 36 38  1  0
 37 35  2  0
 40 41  1  0
 40 15  1  0
 42 40  1  0
 43 46  1  0
 43 44  1  0
 43 45  1  0
 49 48  1  6
 49 50  1  0
 49 47  1  0
 51 50  1  0
 52 63  2  0
 53 51  1  0
 53 58  1  0
 54 62  1  0
 54 64  1  0
 55 57  1  0
 56 62  1  0
 57 58  2  0
 57 56  1  0
 59 53  2  0
 60 59  1  0
 60 55  2  0
 61 55  1  0
 61 54  1  0
 62 52  1  0
 64 66  2  0
 65 64  1  0
 67 65  1  0
 68 77  2  0
 68 73  1  0
 69 65  1  0
 69 73  1  0
 70 69  1  0
 71 72  1  0
 71 70  1  0
 72 68  1  0
 73 74  2  0
 74 75  1  0
 76 75  2  0
 77 76  1  0
 78 52  1  0
 78 83  1  0
 78 79  1  0
 79 82  1  1
 79 80  1  0
 81 79  1  0
 83 86  1  0
 84 88  1  0
 84 83  1  0
 85 84  2  0
 88 87  1  0
 90 91  1  0
 90 88  1  0
 90 89  1  0
M  ISO  4   6 100   7 100  50 101  51 101
M  END
>  <TORSDO>  (21) 
F 19

>  <SCORE>  (21) 
-16.302

>  <name>  (21) 
20

>  <ligand_id>  (21) 
20

>  <original_smiles>  (21) 
[H]c1c([H])c([H])c2c(c1[H])C([H])([H])C([H])([H])C([H])([H])C2([H])N([H])C(=O)C1([H])N(C(=O)C([H])(N([H])C(=O)C([H])(N([H])C([H])([H])[H])C([H])([H])[H])C(C([H])([H])[H])(C([H])([H])[H])C([H])([H])[H])C([H])([H])c2c([H])c(OC([H])([H])C(C([H])([H])[H])(C([H])([H])[H])C3([H])C4([H])C([H])([H])C3([H])C(C(=O)N3C([H])([H])C([H])([H])C([H])([H])C([H])(n5nc(-c6c([H])c([H])c(Oc7c([H])c([H])c(F)c([H])c7F)c([H])c6[H])c(C(=O)N([H])[H])c5N([H])[H])C3([H])[H])([N+]([H])([H])[H])C4([H])[H])c([H])c([H])c2C1([H])[H]

>  <smiles>  (21) 
[H]c1c([H])c([H])c2c(c1[H])C([H])([H])C([H])([H])C([H])([H])C2([H])N([H])C(=O)C1([H])N(C(=O)C([H])(N([H])C(=O)C([H])(N([H])C([H])([H])[H])C([H])([H])[H])C(C([H])([H])[H])(C([H])([H])[H])C([H])([H])[H])C([H])([H])c2c([H])c(OC([H])([H])C(C([H])([H])[H])(C([H])([H])[H])C3([H])C4([H])C([H])([H])C3([H])C(C(=O)N3C([H])([H])C([H])([H])C([H])([H])C([H])(n5nc(-c6c([H])c([H])c(Oc7c([H])c([H])c(F)c([H])c7F)c([H])c6[H])c(C(=O)N([H])[H])c5N([H])[H])C3([H])[H])([N+]([H])([H])[H])C4([H])[H])c([H])c([H])c2C1([H])[H]

$$$$
21:0:0
     RDKit          3D

 90 99  0  0  1  0  0  0  0  0999 V2000
  -28.9390  -21.1910   21.3130 C   0  0  0  0  0  3  0  0  0  0  0  0
  -28.6310  -22.6100   21.3400 C   0  0  0  0  0  3  0  0  0  0  0  0
  -28.9050  -22.7050   18.9960 C   0  0  0  0  0  3  0  0  0  0  0  0
  -29.1880  -20.4340   20.1190 C   0  0  0  0  0  0  0  0  0  0  0  0
  -28.5640  -23.4360   20.1730 C   0  0  0  0  0  0  0  0  0  0  0  0
  -29.1800  -21.2870   18.9560 C   0  0  0  0  0  0  0  0  0  0  0  0
  -29.3620  -20.6780   17.5750 C   0  0  0  0  0  1  0  0  0  0  0  0
  -30.3020  -18.1720   19.1860 C   0  0  0  0  0  2  0  0  0  0  0  0
  -29.2080  -18.8040   20.0250 C   0  0  0  0  0  3  0  0  0  0  0  0
  -30.1280  -17.5490   20.5380 C   0  0  0  0  0  3  0  0  0  0  0  0
  -30.5460  -14.9210   20.3570 C   0  0  0  0  0  0  0  0  0  0  0  0
  -30.3730  -12.6280   19.3400 C   0  0  0  0  0  2  0  0  0  0  0  0
  -29.4180  -12.6680   18.1250 C   0  0  0  0  0  2  0  0  0  0  0  0
  -27.9580  -12.4640   18.5730 C   0  0  0  0  0  2  0  0  0  0  0  0
  -27.5810  -13.3480   19.7920 C   0  0  0  0  0  3  0  0  0  0  0  0
  -28.6560  -13.2930   20.8990 C   0  0  0  0  0  2  0  0  0  0  0  0
  -29.9320  -13.6820   20.2860 N   0  0  0  0  0  0  0  0  0  0  0  0
  -31.7400  -15.0130   20.0550 O   0  0  0  0  0  0  0  0  0  0  0  0
  -29.7620  -16.0670   20.5390 N   0  0  0  0  0  0  0  0  0  0  0  0
  -28.7910  -15.8710   20.7290 H   0  0  0  0  0  0  0  0  0  0  0  0
  -25.2030  -13.9070   20.5680 C   0  0  0  0  0  0  0  0  0  0  0  0
  -24.1470  -13.1210   20.9380 C   0  0  0  0  0  0  0  0  0  0  0  0
  -24.6180  -11.7730   20.8760 C   0  0  0  0  0  0  0  0  0  0  0  0
  -26.2480  -13.0380   20.2990 N   0  0  0  0  0  0  0  0  0  0  0  0
  -25.9040  -11.7480   20.5490 N   0  0  0  0  0  0  0  0  0  0  0  0
  -23.9000  -10.5030   21.0510 C   0  0  0  0  0  0  0  0  0  0  0  0
  -24.3240   -9.5370   21.9890 C   0  0  0  0  0  3  0  0  0  0  0  0
  -23.6060   -8.3340   22.1540 C   0  0  0  0  0  3  0  0  0  0  0  0
  -22.4470   -8.0880   21.3790 C   0  0  0  0  0  0  0  0  0  0  0  0
  -22.0400   -9.0430   20.4310 C   0  0  0  0  0  3  0  0  0  0  0  0
  -22.7600  -10.2380   20.2640 C   0  0  0  0  0  3  0  0  0  0  0  0
  -21.7000   -6.9360   21.4520 O   0  0  0  0  0  0  0  0  0  0  0  0
  -21.6060   -6.2130   22.6130 C   0  0  0  0  0  0  0  0  0  0  0  0
  -21.0500   -6.7600   23.7900 C   0  0  0  0  0  3  0  0  0  0  0  0
  -20.9080   -5.9590   24.9400 C   0  0  0  0  0  3  0  0  0  0  0  0
  -21.3120   -4.6100   24.9160 C   0  0  0  0  0  0  0  0  0  0  0  0
  -21.8600   -4.0620   23.7430 C   0  0  0  0  0  3  0  0  0  0  0  0
  -22.0040   -4.8600   22.5940 C   0  0  0  0  0  0  0  0  0  0  0  0
  -22.5130   -4.3210   21.4610 F   0  0  0  0  0  0  0  0  0  0  0  0
  -21.1690   -3.8390   26.0180 F   0  0  0  0  0  0  0  0  0  0  0  0
  -22.7510  -13.5850   21.2350 C   0  0  0  0  0  0  0  0  0  0  0  0
  -22.0350  -12.8670   22.0920 N   0  0  0  0  0  0  0  0  0  0  0  0
  -22.3050  -14.6210   20.7420 O   0  0  0  0  0  0  0  0  0  0  0  0
  -22.4100  -12.0290   22.5110 H   0  0  0  0  0  0  0  0  0  0  0  0
  -21.0990  -13.1610   22.3330 H   0  0  0  0  0  0  0  0  0  0  0  0
  -25.3560  -15.2820   20.4120 N   0  0  0  0  0  0  0  0  0  0  0  0
  -24.5790  -15.9230   20.5370 H   0  0  0  0  0  0  0  0  0  0  0  0
  -26.1830  -15.7320   20.0440 H   0  0  0  0  0  0  0  0  0  0  0  0
  -27.7460  -24.8380   20.0710 C   0  0  0  0  0  2  0  0  0  0  0  0
  -28.1770  -26.2930   20.2830 O   0  0  0  0  0  0  0  0  0  0  0  0
  -24.6030  -31.9670   23.2800 C   0  0  0  0  0  0  0  0  0  0  0  0
  -27.1360  -27.2830   20.2170 C   0  0  0  0  0  0  0  0  0  0  0  0
  -23.3830  -30.5770   21.6550 C   0  0  0  0  0  3  0  0  0  0  0  0
  -24.8110  -29.0150   20.2160 C   0  0  0  0  0  0  0  0  0  0  0  0
  -25.9370  -30.8420   21.4660 C   0  0  0  0  0  2  0  0  0  0  0  0
  -25.9990  -29.4570   20.8130 C   0  0  0  0  0  0  0  0  0  0  0  0
  -27.1640  -28.6060   20.8010 C   0  0  0  0  0  3  0  0  0  0  0  0
  -25.9160  -26.9460   19.5750 C   0  0  0  0  0  3  0  0  0  0  0  0
  -24.7800  -27.7710   19.5840 C   0  0  0  0  0  3  0  0  0  0  0  0
  -23.5860  -29.9090   20.2730 C   0  0  0  0  0  2  0  0  0  0  0  0
  -24.6610  -31.1480   22.1880 N   0  0  0  0  0  0  0  0  0  0  0  0
  -23.5230  -32.2570   23.8160 O   0  0  0  0  0  0  0  0  0  0  0  0
  -22.7140  -29.5660   22.6180 C   0  0  0  0  0  0  0  0  0  0  0  0
  -21.3880  -29.3760   22.4820 N   0  0  0  0  0  0  0  0  0  0  0  0
  -23.3870  -28.9550   23.4540 O   0  0  0  0  0  0  0  0  0  0  0  0
  -20.9020  -29.9200   21.7830 H   0  0  0  0  0  0  0  0  0  0  0  0
  -18.0160  -28.1510   22.9720 C   0  0  0  0  0  0  0  0  0  0  0  0
  -20.5700  -28.4410   23.2580 C   0  0  0  0  0  3  0  0  0  0  0  0
  -20.6900  -27.0020   22.7040 C   0  0  0  0  0  2  0  0  0  0  0  0
  -19.6000  -26.6550   21.6850 C   0  0  0  0  0  2  0  0  0  0  0  0
  -18.2110  -26.7950   22.3150 C   0  0  0  0  0  2  0  0  0  0  0  0
  -19.1230  -28.9310   23.4000 C   0  0  0  0  0  0  0  0  0  0  0  0
  -18.8860  -30.1970   23.9750 C   0  0  0  0  0  3  0  0  0  0  0  0
  -17.5750  -30.6870   24.1250 C   0  0  0  0  0  3  0  0  0  0  0  0
  -16.4820  -29.9050   23.7120 C   0  0  0  0  0  3  0  0  0  0  0  0
  -16.7040  -28.6380   23.1430 C   0  0  0  0  0  3  0  0  0  0  0  0
  -25.8910  -32.5970   23.8930 C   0  0  0  0  0  3  0  0  0  0  0  0
  -25.5900  -33.9990   24.2200 N   0  0  0  0  0  0  0  0  0  0  0  0
  -25.8960  -35.0470   23.4440 C   0  0  0  0  0  0  0  0  0  0  0  0
  -26.5330  -34.9350   22.3930 O   0  0  0  0  0  0  0  0  0  0  0  0
  -25.0240  -34.1600   25.0400 H   0  0  0  0  0  0  0  0  0  0  0  0
  -24.1570  -36.8390   23.1360 C   0  0  0  0  0  1  0  0  0  0  0  0
  -25.4250  -36.4390   23.9080 C   0  0  0  0  0  3  0  0  0  0  0  0
  -27.5790  -37.3380   24.6730 C   0  0  0  0  0  1  0  0  0  0  0  0
  -26.4540  -37.4910   23.7540 N   0  0  0  0  0  0  0  0  0  0  0  0
  -26.0500  -38.4130   23.8970 H   0  0  0  0  0  0  0  0  0  0  0  0
  -26.4070  -31.8290   25.1730 C   0  0  1  0  0  0  0  0  0  0  0  0
  -25.3130  -31.5960   26.2410 C   0  0  0  0  0  1  0  0  0  0  0  0
  -26.9910  -30.4500   24.7900 C   0  0  0  0  0  1  0  0  0  0  0  0
  -27.5580  -32.6260   25.8310 C   0  0  0  0  0  1  0  0  0  0  0  0
  1  2  1  0
  3  5  1  0
  4  1  2  0
  5  2  2  0
  6  3  2  0
  6  4  1  0
  7  6  1  0
  8  9  1  0
  8 10  1  0
  9  4  1  0
  9 10  1  0
 10 19  1  0
 11 19  1  0
 12 17  1  0
 13 14  1  0
 13 12  1  0
 15 14  1  0
 15 24  1  0
 15 16  1  0
 17 11  1  0
 17 16  1  0
 18 11  2  0
 19 20  1  0
 21 22  2  0
 22 41  1  0
 23 22  1  0
 23 26  1  0
 24 25  1  0
 24 21  1  0
 25 23  2  0
 26 27  1  0
 27 28  2  0
 29 32  1  0
 29 28  1  0
 30 29  2  0
 31 30  1  0
 31 26  2  0
 32 33  1  0
 33 34  1  0
 34 35  2  0
 36 35  1  0
 36 40  1  0
 37 36  2  0
 38 33  2  0
 38 37  1  0
 39 38  1  0
 41 42  1  0
 42 45  1  0
 42 44  1  0
 43 41  2  0
 46 47  1  0
 46 21  1  0
 48 46  1  0
 49  5  1  0
 49 50  1  0
 51 62  2  0
 52 50  1  0
 52 57  1  0
 53 61  1  0
 53 63  1  0
 54 60  1  0
 54 56  1  0
 55 61  1  0
 56 55  1  0
 57 56  2  0
 58 59  1  0
 58 52  2  0
 59 54  2  0
 60 53  1  0
 61 51  1  0
 63 65  2  0
 64 63  1  0
 66 64  1  0
 67 76  2  0
 67 72  1  0
 68 64  1  0
 68 72  1  0
 69 68  1  0
 70 71  1  0
 70 69  1  0
 71 67  1  0
 72 73  2  0
 73 74  1  0
 75 74  2  0
 76 75  1  0
 77 51  1  0
 77 78  1  0
 77 87  1  0
 78 81  1  0
 79 83  1  0
 79 78  1  0
 80 79  2  0
 83 82  1  0
 85 86  1  0
 85 83  1  0
 85 84  1  0
 87 90  1  1
 87 88  1  0
 89 87  1  0
M  ISO  4  11 100  19 100  49 101  50 101
M  END
>  <TORSDO>  (22) 
F 18

>  <SCORE>  (22) 
-14.751

>  <name>  (22) 
21

>  <ligand_id>  (22) 
21

>  <original_smiles>  (22) 
[H]c1c([H])c([H])c2c(c1[H])C([H])([H])C([H])([H])C([H])([H])C2([H])N([H])C(=O)C1([H])N(C(=O)C([H])(N([H])C(=O)C([H])(N([H])C([H])([H])[H])C([H])([H])[H])C(C([H])([H])[H])(C([H])([H])[H])C([H])([H])[H])C([H])([H])c2c([H])c(OC([H])([H])c3c([H])c([H])c(C4([H])C([H])([H])C4([H])N([H])C(=O)N4C([H])([H])C([H])([H])C([H])([H])C([H])(n5nc(-c6c([H])c([H])c(Oc7c([H])c([H])c(F)c([H])c7F)c([H])c6[H])c(C(=O)N([H])[H])c5N([H])[H])C4([H])[H])c(C([H])([H])[H])c3[H])c([H])c([H])c2C1([H])[H]

>  <smiles>  (22) 
[H]c1c([H])c([H])c2c(c1[H])C([H])([H])C([H])([H])C([H])([H])C2([H])N([H])C(=O)C1([H])N(C(=O)C([H])(N([H])C(=O)C([H])(N([H])C([H])([H])[H])C([H])([H])[H])C(C([H])([H])[H])(C([H])([H])[H])C([H])([H])[H])C([H])([H])c2c([H])c(OC([H])([H])c3c([H])c([H])c(C4([H])C([H])([H])C4([H])N([H])C(=O)N4C([H])([H])C([H])([H])C([H])([H])C([H])(n5nc(-c6c([H])c([H])c(Oc7c([H])c([H])c(F)c([H])c7F)c([H])c6[H])c(C(=O)N([H])[H])c5N([H])[H])C4([H])[H])c(C([H])([H])[H])c3[H])c([H])c([H])c2C1([H])[H]

$$$$
22:0:0
     RDKit          3D

 89 97  0  0  1  0  0  0  0  0999 V2000
  -23.4900  -26.3380   21.9400 C   0  0  0  0  0  2  0  0  0  0  0  0
  -22.9370  -25.4230   20.5420 C   0  0  0  0  0  3  0  0  0  0  0  0
  -25.9470  -27.1050   21.1980 C   0  0  2  0  0  0  0  0  0  0  0  0
  -25.5460  -25.4810   18.9730 C   0  0  0  0  0  2  0  0  0  0  0  0
  -25.0500  -27.0500   22.3400 C   0  0  0  0  0  3  0  0  0  0  0  0
  -23.8720  -25.0240   19.1230 C   0  0  0  0  0  0  0  0  0  0  0  0
  -23.2670  -24.1640   18.0400 C   0  0  0  0  0  1  0  0  0  0  0  0
  -27.2240  -20.6900   19.1790 C   0  0  0  0  0  2  0  0  0  0  0  0
  -28.2300  -19.1010   19.3940 C   0  0  0  0  0  1  0  0  0  0  0  0
  -27.6760  -22.1770   19.5230 C   0  0  0  0  0  2  0  0  0  0  0  0
  -26.5830  -23.0890   18.8280 C   0  0  0  0  0  1  0  0  0  0  0  0
  -28.9690  -17.0300   19.5180 C   0  0  0  0  0  2  0  0  0  0  0  0
  -29.7110  -14.1210   18.9850 C   0  0  0  0  0  2  0  0  0  0  0  0
  -29.0860  -12.9560   18.0780 C   0  0  0  0  0  2  0  0  0  0  0  0
  -27.9190  -12.2280   18.7400 C   0  0  0  0  0  2  0  0  0  0  0  0
  -27.1980  -13.2620   19.6000 C   0  0  0  0  0  3  0  0  0  0  0  0
  -28.0760  -14.2730   20.4540 C   0  0  0  0  0  2  0  0  0  0  0  0
  -28.7750  -15.3610   19.5610 N   0  0  0  0  0  0  0  0  0  0  0  0
  -30.2380  -16.7350   19.4810 O   0  0  0  0  0  1  0  0  0  0  0  0
  -24.9550  -13.5640   20.6580 C   0  0  0  0  0  0  0  0  0  0  0  0
  -23.9640  -12.7310   21.0730 C   0  0  0  0  0  0  0  0  0  0  0  0
  -24.4590  -11.4000   20.9010 C   0  0  0  0  0  0  0  0  0  0  0  0
  -25.9990  -12.7600   20.2650 N   0  0  0  0  0  0  0  0  0  0  0  0
  -25.7210  -11.4330   20.4540 N   0  0  0  0  0  0  0  0  0  0  0  0
  -23.7550  -10.1130   21.0720 C   0  0  0  0  0  0  0  0  0  0  0  0
  -24.2260   -9.1150   21.9530 C   0  0  0  0  0  3  0  0  0  0  0  0
  -23.5040   -7.9130   22.1330 C   0  0  0  0  0  3  0  0  0  0  0  0
  -22.2930   -7.6960   21.4310 C   0  0  0  0  0  0  0  0  0  0  0  0
  -21.8380   -8.6850   20.5420 C   0  0  0  0  0  3  0  0  0  0  0  0
  -22.5610   -9.8760   20.3610 C   0  0  0  0  0  3  0  0  0  0  0  0
  -21.5450   -6.5450   21.5170 O   0  0  0  0  0  0  0  0  0  0  0  0
  -21.4990   -5.8000   22.6700 C   0  0  0  0  0  0  0  0  0  0  0  0
  -20.9880   -6.3260   23.8760 C   0  0  0  0  0  3  0  0  0  0  0  0
  -20.8900   -5.5050   25.0180 C   0  0  0  0  0  3  0  0  0  0  0  0
  -21.2940   -4.1580   24.9520 C   0  0  0  0  0  0  0  0  0  0  0  0
  -21.7990   -3.6310   23.7500 C   0  0  0  0  0  3  0  0  0  0  0  0
  -21.8950   -4.4490   22.6110 C   0  0  0  0  0  0  0  0  0  0  0  0
  -22.3580   -3.9300   21.4490 F   0  0  0  0  0  0  0  0  0  0  0  0
  -21.1970   -3.3670   26.0470 F   0  0  0  0  0  0  0  0  0  0  0  0
  -22.5950  -13.1650   21.4990 C   0  0  0  0  0  0  0  0  0  0  0  0
  -21.9590  -12.4120   22.3860 N   0  0  0  0  0  0  0  0  0  0  0  0
  -22.1090  -14.2170   21.0850 O   0  0  0  0  0  0  0  0  0  0  0  0
  -22.3680  -11.5590   22.7390 H   0  0  0  0  0  0  0  0  0  0  0  0
  -21.0480  -12.6970   22.7170 H   0  0  0  0  0  0  0  0  0  0  0  0
  -25.0440  -14.9470   20.5350 N   0  0  0  0  0  0  0  0  0  0  0  0
  -24.2790  -15.5750   20.7690 H   0  0  0  0  0  0  0  0  0  0  0  0
  -25.8410  -15.4190   20.1300 H   0  0  0  0  0  0  0  0  0  0  0  0
  -26.8220  -26.6850   22.5120 C   0  0  0  0  0  3  0  0  0  0  0  0
  -28.1360  -27.2570   21.4270 O   0  0  0  0  0  0  0  0  0  0  0  0
  -24.5490  -31.8670   22.8990 C   0  0  0  0  0  0  0  0  0  0  0  0
  -27.9690  -27.1790   20.0260 C   0  0  0  0  0  3  0  0  0  0  0  0
  -23.3420  -30.3450   21.2460 C   0  0  0  0  0  3  0  0  0  0  0  0
  -24.7000  -28.2140   19.5980 C   0  0  0  0  0  2  0  0  0  0  0  0
  -25.7340  -30.7580   20.5680 C   0  0  0  0  0  2  0  0  0  0  0  0
  -25.8930  -29.3490   19.4870 C   0  0  0  0  0  3  0  0  0  0  0  0
  -27.4120  -28.6880   19.4420 C   0  0  0  0  0  2  0  0  0  0  0  0
  -27.1140  -25.7850   20.4650 C   0  0  0  0  0  3  0  0  0  0  0  0
  -25.3730  -25.8350   20.5060 C   0  0  0  0  0  3  0  0  0  0  0  0
  -23.4810  -29.3490   19.9210 C   0  0  0  0  0  2  0  0  0  0  0  0
  -24.6110  -31.0490   21.6840 N   0  0  0  0  0  0  0  0  0  0  0  0
  -23.4670  -32.1140   23.4860 O   0  0  0  0  0  0  0  0  0  0  0  0
  -22.5290  -29.6570   22.3830 C   0  0  0  0  0  0  0  0  0  0  0  0
  -21.2300  -29.3520   22.1890 N   0  0  0  0  0  0  0  0  0  0  0  0
  -23.1230  -29.2860   23.3930 O   0  0  0  0  0  0  0  0  0  0  0  0
  -20.7870  -29.6830   21.3430 H   0  0  0  0  0  0  0  0  0  0  0  0
  -17.9300  -28.0530   22.6570 C   0  0  0  0  0  0  0  0  0  0  0  0
  -20.4490  -28.4300   23.0390 C   0  0  0  0  0  3  0  0  0  0  0  0
  -20.4790  -26.9370   22.6200 C   0  0  0  0  0  2  0  0  0  0  0  0
  -19.6340  -26.6330   21.3870 C   0  0  0  0  0  2  0  0  0  0  0  0
  -18.1710  -26.8100   21.8030 C   0  0  0  0  0  2  0  0  0  0  0  0
  -18.9910  -28.8460   23.1790 C   0  0  0  0  0  0  0  0  0  0  0  0
  -18.6880  -30.0210   23.8940 C   0  0  0  0  0  3  0  0  0  0  0  0
  -17.3490  -30.3950   24.1120 C   0  0  0  0  0  3  0  0  0  0  0  0
  -16.3030  -29.5880   23.6360 C   0  0  0  0  0  3  0  0  0  0  0  0
  -16.5950  -28.4190   22.9170 C   0  0  0  0  0  3  0  0  0  0  0  0
  -25.7460  -32.5690   23.7070 C   0  0  0  0  0  3  0  0  0  0  0  0
  -25.4180  -33.9870   24.0760 N   0  0  0  0  0  0  0  0  0  0  0  0
  -25.8390  -35.0990   23.4470 C   0  0  0  0  0  0  0  0  0  0  0  0
  -26.5460  -35.0380   22.4410 O   0  0  0  0  0  0  0  0  0  0  0  0
  -24.7870  -34.1030   24.8550 H   0  0  0  0  0  0  0  0  0  0  0  0
  -24.1720  -36.9930   23.2210 C   0  0  0  0  0  1  0  0  0  0  0  0
  -25.4160  -36.4960   23.9800 C   0  0  0  0  0  3  0  0  0  0  0  0
  -27.5810  -37.3300   24.8100 C   0  0  0  0  0  1  0  0  0  0  0  0
  -26.4750  -37.5330   23.8790 N   0  0  0  0  0  0  0  0  0  0  0  0
  -26.0910  -38.4610   24.0450 H   0  0  0  0  0  0  0  0  0  0  0  0
  -26.1280  -31.8520   25.0820 C   0  0  1  0  0  0  0  0  0  0  0  0
  -24.9640  -31.7160   26.1010 C   0  0  0  0  0  1  0  0  0  0  0  0
  -26.6480  -30.4420   24.7680 C   0  0  0  0  0  1  0  0  0  0  0  0
  -27.2680  -32.6080   25.8250 C   0  0  0  0  0  1  0  0  0  0  0  0
  1  5  1  0
  2  1  1  0
  3  5  1  1
  3 48  1  0
  4  6  1  0
  4 58  1  0
  5 48  1  0
  6  2  2  0
  7  6  1  0
  8  9  1  0
  8 10  1  0
 11 10  1  0
 12 18  1  0
 13 18  1  0
 14 15  1  0
 14 13  1  0
 15 16  1  0
 16 23  1  0
 16 17  1  0
 18 17  1  0
 19 12  1  0
 20 21  2  0
 21 40  1  0
 22 25  1  0
 22 21  1  0
 23 24  1  0
 23 20  1  0
 24 22  2  0
 25 26  1  0
 26 27  2  0
 28 31  1  0
 28 27  1  0
 29 28  2  0
 30 29  1  0
 30 25  2  0
 31 32  1  0
 32 33  1  0
 33 34  2  0
 35 34  1  0
 35 39  1  0
 36 35  2  0
 37 32  2  0
 37 36  1  0
 38 37  1  0
 40 41  1  0
 41 44  1  0
 41 43  1  0
 42 40  2  0
 45 20  1  0
 45 46  1  0
 47 45  1  0
 49 48  1  0
 50 61  2  0
 50 76  1  0
 51 57  1  0
 51 49  1  0
 52 60  1  0
 52 62  1  0
 53 59  1  0
 54 60  1  0
 55 53  1  0
 55 54  1  0
 56 55  1  0
 56 51  1  0
 57 58  1  0
 57  3  1  0
 58  3  1  0
 59 52  1  0
 60 50  1  0
 62 64  2  0
 63 62  1  0
 63 67  1  0
 65 63  1  0
 66 75  2  0
 66 71  1  0
 67 71  1  0
 68 67  1  0
 69 70  1  0
 69 68  1  0
 70 66  1  0
 71 72  2  0
 72 73  1  0
 74 73  2  0
 75 74  1  0
 76 77  1  0
 76 86  1  0
 77 80  1  0
 78 82  1  0
 78 77  1  0
 79 78  2  0
 81 82  1  0
 84 82  1  0
 84 85  1  0
 84 83  1  0
 86 89  1  1
 86 87  1  0
 88 86  1  0
M  ISO  4   9 100  12 100  48 101  49 101
M  END
>  <TORSDO>  (23) 
F 18

>  <SCORE>  (23) 
-14.225

>  <name>  (23) 
22

>  <ligand_id>  (23) 
22

>  <original_smiles>  (23) 
[H]C(C(=O)N1C([H])([H])C([H])([H])C([H])([H])C([H])(n2nc(-c3c([H])c([H])c(Oc4c([H])c([H])c(F)c([H])c4F)c([H])c3[H])c(C(=O)N([H])[H])c2N([H])[H])C1([H])[H])=C1C([H])([H])C1([H])c1c([H])c(C([H])([H])Oc2c([H])c([H])c3c(c2[H])C([H])([H])N(C(=O)C([H])(N([H])C(=O)C([H])(N([H])C([H])([H])[H])C([H])([H])[H])C(C([H])([H])[H])(C([H])([H])[H])C([H])([H])[H])C([H])(C(=O)N([H])C2([H])c4c([H])c([H])c([H])c([H])c4C([H])([H])C([H])([H])C2([H])[H])C3([H])[H])c([H])c([H])c1C([H])([H])[H]

>  <smiles>  (23) 
[H]C(C(=O)N1C([H])([H])C([H])([H])C([H])([H])C([H])(n2nc(-c3c([H])c([H])c(Oc4c([H])c([H])c(F)c([H])c4F)c([H])c3[H])c(C(=O)N([H])[H])c2N([H])[H])C1([H])[H])=C1C([H])([H])C1([H])c1c([H])c(C([H])([H])Oc2c([H])c([H])c3c(c2[H])C([H])([H])N(C(=O)C([H])(N([H])C(=O)C([H])(N([H])C([H])([H])[H])C([H])([H])[H])C(C([H])([H])[H])(C([H])([H])[H])C([H])([H])[H])C([H])(C(=O)N([H])C2([H])c4c([H])c([H])c([H])c([H])c4C([H])([H])C([H])([H])C2([H])[H])C3([H])[H])c([H])c([H])c1C([H])([H])[H]

$$$$
23:0:0
     RDKit          3D

 88 97  0  0  1  0  0  0  0  0999 V2000
  -30.6770  -21.2900   18.7900 C   0  0  0  0  0  2  0  0  0  0  0  0
  -30.3410  -22.3950   19.7970 C   0  0  0  0  0  2  0  0  0  0  0  0
  -28.2440  -21.6440   18.6830 C   0  0  0  0  0  2  0  0  0  0  0  0
  -28.7860  -20.1340   20.1090 C   0  0  0  0  0  3  0  0  0  0  0  0
  -29.3320  -20.5690   18.7180 C   0  0  0  0  0  3  0  0  0  0  0  0
  -28.8680  -22.0940   20.0200 C   0  0  1  0  0  0  0  0  0  0  0  0
  -30.2450  -15.6450   20.2680 C   0  0  0  0  0  0  0  0  0  0  0  0
  -30.3410  -13.1090   19.4310 C   0  0  0  0  0  2  0  0  0  0  0  0
  -29.4580  -12.7020   18.2190 C   0  0  0  0  0  2  0  0  0  0  0  0
  -28.0300  -12.3530   18.6650 C   0  0  0  0  0  2  0  0  0  0  0  0
  -27.5120  -13.3560   19.7220 C   0  0  0  0  0  3  0  0  0  0  0  0
  -28.5360  -13.6700   20.8370 C   0  0  0  0  0  2  0  0  0  0  0  0
  -29.7090  -14.2890   20.1740 N   0  0  0  0  0  0  0  0  0  0  0  0
  -31.4850  -15.5600   20.1680 O   0  0  0  0  0  0  0  0  0  0  0  0
  -29.7470  -18.5380   20.3660 C   0  0  0  0  0  0  0  0  0  0  0  0
  -29.4900  -17.0090   20.2590 N   0  0  0  0  0  0  0  0  0  0  0  0
  -30.9000  -18.7870   20.7250 O   0  0  0  0  0  0  0  0  0  0  0  0
  -28.5040  -16.8470   20.1180 H   0  0  0  0  0  0  0  0  0  0  0  0
  -25.1400  -13.8790   20.4600 C   0  0  0  0  0  0  0  0  0  0  0  0
  -24.0820  -13.0940   20.8220 C   0  0  0  0  0  0  0  0  0  0  0  0
  -24.5650  -11.7480   20.8120 C   0  0  0  0  0  0  0  0  0  0  0  0
  -26.1940  -13.0140   20.2360 N   0  0  0  0  0  0  0  0  0  0  0  0
  -25.8620  -11.7250   20.5160 N   0  0  0  0  0  0  0  0  0  0  0  0
  -23.8450  -10.4820   21.0040 C   0  0  0  0  0  0  0  0  0  0  0  0
  -24.2720   -9.5240   21.9500 C   0  0  0  0  0  3  0  0  0  0  0  0
  -23.5480   -8.3260   22.1330 C   0  0  0  0  0  3  0  0  0  0  0  0
  -22.3830   -8.0760   21.3710 C   0  0  0  0  0  0  0  0  0  0  0  0
  -21.9760   -9.0220   20.4130 C   0  0  0  0  0  3  0  0  0  0  0  0
  -22.7000  -10.2110   20.2280 C   0  0  0  0  0  3  0  0  0  0  0  0
  -21.6320   -6.9300   21.4610 O   0  0  0  0  0  0  0  0  0  0  0  0
  -21.5780   -6.1940   22.6190 C   0  0  0  0  0  0  0  0  0  0  0  0
  -21.1400   -6.7550   23.8380 C   0  0  0  0  0  3  0  0  0  0  0  0
  -21.0340   -5.9470   24.9870 C   0  0  0  0  0  3  0  0  0  0  0  0
  -21.3550   -4.5780   24.9180 C   0  0  0  0  0  0  0  0  0  0  0  0
  -21.7870   -4.0170   23.7030 C   0  0  0  0  0  3  0  0  0  0  0  0
  -21.8940   -4.8220   22.5560 C   0  0  0  0  0  0  0  0  0  0  0  0
  -22.2890   -4.2710   21.3840 F   0  0  0  0  0  0  0  0  0  0  0  0
  -21.2470   -3.7990   26.0200 F   0  0  0  0  0  0  0  0  0  0  0  0
  -22.6780  -13.5610   21.0600 C   0  0  0  0  0  0  0  0  0  0  0  0
  -21.9430  -12.8750   21.9280 N   0  0  0  0  0  0  0  0  0  0  0  0
  -22.2400  -14.5720   20.5130 O   0  0  0  0  0  0  0  0  0  0  0  0
  -22.3100  -12.0580   22.3930 H   0  0  0  0  0  0  0  0  0  0  0  0
  -20.9990  -13.1710   22.1310 H   0  0  0  0  0  0  0  0  0  0  0  0
  -25.2870  -15.2490   20.2670 N   0  0  0  0  0  0  0  0  0  0  0  0
  -24.5090  -15.8930   20.3580 H   0  0  0  0  0  0  0  0  0  0  0  0
  -26.1270  -15.6890   19.9160 H   0  0  0  0  0  0  0  0  0  0  0  0
  -28.0110  -23.7950   20.4410 C   0  0  0  0  0  2  0  0  0  0  0  0
  -28.1600  -25.5400   20.2390 O   0  0  0  0  0  0  0  0  0  0  0  0
  -24.6200  -31.8300   23.1570 C   0  0  0  0  0  0  0  0  0  0  0  0
  -27.1660  -26.7340   20.2280 C   0  0  0  0  0  0  0  0  0  0  0  0
  -23.4360  -30.4110   21.5360 C   0  0  0  0  0  3  0  0  0  0  0  0
  -24.8890  -28.7520   20.1470 C   0  0  0  0  0  0  0  0  0  0  0  0
  -26.0150  -30.5640   21.4110 C   0  0  0  0  0  2  0  0  0  0  0  0
  -26.0850  -29.1230   20.7720 C   0  0  0  0  0  0  0  0  0  0  0  0
  -27.2100  -28.1450   20.7750 C   0  0  0  0  0  3  0  0  0  0  0  0
  -25.9320  -26.5670   19.5500 C   0  0  0  0  0  3  0  0  0  0  0  0
  -24.8500  -27.4980   19.5120 C   0  0  0  0  0  3  0  0  0  0  0  0
  -23.6790  -29.6990   20.1750 C   0  0  0  0  0  2  0  0  0  0  0  0
  -24.7150  -30.9680   22.0870 N   0  0  0  0  0  0  0  0  0  0  0  0
  -23.5260  -32.1310   23.6650 O   0  0  0  0  0  0  0  0  0  0  0  0
  -22.7240  -29.4410   22.5180 C   0  0  0  0  0  0  0  0  0  0  0  0
  -21.3900  -29.2900   22.4010 N   0  0  0  0  0  0  0  0  0  0  0  0
  -23.3830  -28.8220   23.3560 O   0  0  0  0  0  0  0  0  0  0  0  0
  -20.9090  -29.8390   21.7030 H   0  0  0  0  0  0  0  0  0  0  0  0
  -18.0030  -28.0900   22.9410 C   0  0  0  0  0  0  0  0  0  0  0  0
  -20.5650  -28.3610   23.1840 C   0  0  0  0  0  3  0  0  0  0  0  0
  -20.6610  -26.9230   22.6210 C   0  0  0  0  0  2  0  0  0  0  0  0
  -19.5540  -26.5930   21.6160 C   0  0  0  0  0  2  0  0  0  0  0  0
  -18.1760  -26.7400   22.2670 C   0  0  0  0  0  2  0  0  0  0  0  0
  -19.1230  -28.8590   23.3560 C   0  0  0  0  0  0  0  0  0  0  0  0
  -18.9030  -30.1200   23.9520 C   0  0  0  0  0  3  0  0  0  0  0  0
  -17.5980  -30.6140   24.1320 C   0  0  0  0  0  3  0  0  0  0  0  0
  -16.4930  -29.8450   23.7280 C   0  0  0  0  0  3  0  0  0  0  0  0
  -16.6960  -28.5850   23.1390 C   0  0  0  0  0  3  0  0  0  0  0  0
  -25.8800  -32.4910   23.7920 C   0  0  0  0  0  3  0  0  0  0  0  0
  -25.5440  -33.8860   24.1380 N   0  0  0  0  0  0  0  0  0  0  0  0
  -25.8550  -34.9620   23.4010 C   0  0  0  0  0  0  0  0  0  0  0  0
  -26.5130  -34.8840   22.3610 O   0  0  0  0  0  0  0  0  0  0  0  0
  -24.9550  -34.0180   24.9460 H   0  0  0  0  0  0  0  0  0  0  0  0
  -24.0990  -36.7480   23.1180 C   0  0  0  0  0  1  0  0  0  0  0  0
  -25.3630  -36.3400   23.8920 C   0  0  0  0  0  3  0  0  0  0  0  0
  -27.5050  -37.2460   24.6880 C   0  0  0  0  0  1  0  0  0  0  0  0
  -26.3800  -37.4090   23.7710 N   0  0  0  0  0  0  0  0  0  0  0  0
  -25.9650  -38.3220   23.9400 H   0  0  0  0  0  0  0  0  0  0  0  0
  -26.3950  -31.7320   25.0780 C   0  0  1  0  0  0  0  0  0  0  0  0
  -25.2990  -31.4970   26.1460 C   0  0  0  0  0  1  0  0  0  0  0  0
  -26.9870  -30.3530   24.7100 C   0  0  0  0  0  1  0  0  0  0  0  0
  -27.5390  -32.5360   25.7380 C   0  0  0  0  0  1  0  0  0  0  0  0
  1  2  1  0
  2  6  1  0
  3  6  1  0
  4 15  1  0
  5  3  1  0
  5  1  1  0
  5  4  1  0
  6  4  1  0
  6 47  1  1
  8 13  1  0
  9 10  1  0
  9  8  1  0
 11 10  1  0
 11 22  1  0
 11 12  1  0
 13  7  1  0
 13 12  1  0
 14  7  2  0
 15 17  2  0
 16  7  1  0
 16 15  1  0
 18 16  1  0
 19 20  2  0
 20 39  1  0
 21 20  1  0
 21 24  1  0
 22 19  1  0
 22 23  1  0
 23 21  2  0
 24 25  1  0
 25 26  2  0
 27 30  1  0
 27 26  1  0
 28 27  2  0
 29 28  1  0
 29 24  2  0
 30 31  1  0
 31 32  1  0
 32 33  2  0
 34 33  1  0
 34 38  1  0
 35 34  2  0
 36 31  2  0
 36 35  1  0
 37 36  1  0
 39 40  1  0
 40 43  1  0
 40 42  1  0
 41 39  2  0
 44 45  1  0
 44 19  1  0
 46 44  1  0
 48 47  1  0
 49 60  2  0
 50 48  1  0
 50 55  1  0
 51 59  1  0
 51 61  1  0
 52 58  1  0
 52 54  1  0
 53 59  1  0
 54 55  2  0
 54 53  1  0
 56 50  2  0
 57 56  1  0
 57 52  2  0
 58 51  1  0
 59 49  1  0
 61 63  2  0
 62 61  1  0
 64 62  1  0
 65 74  2  0
 65 70  1  0
 66 62  1  0
 66 70  1  0
 67 66  1  0
 68 69  1  0
 68 67  1  0
 69 65  1  0
 70 71  2  0
 71 72  1  0
 73 72  2  0
 74 73  1  0
 75 49  1  0
 75 76  1  0
 75 85  1  0
 76 79  1  0
 77 81  1  0
 77 76  1  0
 78 77  2  0
 81 80  1  0
 83 81  1  0
 83 84  1  0
 83 82  1  0
 85 88  1  1
 85 86  1  0
 87 85  1  0
M  ISO  4   7 100  16 100  47 101  48 101
M  END
>  <TORSDO>  (24) 
F 17

>  <SCORE>  (24) 
-16.520

>  <name>  (24) 
23

>  <ligand_id>  (24) 
23

>  <original_smiles>  (24) 
[H]c1c([H])c([H])c2c(c1[H])C([H])([H])C([H])([H])C([H])([H])C2([H])N([H])C(=O)C1([H])N(C(=O)C([H])(N([H])C(=O)C([H])(N([H])C([H])([H])[H])C([H])([H])[H])C(C([H])([H])[H])(C([H])([H])[H])C([H])([H])[H])C([H])([H])c2c([H])c(OC([H])([H])C34C([H])([H])C([H])([H])C([H])(C3([H])[H])C4([H])C(=O)N([H])C(=O)N3C([H])([H])C([H])([H])C([H])([H])C([H])(n4nc(-c5c([H])c([H])c(Oc6c([H])c([H])c(F)c([H])c6F)c([H])c5[H])c(C(=O)N([H])[H])c4N([H])[H])C3([H])[H])c([H])c([H])c2C1([H])[H]

>  <smiles>  (24) 
[H]c1c([H])c([H])c2c(c1[H])C([H])([H])C([H])([H])C([H])([H])C2([H])N([H])C(=O)C1([H])N(C(=O)C([H])(N([H])C(=O)C([H])(N([H])C([H])([H])[H])C([H])([H])[H])C(C([H])([H])[H])(C([H])([H])[H])C([H])([H])[H])C([H])([H])c2c([H])c(OC([H])([H])C34C([H])([H])C([H])([H])C([H])(C3([H])[H])C4([H])C(=O)N([H])C(=O)N3C([H])([H])C([H])([H])C([H])([H])C([H])(n4nc(-c5c([H])c([H])c(Oc6c([H])c([H])c(F)c([H])c6F)c([H])c5[H])c(C(=O)N([H])[H])c4N([H])[H])C3([H])[H])c([H])c([H])c2C1([H])[H]

$$$$
24:0:0
     RDKit          3D

 92 99  0  0  1  0  0  0  0  0999 V2000
  -29.1740  -21.0040   19.7240 N   0  0  0  0  0  4  0  0  0  0  0  0
  -29.0530  -20.8880   18.7330 H   0  0  0  0  0  0  0  0  0  0  0  0
  -28.3160  -20.6940   20.1460 H   0  0  0  0  0  0  0  0  0  0  0  0
  -29.3300  -22.5100   19.9750 C   0  0  0  0  0  2  0  0  0  0  0  0
  -28.0580  -23.4950   19.7550 C   0  0  0  0  0  2  0  0  0  0  0  0
  -28.1780  -24.9170   19.0020 C   0  0  0  0  0  2  0  0  0  0  0  0
  -28.0860  -26.2510   19.6700 O   0  0  0  0  0  0  0  0  0  0  0  0
  -24.4520  -31.5750   22.9130 C   0  0  0  0  0  0  0  0  0  0  0  0
  -26.9490  -27.0840   19.6420 C   0  0  0  0  0  0  0  0  0  0  0  0
  -23.1940  -30.2370   21.2620 C   0  0  0  0  0  3  0  0  0  0  0  0
  -24.5970  -28.7220   19.7470 C   0  0  0  0  0  0  0  0  0  0  0  0
  -25.7330  -30.5420   21.0220 C   0  0  0  0  0  2  0  0  0  0  0  0
  -25.7860  -29.1850   20.3250 C   0  0  0  0  0  0  0  0  0  0  0  0
  -26.9590  -28.3770   20.2650 C   0  0  0  0  0  3  0  0  0  0  0  0
  -25.7350  -26.6710   19.0520 C   0  0  0  0  0  3  0  0  0  0  0  0
  -24.5730  -27.4710   19.1070 C   0  0  0  0  0  3  0  0  0  0  0  0
  -23.3680  -29.6040   19.8540 C   0  0  0  0  0  2  0  0  0  0  0  0
  -24.4810  -30.7980   21.7890 N   0  0  0  0  0  0  0  0  0  0  0  0
  -23.3840  -31.8430   23.4840 O   0  0  0  0  0  0  0  0  0  0  0  0
  -22.5490  -29.1970   22.2090 C   0  0  0  0  0  0  0  0  0  0  0  0
  -21.2170  -29.0480   22.1270 N   0  0  0  0  0  0  0  0  0  0  0  0
  -23.2440  -28.5320   22.9790 O   0  0  0  0  0  0  0  0  0  0  0  0
  -20.7050  -29.6680   21.5140 H   0  0  0  0  0  0  0  0  0  0  0  0
  -17.8410  -27.8670   22.6620 C   0  0  0  0  0  0  0  0  0  0  0  0
  -20.4110  -28.0810   22.8720 C   0  0  0  0  0  3  0  0  0  0  0  0
  -20.4810  -26.6790   22.2240 C   0  0  0  0  0  2  0  0  0  0  0  0
  -19.3430  -26.4140   21.2300 C   0  0  0  0  0  2  0  0  0  0  0  0
  -17.9850  -26.5430   21.9290 C   0  0  0  0  0  2  0  0  0  0  0  0
  -18.9840  -28.5950   23.0920 C   0  0  0  0  0  0  0  0  0  0  0  0
  -18.8010  -29.8340   23.7390 C   0  0  0  0  0  3  0  0  0  0  0  0
  -17.5050  -30.3460   23.9540 C   0  0  0  0  0  3  0  0  0  0  0  0
  -16.3770  -29.6160   23.5410 C   0  0  0  0  0  3  0  0  0  0  0  0
  -16.5470  -28.3740   22.9010 C   0  0  0  0  0  3  0  0  0  0  0  0
  -25.7550  -32.1780   23.5230 C   0  0  0  0  0  3  0  0  0  0  0  0
  -26.3710  -31.2900   24.6750 C   0  0  1  0  0  0  0  0  0  0  0  0
  -25.3520  -30.8860   25.7650 C   0  0  0  0  0  1  0  0  0  0  0  0
  -26.9800  -29.9910   24.0960 C   0  0  0  0  0  1  0  0  0  0  0  0
  -27.5290  -32.0520   25.3630 C   0  0  0  0  0  1  0  0  0  0  0  0
  -25.4300  -33.5210   24.0310 N   0  0  0  0  0  0  0  0  0  0  0  0
  -25.7080  -34.6660   23.3950 C   0  0  0  0  0  0  0  0  0  0  0  0
  -26.3300  -34.7030   22.3290 O   0  0  0  0  0  0  0  0  0  0  0  0
  -24.8710  -33.5610   24.8690 H   0  0  0  0  0  0  0  0  0  0  0  0
  -23.9430  -36.4570   23.3160 C   0  0  0  0  0  1  0  0  0  0  0  0
  -25.2140  -35.9770   24.0360 C   0  0  0  0  0  3  0  0  0  0  0  0
  -27.3550  -36.7970   24.9140 C   0  0  0  0  0  1  0  0  0  0  0  0
  -26.2240  -37.0540   24.0260 N   0  0  0  0  0  0  0  0  0  0  0  0
  -25.8090  -37.9400   24.2950 H   0  0  0  0  0  0  0  0  0  0  0  0
  -30.2830  -20.0470   20.1890 C   0  0  0  0  0  2  0  0  0  0  0  0
  -30.3550  -18.5320   19.5920 C   0  0  0  0  0  2  0  0  0  0  0  0
  -31.1010  -17.3060   20.3740 C   0  0  1  0  0  0  0  0  0  0  0  0
  -31.7290  -14.7900   19.5130 C   0  0  0  0  0  0  0  0  0  0  0  0
  -31.3440  -12.5030   18.5760 C   0  0  0  0  0  2  0  0  0  0  0  0
  -30.3150  -12.5940   17.4280 C   0  0  0  0  0  2  0  0  0  0  0  0
  -28.8700  -12.5490   17.9700 C   0  0  0  0  0  2  0  0  0  0  0  0
  -28.6510  -13.5100   19.1680 C   0  0  0  0  0  3  0  0  0  0  0  0
  -29.7780  -13.3470   20.2100 C   0  0  0  0  0  2  0  0  0  0  0  0
  -31.0470  -13.5990   19.5170 N   0  0  0  0  0  0  0  0  0  0  0  0
  -32.9020  -14.8530   19.1370 O   0  0  0  0  0  0  0  0  0  0  0  0
  -30.9490  -15.9080   19.7660 N   0  0  0  0  0  0  0  0  0  0  0  0
  -29.9910  -15.6090   19.8360 H   0  0  0  0  0  0  0  0  0  0  0  0
  -26.4060  -14.3380   20.1030 C   0  0  0  0  0  0  0  0  0  0  0  0
  -25.2990  -13.6700   20.5480 C   0  0  0  0  0  0  0  0  0  0  0  0
  -25.6110  -12.2800   20.4560 C   0  0  0  0  0  0  0  0  0  0  0  0
  -27.3280  -13.3580   19.7630 N   0  0  0  0  0  0  0  0  0  0  0  0
  -26.8610  -12.1140   20.0370 N   0  0  0  0  0  0  0  0  0  0  0  0
  -24.7710  -11.0970   20.6810 C   0  0  0  0  0  0  0  0  0  0  0  0
  -25.0830  -10.1540   21.6850 C   0  0  0  0  0  3  0  0  0  0  0  0
  -24.2510   -9.0330   21.8950 C   0  0  0  0  0  3  0  0  0  0  0  0
  -23.0930   -8.8490   21.1030 C   0  0  0  0  0  0  0  0  0  0  0  0
  -22.8010   -9.7810   20.0900 C   0  0  0  0  0  3  0  0  0  0  0  0
  -23.6320  -10.8930   19.8780 C   0  0  0  0  0  3  0  0  0  0  0  0
  -22.2420   -7.7770   21.2190 O   0  0  0  0  0  0  0  0  0  0  0  0
  -21.9900   -7.1850   22.4300 C   0  0  0  0  0  0  0  0  0  0  0  0
  -21.4550   -7.9080   23.5180 C   0  0  0  0  0  3  0  0  0  0  0  0
  -21.1510   -7.2450   24.7240 C   0  0  0  0  0  3  0  0  0  0  0  0
  -21.3690   -5.8600   24.8400 C   0  0  0  0  0  0  0  0  0  0  0  0
  -21.8950   -5.1360   23.7560 C   0  0  0  0  0  3  0  0  0  0  0  0
  -22.2030   -5.7970   22.5540 C   0  0  0  0  0  0  0  0  0  0  0  0
  -22.6900   -5.0900   21.5050 F   0  0  0  0  0  0  0  0  0  0  0  0
  -21.0690   -5.2200   25.9950 F   0  0  0  0  0  0  0  0  0  0  0  0
  -23.9880  -14.2860   20.9420 C   0  0  0  0  0  0  0  0  0  0  0  0
  -23.2870  -13.6800   21.8940 N   0  0  0  0  0  0  0  0  0  0  0  0
  -23.5970  -15.3370   20.4340 O   0  0  0  0  0  0  0  0  0  0  0  0
  -23.6210  -12.8290   22.3210 H   0  0  0  0  0  0  0  0  0  0  0  0
  -22.4090  -14.0740   22.1980 H   0  0  0  0  0  0  0  0  0  0  0  0
  -26.6940  -15.6880   19.9300 N   0  0  0  0  0  0  0  0  0  0  0  0
  -25.9910  -16.3960   20.1070 H   0  0  0  0  0  0  0  0  0  0  0  0
  -27.4970  -16.0460   19.4330 H   0  0  0  0  0  0  0  0  0  0  0  0
  -33.0500  -18.5260   21.7150 C   0  0  0  0  0  1  0  0  0  0  0  0
  -32.6260  -17.5850   20.5770 C   0  0  0  0  0  2  0  0  0  0  0  0
  -29.7750  -18.1730   22.5660 C   0  0  0  0  0  1  0  0  0  0  0  0
  -30.3450  -17.0240   21.7210 C   0  0  0  0  0  2  0  0  0  0  0  0
  1  4  1  0
  1  3  1  0
  1 48  1  0
  2  1  1  0
  5  4  1  0
  6  7  1  0
  6  5  1  0
  8 19  2  0
  9  7  1  0
  9 14  1  0
 10 18  1  0
 10 20  1  0
 11 17  1  0
 11 13  1  0
 12 18  1  0
 13 12  1  0
 14 13  2  0
 15 16  1  0
 15  9  2  0
 16 11  2  0
 17 10  1  0
 18  8  1  0
 20 22  2  0
 21 20  1  0
 23 21  1  0
 24 33  2  0
 24 29  1  0
 25 21  1  0
 25 29  1  0
 26 25  1  0
 27 28  1  0
 27 26  1  0
 28 24  1  0
 29 30  2  0
 30 31  1  0
 32 31  2  0
 33 32  1  0
 34  8  1  0
 34 39  1  0
 34 35  1  0
 35 38  1  1
 35 36  1  0
 37 35  1  0
 39 42  1  0
 40 39  1  0
 40 44  1  0
 41 40  2  0
 44 43  1  0
 46 44  1  0
 46 47  1  0
 46 45  1  0
 49 48  1  0
 50 49  1  6
 50 90  1  0
 50 92  1  0
 51 57  1  0
 51 59  1  0
 52 57  1  0
 53 54  1  0
 53 52  1  0
 55 54  1  0
 55 64  1  0
 55 56  1  0
 57 56  1  0
 58 51  2  0
 59 60  1  0
 59 50  1  0
 61 62  2  0
 62 81  1  0
 63 62  1  0
 63 66  1  0
 64 65  1  0
 64 61  1  0
 65 63  2  0
 66 67  1  0
 67 68  2  0
 69 72  1  0
 69 68  1  0
 70 69  2  0
 71 70  1  0
 71 66  2  0
 72 73  1  0
 73 78  2  0
 73 74  1  0
 74 75  2  0
 75 76  1  0
 76 80  1  0
 77 76  2  0
 78 77  1  0
 79 78  1  0
 81 82  1  0
 82 85  1  0
 82 84  1  0
 83 81  2  0
 86 61  1  0
 86 87  1  0
 88 86  1  0
 90 89  1  0
 92 91  1  0
M  ISO  4   6 101   7 101  51 100  59 100
M  END
>  <TORSDO>  (25) 
F 24

>  <SCORE>  (25) 
-8.810

>  <name>  (25) 
24

>  <ligand_id>  (25) 
24

>  <original_smiles>  (25) 
[H]c1c([H])c([H])c2c(c1[H])C([H])([H])C([H])([H])C([H])([H])C2([H])N([H])C(=O)C1([H])N(C(=O)C([H])(N([H])C(=O)C([H])(N([H])C([H])([H])[H])C([H])([H])[H])C(C([H])([H])[H])(C([H])([H])[H])C([H])([H])[H])C([H])([H])c2c([H])c(OC([H])([H])C([H])([H])C([H])([H])[N+]([H])([H])C([H])([H])C([H])([H])C(N([H])C(=O)N3C([H])([H])C([H])([H])C([H])([H])C([H])(n4nc(-c5c([H])c([H])c(Oc6c([H])c([H])c(F)c([H])c6F)c([H])c5[H])c(C(=O)N([H])[H])c4N([H])[H])C3([H])[H])(C([H])([H])C([H])([H])[H])C([H])([H])C([H])([H])[H])c([H])c([H])c2C1([H])[H]

>  <smiles>  (25) 
[H]c1c([H])c([H])c2c(c1[H])C([H])([H])C([H])([H])C([H])([H])C2([H])N([H])C(=O)C1([H])N(C(=O)C([H])(N([H])C(=O)C([H])(N([H])C([H])([H])[H])C([H])([H])[H])C(C([H])([H])[H])(C([H])([H])[H])C([H])([H])[H])C([H])([H])c2c([H])c(OC([H])([H])C([H])([H])C([H])([H])[N+]([H])([H])C([H])([H])C([H])([H])C(N([H])C(=O)N3C([H])([H])C([H])([H])C([H])([H])C([H])(n4nc(-c5c([H])c([H])c(Oc6c([H])c([H])c(F)c([H])c6F)c([H])c5[H])c(C(=O)N([H])[H])c4N([H])[H])C3([H])[H])(C([H])([H])C([H])([H])[H])C([H])([H])C([H])([H])[H])c([H])c([H])c2C1([H])[H]

$$$$
25:0:0
     RDKit          3D

 91101  0  0  1  0  0  0  0  0999 V2000
  -31.3410  -20.9100   20.3670 C   0  0  0  0  0  2  0  0  0  0  0  0
  -30.1900  -19.0890   21.6960 C   0  0  0  0  0  2  0  0  0  0  0  0
  -29.3180  -19.7330   19.4410 C   0  0  0  0  0  2  0  0  0  0  0  0
  -29.4990  -21.6840   21.7290 C   0  0  0  0  0  2  0  0  0  0  0  0
  -30.2610  -23.6230   20.1520 C   0  0  0  0  0  2  0  0  0  0  0  0
  -30.6500  -20.6030   21.7020 C   0  0  0  0  0  3  0  0  0  0  0  0
  -30.0850  -21.1530   19.5170 C   0  0  0  0  0  3  0  0  0  0  0  0
  -29.9790  -18.5170   20.2580 C   0  0  0  0  0  3  0  0  0  0  0  0
  -28.8110  -23.7760   19.8740 C   0  0  0  0  0  3  0  0  0  0  0  0
  -29.4490  -22.3440   20.3320 C   0  0  1  0  0  0  0  0  0  0  0  0
  -29.3130  -17.0600   20.0940 C   0  0  0  0  0  2  0  0  0  0  0  0
  -30.5540  -14.7360   20.3530 C   0  0  0  0  0  0  0  0  0  0  0  0
  -30.3840  -12.4690   19.3320 C   0  0  0  0  0  2  0  0  0  0  0  0
  -29.4300  -12.5620   18.1200 C   0  0  0  0  0  2  0  0  0  0  0  0
  -27.9640  -12.3870   18.5600 C   0  0  0  0  0  2  0  0  0  0  0  0
  -27.6080  -13.2680   19.7840 C   0  0  0  0  0  3  0  0  0  0  0  0
  -28.6680  -13.1330   20.9000 C   0  0  0  0  0  2  0  0  0  0  0  0
  -29.9730  -13.4890   20.3240 N   0  0  0  0  0  0  0  0  0  0  0  0
  -31.6730  -14.9180   19.8670 O   0  0  0  0  0  0  0  0  0  0  0  0
  -29.7760  -15.7870   20.7940 N   0  0  0  0  0  0  0  0  0  0  0  0
  -29.0630  -15.4460   21.4210 H   0  0  0  0  0  0  0  0  0  0  0  0
  -25.2160  -13.8800   20.5000 C   0  0  0  0  0  0  0  0  0  0  0  0
  -24.1460  -13.1100   20.8730 C   0  0  0  0  0  0  0  0  0  0  0  0
  -24.6050  -11.7580   20.8480 C   0  0  0  0  0  0  0  0  0  0  0  0
  -26.2580  -12.9920   20.2710 N   0  0  0  0  0  0  0  0  0  0  0  0
  -25.8950  -11.7120   20.5410 N   0  0  0  0  0  0  0  0  0  0  0  0
  -23.8710  -10.4990   21.0450 C   0  0  0  0  0  0  0  0  0  0  0  0
  -24.3150   -9.5260   21.9690 C   0  0  0  0  0  3  0  0  0  0  0  0
  -23.5870   -8.3300   22.1570 C   0  0  0  0  0  3  0  0  0  0  0  0
  -22.4020   -8.1010   21.4170 C   0  0  0  0  0  0  0  0  0  0  0  0
  -21.9760   -9.0610   20.4840 C   0  0  0  0  0  3  0  0  0  0  0  0
  -22.7030  -10.2480   20.2960 C   0  0  0  0  0  3  0  0  0  0  0  0
  -21.6440   -6.9580   21.5080 O   0  0  0  0  0  0  0  0  0  0  0  0
  -21.6210   -6.2040   22.6540 C   0  0  0  0  0  0  0  0  0  0  0  0
  -21.2490   -6.7530   23.9000 C   0  0  0  0  0  3  0  0  0  0  0  0
  -21.1710   -5.9250   25.0370 C   0  0  0  0  0  3  0  0  0  0  0  0
  -21.4560   -4.5510   24.9310 C   0  0  0  0  0  0  0  0  0  0  0  0
  -21.8260   -4.0020   23.6900 C   0  0  0  0  0  3  0  0  0  0  0  0
  -21.9070   -4.8270   22.5550 C   0  0  0  0  0  0  0  0  0  0  0  0
  -22.2370   -4.2910   21.3550 F   0  0  0  0  0  0  0  0  0  0  0  0
  -21.3760   -3.7550   26.0220 F   0  0  0  0  0  0  0  0  0  0  0  0
  -22.7500  -13.5940   21.1380 C   0  0  0  0  0  0  0  0  0  0  0  0
  -22.0210  -12.9080   22.0110 N   0  0  0  0  0  0  0  0  0  0  0  0
  -22.3120  -14.6130   20.6070 O   0  0  0  0  0  0  0  0  0  0  0  0
  -22.3880  -12.0840   22.4620 H   0  0  0  0  0  0  0  0  0  0  0  0
  -21.0830  -13.2150   22.2300 H   0  0  0  0  0  0  0  0  0  0  0  0
  -25.3840  -15.2510   20.3160 N   0  0  0  0  0  0  0  0  0  0  0  0
  -24.6270  -15.9180   20.4390 H   0  0  0  0  0  0  0  0  0  0  0  0
  -26.2380  -15.6800   19.9830 H   0  0  0  0  0  0  0  0  0  0  0  0
  -28.1240  -24.9880   20.6540 C   0  0  0  0  0  2  0  0  0  0  0  0
  -28.3400  -26.4180   20.2380 O   0  0  0  0  0  0  0  0  0  0  0  0
  -24.6320  -31.8950   23.2370 C   0  0  0  0  0  0  0  0  0  0  0  0
  -27.2380  -27.2960   20.2120 C   0  0  0  0  0  0  0  0  0  0  0  0
  -23.4300  -30.4850   21.6060 C   0  0  0  0  0  3  0  0  0  0  0  0
  -24.8800  -28.9270   20.1840 C   0  0  0  0  0  0  0  0  0  0  0  0
  -25.9700  -30.8010   21.4170 C   0  0  0  0  0  2  0  0  0  0  0  0
  -26.0510  -29.4160   20.7780 C   0  0  0  0  0  0  0  0  0  0  0  0
  -27.2360  -28.6140   20.7770 C   0  0  0  0  0  3  0  0  0  0  0  0
  -26.0490  -26.8730   19.5840 C   0  0  0  0  0  3  0  0  0  0  0  0
  -24.8820  -27.6620   19.5750 C   0  0  0  0  0  3  0  0  0  0  0  0
  -23.6430  -29.8040   20.2280 C   0  0  0  0  0  2  0  0  0  0  0  0
  -24.6970  -31.0770   22.1430 N   0  0  0  0  0  0  0  0  0  0  0  0
  -23.5490  -32.1730   23.7710 O   0  0  0  0  0  0  0  0  0  0  0  0
  -22.7710  -29.4730   22.5720 C   0  0  0  0  0  0  0  0  0  0  0  0
  -21.4440  -29.2930   22.4520 N   0  0  0  0  0  0  0  0  0  0  0  0
  -23.4520  -28.8530   23.3930 O   0  0  0  0  0  0  0  0  0  0  0  0
  -20.9520  -29.8460   21.7650 H   0  0  0  0  0  0  0  0  0  0  0  0
  -18.0720  -28.0830   22.9590 C   0  0  0  0  0  0  0  0  0  0  0  0
  -20.6300  -28.3570   23.2280 C   0  0  0  0  0  3  0  0  0  0  0  0
  -20.7370  -26.9200   22.6640 C   0  0  0  0  0  2  0  0  0  0  0  0
  -19.6370  -26.5850   21.6510 C   0  0  0  0  0  2  0  0  0  0  0  0
  -18.2550  -26.7300   22.2940 C   0  0  0  0  0  2  0  0  0  0  0  0
  -19.1870  -28.8530   23.3840 C   0  0  0  0  0  0  0  0  0  0  0  0
  -18.9600  -30.1200   23.9650 C   0  0  0  0  0  3  0  0  0  0  0  0
  -17.6530  -30.6160   24.1270 C   0  0  0  0  0  3  0  0  0  0  0  0
  -16.5530  -29.8420   23.7180 C   0  0  0  0  0  3  0  0  0  0  0  0
  -16.7640  -28.5770   23.1400 C   0  0  0  0  0  3  0  0  0  0  0  0
  -25.9140  -32.5350   23.8530 C   0  0  0  0  0  3  0  0  0  0  0  0
  -25.5960  -33.9320   24.1870 N   0  0  0  0  0  0  0  0  0  0  0  0
  -25.9170  -34.9880   23.4300 C   0  0  0  0  0  0  0  0  0  0  0  0
  -26.5810  -34.8910   22.3940 O   0  0  0  0  0  0  0  0  0  0  0  0
  -25.0070  -34.0800   24.9920 H   0  0  0  0  0  0  0  0  0  0  0  0
  -24.1740  -36.7730   23.0940 C   0  0  0  0  0  1  0  0  0  0  0  0
  -25.4250  -36.3730   23.8930 C   0  0  0  0  0  3  0  0  0  0  0  0
  -27.5630  -37.2710   24.7050 C   0  0  0  0  0  1  0  0  0  0  0  0
  -26.4510  -37.4330   23.7730 N   0  0  0  0  0  0  0  0  0  0  0  0
  -26.0400  -38.3500   23.9260 H   0  0  0  0  0  0  0  0  0  0  0  0
  -26.4390  -31.7680   25.1290 C   0  0  1  0  0  0  0  0  0  0  0  0
  -25.3550  -31.5270   26.2040 C   0  0  0  0  0  1  0  0  0  0  0  0
  -27.0270  -30.3920   24.7370 C   0  0  0  0  0  1  0  0  0  0  0  0
  -27.5880  -32.5680   25.7860 C   0  0  0  0  0  1  0  0  0  0  0  0
  2  6  1  0
  3  8  1  0
  6  1  1  0
  6  4  1  0
  7  3  1  0
  7 10  1  0
  7  1  1  0
  8 11  1  0
  8  2  1  0
  9  5  1  0
  9 10  1  0
  9 50  1  0
 10  5  1  1
 10  4  1  0
 11 20  1  0
 12 20  1  0
 13 18  1  0
 14 15  1  0
 14 13  1  0
 16 15  1  0
 16 25  1  0
 16 17  1  0
 18 12  1  0
 18 17  1  0
 19 12  2  0
 20 21  1  0
 22 23  2  0
 23 42  1  0
 24 23  1  0
 24 27  1  0
 25 22  1  0
 25 26  1  0
 26 24  2  0
 27 28  1  0
 28 29  2  0
 30 33  1  0
 30 29  1  0
 31 30  2  0
 32 31  1  0
 32 27  2  0
 33 34  1  0
 34 35  1  0
 35 36  2  0
 37 36  1  0
 37 41  1  0
 38 37  2  0
 39 34  2  0
 39 38  1  0
 40 39  1  0
 42 43  1  0
 43 46  1  0
 43 45  1  0
 44 42  2  0
 47 48  1  0
 47 22  1  0
 49 47  1  0
 51 50  1  0
 52 63  2  0
 53 51  1  0
 53 58  1  0
 54 62  1  0
 54 64  1  0
 55 61  1  0
 55 57  1  0
 56 62  1  0
 57 56  1  0
 58 57  2  0
 59 53  2  0
 60 59  1  0
 60 55  2  0
 61 54  1  0
 62 52  1  0
 64 66  2  0
 65 64  1  0
 67 65  1  0
 68 77  2  0
 68 73  1  0
 69 65  1  0
 69 73  1  0
 70 69  1  0
 71 72  1  0
 71 70  1  0
 72 68  1  0
 73 74  2  0
 74 75  1  0
 76 75  2  0
 77 76  1  0
 78 52  1  0
 78 79  1  0
 78 88  1  0
 79 82  1  0
 80 84  1  0
 80 79  1  0
 81 80  2  0
 84 83  1  0
 86 84  1  0
 86 87  1  0
 86 85  1  0
 88 91  1  1
 88 89  1  0
 90 88  1  0
M  ISO  4  12 100  20 100  50 101  51 101
M  END
>  <TORSDO>  (26) 
F 18

>  <SCORE>  (26) 
-14.581

>  <name>  (26) 
25

>  <ligand_id>  (26) 
25

>  <original_smiles>  (26) 
[H]c1c([H])c([H])c2c(c1[H])C([H])([H])C([H])([H])C([H])([H])C2([H])N([H])C(=O)C1([H])N(C(=O)C([H])(N([H])C(=O)C([H])(N([H])C([H])([H])[H])C([H])([H])[H])C(C([H])([H])[H])(C([H])([H])[H])C([H])([H])[H])C([H])([H])c2c([H])c(OC([H])([H])C3([H])C([H])([H])C34C([H])([H])C3([H])C([H])([H])C([H])(C([H])([H])N([H])C(=O)N5C([H])([H])C([H])([H])C([H])([H])C([H])(n6nc(-c7c([H])c([H])c(Oc8c([H])c([H])c(F)c([H])c8F)c([H])c7[H])c(C(=O)N([H])[H])c6N([H])[H])C5([H])[H])C([H])([H])C4([H])C3([H])[H])c([H])c([H])c2C1([H])[H]

>  <smiles>  (26) 
[H]c1c([H])c([H])c2c(c1[H])C([H])([H])C([H])([H])C([H])([H])C2([H])N([H])C(=O)C1([H])N(C(=O)C([H])(N([H])C(=O)C([H])(N([H])C([H])([H])[H])C([H])([H])[H])C(C([H])([H])[H])(C([H])([H])[H])C([H])([H])[H])C([H])([H])c2c([H])c(OC([H])([H])C3([H])C([H])([H])C34C([H])([H])C3([H])C([H])([H])C([H])(C([H])([H])N([H])C(=O)N5C([H])([H])C([H])([H])C([H])([H])C([H])(n6nc(-c7c([H])c([H])c(Oc8c([H])c([H])c(F)c([H])c8F)c([H])c7[H])c(C(=O)N([H])[H])c6N([H])[H])C5([H])[H])C([H])([H])C4([H])C3([H])[H])c([H])c([H])c2C1([H])[H]

$$$$
26:0:0
     RDKit          3D

 89 98  0  0  1  0  0  0  0  0999 V2000
  -27.0200  -20.4100   19.2100 C   0  0  0  0  0  2  0  0  0  0  0  0
  -28.0510  -20.8870   18.4990 C   0  0  0  0  0  2  0  0  0  0  0  0
  -28.4310  -19.3910   21.1170 C   0  0  0  0  0  2  0  0  0  0  0  0
  -27.7150  -20.6300   20.5370 C   0  0  0  0  0  3  0  0  0  0  0  0
  -29.6900  -19.6120   20.2740 C   0  0  0  0  0  3  0  0  0  0  0  0
  -28.9240  -21.1470   19.7220 C   0  0  1  0  0  0  0  0  0  0  0  0
  -30.7160  -15.4030   19.7170 C   0  0  0  0  0  0  0  0  0  0  0  0
  -30.5880  -12.9370   18.9400 C   0  0  0  0  0  2  0  0  0  0  0  0
  -29.5860  -12.7320   17.7730 C   0  0  0  0  0  2  0  0  0  0  0  0
  -28.1740  -12.4740   18.3170 C   0  0  0  0  0  2  0  0  0  0  0  0
  -27.8040  -13.4790   19.4340 C   0  0  0  0  0  3  0  0  0  0  0  0
  -28.9210  -13.6480   20.4910 C   0  0  0  0  0  2  0  0  0  0  0  0
  -30.1320  -14.1050   19.7860 N   0  0  0  0  0  0  0  0  0  0  0  0
  -31.8790  -15.3690   19.2910 O   0  0  0  0  0  0  0  0  0  0  0  0
  -30.2220  -18.0940   19.5820 C   0  0  0  0  0  0  0  0  0  0  0  0
  -30.0330  -16.6870   20.0030 N   0  0  0  0  0  0  0  0  0  0  0  0
  -30.8990  -18.2650   18.5650 O   0  0  0  0  0  0  0  0  0  0  0  0
  -29.2570  -16.5760   20.6340 H   0  0  0  0  0  0  0  0  0  0  0  0
  -25.5150  -14.0780   20.3830 C   0  0  0  0  0  0  0  0  0  0  0  0
  -24.4610  -13.3210   20.8110 C   0  0  0  0  0  0  0  0  0  0  0  0
  -24.8790  -11.9600   20.6950 C   0  0  0  0  0  0  0  0  0  0  0  0
  -26.5080  -13.1840   20.0310 N   0  0  0  0  0  0  0  0  0  0  0  0
  -26.1420  -11.8990   20.2820 N   0  0  0  0  0  0  0  0  0  0  0  0
  -24.1290  -10.7110   20.8970 C   0  0  0  0  0  0  0  0  0  0  0  0
  -24.5660   -9.7220   21.8060 C   0  0  0  0  0  3  0  0  0  0  0  0
  -23.8130   -8.5440   21.9990 C   0  0  0  0  0  3  0  0  0  0  0  0
  -22.6090   -8.3460   21.2830 C   0  0  0  0  0  0  0  0  0  0  0  0
  -22.1910   -9.3200   20.3610 C   0  0  0  0  0  3  0  0  0  0  0  0
  -22.9440  -10.4910   20.1660 C   0  0  0  0  0  3  0  0  0  0  0  0
  -21.8270   -7.2210   21.3870 O   0  0  0  0  0  0  0  0  0  0  0  0
  -21.7470   -6.5060   22.5540 C   0  0  0  0  0  0  0  0  0  0  0  0
  -21.3180   -7.0980   23.7630 C   0  0  0  0  0  3  0  0  0  0  0  0
  -21.1820   -6.3100   24.9240 C   0  0  0  0  0  3  0  0  0  0  0  0
  -21.4650   -4.9320   24.8770 C   0  0  0  0  0  0  0  0  0  0  0  0
  -21.8870   -4.3400   23.6740 C   0  0  0  0  0  3  0  0  0  0  0  0
  -22.0240   -5.1240   22.5150 C   0  0  0  0  0  0  0  0  0  0  0  0
  -22.4100   -4.5460   21.3530 F   0  0  0  0  0  0  0  0  0  0  0  0
  -21.3270   -4.1730   25.9890 F   0  0  0  0  0  0  0  0  0  0  0  0
  -23.1060  -13.8270   21.2040 C   0  0  0  0  0  0  0  0  0  0  0  0
  -22.4300  -13.1310   22.1110 N   0  0  0  0  0  0  0  0  0  0  0  0
  -22.6570  -14.8770   20.7410 O   0  0  0  0  0  0  0  0  0  0  0  0
  -22.8080  -12.2830   22.5050 H   0  0  0  0  0  0  0  0  0  0  0  0
  -21.5250  -13.4540   22.4210 H   0  0  0  0  0  0  0  0  0  0  0  0
  -25.7060  -15.4500   20.2370 N   0  0  0  0  0  0  0  0  0  0  0  0
  -24.9640  -16.1180   20.4100 H   0  0  0  0  0  0  0  0  0  0  0  0
  -26.5190  -15.8640   19.8000 H   0  0  0  0  0  0  0  0  0  0  0  0
  -29.2100  -22.9200   19.8340 C   0  0  0  0  0  3  0  0  0  0  0  0
  -28.1180  -24.3450   19.6600 C   0  0  0  0  0  3  0  0  0  0  0  0
  -28.2980  -25.9790   19.7660 O   0  0  0  0  0  0  0  0  0  0  0  0
  -24.5650  -31.6480   23.0120 C   0  0  0  0  0  0  0  0  0  0  0  0
  -27.2370  -27.0240   19.7450 C   0  0  0  0  0  0  0  0  0  0  0  0
  -23.3900  -30.2930   21.3250 C   0  0  0  0  0  3  0  0  0  0  0  0
  -24.8670  -28.8080   19.8030 C   0  0  0  0  0  0  0  0  0  0  0  0
  -25.9420  -30.6100   21.1420 C   0  0  0  0  0  2  0  0  0  0  0  0
  -26.0490  -29.2350   20.4210 C   0  0  0  0  0  0  0  0  0  0  0  0
  -27.2280  -28.3670   20.3630 C   0  0  0  0  0  3  0  0  0  0  0  0
  -26.0170  -26.7440   19.0850 C   0  0  0  0  0  3  0  0  0  0  0  0
  -24.8740  -27.5840   19.1150 C   0  0  0  0  0  3  0  0  0  0  0  0
  -23.6170  -29.6800   19.9140 C   0  0  0  0  0  2  0  0  0  0  0  0
  -24.6540  -30.8740   21.8820 N   0  0  0  0  0  0  0  0  0  0  0  0
  -23.4770  -31.8720   23.5670 O   0  0  0  0  0  0  0  0  0  0  0  0
  -22.7500  -29.2270   22.2540 C   0  0  0  0  0  0  0  0  0  0  0  0
  -21.4230  -29.0310   22.1510 N   0  0  0  0  0  0  0  0  0  0  0  0
  -23.4530  -28.5780   23.0320 O   0  0  0  0  0  0  0  0  0  0  0  0
  -20.9110  -29.5950   21.4860 H   0  0  0  0  0  0  0  0  0  0  0  0
  -18.0890  -27.7090   22.6850 C   0  0  0  0  0  0  0  0  0  0  0  0
  -20.6490  -28.0300   22.8930 C   0  0  0  0  0  3  0  0  0  0  0  0
  -20.7740  -26.6340   22.2390 C   0  0  0  0  0  2  0  0  0  0  0  0
  -19.6490  -26.3250   21.2450 C   0  0  0  0  0  2  0  0  0  0  0  0
  -18.2790  -26.4070   21.9300 C   0  0  0  0  0  2  0  0  0  0  0  0
  -19.2000  -28.4790   23.1240 C   0  0  0  0  0  0  0  0  0  0  0  0
  -18.9640  -29.6950   23.7990 C   0  0  0  0  0  3  0  0  0  0  0  0
  -17.6500  -30.1460   24.0360 C   0  0  0  0  0  3  0  0  0  0  0  0
  -16.5550  -29.3770   23.6070 C   0  0  0  0  0  3  0  0  0  0  0  0
  -16.7750  -28.1600   22.9360 C   0  0  0  0  0  3  0  0  0  0  0  0
  -25.8250  -32.3040   23.6530 C   0  0  0  0  0  3  0  0  0  0  0  0
  -25.4700  -33.6800   24.0400 N   0  0  0  0  0  0  0  0  0  0  0  0
  -25.7570  -34.7770   23.3270 C   0  0  0  0  0  0  0  0  0  0  0  0
  -26.4100  -34.7400   22.2820 O   0  0  0  0  0  0  0  0  0  0  0  0
  -24.8840  -33.7770   24.8560 H   0  0  0  0  0  0  0  0  0  0  0  0
  -23.9600  -36.5280   23.1040 C   0  0  0  0  0  1  0  0  0  0  0  0
  -25.2410  -36.1330   23.8560 C   0  0  0  0  0  3  0  0  0  0  0  0
  -27.3700  -37.0630   24.6510 C   0  0  0  0  0  1  0  0  0  0  0  0
  -26.2330  -37.2250   23.7480 N   0  0  0  0  0  0  0  0  0  0  0  0
  -25.8020  -38.1250   23.9390 H   0  0  0  0  0  0  0  0  0  0  0  0
  -26.3660  -31.5080   24.9060 C   0  0  1  0  0  0  0  0  0  0  0  0
  -25.2880  -31.2210   25.9780 C   0  0  0  0  0  1  0  0  0  0  0  0
  -26.9740  -30.1530   24.4800 C   0  0  0  0  0  1  0  0  0  0  0  0
  -27.5060  -32.3060   25.5810 C   0  0  0  0  0  1  0  0  0  0  0  0
  2  1  1  0
  2  6  1  0
  4  1  1  0
  4  3  1  0
  5 15  1  0
  5  3  1  0
  6 47  1  1
  6  5  1  0
  6  4  1  0
  7 13  1  0
  7 16  1  0
  8 13  1  0
  9 10  1  0
  9  8  1  0
 11 10  1  0
 11 22  1  0
 11 12  1  0
 13 12  1  0
 14  7  2  0
 15 16  1  0
 16 18  1  0
 17 15  2  0
 19 20  2  0
 20 39  1  0
 21 20  1  0
 21 24  1  0
 22 23  1  0
 22 19  1  0
 23 21  2  0
 24 25  1  0
 25 26  2  0
 27 30  1  0
 27 26  1  0
 28 27  2  0
 29 28  1  0
 29 24  2  0
 30 31  1  0
 31 32  1  0
 32 33  2  0
 34 33  1  0
 34 38  1  0
 35 34  2  0
 36 31  2  0
 36 35  1  0
 37 36  1  0
 39 40  1  0
 40 43  1  0
 40 42  1  0
 41 39  2  0
 44 19  1  0
 44 45  1  0
 46 44  1  0
 48 49  1  0
 48 47  2  0
 50 61  2  0
 51 49  1  0
 51 56  1  0
 52 60  1  0
 52 62  1  0
 53 59  1  0
 53 55  1  0
 54 60  1  0
 55 54  1  0
 56 55  2  0
 57 58  1  0
 57 51  2  0
 58 53  2  0
 59 52  1  0
 60 50  1  0
 62 64  2  0
 63 62  1  0
 65 63  1  0
 66 75  2  0
 66 71  1  0
 67 63  1  0
 67 71  1  0
 68 67  1  0
 69 70  1  0
 69 68  1  0
 70 66  1  0
 71 72  2  0
 72 73  1  0
 74 73  2  0
 75 74  1  0
 76 50  1  0
 76 77  1  0
 76 86  1  0
 77 80  1  0
 78 82  1  0
 78 77  1  0
 79 78  2  0
 82 81  1  0
 84 82  1  0
 84 85  1  0
 84 83  1  0
 86 89  1  1
 86 87  1  0
 88 86  1  0
M  ISO  4   7 100  16 100  48 101  49 101
M  END
>  <TORSDO>  (27) 
F 18

>  <SCORE>  (27) 
-14.486

>  <name>  (27) 
26

>  <ligand_id>  (27) 
26

>  <original_smiles>  (27) 
[H]C1=C([H])C2(C([H])([H])C([H])([H])Oc3c([H])c([H])c4c(c3[H])C([H])([H])N(C(=O)C([H])(N([H])C(=O)C([H])(N([H])C([H])([H])[H])C([H])([H])[H])C(C([H])([H])[H])(C([H])([H])[H])C([H])([H])[H])C([H])(C(=O)N([H])C3([H])c5c([H])c([H])c([H])c([H])c5C([H])([H])C([H])([H])C3([H])[H])C4([H])[H])C([H])(C(=O)N([H])C(=O)N3C([H])([H])C([H])([H])C([H])([H])C([H])(n4nc(-c5c([H])c([H])c(Oc6c([H])c([H])c(F)c([H])c6F)c([H])c5[H])c(C(=O)N([H])[H])c4N([H])[H])C3([H])[H])C([H])([H])C12[H]

>  <smiles>  (27) 
[H]C1=C([H])C2(C([H])([H])C([H])([H])Oc3c([H])c([H])c4c(c3[H])C([H])([H])N(C(=O)C([H])(N([H])C(=O)C([H])(N([H])C([H])([H])[H])C([H])([H])[H])C(C([H])([H])[H])(C([H])([H])[H])C([H])([H])[H])C([H])(C(=O)N([H])C3([H])c5c([H])c([H])c([H])c([H])c5C([H])([H])C([H])([H])C3([H])[H])C4([H])[H])C([H])(C(=O)N([H])C(=O)N3C([H])([H])C([H])([H])C([H])([H])C([H])(n4nc(-c5c([H])c([H])c(Oc6c([H])c([H])c(F)c([H])c6F)c([H])c5[H])c(C(=O)N([H])[H])c4N([H])[H])C3([H])[H])C([H])([H])C12[H]

$$$$
27:0:0
     RDKit          3D

 92101  0  0  1  0  0  0  0  0999 V2000
  -29.4310  -19.8140   20.6310 C   0  0  0  0  0  0  0  0  0  0  0  0
  -28.9480  -21.1420   20.1380 N   0  0  0  0  0  4  0  0  0  0  0  0
  -29.8040  -19.7840   21.8030 O   0  0  0  0  0  0  0  0  0  0  0  0
  -28.5690  -21.0340   19.2040 H   0  0  0  0  0  0  0  0  0  0  0  0
  -30.7900  -17.5700   17.4880 C   0  0  0  0  0  2  0  0  0  0  0  0
  -28.5520  -18.2170   18.7170 C   0  0  0  0  0  2  0  0  0  0  0  0
  -29.5980  -18.4690   17.6640 C   0  0  0  0  0  3  0  0  0  0  0  0
  -30.6720  -18.4370   18.7300 C   0  0  0  0  0  3  0  0  0  0  0  0
  -29.6220  -18.2490   19.8260 C   0  0  1  0  0  0  0  0  0  0  0  0
  -30.4880  -15.4010   20.1930 C   0  0  0  0  0  0  0  0  0  0  0  0
  -30.4670  -12.9530   19.3200 C   0  0  0  0  0  2  0  0  0  0  0  0
  -29.5410  -12.7710   18.0890 C   0  0  0  0  0  2  0  0  0  0  0  0
  -28.0960  -12.4880   18.5330 C   0  0  0  0  0  2  0  0  0  0  0  0
  -27.6540  -13.4290   19.6800 C   0  0  0  0  0  3  0  0  0  0  0  0
  -28.7100  -13.5660   20.8010 C   0  0  0  0  0  2  0  0  0  0  0  0
  -29.9390  -14.0840   20.1750 N   0  0  0  0  0  0  0  0  0  0  0  0
  -31.6820  -15.4100   19.8570 O   0  0  0  0  0  0  0  0  0  0  0  0
  -29.7240  -16.6640   20.3980 N   0  0  0  0  0  0  0  0  0  0  0  0
  -28.8680  -16.4450   20.8830 H   0  0  0  0  0  0  0  0  0  0  0  0
  -25.2810  -13.9600   20.4460 C   0  0  0  0  0  0  0  0  0  0  0  0
  -24.2290  -13.1720   20.8230 C   0  0  0  0  0  0  0  0  0  0  0  0
  -24.7100  -11.8270   20.7900 C   0  0  0  0  0  0  0  0  0  0  0  0
  -26.3320  -13.0960   20.1960 N   0  0  0  0  0  0  0  0  0  0  0  0
  -26.0010  -11.8070   20.4700 N   0  0  0  0  0  0  0  0  0  0  0  0
  -23.9950  -10.5580   20.9870 C   0  0  0  0  0  0  0  0  0  0  0  0
  -24.4370   -9.5970   21.9230 C   0  0  0  0  0  3  0  0  0  0  0  0
  -23.7210   -8.3960   22.1100 C   0  0  0  0  0  3  0  0  0  0  0  0
  -22.5460   -8.1460   21.3600 C   0  0  0  0  0  0  0  0  0  0  0  0
  -22.1220   -9.0950   20.4140 C   0  0  0  0  0  3  0  0  0  0  0  0
  -22.8400  -10.2870   20.2250 C   0  0  0  0  0  3  0  0  0  0  0  0
  -21.8000   -6.9960   21.4560 O   0  0  0  0  0  0  0  0  0  0  0  0
  -21.7550   -6.2590   22.6130 C   0  0  0  0  0  0  0  0  0  0  0  0
  -21.3110   -6.8140   23.8330 C   0  0  0  0  0  3  0  0  0  0  0  0
  -21.2150   -6.0040   24.9820 C   0  0  0  0  0  3  0  0  0  0  0  0
  -21.5530   -4.6390   24.9120 C   0  0  0  0  0  0  0  0  0  0  0  0
  -21.9890   -4.0830   23.6960 C   0  0  0  0  0  3  0  0  0  0  0  0
  -22.0870   -4.8910   22.5490 C   0  0  0  0  0  0  0  0  0  0  0  0
  -22.4870   -4.3450   21.3750 F   0  0  0  0  0  0  0  0  0  0  0  0
  -21.4530   -3.8580   26.0130 F   0  0  0  0  0  0  0  0  0  0  0  0
  -22.8300  -13.6360   21.0990 C   0  0  0  0  0  0  0  0  0  0  0  0
  -22.1110  -12.9360   21.9690 N   0  0  0  0  0  0  0  0  0  0  0  0
  -22.3820  -14.6560   20.5770 O   0  0  0  0  0  0  0  0  0  0  0  0
  -22.4870  -12.1130   22.4150 H   0  0  0  0  0  0  0  0  0  0  0  0
  -21.1710  -13.2290   22.1930 H   0  0  0  0  0  0  0  0  0  0  0  0
  -25.4260  -15.3320   20.2640 N   0  0  0  0  0  0  0  0  0  0  0  0
  -24.6460  -15.9720   20.3680 H   0  0  0  0  0  0  0  0  0  0  0  0
  -26.2540  -15.7760   19.8910 H   0  0  0  0  0  0  0  0  0  0  0  0
  -29.6250  -22.8930   21.9480 C   0  0  0  0  0  1  0  0  0  0  0  0
  -29.0560  -22.7880   20.5250 C   0  0  0  0  0  0  0  0  0  0  0  0
  -26.7860  -23.9390   21.2690 C   0  0  0  0  0  1  0  0  0  0  0  0
  -27.9550  -24.2220   20.3100 C   0  0  0  0  0  3  0  0  0  0  0  0
  -28.1760  -25.8760   20.4140 O   0  0  0  0  0  0  0  0  0  0  0  0
  -24.6120  -31.9230   23.2520 C   0  0  0  0  0  0  0  0  0  0  0  0
  -27.1760  -26.9900   20.3090 C   0  0  0  0  0  0  0  0  0  0  0  0
  -23.4270  -30.5060   21.6260 C   0  0  0  0  0  3  0  0  0  0  0  0
  -24.8820  -28.8860   20.2250 C   0  0  0  0  0  0  0  0  0  0  0  0
  -25.9930  -30.7100   21.4910 C   0  0  0  0  0  2  0  0  0  0  0  0
  -26.0670  -29.2910   20.8520 C   0  0  0  0  0  0  0  0  0  0  0  0
  -27.2060  -28.3640   20.8700 C   0  0  0  0  0  3  0  0  0  0  0  0
  -25.9720  -26.7550   19.6070 C   0  0  0  0  0  3  0  0  0  0  0  0
  -24.8600  -27.6370   19.5820 C   0  0  0  0  0  3  0  0  0  0  0  0
  -23.6640  -29.8090   20.2580 C   0  0  0  0  0  2  0  0  0  0  0  0
  -24.6990  -31.0770   22.1750 N   0  0  0  0  0  0  0  0  0  0  0  0
  -23.5200  -32.2190   23.7650 O   0  0  0  0  0  0  0  0  0  0  0  0
  -22.7280  -29.5230   22.6010 C   0  0  0  0  0  0  0  0  0  0  0  0
  -21.3990  -29.3510   22.4690 N   0  0  0  0  0  0  0  0  0  0  0  0
  -23.3880  -28.9160   23.4480 O   0  0  0  0  0  0  0  0  0  0  0  0
  -20.9180  -29.8940   21.7660 H   0  0  0  0  0  0  0  0  0  0  0  0
  -18.0200  -28.1200   22.9600 C   0  0  0  0  0  0  0  0  0  0  0  0
  -20.5750  -28.4200   23.2490 C   0  0  0  0  0  3  0  0  0  0  0  0
  -20.6970  -26.9770   22.7040 C   0  0  0  0  0  2  0  0  0  0  0  0
  -19.6110  -26.6230   21.6840 C   0  0  0  0  0  2  0  0  0  0  0  0
  -18.2210  -26.7620   22.3090 C   0  0  0  0  0  2  0  0  0  0  0  0
  -19.1240  -28.9050   23.3870 C   0  0  0  0  0  0  0  0  0  0  0  0
  -18.8810  -30.1720   23.9600 C   0  0  0  0  0  3  0  0  0  0  0  0
  -17.5670  -30.6550   24.1070 C   0  0  0  0  0  3  0  0  0  0  0  0
  -16.4770  -29.8690   23.6930 C   0  0  0  0  0  3  0  0  0  0  0  0
  -16.7050  -28.6020   23.1260 C   0  0  0  0  0  3  0  0  0  0  0  0
  -25.8800  -32.5750   23.8840 C   0  0  0  0  0  3  0  0  0  0  0  0
  -26.3750  -31.8320   25.1860 C   0  0  1  0  0  0  0  0  0  0  0  0
  -25.2670  -31.6190   26.2450 C   0  0  0  0  0  1  0  0  0  0  0  0
  -26.9610  -30.4440   24.8410 C   0  0  0  0  0  1  0  0  0  0  0  0
  -27.5160  -32.6400   25.8470 C   0  0  0  0  0  1  0  0  0  0  0  0
  -25.5590  -33.9810   24.1950 N   0  0  0  0  0  0  0  0  0  0  0  0
  -25.8980  -35.0320   23.4370 C   0  0  0  0  0  0  0  0  0  0  0  0
  -26.5740  -34.9220   22.4110 O   0  0  0  0  0  0  0  0  0  0  0  0
  -24.9590  -34.1390   24.9900 H   0  0  0  0  0  0  0  0  0  0  0  0
  -24.1800  -36.8370   23.0650 C   0  0  0  0  0  1  0  0  0  0  0  0
  -25.4140  -36.4270   23.8860 C   0  0  0  0  0  3  0  0  0  0  0  0
  -27.5440  -37.3150   24.7300 C   0  0  0  0  0  1  0  0  0  0  0  0
  -26.4510  -37.4770   23.7740 N   0  0  0  0  0  0  0  0  0  0  0  0
  -26.0460  -38.4000   23.9090 H   0  0  0  0  0  0  0  0  0  0  0  0
  1  3  2  0
  2 49  2  0
  2  1  1  0
  4  2  1  0
  6  9  1  0
  7  5  1  0
  7  6  1  0
  7  8  1  0
  8  5  1  0
  8  9  1  0
  9 18  1  1
  9  1  1  0
 10 18  1  0
 11 16  1  0
 12 13  1  0
 12 11  1  0
 14 13  1  0
 14 23  1  0
 14 15  1  0
 16 10  1  0
 16 15  1  0
 17 10  2  0
 18 19  1  0
 20 21  2  0
 21 40  1  0
 22 21  1  0
 22 25  1  0
 23 20  1  0
 23 24  1  0
 24 22  2  0
 25 26  1  0
 26 27  2  0
 28 31  1  0
 28 27  1  0
 29 28  2  0
 30 29  1  0
 30 25  2  0
 31 32  1  0
 32 33  1  0
 33 34  2  0
 35 34  1  0
 35 39  1  0
 36 35  2  0
 37 32  2  0
 37 36  1  0
 38 37  1  0
 40 41  1  0
 41 44  1  0
 41 43  1  0
 42 40  2  0
 45 46  1  0
 45 20  1  0
 47 45  1  0
 49 48  1  0
 51 52  1  0
 51 49  1  0
 51 50  1  0
 53 64  2  0
 54 52  1  0
 54 59  1  0
 55 63  1  0
 55 65  1  0
 56 62  1  0
 56 58  1  0
 57 63  1  0
 58 59  2  0
 58 57  1  0
 60 54  2  0
 61 60  1  0
 61 56  2  0
 62 55  1  0
 63 53  1  0
 65 67  2  0
 66 65  1  0
 68 66  1  0
 69 78  2  0
 69 74  1  0
 70 66  1  0
 70 74  1  0
 71 70  1  0
 72 73  1  0
 72 71  1  0
 73 69  1  0
 74 75  2  0
 75 76  1  0
 77 76  2  0
 78 77  1  0
 79 53  1  0
 79 84  1  0
 79 80  1  0
 80 83  1  1
 80 81  1  0
 82 80  1  0
 84 87  1  0
 85 89  1  0
 85 84  1  0
 86 85  2  0
 89 88  1  0
 91 89  1  0
 91 92  1  0
 91 90  1  0
M  ISO  4  10 100  18 100  51 101  52 101
M  END
>  <TORSDO>  (28) 
F 19

>  <SCORE>  (28) 
-16.644

>  <name>  (28) 
27

>  <ligand_id>  (28) 
27

>  <original_smiles>  (28) 
[H]c1c([H])c([H])c2c(c1[H])C([H])([H])C([H])([H])C([H])([H])C2([H])N([H])C(=O)C1([H])N(C(=O)C([H])(N([H])C(=O)C([H])(N([H])C([H])([H])[H])C([H])([H])[H])C(C([H])([H])[H])(C([H])([H])[H])C([H])([H])[H])C([H])([H])c2c([H])c(OC([H])(C([H])([H])[H])C([H])(N([H])C(=O)C3(N([H])C(=O)N4C([H])([H])C([H])([H])C([H])([H])C([H])(n5nc(-c6c([H])c([H])c(Oc7c([H])c([H])c(F)c([H])c7F)c([H])c6[H])c(C(=O)N([H])[H])c5N([H])[H])C4([H])[H])C([H])([H])C4([H])C([H])([H])C34[H])C([H])([H])[H])c([H])c([H])c2C1([H])[H]

>  <smiles>  (28) 
[H]c1c([H])c([H])c2c(c1[H])C([H])([H])C([H])([H])C([H])([H])C2([H])N([H])C(=O)C1([H])N(C(=O)C([H])(N([H])C(=O)C([H])(N([H])C([H])([H])[H])C([H])([H])[H])C(C([H])([H])[H])(C([H])([H])[H])C([H])([H])[H])C([H])([H])c2c([H])c(OC([H])(C([H])([H])[H])C([H])(N([H])C(=O)C3(N([H])C(=O)N4C([H])([H])C([H])([H])C([H])([H])C([H])(n5nc(-c6c([H])c([H])c(Oc7c([H])c([H])c(F)c([H])c7F)c([H])c6[H])c(C(=O)N([H])[H])c5N([H])[H])C4([H])[H])C([H])([H])C4([H])C([H])([H])C34[H])C([H])([H])[H])c([H])c([H])c2C1([H])[H]

$$$$
28:0:0
     RDKit          3D

 89 96  0  0  1  0  0  0  0  0999 V2000
  -29.1020  -21.7620   20.1870 N   0  0  0  0  0  4  0  0  0  0  0  0
  -28.8400  -21.7540   19.2140 H   0  0  0  0  0  0  0  0  0  0  0  0
  -30.1050  -21.8580   20.2300 H   0  0  0  0  0  0  0  0  0  0  0  0
  -28.7190  -20.4590   20.7890 C   0  0  0  0  0  2  0  0  0  0  0  0
  -29.6630  -19.3130   20.3610 C   0  0  0  0  0  2  0  0  0  0  0  0
  -29.2500  -17.9100   20.8660 C   0  0  0  0  0  2  0  0  0  0  0  0
  -30.3690  -16.8740   20.6270 C   0  0  0  0  0  2  0  0  0  0  0  0
  -30.6570  -14.4360   20.3850 C   0  0  0  0  0  0  0  0  0  0  0  0
  -30.3320  -12.2890   19.2380 C   0  0  0  0  0  2  0  0  0  0  0  0
  -29.3920  -12.5240   18.0390 C   0  0  0  0  0  2  0  0  0  0  0  0
  -27.9180  -12.3940   18.4690 C   0  0  0  0  0  2  0  0  0  0  0  0
  -27.5920  -13.2230   19.7430 C   0  0  0  0  0  3  0  0  0  0  0  0
  -28.6470  -12.9860   20.8470 C   0  0  0  0  0  2  0  0  0  0  0  0
  -29.9740  -13.2690   20.2750 N   0  0  0  0  0  0  0  0  0  0  0  0
  -31.7890  -14.6000   19.9220 O   0  0  0  0  0  0  0  0  0  0  0  0
  -29.9520  -15.4840   20.8440 N   0  0  0  0  0  0  0  0  0  0  0  0
  -29.0280  -15.3020   21.2060 H   0  0  0  0  0  0  0  0  0  0  0  0
  -25.1910  -13.8380   20.4420 C   0  0  0  0  0  0  0  0  0  0  0  0
  -24.1240  -13.0700   20.8210 C   0  0  0  0  0  0  0  0  0  0  0  0
  -24.5850  -11.7180   20.8020 C   0  0  0  0  0  0  0  0  0  0  0  0
  -26.2370  -12.9540   20.2220 N   0  0  0  0  0  0  0  0  0  0  0  0
  -25.8750  -11.6750   20.4940 N   0  0  0  0  0  0  0  0  0  0  0  0
  -23.8600  -10.4560   21.0050 C   0  0  0  0  0  0  0  0  0  0  0  0
  -24.3060   -9.4910   21.9340 C   0  0  0  0  0  3  0  0  0  0  0  0
  -23.5810   -8.2950   22.1280 C   0  0  0  0  0  3  0  0  0  0  0  0
  -22.3960   -8.0560   21.3900 C   0  0  0  0  0  0  0  0  0  0  0  0
  -21.9710   -9.0090   20.4490 C   0  0  0  0  0  3  0  0  0  0  0  0
  -22.6960  -10.1970   20.2550 C   0  0  0  0  0  3  0  0  0  0  0  0
  -21.6440   -6.9120   21.4900 O   0  0  0  0  0  0  0  0  0  0  0  0
  -21.6250   -6.1600   22.6390 C   0  0  0  0  0  0  0  0  0  0  0  0
  -21.2460   -6.7090   23.8820 C   0  0  0  0  0  3  0  0  0  0  0  0
  -21.1720   -5.8860   25.0230 C   0  0  0  0  0  3  0  0  0  0  0  0
  -21.4690   -4.5130   24.9220 C   0  0  0  0  0  0  0  0  0  0  0  0
  -21.8420   -3.9630   23.6830 C   0  0  0  0  0  3  0  0  0  0  0  0
  -21.9160   -4.7840   22.5440 C   0  0  0  0  0  0  0  0  0  0  0  0
  -22.2540   -4.2440   21.3480 F   0  0  0  0  0  0  0  0  0  0  0  0
  -21.3920   -3.7190   26.0160 F   0  0  0  0  0  0  0  0  0  0  0  0
  -22.7260  -13.5490   21.0890 C   0  0  0  0  0  0  0  0  0  0  0  0
  -22.0000  -12.8610   21.9650 N   0  0  0  0  0  0  0  0  0  0  0  0
  -22.2860  -14.5670   20.5590 O   0  0  0  0  0  0  0  0  0  0  0  0
  -22.3690  -12.0370   22.4150 H   0  0  0  0  0  0  0  0  0  0  0  0
  -21.0630  -13.1650   22.1880 H   0  0  0  0  0  0  0  0  0  0  0  0
  -25.3550  -15.2070   20.2480 N   0  0  0  0  0  0  0  0  0  0  0  0
  -24.5820  -15.8580   20.3430 H   0  0  0  0  0  0  0  0  0  0  0  0
  -26.1970  -15.6430   19.8970 H   0  0  0  0  0  0  0  0  0  0  0  0
  -28.4970  -22.9430   20.8490 C   0  0  0  0  0  2  0  0  0  0  0  0
  -28.7540  -24.2750   20.1010 C   0  0  0  0  0  2  0  0  0  0  0  0
  -28.2910  -25.4950   20.9190 C   0  0  0  0  0  2  0  0  0  0  0  0
  -28.4010  -26.7170   20.1760 O   0  0  0  0  0  0  0  0  0  0  0  0
  -24.6000  -31.8840   23.2390 C   0  0  0  0  0  0  0  0  0  0  0  0
  -27.2470  -27.4600   20.1600 C   0  0  0  0  0  0  0  0  0  0  0  0
  -23.3940  -30.4790   21.5960 C   0  0  0  0  0  3  0  0  0  0  0  0
  -24.8490  -28.9460   20.1700 C   0  0  0  0  0  0  0  0  0  0  0  0
  -25.9170  -30.8500   21.3940 C   0  0  0  0  0  2  0  0  0  0  0  0
  -26.0060  -29.4790   20.7550 C   0  0  0  0  0  0  0  0  0  0  0  0
  -27.2110  -28.7430   20.7450 C   0  0  0  0  0  3  0  0  0  0  0  0
  -26.0790  -26.9380   19.5640 C   0  0  0  0  0  3  0  0  0  0  0  0
  -24.8780  -27.6740   19.5710 C   0  0  0  0  0  3  0  0  0  0  0  0
  -23.6020  -29.8000   20.2170 C   0  0  0  0  0  2  0  0  0  0  0  0
  -24.6560  -31.0850   22.1350 N   0  0  0  0  0  0  0  0  0  0  0  0
  -23.5190  -32.1540   23.7810 O   0  0  0  0  0  0  0  0  0  0  0  0
  -22.7450  -29.4570   22.5580 C   0  0  0  0  0  0  0  0  0  0  0  0
  -21.4210  -29.2740   22.4290 N   0  0  0  0  0  0  0  0  0  0  0  0
  -23.4290  -28.8320   23.3720 O   0  0  0  0  0  0  0  0  0  0  0  0
  -20.9310  -29.8290   21.7410 H   0  0  0  0  0  0  0  0  0  0  0  0
  -18.0490  -28.0710   22.9130 C   0  0  0  0  0  0  0  0  0  0  0  0
  -20.6040  -28.3350   23.1970 C   0  0  0  0  0  3  0  0  0  0  0  0
  -20.7130  -26.9030   22.6240 C   0  0  0  0  0  2  0  0  0  0  0  0
  -19.6160  -26.5760   21.6050 C   0  0  0  0  0  2  0  0  0  0  0  0
  -18.2320  -26.7210   22.2430 C   0  0  0  0  0  2  0  0  0  0  0  0
  -19.1630  -28.8370   23.3480 C   0  0  0  0  0  0  0  0  0  0  0  0
  -18.9400  -30.1020   23.9330 C   0  0  0  0  0  3  0  0  0  0  0  0
  -17.6330  -30.6010   24.0910 C   0  0  0  0  0  3  0  0  0  0  0  0
  -16.5330  -29.8340   23.6740 C   0  0  0  0  0  3  0  0  0  0  0  0
  -16.7410  -28.5700   23.0900 C   0  0  0  0  0  3  0  0  0  0  0  0
  -25.8870  -32.5140   23.8600 C   0  0  0  0  0  3  0  0  0  0  0  0
  -26.4070  -31.7390   25.1330 C   0  0  1  0  0  0  0  0  0  0  0  0
  -25.3170  -31.4990   26.2020 C   0  0  0  0  0  1  0  0  0  0  0  0
  -26.9880  -30.3630   24.7340 C   0  0  0  0  0  1  0  0  0  0  0  0
  -27.5610  -32.5300   25.7940 C   0  0  0  0  0  1  0  0  0  0  0  0
  -25.5800  -33.9120   24.1910 N   0  0  0  0  0  0  0  0  0  0  0  0
  -25.9140  -34.9640   23.4300 C   0  0  0  0  0  0  0  0  0  0  0  0
  -26.5850  -34.8590   22.4000 O   0  0  0  0  0  0  0  0  0  0  0  0
  -24.9880  -34.0670   24.9930 H   0  0  0  0  0  0  0  0  0  0  0  0
  -24.1840  -36.7520   23.0690 C   0  0  0  0  0  1  0  0  0  0  0  0
  -25.4240  -36.3520   23.8840 C   0  0  0  0  0  3  0  0  0  0  0  0
  -27.5570  -37.2330   24.7190 C   0  0  0  0  0  1  0  0  0  0  0  0
  -26.4560  -37.4050   23.7740 N   0  0  0  0  0  0  0  0  0  0  0  0
  -26.0510  -38.3240   23.9250 H   0  0  0  0  0  0  0  0  0  0  0  0
  1  3  1  0
  1  4  1  0
  1 46  1  0
  2  1  1  0
  5  4  1  0
  5  6  1  0
  7 16  1  0
  7  6  1  0
  8 16  1  0
  9 14  1  0
 10 11  1  0
 10  9  1  0
 12 11  1  0
 12 21  1  0
 12 13  1  0
 14  8  1  0
 14 13  1  0
 15  8  2  0
 16 17  1  0
 18 19  2  0
 19 38  1  0
 20 19  1  0
 20 23  1  0
 21 18  1  0
 21 22  1  0
 22 20  2  0
 23 24  1  0
 24 25  2  0
 26 29  1  0
 26 25  1  0
 27 26  2  0
 28 27  1  0
 28 23  2  0
 29 30  1  0
 30 31  1  0
 31 32  2  0
 33 32  1  0
 33 37  1  0
 34 33  2  0
 35 30  2  0
 35 34  1  0
 36 35  1  0
 38 39  1  0
 39 42  1  0
 39 41  1  0
 40 38  2  0
 43 44  1  0
 43 18  1  0
 45 43  1  0
 47 46  1  0
 47 48  1  0
 49 48  1  0
 50 61  2  0
 51 49  1  0
 51 56  1  0
 52 60  1  0
 52 62  1  0
 53 59  1  0
 53 55  1  0
 54 60  1  0
 55 54  1  0
 56 55  2  0
 57 58  1  0
 57 51  2  0
 58 53  2  0
 59 52  1  0
 60 50  1  0
 62 64  2  0
 63 62  1  0
 65 63  1  0
 66 75  2  0
 66 71  1  0
 67 63  1  0
 67 71  1  0
 68 67  1  0
 69 70  1  0
 69 68  1  0
 70 66  1  0
 71 72  2  0
 72 73  1  0
 74 73  2  0
 75 74  1  0
 76 50  1  0
 76 81  1  0
 76 77  1  0
 77 80  1  1
 77 78  1  0
 79 77  1  0
 81 84  1  0
 82 86  1  0
 82 81  1  0
 83 82  2  0
 86 85  1  0
 88 86  1  0
 88 89  1  0
 88 87  1  0
M  ISO  4   8 100  16 100  48 101  49 101
M  END
>  <TORSDO>  (29) 
F 23

>  <SCORE>  (29) 
-12.582

>  <name>  (29) 
28

>  <ligand_id>  (29) 
28

>  <original_smiles>  (29) 
[H]c1c([H])c([H])c2c(c1[H])C([H])([H])C([H])([H])C([H])([H])C2([H])N([H])C(=O)C1([H])N(C(=O)C([H])(N([H])C(=O)C([H])(N([H])C([H])([H])[H])C([H])([H])[H])C(C([H])([H])[H])(C([H])([H])[H])C([H])([H])[H])C([H])([H])c2c([H])c(OC([H])([H])C([H])([H])C([H])([H])[N+]([H])([H])C([H])([H])C([H])([H])C([H])([H])C([H])([H])N([H])C(=O)N3C([H])([H])C([H])([H])C([H])([H])C([H])(n4nc(-c5c([H])c([H])c(Oc6c([H])c([H])c(F)c([H])c6F)c([H])c5[H])c(C(=O)N([H])[H])c4N([H])[H])C3([H])[H])c([H])c([H])c2C1([H])[H]

>  <smiles>  (29) 
[H]c1c([H])c([H])c2c(c1[H])C([H])([H])C([H])([H])C([H])([H])C2([H])N([H])C(=O)C1([H])N(C(=O)C([H])(N([H])C(=O)C([H])(N([H])C([H])([H])[H])C([H])([H])[H])C(C([H])([H])[H])(C([H])([H])[H])C([H])([H])[H])C([H])([H])c2c([H])c(OC([H])([H])C([H])([H])C([H])([H])[N+]([H])([H])C([H])([H])C([H])([H])C([H])([H])C([H])([H])N([H])C(=O)N3C([H])([H])C([H])([H])C([H])([H])C([H])(n4nc(-c5c([H])c([H])c(Oc6c([H])c([H])c(F)c([H])c6F)c([H])c5[H])c(C(=O)N([H])[H])c4N([H])[H])C3([H])[H])c([H])c([H])c2C1([H])[H]

$$$$
29:0:0
     RDKit          3D

 93102  0  0  1  0  0  0  0  0999 V2000
  -29.3580  -22.5070   21.0500 N   0  0  0  0  0  4  0  0  0  0  0  0
  -28.5330  -22.2460   20.5380 H   0  0  0  0  0  0  0  0  0  0  0  0
  -30.0650  -22.7660   20.3800 H   0  0  0  0  0  0  0  0  0  0  0  0
  -29.8220  -21.3200   21.8050 C   0  0  0  0  0  2  0  0  0  0  0  0
  -31.0720  -19.9710   19.9450 C   0  0  0  0  0  2  0  0  0  0  0  0
  -30.0940  -17.6100   19.3130 C   0  0  0  0  0  2  0  0  0  0  0  0
  -29.9630  -18.7370   21.7220 C   0  0  0  0  0  2  0  0  0  0  0  0
  -31.2590  -18.4890   19.6950 C   0  0  0  0  0  3  0  0  0  0  0  0
  -29.8810  -20.0560   20.9250 C   0  0  0  0  0  3  0  0  0  0  0  0
  -30.5400  -17.7080   20.7670 C   0  0  2  0  0  0  0  0  0  0  0  0
  -31.1510  -16.4950   21.4720 C   0  0  0  0  0  2  0  0  0  0  0  0
  -30.8780  -14.3790   20.2160 C   0  0  0  0  0  0  0  0  0  0  0  0
  -30.3920  -12.3220   18.9530 C   0  0  0  0  0  2  0  0  0  0  0  0
  -29.4040  -12.6020   17.8080 C   0  0  0  0  0  2  0  0  0  0  0  0
  -27.9540  -12.4720   18.3060 C   0  0  0  0  0  2  0  0  0  0  0  0
  -27.6970  -13.2790   19.6060 C   0  0  0  0  0  3  0  0  0  0  0  0
  -28.7980  -13.0090   20.6580 C   0  0  0  0  0  2  0  0  0  0  0  0
  -30.1130  -13.2700   20.0440 N   0  0  0  0  0  0  0  0  0  0  0  0
  -31.8680  -14.6280   19.5240 O   0  0  0  0  0  0  0  0  0  0  0  0
  -30.5010  -15.2150   21.1890 N   0  0  0  0  0  0  0  0  0  0  0  0
  -29.6980  -14.9570   21.7430 H   0  0  0  0  0  0  0  0  0  0  0  0
  -25.3300  -13.8950   20.4210 C   0  0  0  0  0  0  0  0  0  0  0  0
  -24.2740  -13.1260   20.8280 C   0  0  0  0  0  0  0  0  0  0  0  0
  -24.7230  -11.7720   20.7630 C   0  0  0  0  0  0  0  0  0  0  0  0
  -26.3610  -13.0110   20.1390 N   0  0  0  0  0  0  0  0  0  0  0  0
  -25.9980  -11.7280   20.3980 N   0  0  0  0  0  0  0  0  0  0  0  0
  -23.9970  -10.5130   20.9740 C   0  0  0  0  0  0  0  0  0  0  0  0
  -24.4560   -9.5400   21.8880 C   0  0  0  0  0  3  0  0  0  0  0  0
  -23.7320   -8.3440   22.0860 C   0  0  0  0  0  3  0  0  0  0  0  0
  -22.5320   -8.1140   21.3690 C   0  0  0  0  0  0  0  0  0  0  0  0
  -22.0910   -9.0770   20.4440 C   0  0  0  0  0  3  0  0  0  0  0  0
  -22.8170  -10.2640   20.2450 C   0  0  0  0  0  3  0  0  0  0  0  0
  -21.7760   -6.9730   21.4790 O   0  0  0  0  0  0  0  0  0  0  0  0
  -21.7550   -6.2290   22.6310 C   0  0  0  0  0  0  0  0  0  0  0  0
  -21.3700   -6.7870   23.8710 C   0  0  0  0  0  3  0  0  0  0  0  0
  -21.2970   -5.9700   25.0160 C   0  0  0  0  0  3  0  0  0  0  0  0
  -21.5980   -4.5980   24.9250 C   0  0  0  0  0  0  0  0  0  0  0  0
  -21.9750   -4.0400   23.6900 C   0  0  0  0  0  3  0  0  0  0  0  0
  -22.0510   -4.8540   22.5460 C   0  0  0  0  0  0  0  0  0  0  0  0
  -22.3950   -4.3070   21.3560 F   0  0  0  0  0  0  0  0  0  0  0  0
  -21.5190   -3.8110   26.0240 F   0  0  0  0  0  0  0  0  0  0  0  0
  -22.8930  -13.6100   21.1680 C   0  0  0  0  0  0  0  0  0  0  0  0
  -22.2010  -12.9080   22.0590 N   0  0  0  0  0  0  0  0  0  0  0  0
  -22.4390  -14.6430   20.6800 O   0  0  0  0  0  0  0  0  0  0  0  0
  -22.5810  -12.0720   22.4760 H   0  0  0  0  0  0  0  0  0  0  0  0
  -21.2750  -13.2120   22.3280 H   0  0  0  0  0  0  0  0  0  0  0  0
  -25.4970  -15.2670   20.2500 N   0  0  0  0  0  0  0  0  0  0  0  0
  -24.7420  -15.9270   20.4020 H   0  0  0  0  0  0  0  0  0  0  0  0
  -26.3450  -15.7030   19.9110 H   0  0  0  0  0  0  0  0  0  0  0  0
  -29.0300  -23.6740   21.9050 C   0  0  0  0  0  2  0  0  0  0  0  0
  -28.0300  -24.6580   21.2570 C   0  0  0  0  0  2  0  0  0  0  0  0
  -28.5400  -25.4200   20.0150 C   0  0  0  0  0  2  0  0  0  0  0  0
  -28.4730  -26.8340   20.1940 O   0  0  0  0  0  0  0  0  0  0  0  0
  -24.6040  -31.9140   23.2490 C   0  0  0  0  0  0  0  0  0  0  0  0
  -27.2560  -27.4820   20.1860 C   0  0  0  0  0  0  0  0  0  0  0  0
  -23.3930  -30.5100   21.6110 C   0  0  0  0  0  3  0  0  0  0  0  0
  -24.8450  -28.9610   20.1980 C   0  0  0  0  0  0  0  0  0  0  0  0
  -25.9160  -30.8720   21.4090 C   0  0  0  0  0  2  0  0  0  0  0  0
  -25.9990  -29.5000   20.7770 C   0  0  0  0  0  0  0  0  0  0  0  0
  -27.2040  -28.7670   20.7670 C   0  0  0  0  0  3  0  0  0  0  0  0
  -26.0770  -26.9410   19.6190 C   0  0  0  0  0  3  0  0  0  0  0  0
  -24.8780  -27.6810   19.6180 C   0  0  0  0  0  3  0  0  0  0  0  0
  -23.6010  -29.8170   20.2360 C   0  0  0  0  0  2  0  0  0  0  0  0
  -24.6570  -31.1130   22.1480 N   0  0  0  0  0  0  0  0  0  0  0  0
  -23.5220  -32.1920   23.7860 O   0  0  0  0  0  0  0  0  0  0  0  0
  -22.7400  -29.4950   22.5760 C   0  0  0  0  0  0  0  0  0  0  0  0
  -21.4160  -29.3130   22.4450 N   0  0  0  0  0  0  0  0  0  0  0  0
  -23.4220  -28.8730   23.3940 O   0  0  0  0  0  0  0  0  0  0  0  0
  -20.9280  -29.8650   21.7530 H   0  0  0  0  0  0  0  0  0  0  0  0
  -18.0400  -28.1260   22.9320 C   0  0  0  0  0  0  0  0  0  0  0  0
  -20.5960  -28.3830   23.2170 C   0  0  0  0  0  3  0  0  0  0  0  0
  -20.7000  -26.9490   22.6490 C   0  0  0  0  0  2  0  0  0  0  0  0
  -19.6030  -26.6200   21.6300 C   0  0  0  0  0  2  0  0  0  0  0  0
  -18.2170  -26.7720   22.2640 C   0  0  0  0  0  2  0  0  0  0  0  0
  -19.1570  -28.8880   23.3640 C   0  0  0  0  0  0  0  0  0  0  0  0
  -18.9370  -30.1560   23.9470 C   0  0  0  0  0  3  0  0  0  0  0  0
  -17.6320  -30.6620   24.0990 C   0  0  0  0  0  3  0  0  0  0  0  0
  -16.5290  -29.8960   23.6840 C   0  0  0  0  0  3  0  0  0  0  0  0
  -16.7340  -28.6290   23.1080 C   0  0  0  0  0  3  0  0  0  0  0  0
  -25.8920  -32.5400   23.8710 C   0  0  0  0  0  3  0  0  0  0  0  0
  -25.5870  -33.9390   24.1990 N   0  0  0  0  0  0  0  0  0  0  0  0
  -25.9290  -34.9880   23.4370 C   0  0  0  0  0  0  0  0  0  0  0  0
  -26.6050  -34.8800   22.4100 O   0  0  0  0  0  0  0  0  0  0  0  0
  -24.9830  -34.0980   24.9910 H   0  0  0  0  0  0  0  0  0  0  0  0
  -24.2120  -36.7890   23.0700 C   0  0  0  0  0  1  0  0  0  0  0  0
  -25.4440  -36.3780   23.8890 C   0  0  0  0  0  3  0  0  0  0  0  0
  -27.5810  -37.2530   24.7290 C   0  0  0  0  0  1  0  0  0  0  0  0
  -26.4840  -37.4250   23.7800 N   0  0  0  0  0  0  0  0  0  0  0  0
  -26.0800  -38.3450   23.9270 H   0  0  0  0  0  0  0  0  0  0  0  0
  -26.4120  -31.7660   25.1440 C   0  0  1  0  0  0  0  0  0  0  0  0
  -25.3200  -31.5300   26.2130 C   0  0  0  0  0  1  0  0  0  0  0  0
  -26.9920  -30.3870   24.7480 C   0  0  0  0  0  1  0  0  0  0  0  0
  -27.5720  -32.5530   25.8000 C   0  0  0  0  0  1  0  0  0  0  0  0
  1  4  1  0
  1 50  1  0
  2  1  1  0
  3  1  1  0
  5  9  1  0
  6 10  1  0
  8  6  1  0
  8  5  1  0
  8 10  1  0
  9  7  1  0
  9  4  1  0
 10 11  1  1
 10  7  1  0
 12 20  1  0
 13 18  1  0
 14 15  1  0
 14 13  1  0
 16 15  1  0
 16 25  1  0
 16 17  1  0
 18 12  1  0
 18 17  1  0
 19 12  2  0
 20 11  1  0
 20 21  1  0
 22 23  2  0
 23 42  1  0
 24 23  1  0
 24 27  1  0
 25 26  1  0
 25 22  1  0
 26 24  2  0
 27 28  1  0
 28 29  2  0
 30 33  1  0
 30 29  1  0
 31 30  2  0
 32 31  1  0
 32 27  2  0
 33 34  1  0
 34 35  1  0
 35 36  2  0
 37 36  1  0
 37 41  1  0
 38 37  2  0
 39 34  2  0
 39 38  1  0
 40 39  1  0
 42 43  1  0
 43 46  1  0
 43 45  1  0
 44 42  2  0
 47 48  1  0
 47 22  1  0
 49 47  1  0
 51 50  1  0
 52 53  1  0
 52 51  1  0
 54 65  2  0
 55 53  1  0
 55 60  1  0
 56 64  1  0
 56 66  1  0
 57 63  1  0
 57 59  1  0
 58 64  1  0
 59 58  1  0
 60 59  2  0
 61 55  2  0
 62 61  1  0
 62 57  2  0
 63 56  1  0
 64 54  1  0
 66 68  2  0
 67 66  1  0
 69 67  1  0
 70 79  2  0
 70 75  1  0
 71 67  1  0
 71 75  1  0
 72 71  1  0
 73 74  1  0
 73 72  1  0
 74 70  1  0
 75 76  2  0
 76 77  1  0
 78 77  2  0
 79 78  1  0
 80 54  1  0
 80 81  1  0
 80 90  1  0
 81 84  1  0
 82 86  1  0
 82 81  1  0
 83 82  2  0
 86 85  1  0
 88 86  1  0
 88 89  1  0
 88 87  1  0
 90 93  1  1
 90 91  1  0
 92 90  1  0
M  ISO  4  12 100  20 100  52 101  53 101
M  END
>  <TORSDO>  (30) 
F 22

>  <SCORE>  (30) 
-12.978

>  <name>  (30) 
29

>  <ligand_id>  (30) 
29

>  <original_smiles>  (30) 
[H]c1c([H])c([H])c2c(c1[H])C([H])([H])C([H])([H])C([H])([H])C2([H])N([H])C(=O)C1([H])N(C(=O)C([H])(N([H])C(=O)C([H])(N([H])C([H])([H])[H])C([H])([H])[H])C(C([H])([H])[H])(C([H])([H])[H])C([H])([H])[H])C([H])([H])c2c([H])c(OC([H])([H])C([H])([H])C([H])([H])[N+]([H])([H])C([H])([H])C3([H])C([H])([H])C4([H])C([H])([H])C4(C([H])([H])N([H])C(=O)N4C([H])([H])C([H])([H])C([H])([H])C([H])(n5nc(-c6c([H])c([H])c(Oc7c([H])c([H])c(F)c([H])c7F)c([H])c6[H])c(C(=O)N([H])[H])c5N([H])[H])C4([H])[H])C3([H])[H])c([H])c([H])c2C1([H])[H]

>  <smiles>  (30) 
[H]c1c([H])c([H])c2c(c1[H])C([H])([H])C([H])([H])C([H])([H])C2([H])N([H])C(=O)C1([H])N(C(=O)C([H])(N([H])C(=O)C([H])(N([H])C([H])([H])[H])C([H])([H])[H])C(C([H])([H])[H])(C([H])([H])[H])C([H])([H])[H])C([H])([H])c2c([H])c(OC([H])([H])C([H])([H])C([H])([H])[N+]([H])([H])C([H])([H])C3([H])C([H])([H])C4([H])C([H])([H])C4(C([H])([H])N([H])C(=O)N4C([H])([H])C([H])([H])C([H])([H])C([H])(n5nc(-c6c([H])c([H])c(Oc7c([H])c([H])c(F)c([H])c7F)c([H])c6[H])c(C(=O)N([H])[H])c5N([H])[H])C4([H])[H])C3([H])[H])c([H])c([H])c2C1([H])[H]

$$$$
30:0:0
     RDKit          3D

 88 97  0  0  1  0  0  0  0  0999 V2000
  -29.7010  -22.8790   19.8140 C   0  0  0  0  0  2  0  0  0  0  0  0
  -27.9390  -22.3290   20.7220 C   0  0  0  0  0  2  0  0  0  0  0  0
  -28.9680  -21.4870   19.8990 C   0  0  0  0  0  3  0  0  0  0  0  0
  -28.3660  -23.6780   20.0240 C   0  0  0  0  0  3  0  0  0  0  0  0
  -30.3700  -19.3890   19.2370 C   0  0  0  0  0  2  0  0  0  0  0  0
  -29.7120  -20.1420   20.3670 C   0  0  0  0  0  3  0  0  0  0  0  0
  -29.4590  -18.5650   20.1150 C   0  0  0  0  0  3  0  0  0  0  0  0
  -30.1570  -17.3170   20.8380 C   0  0  0  0  0  2  0  0  0  0  0  0
  -30.5510  -14.7380   20.3920 C   0  0  0  0  0  0  0  0  0  0  0  0
  -30.3610  -12.4690   19.3700 C   0  0  0  0  0  2  0  0  0  0  0  0
  -29.4200  -12.5410   18.1480 C   0  0  0  0  0  2  0  0  0  0  0  0
  -27.9520  -12.3640   18.5790 C   0  0  0  0  0  2  0  0  0  0  0  0
  -27.5760  -13.2540   19.7950 C   0  0  0  0  0  3  0  0  0  0  0  0
  -28.6330  -13.1630   20.9160 C   0  0  0  0  0  2  0  0  0  0  0  0
  -29.9270  -13.5160   20.3200 N   0  0  0  0  0  0  0  0  0  0  0  0
  -31.7420  -14.8490   20.0900 O   0  0  0  0  0  0  0  0  0  0  0  0
  -29.7660  -15.8560   20.6180 N   0  0  0  0  0  0  0  0  0  0  0  0
  -28.7910  -15.6510   20.7780 H   0  0  0  0  0  0  0  0  0  0  0  0
  -25.1880  -13.8510   20.5140 C   0  0  0  0  0  0  0  0  0  0  0  0
  -24.1210  -13.0780   20.8840 C   0  0  0  0  0  0  0  0  0  0  0  0
  -24.5850  -11.7280   20.8580 C   0  0  0  0  0  0  0  0  0  0  0  0
  -26.2320  -12.9690   20.2830 N   0  0  0  0  0  0  0  0  0  0  0  0
  -25.8750  -11.6870   20.5540 N   0  0  0  0  0  0  0  0  0  0  0  0
  -23.8580  -10.4660   21.0500 C   0  0  0  0  0  0  0  0  0  0  0  0
  -24.2960   -9.4950   21.9770 C   0  0  0  0  0  3  0  0  0  0  0  0
  -23.5700   -8.2970   22.1560 C   0  0  0  0  0  3  0  0  0  0  0  0
  -22.3920   -8.0620   21.4080 C   0  0  0  0  0  0  0  0  0  0  0  0
  -21.9730   -9.0230   20.4690 C   0  0  0  0  0  3  0  0  0  0  0  0
  -22.6990  -10.2110   20.2890 C   0  0  0  0  0  3  0  0  0  0  0  0
  -21.6370   -6.9180   21.4960 O   0  0  0  0  0  0  0  0  0  0  0  0
  -21.6050   -6.1650   22.6430 C   0  0  0  0  0  0  0  0  0  0  0  0
  -21.2060   -6.7120   23.8830 C   0  0  0  0  0  3  0  0  0  0  0  0
  -21.1200   -5.8850   25.0210 C   0  0  0  0  0  3  0  0  0  0  0  0
  -21.4210   -4.5140   24.9210 C   0  0  0  0  0  0  0  0  0  0  0  0
  -21.8130   -3.9670   23.6870 C   0  0  0  0  0  3  0  0  0  0  0  0
  -21.9020   -4.7910   22.5500 C   0  0  0  0  0  0  0  0  0  0  0  0
  -22.2580   -4.2540   21.3580 F   0  0  0  0  0  0  0  0  0  0  0  0
  -21.3320   -3.7180   26.0120 F   0  0  0  0  0  0  0  0  0  0  0  0
  -22.7230  -13.5570   21.1480 C   0  0  0  0  0  0  0  0  0  0  0  0
  -21.9930  -12.8620   22.0130 N   0  0  0  0  0  0  0  0  0  0  0  0
  -22.2870  -14.5810   20.6250 O   0  0  0  0  0  0  0  0  0  0  0  0
  -22.3590  -12.0330   22.4580 H   0  0  0  0  0  0  0  0  0  0  0  0
  -21.0540  -13.1620   22.2350 H   0  0  0  0  0  0  0  0  0  0  0  0
  -25.3530  -15.2210   20.3300 N   0  0  0  0  0  0  0  0  0  0  0  0
  -24.5840  -15.8740   20.4220 H   0  0  0  0  0  0  0  0  0  0  0  0
  -26.1950  -15.6520   19.9690 H   0  0  0  0  0  0  0  0  0  0  0  0
  -28.2160  -25.0890   20.7910 C   0  0  0  0  0  2  0  0  0  0  0  0
  -28.3450  -26.4400   20.1650 O   0  0  0  0  0  0  0  0  0  0  0  0
  -24.6240  -31.8780   23.2320 C   0  0  0  0  0  0  0  0  0  0  0  0
  -27.2340  -27.3020   20.1780 C   0  0  0  0  0  0  0  0  0  0  0  0
  -23.4180  -30.4750   21.5970 C   0  0  0  0  0  3  0  0  0  0  0  0
  -24.8680  -28.9180   20.1710 C   0  0  0  0  0  0  0  0  0  0  0  0
  -25.9560  -30.7940   21.4030 C   0  0  0  0  0  2  0  0  0  0  0  0
  -26.0390  -29.4110   20.7600 C   0  0  0  0  0  0  0  0  0  0  0  0
  -27.2270  -28.6160   20.7490 C   0  0  0  0  0  3  0  0  0  0  0  0
  -26.0410  -26.8620   19.5700 C   0  0  0  0  0  3  0  0  0  0  0  0
  -24.8720  -27.6500   19.5640 C   0  0  0  0  0  3  0  0  0  0  0  0
  -23.6310  -29.7930   20.2190 C   0  0  0  0  0  2  0  0  0  0  0  0
  -24.6850  -31.0670   22.1340 N   0  0  0  0  0  0  0  0  0  0  0  0
  -23.5410  -32.1550   23.7700 O   0  0  0  0  0  0  0  0  0  0  0  0
  -22.7570  -29.4620   22.5620 C   0  0  0  0  0  0  0  0  0  0  0  0
  -21.4290  -29.2870   22.4410 N   0  0  0  0  0  0  0  0  0  0  0  0
  -23.4370  -28.8350   23.3780 O   0  0  0  0  0  0  0  0  0  0  0  0
  -20.9390  -29.8440   21.7560 H   0  0  0  0  0  0  0  0  0  0  0  0
  -18.0550  -28.0830   22.9450 C   0  0  0  0  0  0  0  0  0  0  0  0
  -20.6130  -28.3480   23.2150 C   0  0  0  0  0  3  0  0  0  0  0  0
  -20.7180  -26.9150   22.6440 C   0  0  0  0  0  2  0  0  0  0  0  0
  -19.6170  -26.5870   21.6320 C   0  0  0  0  0  2  0  0  0  0  0  0
  -18.2350  -26.7320   22.2740 C   0  0  0  0  0  2  0  0  0  0  0  0
  -19.1710  -28.8490   23.3730 C   0  0  0  0  0  0  0  0  0  0  0  0
  -18.9490  -30.1130   23.9600 C   0  0  0  0  0  3  0  0  0  0  0  0
  -17.6430  -30.6110   24.1260 C   0  0  0  0  0  3  0  0  0  0  0  0
  -16.5400  -29.8400   23.7150 C   0  0  0  0  0  3  0  0  0  0  0  0
  -16.7470  -28.5790   23.1290 C   0  0  0  0  0  3  0  0  0  0  0  0
  -25.9060  -32.5140   23.8520 C   0  0  0  0  0  3  0  0  0  0  0  0
  -26.4270  -31.7440   25.1270 C   0  0  1  0  0  0  0  0  0  0  0  0
  -25.3390  -31.5050   26.1990 C   0  0  0  0  0  1  0  0  0  0  0  0
  -27.0090  -30.3670   24.7320 C   0  0  0  0  0  1  0  0  0  0  0  0
  -27.5820  -32.5360   25.7830 C   0  0  0  0  0  1  0  0  0  0  0  0
  -25.5940  -33.9110   24.1870 N   0  0  0  0  0  0  0  0  0  0  0  0
  -25.9180  -34.9670   23.4280 C   0  0  0  0  0  0  0  0  0  0  0  0
  -26.5790  -34.8670   22.3910 O   0  0  0  0  0  0  0  0  0  0  0  0
  -25.0100  -34.0650   24.9950 H   0  0  0  0  0  0  0  0  0  0  0  0
  -24.1840  -36.7590   23.0920 C   0  0  0  0  0  1  0  0  0  0  0  0
  -25.4320  -36.3540   23.8940 C   0  0  0  0  0  3  0  0  0  0  0  0
  -27.5720  -37.2410   24.7070 C   0  0  0  0  0  1  0  0  0  0  0  0
  -26.4610  -37.4090   23.7750 N   0  0  0  0  0  0  0  0  0  0  0  0
  -26.0560  -38.3300   23.9250 H   0  0  0  0  0  0  0  0  0  0  0  0
  1  4  1  0
  3  1  1  0
  3  6  1  0
  3  2  1  0
  4  2  1  0
  4 47  1  0
  5  7  1  0
  6  5  1  0
  7  6  1  0
  7  8  1  0
  9 17  1  0
 10 15  1  0
 11 12  1  0
 11 10  1  0
 13 12  1  0
 13 22  1  0
 13 14  1  0
 15  9  1  0
 15 14  1  0
 16  9  2  0
 17 18  1  0
 17  8  1  0
 19 20  2  0
 20 39  1  0
 21 20  1  0
 21 24  1  0
 22 19  1  0
 22 23  1  0
 23 21  2  0
 24 25  1  0
 25 26  2  0
 27 30  1  0
 27 26  1  0
 28 27  2  0
 29 28  1  0
 29 24  2  0
 30 31  1  0
 31 32  1  0
 32 33  2  0
 34 33  1  0
 34 38  1  0
 35 34  2  0
 36 31  2  0
 36 35  1  0
 37 36  1  0
 39 40  1  0
 40 43  1  0
 40 42  1  0
 41 39  2  0
 44 45  1  0
 44 19  1  0
 46 44  1  0
 48 50  1  0
 48 47  1  0
 49 60  2  0
 50 55  1  0
 51 59  1  0
 51 61  1  0
 52 58  1  0
 52 54  1  0
 53 59  1  0
 54 53  1  0
 55 54  2  0
 56 50  2  0
 57 56  1  0
 57 52  2  0
 58 51  1  0
 59 49  1  0
 61 63  2  0
 62 61  1  0
 64 62  1  0
 65 74  2  0
 65 70  1  0
 66 62  1  0
 66 70  1  0
 67 66  1  0
 68 69  1  0
 68 67  1  0
 69 65  1  0
 70 71  2  0
 71 72  1  0
 73 72  2  0
 74 73  1  0
 75 49  1  0
 75 80  1  0
 75 76  1  0
 76 79  1  1
 76 77  1  0
 78 76  1  0
 80 83  1  0
 81 85  1  0
 81 80  1  0
 82 81  2  0
 85 84  1  0
 87 85  1  0
 87 88  1  0
 87 86  1  0
M  ISO  4   9 100  17 100  47 101  48 101
M  END
>  <TORSDO>  (31) 
F 19

>  <SCORE>  (31) 
-14.110

>  <name>  (31) 
30

>  <ligand_id>  (31) 
30

>  <original_smiles>  (31) 
[H]c1c([H])c([H])c2c(c1[H])C([H])([H])C([H])([H])C([H])([H])C2([H])N([H])C(=O)C1([H])N(C(=O)C([H])(N([H])C(=O)C([H])(N([H])C([H])([H])[H])C([H])([H])[H])C(C([H])([H])[H])(C([H])([H])[H])C([H])([H])[H])C([H])([H])c2c([H])c(OC([H])([H])C3([H])C([H])([H])C([H])(C4([H])C([H])([H])C4([H])C([H])([H])N([H])C(=O)N4C([H])([H])C([H])([H])C([H])([H])C([H])(n5nc(-c6c([H])c([H])c(Oc7c([H])c([H])c(F)c([H])c7F)c([H])c6[H])c(C(=O)N([H])[H])c5N([H])[H])C4([H])[H])C3([H])[H])c([H])c([H])c2C1([H])[H]

>  <smiles>  (31) 
[H]c1c([H])c([H])c2c(c1[H])C([H])([H])C([H])([H])C([H])([H])C2([H])N([H])C(=O)C1([H])N(C(=O)C([H])(N([H])C(=O)C([H])(N([H])C([H])([H])[H])C([H])([H])[H])C(C([H])([H])[H])(C([H])([H])[H])C([H])([H])[H])C([H])([H])c2c([H])c(OC([H])([H])C3([H])C([H])([H])C([H])(C4([H])C([H])([H])C4([H])C([H])([H])N([H])C(=O)N4C([H])([H])C([H])([H])C([H])([H])C([H])(n5nc(-c6c([H])c([H])c(Oc7c([H])c([H])c(F)c([H])c7F)c([H])c6[H])c(C(=O)N([H])[H])c5N([H])[H])C4([H])[H])C3([H])[H])c([H])c([H])c2C1([H])[H]

$$$$
31:0:0
     RDKit          3D

 89 97  0  0  1  0  0  0  0  0999 V2000
  -28.6450  -21.3970   22.0830 C   0  0  0  0  0  3  0  0  0  0  0  0
  -28.5050  -22.6620   21.4400 C   0  0  0  0  0  3  0  0  0  0  0  0
  -29.0750  -20.1910   21.4540 C   0  0  0  0  0  3  0  0  0  0  0  0
  -29.2370  -21.5230   19.4520 C   0  0  0  0  0  3  0  0  0  0  0  0
  -28.7710  -22.8740   20.0700 C   0  0  0  0  0  0  0  0  0  0  0  0
  -29.4290  -20.1100   20.0890 C   0  0  0  0  0  0  0  0  0  0  0  0
  -28.3390  -24.4630   19.4100 C   0  0  0  0  0  2  0  0  0  0  0  0
  -28.3630  -26.0400   19.9610 O   0  0  0  0  0  0  0  0  0  0  0  0
  -24.7020  -31.8770   23.1090 C   0  0  0  0  0  0  0  0  0  0  0  0
  -27.3380  -27.1410   19.8850 C   0  0  0  0  0  0  0  0  0  0  0  0
  -23.5180  -30.4990   21.4470 C   0  0  0  0  0  3  0  0  0  0  0  0
  -24.9860  -28.9840   19.9380 C   0  0  0  0  0  0  0  0  0  0  0  0
  -26.0760  -30.7800   21.2650 C   0  0  0  0  0  2  0  0  0  0  0  0
  -26.1730  -29.3900   20.5610 C   0  0  0  0  0  0  0  0  0  0  0  0
  -27.3340  -28.4880   20.5180 C   0  0  0  0  0  3  0  0  0  0  0  0
  -26.1200  -26.9070   19.2020 C   0  0  0  0  0  3  0  0  0  0  0  0
  -24.9870  -27.7650   19.2400 C   0  0  0  0  0  3  0  0  0  0  0  0
  -23.7430  -29.8690   20.0430 C   0  0  0  0  0  2  0  0  0  0  0  0
  -24.7880  -31.0800   21.9940 N   0  0  0  0  0  0  0  0  0  0  0  0
  -23.6140  -32.1180   23.6570 O   0  0  0  0  0  0  0  0  0  0  0  0
  -22.8700  -29.4560   22.3940 C   0  0  0  0  0  0  0  0  0  0  0  0
  -21.5480  -29.2300   22.2670 N   0  0  0  0  0  0  0  0  0  0  0  0
  -23.5630  -28.8490   23.2150 O   0  0  0  0  0  0  0  0  0  0  0  0
  -21.0380  -29.7740   21.5850 H   0  0  0  0  0  0  0  0  0  0  0  0
  -18.2350  -27.8160   22.7210 C   0  0  0  0  0  0  0  0  0  0  0  0
  -20.7710  -28.2380   23.0200 C   0  0  0  0  0  3  0  0  0  0  0  0
  -20.9680  -26.8190   22.4350 C   0  0  0  0  0  2  0  0  0  0  0  0
  -19.9010  -26.4380   21.4030 C   0  0  0  0  0  2  0  0  0  0  0  0
  -18.5040  -26.4900   22.0290 C   0  0  0  0  0  2  0  0  0  0  0  0
  -19.3000  -28.6430   23.1720 C   0  0  0  0  0  0  0  0  0  0  0  0
  -18.9930  -29.8800   23.7810 C   0  0  0  0  0  3  0  0  0  0  0  0
  -17.6570  -30.2920   23.9400 C   0  0  0  0  0  3  0  0  0  0  0  0
  -16.6090  -29.4640   23.5030 C   0  0  0  0  0  3  0  0  0  0  0  0
  -16.8980  -28.2260   22.9010 C   0  0  0  0  0  3  0  0  0  0  0  0
  -25.9630  -32.5380   23.7420 C   0  0  0  0  0  3  0  0  0  0  0  0
  -26.5080  -31.7560   25.0010 C   0  0  1  0  0  0  0  0  0  0  0  0
  -25.4220  -31.4480   26.0590 C   0  0  0  0  0  1  0  0  0  0  0  0
  -27.1470  -30.4130   24.5830 C   0  0  0  0  0  1  0  0  0  0  0  0
  -27.6250  -32.5770   25.6850 C   0  0  0  0  0  1  0  0  0  0  0  0
  -25.6150  -33.9200   24.1210 N   0  0  0  0  0  0  0  0  0  0  0  0
  -25.9060  -35.0120   23.4010 C   0  0  0  0  0  0  0  0  0  0  0  0
  -26.5590  -34.9640   22.3560 O   0  0  0  0  0  0  0  0  0  0  0  0
  -25.0310  -34.0290   24.9360 H   0  0  0  0  0  0  0  0  0  0  0  0
  -24.1300  -36.7820   23.1490 C   0  0  0  0  0  1  0  0  0  0  0  0
  -25.3950  -36.3720   23.9210 C   0  0  0  0  0  3  0  0  0  0  0  0
  -27.5150  -37.2890   24.7590 C   0  0  0  0  0  1  0  0  0  0  0  0
  -26.4010  -37.4550   23.8290 N   0  0  0  0  0  0  0  0  0  0  0  0
  -25.9730  -38.3600   24.0050 H   0  0  0  0  0  0  0  0  0  0  0  0
  -30.0880  -18.5600   19.5220 C   0  0  0  0  0  0  0  0  0  0  0  0
  -30.6630  -15.6410   19.8040 C   0  0  0  0  0  0  0  0  0  0  0  0
  -30.6550  -13.1610   18.9900 C   0  0  0  0  0  2  0  0  0  0  0  0
  -29.6930  -12.8820   17.8070 C   0  0  0  0  0  2  0  0  0  0  0  0
  -28.2780  -12.5740   18.3220 C   0  0  0  0  0  2  0  0  0  0  0  0
  -27.8460  -13.5590   19.4340 C   0  0  0  0  0  3  0  0  0  0  0  0
  -28.9350  -13.7840   20.5080 C   0  0  0  0  0  2  0  0  0  0  0  0
  -30.1190  -14.3160   19.8130 N   0  0  0  0  0  0  0  0  0  0  0  0
  -31.8630  -15.6370   19.4900 O   0  0  0  0  0  0  0  0  0  0  0  0
  -29.9040  -16.9290   19.9370 N   0  0  0  0  0  4  0  0  0  0  0  0
  -28.9590  -16.7430   20.2400 H   0  0  0  0  0  0  0  0  0  0  0  0
  -25.5210  -14.0850   20.3340 C   0  0  0  0  0  0  0  0  0  0  0  0
  -24.4830  -13.2940   20.7360 C   0  0  0  0  0  0  0  0  0  0  0  0
  -24.9490  -11.9460   20.6390 C   0  0  0  0  0  0  0  0  0  0  0  0
  -26.5500  -13.2210   20.0080 N   0  0  0  0  0  0  0  0  0  0  0  0
  -26.2230  -11.9270   20.2600 N   0  0  0  0  0  0  0  0  0  0  0  0
  -24.2350  -10.6760   20.8310 C   0  0  0  0  0  0  0  0  0  0  0  0
  -24.6450   -9.7330   21.7980 C   0  0  0  0  0  3  0  0  0  0  0  0
  -23.9260   -8.5320   21.9770 C   0  0  0  0  0  3  0  0  0  0  0  0
  -22.7830   -8.2650   21.1880 C   0  0  0  0  0  0  0  0  0  0  0  0
  -22.3910   -9.1970   20.2100 C   0  0  0  0  0  3  0  0  0  0  0  0
  -23.1110  -10.3890   20.0300 C   0  0  0  0  0  3  0  0  0  0  0  0
  -22.0380   -7.1120   21.2740 O   0  0  0  0  0  0  0  0  0  0  0  0
  -21.8740   -6.4480   22.4630 C   0  0  0  0  0  0  0  0  0  0  0  0
  -21.2570   -7.0580   23.5770 C   0  0  0  0  0  3  0  0  0  0  0  0
  -21.0440   -6.3170   24.7570 C   0  0  0  0  0  3  0  0  0  0  0  0
  -21.4420   -4.9680   24.8240 C   0  0  0  0  0  0  0  0  0  0  0  0
  -22.0510   -4.3580   23.7130 C   0  0  0  0  0  3  0  0  0  0  0  0
  -22.2640   -5.0960   22.5350 C   0  0  0  0  0  0  0  0  0  0  0  0
  -22.8330   -4.4970   21.4610 F   0  0  0  0  0  0  0  0  0  0  0  0
  -21.2310   -4.2540   25.9530 F   0  0  0  0  0  0  0  0  0  0  0  0
  -23.1000  -13.7590   21.0900 C   0  0  0  0  0  0  0  0  0  0  0  0
  -22.4240  -13.0450   21.9820 N   0  0  0  0  0  0  0  0  0  0  0  0
  -22.6340  -14.7930   20.6130 O   0  0  0  0  0  0  0  0  0  0  0  0
  -22.8170  -12.2090   22.3860 H   0  0  0  0  0  0  0  0  0  0  0  0
  -21.4990  -13.3390   22.2620 H   0  0  0  0  0  0  0  0  0  0  0  0
  -25.6720  -15.4610   20.1840 N   0  0  0  0  0  0  0  0  0  0  0  0
  -24.9090  -16.1070   20.3530 H   0  0  0  0  0  0  0  0  0  0  0  0
  -26.4900  -15.9090   19.7970 H   0  0  0  0  0  0  0  0  0  0  0  0
  -31.3350  -19.3190   17.3930 C   0  0  0  0  0  1  0  0  0  0  0  0
  -30.1060  -18.6040   17.9790 C   0  0  0  0  0  2  0  0  0  0  0  0
  2  1  2  0
  3  1  1  0
  4  5  2  0
  4  6  1  0
  5  2  1  0
  6  3  2  0
  7  8  1  0
  7  5  1  0
  9 20  2  0
 10  8  1  0
 10 15  1  0
 11 19  1  0
 11 21  1  0
 12 18  1  0
 12 14  1  0
 13 19  1  0
 14 13  1  0
 15 14  2  0
 16 17  1  0
 16 10  2  0
 17 12  2  0
 18 11  1  0
 19  9  1  0
 21 23  2  0
 22 21  1  0
 24 22  1  0
 25 34  2  0
 25 30  1  0
 26 22  1  0
 26 30  1  0
 27 26  1  0
 28 29  1  0
 28 27  1  0
 29 25  1  0
 30 31  2  0
 31 32  1  0
 33 32  2  0
 34 33  1  0
 35  9  1  0
 35 40  1  0
 35 36  1  0
 36 39  1  1
 36 37  1  0
 38 36  1  0
 40 43  1  0
 41 45  1  0
 41 40  1  0
 42 41  2  0
 45 44  1  0
 47 45  1  0
 47 48  1  0
 47 46  1  0
 49 58  2  0
 49  6  1  0
 50 56  1  0
 50 58  1  0
 51 56  1  0
 52 53  1  0
 52 51  1  0
 54 53  1  0
 54 63  1  0
 54 55  1  0
 56 55  1  0
 57 50  2  0
 58 59  1  0
 60 61  2  0
 61 80  1  0
 62 61  1  0
 62 65  1  0
 63 64  1  0
 63 60  1  0
 64 62  2  0
 65 66  1  0
 66 67  2  0
 68 71  1  0
 68 67  1  0
 69 68  2  0
 70 69  1  0
 70 65  2  0
 71 72  1  0
 72 77  2  0
 72 73  1  0
 73 74  2  0
 74 75  1  0
 75 79  1  0
 76 75  2  0
 77 76  1  0
 78 77  1  0
 80 81  1  0
 81 84  1  0
 81 83  1  0
 82 80  2  0
 85 60  1  0
 85 86  1  0
 87 85  1  0
 88 89  1  0
 89 49  1  0
M  ISO  4   7 101   8 101  50 100  58 100
M  END
>  <TORSDO>  (32) 
F 19

>  <SCORE>  (32) 
-15.293

>  <name>  (32) 
31

>  <ligand_id>  (32) 
31

>  <original_smiles>  (32) 
[H]c1c([H])c([H])c2c(c1[H])C([H])([H])C([H])([H])C([H])([H])C2([H])N([H])C(=O)C1([H])N(C(=O)C([H])(N([H])C(=O)C([H])(N([H])C([H])([H])[H])C([H])([H])[H])C(C([H])([H])[H])(C([H])([H])[H])C([H])([H])[H])C([H])([H])c2c([H])c(OC([H])([H])c3c([H])c([H])c([H])c(C([H])(N([H])C(=O)N4C([H])([H])C([H])([H])C([H])([H])C([H])(n5nc(-c6c([H])c([H])c(Oc7c([H])c([H])c(F)c([H])c7F)c([H])c6[H])c(C(=O)N([H])[H])c5N([H])[H])C4([H])[H])C([H])([H])C([H])([H])[H])c3[H])c([H])c([H])c2C1([H])[H]

>  <smiles>  (32) 
[H]c1c([H])c([H])c2c(c1[H])C([H])([H])C([H])([H])C([H])([H])C2([H])N([H])C(=O)C1([H])N(C(=O)C([H])(N([H])C(=O)C([H])(N([H])C([H])([H])[H])C([H])([H])[H])C(C([H])([H])[H])(C([H])([H])[H])C([H])([H])[H])C([H])([H])c2c([H])c(OC([H])([H])c3c([H])c([H])c([H])c(C([H])(N([H])C(=O)N4C([H])([H])C([H])([H])C([H])([H])C([H])(n5nc(-c6c([H])c([H])c(Oc7c([H])c([H])c(F)c([H])c7F)c([H])c6[H])c(C(=O)N([H])[H])c5N([H])[H])C4([H])[H])C([H])([H])C([H])([H])[H])c3[H])c([H])c([H])c2C1([H])[H]

$$$$
32:0:0
     RDKit          3D

 93102  0  0  1  0  0  0  0  0999 V2000
  -29.2770  -21.6310   21.3570 C   0  0  0  0  0  3  0  0  0  0  0  0
  -28.9490  -22.9890   21.6050 C   0  0  0  0  0  3  0  0  0  0  0  0
  -29.2730  -21.0920   20.0520 C   0  0  0  0  0  0  0  0  0  0  0  0
  -28.5980  -23.9000   20.5750 C   0  0  0  0  0  0  0  0  0  0  0  0
  -28.9370  -22.0000   18.9960 C   0  0  0  0  0  0  0  0  0  0  0  0
  -28.5970  -23.3770   19.2480 C   0  0  0  0  0  0  0  0  0  0  0  0
  -28.9380  -21.5000   17.5520 C   0  0  0  0  0  1  0  0  0  0  0  0
  -28.1870  -24.2820   18.0880 C   0  0  0  0  0  1  0  0  0  0  0  0
  -28.6990  -18.5990   19.2840 C   0  0  0  0  0  2  0  0  0  0  0  0
  -29.7020  -19.6200   19.7910 C   0  0  0  0  0  3  0  0  0  0  0  0
  -29.3840  -18.3200   20.5940 C   0  0  0  0  0  3  0  0  0  0  0  0
  -31.2850  -17.3870   21.9620 C   0  0  0  0  0  1  0  0  0  0  0  0
  -30.4050  -17.1440   20.7260 C   0  0  0  0  0  3  0  0  0  0  0  0
  -30.6140  -14.6210   20.3530 C   0  0  0  0  0  0  0  0  0  0  0  0
  -30.3200  -12.4190   19.2560 C   0  0  0  0  0  2  0  0  0  0  0  0
  -29.3670  -12.5830   18.0540 C   0  0  0  0  0  2  0  0  0  0  0  0
  -27.9000  -12.4340   18.5010 C   0  0  0  0  0  2  0  0  0  0  0  0
  -27.5670  -13.2820   19.7580 C   0  0  0  0  0  3  0  0  0  0  0  0
  -28.6400  -13.1180   20.8580 C   0  0  0  0  0  2  0  0  0  0  0  0
  -29.9420  -13.4340   20.2590 N   0  0  0  0  0  0  0  0  0  0  0  0
  -31.7700  -14.7350   19.9380 O   0  0  0  0  0  0  0  0  0  0  0  0
  -29.9090  -15.7260   20.7400 N   0  0  0  0  0  0  0  0  0  0  0  0
  -28.9500  -15.5760   21.0150 H   0  0  0  0  0  0  0  0  0  0  0  0
  -25.1820  -13.8720   20.5070 C   0  0  0  0  0  0  0  0  0  0  0  0
  -24.1210  -13.0960   20.8850 C   0  0  0  0  0  0  0  0  0  0  0  0
  -24.5850  -11.7450   20.8460 C   0  0  0  0  0  0  0  0  0  0  0  0
  -26.2250  -12.9960   20.2590 N   0  0  0  0  0  0  0  0  0  0  0  0
  -25.8720  -11.7110   20.5220 N   0  0  0  0  0  0  0  0  0  0  0  0
  -23.8630  -10.4810   21.0390 C   0  0  0  0  0  0  0  0  0  0  0  0
  -24.3060   -9.5100   21.9640 C   0  0  0  0  0  3  0  0  0  0  0  0
  -23.5830   -8.3120   22.1460 C   0  0  0  0  0  3  0  0  0  0  0  0
  -22.4040   -8.0740   21.4010 C   0  0  0  0  0  0  0  0  0  0  0  0
  -21.9800   -9.0340   20.4640 C   0  0  0  0  0  3  0  0  0  0  0  0
  -22.7020  -10.2240   20.2820 C   0  0  0  0  0  3  0  0  0  0  0  0
  -21.6510   -6.9280   21.4920 O   0  0  0  0  0  0  0  0  0  0  0  0
  -21.6180   -6.1790   22.6410 C   0  0  0  0  0  0  0  0  0  0  0  0
  -21.2040   -6.7240   23.8760 C   0  0  0  0  0  3  0  0  0  0  0  0
  -21.1180   -5.9010   25.0170 C   0  0  0  0  0  3  0  0  0  0  0  0
  -21.4370   -4.5330   24.9240 C   0  0  0  0  0  0  0  0  0  0  0  0
  -21.8450   -3.9870   23.6940 C   0  0  0  0  0  3  0  0  0  0  0  0
  -21.9320   -4.8070   22.5550 C   0  0  0  0  0  0  0  0  0  0  0  0
  -22.3050   -4.2710   21.3680 F   0  0  0  0  0  0  0  0  0  0  0  0
  -21.3470   -3.7400   26.0170 F   0  0  0  0  0  0  0  0  0  0  0  0
  -22.7260  -13.5700   21.1740 C   0  0  0  0  0  0  0  0  0  0  0  0
  -22.0070  -12.8650   22.0420 N   0  0  0  0  0  0  0  0  0  0  0  0
  -22.2820  -14.5990   20.6670 O   0  0  0  0  0  0  0  0  0  0  0  0
  -22.3790  -12.0330   22.4740 H   0  0  0  0  0  0  0  0  0  0  0  0
  -21.0720  -13.1640   22.2780 H   0  0  0  0  0  0  0  0  0  0  0  0
  -25.3410  -15.2440   20.3310 N   0  0  0  0  0  0  0  0  0  0  0  0
  -24.5730  -15.8960   20.4470 H   0  0  0  0  0  0  0  0  0  0  0  0
  -26.1810  -15.6840   19.9770 H   0  0  0  0  0  0  0  0  0  0  0  0
  -28.0700  -25.3120   21.0170 C   0  0  0  0  0  2  0  0  0  0  0  0
  -28.3230  -26.5390   20.2500 O   0  0  0  0  0  0  0  0  0  0  0  0
  -24.5970  -31.9220   23.2330 C   0  0  0  0  0  0  0  0  0  0  0  0
  -27.2260  -27.3960   20.2010 C   0  0  0  0  0  0  0  0  0  0  0  0
  -23.3970  -30.5120   21.5990 C   0  0  0  0  0  3  0  0  0  0  0  0
  -24.8530  -28.9650   20.1790 C   0  0  0  0  0  0  0  0  0  0  0  0
  -25.9310  -30.8520   21.4100 C   0  0  0  0  0  2  0  0  0  0  0  0
  -26.0180  -29.4740   20.7720 C   0  0  0  0  0  0  0  0  0  0  0  0
  -27.2120  -28.6990   20.7750 C   0  0  0  0  0  3  0  0  0  0  0  0
  -26.0480  -26.9320   19.5820 C   0  0  0  0  0  3  0  0  0  0  0  0
  -24.8670  -27.6990   19.5750 C   0  0  0  0  0  3  0  0  0  0  0  0
  -23.6110  -29.8290   20.2230 C   0  0  0  0  0  2  0  0  0  0  0  0
  -24.6600  -31.1110   22.1380 N   0  0  0  0  0  0  0  0  0  0  0  0
  -23.5130  -32.1990   23.7670 O   0  0  0  0  0  0  0  0  0  0  0  0
  -22.7380  -29.4980   22.5630 C   0  0  0  0  0  0  0  0  0  0  0  0
  -21.4120  -29.3220   22.4410 N   0  0  0  0  0  0  0  0  0  0  0  0
  -23.4190  -28.8730   23.3800 O   0  0  0  0  0  0  0  0  0  0  0  0
  -20.9220  -29.8780   21.7540 H   0  0  0  0  0  0  0  0  0  0  0  0
  -18.0320  -28.1480   22.9600 C   0  0  0  0  0  0  0  0  0  0  0  0
  -20.5930  -28.3900   23.2160 C   0  0  0  0  0  3  0  0  0  0  0  0
  -20.6820  -26.9570   22.6400 C   0  0  0  0  0  2  0  0  0  0  0  0
  -19.5720  -26.6420   21.6320 C   0  0  0  0  0  2  0  0  0  0  0  0
  -18.1950  -26.7970   22.2830 C   0  0  0  0  0  2  0  0  0  0  0  0
  -19.1570  -28.9020   23.3840 C   0  0  0  0  0  0  0  0  0  0  0  0
  -18.9500  -30.1670   23.9750 C   0  0  0  0  0  3  0  0  0  0  0  0
  -17.6490  -30.6770   24.1480 C   0  0  0  0  0  3  0  0  0  0  0  0
  -16.5390  -29.9190   23.7400 C   0  0  0  0  0  3  0  0  0  0  0  0
  -16.7300  -28.6570   23.1530 C   0  0  0  0  0  3  0  0  0  0  0  0
  -25.8790  -32.5590   23.8530 C   0  0  0  0  0  3  0  0  0  0  0  0
  -26.3960  -31.7940   25.1340 C   0  0  1  0  0  0  0  0  0  0  0  0
  -25.3020  -31.5570   26.2000 C   0  0  0  0  0  1  0  0  0  0  0  0
  -26.9840  -30.4170   24.7470 C   0  0  0  0  0  1  0  0  0  0  0  0
  -27.5440  -32.5940   25.7930 C   0  0  0  0  0  1  0  0  0  0  0  0
  -25.5680  -33.9590   24.1750 N   0  0  0  0  0  0  0  0  0  0  0  0
  -25.9040  -35.0070   23.4110 C   0  0  0  0  0  0  0  0  0  0  0  0
  -26.5770  -34.8980   22.3820 O   0  0  0  0  0  0  0  0  0  0  0  0
  -24.9700  -34.1170   24.9710 H   0  0  0  0  0  0  0  0  0  0  0  0
  -24.1770  -36.7990   23.0390 C   0  0  0  0  0  1  0  0  0  0  0  0
  -25.4130  -36.3970   23.8600 C   0  0  0  0  0  3  0  0  0  0  0  0
  -27.5440  -37.2830   24.6990 C   0  0  0  0  0  1  0  0  0  0  0  0
  -26.4470  -37.4500   23.7500 N   0  0  0  0  0  0  0  0  0  0  0  0
  -26.0400  -38.3700   23.8950 H   0  0  0  0  0  0  0  0  0  0  0  0
  1  2  1  0
  3  1  2  0
  4 52  1  0
  4  2  2  0
  5  6  2  0
  5  3  1  0
  6  4  1  0
  7  5  1  0
  8  6  1  0
  9 10  1  0
  9 11  1  0
 10  3  1  0
 10 11  1  0
 11 13  1  0
 13 22  1  0
 13 12  1  0
 14 22  1  0
 15 20  1  0
 16 17  1  0
 16 15  1  0
 18 17  1  0
 18 27  1  0
 18 19  1  0
 20 14  1  0
 20 19  1  0
 21 14  2  0
 22 23  1  0
 24 25  2  0
 25 44  1  0
 26 25  1  0
 26 29  1  0
 27 24  1  0
 27 28  1  0
 28 26  2  0
 29 30  1  0
 30 31  2  0
 32 35  1  0
 32 31  1  0
 33 32  2  0
 34 33  1  0
 34 29  2  0
 35 36  1  0
 36 37  1  0
 37 38  2  0
 39 38  1  0
 39 43  1  0
 40 39  2  0
 41 36  2  0
 41 40  1  0
 42 41  1  0
 44 45  1  0
 45 48  1  0
 45 47  1  0
 46 44  2  0
 49 50  1  0
 49 24  1  0
 51 49  1  0
 53 52  1  0
 54 65  2  0
 55 53  1  0
 55 60  1  0
 56 64  1  0
 56 66  1  0
 57 63  1  0
 57 59  1  0
 58 64  1  0
 59 60  2  0
 59 58  1  0
 61 55  2  0
 62 61  1  0
 62 57  2  0
 63 56  1  0
 64 54  1  0
 66 68  2  0
 67 66  1  0
 69 67  1  0
 70 79  2  0
 70 75  1  0
 71 67  1  0
 71 75  1  0
 72 71  1  0
 73 74  1  0
 73 72  1  0
 74 70  1  0
 75 76  2  0
 76 77  1  0
 78 77  2  0
 79 78  1  0
 80 54  1  0
 80 85  1  0
 80 81  1  0
 81 84  1  1
 81 82  1  0
 83 81  1  0
 85 88  1  0
 86 90  1  0
 86 85  1  0
 87 86  2  0
 90 89  1  0
 92 90  1  0
 92 93  1  0
 92 91  1  0
M  ISO  4  14 100  22 100  52 101  53 101
M  END
>  <TORSDO>  (33) 
F 19

>  <SCORE>  (33) 
-14.441

>  <name>  (33) 
32

>  <ligand_id>  (33) 
32

>  <original_smiles>  (33) 
[H]c1c([H])c([H])c2c(c1[H])C([H])([H])C([H])([H])C([H])([H])C2([H])N([H])C(=O)C1([H])N(C(=O)C([H])(N([H])C(=O)C([H])(N([H])C([H])([H])[H])C([H])([H])[H])C(C([H])([H])[H])(C([H])([H])[H])C([H])([H])[H])C([H])([H])c2c([H])c(OC([H])([H])c3c([H])c([H])c(C4([H])C([H])([H])C4([H])C([H])(N([H])C(=O)N4C([H])([H])C([H])([H])C([H])([H])C([H])(n5nc(-c6c([H])c([H])c(Oc7c([H])c([H])c(F)c([H])c7F)c([H])c6[H])c(C(=O)N([H])[H])c5N([H])[H])C4([H])[H])C([H])([H])[H])c(C([H])([H])[H])c3C([H])([H])[H])c([H])c([H])c2C1([H])[H]

>  <smiles>  (33) 
[H]c1c([H])c([H])c2c(c1[H])C([H])([H])C([H])([H])C([H])([H])C2([H])N([H])C(=O)C1([H])N(C(=O)C([H])(N([H])C(=O)C([H])(N([H])C([H])([H])[H])C([H])([H])[H])C(C([H])([H])[H])(C([H])([H])[H])C([H])([H])[H])C([H])([H])c2c([H])c(OC([H])([H])c3c([H])c([H])c(C4([H])C([H])([H])C4([H])C([H])(N([H])C(=O)N4C([H])([H])C([H])([H])C([H])([H])C([H])(n5nc(-c6c([H])c([H])c(Oc7c([H])c([H])c(F)c([H])c7F)c([H])c6[H])c(C(=O)N([H])[H])c5N([H])[H])C4([H])[H])C([H])([H])[H])c(C([H])([H])[H])c3C([H])([H])[H])c([H])c([H])c2C1([H])[H]

$$$$
33:0:0
     RDKit          3D

 86 95  0  0  1  0  0  0  0  0999 V2000
  -29.6880  -22.4290   19.3440 C   0  0  0  0  0  2  0  0  0  0  0  0
  -28.7460  -22.8200   20.2220 C   0  0  0  0  0  3  0  0  0  0  0  0
  -29.9810  -21.0160   19.8790 C   0  0  0  0  0  3  0  0  0  0  0  0
  -28.8120  -21.2590   20.7970 C   0  0  0  0  0  3  0  0  0  0  0  0
  -29.1310  -19.7110   20.0940 C   0  0  0  0  0  3  0  0  0  0  0  0
  -27.8530  -24.2970   20.4790 C   0  0  0  0  0  2  0  0  0  0  0  0
  -28.1830  -25.8940   20.2690 O   0  0  0  0  0  0  0  0  0  0  0  0
  -24.5970  -31.8800   23.1870 C   0  0  0  0  0  0  0  0  0  0  0  0
  -27.1710  -26.9890   20.2280 C   0  0  0  0  0  0  0  0  0  0  0  0
  -23.4100  -30.4680   21.5570 C   0  0  0  0  0  3  0  0  0  0  0  0
  -24.8670  -28.8570   20.1550 C   0  0  0  0  0  0  0  0  0  0  0  0
  -25.9770  -30.6880   21.4160 C   0  0  0  0  0  2  0  0  0  0  0  0
  -26.0530  -29.2720   20.7750 C   0  0  0  0  0  0  0  0  0  0  0  0
  -27.2020  -28.3600   20.7840 C   0  0  0  0  0  3  0  0  0  0  0  0
  -25.9560  -26.7280   19.5550 C   0  0  0  0  0  3  0  0  0  0  0  0
  -24.8440  -27.6060   19.5220 C   0  0  0  0  0  3  0  0  0  0  0  0
  -23.6460  -29.7750   20.1870 C   0  0  0  0  0  2  0  0  0  0  0  0
  -24.6820  -31.0390   22.1070 N   0  0  0  0  0  0  0  0  0  0  0  0
  -23.5050  -32.1710   23.7030 O   0  0  0  0  0  0  0  0  0  0  0  0
  -22.7150  -29.4780   22.5280 C   0  0  0  0  0  0  0  0  0  0  0  0
  -21.3850  -29.3160   22.4050 N   0  0  0  0  0  0  0  0  0  0  0  0
  -23.3800  -28.8570   23.3610 O   0  0  0  0  0  0  0  0  0  0  0  0
  -20.9020  -29.8670   21.7100 H   0  0  0  0  0  0  0  0  0  0  0  0
  -17.9960  -28.1350   22.9410 C   0  0  0  0  0  0  0  0  0  0  0  0
  -20.5600  -28.3850   23.1830 C   0  0  0  0  0  3  0  0  0  0  0  0
  -20.6470  -26.9520   22.6080 C   0  0  0  0  0  2  0  0  0  0  0  0
  -19.5350  -26.6360   21.6040 C   0  0  0  0  0  2  0  0  0  0  0  0
  -18.1590  -26.7880   22.2590 C   0  0  0  0  0  2  0  0  0  0  0  0
  -19.1230  -28.8930   23.3600 C   0  0  0  0  0  0  0  0  0  0  0  0
  -18.9140  -30.1530   23.9620 C   0  0  0  0  0  3  0  0  0  0  0  0
  -17.6120  -30.6560   24.1460 C   0  0  0  0  0  3  0  0  0  0  0  0
  -16.5010  -29.8980   23.7400 C   0  0  0  0  0  3  0  0  0  0  0  0
  -16.6930  -28.6390   23.1430 C   0  0  0  0  0  3  0  0  0  0  0  0
  -25.8650  -32.5300   23.8180 C   0  0  0  0  0  3  0  0  0  0  0  0
  -25.5420  -33.9310   24.1420 N   0  0  0  0  0  0  0  0  0  0  0  0
  -25.8720  -34.9900   23.3890 C   0  0  0  0  0  0  0  0  0  0  0  0
  -26.5430  -34.8890   22.3590 O   0  0  0  0  0  0  0  0  0  0  0  0
  -24.9450  -34.0810   24.9410 H   0  0  0  0  0  0  0  0  0  0  0  0
  -24.1480  -36.7900   23.0350 C   0  0  0  0  0  1  0  0  0  0  0  0
  -25.3850  -36.3780   23.8510 C   0  0  0  0  0  3  0  0  0  0  0  0
  -27.5100  -37.2670   24.7030 C   0  0  0  0  0  1  0  0  0  0  0  0
  -26.4190  -37.4310   23.7460 N   0  0  0  0  0  0  0  0  0  0  0  0
  -26.0110  -38.3520   23.8850 H   0  0  0  0  0  0  0  0  0  0  0  0
  -26.3690  -31.7740   25.1100 C   0  0  1  0  0  0  0  0  0  0  0  0
  -25.2650  -31.5450   26.1680 C   0  0  0  0  0  1  0  0  0  0  0  0
  -26.9610  -30.3940   24.7480 C   0  0  0  0  0  1  0  0  0  0  0  0
  -27.5100  -32.5790   25.7750 C   0  0  0  0  0  1  0  0  0  0  0  0
  -29.9630  -18.1980   20.5290 C   0  0  0  0  0  2  0  0  0  0  0  0
  -30.4320  -15.2990   20.2820 C   0  0  0  0  0  0  0  0  0  0  0  0
  -30.4160  -12.8660   19.3820 C   0  0  0  0  0  2  0  0  0  0  0  0
  -29.4940  -12.6600   18.1530 C   0  0  0  0  0  2  0  0  0  0  0  0
  -28.0460  -12.3820   18.5950 C   0  0  0  0  0  2  0  0  0  0  0  0
  -27.5910  -13.3370   19.7260 C   0  0  0  0  0  3  0  0  0  0  0  0
  -28.6400  -13.4860   20.8470 C   0  0  0  0  0  2  0  0  0  0  0  0
  -29.8640  -13.9980   20.2110 N   0  0  0  0  0  0  0  0  0  0  0  0
  -31.6550  -15.3060   20.0870 O   0  0  0  0  0  0  0  0  0  0  0  0
  -29.6640  -16.5640   20.3740 N   0  0  0  0  0  0  0  0  0  0  0  0
  -28.6760  -16.3630   20.4250 H   0  0  0  0  0  0  0  0  0  0  0  0
  -25.2170  -13.8740   20.4870 C   0  0  0  0  0  0  0  0  0  0  0  0
  -24.1620  -13.0860   20.8550 C   0  0  0  0  0  0  0  0  0  0  0  0
  -24.6410  -11.7410   20.8190 C   0  0  0  0  0  0  0  0  0  0  0  0
  -26.2670  -13.0080   20.2380 N   0  0  0  0  0  0  0  0  0  0  0  0
  -25.9340  -11.7200   20.5070 N   0  0  0  0  0  0  0  0  0  0  0  0
  -23.9260  -10.4710   21.0020 C   0  0  0  0  0  0  0  0  0  0  0  0
  -24.3500   -9.5120   21.9480 C   0  0  0  0  0  3  0  0  0  0  0  0
  -23.6300   -8.3100   22.1210 C   0  0  0  0  0  3  0  0  0  0  0  0
  -22.4730   -8.0580   21.3480 C   0  0  0  0  0  0  0  0  0  0  0  0
  -22.0680   -9.0050   20.3910 C   0  0  0  0  0  3  0  0  0  0  0  0
  -22.7880  -10.1990   20.2170 C   0  0  0  0  0  3  0  0  0  0  0  0
  -21.7260   -6.9070   21.4300 O   0  0  0  0  0  0  0  0  0  0  0  0
  -21.6500   -6.1790   22.5890 C   0  0  0  0  0  0  0  0  0  0  0  0
  -21.1500   -6.7350   23.7870 C   0  0  0  0  0  3  0  0  0  0  0  0
  -21.0240   -5.9320   24.9380 C   0  0  0  0  0  3  0  0  0  0  0  0
  -21.3880   -4.5730   24.8920 C   0  0  0  0  0  0  0  0  0  0  0  0
  -21.8800   -4.0150   23.6990 C   0  0  0  0  0  3  0  0  0  0  0  0
  -22.0070   -4.8160   22.5500 C   0  0  0  0  0  0  0  0  0  0  0  0
  -22.4630   -4.2680   21.3970 F   0  0  0  0  0  0  0  0  0  0  0  0
  -21.2600   -3.7980   25.9950 F   0  0  0  0  0  0  0  0  0  0  0  0
  -22.7610  -13.5510   21.1230 C   0  0  0  0  0  0  0  0  0  0  0  0
  -22.0360  -12.8450   21.9820 N   0  0  0  0  0  0  0  0  0  0  0  0
  -22.3190  -14.5760   20.6050 O   0  0  0  0  0  0  0  0  0  0  0  0
  -22.4080  -12.0170   22.4230 H   0  0  0  0  0  0  0  0  0  0  0  0
  -21.0940  -13.1360   22.2040 H   0  0  0  0  0  0  0  0  0  0  0  0
  -25.3650  -15.2470   20.3120 N   0  0  0  0  0  0  0  0  0  0  0  0
  -24.5870  -15.8900   20.4180 H   0  0  0  0  0  0  0  0  0  0  0  0
  -26.1950  -15.6900   19.9410 H   0  0  0  0  0  0  0  0  0  0  0  0
  1  2  1  0
  2  6  1  0
  2  4  1  0
  3  1  1  0
  3  5  1  0
  3  4  1  0
  5 48  1  0
  5  4  1  0
  7  6  1  0
  8 19  2  0
  8 34  1  0
  9  7  1  0
  9 14  1  0
 10 18  1  0
 10 20  1  0
 11 17  1  0
 11 13  1  0
 12 18  1  0
 13 14  2  0
 13 12  1  0
 15  9  2  0
 16 15  1  0
 16 11  2  0
 17 10  1  0
 18  8  1  0
 20 22  2  0
 21 20  1  0
 21 25  1  0
 23 21  1  0
 24 33  2  0
 24 29  1  0
 25 29  1  0
 26 25  1  0
 27 28  1  0
 27 26  1  0
 28 24  1  0
 29 30  2  0
 30 31  1  0
 32 31  2  0
 33 32  1  0
 34 35  1  0
 34 44  1  0
 35 38  1  0
 36 40  1  0
 36 35  1  0
 37 36  2  0
 39 40  1  0
 42 40  1  0
 42 43  1  0
 42 41  1  0
 44 47  1  1
 44 45  1  0
 46 44  1  0
 49 57  1  0
 50 55  1  0
 51 52  1  0
 51 50  1  0
 52 53  1  0
 53 62  1  0
 53 54  1  0
 55 49  1  0
 55 54  1  0
 56 49  2  0
 57 58  1  0
 57 48  1  0
 59 60  2  0
 60 79  1  0
 61 60  1  0
 61 64  1  0
 62 59  1  0
 62 63  1  0
 63 61  2  0
 64 65  1  0
 65 66  2  0
 67 70  1  0
 67 66  1  0
 68 67  2  0
 69 68  1  0
 69 64  2  0
 70 71  1  0
 71 72  1  0
 72 73  2  0
 74 73  1  0
 74 78  1  0
 75 74  2  0
 76 71  2  0
 76 75  1  0
 77 76  1  0
 79 80  1  0
 80 83  1  0
 80 82  1  0
 81 79  2  0
 84 85  1  0
 84 59  1  0
 86 84  1  0
M  ISO  4   6 101   7 101  49 100  57 100
M  END
>  <TORSDO>  (34) 
F 18

>  <SCORE>  (34) 
-15.768

>  <name>  (34) 
33

>  <ligand_id>  (34) 
33

>  <original_smiles>  (34) 
[H]C1=C(C([H])([H])Oc2c([H])c([H])c3c(c2[H])C([H])([H])N(C(=O)C([H])(N([H])C(=O)C([H])(N([H])C([H])([H])[H])C([H])([H])[H])C(C([H])([H])[H])(C([H])([H])[H])C([H])([H])[H])C([H])(C(=O)N([H])C2([H])c4c([H])c([H])c([H])c([H])c4C([H])([H])C([H])([H])C2([H])[H])C3([H])[H])C2([H])C1([H])C2([H])C([H])([H])N([H])C(=O)N1C([H])([H])C([H])([H])C([H])([H])C([H])(n2nc(-c3c([H])c([H])c(Oc4c([H])c([H])c(F)c([H])c4F)c([H])c3[H])c(C(=O)N([H])[H])c2N([H])[H])C1([H])[H]

>  <smiles>  (34) 
[H]C1=C(C([H])([H])Oc2c([H])c([H])c3c(c2[H])C([H])([H])N(C(=O)C([H])(N([H])C(=O)C([H])(N([H])C([H])([H])[H])C([H])([H])[H])C(C([H])([H])[H])(C([H])([H])[H])C([H])([H])[H])C([H])(C(=O)N([H])C2([H])c4c([H])c([H])c([H])c([H])c4C([H])([H])C([H])([H])C2([H])[H])C3([H])[H])C2([H])C1([H])C2([H])C([H])([H])N([H])C(=O)N1C([H])([H])C([H])([H])C([H])([H])C([H])(n2nc(-c3c([H])c([H])c(Oc4c([H])c([H])c(F)c([H])c4F)c([H])c3[H])c(C(=O)N([H])[H])c2N([H])[H])C1([H])[H]

$$$$
34:0:0
     RDKit          3D

 94101  0  0  1  0  0  0  0  0999 V2000
  -29.1160  -20.4910   19.9200 N   0  0  0  0  0  4  0  0  0  0  0  0
  -30.0800  -20.7060   19.7230 H   0  0  0  0  0  0  0  0  0  0  0  0
  -28.6750  -20.2640   19.0420 H   0  0  0  0  0  0  0  0  0  0  0  0
  -28.4650  -21.7310   20.4360 C   0  0  0  0  0  2  0  0  0  0  0  0
  -28.7790  -22.9520   19.5160 C   0  0  0  0  0  2  0  0  0  0  0  0
  -27.8720  -24.2180   19.6010 C   0  0  0  0  0  2  0  0  0  0  0  0
  -28.2700  -25.3370   20.6020 C   0  0  0  0  0  2  0  0  0  0  0  0
  -28.2990  -26.6720   20.0460 O   0  0  0  0  0  0  0  0  0  0  0  0
  -24.5700  -31.8960   23.1610 C   0  0  0  0  0  0  0  0  0  0  0  0
  -27.1310  -27.4070   20.0740 C   0  0  0  0  0  0  0  0  0  0  0  0
  -23.3240  -30.4820   21.5580 C   0  0  0  0  0  3  0  0  0  0  0  0
  -24.7430  -28.9270   20.1180 C   0  0  0  0  0  0  0  0  0  0  0  0
  -25.8470  -30.8320   21.3040 C   0  0  0  0  0  2  0  0  0  0  0  0
  -25.9160  -29.4540   20.6720 C   0  0  0  0  0  0  0  0  0  0  0  0
  -27.1140  -28.7030   20.6410 C   0  0  0  0  0  3  0  0  0  0  0  0
  -25.9420  -26.8960   19.5140 C   0  0  0  0  0  3  0  0  0  0  0  0
  -24.7520  -27.6480   19.5330 C   0  0  0  0  0  3  0  0  0  0  0  0
  -23.5020  -29.7880   20.1820 C   0  0  0  0  0  2  0  0  0  0  0  0
  -24.6000  -31.0860   22.0650 N   0  0  0  0  0  0  0  0  0  0  0  0
  -23.5020  -32.1750   23.7240 O   0  0  0  0  0  0  0  0  0  0  0  0
  -22.6920  -29.4720   22.5430 C   0  0  0  0  0  0  0  0  0  0  0  0
  -21.3710  -29.2610   22.4190 N   0  0  0  0  0  0  0  0  0  0  0  0
  -23.3880  -28.8780   23.3710 O   0  0  0  0  0  0  0  0  0  0  0  0
  -20.8720  -29.7860   21.7160 H   0  0  0  0  0  0  0  0  0  0  0  0
  -18.0260  -27.9930   22.9260 C   0  0  0  0  0  0  0  0  0  0  0  0
  -20.5730  -28.3250   23.2110 C   0  0  0  0  0  3  0  0  0  0  0  0
  -20.7180  -26.8820   22.6740 C   0  0  0  0  0  2  0  0  0  0  0  0
  -19.6330  -26.5010   21.6610 C   0  0  0  0  0  2  0  0  0  0  0  0
  -18.2440  -26.6300   22.2900 C   0  0  0  0  0  2  0  0  0  0  0  0
  -19.1200  -28.7940   23.3420 C   0  0  0  0  0  0  0  0  0  0  0  0
  -18.8640  -30.0690   23.8930 C   0  0  0  0  0  3  0  0  0  0  0  0
  -17.5450  -30.5420   24.0310 C   0  0  0  0  0  3  0  0  0  0  0  0
  -16.4660  -29.7360   23.6320 C   0  0  0  0  0  3  0  0  0  0  0  0
  -16.7070  -28.4640   23.0840 C   0  0  0  0  0  3  0  0  0  0  0  0
  -25.8710  -32.5290   23.7450 C   0  0  0  0  0  3  0  0  0  0  0  0
  -25.5580  -33.9110   24.1290 N   0  0  0  0  0  0  0  0  0  0  0  0
  -25.8490  -34.9910   23.3910 C   0  0  0  0  0  0  0  0  0  0  0  0
  -26.4830  -34.9270   22.3330 O   0  0  0  0  0  0  0  0  0  0  0  0
  -24.9860  -34.0340   24.9530 H   0  0  0  0  0  0  0  0  0  0  0  0
  -24.0900  -36.7710   23.1470 C   0  0  0  0  0  1  0  0  0  0  0  0
  -25.3590  -36.3560   23.9070 C   0  0  0  0  0  3  0  0  0  0  0  0
  -27.5050  -37.2420   24.7060 C   0  0  0  0  0  1  0  0  0  0  0  0
  -26.3750  -37.4240   23.7990 N   0  0  0  0  0  0  0  0  0  0  0  0
  -25.9610  -38.3340   23.9870 H   0  0  0  0  0  0  0  0  0  0  0  0
  -26.4570  -31.7280   24.9720 C   0  0  1  0  0  0  0  0  0  0  0  0
  -25.4110  -31.4170   26.0670 C   0  0  0  0  0  1  0  0  0  0  0  0
  -27.0640  -30.3830   24.5060 C   0  0  0  0  0  1  0  0  0  0  0  0
  -27.6060  -32.5330   25.6230 C   0  0  0  0  0  1  0  0  0  0  0  0
  -29.0880  -19.2610   20.7670 C   0  0  0  0  0  2  0  0  0  0  0  0
  -29.7280  -18.0510   20.0130 C   0  0  0  0  0  2  0  0  0  0  0  0
  -30.0340  -16.7240   20.7840 C   0  0  0  0  0  3  0  0  0  0  0  0
  -31.2030  -14.5890   19.9650 C   0  0  0  0  0  0  0  0  0  0  0  0
  -30.7180  -12.4770   18.8210 C   0  0  0  0  0  2  0  0  0  0  0  0
  -29.7340  -12.7690   17.6710 C   0  0  0  0  0  2  0  0  0  0  0  0
  -28.2820  -12.6780   18.1790 C   0  0  0  0  0  2  0  0  0  0  0  0
  -28.0460  -13.4980   19.4770 C   0  0  0  0  0  3  0  0  0  0  0  0
  -29.1540  -13.2410   20.5240 C   0  0  0  0  0  2  0  0  0  0  0  0
  -30.4470  -13.4680   19.8710 N   0  0  0  0  0  0  0  0  0  0  0  0
  -32.3780  -14.6300   19.6040 O   0  0  0  0  0  0  0  0  0  0  0  0
  -30.5220  -15.7380   19.7990 N   0  0  0  0  0  0  0  0  0  0  0  0
  -30.9950  -16.2390   19.0650 H   0  0  0  0  0  0  0  0  0  0  0  0
  -25.7150  -14.1680   20.3260 C   0  0  0  0  0  0  0  0  0  0  0  0
  -24.6390  -13.4250   20.7320 C   0  0  0  0  0  0  0  0  0  0  0  0
  -25.0510  -12.0600   20.6550 C   0  0  0  0  0  0  0  0  0  0  0  0
  -26.7140  -13.2560   20.0260 N   0  0  0  0  0  0  0  0  0  0  0  0
  -26.3230  -11.9820   20.2840 N   0  0  0  0  0  0  0  0  0  0  0  0
  -24.2900  -10.8190   20.8560 C   0  0  0  0  0  0  0  0  0  0  0  0
  -24.6950   -9.8510   21.8030 C   0  0  0  0  0  3  0  0  0  0  0  0
  -23.9360   -8.6750   21.9910 C   0  0  0  0  0  3  0  0  0  0  0  0
  -22.7610   -8.4610   21.2320 C   0  0  0  0  0  0  0  0  0  0  0  0
  -22.3770   -9.4160   20.2740 C   0  0  0  0  0  3  0  0  0  0  0  0
  -23.1360  -10.5830   20.0840 C   0  0  0  0  0  3  0  0  0  0  0  0
  -21.9750   -7.3380   21.3310 O   0  0  0  0  0  0  0  0  0  0  0  0
  -21.8460   -6.6510   22.5110 C   0  0  0  0  0  0  0  0  0  0  0  0
  -21.3720   -7.2720   23.6870 C   0  0  0  0  0  3  0  0  0  0  0  0
  -21.1890   -6.5110   24.8590 C   0  0  0  0  0  3  0  0  0  0  0  0
  -21.4720   -5.1320   24.8550 C   0  0  0  0  0  0  0  0  0  0  0  0
  -21.9370   -4.5120   23.6830 C   0  0  0  0  0  3  0  0  0  0  0  0
  -22.1220   -5.2690   22.5140 C   0  0  0  0  0  0  0  0  0  0  0  0
  -22.5530   -4.6620   21.3820 F   0  0  0  0  0  0  0  0  0  0  0  0
  -21.2870   -4.3990   25.9790 F   0  0  0  0  0  0  0  0  0  0  0  0
  -23.2740  -13.9450   21.0770 C   0  0  0  0  0  0  0  0  0  0  0  0
  -22.5770  -13.2760   21.9880 N   0  0  0  0  0  0  0  0  0  0  0  0
  -22.8360  -14.9780   20.5720 O   0  0  0  0  0  0  0  0  0  0  0  0
  -22.9450  -12.4390   22.4140 H   0  0  0  0  0  0  0  0  0  0  0  0
  -21.6630  -13.6050   22.2620 H   0  0  0  0  0  0  0  0  0  0  0  0
  -25.9180  -15.5350   20.1650 N   0  0  0  0  0  0  0  0  0  0  0  0
  -25.1710  -16.2090   20.3010 H   0  0  0  0  0  0  0  0  0  0  0  0
  -26.7510  -15.9420   19.7610 H   0  0  0  0  0  0  0  0  0  0  0  0
  -30.9870  -16.9050   21.9770 C   0  0  0  0  0  0  0  0  0  0  0  0
  -30.4870  -16.7500   23.1930 N   0  0  0  0  0  0  0  0  0  0  0  0
  -32.1690  -17.1880   21.7980 O   0  0  0  0  0  0  0  0  0  0  0  0
  -29.5110  -16.5190   23.3230 H   0  0  0  0  0  0  0  0  0  0  0  0
  -31.0760  -16.8610   24.0060 H   0  0  0  0  0  0  0  0  0  0  0  0
  1  4  1  0
  1 49  1  0
  2  1  1  0
  3  1  1  0
  5  6  1  0
  5  4  1  0
  6  7  1  0
  8 10  1  0
  8  7  1  0
  9 20  2  0
 10 15  1  0
 11 19  1  0
 11 21  1  0
 12 18  1  0
 12 14  1  0
 13 19  1  0
 14 13  1  0
 15 14  2  0
 16 17  1  0
 16 10  2  0
 17 12  2  0
 18 11  1  0
 19  9  1  0
 21 23  2  0
 22 21  1  0
 24 22  1  0
 25 34  2  0
 25 30  1  0
 26 22  1  0
 26 30  1  0
 27 26  1  0
 28 29  1  0
 28 27  1  0
 29 25  1  0
 30 31  2  0
 31 32  1  0
 33 32  2  0
 34 33  1  0
 35  9  1  0
 35 36  1  0
 35 45  1  0
 36 39  1  0
 37 41  1  0
 37 36  1  0
 38 37  2  0
 41 40  1  0
 43 41  1  0
 43 44  1  0
 43 42  1  0
 45 48  1  1
 45 46  1  0
 47 45  1  0
 50 49  1  0
 51 50  1  0
 51 90  1  0
 53 58  1  0
 54 55  1  0
 54 53  1  0
 56 55  1  0
 56 65  1  0
 56 57  1  0
 58 52  1  0
 58 57  1  0
 59 52  2  0
 60 52  1  0
 60 51  1  0
 61 60  1  0
 62 63  2  0
 63 82  1  0
 64 63  1  0
 64 67  1  0
 65 66  1  0
 65 62  1  0
 66 64  2  0
 67 68  1  0
 68 69  2  0
 70 73  1  0
 70 69  1  0
 71 70  2  0
 72 71  1  0
 72 67  2  0
 73 74  1  0
 74 79  2  0
 74 75  1  0
 75 76  2  0
 77 76  1  0
 77 81  1  0
 78 77  2  0
 79 78  1  0
 80 79  1  0
 82 83  1  0
 83 86  1  0
 83 85  1  0
 84 82  2  0
 87 88  1  0
 87 62  1  0
 89 87  1  0
 90 91  1  0
 91 93  1  0
 91 94  1  0
 92 90  2  0
M  ISO  4   7 101   8 101  52 100  60 100
M  END
>  <TORSDO>  (35) 
F 24

>  <SCORE>  (35) 
-11.469

>  <name>  (35) 
34

>  <ligand_id>  (35) 
34

>  <original_smiles>  (35) 
[H]c1c([H])c([H])c2c(c1[H])C([H])([H])C([H])([H])C([H])([H])C2([H])N([H])C(=O)C1([H])N(C(=O)C([H])(N([H])C(=O)C([H])(N([H])C([H])([H])[H])C([H])([H])[H])C(C([H])([H])[H])(C([H])([H])[H])C([H])([H])[H])C([H])([H])c2c([H])c(OC([H])([H])C([H])([H])C([H])([H])C([H])([H])[N+]([H])([H])C([H])([H])C([H])([H])C([H])(C(=O)N([H])[H])N([H])C(=O)N3C([H])([H])C([H])([H])C([H])([H])C([H])(n4nc(-c5c([H])c([H])c(Oc6c([H])c([H])c(F)c([H])c6F)c([H])c5[H])c(C(=O)N([H])[H])c4N([H])[H])C3([H])[H])c([H])c([H])c2C1([H])[H]

>  <smiles>  (35) 
[H]c1c([H])c([H])c2c(c1[H])C([H])([H])C([H])([H])C([H])([H])C2([H])N([H])C(=O)C1([H])N(C(=O)C([H])(N([H])C(=O)C([H])(N([H])C([H])([H])[H])C([H])([H])[H])C(C([H])([H])[H])(C([H])([H])[H])C([H])([H])[H])C([H])([H])c2c([H])c(OC([H])([H])C([H])([H])C([H])([H])C([H])([H])[N+]([H])([H])C([H])([H])C([H])([H])C([H])(C(=O)N([H])[H])N([H])C(=O)N3C([H])([H])C([H])([H])C([H])([H])C([H])(n4nc(-c5c([H])c([H])c(Oc6c([H])c([H])c(F)c([H])c6F)c([H])c5[H])c(C(=O)N([H])[H])c4N([H])[H])C3([H])[H])c([H])c([H])c2C1([H])[H]

$$$$
35:0:0
     RDKit          3D

 93102  0  0  1  0  0  0  0  0999 V2000
  -29.6670  -21.2680   20.2900 C   0  0  0  0  0  2  0  0  0  0  0  0
  -28.2270  -18.1410   17.7520 C   0  0  0  0  0  2  0  0  0  0  0  0
  -27.8340  -19.4780   19.9980 C   0  0  0  0  0  2  0  0  0  0  0  0
  -28.0340  -19.4160   18.5090 C   0  0  0  0  0  3  0  0  0  0  0  0
  -29.4390  -18.8800   18.2910 C   0  0  0  0  0  3  0  0  0  0  0  0
  -29.2570  -19.6880   20.5300 C   0  0  0  0  0  3  0  0  0  0  0  0
  -30.1220  -18.6170   19.6540 C   0  0  2  0  0  0  0  0  0  0  0  0
  -31.5940  -19.1160   19.6550 C   0  0  0  0  0  1  0  0  0  0  0  0
  -30.2640  -16.9810   19.8660 C   0  0  0  0  0  3  0  0  0  0  0  0
  -30.7270  -16.3520   18.5230 C   0  0  0  0  0  1  0  0  0  0  0  0
  -30.1270  -16.1940   20.9260 N   0  0  0  0  0  2  0  0  0  0  0  0
  -30.8340  -14.9270   20.9550 C   0  0  0  0  0  0  0  0  0  0  0  0
  -30.7090  -12.5760   20.1200 C   0  0  0  0  0  2  0  0  0  0  0  0
  -29.9220  -12.5190   18.7940 C   0  0  0  0  0  2  0  0  0  0  0  0
  -28.4180  -12.3500   19.0750 C   0  0  0  0  0  2  0  0  0  0  0  0
  -27.8940  -13.3280   20.1590 C   0  0  0  0  0  3  0  0  0  0  0  0
  -28.8240  -13.4060   21.3850 C   0  0  0  0  0  2  0  0  0  0  0  0
  -30.1750  -13.7150   20.9090 N   0  0  0  0  0  0  0  0  0  0  0  0
  -32.0570  -14.9050   20.8200 O   0  0  0  0  0  0  0  0  0  0  0  0
  -25.4480  -13.9000   20.6660 C   0  0  0  0  0  0  0  0  0  0  0  0
  -24.3600  -13.1210   20.9520 C   0  0  0  0  0  0  0  0  0  0  0  0
  -24.8370  -11.7740   21.0010 C   0  0  0  0  0  0  0  0  0  0  0  0
  -26.5160  -13.0290   20.5420 N   0  0  0  0  0  0  0  0  0  0  0  0
  -26.1510  -11.7470   20.8120 N   0  0  0  0  0  0  0  0  0  0  0  0
  -24.1090  -10.5070   21.1550 C   0  0  0  0  0  0  0  0  0  0  0  0
  -24.4720   -9.5600   22.1370 C   0  0  0  0  0  3  0  0  0  0  0  0
  -23.7430   -8.3590   22.2770 C   0  0  0  0  0  3  0  0  0  0  0  0
  -22.6370   -8.0960   21.4330 C   0  0  0  0  0  0  0  0  0  0  0  0
  -22.2950   -9.0320   20.4430 C   0  0  0  0  0  3  0  0  0  0  0  0
  -23.0240  -10.2240   20.3000 C   0  0  0  0  0  3  0  0  0  0  0  0
  -21.8880   -6.9450   21.4800 O   0  0  0  0  0  0  0  0  0  0  0  0
  -21.7510   -6.2200   22.6370 C   0  0  0  0  0  0  0  0  0  0  0  0
  -21.1880   -6.7780   23.8050 C   0  0  0  0  0  3  0  0  0  0  0  0
  -21.0040   -5.9770   24.9500 C   0  0  0  0  0  3  0  0  0  0  0  0
  -21.3720   -4.6180   24.9260 C   0  0  0  0  0  0  0  0  0  0  0  0
  -21.9290   -4.0590   23.7630 C   0  0  0  0  0  3  0  0  0  0  0  0
  -22.1140   -4.8580   22.6200 C   0  0  0  0  0  0  0  0  0  0  0  0
  -22.6320   -4.3080   21.4950 F   0  0  0  0  0  0  0  0  0  0  0  0
  -21.1880   -3.8480   26.0230 F   0  0  0  0  0  0  0  0  0  0  0  0
  -22.9390  -13.5850   21.0800 C   0  0  0  0  0  0  0  0  0  0  0  0
  -22.1460  -12.9120   21.9040 N   0  0  0  0  0  0  0  0  0  0  0  0
  -22.5380  -14.5810   20.4790 O   0  0  0  0  0  0  0  0  0  0  0  0
  -22.4830  -12.1080   22.4130 H   0  0  0  0  0  0  0  0  0  0  0  0
  -21.1870  -13.2050   22.0300 H   0  0  0  0  0  0  0  0  0  0  0  0
  -25.6190  -15.2670   20.4740 N   0  0  0  0  0  0  0  0  0  0  0  0
  -24.8520  -15.9270   20.5110 H   0  0  0  0  0  0  0  0  0  0  0  0
  -26.5100  -15.7010   20.2670 H   0  0  0  0  0  0  0  0  0  0  0  0
  -28.6960  -22.4260   20.5640 N   0  0  0  0  0  4  0  0  0  0  0  0
  -28.3850  -22.3500   21.5210 H   0  0  0  0  0  0  0  0  0  0  0  0
  -27.8860  -22.2690   19.9850 H   0  0  0  0  0  0  0  0  0  0  0  0
  -29.1640  -23.8790   20.3330 C   0  0  0  0  0  3  0  0  0  0  0  0
  -28.0410  -25.0160   20.1010 C   0  0  0  0  0  3  0  0  0  0  0  0
  -28.3230  -26.4930   20.1780 O   0  0  0  0  0  0  0  0  0  0  0  0
  -24.6050  -31.9200   23.2520 C   0  0  0  0  0  0  0  0  0  0  0  0
  -27.2240  -27.3830   20.1310 C   0  0  0  0  0  0  0  0  0  0  0  0
  -23.4090  -30.5450   21.5910 C   0  0  0  0  0  3  0  0  0  0  0  0
  -24.8640  -29.0250   20.1380 C   0  0  0  0  0  0  0  0  0  0  0  0
  -25.9520  -30.8630   21.4190 C   0  0  0  0  0  2  0  0  0  0  0  0
  -26.0350  -29.4940   20.7470 C   0  0  0  0  0  0  0  0  0  0  0  0
  -27.2180  -28.6880   20.7310 C   0  0  0  0  0  3  0  0  0  0  0  0
  -26.0250  -26.9840   19.4930 C   0  0  0  0  0  3  0  0  0  0  0  0
  -24.8650  -27.7790   19.4990 C   0  0  0  0  0  3  0  0  0  0  0  0
  -23.6270  -29.8980   20.2000 C   0  0  0  0  0  2  0  0  0  0  0  0
  -24.6740  -31.1270   22.1440 N   0  0  0  0  0  0  0  0  0  0  0  0
  -23.5200  -32.1860   23.7880 O   0  0  0  0  0  0  0  0  0  0  0  0
  -22.7490  -29.5080   22.5330 C   0  0  0  0  0  0  0  0  0  0  0  0
  -21.4250  -29.3210   22.3940 N   0  0  0  0  0  0  0  0  0  0  0  0
  -23.4260  -28.8780   23.3490 O   0  0  0  0  0  0  0  0  0  0  0  0
  -20.9370  -29.8830   21.7100 H   0  0  0  0  0  0  0  0  0  0  0  0
  -18.0510  -28.0990   22.8650 C   0  0  0  0  0  0  0  0  0  0  0  0
  -20.6070  -28.3680   23.1480 C   0  0  0  0  0  3  0  0  0  0  0  0
  -20.7190  -26.9450   22.5520 C   0  0  0  0  0  2  0  0  0  0  0  0
  -19.6220  -26.6310   21.5290 C   0  0  0  0  0  2  0  0  0  0  0  0
  -18.2370  -26.7610   22.1690 C   0  0  0  0  0  2  0  0  0  0  0  0
  -19.1640  -28.8610   23.3100 C   0  0  0  0  0  0  0  0  0  0  0  0
  -18.9380  -30.1140   23.9190 C   0  0  0  0  0  3  0  0  0  0  0  0
  -17.6300  -30.6040   24.0910 C   0  0  0  0  0  3  0  0  0  0  0  0
  -16.5310  -29.8390   23.6620 C   0  0  0  0  0  3  0  0  0  0  0  0
  -16.7420  -28.5880   23.0560 C   0  0  0  0  0  3  0  0  0  0  0  0
  -25.8840  -32.5490   23.8860 C   0  0  0  0  0  3  0  0  0  0  0  0
  -25.5760  -33.9490   24.2110 N   0  0  0  0  0  0  0  0  0  0  0  0
  -25.9020  -34.9990   23.4460 C   0  0  0  0  0  0  0  0  0  0  0  0
  -26.5650  -34.8910   22.4090 O   0  0  0  0  0  0  0  0  0  0  0  0
  -24.9910  -34.1070   25.0180 H   0  0  0  0  0  0  0  0  0  0  0  0
  -24.1730  -36.7920   23.0960 C   0  0  0  0  0  1  0  0  0  0  0  0
  -25.4190  -36.3900   23.9010 C   0  0  0  0  0  3  0  0  0  0  0  0
  -27.5550  -37.2820   24.7210 C   0  0  0  0  0  1  0  0  0  0  0  0
  -26.4520  -37.4420   23.7770 N   0  0  0  0  0  0  0  0  0  0  0  0
  -26.0460  -38.3640   23.9180 H   0  0  0  0  0  0  0  0  0  0  0  0
  -26.3850  -31.7780   25.1700 C   0  0  1  0  0  0  0  0  0  0  0  0
  -25.2800  -31.5460   26.2260 C   0  0  0  0  0  1  0  0  0  0  0  0
  -26.9660  -30.3960   24.7880 C   0  0  0  0  0  1  0  0  0  0  0  0
  -27.5300  -32.5690   25.8410 C   0  0  0  0  0  1  0  0  0  0  0  0
  1 48  1  0
  3  6  1  0
  4  2  1  0
  4  3  1  0
  5  2  1  0
  5  4  1  0
  5  7  1  0
  6  1  1  0
  7  8  1  6
  7  9  1  0
  7  6  1  0
  9 10  1  0
  9 11  1  0
 11 12  1  0
 13 18  1  0
 14 15  1  0
 14 13  1  0
 16 15  1  0
 16 23  1  0
 16 17  1  0
 18 12  1  0
 18 17  1  0
 19 12  2  0
 20 21  2  0
 21 22  1  0
 21 40  1  0
 22 25  1  0
 23 20  1  0
 23 24  1  0
 24 22  2  0
 25 26  1  0
 26 27  2  0
 28 31  1  0
 28 27  1  0
 29 28  2  0
 30 29  1  0
 30 25  2  0
 31 32  1  0
 32 33  1  0
 33 34  2  0
 35 34  1  0
 35 39  1  0
 36 35  2  0
 37 32  2  0
 37 36  1  0
 38 37  1  0
 40 41  1  0
 41 44  1  0
 41 43  1  0
 42 40  2  0
 45 46  1  0
 45 20  1  0
 47 45  1  0
 48 49  1  0
 50 48  1  0
 51 48  1  0
 52 53  1  0
 52 51  2  0
 54 65  2  0
 55 53  1  0
 55 60  1  0
 56 64  1  0
 56 66  1  0
 57 63  1  0
 57 59  1  0
 58 64  1  0
 59 58  1  0
 60 59  2  0
 61 62  1  0
 61 55  2  0
 62 57  2  0
 63 56  1  0
 64 54  1  0
 66 68  2  0
 67 66  1  0
 69 67  1  0
 70 79  2  0
 70 75  1  0
 71 67  1  0
 71 75  1  0
 72 71  1  0
 73 74  1  0
 73 72  1  0
 74 70  1  0
 75 76  2  0
 76 77  1  0
 78 77  2  0
 79 78  1  0
 80 54  1  0
 80 81  1  0
 80 90  1  0
 81 84  1  0
 82 86  1  0
 82 81  1  0
 83 82  2  0
 86 85  1  0
 88 86  1  0
 88 89  1  0
 88 87  1  0
 90 93  1  1
 90 91  1  0
 92 90  1  0
M  ISO  4  11 100  12 100  52 101  53 101
M  END
>  <TORSDO>  (36) 
F 21

>  <SCORE>  (36) 
-13.336

>  <name>  (36) 
35

>  <ligand_id>  (36) 
35

>  <original_smiles>  (36) 
[H]c1c([H])c([H])c2c(c1[H])C([H])([H])C([H])([H])C([H])([H])C2([H])N([H])C(=O)C1([H])N(C(=O)C([H])(N([H])C(=O)C([H])(N([H])C([H])([H])[H])C([H])([H])[H])C(C([H])([H])[H])(C([H])([H])[H])C([H])([H])[H])C([H])([H])c2c([H])c(OC([H])([H])C([H])([H])[N+]([H])([H])C([H])([H])C3([H])C([H])([H])C4([H])C([H])([H])C4([H])C3(C(=NC(=O)N3C([H])([H])C([H])([H])C([H])([H])C([H])(n4nc(-c5c([H])c([H])c(Oc6c([H])c([H])c(F)c([H])c6F)c([H])c5[H])c(C(=O)N([H])[H])c4N([H])[H])C3([H])[H])C([H])([H])[H])C([H])([H])[H])c([H])c([H])c2C1([H])[H]

>  <smiles>  (36) 
[H]c1c([H])c([H])c2c(c1[H])C([H])([H])C([H])([H])C([H])([H])C2([H])N([H])C(=O)C1([H])N(C(=O)C([H])(N([H])C(=O)C([H])(N([H])C([H])([H])[H])C([H])([H])[H])C(C([H])([H])[H])(C([H])([H])[H])C([H])([H])[H])C([H])([H])c2c([H])c(OC([H])([H])C([H])([H])[N+]([H])([H])C([H])([H])C3([H])C([H])([H])C4([H])C([H])([H])C4([H])C3(C(=NC(=O)N3C([H])([H])C([H])([H])C([H])([H])C([H])(n4nc(-c5c([H])c([H])c(Oc6c([H])c([H])c(F)c([H])c6F)c([H])c5[H])c(C(=O)N([H])[H])c4N([H])[H])C3([H])[H])C([H])([H])[H])C([H])([H])[H])c([H])c([H])c2C1([H])[H]

$$$$
36:0:0
     RDKit          3D

 89 97  0  0  1  0  0  0  0  0999 V2000
  -29.7740  -21.2880   18.9580 C   0  0  0  0  0  2  0  0  0  0  0  0
  -29.7580  -22.8750   19.0070 C   0  0  0  0  0  2  0  0  0  0  0  0
  -28.7660  -21.9380   20.9320 C   0  0  0  0  0  2  0  0  0  0  0  0
  -29.7030  -20.6930   20.3920 C   0  0  2  0  0  0  0  0  0  0  0  0
  -29.1360  -23.4310   20.3370 C   0  0  1  0  0  0  0  0  0  0  0  0
  -31.1140  -20.7570   21.0320 C   0  0  0  0  0  1  0  0  0  0  0  0
  -30.2220  -24.0820   21.2270 C   0  0  0  0  0  1  0  0  0  0  0  0
  -29.2330  -19.0640   20.5280 C   0  0  0  0  0  3  0  0  0  0  0  0
  -30.2090  -17.7020   20.2980 C   0  0  0  0  0  3  0  0  0  0  0  0
  -30.5290  -14.9820   20.3230 C   0  0  0  0  0  0  0  0  0  0  0  0
  -30.3650  -12.6590   19.3430 C   0  0  0  0  0  2  0  0  0  0  0  0
  -29.4150  -12.6560   18.1240 C   0  0  0  0  0  2  0  0  0  0  0  0
  -27.9550  -12.4440   18.5720 C   0  0  0  0  0  2  0  0  0  0  0  0
  -27.5690  -13.3350   19.7800 C   0  0  0  0  0  3  0  0  0  0  0  0
  -28.6440  -13.3280   20.8910 C   0  0  0  0  0  2  0  0  0  0  0  0
  -29.9090  -13.7380   20.2640 N   0  0  0  0  0  0  0  0  0  0  0  0
  -31.7310  -15.0290   20.0380 O   0  0  0  0  0  0  0  0  0  0  0  0
  -29.7910  -16.1870   20.4790 N   0  0  0  0  0  0  0  0  0  0  0  0
  -28.8090  -16.0410   20.6720 H   0  0  0  0  0  0  0  0  0  0  0  0
  -25.1940  -13.8870   20.5650 C   0  0  0  0  0  0  0  0  0  0  0  0
  -24.1410  -13.1030   20.9430 C   0  0  0  0  0  0  0  0  0  0  0  0
  -24.6130  -11.7550   20.8910 C   0  0  0  0  0  0  0  0  0  0  0  0
  -26.2390  -13.0220   20.2970 N   0  0  0  0  0  0  0  0  0  0  0  0
  -25.9000  -11.7320   20.5610 N   0  0  0  0  0  0  0  0  0  0  0  0
  -23.8940  -10.4880   21.0770 C   0  0  0  0  0  0  0  0  0  0  0  0
  -24.3370   -9.5120   21.9950 C   0  0  0  0  0  3  0  0  0  0  0  0
  -23.6150   -8.3100   22.1690 C   0  0  0  0  0  3  0  0  0  0  0  0
  -22.4330   -8.0790   21.4230 C   0  0  0  0  0  0  0  0  0  0  0  0
  -22.0110   -9.0440   20.4930 C   0  0  0  0  0  3  0  0  0  0  0  0
  -22.7360  -10.2350   20.3180 C   0  0  0  0  0  3  0  0  0  0  0  0
  -21.6790   -6.9340   21.5080 O   0  0  0  0  0  0  0  0  0  0  0  0
  -21.6360   -6.1830   22.6550 C   0  0  0  0  0  0  0  0  0  0  0  0
  -21.1980   -6.7240   23.8850 C   0  0  0  0  0  3  0  0  0  0  0  0
  -21.1070   -5.8980   25.0220 C   0  0  0  0  0  3  0  0  0  0  0  0
  -21.4420   -4.5340   24.9340 C   0  0  0  0  0  0  0  0  0  0  0  0
  -21.8740   -3.9920   23.7090 C   0  0  0  0  0  3  0  0  0  0  0  0
  -21.9660   -4.8150   22.5730 C   0  0  0  0  0  0  0  0  0  0  0  0
  -22.3640   -4.2830   21.3920 F   0  0  0  0  0  0  0  0  0  0  0  0
  -21.3440   -3.7410   26.0250 F   0  0  0  0  0  0  0  0  0  0  0  0
  -22.7450  -13.5700   21.2360 C   0  0  0  0  0  0  0  0  0  0  0  0
  -22.0340  -12.8660   22.1090 N   0  0  0  0  0  0  0  0  0  0  0  0
  -22.2980  -14.6000   20.7310 O   0  0  0  0  0  0  0  0  0  0  0  0
  -22.4100  -12.0370   22.5410 H   0  0  0  0  0  0  0  0  0  0  0  0
  -21.0980  -13.1630   22.3480 H   0  0  0  0  0  0  0  0  0  0  0  0
  -25.3440  -15.2640   20.4010 N   0  0  0  0  0  0  0  0  0  0  0  0
  -24.5580  -15.8980   20.5050 H   0  0  0  0  0  0  0  0  0  0  0  0
  -26.1740  -15.7200   20.0490 H   0  0  0  0  0  0  0  0  0  0  0  0
  -28.0040  -24.6810   20.1750 C   0  0  0  0  0  2  0  0  0  0  0  0
  -28.2570  -26.2190   20.2060 O   0  0  0  0  0  0  0  0  0  0  0  0
  -24.6200  -31.8910   23.2430 C   0  0  0  0  0  0  0  0  0  0  0  0
  -27.1790  -27.1810   20.1780 C   0  0  0  0  0  0  0  0  0  0  0  0
  -23.4060  -30.4970   21.6090 C   0  0  0  0  0  3  0  0  0  0  0  0
  -24.8430  -28.9180   20.1780 C   0  0  0  0  0  0  0  0  0  0  0  0
  -25.9590  -30.7610   21.4240 C   0  0  0  0  0  2  0  0  0  0  0  0
  -26.0280  -29.3670   20.7770 C   0  0  0  0  0  0  0  0  0  0  0  0
  -27.1970  -28.5140   20.7560 C   0  0  0  0  0  3  0  0  0  0  0  0
  -25.9590  -26.8280   19.5550 C   0  0  0  0  0  3  0  0  0  0  0  0
  -24.8210  -27.6620   19.5550 C   0  0  0  0  0  3  0  0  0  0  0  0
  -23.6180  -29.8180   20.2300 C   0  0  0  0  0  2  0  0  0  0  0  0
  -24.6840  -31.0710   22.1480 N   0  0  0  0  0  0  0  0  0  0  0  0
  -23.5390  -32.1760   23.7780 O   0  0  0  0  0  0  0  0  0  0  0  0
  -22.7280  -29.4940   22.5750 C   0  0  0  0  0  0  0  0  0  0  0  0
  -21.3990  -29.3270   22.4500 N   0  0  0  0  0  0  0  0  0  0  0  0
  -23.3990  -28.8690   23.3990 O   0  0  0  0  0  0  0  0  0  0  0  0
  -20.9130  -29.8750   21.7550 H   0  0  0  0  0  0  0  0  0  0  0  0
  -18.0220  -28.1220   22.9620 C   0  0  0  0  0  0  0  0  0  0  0  0
  -20.5820  -28.3930   23.2280 C   0  0  0  0  0  3  0  0  0  0  0  0
  -20.6870  -26.9600   22.6580 C   0  0  0  0  0  2  0  0  0  0  0  0
  -19.5870  -26.6280   21.6450 C   0  0  0  0  0  2  0  0  0  0  0  0
  -18.2040  -26.7710   22.2880 C   0  0  0  0  0  2  0  0  0  0  0  0
  -19.1390  -28.8880   23.3890 C   0  0  0  0  0  0  0  0  0  0  0  0
  -18.9150  -30.1500   23.9830 C   0  0  0  0  0  3  0  0  0  0  0  0
  -17.6100  -30.6480   24.1470 C   0  0  0  0  0  3  0  0  0  0  0  0
  -16.5080  -29.8790   23.7380 C   0  0  0  0  0  3  0  0  0  0  0  0
  -16.7140  -28.6180   23.1510 C   0  0  0  0  0  3  0  0  0  0  0  0
  -25.9020  -32.5230   23.8640 C   0  0  0  0  0  3  0  0  0  0  0  0
  -26.4200  -31.7460   25.1360 C   0  0  1  0  0  0  0  0  0  0  0  0
  -25.3300  -31.5020   26.2070 C   0  0  0  0  0  1  0  0  0  0  0  0
  -26.9950  -30.3680   24.7370 C   0  0  0  0  0  1  0  0  0  0  0  0
  -27.5790  -32.5300   25.7970 C   0  0  0  0  0  1  0  0  0  0  0  0
  -25.5950  -33.9210   24.2110 N   0  0  0  0  0  0  0  0  0  0  0  0
  -25.8960  -34.9810   23.4490 C   0  0  0  0  0  0  0  0  0  0  0  0
  -26.5320  -34.8850   22.3950 O   0  0  0  0  0  0  0  0  0  0  0  0
  -25.0290  -34.0680   25.0330 H   0  0  0  0  0  0  0  0  0  0  0  0
  -24.1400  -36.7630   23.1710 C   0  0  0  0  0  1  0  0  0  0  0  0
  -25.4180  -36.3660   23.9280 C   0  0  0  0  0  3  0  0  0  0  0  0
  -27.5780  -37.2710   24.6660 C   0  0  0  0  0  1  0  0  0  0  0  0
  -26.4350  -37.4290   23.7710 N   0  0  0  0  0  0  0  0  0  0  0  0
  -26.0280  -38.3450   23.9350 H   0  0  0  0  0  0  0  0  0  0  0  0
  1  2  1  0
  1  4  1  0
  2  5  1  0
  4  8  1  0
  4  3  1  0
  4  6  1  1
  5  3  1  0
  5  7  1  1
  9 18  1  0
  9  8  2  0
 10 18  1  0
 11 16  1  0
 12 13  1  0
 12 11  1  0
 14 13  1  0
 14 23  1  0
 14 15  1  0
 16 10  1  0
 16 15  1  0
 17 10  2  0
 18 19  1  0
 20 21  2  0
 21 40  1  0
 22 21  1  0
 22 25  1  0
 23 24  1  0
 23 20  1  0
 24 22  2  0
 25 26  1  0
 26 27  2  0
 28 31  1  0
 28 27  1  0
 29 28  2  0
 30 29  1  0
 30 25  2  0
 31 32  1  0
 32 33  1  0
 33 34  2  0
 35 34  1  0
 35 39  1  0
 36 35  2  0
 37 32  2  0
 37 36  1  0
 38 37  1  0
 40 41  1  0
 41 44  1  0
 41 43  1  0
 42 40  2  0
 45 46  1  0
 45 20  1  0
 47 45  1  0
 48 49  1  0
 48  5  1  0
 50 61  2  0
 51 49  1  0
 51 56  1  0
 52 60  1  0
 52 62  1  0
 53 59  1  0
 53 55  1  0
 54 60  1  0
 55 54  1  0
 56 55  2  0
 57 51  2  0
 58 57  1  0
 58 53  2  0
 59 52  1  0
 60 50  1  0
 62 64  2  0
 63 62  1  0
 65 63  1  0
 66 75  2  0
 66 71  1  0
 67 63  1  0
 67 71  1  0
 68 67  1  0
 69 70  1  0
 69 68  1  0
 70 66  1  0
 71 72  2  0
 72 73  1  0
 74 73  2  0
 75 74  1  0
 76 50  1  0
 76 81  1  0
 76 77  1  0
 77 80  1  1
 77 78  1  0
 79 77  1  0
 81 84  1  0
 82 86  1  0
 82 81  1  0
 83 82  2  0
 86 85  1  0
 88 86  1  0
 88 89  1  0
 88 87  1  0
M  ISO  4  10 100  18 100  48 101  49 101
M  END
>  <TORSDO>  (37) 
F 19

>  <SCORE>  (37) 
-15.499

>  <name>  (37) 
36

>  <ligand_id>  (37) 
36

>  <original_smiles>  (37) 
[H]c1c([H])c([H])c2c(c1[H])C([H])([H])C([H])([H])C([H])([H])C2([H])N([H])C(=O)C1([H])N(C(=O)C([H])(N([H])C(=O)C([H])(N([H])C([H])([H])[H])C([H])([H])[H])C(C([H])([H])[H])(C([H])([H])[H])C([H])([H])[H])C([H])([H])c2c([H])c(OC([H])([H])C3(C([H])([H])[H])C([H])([H])C([H])([H])C(C([H])([H])[H])(C([H])([H])C([H])([H])N([H])C(=O)N4C([H])([H])C([H])([H])C([H])([H])C([H])(n5nc(-c6c([H])c([H])c(Oc7c([H])c([H])c(F)c([H])c7F)c([H])c6[H])c(C(=O)N([H])[H])c5N([H])[H])C4([H])[H])C3([H])[H])c([H])c([H])c2C1([H])[H]

>  <smiles>  (37) 
[H]c1c([H])c([H])c2c(c1[H])C([H])([H])C([H])([H])C([H])([H])C2([H])N([H])C(=O)C1([H])N(C(=O)C([H])(N([H])C(=O)C([H])(N([H])C([H])([H])[H])C([H])([H])[H])C(C([H])([H])[H])(C([H])([H])[H])C([H])([H])[H])C([H])([H])c2c([H])c(OC([H])([H])C3(C([H])([H])[H])C([H])([H])C([H])([H])C(C([H])([H])[H])(C([H])([H])C([H])([H])N([H])C(=O)N4C([H])([H])C([H])([H])C([H])([H])C([H])(n5nc(-c6c([H])c([H])c(Oc7c([H])c([H])c(F)c([H])c7F)c([H])c6[H])c(C(=O)N([H])[H])c5N([H])[H])C4([H])[H])C3([H])[H])c([H])c([H])c2C1([H])[H]

$$$$
37:0:0
     RDKit          3D

 88 98  0  0  1  0  0  0  0  0999 V2000
  -28.6650  -19.0660   17.8740 C   0  0  0  0  0  2  0  0  0  0  0  0
  -27.4830  -17.8360   18.9550 C   0  0  0  0  0  2  0  0  0  0  0  0
  -27.8830  -19.3030   19.1800 C   0  0  2  0  0  0  0  0  0  0  0  0
  -28.9910  -17.7790   18.6430 C   0  0  1  0  0  0  0  0  0  0  0  0
  -28.8780  -19.5090   20.3180 C   0  0  0  0  0  3  0  0  0  0  0  0
  -29.7580  -17.9900   19.9500 C   0  0  0  0  0  3  0  0  0  0  0  0
  -30.4150  -15.1860   20.3550 C   0  0  0  0  0  0  0  0  0  0  0  0
  -30.3720  -12.7500   19.5100 C   0  0  0  0  0  2  0  0  0  0  0  0
  -29.4650  -12.5910   18.2650 C   0  0  0  0  0  2  0  0  0  0  0  0
  -28.0050  -12.3460   18.6820 C   0  0  0  0  0  2  0  0  0  0  0  0
  -27.5570  -13.3020   19.8170 C   0  0  0  0  0  3  0  0  0  0  0  0
  -28.5930  -13.4180   20.9560 C   0  0  0  0  0  2  0  0  0  0  0  0
  -29.8470  -13.8880   20.3480 N   0  0  0  0  0  0  0  0  0  0  0  0
  -31.6150  -15.2020   20.0500 O   0  0  0  0  0  0  0  0  0  0  0  0
  -29.6540  -16.4350   20.5050 N   0  0  0  0  0  0  0  0  0  0  0  0
  -28.7300  -16.2390   20.8590 H   0  0  0  0  0  0  0  0  0  0  0  0
  -25.1760  -13.8660   20.5400 C   0  0  0  0  0  0  0  0  0  0  0  0
  -24.1100  -13.0930   20.9020 C   0  0  0  0  0  0  0  0  0  0  0  0
  -24.5760  -11.7420   20.8800 C   0  0  0  0  0  0  0  0  0  0  0  0
  -26.2210  -12.9910   20.3090 N   0  0  0  0  0  0  0  0  0  0  0  0
  -25.8710  -11.7060   20.5820 N   0  0  0  0  0  0  0  0  0  0  0  0
  -23.8440  -10.4820   21.0670 C   0  0  0  0  0  0  0  0  0  0  0  0
  -24.2720   -9.5080   21.9960 C   0  0  0  0  0  3  0  0  0  0  0  0
  -23.5380   -8.3150   22.1720 C   0  0  0  0  0  3  0  0  0  0  0  0
  -22.3620   -8.0870   21.4180 C   0  0  0  0  0  0  0  0  0  0  0  0
  -21.9530   -9.0490   20.4780 C   0  0  0  0  0  3  0  0  0  0  0  0
  -22.6880  -10.2330   20.2990 C   0  0  0  0  0  3  0  0  0  0  0  0
  -21.6010   -6.9460   21.5030 O   0  0  0  0  0  0  0  0  0  0  0  0
  -21.5570   -6.1940   22.6500 C   0  0  0  0  0  0  0  0  0  0  0  0
  -21.1540   -6.7430   23.8860 C   0  0  0  0  0  3  0  0  0  0  0  0
  -21.0560   -5.9180   25.0240 C   0  0  0  0  0  3  0  0  0  0  0  0
  -21.3520   -4.5450   24.9280 C   0  0  0  0  0  0  0  0  0  0  0  0
  -21.7500   -3.9960   23.6970 C   0  0  0  0  0  3  0  0  0  0  0  0
  -21.8490   -4.8170   22.5600 C   0  0  0  0  0  0  0  0  0  0  0  0
  -22.2110   -4.2790   21.3710 F   0  0  0  0  0  0  0  0  0  0  0  0
  -21.2520   -3.7510   26.0190 F   0  0  0  0  0  0  0  0  0  0  0  0
  -22.7110  -13.5740   21.1540 C   0  0  0  0  0  0  0  0  0  0  0  0
  -21.9700  -12.8840   22.0130 N   0  0  0  0  0  0  0  0  0  0  0  0
  -22.2830  -14.5980   20.6220 O   0  0  0  0  0  0  0  0  0  0  0  0
  -22.3310  -12.0560   22.4650 H   0  0  0  0  0  0  0  0  0  0  0  0
  -21.0310  -13.1880   22.2220 H   0  0  0  0  0  0  0  0  0  0  0  0
  -25.3390  -15.2350   20.3560 N   0  0  0  0  0  0  0  0  0  0  0  0
  -24.5610  -15.8830   20.4380 H   0  0  0  0  0  0  0  0  0  0  0  0
  -26.1680  -15.6610   19.9670 H   0  0  0  0  0  0  0  0  0  0  0  0
  -29.2630  -21.2490   20.1430 C   0  0  0  0  0  2  0  0  0  0  0  0
  -28.4140  -22.7640   20.5640 C   0  0  0  0  0  2  0  0  0  0  0  0
  -28.3310  -24.3840   19.8270 C   0  0  0  0  0  2  0  0  0  0  0  0
  -28.2470  -25.9320   20.3360 O   0  0  0  0  0  0  0  0  0  0  0  0
  -24.6440  -31.8340   23.1960 C   0  0  0  0  0  0  0  0  0  0  0  0
  -27.2110  -26.9820   20.2000 C   0  0  0  0  0  0  0  0  0  0  0  0
  -23.4490  -30.4250   21.5670 C   0  0  0  0  0  3  0  0  0  0  0  0
  -24.8970  -28.8200   20.1470 C   0  0  0  0  0  0  0  0  0  0  0  0
  -26.0090  -30.6520   21.4120 C   0  0  0  0  0  2  0  0  0  0  0  0
  -26.0810  -29.2430   20.7640 C   0  0  0  0  0  0  0  0  0  0  0  0
  -27.2280  -28.3400   20.7730 C   0  0  0  0  0  3  0  0  0  0  0  0
  -26.0030  -26.6980   19.5270 C   0  0  0  0  0  3  0  0  0  0  0  0
  -24.8810  -27.5670   19.5090 C   0  0  0  0  0  3  0  0  0  0  0  0
  -23.6740  -29.7320   20.1940 C   0  0  0  0  0  2  0  0  0  0  0  0
  -24.7220  -30.9970   22.1120 N   0  0  0  0  0  0  0  0  0  0  0  0
  -23.5560  -32.1250   23.7190 O   0  0  0  0  0  0  0  0  0  0  0  0
  -22.7620  -29.4330   22.5410 C   0  0  0  0  0  0  0  0  0  0  0  0
  -21.4300  -29.2710   22.4240 N   0  0  0  0  0  0  0  0  0  0  0  0
  -23.4320  -28.8090   23.3680 O   0  0  0  0  0  0  0  0  0  0  0  0
  -20.9450  -29.8240   21.7320 H   0  0  0  0  0  0  0  0  0  0  0  0
  -18.0490  -28.0730   22.9550 C   0  0  0  0  0  0  0  0  0  0  0  0
  -20.6100  -28.3390   23.2050 C   0  0  0  0  0  3  0  0  0  0  0  0
  -20.7070  -26.9040   22.6390 C   0  0  0  0  0  2  0  0  0  0  0  0
  -19.6010  -26.5760   21.6310 C   0  0  0  0  0  2  0  0  0  0  0  0
  -18.2220  -26.7220   22.2810 C   0  0  0  0  0  2  0  0  0  0  0  0
  -19.1700  -28.8390   23.3740 C   0  0  0  0  0  0  0  0  0  0  0  0
  -18.9510  -30.1010   23.9690 C   0  0  0  0  0  3  0  0  0  0  0  0
  -17.6450  -30.5990   24.1450 C   0  0  0  0  0  3  0  0  0  0  0  0
  -16.5410  -29.8310   23.7380 C   0  0  0  0  0  3  0  0  0  0  0  0
  -16.7430  -28.5700   23.1510 C   0  0  0  0  0  3  0  0  0  0  0  0
  -25.9170  -32.4810   23.8210 C   0  0  0  0  0  3  0  0  0  0  0  0
  -26.4350  -31.7170   25.1030 C   0  0  1  0  0  0  0  0  0  0  0  0
  -25.3420  -31.4840   26.1740 C   0  0  0  0  0  1  0  0  0  0  0  0
  -27.0200  -30.3370   24.7260 C   0  0  0  0  0  1  0  0  0  0  0  0
  -27.5850  -32.5160   25.7610 C   0  0  0  0  0  1  0  0  0  0  0  0
  -25.5950  -33.8780   24.1600 N   0  0  0  0  0  0  0  0  0  0  0  0
  -25.9200  -34.9430   23.4150 C   0  0  0  0  0  0  0  0  0  0  0  0
  -26.5860  -34.8530   22.3800 O   0  0  0  0  0  0  0  0  0  0  0  0
  -25.0010  -34.0210   24.9640 H   0  0  0  0  0  0  0  0  0  0  0  0
  -24.1800  -36.7360   23.0970 C   0  0  0  0  0  1  0  0  0  0  0  0
  -25.4320  -36.3270   23.8900 C   0  0  0  0  0  3  0  0  0  0  0  0
  -27.5710  -37.2160   24.7060 C   0  0  0  0  0  1  0  0  0  0  0  0
  -26.4580  -37.3870   23.7760 N   0  0  0  0  0  0  0  0  0  0  0  0
  -26.0500  -38.3040   23.9360 H   0  0  0  0  0  0  0  0  0  0  0  0
  3  2  1  1
  3  1  1  0
  3  5  1  0
  4  1  1  6
  4  2  1  0
  4  3  1  0
  4  6  1  0
  5 45  1  0
  6  5  1  0
  6 15  1  0
  7 15  1  0
  8 13  1  0
  9 10  1  0
  9  8  1  0
 11 10  1  0
 11 20  1  0
 11 12  1  0
 13  7  1  0
 13 12  1  0
 14  7  2  0
 15 16  1  0
 17 18  2  0
 18 37  1  0
 19 18  1  0
 19 22  1  0
 20 17  1  0
 20 21  1  0
 21 19  2  0
 22 23  1  0
 23 24  2  0
 25 28  1  0
 25 24  1  0
 26 25  2  0
 27 26  1  0
 27 22  2  0
 28 29  1  0
 29 30  1  0
 30 31  2  0
 32 31  1  0
 32 36  1  0
 33 32  2  0
 34 29  2  0
 34 33  1  0
 35 34  1  0
 37 38  1  0
 38 41  1  0
 38 40  1  0
 39 37  2  0
 42 43  1  0
 42 17  1  0
 44 42  1  0
 45 46  1  0
 47 48  1  0
 47 46  1  0
 49 60  2  0
 50 48  1  0
 50 55  1  0
 51 59  1  0
 51 61  1  0
 52 58  1  0
 52 54  1  0
 53 59  1  0
 54 55  2  0
 54 53  1  0
 56 50  2  0
 57 56  1  0
 57 52  2  0
 58 51  1  0
 59 49  1  0
 61 63  2  0
 62 61  1  0
 64 62  1  0
 65 74  2  0
 65 70  1  0
 66 62  1  0
 66 70  1  0
 67 66  1  0
 68 69  1  0
 68 67  1  0
 69 65  1  0
 70 71  2  0
 71 72  1  0
 73 72  2  0
 74 73  1  0
 75 49  1  0
 75 80  1  0
 75 76  1  0
 76 79  1  1
 76 77  1  0
 78 76  1  0
 80 83  1  0
 81 85  1  0
 81 80  1  0
 82 81  2  0
 85 84  1  0
 87 85  1  0
 87 88  1  0
 87 86  1  0
M  ISO  4   7 100  15 100  47 101  48 101
M  END
>  <TORSDO>  (38) 
F 19

>  <SCORE>  (38) 
-15.753

>  <name>  (38) 
37

>  <ligand_id>  (38) 
37

>  <original_smiles>  (38) 
[H]c1c([H])c([H])c2c(c1[H])C([H])([H])C([H])([H])C([H])([H])C2([H])N([H])C(=O)C1([H])N(C(=O)C([H])(N([H])C(=O)C([H])(N([H])C([H])([H])[H])C([H])([H])[H])C(C([H])([H])[H])(C([H])([H])[H])C([H])([H])[H])C([H])([H])c2c([H])c(OC([H])([H])C([H])([H])C([H])([H])C3([H])C([H])(N([H])C(=O)N4C([H])([H])C([H])([H])C([H])([H])C([H])(n5nc(-c6c([H])c([H])c(Oc7c([H])c([H])c(F)c([H])c7F)c([H])c6[H])c(C(=O)N([H])[H])c5N([H])[H])C4([H])[H])C4([H])C([H])([H])C3([H])C4([H])[H])c([H])c([H])c2C1([H])[H]

>  <smiles>  (38) 
[H]c1c([H])c([H])c2c(c1[H])C([H])([H])C([H])([H])C([H])([H])C2([H])N([H])C(=O)C1([H])N(C(=O)C([H])(N([H])C(=O)C([H])(N([H])C([H])([H])[H])C([H])([H])[H])C(C([H])([H])[H])(C([H])([H])[H])C([H])([H])[H])C([H])([H])c2c([H])c(OC([H])([H])C([H])([H])C([H])([H])C3([H])C([H])(N([H])C(=O)N4C([H])([H])C([H])([H])C([H])([H])C([H])(n5nc(-c6c([H])c([H])c(Oc7c([H])c([H])c(F)c([H])c7F)c([H])c6[H])c(C(=O)N([H])[H])c5N([H])[H])C4([H])[H])C4([H])C([H])([H])C3([H])C4([H])[H])c([H])c([H])c2C1([H])[H]

$$$$
38:0:0
     RDKit          3D

 90 99  0  0  1  0  0  0  0  0999 V2000
  -31.5860  -23.5150   19.7230 C   0  0  0  0  0  3  0  0  0  0  0  0
  -31.4380  -22.1410   19.9930 C   0  0  0  0  0  3  0  0  0  0  0  0
  -30.4910  -24.3900   19.8130 C   0  0  0  0  0  3  0  0  0  0  0  0
  -29.0880  -22.4830   20.4450 C   0  0  0  0  0  3  0  0  0  0  0  0
  -30.2000  -21.5550   20.3590 C   0  0  0  0  0  0  0  0  0  0  0  0
  -29.2210  -23.9100   20.1770 C   0  0  0  0  0  0  0  0  0  0  0  0
  -31.0500  -19.2550   19.6770 C   0  0  0  0  0  2  0  0  0  0  0  0
  -30.3220  -20.0270   20.7700 C   0  0  0  0  0  3  0  0  0  0  0  0
  -29.8870  -18.5550   20.2800 C   0  0  0  0  0  3  0  0  0  0  0  0
  -30.2520  -17.2120   21.0630 C   0  0  0  0  0  2  0  0  0  0  0  0
  -30.5910  -14.6910   20.4020 C   0  0  0  0  0  0  0  0  0  0  0  0
  -30.3670  -12.4330   19.3610 C   0  0  0  0  0  2  0  0  0  0  0  0
  -29.4280  -12.5140   18.1380 C   0  0  0  0  0  2  0  0  0  0  0  0
  -27.9550  -12.3630   18.5660 C   0  0  0  0  0  2  0  0  0  0  0  0
  -27.5870  -13.2580   19.7790 C   0  0  0  0  0  3  0  0  0  0  0  0
  -28.6430  -13.1490   20.9010 C   0  0  0  0  0  2  0  0  0  0  0  0
  -29.9440  -13.4830   20.3090 N   0  0  0  0  0  0  0  0  0  0  0  0
  -31.7840  -14.7910   20.1030 O   0  0  0  0  0  0  0  0  0  0  0  0
  -29.8290  -15.8100   20.6570 N   0  0  0  0  0  0  0  0  0  0  0  0
  -28.8420  -15.6210   20.7600 H   0  0  0  0  0  0  0  0  0  0  0  0
  -25.1980  -13.8720   20.4920 C   0  0  0  0  0  0  0  0  0  0  0  0
  -24.1240  -13.1080   20.8600 C   0  0  0  0  0  0  0  0  0  0  0  0
  -24.5790  -11.7530   20.8410 C   0  0  0  0  0  0  0  0  0  0  0  0
  -26.2380  -12.9850   20.2670 N   0  0  0  0  0  0  0  0  0  0  0  0
  -25.8710  -11.7050   20.5410 N   0  0  0  0  0  0  0  0  0  0  0  0
  -23.8440  -10.4980   21.0340 C   0  0  0  0  0  0  0  0  0  0  0  0
  -24.2740   -9.5240   21.9630 C   0  0  0  0  0  3  0  0  0  0  0  0
  -23.5400   -8.3320   22.1430 C   0  0  0  0  0  3  0  0  0  0  0  0
  -22.3600   -8.1070   21.3970 C   0  0  0  0  0  0  0  0  0  0  0  0
  -21.9470   -9.0680   20.4570 C   0  0  0  0  0  3  0  0  0  0  0  0
  -22.6830  -10.2510   20.2740 C   0  0  0  0  0  3  0  0  0  0  0  0
  -21.5960   -6.9680   21.4890 O   0  0  0  0  0  0  0  0  0  0  0  0
  -21.5590   -6.2160   22.6350 C   0  0  0  0  0  0  0  0  0  0  0  0
  -21.1720   -6.7660   23.8760 C   0  0  0  0  0  3  0  0  0  0  0  0
  -21.0810   -5.9410   25.0150 C   0  0  0  0  0  3  0  0  0  0  0  0
  -21.3690   -4.5670   24.9140 C   0  0  0  0  0  0  0  0  0  0  0  0
  -21.7500   -4.0150   23.6780 C   0  0  0  0  0  3  0  0  0  0  0  0
  -21.8420   -4.8370   22.5420 C   0  0  0  0  0  0  0  0  0  0  0  0
  -22.1900   -4.2970   21.3490 F   0  0  0  0  0  0  0  0  0  0  0  0
  -21.2740   -3.7720   26.0070 F   0  0  0  0  0  0  0  0  0  0  0  0
  -22.7280  -13.5960   21.1180 C   0  0  0  0  0  0  0  0  0  0  0  0
  -21.9880  -12.9140   21.9860 N   0  0  0  0  0  0  0  0  0  0  0  0
  -22.3000  -14.6180   20.5830 O   0  0  0  0  0  0  0  0  0  0  0  0
  -22.3470  -12.0900   22.4440 H   0  0  0  0  0  0  0  0  0  0  0  0
  -21.0500  -13.2230   22.1970 H   0  0  0  0  0  0  0  0  0  0  0  0
  -25.3710  -15.2400   20.3040 N   0  0  0  0  0  0  0  0  0  0  0  0
  -24.6070  -15.8990   20.4070 H   0  0  0  0  0  0  0  0  0  0  0  0
  -26.2150  -15.6690   19.9470 H   0  0  0  0  0  0  0  0  0  0  0  0
  -28.0320  -24.9410   20.1710 C   0  0  0  0  0  2  0  0  0  0  0  0
  -28.2990  -26.4130   20.2000 O   0  0  0  0  0  0  0  0  0  0  0  0
  -24.6240  -31.8800   23.2330 C   0  0  0  0  0  0  0  0  0  0  0  0
  -27.1900  -27.2880   20.1640 C   0  0  0  0  0  0  0  0  0  0  0  0
  -23.4050  -30.4880   21.6020 C   0  0  0  0  0  3  0  0  0  0  0  0
  -24.8380  -28.9320   20.1700 C   0  0  0  0  0  0  0  0  0  0  0  0
  -25.9470  -30.7900   21.4040 C   0  0  0  0  0  2  0  0  0  0  0  0
  -26.0160  -29.4100   20.7560 C   0  0  0  0  0  0  0  0  0  0  0  0
  -27.1970  -28.6010   20.7390 C   0  0  0  0  0  3  0  0  0  0  0  0
  -25.9820  -26.8740   19.5560 C   0  0  0  0  0  3  0  0  0  0  0  0
  -24.8240  -27.6720   19.5600 C   0  0  0  0  0  3  0  0  0  0  0  0
  -23.6060  -29.8150   20.2220 C   0  0  0  0  0  2  0  0  0  0  0  0
  -24.6780  -31.0710   22.1360 N   0  0  0  0  0  0  0  0  0  0  0  0
  -23.5440  -32.1640   23.7740 O   0  0  0  0  0  0  0  0  0  0  0  0
  -22.7420  -29.4740   22.5660 C   0  0  0  0  0  0  0  0  0  0  0  0
  -21.4140  -29.3040   22.4480 N   0  0  0  0  0  0  0  0  0  0  0  0
  -23.4220  -28.8430   23.3790 O   0  0  0  0  0  0  0  0  0  0  0  0
  -20.9230  -29.8660   21.7660 H   0  0  0  0  0  0  0  0  0  0  0  0
  -18.0340  -28.1210   22.9650 C   0  0  0  0  0  0  0  0  0  0  0  0
  -20.5940  -28.3720   23.2240 C   0  0  0  0  0  3  0  0  0  0  0  0
  -20.6870  -26.9380   22.6520 C   0  0  0  0  0  2  0  0  0  0  0  0
  -19.5800  -26.6170   21.6440 C   0  0  0  0  0  2  0  0  0  0  0  0
  -18.2020  -26.7690   22.2930 C   0  0  0  0  0  2  0  0  0  0  0  0
  -19.1570  -28.8810   23.3880 C   0  0  0  0  0  0  0  0  0  0  0  0
  -18.9460  -30.1460   23.9770 C   0  0  0  0  0  3  0  0  0  0  0  0
  -17.6440  -30.6530   24.1470 C   0  0  0  0  0  3  0  0  0  0  0  0
  -16.5350  -29.8920   23.7400 C   0  0  0  0  0  3  0  0  0  0  0  0
  -16.7310  -28.6270   23.1550 C   0  0  0  0  0  3  0  0  0  0  0  0
  -25.9130  -32.5090   23.8470 C   0  0  0  0  0  3  0  0  0  0  0  0
  -26.4410  -31.7270   25.1120 C   0  0  1  0  0  0  0  0  0  0  0  0
  -25.3600  -31.4840   26.1910 C   0  0  0  0  0  1  0  0  0  0  0  0
  -27.0160  -30.3500   24.7050 C   0  0  0  0  0  1  0  0  0  0  0  0
  -27.5990  -32.5140   25.7690 C   0  0  0  0  0  1  0  0  0  0  0  0
  -25.6050  -33.9040   24.1940 N   0  0  0  0  0  0  0  0  0  0  0  0
  -25.9160  -34.9640   23.4350 C   0  0  0  0  0  0  0  0  0  0  0  0
  -26.5610  -34.8690   22.3870 O   0  0  0  0  0  0  0  0  0  0  0  0
  -25.0290  -34.0510   25.0090 H   0  0  0  0  0  0  0  0  0  0  0  0
  -24.1660  -36.7480   23.1470 C   0  0  0  0  0  1  0  0  0  0  0  0
  -25.4360  -36.3460   23.9150 C   0  0  0  0  0  3  0  0  0  0  0  0
  -27.5940  -37.2400   24.6760 C   0  0  0  0  0  1  0  0  0  0  0  0
  -26.4590  -37.4060   23.7720 N   0  0  0  0  0  0  0  0  0  0  0  0
  -26.0530  -38.3230   23.9390 H   0  0  0  0  0  0  0  0  0  0  0  0
  1  3  2  0
  1  2  1  0
  2  5  2  0
  3  6  1  0
  5  4  1  0
  6  4  2  0
  7  9  1  0
  7  8  1  0
  8  5  1  0
  9  8  1  0
  9 10  1  0
 11 19  1  0
 12 17  1  0
 13 14  1  0
 13 12  1  0
 15 14  1  0
 15 24  1  0
 15 16  1  0
 17 11  1  0
 17 16  1  0
 18 11  2  0
 19 20  1  0
 19 10  1  0
 21 22  2  0
 22 41  1  0
 23 22  1  0
 23 26  1  0
 24 21  1  0
 24 25  1  0
 25 23  2  0
 26 27  1  0
 27 28  2  0
 29 32  1  0
 29 28  1  0
 30 29  2  0
 31 30  1  0
 31 26  2  0
 32 33  1  0
 33 34  1  0
 34 35  2  0
 36 35  1  0
 36 40  1  0
 37 36  2  0
 38 33  2  0
 38 37  1  0
 39 38  1  0
 41 42  1  0
 42 45  1  0
 42 44  1  0
 43 41  2  0
 46 47  1  0
 46 21  1  0
 48 46  1  0
 49  6  1  0
 49 50  1  0
 51 62  2  0
 52 50  1  0
 52 57  1  0
 53 61  1  0
 53 63  1  0
 54 60  1  0
 54 56  1  0
 55 61  1  0
 56 55  1  0
 57 56  2  0
 58 59  1  0
 58 52  2  0
 59 54  2  0
 60 53  1  0
 61 51  1  0
 63 65  2  0
 64 63  1  0
 66 64  1  0
 67 76  2  0
 67 72  1  0
 68 64  1  0
 68 72  1  0
 69 68  1  0
 70 71  1  0
 70 69  1  0
 71 67  1  0
 72 73  2  0
 73 74  1  0
 75 74  2  0
 76 75  1  0
 77 51  1  0
 77 82  1  0
 77 78  1  0
 78 81  1  1
 78 79  1  0
 80 78  1  0
 82 85  1  0
 83 87  1  0
 83 82  1  0
 84 83  2  0
 87 86  1  0
 89 87  1  0
 89 90  1  0
 89 88  1  0
M  ISO  4  11 100  19 100  49 101  50 101
M  END
>  <TORSDO>  (39) 
F 19

>  <SCORE>  (39) 
-14.156

>  <name>  (39) 
38

>  <ligand_id>  (39) 
38

>  <original_smiles>  (39) 
[H]c1c([H])c([H])c2c(c1[H])C([H])([H])C([H])([H])C([H])([H])C2([H])N([H])C(=O)C1([H])N(C(=O)C([H])(N([H])C(=O)C([H])(N([H])C([H])([H])[H])C([H])([H])[H])C(C([H])([H])[H])(C([H])([H])[H])C([H])([H])[H])C([H])([H])c2c([H])c(OC([H])([H])c3c([H])c([H])c([H])c(C4([H])C([H])([H])C4([H])C([H])([H])N([H])C(=O)N4C([H])([H])C([H])([H])C([H])([H])C([H])(n5nc(-c6c([H])c([H])c(Oc7c([H])c([H])c(F)c([H])c7F)c([H])c6[H])c(C(=O)N([H])[H])c5N([H])[H])C4([H])[H])c3[H])c([H])c([H])c2C1([H])[H]

>  <smiles>  (39) 
[H]c1c([H])c([H])c2c(c1[H])C([H])([H])C([H])([H])C([H])([H])C2([H])N([H])C(=O)C1([H])N(C(=O)C([H])(N([H])C(=O)C([H])(N([H])C([H])([H])[H])C([H])([H])[H])C(C([H])([H])[H])(C([H])([H])[H])C([H])([H])[H])C([H])([H])c2c([H])c(OC([H])([H])c3c([H])c([H])c([H])c(C4([H])C([H])([H])C4([H])C([H])([H])N([H])C(=O)N4C([H])([H])C([H])([H])C([H])([H])C([H])(n5nc(-c6c([H])c([H])c(Oc7c([H])c([H])c(F)c([H])c7F)c([H])c6[H])c(C(=O)N([H])[H])c5N([H])[H])C4([H])[H])c3[H])c([H])c([H])c2C1([H])[H]

$$$$
39:0:0
     RDKit          3D

 92102  0  0  1  0  0  0  0  0999 V2000
  -30.4190  -21.4740   19.7390 C   0  0  0  0  0  3  0  0  0  0  0  0
  -29.7870  -22.7410   19.6280 C   0  0  0  0  0  3  0  0  0  0  0  0
  -30.7460  -21.4450   17.3480 C   0  0  0  0  0  3  0  0  0  0  0  0
  -30.9090  -20.8000   18.5940 C   0  0  0  0  0  0  0  0  0  0  0  0
  -29.6270  -23.3870   18.3760 C   0  0  0  0  0  0  0  0  0  0  0  0
  -30.1240  -22.7110   17.2250 C   0  0  0  0  0  0  0  0  0  0  0  0
  -30.0220  -23.3120   15.8310 C   0  0  0  0  0  1  0  0  0  0  0  0
  -27.3040  -27.4610   19.5360 C   0  0  0  0  0  0  0  0  0  0  0  0
  -25.2060  -28.6980   19.9830 C   0  0  0  0  0  2  0  0  0  0  0  0
  -24.1400  -27.7430   20.5580 C   0  0  0  0  0  2  0  0  0  0  0  0
  -23.3550  -27.0630   19.4220 C   0  0  0  0  0  2  0  0  0  0  0  0
  -24.2860  -26.4480   18.3470 C   0  0  0  0  0  3  0  0  0  0  0  0
  -25.3710  -27.4580   17.9020 C   0  0  0  0  0  2  0  0  0  0  0  0
  -26.0910  -27.9120   19.1040 N   0  0  0  0  0  0  0  0  0  0  0  0
  -27.8420  -27.9060   20.5550 O   0  0  0  0  0  0  0  0  0  0  0  0
  -27.5440  -25.0610   18.8570 C   0  0  0  0  0  2  0  0  0  0  0  0
  -29.3210  -26.0680   18.9620 C   0  0  0  0  0  2  0  0  0  0  0  0
  -28.9200  -24.7660   18.2630 C   0  0  0  0  0  3  0  0  0  0  0  0
  -27.9090  -26.4920   18.8010 N   0  0  0  0  0  0  0  0  0  0  0  0
  -23.2520  -24.6140   16.8670 C   0  0  0  0  0  0  0  0  0  0  0  0
  -22.4520  -24.6810   15.7570 C   0  0  0  0  0  0  0  0  0  0  0  0
  -22.2740  -26.0720   15.4810 C   0  0  0  0  0  0  0  0  0  0  0  0
  -23.5310  -25.9290   17.2100 N   0  0  0  0  0  0  0  0  0  0  0  0
  -22.9810  -26.8040   16.3320 N   0  0  0  0  0  0  0  0  0  0  0  0
  -21.4250  -26.7490   14.4940 C   0  0  0  0  0  0  0  0  0  0  0  0
  -21.9410  -27.1830   13.2530 C   0  0  0  0  0  3  0  0  0  0  0  0
  -21.1010  -27.8160   12.3120 C   0  0  0  0  0  3  0  0  0  0  0  0
  -19.7300  -28.0150   12.6050 C   0  0  0  0  0  0  0  0  0  0  0  0
  -19.2280  -27.6000   13.8510 C   0  0  0  0  0  3  0  0  0  0  0  0
  -20.0670  -26.9760   14.7890 C   0  0  0  0  0  3  0  0  0  0  0  0
  -18.8440  -28.6420   11.7630 O   0  0  0  0  0  0  0  0  0  0  0  0
  -18.5500  -28.1360   10.5210 C   0  0  0  0  0  0  0  0  0  0  0  0
  -17.8900  -26.8980   10.3580 C   0  0  0  0  0  3  0  0  0  0  0  0
  -17.5460  -26.4490    9.0680 C   0  0  0  0  0  3  0  0  0  0  0  0
  -17.8520  -27.2370    7.9430 C   0  0  0  0  0  0  0  0  0  0  0  0
  -18.5060  -28.4720    8.1040 C   0  0  0  0  0  3  0  0  0  0  0  0
  -18.8510  -28.9210    9.3900 C   0  0  0  0  0  0  0  0  0  0  0  0
  -19.4620  -30.1210    9.5410 F   0  0  0  0  0  0  0  0  0  0  0  0
  -17.5150  -26.8100    6.7030 F   0  0  0  0  0  0  0  0  0  0  0  0
  -21.8050  -23.5250   15.0520 C   0  0  0  0  0  0  0  0  0  0  0  0
  -21.9680  -23.4410   13.7360 N   0  0  0  0  0  0  0  0  0  0  0  0
  -21.1910  -22.6590   15.6740 O   0  0  0  0  0  0  0  0  0  0  0  0
  -22.4880  -24.1420   13.2290 H   0  0  0  0  0  0  0  0  0  0  0  0
  -21.5680  -22.6640   13.2290 H   0  0  0  0  0  0  0  0  0  0  0  0
  -23.7400  -23.5520   17.6180 N   0  0  0  0  0  0  0  0  0  0  0  0
  -23.4770  -22.5930   17.4170 H   0  0  0  0  0  0  0  0  0  0  0  0
  -24.2560  -23.6490   18.4820 H   0  0  0  0  0  0  0  0  0  0  0  0
  -30.9590  -18.2410   17.9900 C   0  0  0  0  0  2  0  0  0  0  0  0
  -31.6200  -19.4490   18.6080 C   0  0  0  0  0  3  0  0  0  0  0  0
  -31.3010  -18.2170   19.4670 C   0  0  0  0  0  3  0  0  0  0  0  0
  -32.4420  -17.3270   19.9870 C   0  0  0  0  0  2  0  0  0  0  0  0
  -32.1390  -15.9210   20.0580 O   0  0  0  0  0  0  0  0  0  0  0  0
  -37.8990  -14.2580   16.1780 C   0  0  0  0  0  0  0  0  0  0  0  0
  -32.6950  -15.1490   19.0620 C   0  0  0  0  0  0  0  0  0  0  0  0
  -35.7440  -13.3380   15.3810 C   0  0  0  0  0  3  0  0  0  0  0  0
  -33.7800  -13.5440   17.0020 C   0  0  0  0  0  0  0  0  0  0  0  0
  -36.1110  -13.8300   17.8620 C   0  0  0  0  0  2  0  0  0  0  0  0
  -34.6240  -14.1030   17.9730 C   0  0  0  0  0  0  0  0  0  0  0  0
  -34.0860  -14.9020   19.0070 C   0  0  0  0  0  3  0  0  0  0  0  0
  -31.8580  -14.5740   18.0850 C   0  0  0  0  0  3  0  0  0  0  0  0
  -32.3930  -13.7770   17.0550 C   0  0  0  0  0  3  0  0  0  0  0  0
  -34.4350  -12.7050   15.9250 C   0  0  0  0  0  2  0  0  0  0  0  0
  -36.6310  -13.8520   16.4750 N   0  0  0  0  0  0  0  0  0  0  0  0
  -38.3450  -14.1760   15.0260 O   0  0  0  0  0  0  0  0  0  0  0  0
  -35.3740  -14.4160   14.3370 C   0  0  0  0  0  0  0  0  0  0  0  0
  -34.9750  -13.9690   13.1350 N   0  0  0  0  0  0  0  0  0  0  0  0
  -35.4230  -15.6150   14.6200 O   0  0  0  0  0  0  0  0  0  0  0  0
  -34.9710  -12.9710   12.9780 H   0  0  0  0  0  0  0  0  0  0  0  0
  -33.8960  -13.8670    9.6850 C   0  0  0  0  0  0  0  0  0  0  0  0
  -34.5370  -14.7970   12.0100 C   0  0  0  0  0  3  0  0  0  0  0  0
  -33.0490  -15.1880   12.1520 C   0  0  0  0  0  2  0  0  0  0  0  0
  -32.1010  -14.2220   11.4330 C   0  0  0  0  0  2  0  0  0  0  0  0
  -32.4270  -14.1620    9.9380 C   0  0  0  0  0  2  0  0  0  0  0  0
  -34.8860  -14.1510   10.6640 C   0  0  0  0  0  0  0  0  0  0  0  0
  -36.2310  -13.8260   10.3960 C   0  0  0  0  0  3  0  0  0  0  0  0
  -36.5980  -13.2290    9.1750 C   0  0  0  0  0  3  0  0  0  0  0  0
  -35.6190  -12.9660    8.2000 C   0  0  0  0  0  3  0  0  0  0  0  0
  -34.2720  -13.2890    8.4540 C   0  0  0  0  0  3  0  0  0  0  0  0
  -38.8520  -14.8290   17.2730 C   0  0  0  0  0  3  0  0  0  0  0  0
  -40.1280  -14.1100   17.1630 N   0  0  0  0  0  0  0  0  0  0  0  0
  -40.4630  -13.0430   17.9000 C   0  0  0  0  0  0  0  0  0  0  0  0
  -39.7480  -12.5990   18.8030 O   0  0  0  0  0  0  0  0  0  0  0  0
  -40.7360  -14.3860   16.4080 H   0  0  0  0  0  0  0  0  0  0  0  0
  -41.5470  -11.0090   16.8920 C   0  0  0  0  0  1  0  0  0  0  0  0
  -41.8060  -12.3560   17.5860 C   0  0  0  0  0  3  0  0  0  0  0  0
  -43.2970  -13.3680   19.2520 C   0  0  0  0  0  1  0  0  0  0  0  0
  -42.6540  -12.1460   18.7800 N   0  0  0  0  0  0  0  0  0  0  0  0
  -43.3790  -11.4610   18.5880 H   0  0  0  0  0  0  0  0  0  0  0  0
  -39.0770  -16.3850   17.1510 C   0  0  1  0  0  0  0  0  0  0  0  0
  -40.0980  -16.7830   16.0590 C   0  0  0  0  0  1  0  0  0  0  0  0
  -37.7440  -17.1060   16.8390 C   0  0  0  0  0  1  0  0  0  0  0  0
  -39.5790  -16.9500   18.5010 C   0  0  0  0  0  1  0  0  0  0  0  0
  2  1  1  0
  3  4  1  0
  4  1  2  0
  5  2  2  0
  6  3  2  0
  6  5  1  0
  7  6  1  0
  8 15  2  0
  9 10  1  0
 11 10  1  0
 12 23  1  0
 12 11  1  0
 13 12  1  0
 13 14  1  0
 14  8  1  0
 14  9  1  0
 18  5  1  0
 18 16  1  0
 18 17  1  0
 19 16  1  0
 19 17  1  0
 19  8  1  0
 20 23  1  0
 20 45  1  0
 21 20  2  0
 22 21  1  0
 22 24  2  0
 24 23  1  0
 25 30  1  0
 25 22  1  0
 26 25  2  0
 27 28  2  0
 27 26  1  0
 28 29  1  0
 29 30  2  0
 31 28  1  0
 32 31  1  0
 33 32  1  0
 34 33  2  0
 35 36  2  0
 35 34  1  0
 36 37  1  0
 37 38  1  0
 37 32  2  0
 39 35  1  0
 40 42  2  0
 40 21  1  0
 41 40  1  0
 43 41  1  0
 44 41  1  0
 45 47  1  0
 46 45  1  0
 48 49  1  0
 48 50  1  0
 49  4  1  0
 49 50  1  0
 50 51  1  0
 51 52  1  0
 53 63  1  0
 54 52  1  0
 55 65  1  0
 55 62  1  0
 55 63  1  0
 56 61  2  0
 56 58  1  0
 57 58  1  0
 58 59  2  0
 59 54  1  0
 60 54  2  0
 61 60  1  0
 62 56  1  0
 63 57  1  0
 64 53  2  0
 65 67  2  0
 66 65  1  0
 68 66  1  0
 69 73  1  0
 69 74  1  0
 70 71  1  0
 70 66  1  0
 72 71  1  0
 73 72  1  0
 74 70  1  0
 75 74  2  0
 76 75  1  0
 77 78  1  0
 77 76  2  0
 78 69  2  0
 79 53  1  0
 80 79  1  0
 80 81  1  0
 81 82  2  0
 83 80  1  0
 85 84  1  0
 85 81  1  0
 85 87  1  0
 87 86  1  0
 88 87  1  0
 89 79  1  0
 89 92  1  1
 90 89  1  0
 91 89  1  0
M  ISO  4   8 100  19 100  51 101  52 101
M  END
>  <TORSDO>  (40) 
F 18

>  <SCORE>  (40) 
-5.324

>  <name>  (40) 
39

>  <ligand_id>  (40) 
39

>  <original_smiles>  (40) 
[H]c1c([H])c([H])c2c(c1[H])C([H])([H])C([H])([H])C([H])([H])C2([H])N([H])C(=O)C1([H])N(C(=O)C([H])(N([H])C(=O)C([H])(N([H])C([H])([H])[H])C([H])([H])[H])C(C([H])([H])[H])(C([H])([H])[H])C([H])([H])[H])C([H])([H])c2c([H])c(OC([H])([H])C3([H])C([H])([H])C3([H])c3c([H])c([H])c(C4([H])C([H])([H])N(C(=O)N5C([H])([H])C([H])([H])C([H])([H])C([H])(n6nc(-c7c([H])c([H])c(Oc8c([H])c([H])c(F)c([H])c8F)c([H])c7[H])c(C(=O)N([H])[H])c6N([H])[H])C5([H])[H])C4([H])[H])c(C([H])([H])[H])c3[H])c([H])c([H])c2C1([H])[H]

>  <smiles>  (40) 
[H]c1c([H])c([H])c2c(c1[H])C([H])([H])C([H])([H])C([H])([H])C2([H])N([H])C(=O)C1([H])N(C(=O)C([H])(N([H])C(=O)C([H])(N([H])C([H])([H])[H])C([H])([H])[H])C(C([H])([H])[H])(C([H])([H])[H])C([H])([H])[H])C([H])([H])c2c([H])c(OC([H])([H])C3([H])C([H])([H])C3([H])c3c([H])c([H])c(C4([H])C([H])([H])N(C(=O)N5C([H])([H])C([H])([H])C([H])([H])C([H])(n6nc(-c7c([H])c([H])c(Oc8c([H])c([H])c(F)c([H])c8F)c([H])c7[H])c(C(=O)N([H])[H])c6N([H])[H])C5([H])[H])C4([H])[H])c(C([H])([H])[H])c3[H])c([H])c([H])c2C1([H])[H]

$$$$
40:0:0
     RDKit          3D

 86 95  0  0  1  0  0  0  0  0999 V2000
  -29.0890  -22.8400   20.3480 C   0  0  0  0  0  0  0  0  0  0  0  0
  -30.1430  -23.2970   20.8000 O   0  0  0  0  0  0  0  0  0  0  0  0
  -29.2720  -19.9310   19.0270 C   0  0  0  0  0  2  0  0  0  0  0  0
  -28.2560  -19.8210   20.8340 C   0  0  0  0  0  2  0  0  0  0  0  0
  -30.2770  -20.0520   20.8190 C   0  0  0  0  0  2  0  0  0  0  0  0
  -29.1130  -21.0100   20.2160 C   0  0  2  0  0  0  0  0  0  0  0  0
  -29.4160  -18.8320   20.2280 C   0  0  2  0  0  0  0  0  0  0  0  0
  -29.4360  -16.9710   20.3750 C   0  0  0  0  0  2  0  0  0  0  0  0
  -30.3490  -15.4640   20.0500 C   0  0  0  0  0  0  0  0  0  0  0  0
  -30.3990  -12.9850   19.1750 C   0  0  0  0  0  2  0  0  0  0  0  0
  -29.4420  -12.7550   17.9740 C   0  0  0  0  0  2  0  0  0  0  0  0
  -28.0100  -12.4550   18.4530 C   0  0  0  0  0  2  0  0  0  0  0  0
  -27.5790  -13.4080   19.5930 C   0  0  0  0  0  3  0  0  0  0  0  0
  -28.6590  -13.5680   20.6850 C   0  0  0  0  0  2  0  0  0  0  0  0
  -29.8650  -14.1110   20.0360 N   0  0  0  0  0  0  0  0  0  0  0  0
  -31.5470  -15.5010   19.7260 O   0  0  0  0  0  0  0  0  0  0  0  0
  -25.2370  -13.9420   20.4440 C   0  0  0  0  0  0  0  0  0  0  0  0
  -24.1900  -13.1560   20.8370 C   0  0  0  0  0  0  0  0  0  0  0  0
  -24.6590  -11.8070   20.7650 C   0  0  0  0  0  0  0  0  0  0  0  0
  -26.2710  -13.0750   20.1450 N   0  0  0  0  0  0  0  0  0  0  0  0
  -25.9390  -11.7830   20.4060 N   0  0  0  0  0  0  0  0  0  0  0  0
  -23.9400  -10.5400   20.9580 C   0  0  0  0  0  0  0  0  0  0  0  0
  -24.3720   -9.5790   21.8970 C   0  0  0  0  0  3  0  0  0  0  0  0
  -23.6510   -8.3800   22.0790 C   0  0  0  0  0  3  0  0  0  0  0  0
  -22.4810   -8.1330   21.3230 C   0  0  0  0  0  0  0  0  0  0  0  0
  -22.0660   -9.0830   20.3720 C   0  0  0  0  0  3  0  0  0  0  0  0
  -22.7890  -10.2730   20.1890 C   0  0  0  0  0  3  0  0  0  0  0  0
  -21.7310   -6.9860   21.4130 O   0  0  0  0  0  0  0  0  0  0  0  0
  -21.6410   -6.2740   22.5830 C   0  0  0  0  0  0  0  0  0  0  0  0
  -21.1330   -6.8500   23.7670 C   0  0  0  0  0  3  0  0  0  0  0  0
  -20.9930   -6.0630   24.9280 C   0  0  0  0  0  3  0  0  0  0  0  0
  -21.3510   -4.7030   24.9050 C   0  0  0  0  0  0  0  0  0  0  0  0
  -21.8540   -4.1260   23.7250 C   0  0  0  0  0  3  0  0  0  0  0  0
  -21.9940   -4.9100   22.5670 C   0  0  0  0  0  0  0  0  0  0  0  0
  -22.4580   -4.3440   21.4260 F   0  0  0  0  0  0  0  0  0  0  0  0
  -21.2110   -3.9450   26.0190 F   0  0  0  0  0  0  0  0  0  0  0  0
  -22.8020  -13.6250   21.1610 C   0  0  0  0  0  0  0  0  0  0  0  0
  -22.1060  -12.9160   22.0420 N   0  0  0  0  0  0  0  0  0  0  0  0
  -22.3460  -14.6570   20.6690 O   0  0  0  0  0  0  0  0  0  0  0  0
  -22.4890  -12.0820   22.4610 H   0  0  0  0  0  0  0  0  0  0  0  0
  -21.1760  -13.2130   22.3020 H   0  0  0  0  0  0  0  0  0  0  0  0
  -25.3890  -15.3170   20.2880 N   0  0  0  0  0  0  0  0  0  0  0  0
  -24.6260  -15.9660   20.4440 H   0  0  0  0  0  0  0  0  0  0  0  0
  -26.2250  -15.7670   19.9370 H   0  0  0  0  0  0  0  0  0  0  0  0
  -27.9760  -24.1890   20.0250 C   0  0  0  0  0  2  0  0  0  0  0  0
  -28.2100  -25.8390   20.2620 O   0  0  0  0  0  0  0  0  0  0  0  0
  -24.6600  -31.8680   23.2580 C   0  0  0  0  0  0  0  0  0  0  0  0
  -27.2080  -26.9660   20.2040 C   0  0  0  0  0  0  0  0  0  0  0  0
  -23.4660  -30.4850   21.6100 C   0  0  0  0  0  3  0  0  0  0  0  0
  -24.9120  -28.8830   20.1740 C   0  0  0  0  0  0  0  0  0  0  0  0
  -26.0350  -30.6830   21.4660 C   0  0  0  0  0  2  0  0  0  0  0  0
  -26.1030  -29.2730   20.7980 C   0  0  0  0  0  0  0  0  0  0  0  0
  -27.2430  -28.3380   20.7860 C   0  0  0  0  0  3  0  0  0  0  0  0
  -25.9850  -26.7420   19.5310 C   0  0  0  0  0  3  0  0  0  0  0  0
  -24.8820  -27.6400   19.5180 C   0  0  0  0  0  3  0  0  0  0  0  0
  -23.6960  -29.8090   20.2290 C   0  0  0  0  0  2  0  0  0  0  0  0
  -24.7430  -31.0400   22.1640 N   0  0  0  0  0  0  0  0  0  0  0  0
  -23.5710  -32.1550   23.7800 O   0  0  0  0  0  0  0  0  0  0  0  0
  -22.7680  -29.4860   22.5700 C   0  0  0  0  0  0  0  0  0  0  0  0
  -21.4380  -29.3190   22.4400 N   0  0  0  0  0  0  0  0  0  0  0  0
  -23.4290  -28.8620   23.4020 O   0  0  0  0  0  0  0  0  0  0  0  0
  -20.9550  -29.8730   21.7460 H   0  0  0  0  0  0  0  0  0  0  0  0
  -18.0590  -28.0870   22.9310 C   0  0  0  0  0  0  0  0  0  0  0  0
  -20.6150  -28.3730   23.2050 C   0  0  0  0  0  3  0  0  0  0  0  0
  -20.7290  -26.9440   22.6260 C   0  0  0  0  0  2  0  0  0  0  0  0
  -19.6340  -26.6170   21.6060 C   0  0  0  0  0  2  0  0  0  0  0  0
  -18.2490  -26.7440   22.2460 C   0  0  0  0  0  2  0  0  0  0  0  0
  -19.1690  -28.8590   23.3660 C   0  0  0  0  0  0  0  0  0  0  0  0
  -18.9340  -30.1130   23.9710 C   0  0  0  0  0  3  0  0  0  0  0  0
  -17.6230  -30.5970   24.1420 C   0  0  0  0  0  3  0  0  0  0  0  0
  -16.5280  -29.8240   23.7210 C   0  0  0  0  0  3  0  0  0  0  0  0
  -16.7460  -28.5710   23.1210 C   0  0  0  0  0  3  0  0  0  0  0  0
  -25.9300  -32.5080   23.8960 C   0  0  0  0  0  3  0  0  0  0  0  0
  -26.4180  -31.7510   25.1940 C   0  0  1  0  0  0  0  0  0  0  0  0
  -25.3060  -31.5390   26.2470 C   0  0  0  0  0  1  0  0  0  0  0  0
  -26.9960  -30.3620   24.8410 C   0  0  0  0  0  1  0  0  0  0  0  0
  -27.5650  -32.5460   25.8630 C   0  0  0  0  0  1  0  0  0  0  0  0
  -25.6190  -33.9130   24.2200 N   0  0  0  0  0  0  0  0  0  0  0  0
  -25.9340  -34.9660   23.4530 C   0  0  0  0  0  0  0  0  0  0  0  0
  -26.5770  -34.8580   22.4060 O   0  0  0  0  0  0  0  0  0  0  0  0
  -25.0440  -34.0700   25.0340 H   0  0  0  0  0  0  0  0  0  0  0  0
  -24.1830  -36.7560   23.1670 C   0  0  0  0  0  1  0  0  0  0  0  0
  -25.4640  -36.3610   23.9200 C   0  0  0  0  0  3  0  0  0  0  0  0
  -27.6270  -37.2720   24.6450 C   0  0  0  0  0  1  0  0  0  0  0  0
  -26.4850  -37.4170   23.7460 N   0  0  0  0  0  0  0  0  0  0  0  0
  -26.0800  -38.3380   23.8940 H   0  0  0  0  0  0  0  0  0  0  0  0
  1  2  2  0
  3  6  1  0
  3  7  1  0
  6  1  1  6
  6  5  1  0
  6  4  1  0
  7  8  1  6
  7  5  1  0
  7  4  1  0
  9  8  1  0
 10 15  1  0
 11 12  1  0
 11 10  1  0
 13 12  1  0
 13 20  1  0
 13 14  1  0
 15  9  1  0
 15 14  1  0
 16  9  2  0
 17 18  2  0
 18 37  1  0
 19 18  1  0
 19 22  1  0
 20 21  1  0
 20 17  1  0
 21 19  2  0
 22 23  1  0
 23 24  2  0
 25 28  1  0
 25 24  1  0
 26 25  2  0
 27 26  1  0
 27 22  2  0
 28 29  1  0
 29 30  1  0
 30 31  2  0
 32 31  1  0
 32 36  1  0
 33 32  2  0
 34 29  2  0
 34 33  1  0
 35 34  1  0
 37 38  1  0
 38 41  1  0
 38 40  1  0
 39 37  2  0
 42 43  1  0
 42 17  1  0
 44 42  1  0
 45 46  1  0
 45  1  1  0
 47 58  2  0
 48 46  1  0
 48 53  1  0
 49 57  1  0
 49 59  1  0
 50 56  1  0
 50 52  1  0
 51 57  1  0
 52 51  1  0
 53 52  2  0
 54 48  2  0
 55 54  1  0
 55 50  2  0
 56 49  1  0
 57 47  1  0
 59 61  2  0
 60 59  1  0
 62 60  1  0
 63 72  2  0
 63 68  1  0
 64 60  1  0
 64 68  1  0
 65 64  1  0
 66 67  1  0
 66 65  1  0
 67 63  1  0
 68 69  2  0
 69 70  1  0
 71 70  2  0
 72 71  1  0
 73 47  1  0
 73 78  1  0
 73 74  1  0
 74 77  1  1
 74 75  1  0
 76 74  1  0
 78 81  1  0
 79 83  1  0
 79 78  1  0
 80 79  2  0
 83 82  1  0
 85 86  1  0
 85 83  1  0
 85 84  1  0
M  ISO  4   8 100   9 100  45 101  46 101
M  END
>  <TORSDO>  (41) 
F 19

>  <SCORE>  (41) 
-16.403

>  <name>  (41) 
40

>  <ligand_id>  (41) 
40

>  <original_smiles>  (41) 
[H]c1c([H])c([H])c2c(c1[H])C([H])([H])C([H])([H])C([H])([H])C2([H])N([H])C(=O)C1([H])N(C(=O)C([H])(N([H])C(=O)C([H])(N([H])C([H])([H])[H])C([H])([H])[H])C(C([H])([H])[H])(C([H])([H])[H])C([H])([H])[H])C([H])([H])c2c([H])c(OC([H])([H])C(=O)C34C([H])([H])C(C([H])([H])C(=O)N5C([H])([H])C([H])([H])C([H])([H])C([H])(n6nc(-c7c([H])c([H])c(Oc8c([H])c([H])c(F)c([H])c8F)c([H])c7[H])c(C(=O)N([H])[H])c6N([H])[H])C5([H])[H])(C3([H])[H])C4([H])[H])c([H])c([H])c2C1([H])[H]

>  <smiles>  (41) 
[H]c1c([H])c([H])c2c(c1[H])C([H])([H])C([H])([H])C([H])([H])C2([H])N([H])C(=O)C1([H])N(C(=O)C([H])(N([H])C(=O)C([H])(N([H])C([H])([H])[H])C([H])([H])[H])C(C([H])([H])[H])(C([H])([H])[H])C([H])([H])[H])C([H])([H])c2c([H])c(OC([H])([H])C(=O)C34C([H])([H])C(C([H])([H])C(=O)N5C([H])([H])C([H])([H])C([H])([H])C([H])(n6nc(-c7c([H])c([H])c(Oc8c([H])c([H])c(F)c([H])c8F)c([H])c7[H])c(C(=O)N([H])[H])c6N([H])[H])C5([H])[H])(C3([H])[H])C4([H])[H])c([H])c([H])c2C1([H])[H]

$$$$
41:0:0
     RDKit          3D

 90 99  0  0  1  0  0  0  0  0999 V2000
  -29.8180  -20.1360   18.4760 C   0  0  0  0  0  3  0  0  0  0  0  0
  -30.0130  -18.8520   19.0650 C   0  0  0  0  0  3  0  0  0  0  0  0
  -29.5550  -19.8060   21.2540 C   0  0  0  0  0  3  0  0  0  0  0  0
  -29.4990  -21.2580   19.2790 C   0  0  0  0  0  0  0  0  0  0  0  0
  -29.3460  -21.1030   20.6530 C   0  0  0  0  0  0  0  0  0  0  0  0
  -29.9090  -18.6410   20.4660 C   0  0  0  0  0  0  0  0  0  0  0  0
  -29.2430  -22.7080   18.8270 C   0  0  0  0  0  2  0  0  0  0  0  0
  -28.9290  -22.4720   21.2770 C   0  0  0  0  0  2  0  0  0  0  0  0
  -28.5170  -23.3730   20.0400 C   0  0  0  0  0  3  0  0  0  0  0  0
  -30.3470  -17.2540   21.1210 C   0  0  0  0  0  2  0  0  0  0  0  0
  -30.6110  -14.7290   20.4460 C   0  0  0  0  0  0  0  0  0  0  0  0
  -30.3960  -12.4540   19.4270 C   0  0  0  0  0  2  0  0  0  0  0  0
  -29.4710  -12.5090   18.1920 C   0  0  0  0  0  2  0  0  0  0  0  0
  -27.9970  -12.3450   18.6100 C   0  0  0  0  0  2  0  0  0  0  0  0
  -27.6090  -13.2540   19.8070 C   0  0  0  0  0  3  0  0  0  0  0  0
  -28.6550  -13.1810   20.9410 C   0  0  0  0  0  2  0  0  0  0  0  0
  -29.9580  -13.5200   20.3540 N   0  0  0  0  0  0  0  0  0  0  0  0
  -31.8090  -14.8060   20.1620 O   0  0  0  0  0  0  0  0  0  0  0  0
  -29.8700  -15.8730   20.6880 N   0  0  0  0  0  0  0  0  0  0  0  0
  -28.8790  -15.7180   20.7840 H   0  0  0  0  0  0  0  0  0  0  0  0
  -25.2120  -13.8590   20.4890 C   0  0  0  0  0  0  0  0  0  0  0  0
  -24.1380  -13.0920   20.8520 C   0  0  0  0  0  0  0  0  0  0  0  0
  -24.6000  -11.7400   20.8500 C   0  0  0  0  0  0  0  0  0  0  0  0
  -26.2570  -12.9750   20.2830 N   0  0  0  0  0  0  0  0  0  0  0  0
  -25.8960  -11.6960   20.5650 N   0  0  0  0  0  0  0  0  0  0  0  0
  -23.8680  -10.4820   21.0440 C   0  0  0  0  0  0  0  0  0  0  0  0
  -24.3000   -9.5130   21.9770 C   0  0  0  0  0  3  0  0  0  0  0  0
  -23.5670   -8.3190   22.1610 C   0  0  0  0  0  3  0  0  0  0  0  0
  -22.3890   -8.0870   21.4110 C   0  0  0  0  0  0  0  0  0  0  0  0
  -21.9770   -9.0450   20.4680 C   0  0  0  0  0  3  0  0  0  0  0  0
  -22.7100  -10.2290   20.2820 C   0  0  0  0  0  3  0  0  0  0  0  0
  -21.6280   -6.9470   21.5040 O   0  0  0  0  0  0  0  0  0  0  0  0
  -21.5970   -6.1940   22.6510 C   0  0  0  0  0  0  0  0  0  0  0  0
  -21.2150   -6.7440   23.8930 C   0  0  0  0  0  3  0  0  0  0  0  0
  -21.1310   -5.9180   25.0320 C   0  0  0  0  0  3  0  0  0  0  0  0
  -21.4180   -4.5440   24.9290 C   0  0  0  0  0  0  0  0  0  0  0  0
  -21.7930   -3.9930   23.6910 C   0  0  0  0  0  3  0  0  0  0  0  0
  -21.8800   -4.8160   22.5550 C   0  0  0  0  0  0  0  0  0  0  0  0
  -22.2210   -4.2770   21.3600 F   0  0  0  0  0  0  0  0  0  0  0  0
  -21.3290   -3.7490   26.0210 F   0  0  0  0  0  0  0  0  0  0  0  0
  -22.7370  -13.5750   21.0910 C   0  0  0  0  0  0  0  0  0  0  0  0
  -21.9940  -12.8950   21.9560 N   0  0  0  0  0  0  0  0  0  0  0  0
  -22.3090  -14.5910   20.5450 O   0  0  0  0  0  0  0  0  0  0  0  0
  -22.3520  -12.0720   22.4190 H   0  0  0  0  0  0  0  0  0  0  0  0
  -21.0530  -13.2000   22.1610 H   0  0  0  0  0  0  0  0  0  0  0  0
  -25.3790  -15.2270   20.2920 N   0  0  0  0  0  0  0  0  0  0  0  0
  -24.6090  -15.8810   20.3770 H   0  0  0  0  0  0  0  0  0  0  0  0
  -26.2260  -15.6590   19.9470 H   0  0  0  0  0  0  0  0  0  0  0  0
  -27.8200  -24.8530   19.9870 C   0  0  0  0  0  2  0  0  0  0  0  0
  -28.2350  -26.2940   20.1880 O   0  0  0  0  0  0  0  0  0  0  0  0
  -24.6320  -31.8740   23.2340 C   0  0  0  0  0  0  0  0  0  0  0  0
  -27.1730  -27.2480   20.1370 C   0  0  0  0  0  0  0  0  0  0  0  0
  -23.4080  -30.4890   21.6040 C   0  0  0  0  0  3  0  0  0  0  0  0
  -24.8370  -28.9430   20.1580 C   0  0  0  0  0  0  0  0  0  0  0  0
  -25.9590  -30.7700   21.4110 C   0  0  0  0  0  2  0  0  0  0  0  0
  -26.0230  -29.3920   20.7520 C   0  0  0  0  0  0  0  0  0  0  0  0
  -27.1950  -28.5590   20.7330 C   0  0  0  0  0  3  0  0  0  0  0  0
  -25.9540  -26.8920   19.5040 C   0  0  0  0  0  3  0  0  0  0  0  0
  -24.8090  -27.7000   19.5240 C   0  0  0  0  0  3  0  0  0  0  0  0
  -23.6100  -29.8290   20.2200 C   0  0  0  0  0  2  0  0  0  0  0  0
  -24.6860  -31.0620   22.1380 N   0  0  0  0  0  0  0  0  0  0  0  0
  -23.5520  -32.1570   23.7740 O   0  0  0  0  0  0  0  0  0  0  0  0
  -22.7460  -29.4700   22.5640 C   0  0  0  0  0  0  0  0  0  0  0  0
  -21.4180  -29.2980   22.4460 N   0  0  0  0  0  0  0  0  0  0  0  0
  -23.4250  -28.8380   23.3760 O   0  0  0  0  0  0  0  0  0  0  0  0
  -20.9260  -29.8590   21.7630 H   0  0  0  0  0  0  0  0  0  0  0  0
  -18.0390  -28.1060   22.9640 C   0  0  0  0  0  0  0  0  0  0  0  0
  -20.5980  -28.3640   23.2220 C   0  0  0  0  0  3  0  0  0  0  0  0
  -20.6970  -26.9300   22.6530 C   0  0  0  0  0  2  0  0  0  0  0  0
  -19.5900  -26.6050   21.6440 C   0  0  0  0  0  2  0  0  0  0  0  0
  -18.2110  -26.7540   22.2920 C   0  0  0  0  0  2  0  0  0  0  0  0
  -19.1600  -28.8690   23.3870 C   0  0  0  0  0  0  0  0  0  0  0  0
  -18.9440  -30.1330   23.9770 C   0  0  0  0  0  3  0  0  0  0  0  0
  -17.6400  -30.6350   24.1470 C   0  0  0  0  0  3  0  0  0  0  0  0
  -16.5340  -29.8710   23.7400 C   0  0  0  0  0  3  0  0  0  0  0  0
  -16.7330  -28.6080   23.1550 C   0  0  0  0  0  3  0  0  0  0  0  0
  -25.9200  -32.5000   23.8470 C   0  0  0  0  0  3  0  0  0  0  0  0
  -25.6130  -33.8960   24.1920 N   0  0  0  0  0  0  0  0  0  0  0  0
  -25.9260  -34.9550   23.4350 C   0  0  0  0  0  0  0  0  0  0  0  0
  -26.5740  -34.8610   22.3890 O   0  0  0  0  0  0  0  0  0  0  0  0
  -25.0360  -34.0430   25.0070 H   0  0  0  0  0  0  0  0  0  0  0  0
  -24.1820  -36.7440   23.1410 C   0  0  0  0  0  1  0  0  0  0  0  0
  -25.4480  -36.3400   23.9140 C   0  0  0  0  0  3  0  0  0  0  0  0
  -27.6030  -37.2270   24.6860 C   0  0  0  0  0  1  0  0  0  0  0  0
  -26.4720  -37.3970   23.7770 N   0  0  0  0  0  0  0  0  0  0  0  0
  -26.0680  -38.3150   23.9430 H   0  0  0  0  0  0  0  0  0  0  0  0
  -26.4470  -31.7180   25.1120 C   0  0  1  0  0  0  0  0  0  0  0  0
  -25.3650  -31.4770   26.1900 C   0  0  0  0  0  1  0  0  0  0  0  0
  -27.0220  -30.3410   24.7080 C   0  0  0  0  0  1  0  0  0  0  0  0
  -27.6090  -32.5050   25.7640 C   0  0  0  0  0  1  0  0  0  0  0  0
  1  2  2  0
  1  4  1  0
  2  6  1  0
  4  5  2  0
  5  3  1  0
  5  8  1  0
  6 10  1  0
  6  3  2  0
  7  4  1  0
  7  9  1  0
  9 49  1  0
  9  8  1  0
 11 19  1  0
 12 17  1  0
 13 14  1  0
 13 12  1  0
 15 14  1  0
 15 24  1  0
 15 16  1  0
 17 11  1  0
 17 16  1  0
 18 11  2  0
 19 20  1  0
 19 10  1  0
 21 22  2  0
 22 41  1  0
 23 22  1  0
 23 26  1  0
 24 21  1  0
 24 25  1  0
 25 23  2  0
 26 27  1  0
 27 28  2  0
 29 32  1  0
 29 28  1  0
 30 29  2  0
 31 30  1  0
 31 26  2  0
 32 33  1  0
 33 34  1  0
 34 35  2  0
 36 35  1  0
 36 40  1  0
 37 36  2  0
 38 33  2  0
 38 37  1  0
 39 38  1  0
 41 42  1  0
 42 45  1  0
 42 44  1  0
 43 41  2  0
 46 47  1  0
 46 21  1  0
 48 46  1  0
 49 50  1  0
 51 62  2  0
 52 50  1  0
 52 57  1  0
 53 61  1  0
 53 63  1  0
 54 60  1  0
 54 56  1  0
 55 61  1  0
 56 55  1  0
 57 56  2  0
 58 59  1  0
 58 52  2  0
 59 54  2  0
 60 53  1  0
 61 51  1  0
 63 65  2  0
 64 63  1  0
 66 64  1  0
 67 76  2  0
 67 72  1  0
 68 64  1  0
 68 72  1  0
 69 68  1  0
 70 71  1  0
 70 69  1  0
 71 67  1  0
 72 73  2  0
 73 74  1  0
 75 74  2  0
 76 75  1  0
 77 51  1  0
 77 78  1  0
 77 87  1  0
 78 81  1  0
 79 83  1  0
 79 78  1  0
 80 79  2  0
 83 82  1  0
 85 83  1  0
 85 86  1  0
 85 84  1  0
 87 90  1  1
 87 88  1  0
 89 87  1  0
M  ISO  4  11 100  19 100  49 101  50 101
M  END
>  <TORSDO>  (42) 
F 18

>  <SCORE>  (42) 
-14.493

>  <name>  (42) 
41

>  <ligand_id>  (42) 
41

>  <original_smiles>  (42) 
[H]c1c([H])c([H])c2c(c1[H])C([H])([H])C([H])([H])C([H])([H])C2([H])N([H])C(=O)C1([H])N(C(=O)C([H])(N([H])C(=O)C([H])(N([H])C([H])([H])[H])C([H])([H])[H])C(C([H])([H])[H])(C([H])([H])[H])C([H])([H])[H])C([H])([H])c2c([H])c(OC([H])([H])C3([H])C([H])([H])c4c([H])c([H])c(C([H])([H])N([H])C(=O)N5C([H])([H])C([H])([H])C([H])([H])C([H])(n6nc(-c7c([H])c([H])c(Oc8c([H])c([H])c(F)c([H])c8F)c([H])c7[H])c(C(=O)N([H])[H])c6N([H])[H])C5([H])[H])c([H])c4C3([H])[H])c([H])c([H])c2C1([H])[H]

>  <smiles>  (42) 
[H]c1c([H])c([H])c2c(c1[H])C([H])([H])C([H])([H])C([H])([H])C2([H])N([H])C(=O)C1([H])N(C(=O)C([H])(N([H])C(=O)C([H])(N([H])C([H])([H])[H])C([H])([H])[H])C(C([H])([H])[H])(C([H])([H])[H])C([H])([H])[H])C([H])([H])c2c([H])c(OC([H])([H])C3([H])C([H])([H])c4c([H])c([H])c(C([H])([H])N([H])C(=O)N5C([H])([H])C([H])([H])C([H])([H])C([H])(n6nc(-c7c([H])c([H])c(Oc8c([H])c([H])c(F)c([H])c8F)c([H])c7[H])c(C(=O)N([H])[H])c6N([H])[H])C5([H])[H])c([H])c4C3([H])[H])c([H])c([H])c2C1([H])[H]

$$$$
42:0:0
     RDKit          3D

 97106  0  0  1  0  0  0  0  0999 V2000
  -30.1280  -19.0310   19.7650 C   0  0  0  0  0  3  0  0  0  0  0  0
  -31.6340  -14.1320   20.2730 C   0  0  0  0  0  0  0  0  0  0  0  0
  -31.2300  -11.8080   19.5680 C   0  0  0  0  0  2  0  0  0  0  0  0
  -30.3840  -11.8490   18.2810 C   0  0  0  0  0  2  0  0  0  0  0  0
  -28.8810  -11.8740   18.6260 C   0  0  0  0  0  2  0  0  0  0  0  0
  -28.5330  -12.9440   19.6930 C   0  0  0  0  0  3  0  0  0  0  0  0
  -29.5140  -12.9040   20.8860 C   0  0  0  0  0  2  0  0  0  0  0  0
  -30.8810  -13.0010   20.3520 N   0  0  0  0  0  0  0  0  0  0  0  0
  -32.8200  -14.1110   19.9180 O   0  0  0  0  0  0  0  0  0  0  0  0
  -29.8230  -16.7880   18.5530 C   0  0  0  0  0  2  0  0  0  0  0  0
  -29.2790  -16.9290   20.9910 C   0  0  0  0  0  2  0  0  0  0  0  0
  -31.1440  -16.1060   18.9490 C   0  0  0  0  0  2  0  0  0  0  0  0
  -30.5790  -16.1330   21.2810 C   0  0  0  0  0  2  0  0  0  0  0  0
  -29.2580  -17.7350   19.6500 C   0  0  1  0  0  0  0  0  0  0  0  0
  -30.9260  -15.2790   20.1400 N   0  0  0  0  0  0  0  0  0  0  0  0
  -25.0860  -18.8450   18.8530 C   0  0  0  0  0  3  0  0  0  0  0  0
  -26.0770  -19.1470   17.9010 C   0  0  0  0  0  3  0  0  0  0  0  0
  -25.4440  -18.2090   20.0530 C   0  0  0  0  0  3  0  0  0  0  0  0
  -27.4220  -18.8090   18.1490 C   0  0  0  0  0  3  0  0  0  0  0  0
  -26.7880  -17.8660   20.2960 C   0  0  0  0  0  3  0  0  0  0  0  0
  -27.7980  -18.1470   19.3470 C   0  0  0  0  0  0  0  0  0  0  0  0
  -26.2200  -13.8440   20.3660 C   0  0  0  0  0  0  0  0  0  0  0  0
  -25.0520  -13.2150   20.6960 C   0  0  0  0  0  0  0  0  0  0  0  0
  -25.3300  -11.8160   20.6380 C   0  0  0  0  0  0  0  0  0  0  0  0
  -27.1470  -12.8390   20.1350 N   0  0  0  0  0  0  0  0  0  0  0  0
  -26.6110  -11.6090   20.3510 N   0  0  0  0  0  0  0  0  0  0  0  0
  -24.4370  -10.6610   20.7810 C   0  0  0  0  0  0  0  0  0  0  0  0
  -24.7950   -9.5400   21.5620 C   0  0  0  0  0  3  0  0  0  0  0  0
  -23.9090   -8.4500   21.6950 C   0  0  0  0  0  3  0  0  0  0  0  0
  -22.6510   -8.4770   21.0490 C   0  0  0  0  0  0  0  0  0  0  0  0
  -22.3080   -9.5860   20.2570 C   0  0  0  0  0  3  0  0  0  0  0  0
  -23.1940  -10.6670   20.1180 C   0  0  0  0  0  3  0  0  0  0  0  0
  -21.7370   -7.4520   21.1010 O   0  0  0  0  0  0  0  0  0  0  0  0
  -21.5510   -6.7110   22.2400 C   0  0  0  0  0  0  0  0  0  0  0  0
  -21.1540   -7.3040   23.4570 C   0  0  0  0  0  3  0  0  0  0  0  0
  -20.9030   -6.4970   24.5850 C   0  0  0  0  0  3  0  0  0  0  0  0
  -21.0440   -5.0980   24.4970 C   0  0  0  0  0  0  0  0  0  0  0  0
  -21.4360   -4.5060   23.2830 C   0  0  0  0  0  3  0  0  0  0  0  0
  -21.6860   -5.3100   22.1570 C   0  0  0  0  0  0  0  0  0  0  0  0
  -22.0450   -4.7320   20.9850 F   0  0  0  0  0  0  0  0  0  0  0  0
  -20.7970   -4.3230   25.5770 F   0  0  0  0  0  0  0  0  0  0  0  0
  -23.7300  -13.8780   20.9580 C   0  0  0  0  0  0  0  0  0  0  0  0
  -22.9380  -13.3260   21.8710 N   0  0  0  0  0  0  0  0  0  0  0  0
  -23.4110  -14.9200   20.3880 O   0  0  0  0  0  0  0  0  0  0  0  0
  -23.2030  -12.4790   22.3480 H   0  0  0  0  0  0  0  0  0  0  0  0
  -22.0560  -13.7660   22.0930 H   0  0  0  0  0  0  0  0  0  0  0  0
  -26.5590  -15.1810   20.2250 N   0  0  0  0  0  0  0  0  0  0  0  0
  -25.8830  -15.9250   20.3640 H   0  0  0  0  0  0  0  0  0  0  0  0
  -27.4790  -15.5370   20.0070 H   0  0  0  0  0  0  0  0  0  0  0  0
  -29.7930  -20.1600   18.7400 C   0  0  0  0  0  3  0  0  0  0  0  0
  -30.5430  -21.4930   18.9340 C   0  0  0  0  0  0  0  0  0  0  0  0
  -29.9350  -22.6050   18.4800 N   0  0  0  0  0  0  0  0  0  0  0  0
  -31.6490  -21.5190   19.4760 O   0  0  0  0  0  0  0  0  0  0  0  0
  -29.0270  -22.4750   18.0490 H   0  0  0  0  0  0  0  0  0  0  0  0
  -30.4140  -23.9980   18.5700 C   0  0  0  0  0  2  0  0  0  0  0  0
  -29.2470  -24.9350   18.9680 C   0  0  0  0  0  2  0  0  0  0  0  0
  -29.5760  -26.2250   19.5450 O   0  0  0  0  0  0  0  0  0  0  0  0
  -25.9490  -30.4140   24.1170 C   0  0  0  0  0  0  0  0  0  0  0  0
  -28.5060  -27.0910   19.7560 C   0  0  0  0  0  0  0  0  0  0  0  0
  -24.8370  -29.9120   21.9720 C   0  0  0  0  0  3  0  0  0  0  0  0
  -26.3010  -28.8370   20.1890 C   0  0  0  0  0  0  0  0  0  0  0  0
  -27.3970  -29.9450   22.1370 C   0  0  0  0  0  2  0  0  0  0  0  0
  -27.4300  -28.9210   21.0150 C   0  0  0  0  0  0  0  0  0  0  0  0
  -28.5380  -28.0620   20.7950 C   0  0  0  0  0  3  0  0  0  0  0  0
  -27.3380  -27.0280   18.9540 C   0  0  0  0  0  3  0  0  0  0  0  0
  -26.2510  -27.8890   19.1610 C   0  0  0  0  0  3  0  0  0  0  0  0
  -25.1580  -29.7880   20.4620 C   0  0  0  0  0  2  0  0  0  0  0  0
  -26.0730  -30.0800   22.8000 N   0  0  0  0  0  0  0  0  0  0  0  0
  -24.8380  -30.6150   24.6250 O   0  0  0  0  0  0  0  0  0  0  0  0
  -23.9710  -28.7050   22.4000 C   0  0  0  0  0  0  0  0  0  0  0  0
  -22.6570  -28.7810   22.1300 N   0  0  0  0  0  0  0  0  0  0  0  0
  -24.4830  -27.7190   22.9360 O   0  0  0  0  0  0  0  0  0  0  0  0
  -22.3150  -29.6210   21.6880 H   0  0  0  0  0  0  0  0  0  0  0  0
  -19.1370  -27.9930   21.9010 C   0  0  0  0  0  0  0  0  0  0  0  0
  -21.6600  -27.7500   22.4150 C   0  0  0  0  0  3  0  0  0  0  0  0
  -21.6710  -26.6510   21.3300 C   0  0  0  0  0  2  0  0  0  0  0  0
  -20.6660  -26.9060   20.2020 C   0  0  0  0  0  2  0  0  0  0  0  0
  -19.2430  -26.9940   20.7610 C   0  0  0  0  0  2  0  0  0  0  0  0
  -20.2750  -28.3590   22.6670 C   0  0  0  0  0  0  0  0  0  0  0  0
  -20.1290  -29.3180   23.6930 C   0  0  0  0  0  3  0  0  0  0  0  0
  -18.8760  -29.9030   23.9590 C   0  0  0  0  0  3  0  0  0  0  0  0
  -17.7510  -29.5260   23.2060 C   0  0  0  0  0  3  0  0  0  0  0  0
  -17.8830  -28.5720   22.1810 C   0  0  0  0  0  3  0  0  0  0  0  0
  -27.1980  -30.5830   25.0370 C   0  0  0  0  0  3  0  0  0  0  0  0
  -27.0390  -31.8500   25.7610 N   0  0  0  0  0  0  0  0  0  0  0  0
  -27.7360  -32.9640   25.5070 C   0  0  0  0  0  0  0  0  0  0  0  0
  -28.6400  -33.0110   24.6700 O   0  0  0  0  0  0  0  0  0  0  0  0
  -26.2720  -31.9010   26.4170 H   0  0  0  0  0  0  0  0  0  0  0  0
  -26.5440  -35.1780   25.4250 C   0  0  0  0  0  1  0  0  0  0  0  0
  -27.3690  -34.2290   26.3080 C   0  0  0  0  0  3  0  0  0  0  0  0
  -29.2300  -34.2160   27.9090 C   0  0  0  0  0  1  0  0  0  0  0  0
  -28.5450  -34.9460   26.8480 N   0  0  0  0  0  0  0  0  0  0  0  0
  -28.2740  -35.8560   27.2120 H   0  0  0  0  0  0  0  0  0  0  0  0
  -27.3930  -29.3820   26.0430 C   0  0  1  0  0  0  0  0  0  0  0  0
  -26.1310  -29.0600   26.8760 C   0  0  0  0  0  1  0  0  0  0  0  0
  -27.8040  -28.0950   25.2890 C   0  0  0  0  0  1  0  0  0  0  0  0
  -28.5430  -29.7080   27.0250 C   0  0  0  0  0  1  0  0  0  0  0  0
  2  8  1  0
  3  8  1  0
  4  5  1  0
  4  3  1  0
  6  5  1  0
  6 25  1  0
  6  7  1  0
  8  7  1  0
  9  2  2  0
 10 12  1  0
 10 14  1  0
 11 13  1  0
 12 15  1  0
 14  1  1  1
 14 11  1  0
 15  2  1  0
 15 13  1  0
 16 18  1  0
 17 19  1  0
 17 16  2  0
 18 20  2  0
 19 21  2  0
 21 14  1  0
 21 20  1  0
 22 23  2  0
 23 42  1  0
 24 23  1  0
 24 27  1  0
 25 26  1  0
 25 22  1  0
 26 24  2  0
 27 28  1  0
 28 29  2  0
 30 33  1  0
 30 29  1  0
 31 30  2  0
 32 31  1  0
 32 27  2  0
 33 34  1  0
 34 35  1  0
 35 36  2  0
 37 36  1  0
 37 41  1  0
 38 37  2  0
 39 34  2  0
 39 38  1  0
 40 39  1  0
 42 43  1  0
 43 46  1  0
 43 45  1  0
 44 42  2  0
 47 48  1  0
 47 22  1  0
 49 47  1  0
 50 51  1  0
 50  1  2  0
 51 53  2  0
 52 55  1  0
 52 51  1  0
 54 52  1  0
 55 56  1  0
 56 57  1  0
 57 59  1  0
 58 69  2  0
 59 64  1  0
 60 70  1  0
 60 68  1  0
 61 67  1  0
 61 63  1  0
 62 68  1  0
 63 62  1  0
 64 63  2  0
 65 66  1  0
 65 59  2  0
 66 61  2  0
 67 60  1  0
 68 58  1  0
 70 72  2  0
 71 70  1  0
 73 71  1  0
 74 83  2  0
 74 79  1  0
 75 71  1  0
 75 79  1  0
 76 75  1  0
 77 78  1  0
 77 76  1  0
 78 74  1  0
 79 80  2  0
 80 81  1  0
 82 81  2  0
 83 82  1  0
 84 58  1  0
 84 85  1  0
 84 94  1  0
 85 88  1  0
 86 85  1  0
 86 90  1  0
 87 86  2  0
 90 89  1  0
 90 92  1  0
 92 93  1  0
 92 91  1  0
 94 95  1  1
 94 97  1  0
 96 94  1  0
M  ISO  4   2 100  15 100  56 101  57 101
M  END
>  <TORSDO>  (43) 
F 21

>  <SCORE>  (43) 
-8.591

>  <name>  (43) 
42

>  <ligand_id>  (43) 
42

>  <original_smiles>  (43) 
[H]c1c([H])c([H])c(C2(C([H])([H])C([H])([H])C(=O)N([H])C([H])([H])C([H])([H])Oc3c([H])c([H])c4c(c3[H])C([H])([H])N(C(=O)C([H])(N([H])C(=O)C([H])(N([H])C([H])([H])[H])C([H])([H])[H])C(C([H])([H])[H])(C([H])([H])[H])C([H])([H])[H])C([H])(C(=O)N([H])C3([H])c5c([H])c([H])c([H])c([H])c5C([H])([H])C([H])([H])C3([H])[H])C4([H])[H])C([H])([H])C([H])([H])N(C(=O)N3C([H])([H])C([H])([H])C([H])([H])C([H])(n4nc(-c5c([H])c([H])c(Oc6c([H])c([H])c(F)c([H])c6F)c([H])c5[H])c(C(=O)N([H])[H])c4N([H])[H])C3([H])[H])C([H])([H])C2([H])[H])c([H])c1[H]

>  <smiles>  (43) 
[H]c1c([H])c([H])c(C2(C([H])([H])C([H])([H])C(=O)N([H])C([H])([H])C([H])([H])Oc3c([H])c([H])c4c(c3[H])C([H])([H])N(C(=O)C([H])(N([H])C(=O)C([H])(N([H])C([H])([H])[H])C([H])([H])[H])C(C([H])([H])[H])(C([H])([H])[H])C([H])([H])[H])C([H])(C(=O)N([H])C3([H])c5c([H])c([H])c([H])c([H])c5C([H])([H])C([H])([H])C3([H])[H])C4([H])[H])C([H])([H])C([H])([H])N(C(=O)N3C([H])([H])C([H])([H])C([H])([H])C([H])(n4nc(-c5c([H])c([H])c(Oc6c([H])c([H])c(F)c([H])c6F)c([H])c5[H])c(C(=O)N([H])[H])c4N([H])[H])C3([H])[H])C([H])([H])C2([H])[H])c([H])c1[H]

$$$$
43:0:0
     RDKit          3D

 95103  0  0  1  0  0  0  0  0999 V2000
  -30.4340  -20.6620   20.8420 C   0  0  0  0  0  2  0  0  0  0  0  0
  -28.3210  -20.3770   19.7730 C   0  0  0  0  0  2  0  0  0  0  0  0
  -30.5050  -19.0410   21.1600 C   0  0  0  0  0  2  0  0  0  0  0  0
  -28.4130  -18.7700   20.1340 C   0  0  0  0  0  2  0  0  0  0  0  0
  -29.0460  -21.4830   20.6800 C   0  0  0  0  0  3  0  0  0  0  0  0
  -29.8210  -17.9610   20.1690 C   0  0  2  0  0  0  0  0  0  0  0  0
  -30.5510  -15.1680   20.3150 C   0  0  0  0  0  0  0  0  0  0  0  0
  -30.4720  -12.7820   19.3870 C   0  0  0  0  0  2  0  0  0  0  0  0
  -29.5480  -12.7090   18.1470 C   0  0  0  0  0  2  0  0  0  0  0  0
  -28.0860  -12.4750   18.5690 C   0  0  0  0  0  2  0  0  0  0  0  0
  -27.6660  -13.3820   19.7540 C   0  0  0  0  0  3  0  0  0  0  0  0
  -28.7200  -13.4220   20.8840 C   0  0  0  0  0  2  0  0  0  0  0  0
  -29.9790  -13.8810   20.2810 N   0  0  0  0  0  0  0  0  0  0  0  0
  -31.7380  -15.2250   19.9750 O   0  0  0  0  0  0  0  0  0  0  0  0
  -29.7650  -16.3690   20.5310 N   0  0  0  0  0  0  0  0  0  0  0  0
  -28.8530  -16.1140   20.8810 H   0  0  0  0  0  0  0  0  0  0  0  0
  -25.2840  -13.9320   20.4900 C   0  0  0  0  0  0  0  0  0  0  0  0
  -24.2250  -13.1480   20.8570 C   0  0  0  0  0  0  0  0  0  0  0  0
  -24.7020  -11.8000   20.8260 C   0  0  0  0  0  0  0  0  0  0  0  0
  -26.3330  -13.0630   20.2490 N   0  0  0  0  0  0  0  0  0  0  0  0
  -25.9940  -11.7750   20.5160 N   0  0  0  0  0  0  0  0  0  0  0  0
  -23.9830  -10.5320   21.0130 C   0  0  0  0  0  0  0  0  0  0  0  0
  -24.4070   -9.5730   21.9590 C   0  0  0  0  0  3  0  0  0  0  0  0
  -23.6870   -8.3730   22.1340 C   0  0  0  0  0  3  0  0  0  0  0  0
  -22.5250   -8.1230   21.3660 C   0  0  0  0  0  0  0  0  0  0  0  0
  -22.1200   -9.0710   20.4080 C   0  0  0  0  0  3  0  0  0  0  0  0
  -22.8420  -10.2610   20.2310 C   0  0  0  0  0  3  0  0  0  0  0  0
  -21.7740   -6.9760   21.4510 O   0  0  0  0  0  0  0  0  0  0  0  0
  -21.7010   -6.2480   22.6130 C   0  0  0  0  0  0  0  0  0  0  0  0
  -21.2340   -6.8150   23.8190 C   0  0  0  0  0  3  0  0  0  0  0  0
  -21.1090   -6.0130   24.9720 C   0  0  0  0  0  3  0  0  0  0  0  0
  -21.4410   -4.6460   24.9180 C   0  0  0  0  0  0  0  0  0  0  0  0
  -21.9010   -4.0780   23.7180 C   0  0  0  0  0  3  0  0  0  0  0  0
  -22.0270   -4.8780   22.5670 C   0  0  0  0  0  0  0  0  0  0  0  0
  -22.4500   -4.3220   21.4060 F   0  0  0  0  0  0  0  0  0  0  0  0
  -21.3150   -3.8740   26.0240 F   0  0  0  0  0  0  0  0  0  0  0  0
  -22.8240  -13.6140   21.1200 C   0  0  0  0  0  0  0  0  0  0  0  0
  -22.0950  -12.9070   21.9780 N   0  0  0  0  0  0  0  0  0  0  0  0
  -22.3820  -14.6380   20.6020 O   0  0  0  0  0  0  0  0  0  0  0  0
  -22.4640  -12.0790   22.4200 H   0  0  0  0  0  0  0  0  0  0  0  0
  -21.1530  -13.2000   22.1950 H   0  0  0  0  0  0  0  0  0  0  0  0
  -25.4380  -15.3060   20.3200 N   0  0  0  0  0  0  0  0  0  0  0  0
  -24.6790  -15.9590   20.4780 H   0  0  0  0  0  0  0  0  0  0  0  0
  -26.2750  -15.7540   19.9720 H   0  0  0  0  0  0  0  0  0  0  0  0
  -30.4680  -18.0460   18.7670 C   0  0  0  0  0  0  0  0  0  0  0  0
  -31.6590  -18.3310   18.6150 O   0  0  0  0  0  0  0  0  0  0  0  0
  -29.5910  -17.7240   17.5520 C   0  0  0  0  0  2  0  0  0  0  0  0
  -29.4200  -18.9170   16.5820 C   0  0  0  0  0  2  0  0  0  0  0  0
  -28.0070  -19.2490   16.3040 N   0  0  0  0  0  4  0  0  0  0  0  0
  -27.5080  -18.4520   15.9510 H   0  0  0  0  0  0  0  0  0  0  0  0
  -27.9610  -19.9640   15.5960 H   0  0  0  0  0  0  0  0  0  0  0  0
  -27.5300  -19.5990   17.1160 H   0  0  0  0  0  0  0  0  0  0  0  0
  -29.1180  -23.1840   20.2600 C   0  0  0  0  0  3  0  0  0  0  0  0
  -28.0450  -24.5330   20.4710 C   0  0  0  0  0  3  0  0  0  0  0  0
  -28.2790  -26.1060   20.2890 O   0  0  0  0  0  0  0  0  0  0  0  0
  -24.6420  -31.9200   23.2190 C   0  0  0  0  0  0  0  0  0  0  0  0
  -27.2220  -27.1190   20.2480 C   0  0  0  0  0  0  0  0  0  0  0  0
  -23.4410  -30.5010   21.6030 C   0  0  0  0  0  3  0  0  0  0  0  0
  -24.8910  -28.9030   20.1940 C   0  0  0  0  0  0  0  0  0  0  0  0
  -25.9980  -30.7580   21.4260 C   0  0  0  0  0  2  0  0  0  0  0  0
  -26.0760  -29.3500   20.7910 C   0  0  0  0  0  0  0  0  0  0  0  0
  -27.2390  -28.4780   20.7950 C   0  0  0  0  0  3  0  0  0  0  0  0
  -26.0060  -26.7920   19.6050 C   0  0  0  0  0  3  0  0  0  0  0  0
  -24.8730  -27.6390   19.5820 C   0  0  0  0  0  3  0  0  0  0  0  0
  -23.6610  -29.8020   20.2350 C   0  0  0  0  0  2  0  0  0  0  0  0
  -24.7150  -31.0850   22.1370 N   0  0  0  0  0  0  0  0  0  0  0  0
  -23.5570  -32.2060   23.7470 O   0  0  0  0  0  0  0  0  0  0  0  0
  -22.7660  -29.5060   22.5820 C   0  0  0  0  0  0  0  0  0  0  0  0
  -21.4390  -29.3250   22.4580 N   0  0  0  0  0  0  0  0  0  0  0  0
  -23.4420  -28.8980   23.4160 O   0  0  0  0  0  0  0  0  0  0  0  0
  -20.9490  -29.8640   21.7580 H   0  0  0  0  0  0  0  0  0  0  0  0
  -18.0690  -28.0980   22.9810 C   0  0  0  0  0  0  0  0  0  0  0  0
  -20.6250  -28.3920   23.2440 C   0  0  0  0  0  3  0  0  0  0  0  0
  -20.7430  -26.9520   22.6930 C   0  0  0  0  0  2  0  0  0  0  0  0
  -19.6440  -26.6020   21.6830 C   0  0  0  0  0  2  0  0  0  0  0  0
  -18.2600  -26.7420   22.3240 C   0  0  0  0  0  2  0  0  0  0  0  0
  -19.1790  -28.8800   23.3980 C   0  0  0  0  0  0  0  0  0  0  0  0
  -18.9440  -30.1470   23.9740 C   0  0  0  0  0  3  0  0  0  0  0  0
  -17.6320  -30.6330   24.1370 C   0  0  0  0  0  3  0  0  0  0  0  0
  -16.5370  -29.8490   23.7360 C   0  0  0  0  0  3  0  0  0  0  0  0
  -16.7560  -28.5830   23.1630 C   0  0  0  0  0  3  0  0  0  0  0  0
  -25.9170  -32.5720   23.8350 C   0  0  0  0  0  3  0  0  0  0  0  0
  -25.5940  -33.9700   24.1660 N   0  0  0  0  0  0  0  0  0  0  0  0
  -25.9200  -35.0300   23.4140 C   0  0  0  0  0  0  0  0  0  0  0  0
  -26.5880  -34.9350   22.3820 O   0  0  0  0  0  0  0  0  0  0  0  0
  -25.0010  -34.1160   24.9690 H   0  0  0  0  0  0  0  0  0  0  0  0
  -24.1870  -36.8240   23.0710 C   0  0  0  0  0  1  0  0  0  0  0  0
  -25.4280  -36.4160   23.8800 C   0  0  0  0  0  3  0  0  0  0  0  0
  -27.5580  -37.3050   24.7220 C   0  0  0  0  0  1  0  0  0  0  0  0
  -26.4580  -37.4730   23.7750 N   0  0  0  0  0  0  0  0  0  0  0  0
  -26.0490  -38.3910   23.9280 H   0  0  0  0  0  0  0  0  0  0  0  0
  -26.4430  -31.8140   25.1150 C   0  0  1  0  0  0  0  0  0  0  0  0
  -25.3530  -31.5750   26.1870 C   0  0  0  0  0  1  0  0  0  0  0  0
  -27.0370  -30.4390   24.7380 C   0  0  0  0  0  1  0  0  0  0  0  0
  -27.5880  -32.6220   25.7700 C   0  0  0  0  0  1  0  0  0  0  0  0
  1  3  1  0
  2  4  1  0
  2  5  1  0
  4  6  1  0
  5 53  1  0
  5  1  1  0
  6 45  1  0
  6 15  1  1
  6  3  1  0
  7 15  1  0
  8 13  1  0
  9 10  1  0
  9  8  1  0
 11 10  1  0
 11 20  1  0
 11 12  1  0
 13  7  1  0
 13 12  1  0
 14  7  2  0
 15 16  1  0
 17 18  2  0
 18 37  1  0
 19 18  1  0
 19 22  1  0
 20 17  1  0
 20 21  1  0
 21 19  2  0
 22 23  1  0
 23 24  2  0
 25 28  1  0
 25 24  1  0
 26 25  2  0
 27 26  1  0
 27 22  2  0
 28 29  1  0
 29 30  1  0
 30 31  2  0
 32 31  1  0
 32 36  1  0
 33 32  2  0
 34 29  2  0
 34 33  1  0
 35 34  1  0
 37 38  1  0
 38 41  1  0
 38 40  1  0
 39 37  2  0
 42 43  1  0
 42 17  1  0
 44 42  1  0
 46 45  2  0
 47 45  1  0
 48 47  1  0
 49 48  1  0
 49 52  1  0
 50 49  1  0
 51 49  1  0
 53 54  2  0
 55 54  1  0
 56 67  2  0
 57 55  1  0
 57 62  1  0
 58 66  1  0
 58 68  1  0
 59 65  1  0
 59 61  1  0
 60 66  1  0
 61 62  2  0
 61 60  1  0
 63 57  2  0
 64 63  1  0
 64 59  2  0
 65 58  1  0
 66 56  1  0
 68 70  2  0
 69 68  1  0
 71 69  1  0
 72 81  2  0
 72 77  1  0
 73 69  1  0
 73 77  1  0
 74 73  1  0
 75 76  1  0
 75 74  1  0
 76 72  1  0
 77 78  2  0
 78 79  1  0
 80 79  2  0
 81 80  1  0
 82 56  1  0
 82 83  1  0
 82 92  1  0
 83 86  1  0
 84 88  1  0
 84 83  1  0
 85 84  2  0
 88 87  1  0
 90 88  1  0
 90 91  1  0
 90 89  1  0
 92 95  1  1
 92 93  1  0
 94 92  1  0
M  ISO  4   7 100  15 100  54 101  55 101
M  END
>  <TORSDO>  (44) 
F 22

>  <SCORE>  (44) 
-14.341

>  <name>  (44) 
43

>  <ligand_id>  (44) 
43

>  <original_smiles>  (44) 
[H]c1c([H])c([H])c2c(c1[H])C([H])([H])C([H])([H])C([H])([H])C2([H])N([H])C(=O)C1([H])N(C(=O)C([H])(N([H])C(=O)C([H])(N([H])C([H])([H])[H])C([H])([H])[H])C(C([H])([H])[H])(C([H])([H])[H])C([H])([H])[H])C([H])([H])c2c([H])c(OC([H])([H])C([H])([H])C3([H])C([H])([H])C([H])([H])C(C(=O)C([H])([H])C([H])([H])[N+]([H])([H])[H])(N([H])C(=O)N4C([H])([H])C([H])([H])C([H])([H])C([H])(n5nc(-c6c([H])c([H])c(Oc7c([H])c([H])c(F)c([H])c7F)c([H])c6[H])c(C(=O)N([H])[H])c5N([H])[H])C4([H])[H])C([H])([H])C3([H])[H])c([H])c([H])c2C1([H])[H]

>  <smiles>  (44) 
[H]c1c([H])c([H])c2c(c1[H])C([H])([H])C([H])([H])C([H])([H])C2([H])N([H])C(=O)C1([H])N(C(=O)C([H])(N([H])C(=O)C([H])(N([H])C([H])([H])[H])C([H])([H])[H])C(C([H])([H])[H])(C([H])([H])[H])C([H])([H])[H])C([H])([H])c2c([H])c(OC([H])([H])C([H])([H])C3([H])C([H])([H])C([H])([H])C(C(=O)C([H])([H])C([H])([H])[N+]([H])([H])[H])(N([H])C(=O)N4C([H])([H])C([H])([H])C([H])([H])C([H])(n5nc(-c6c([H])c([H])c(Oc7c([H])c([H])c(F)c([H])c7F)c([H])c6[H])c(C(=O)N([H])[H])c5N([H])[H])C4([H])[H])C([H])([H])C3([H])[H])c([H])c([H])c2C1([H])[H]

$$$$
44:0:0
     RDKit          3D

 95103  0  0  1  0  0  0  0  0999 V2000
  -28.9520  -19.1350   20.0350 C   0  0  0  0  0  3  0  0  0  0  0  0
  -31.7290  -17.3800   22.0700 C   0  0  0  0  0  2  0  0  0  0  0  0
  -32.4660  -17.8810   20.8290 C   0  0  0  0  0  2  0  0  0  0  0  0
  -30.2920  -17.8620   21.8870 C   0  0  0  0  0  2  0  0  0  0  0  0
  -31.3910  -18.1540   19.7620 C   0  0  0  0  0  2  0  0  0  0  0  0
  -30.0010  -17.8250   20.3700 C   0  0  2  0  0  0  0  0  0  0  0  0
  -30.3880  -15.0870   19.8490 C   0  0  0  0  0  0  0  0  0  0  0  0
  -30.1930  -12.7500   18.8760 C   0  0  0  0  0  2  0  0  0  0  0  0
  -29.1610  -12.7020   17.7270 C   0  0  0  0  0  2  0  0  0  0  0  0
  -27.7460  -12.4590   18.2850 C   0  0  0  0  0  2  0  0  0  0  0  0
  -27.4270  -13.3650   19.5020 C   0  0  0  0  0  3  0  0  0  0  0  0
  -28.5760  -13.3960   20.5320 C   0  0  0  0  0  2  0  0  0  0  0  0
  -29.7760  -13.8360   19.8110 N   0  0  0  0  0  0  0  0  0  0  0  0
  -31.5740  -15.1180   19.5050 O   0  0  0  0  0  0  0  0  0  0  0  0
  -29.6430  -16.2900   20.0760 N   0  0  0  0  0  0  0  0  0  0  0  0
  -28.6670  -16.0850   20.2310 H   0  0  0  0  0  0  0  0  0  0  0  0
  -25.1250  -13.8900   20.4860 C   0  0  0  0  0  0  0  0  0  0  0  0
  -24.1020  -13.0900   20.9150 C   0  0  0  0  0  0  0  0  0  0  0  0
  -24.5670  -11.7460   20.7790 C   0  0  0  0  0  0  0  0  0  0  0  0
  -26.1440  -13.0320   20.1110 N   0  0  0  0  0  0  0  0  0  0  0  0
  -25.8260  -11.7350   20.3540 N   0  0  0  0  0  0  0  0  0  0  0  0
  -23.8650  -10.4710   20.9740 C   0  0  0  0  0  0  0  0  0  0  0  0
  -24.3310   -9.5020   21.8890 C   0  0  0  0  0  3  0  0  0  0  0  0
  -23.6230   -8.2940   22.0730 C   0  0  0  0  0  3  0  0  0  0  0  0
  -22.4370   -8.0460   21.3420 C   0  0  0  0  0  0  0  0  0  0  0  0
  -21.9910   -9.0050   20.4150 C   0  0  0  0  0  3  0  0  0  0  0  0
  -22.6980  -10.2040   20.2280 C   0  0  0  0  0  3  0  0  0  0  0  0
  -21.6990   -6.8910   21.4360 O   0  0  0  0  0  0  0  0  0  0  0  0
  -21.6310   -6.1750   22.6040 C   0  0  0  0  0  0  0  0  0  0  0  0
  -21.0910   -6.7250   23.7860 C   0  0  0  0  0  3  0  0  0  0  0  0
  -20.9760   -5.9310   24.9450 C   0  0  0  0  0  3  0  0  0  0  0  0
  -21.3920   -4.5870   24.9210 C   0  0  0  0  0  0  0  0  0  0  0  0
  -21.9270   -4.0350   23.7440 C   0  0  0  0  0  3  0  0  0  0  0  0
  -22.0430   -4.8270   22.5880 C   0  0  0  0  0  0  0  0  0  0  0  0
  -22.5380   -4.2830   21.4500 F   0  0  0  0  0  0  0  0  0  0  0  0
  -21.2760   -3.8210   26.0320 F   0  0  0  0  0  0  0  0  0  0  0  0
  -22.7340  -13.5440   21.3290 C   0  0  0  0  0  0  0  0  0  0  0  0
  -22.0860  -12.8040   22.2210 N   0  0  0  0  0  0  0  0  0  0  0  0
  -22.2510  -14.5910   20.8980 O   0  0  0  0  0  0  0  0  0  0  0  0
  -22.4930  -11.9560   22.5870 H   0  0  0  0  0  0  0  0  0  0  0  0
  -21.1710  -13.0870   22.5410 H   0  0  0  0  0  0  0  0  0  0  0  0
  -25.2630  -15.2690   20.3550 N   0  0  0  0  0  0  0  0  0  0  0  0
  -24.4970  -15.9020   20.5530 H   0  0  0  0  0  0  0  0  0  0  0  0
  -26.0540  -15.7290   19.9250 H   0  0  0  0  0  0  0  0  0  0  0  0
  -28.4720  -19.0110   18.6500 N   0  0  0  0  0  4  0  0  0  0  0  0
  -29.2080  -19.2140   17.9980 H   0  0  0  0  0  0  0  0  0  0  0  0
  -27.7140  -19.6460   18.4800 H   0  0  0  0  0  0  0  0  0  0  0  0
  -28.1480  -18.0780   18.4760 H   0  0  0  0  0  0  0  0  0  0  0  0
  -29.3030  -20.7730   20.3680 C   0  0  0  0  0  2  0  0  0  0  0  0
  -28.7460  -23.4450   20.1630 C   0  0  0  0  0  0  0  0  0  0  0  0
  -28.4280  -22.0600   20.0410 N   0  0  0  0  0  0  0  0  0  0  0  0
  -29.9030  -23.7140   20.5020 O   0  0  0  0  0  0  0  0  0  0  0  0
  -27.4660  -21.8800   19.7860 H   0  0  0  0  0  0  0  0  0  0  0  0
  -27.7240  -24.7410   19.9020 C   0  0  0  0  0  2  0  0  0  0  0  0
  -28.0250  -26.2670   20.0270 O   0  0  0  0  0  0  0  0  0  0  0  0
  -24.5610  -31.9610   23.1620 C   0  0  0  0  0  0  0  0  0  0  0  0
  -26.9770  -27.2580   20.0010 C   0  0  0  0  0  0  0  0  0  0  0  0
  -23.2860  -30.5920   21.5570 C   0  0  0  0  0  3  0  0  0  0  0  0
  -24.6650  -29.0180   20.0640 C   0  0  0  0  0  0  0  0  0  0  0  0
  -25.8320  -30.8410   21.2940 C   0  0  0  0  0  2  0  0  0  0  0  0
  -25.8700  -29.4530   20.6290 C   0  0  0  0  0  0  0  0  0  0  0  0
  -27.0270  -28.5890   20.5790 C   0  0  0  0  0  3  0  0  0  0  0  0
  -25.7460  -26.9210   19.3990 C   0  0  0  0  0  3  0  0  0  0  0  0
  -24.6160  -27.7650   19.4310 C   0  0  0  0  0  3  0  0  0  0  0  0
  -23.4490  -29.9240   20.1650 C   0  0  0  0  0  2  0  0  0  0  0  0
  -24.5820  -31.1510   22.0590 N   0  0  0  0  0  0  0  0  0  0  0  0
  -23.4980  -32.2490   23.7330 O   0  0  0  0  0  0  0  0  0  0  0  0
  -22.6360  -29.5800   22.5370 C   0  0  0  0  0  0  0  0  0  0  0  0
  -21.3150  -29.3680   22.4120 N   0  0  0  0  0  0  0  0  0  0  0  0
  -23.3270  -28.9900   23.3720 O   0  0  0  0  0  0  0  0  0  0  0  0
  -20.8140  -29.8990   21.7130 H   0  0  0  0  0  0  0  0  0  0  0  0
  -17.9780  -28.0450   22.8960 C   0  0  0  0  0  0  0  0  0  0  0  0
  -20.5190  -28.4210   23.1960 C   0  0  0  0  0  3  0  0  0  0  0  0
  -20.6900  -26.9780   22.6690 C   0  0  0  0  0  2  0  0  0  0  0  0
  -19.6190  -26.5790   21.6480 C   0  0  0  0  0  2  0  0  0  0  0  0
  -18.2220  -26.6860   22.2640 C   0  0  0  0  0  2  0  0  0  0  0  0
  -19.0560  -28.8670   23.3210 C   0  0  0  0  0  0  0  0  0  0  0  0
  -18.7750  -30.1340   23.8730 C   0  0  0  0  0  3  0  0  0  0  0  0
  -17.4480  -30.5830   24.0050 C   0  0  0  0  0  3  0  0  0  0  0  0
  -16.3830  -29.7610   23.5970 C   0  0  0  0  0  3  0  0  0  0  0  0
  -16.6490  -28.4940   23.0480 C   0  0  0  0  0  3  0  0  0  0  0  0
  -25.8670  -32.5800   23.7450 C   0  0  0  0  0  3  0  0  0  0  0  0
  -25.5690  -33.9660   24.1390 N   0  0  0  0  0  0  0  0  0  0  0  0
  -25.8380  -35.0480   23.3950 C   0  0  0  0  0  0  0  0  0  0  0  0
  -26.4290  -34.9830   22.3130 O   0  0  0  0  0  0  0  0  0  0  0  0
  -25.0360  -34.0900   24.9870 H   0  0  0  0  0  0  0  0  0  0  0  0
  -24.0710  -36.8330   23.2420 C   0  0  0  0  0  1  0  0  0  0  0  0
  -25.3780  -36.4180   23.9330 C   0  0  0  0  0  3  0  0  0  0  0  0
  -27.5600  -37.3150   24.6200 C   0  0  0  0  0  1  0  0  0  0  0  0
  -26.3880  -37.4850   23.7640 N   0  0  0  0  0  0  0  0  0  0  0  0
  -25.9830  -38.3980   23.9590 H   0  0  0  0  0  0  0  0  0  0  0  0
  -26.4410  -31.7720   24.9730 C   0  0  1  0  0  0  0  0  0  0  0  0
  -25.3870  -31.4590   26.0610 C   0  0  0  0  0  1  0  0  0  0  0  0
  -27.0490  -30.4280   24.5090 C   0  0  0  0  0  1  0  0  0  0  0  0
  -27.5900  -32.5680   25.6340 C   0  0  0  0  0  1  0  0  0  0  0  0
  1 49  1  0
  6  1  1  1
  3  2  1  0
  4  2  1  0
  5  6  1  0
  5  3  1  0
  6  4  1  0
  7 15  1  0
  8 13  1  0
  9 10  1  0
  9  8  1  0
 11 10  1  0
 11 20  1  0
 11 12  1  0
 13  7  1  0
 13 12  1  0
 14  7  2  0
 15 16  1  0
 15  6  1  0
 17 18  2  0
 18 37  1  0
 19 18  1  0
 19 22  1  0
 20 21  1  0
 20 17  1  0
 21 19  2  0
 22 23  1  0
 23 24  2  0
 25 28  1  0
 25 24  1  0
 26 25  2  0
 27 26  1  0
 27 22  2  0
 28 29  1  0
 29 30  1  0
 30 31  2  0
 32 31  1  0
 32 36  1  0
 33 32  2  0
 34 29  2  0
 34 33  1  0
 35 34  1  0
 37 38  1  0
 38 41  1  0
 38 40  1  0
 39 37  2  0
 42 17  1  0
 42 43  1  0
 44 42  1  0
 45  1  1  0
 46 45  1  0
 47 45  1  0
 48 45  1  0
 50 52  2  0
 51 50  1  0
 51 49  1  0
 53 51  1  0
 54 55  1  0
 54 50  1  0
 56 67  2  0
 57 55  1  0
 57 62  1  0
 58 66  1  0
 58 68  1  0
 59 65  1  0
 59 61  1  0
 60 66  1  0
 61 60  1  0
 62 61  2  0
 63 64  1  0
 63 57  2  0
 64 59  2  0
 65 58  1  0
 66 56  1  0
 68 70  2  0
 69 68  1  0
 71 69  1  0
 72 81  2  0
 72 77  1  0
 73 69  1  0
 73 77  1  0
 74 73  1  0
 75 76  1  0
 75 74  1  0
 76 72  1  0
 77 78  2  0
 78 79  1  0
 80 79  2  0
 81 80  1  0
 82 56  1  0
 82 83  1  0
 82 92  1  0
 83 86  1  0
 84 88  1  0
 84 83  1  0
 85 84  2  0
 88 87  1  0
 90 88  1  0
 90 91  1  0
 90 89  1  0
 92 95  1  1
 92 93  1  0
 94 92  1  0
M  ISO  4   7 100  15 100  54 101  55 101
M  END
>  <TORSDO>  (45) 
F 21

>  <SCORE>  (45) 
-13.966

>  <name>  (45) 
44

>  <ligand_id>  (45) 
44

>  <original_smiles>  (45) 
[H]c1c([H])c([H])c2c(c1[H])C([H])([H])C([H])([H])C([H])([H])C2([H])N([H])C(=O)C1([H])N(C(=O)C([H])(N([H])C(=O)C([H])(N([H])C([H])([H])[H])C([H])([H])[H])C(C([H])([H])[H])(C([H])([H])[H])C([H])([H])[H])C([H])([H])c2c([H])c(OC([H])([H])C(=O)N([H])C([H])([H])C([H])(C3(N([H])C(=O)N4C([H])([H])C([H])([H])C([H])([H])C([H])(n5nc(-c6c([H])c([H])c(Oc7c([H])c([H])c(F)c([H])c7F)c([H])c6[H])c(C(=O)N([H])[H])c5N([H])[H])C4([H])[H])C([H])([H])C([H])([H])C([H])([H])C3([H])[H])[N+]([H])([H])[H])c([H])c([H])c2C1([H])[H]

>  <smiles>  (45) 
[H]c1c([H])c([H])c2c(c1[H])C([H])([H])C([H])([H])C([H])([H])C2([H])N([H])C(=O)C1([H])N(C(=O)C([H])(N([H])C(=O)C([H])(N([H])C([H])([H])[H])C([H])([H])[H])C(C([H])([H])[H])(C([H])([H])[H])C([H])([H])[H])C([H])([H])c2c([H])c(OC([H])([H])C(=O)N([H])C([H])([H])C([H])(C3(N([H])C(=O)N4C([H])([H])C([H])([H])C([H])([H])C([H])(n5nc(-c6c([H])c([H])c(Oc7c([H])c([H])c(F)c([H])c7F)c([H])c6[H])c(C(=O)N([H])[H])c5N([H])[H])C4([H])[H])C([H])([H])C([H])([H])C([H])([H])C3([H])[H])[N+]([H])([H])[H])c([H])c([H])c2C1([H])[H]

$$$$
45:0:0
     RDKit          3D

 92 99  0  0  1  0  0  0  0  0999 V2000
  -29.0120  -18.5250   20.3640 C   0  0  0  0  0  0  0  0  0  0  0  0
  -29.2420  -19.8640   20.0970 N   0  0  0  0  0  0  0  0  0  0  0  0
  -27.8950  -18.1430   20.7120 O   0  0  0  0  0  0  0  0  0  0  0  0
  -30.1860  -20.0910   19.8110 H   0  0  0  0  0  0  0  0  0  0  0  0
  -28.3090  -21.0500   20.3180 C   0  0  0  0  0  3  0  0  0  0  0  0
  -28.6820  -22.5020   19.7200 C   0  0  0  0  0  3  0  0  0  0  0  0
  -27.8930  -23.8330   20.2040 C   0  0  0  0  0  2  0  0  0  0  0  0
  -28.1380  -25.2240   19.4240 C   0  0  0  0  0  2  0  0  0  0  0  0
  -28.0420  -26.5760   20.0560 O   0  0  0  0  0  0  0  0  0  0  0  0
  -24.5240  -32.0030   23.2320 C   0  0  0  0  0  0  0  0  0  0  0  0
  -26.9180  -27.4240   20.0180 C   0  0  0  0  0  0  0  0  0  0  0  0
  -23.2260  -30.6580   21.6180 C   0  0  0  0  0  3  0  0  0  0  0  0
  -24.5840  -29.0920   20.1120 C   0  0  0  0  0  0  0  0  0  0  0  0
  -25.7590  -30.9290   21.3290 C   0  0  0  0  0  2  0  0  0  0  0  0
  -25.7830  -29.5520   20.6700 C   0  0  0  0  0  0  0  0  0  0  0  0
  -26.9470  -28.7270   20.6140 C   0  0  0  0  0  3  0  0  0  0  0  0
  -25.6940  -27.0160   19.4430 C   0  0  0  0  0  3  0  0  0  0  0  0
  -24.5420  -27.8300   19.4940 C   0  0  0  0  0  3  0  0  0  0  0  0
  -23.3680  -29.9920   20.2220 C   0  0  0  0  0  2  0  0  0  0  0  0
  -24.5260  -31.2130   22.1190 N   0  0  0  0  0  0  0  0  0  0  0  0
  -23.4690  -32.2940   23.8140 O   0  0  0  0  0  0  0  0  0  0  0  0
  -22.5780  -29.6450   22.5900 C   0  0  0  0  0  0  0  0  0  0  0  0
  -21.2510  -29.4620   22.4800 N   0  0  0  0  0  0  0  0  0  0  0  0
  -23.2680  -29.0210   23.4010 O   0  0  0  0  0  0  0  0  0  0  0  0
  -20.7530  -30.0150   21.7970 H   0  0  0  0  0  0  0  0  0  0  0  0
  -17.8920  -28.2300   22.9990 C   0  0  0  0  0  0  0  0  0  0  0  0
  -20.4470  -28.5210   23.2600 C   0  0  0  0  0  3  0  0  0  0  0  0
  -20.5640  -27.0860   22.6960 C   0  0  0  0  0  2  0  0  0  0  0  0
  -19.4640  -26.7410   21.6880 C   0  0  0  0  0  2  0  0  0  0  0  0
  -18.0820  -26.8780   22.3330 C   0  0  0  0  0  2  0  0  0  0  0  0
  -19.0020  -29.0080   23.4210 C   0  0  0  0  0  0  0  0  0  0  0  0
  -18.7700  -30.2730   24.0050 C   0  0  0  0  0  3  0  0  0  0  0  0
  -17.4600  -30.7610   24.1660 C   0  0  0  0  0  3  0  0  0  0  0  0
  -16.3640  -29.9810   23.7580 C   0  0  0  0  0  3  0  0  0  0  0  0
  -16.5800  -28.7170   23.1820 C   0  0  0  0  0  3  0  0  0  0  0  0
  -25.8430  -32.5950   23.8180 C   0  0  0  0  0  3  0  0  0  0  0  0
  -25.5910  -34.0080   24.1390 N   0  0  0  0  0  0  0  0  0  0  0  0
  -25.9460  -35.0400   23.3620 C   0  0  0  0  0  0  0  0  0  0  0  0
  -26.5870  -34.9000   22.3160 O   0  0  0  0  0  0  0  0  0  0  0  0
  -25.0140  -34.1900   24.9470 H   0  0  0  0  0  0  0  0  0  0  0  0
  -24.2810  -36.8960   23.0250 C   0  0  0  0  0  1  0  0  0  0  0  0
  -25.5220  -36.4500   23.8150 C   0  0  0  0  0  3  0  0  0  0  0  0
  -27.7020  -37.2660   24.5980 C   0  0  0  0  0  1  0  0  0  0  0  0
  -26.5910  -37.4610   23.6690 N   0  0  0  0  0  0  0  0  0  0  0  0
  -26.2220  -38.3990   23.8080 H   0  0  0  0  0  0  0  0  0  0  0  0
  -26.3560  -31.8210   25.0950 C   0  0  1  0  0  0  0  0  0  0  0  0
  -25.2700  -31.6260   26.1790 C   0  0  0  0  0  1  0  0  0  0  0  0
  -26.8930  -30.4250   24.7030 C   0  0  0  0  0  1  0  0  0  0  0  0
  -27.5370  -32.5890   25.7340 C   0  0  0  0  0  1  0  0  0  0  0  0
  -30.1740  -17.4310   20.2890 C   0  0  0  0  0  3  0  0  0  0  0  0
  -30.4270  -14.8410   19.9310 C   0  0  0  0  0  0  0  0  0  0  0  0
  -30.1230  -12.6010   18.8820 C   0  0  0  0  0  2  0  0  0  0  0  0
  -29.1010  -12.7320   17.7350 C   0  0  0  0  0  2  0  0  0  0  0  0
  -27.6680  -12.5300   18.2670 C   0  0  0  0  0  2  0  0  0  0  0  0
  -27.3880  -13.3630   19.5490 C   0  0  0  0  0  3  0  0  0  0  0  0
  -28.5360  -13.2610   20.5810 C   0  0  0  0  0  2  0  0  0  0  0  0
  -29.7830  -13.6250   19.8990 N   0  0  0  0  0  0  0  0  0  0  0  0
  -31.5240  -14.9560   19.3820 O   0  0  0  0  0  0  0  0  0  0  0  0
  -29.7870  -15.9550   20.4350 N   0  0  0  0  0  0  0  0  0  0  0  0
  -28.8850  -15.7990   20.8610 H   0  0  0  0  0  0  0  0  0  0  0  0
  -25.0600  -13.8780   20.4930 C   0  0  0  0  0  0  0  0  0  0  0  0
  -24.0420  -13.0700   20.9250 C   0  0  0  0  0  0  0  0  0  0  0  0
  -24.5250  -11.7310   20.8060 C   0  0  0  0  0  0  0  0  0  0  0  0
  -26.0960  -13.0290   20.1390 N   0  0  0  0  0  0  0  0  0  0  0  0
  -25.7850  -11.7300   20.3880 N   0  0  0  0  0  0  0  0  0  0  0  0
  -23.8380  -10.4480   21.0150 C   0  0  0  0  0  0  0  0  0  0  0  0
  -24.3270   -9.4900   21.9310 C   0  0  0  0  0  3  0  0  0  0  0  0
  -23.6340   -8.2750   22.1310 C   0  0  0  0  0  3  0  0  0  0  0  0
  -22.4430   -8.0090   21.4170 C   0  0  0  0  0  0  0  0  0  0  0  0
  -21.9740   -8.9580   20.4910 C   0  0  0  0  0  3  0  0  0  0  0  0
  -22.6650  -10.1630   20.2880 C   0  0  0  0  0  3  0  0  0  0  0  0
  -21.7190   -6.8440   21.5270 O   0  0  0  0  0  0  0  0  0  0  0  0
  -21.7030   -6.1150   22.6880 C   0  0  0  0  0  0  0  0  0  0  0  0
  -21.2200   -6.6530   23.9010 C   0  0  0  0  0  3  0  0  0  0  0  0
  -21.1530   -5.8470   25.0540 C   0  0  0  0  0  3  0  0  0  0  0  0
  -21.5600   -4.5000   24.9950 C   0  0  0  0  0  0  0  0  0  0  0  0
  -22.0360   -3.9590   23.7890 C   0  0  0  0  0  3  0  0  0  0  0  0
  -22.1040   -4.7640   22.6380 C   0  0  0  0  0  0  0  0  0  0  0  0
  -22.5420   -4.2320   21.4720 F   0  0  0  0  0  0  0  0  0  0  0  0
  -21.4910   -3.7210   26.1010 F   0  0  0  0  0  0  0  0  0  0  0  0
  -22.6670  -13.5100   21.3290 C   0  0  0  0  0  0  0  0  0  0  0  0
  -22.0240  -12.7700   22.2250 N   0  0  0  0  0  0  0  0  0  0  0  0
  -22.1710  -14.5470   20.8900 O   0  0  0  0  0  0  0  0  0  0  0  0
  -22.4390  -11.9330   22.6050 H   0  0  0  0  0  0  0  0  0  0  0  0
  -21.1010  -13.0440   22.5310 H   0  0  0  0  0  0  0  0  0  0  0  0
  -25.1810  -15.2570   20.3510 N   0  0  0  0  0  0  0  0  0  0  0  0
  -24.4190  -15.8870   20.5730 H   0  0  0  0  0  0  0  0  0  0  0  0
  -26.0030  -15.7410   20.0100 H   0  0  0  0  0  0  0  0  0  0  0  0
  -31.4700  -17.0770   22.5490 C   0  0  0  0  0  1  0  0  0  0  0  0
  -31.3810  -17.8430   21.2120 C   0  0  0  0  0  3  0  0  0  0  0  0
  -32.9040  -18.9290   19.4240 C   0  0  0  0  0  1  0  0  0  0  0  0
  -32.7490  -17.8310   20.4880 C   0  0  0  0  0  2  0  0  0  0  0  0
  1  3  2  0
  2  5  1  0
  2  1  1  0
  4  2  1  0
  6  7  1  0
  6  5  2  0
  8  9  1  0
  8  7  1  0
 10 21  2  0
 11  9  1  0
 11 16  1  0
 12 20  1  0
 12 22  1  0
 13 19  1  0
 13 15  1  0
 14 20  1  0
 15 14  1  0
 16 15  2  0
 17 18  1  0
 17 11  2  0
 18 13  2  0
 19 12  1  0
 20 10  1  0
 22 24  2  0
 23 22  1  0
 25 23  1  0
 26 35  2  0
 26 31  1  0
 27 23  1  0
 27 31  1  0
 28 27  1  0
 29 30  1  0
 29 28  1  0
 30 26  1  0
 31 32  2  0
 32 33  1  0
 34 33  2  0
 35 34  1  0
 36 10  1  0
 36 37  1  0
 36 46  1  0
 37 40  1  0
 38 42  1  0
 38 37  1  0
 39 38  2  0
 42 41  1  0
 44 45  1  0
 44 42  1  0
 44 43  1  0
 46 49  1  1
 46 47  1  0
 48 46  1  0
 50  1  1  0
 50 59  1  0
 50 90  1  0
 51 59  1  0
 52 57  1  0
 53 54  1  0
 53 52  1  0
 55 54  1  0
 55 64  1  0
 55 56  1  0
 57 51  1  0
 57 56  1  0
 58 51  2  0
 59 60  1  0
 61 62  2  0
 62 81  1  0
 63 62  1  0
 63 66  1  0
 64 65  1  0
 64 61  1  0
 65 63  2  0
 66 67  1  0
 67 68  2  0
 69 72  1  0
 69 68  1  0
 70 69  2  0
 71 70  1  0
 71 66  2  0
 72 73  1  0
 73 74  1  0
 74 75  2  0
 76 75  1  0
 76 80  1  0
 77 76  2  0
 78 73  2  0
 78 77  1  0
 79 78  1  0
 81 82  1  0
 82 85  1  0
 82 84  1  0
 83 81  2  0
 86 61  1  0
 86 87  1  0
 88 86  1  0
 90 89  1  0
 91 92  1  0
 92 90  1  0
M  ISO  4   8 101   9 101  51 100  59 100
M  END
>  <TORSDO>  (46) 
F 23

>  <SCORE>  (46) 
-11.980

>  <name>  (46) 
45

>  <ligand_id>  (46) 
45

>  <original_smiles>  (46) 
[H]c1c([H])c([H])c2c(c1[H])C([H])([H])C([H])([H])C([H])([H])C2([H])N([H])C(=O)C1([H])N(C(=O)C([H])(N([H])C(=O)C([H])(N([H])C([H])([H])[H])C([H])([H])[H])C(C([H])([H])[H])(C([H])([H])[H])C([H])([H])[H])C([H])([H])c2c([H])c(OC([H])([H])C([H])([H])C([H])([H])C([H])([H])N([H])C(=O)C([H])(N([H])C(=O)N3C([H])([H])C([H])([H])C([H])([H])C([H])(n4nc(-c5c([H])c([H])c(Oc6c([H])c([H])c(F)c([H])c6F)c([H])c5[H])c(C(=O)N([H])[H])c4N([H])[H])C3([H])[H])C([H])(C([H])([H])[H])C([H])([H])C([H])([H])[H])c([H])c([H])c2C1([H])[H]

>  <smiles>  (46) 
[H]c1c([H])c([H])c2c(c1[H])C([H])([H])C([H])([H])C([H])([H])C2([H])N([H])C(=O)C1([H])N(C(=O)C([H])(N([H])C(=O)C([H])(N([H])C([H])([H])[H])C([H])([H])[H])C(C([H])([H])[H])(C([H])([H])[H])C([H])([H])[H])C([H])([H])c2c([H])c(OC([H])([H])C([H])([H])C([H])([H])C([H])([H])N([H])C(=O)C([H])(N([H])C(=O)N3C([H])([H])C([H])([H])C([H])([H])C([H])(n4nc(-c5c([H])c([H])c(Oc6c([H])c([H])c(F)c([H])c6F)c([H])c5[H])c(C(=O)N([H])[H])c4N([H])[H])C3([H])[H])C([H])(C([H])([H])[H])C([H])([H])C([H])([H])[H])c([H])c([H])c2C1([H])[H]

$$$$
46:0:0
     RDKit          3D

 90 98  0  0  1  0  0  0  0  0999 V2000
  -30.4100  -21.0800   19.7320 C   0  0  0  0  0  3  0  0  0  0  0  0
  -28.2870  -20.4550   20.3390 C   0  0  0  0  0  3  0  0  0  0  0  0
  -29.6170  -19.9220   20.1360 C   0  0  0  0  0  0  0  0  0  0  0  0
  -29.9890  -22.4920   19.5340 C   0  0  0  0  0  0  0  0  0  0  0  0
  -27.8380  -21.8620   20.1420 C   0  0  0  0  0  0  0  0  0  0  0  0
  -28.6510  -23.0230   19.7290 C   0  0  0  0  0  0  0  0  0  0  0  0
  -31.0430  -23.4670   19.0460 C   0  0  0  0  0  1  0  0  0  0  0  0
  -26.0790  -23.0360   21.5520 C   0  0  0  0  0  1  0  0  0  0  0  0
  -26.3500  -22.0840   20.3790 C   0  0  0  0  0  2  0  0  0  0  0  0
  -30.3120  -18.3460   20.3690 C   0  0  0  0  0  2  0  0  0  0  0  0
  -30.5730  -15.5020   20.5240 C   0  0  0  0  0  0  0  0  0  0  0  0
  -30.5550  -13.0410   19.7500 C   0  0  0  0  0  2  0  0  0  0  0  0
  -29.7120  -12.8120   18.4720 C   0  0  0  0  0  2  0  0  0  0  0  0
  -28.2360  -12.5770   18.8330 C   0  0  0  0  0  2  0  0  0  0  0  0
  -27.7260  -13.5870   19.8920 C   0  0  0  0  0  3  0  0  0  0  0  0
  -28.7050  -13.7670   21.0720 C   0  0  0  0  0  2  0  0  0  0  0  0
  -29.9820  -14.2150   20.4970 N   0  0  0  0  0  0  0  0  0  0  0  0
  -31.8010  -15.4850   20.3670 O   0  0  0  0  0  0  0  0  0  0  0  0
  -29.8430  -16.7790   20.5230 N   0  0  0  0  0  0  0  0  0  0  0  0
  -28.8450  -16.6640   20.6110 H   0  0  0  0  0  0  0  0  0  0  0  0
  -25.3330  -14.1870   20.5400 C   0  0  0  0  0  0  0  0  0  0  0  0
  -24.2390  -13.4270   20.8430 C   0  0  0  0  0  0  0  0  0  0  0  0
  -24.6790  -12.0670   20.8100 C   0  0  0  0  0  0  0  0  0  0  0  0
  -26.3680  -13.2930   20.3310 N   0  0  0  0  0  0  0  0  0  0  0  0
  -25.9820  -12.0110   20.5630 N   0  0  0  0  0  0  0  0  0  0  0  0
  -23.9160  -10.8180   20.9410 C   0  0  0  0  0  0  0  0  0  0  0  0
  -24.2980   -9.8100   21.8520 C   0  0  0  0  0  3  0  0  0  0  0  0
  -23.5360   -8.6280   21.9740 C   0  0  0  0  0  3  0  0  0  0  0  0
  -22.3760   -8.4460   21.1830 C   0  0  0  0  0  0  0  0  0  0  0  0
  -22.0140   -9.4430   20.2610 C   0  0  0  0  0  3  0  0  0  0  0  0
  -22.7770  -10.6150   20.1360 C   0  0  0  0  0  3  0  0  0  0  0  0
  -21.5900   -7.3200   21.2160 O   0  0  0  0  0  0  0  0  0  0  0  0
  -21.5280   -6.5170   22.3260 C   0  0  0  0  0  0  0  0  0  0  0  0
  -21.1300   -7.0160   23.5860 C   0  0  0  0  0  3  0  0  0  0  0  0
  -21.0130   -6.1410   24.6840 C   0  0  0  0  0  3  0  0  0  0  0  0
  -21.2840   -4.7690   24.5250 C   0  0  0  0  0  0  0  0  0  0  0  0
  -21.6750   -4.2700   23.2700 C   0  0  0  0  0  3  0  0  0  0  0  0
  -21.7940   -5.1410   22.1730 C   0  0  0  0  0  0  0  0  0  0  0  0
  -22.1500   -4.6510   20.9620 F   0  0  0  0  0  0  0  0  0  0  0  0
  -21.1650   -3.9270   25.5780 F   0  0  0  0  0  0  0  0  0  0  0  0
  -22.8390  -13.9290   21.0490 C   0  0  0  0  0  0  0  0  0  0  0  0
  -22.0550  -13.2390   21.8700 N   0  0  0  0  0  0  0  0  0  0  0  0
  -22.4510  -14.9700   20.5200 O   0  0  0  0  0  0  0  0  0  0  0  0
  -22.3830  -12.3970   22.3200 H   0  0  0  0  0  0  0  0  0  0  0  0
  -21.1130  -13.5570   22.0500 H   0  0  0  0  0  0  0  0  0  0  0  0
  -25.5300  -15.5570   20.3930 N   0  0  0  0  0  0  0  0  0  0  0  0
  -24.7670  -16.2200   20.4730 H   0  0  0  0  0  0  0  0  0  0  0  0
  -26.3910  -15.9820   20.0770 H   0  0  0  0  0  0  0  0  0  0  0  0
  -28.0000  -24.5790   19.2810 C   0  0  0  0  0  2  0  0  0  0  0  0
  -28.3330  -26.1480   19.5300 O   0  0  0  0  0  0  0  0  0  0  0  0
  -24.5550  -31.6910   22.9330 C   0  0  0  0  0  0  0  0  0  0  0  0
  -27.2840  -27.1980   19.5430 C   0  0  0  0  0  0  0  0  0  0  0  0
  -23.3930  -30.3430   21.2320 C   0  0  0  0  0  3  0  0  0  0  0  0
  -24.8870  -28.9280   19.6730 C   0  0  0  0  0  0  0  0  0  0  0  0
  -25.9390  -30.7110   21.0430 C   0  0  0  0  0  2  0  0  0  0  0  0
  -26.0670  -29.3580   20.2940 C   0  0  0  0  0  0  0  0  0  0  0  0
  -27.2600  -28.5140   20.2100 C   0  0  0  0  0  3  0  0  0  0  0  0
  -26.0670  -26.9200   18.8770 C   0  0  0  0  0  3  0  0  0  0  0  0
  -24.9100  -27.7300   18.9450 C   0  0  0  0  0  3  0  0  0  0  0  0
  -23.6220  -29.7690   19.8080 C   0  0  0  0  0  2  0  0  0  0  0  0
  -24.6500  -30.9380   21.7910 N   0  0  0  0  0  0  0  0  0  0  0  0
  -23.4660  -31.8860   23.4960 O   0  0  0  0  0  0  0  0  0  0  0  0
  -22.7800  -29.2470   22.1420 C   0  0  0  0  0  0  0  0  0  0  0  0
  -21.4540  -29.0350   22.0520 N   0  0  0  0  0  0  0  0  0  0  0  0
  -23.5020  -28.5910   22.8980 O   0  0  0  0  0  0  0  0  0  0  0  0
  -20.9230  -29.6180   21.4210 H   0  0  0  0  0  0  0  0  0  0  0  0
  -18.1370  -27.6810   22.6210 C   0  0  0  0  0  0  0  0  0  0  0  0
  -20.6980  -28.0100   22.7800 C   0  0  0  0  0  3  0  0  0  0  0  0
  -20.8120  -26.6350   22.0830 C   0  0  0  0  0  2  0  0  0  0  0  0
  -19.6690  -26.3590   21.1010 C   0  0  0  0  0  2  0  0  0  0  0  0
  -18.3190  -26.4010   21.8220 C   0  0  0  0  0  2  0  0  0  0  0  0
  -19.2530  -28.4440   23.0570 C   0  0  0  0  0  0  0  0  0  0  0  0
  -19.0250  -29.6410   23.7710 C   0  0  0  0  0  3  0  0  0  0  0  0
  -17.7160  -30.0770   24.0490 C   0  0  0  0  0  3  0  0  0  0  0  0
  -16.6160  -29.3110   23.6240 C   0  0  0  0  0  3  0  0  0  0  0  0
  -16.8270  -28.1140   22.9170 C   0  0  0  0  0  3  0  0  0  0  0  0
  -25.8070  -32.3580   23.5770 C   0  0  0  0  0  3  0  0  0  0  0  0
  -26.3920  -31.5310   24.7900 C   0  0  1  0  0  0  0  0  0  0  0  0
  -25.3390  -31.1700   25.8630 C   0  0  0  0  0  1  0  0  0  0  0  0
  -27.0340  -30.2120   24.3030 C   0  0  0  0  0  1  0  0  0  0  0  0
  -27.5180  -32.3390   25.4770 C   0  0  0  0  0  1  0  0  0  0  0  0
  -25.4220  -33.7080   24.0220 N   0  0  0  0  0  0  0  0  0  0  0  0
  -25.6640  -34.8370   23.3430 C   0  0  0  0  0  0  0  0  0  0  0  0
  -26.3010  -34.8550   22.2860 O   0  0  0  0  0  0  0  0  0  0  0  0
  -24.8480  -33.7620   24.8510 H   0  0  0  0  0  0  0  0  0  0  0  0
  -23.8140  -36.5400   23.2140 C   0  0  0  0  0  1  0  0  0  0  0  0
  -25.1190  -36.1560   23.9280 C   0  0  0  0  0  3  0  0  0  0  0  0
  -27.2360  -37.1200   24.7200 C   0  0  0  0  0  1  0  0  0  0  0  0
  -26.0780  -37.2800   23.8440 N   0  0  0  0  0  0  0  0  0  0  0  0
  -25.6240  -38.1590   24.0760 H   0  0  0  0  0  0  0  0  0  0  0  0
  1  3  1  0
  3  2  2  0
  3 10  1  0
  4  6  1  0
  4  1  2  0
  5  2  1  0
  5  9  1  0
  6  5  2  0
  7  4  1  0
  9  8  1  0
 10 19  1  0
 12 17  1  0
 13 14  1  0
 13 12  1  0
 15 14  1  0
 15 24  1  0
 15 16  1  0
 17 11  1  0
 17 16  1  0
 18 11  2  0
 19 11  1  0
 19 20  1  0
 21 22  2  0
 22 41  1  0
 23 22  1  0
 23 26  1  0
 24 21  1  0
 24 25  1  0
 25 23  2  0
 26 27  1  0
 27 28  2  0
 29 32  1  0
 29 28  1  0
 30 29  2  0
 31 30  1  0
 31 26  2  0
 32 33  1  0
 33 34  1  0
 34 35  2  0
 36 35  1  0
 36 40  1  0
 37 36  2  0
 38 33  2  0
 38 37  1  0
 39 38  1  0
 41 42  1  0
 42 45  1  0
 42 44  1  0
 43 41  2  0
 46 47  1  0
 46 21  1  0
 48 46  1  0
 49 50  1  0
 49  6  1  0
 50 52  1  0
 51 62  2  0
 52 57  1  0
 53 61  1  0
 53 63  1  0
 54 60  1  0
 54 56  1  0
 55 61  1  0
 56 55  1  0
 57 56  2  0
 58 59  1  0
 58 52  2  0
 59 54  2  0
 60 53  1  0
 61 51  1  0
 63 65  2  0
 64 63  1  0
 66 64  1  0
 67 76  2  0
 67 72  1  0
 68 64  1  0
 68 72  1  0
 69 68  1  0
 70 71  1  0
 70 69  1  0
 71 67  1  0
 72 73  2  0
 73 74  1  0
 75 74  2  0
 76 75  1  0
 77 51  1  0
 77 82  1  0
 77 78  1  0
 78 81  1  1
 78 79  1  0
 80 78  1  0
 82 85  1  0
 83 87  1  0
 83 82  1  0
 84 83  2  0
 87 86  1  0
 89 87  1  0
 89 90  1  0
 89 88  1  0
M  ISO  4  11 100  19 100  49 101  50 101
M  END
>  <TORSDO>  (47) 
F 19

>  <SCORE>  (47) 
-13.769

>  <name>  (47) 
46

>  <ligand_id>  (47) 
46

>  <original_smiles>  (47) 
[H]c1c([H])c([H])c2c(c1[H])C([H])([H])C([H])([H])C([H])([H])C2([H])N([H])C(=O)C1([H])N(C(=O)C([H])(N([H])C(=O)C([H])(N([H])C([H])([H])[H])C([H])([H])[H])C(C([H])([H])[H])(C([H])([H])[H])C([H])([H])[H])C([H])([H])c2c([H])c(OC([H])([H])c3c(C([H])([H])[H])c([H])c(C([H])([H])N([H])C(=O)N4C([H])([H])C([H])([H])C([H])([H])C([H])(n5nc(-c6c([H])c([H])c(Oc7c([H])c([H])c(F)c([H])c7F)c([H])c6[H])c(C(=O)N([H])[H])c5N([H])[H])C4([H])[H])c([H])c3C([H])([H])C([H])([H])[H])c([H])c([H])c2C1([H])[H]

>  <smiles>  (47) 
[H]c1c([H])c([H])c2c(c1[H])C([H])([H])C([H])([H])C([H])([H])C2([H])N([H])C(=O)C1([H])N(C(=O)C([H])(N([H])C(=O)C([H])(N([H])C([H])([H])[H])C([H])([H])[H])C(C([H])([H])[H])(C([H])([H])[H])C([H])([H])[H])C([H])([H])c2c([H])c(OC([H])([H])c3c(C([H])([H])[H])c([H])c(C([H])([H])N([H])C(=O)N4C([H])([H])C([H])([H])C([H])([H])C([H])(n5nc(-c6c([H])c([H])c(Oc7c([H])c([H])c(F)c([H])c7F)c([H])c6[H])c(C(=O)N([H])[H])c5N([H])[H])C4([H])[H])c([H])c3C([H])([H])C([H])([H])[H])c([H])c([H])c2C1([H])[H]

$$$$
47:0:0
     RDKit          3D

 91100  0  0  1  0  0  0  0  0999 V2000
  -28.8820  -21.1900   20.5710 C   0  0  0  0  0  0  0  0  0  0  0  0
  -28.9940  -22.4630   20.0400 N   0  0  0  0  0  0  0  0  0  0  0  0
  -28.2500  -21.0230   21.6150 O   0  0  0  0  0  0  0  0  0  0  0  0
  -29.5060  -22.5190   19.1690 H   0  0  0  0  0  0  0  0  0  0  0  0
  -30.6680  -14.8160   19.9940 C   0  0  0  0  0  0  0  0  0  0  0  0
  -30.3900  -12.5700   18.9310 C   0  0  0  0  0  2  0  0  0  0  0  0
  -29.3740  -12.6760   17.7730 C   0  0  0  0  0  2  0  0  0  0  0  0
  -27.9370  -12.4940   18.2960 C   0  0  0  0  0  2  0  0  0  0  0  0
  -27.6470  -13.3520   19.5550 C   0  0  0  0  0  3  0  0  0  0  0  0
  -28.7740  -13.2390   20.6050 C   0  0  0  0  0  2  0  0  0  0  0  0
  -30.0290  -13.5980   19.9350 N   0  0  0  0  0  0  0  0  0  0  0  0
  -31.8050  -14.9320   19.5230 O   0  0  0  0  0  0  0  0  0  0  0  0
  -31.1030  -19.9600   20.1460 C   0  0  0  0  0  2  0  0  0  0  0  0
  -31.4530  -18.8830   21.2000 C   0  0  0  0  0  2  0  0  0  0  0  0
  -30.2850  -16.5830   21.6910 C   0  0  0  0  0  2  0  0  0  0  0  0
  -29.5900  -17.1230   19.5270 C   0  0  0  0  0  2  0  0  0  0  0  0
  -29.5800  -19.9120   19.8920 C   0  0  0  0  0  3  0  0  0  0  0  0
  -30.1580  -18.1340   21.5720 C   0  0  0  0  0  3  0  0  0  0  0  0
  -29.2430  -18.4150   20.3990 C   0  0  0  0  0  3  0  0  0  0  0  0
  -29.9560  -15.9440   20.4020 N   0  0  0  0  0  0  0  0  0  0  0  0
  -25.3150  -13.9280   20.4500 C   0  0  0  0  0  0  0  0  0  0  0  0
  -24.2700  -13.1470   20.8630 C   0  0  0  0  0  0  0  0  0  0  0  0
  -24.7270  -11.7950   20.7670 C   0  0  0  0  0  0  0  0  0  0  0  0
  -26.3370  -13.0530   20.1250 N   0  0  0  0  0  0  0  0  0  0  0  0
  -25.9950  -11.7630   20.3760 N   0  0  0  0  0  0  0  0  0  0  0  0
  -24.0090  -10.5300   20.9680 C   0  0  0  0  0  0  0  0  0  0  0  0
  -24.4690   -9.5560   21.8820 C   0  0  0  0  0  3  0  0  0  0  0  0
  -23.7490   -8.3580   22.0720 C   0  0  0  0  0  3  0  0  0  0  0  0
  -22.5550   -8.1240   21.3500 C   0  0  0  0  0  0  0  0  0  0  0  0
  -22.1150   -9.0860   20.4240 C   0  0  0  0  0  3  0  0  0  0  0  0
  -22.8350  -10.2760   20.2320 C   0  0  0  0  0  3  0  0  0  0  0  0
  -21.8050   -6.9780   21.4500 O   0  0  0  0  0  0  0  0  0  0  0  0
  -21.7520   -6.2510   22.6120 C   0  0  0  0  0  0  0  0  0  0  0  0
  -21.2980   -6.8160   23.8250 C   0  0  0  0  0  3  0  0  0  0  0  0
  -21.1940   -6.0150   24.9800 C   0  0  0  0  0  3  0  0  0  0  0  0
  -21.5340   -4.6500   24.9230 C   0  0  0  0  0  0  0  0  0  0  0  0
  -21.9800   -4.0850   23.7160 C   0  0  0  0  0  3  0  0  0  0  0  0
  -22.0850   -4.8830   22.5630 C   0  0  0  0  0  0  0  0  0  0  0  0
  -22.4960   -4.3270   21.3970 F   0  0  0  0  0  0  0  0  0  0  0  0
  -21.4270   -3.8790   26.0300 F   0  0  0  0  0  0  0  0  0  0  0  0
  -22.8960  -13.6190   21.2340 C   0  0  0  0  0  0  0  0  0  0  0  0
  -22.2210  -12.9020   22.1260 N   0  0  0  0  0  0  0  0  0  0  0  0
  -22.4290  -14.6600   20.7710 O   0  0  0  0  0  0  0  0  0  0  0  0
  -22.6110  -12.0620   22.5270 H   0  0  0  0  0  0  0  0  0  0  0  0
  -21.3010  -13.2030   22.4160 H   0  0  0  0  0  0  0  0  0  0  0  0
  -25.4740  -15.3030   20.2990 N   0  0  0  0  0  0  0  0  0  0  0  0
  -24.7280  -15.9630   20.4890 H   0  0  0  0  0  0  0  0  0  0  0  0
  -26.3180  -15.7490   19.9640 H   0  0  0  0  0  0  0  0  0  0  0  0
  -28.5970  -23.8080   20.6570 C   0  0  0  0  0  3  0  0  0  0  0  0
  -28.4840  -25.1140   19.7130 C   0  0  0  0  0  3  0  0  0  0  0  0
  -28.3980  -26.5090   20.2660 O   0  0  0  0  0  0  0  0  0  0  0  0
  -24.6300  -31.9240   23.2410 C   0  0  0  0  0  0  0  0  0  0  0  0
  -27.2610  -27.3440   20.1870 C   0  0  0  0  0  0  0  0  0  0  0  0
  -23.4360  -30.5190   21.6000 C   0  0  0  0  0  3  0  0  0  0  0  0
  -24.8940  -28.9790   20.1690 C   0  0  0  0  0  0  0  0  0  0  0  0
  -25.9780  -30.8420   21.4220 C   0  0  0  0  0  2  0  0  0  0  0  0
  -26.0610  -29.4630   20.7700 C   0  0  0  0  0  0  0  0  0  0  0  0
  -27.2420  -28.6560   20.7690 C   0  0  0  0  0  3  0  0  0  0  0  0
  -26.0620  -26.9200   19.5680 C   0  0  0  0  0  3  0  0  0  0  0  0
  -24.9000  -27.7160   19.5580 C   0  0  0  0  0  3  0  0  0  0  0  0
  -23.6540  -29.8500   20.2180 C   0  0  0  0  0  2  0  0  0  0  0  0
  -24.7000  -31.1130   22.1430 N   0  0  0  0  0  0  0  0  0  0  0  0
  -23.5430  -32.1940   23.7760 O   0  0  0  0  0  0  0  0  0  0  0  0
  -22.7800  -29.4970   22.5600 C   0  0  0  0  0  0  0  0  0  0  0  0
  -21.4580  -29.3010   22.4250 N   0  0  0  0  0  0  0  0  0  0  0  0
  -23.4610  -28.8830   23.3840 O   0  0  0  0  0  0  0  0  0  0  0  0
  -20.9650  -29.8470   21.7330 H   0  0  0  0  0  0  0  0  0  0  0  0
  -18.0950  -28.0530   22.9010 C   0  0  0  0  0  0  0  0  0  0  0  0
  -20.6460  -28.3560   23.1960 C   0  0  0  0  0  3  0  0  0  0  0  0
  -20.7770  -26.9210   22.6330 C   0  0  0  0  0  2  0  0  0  0  0  0
  -19.6910  -26.5730   21.6110 C   0  0  0  0  0  2  0  0  0  0  0  0
  -18.3010  -26.7010   22.2380 C   0  0  0  0  0  2  0  0  0  0  0  0
  -19.1960  -28.8360   23.3370 C   0  0  0  0  0  0  0  0  0  0  0  0
  -18.9500  -30.0990   23.9150 C   0  0  0  0  0  3  0  0  0  0  0  0
  -17.6350  -30.5800   24.0640 C   0  0  0  0  0  3  0  0  0  0  0  0
  -16.5480  -29.7940   23.6450 C   0  0  0  0  0  3  0  0  0  0  0  0
  -16.7790  -28.5320   23.0680 C   0  0  0  0  0  3  0  0  0  0  0  0
  -25.9060  -32.5670   23.8630 C   0  0  0  0  0  3  0  0  0  0  0  0
  -25.5880  -33.9660   24.1840 N   0  0  0  0  0  0  0  0  0  0  0  0
  -25.9120  -35.0160   23.4180 C   0  0  0  0  0  0  0  0  0  0  0  0
  -26.5790  -34.9090   22.3850 O   0  0  0  0  0  0  0  0  0  0  0  0
  -24.9950  -34.1230   24.9850 H   0  0  0  0  0  0  0  0  0  0  0  0
  -24.1720  -36.7980   23.0570 C   0  0  0  0  0  1  0  0  0  0  0  0
  -25.4180  -36.4060   23.8680 C   0  0  0  0  0  3  0  0  0  0  0  0
  -27.5490  -37.3100   24.6870 C   0  0  0  0  0  1  0  0  0  0  0  0
  -26.4440  -37.4630   23.7430 N   0  0  0  0  0  0  0  0  0  0  0  0
  -26.0340  -38.3830   23.8820 H   0  0  0  0  0  0  0  0  0  0  0  0
  -26.4190  -31.8080   25.1480 C   0  0  1  0  0  0  0  0  0  0  0  0
  -25.3220  -31.5690   26.2110 C   0  0  0  0  0  1  0  0  0  0  0  0
  -27.0130  -30.4320   24.7710 C   0  0  0  0  0  1  0  0  0  0  0  0
  -27.5640  -32.6120   25.8100 C   0  0  0  0  0  1  0  0  0  0  0  0
  1  3  2  0
  2  1  1  0
  2 49  1  0
  4  2  1  0
  5 20  1  0
  6 11  1  0
  7  8  1  0
  7  6  1  0
  9  8  1  0
  9 24  1  0
  9 10  1  0
 11  5  1  0
 11 10  1  0
 12  5  2  0
 13 14  1  0
 16 20  1  0
 17 13  1  0
 17 19  1  0
 17  1  1  0
 18 14  1  0
 18 15  1  0
 19 16  1  0
 19 18  1  0
 20 15  1  0
 21 22  2  0
 22 41  1  0
 23 22  1  0
 23 26  1  0
 24 25  1  0
 24 21  1  0
 25 23  2  0
 26 27  1  0
 27 28  2  0
 29 32  1  0
 29 28  1  0
 30 29  2  0
 31 30  1  0
 31 26  2  0
 32 33  1  0
 33 34  1  0
 34 35  2  0
 36 35  1  0
 36 40  1  0
 37 36  2  0
 38 33  2  0
 38 37  1  0
 39 38  1  0
 41 42  1  0
 42 45  1  0
 42 44  1  0
 43 41  2  0
 46 21  1  0
 46 47  1  0
 48 46  1  0
 50 51  1  0
 50 49  2  0
 52 63  2  0
 53 51  1  0
 53 58  1  0
 54 62  1  0
 54 64  1  0
 55 61  1  0
 55 57  1  0
 56 62  1  0
 57 56  1  0
 58 57  2  0
 59 53  2  0
 60 59  1  0
 60 55  2  0
 61 54  1  0
 62 52  1  0
 64 66  2  0
 65 64  1  0
 67 65  1  0
 68 77  2  0
 68 73  1  0
 69 65  1  0
 69 73  1  0
 70 69  1  0
 71 72  1  0
 71 70  1  0
 72 68  1  0
 73 74  2  0
 74 75  1  0
 76 75  2  0
 77 76  1  0
 78 52  1  0
 78 79  1  0
 78 88  1  0
 79 82  1  0
 80 84  1  0
 80 79  1  0
 81 80  2  0
 84 83  1  0
 86 84  1  0
 86 87  1  0
 86 85  1  0
 88 91  1  1
 88 89  1  0
 90 88  1  0
M  ISO  4   5 100  20 100  50 101  51 101
M  END
>  <TORSDO>  (48) 
F 18

>  <SCORE>  (48) 
-14.589

>  <name>  (48) 
47

>  <ligand_id>  (48) 
47

>  <original_smiles>  (48) 
[H]c1c([H])c([H])c2c(c1[H])C([H])([H])C([H])([H])C([H])([H])C2([H])N([H])C(=O)C1([H])N(C(=O)C([H])(N([H])C(=O)C([H])(N([H])C([H])([H])[H])C([H])([H])[H])C(C([H])([H])[H])(C([H])([H])[H])C([H])([H])[H])C([H])([H])c2c([H])c(OC([H])([H])C([H])([H])N([H])C(=O)C3([H])C([H])([H])C([H])([H])C4([H])C([H])([H])N(C(=O)N5C([H])([H])C([H])([H])C([H])([H])C([H])(n6nc(-c7c([H])c([H])c(Oc8c([H])c([H])c(F)c([H])c8F)c([H])c7[H])c(C(=O)N([H])[H])c6N([H])[H])C5([H])[H])C([H])([H])C34[H])c([H])c([H])c2C1([H])[H]

>  <smiles>  (48) 
[H]c1c([H])c([H])c2c(c1[H])C([H])([H])C([H])([H])C([H])([H])C2([H])N([H])C(=O)C1([H])N(C(=O)C([H])(N([H])C(=O)C([H])(N([H])C([H])([H])[H])C([H])([H])[H])C(C([H])([H])[H])(C([H])([H])[H])C([H])([H])[H])C([H])([H])c2c([H])c(OC([H])([H])C([H])([H])N([H])C(=O)C3([H])C([H])([H])C([H])([H])C4([H])C([H])([H])N(C(=O)N5C([H])([H])C([H])([H])C([H])([H])C([H])(n6nc(-c7c([H])c([H])c(Oc8c([H])c([H])c(F)c([H])c8F)c([H])c7[H])c(C(=O)N([H])[H])c6N([H])[H])C5([H])[H])C([H])([H])C34[H])c([H])c([H])c2C1([H])[H]

$$$$
48:0:0
     RDKit          3D

 89 97  0  0  1  0  0  0  0  0999 V2000
  -29.2540  -21.2730   20.6390 C   0  0  0  0  0  0  0  0  0  0  0  0
  -29.1200  -22.4870   19.9940 N   0  0  0  0  0  0  0  0  0  0  0  0
  -29.0360  -21.1900   21.8480 O   0  0  0  0  0  0  0  0  0  0  0  0
  -29.2590  -22.4570   18.9930 H   0  0  0  0  0  0  0  0  0  0  0  0
  -29.7890  -19.9790   19.8800 C   0  0  0  0  0  2  0  0  0  0  0  0
  -29.3190  -18.4790   20.2620 C   0  0  0  0  0  2  0  0  0  0  0  0
  -30.6620  -14.7340   20.0520 C   0  0  0  0  0  0  0  0  0  0  0  0
  -30.3350  -12.5210   18.9390 C   0  0  0  0  0  2  0  0  0  0  0  0
  -29.3320  -12.6530   17.7730 C   0  0  0  0  0  2  0  0  0  0  0  0
  -27.8870  -12.4920   18.2810 C   0  0  0  0  0  2  0  0  0  0  0  0
  -27.5990  -13.3380   19.5500 C   0  0  0  0  0  3  0  0  0  0  0  0
  -28.7150  -13.1840   20.6040 C   0  0  0  0  0  2  0  0  0  0  0  0
  -29.9840  -13.5410   19.9550 N   0  0  0  0  0  0  0  0  0  0  0  0
  -31.7790  -14.8460   19.5370 O   0  0  0  0  0  0  0  0  0  0  0  0
  -31.0210  -17.1520   21.8170 C   0  0  0  0  0  2  0  0  0  0  0  0
  -29.9820  -16.0500   22.0090 C   0  0  0  0  0  2  0  0  0  0  0  0
  -30.4360  -17.3330   20.4230 C   0  0  0  0  0  3  0  0  0  0  0  0
  -30.0080  -15.8590   20.5510 N   0  0  0  0  0  0  0  0  0  0  0  0
  -25.2570  -13.9260   20.4200 C   0  0  0  0  0  0  0  0  0  0  0  0
  -24.2080  -13.1490   20.8320 C   0  0  0  0  0  0  0  0  0  0  0  0
  -24.6610  -11.7970   20.7480 C   0  0  0  0  0  0  0  0  0  0  0  0
  -26.2810  -13.0470   20.1070 N   0  0  0  0  0  0  0  0  0  0  0  0
  -25.9330  -11.7590   20.3660 N   0  0  0  0  0  0  0  0  0  0  0  0
  -23.9400  -10.5330   20.9510 C   0  0  0  0  0  0  0  0  0  0  0  0
  -24.3970   -9.5610   21.8680 C   0  0  0  0  0  3  0  0  0  0  0  0
  -23.6740   -8.3640   22.0610 C   0  0  0  0  0  3  0  0  0  0  0  0
  -22.4800   -8.1300   21.3360 C   0  0  0  0  0  0  0  0  0  0  0  0
  -22.0430   -9.0910   20.4080 C   0  0  0  0  0  3  0  0  0  0  0  0
  -22.7660  -10.2800   20.2130 C   0  0  0  0  0  3  0  0  0  0  0  0
  -21.7260   -6.9850   21.4400 O   0  0  0  0  0  0  0  0  0  0  0  0
  -21.6770   -6.2590   22.6020 C   0  0  0  0  0  0  0  0  0  0  0  0
  -21.2560   -6.8330   23.8220 C   0  0  0  0  0  3  0  0  0  0  0  0
  -21.1520   -6.0330   24.9770 C   0  0  0  0  0  3  0  0  0  0  0  0
  -21.4600   -4.6600   24.9140 C   0  0  0  0  0  0  0  0  0  0  0  0
  -21.8730   -4.0860   23.6990 C   0  0  0  0  0  3  0  0  0  0  0  0
  -21.9790   -4.8840   22.5460 C   0  0  0  0  0  0  0  0  0  0  0  0
  -22.3570   -4.3210   21.3740 F   0  0  0  0  0  0  0  0  0  0  0  0
  -21.3530   -3.8890   26.0220 F   0  0  0  0  0  0  0  0  0  0  0  0
  -22.8290  -13.6260   21.1880 C   0  0  0  0  0  0  0  0  0  0  0  0
  -22.1470  -12.9180   22.0810 N   0  0  0  0  0  0  0  0  0  0  0  0
  -22.3690  -14.6620   20.7110 O   0  0  0  0  0  0  0  0  0  0  0  0
  -22.5330  -12.0800   22.4910 H   0  0  0  0  0  0  0  0  0  0  0  0
  -21.2240  -13.2190   22.3610 H   0  0  0  0  0  0  0  0  0  0  0  0
  -25.4200  -15.3000   20.2640 N   0  0  0  0  0  0  0  0  0  0  0  0
  -24.6730  -15.9600   20.4450 H   0  0  0  0  0  0  0  0  0  0  0  0
  -26.2690  -15.7400   19.9300 H   0  0  0  0  0  0  0  0  0  0  0  0
  -29.0780  -23.8950   20.5800 C   0  0  0  0  0  3  0  0  0  0  0  0
  -28.0850  -24.9920   19.9580 C   0  0  0  0  0  3  0  0  0  0  0  0
  -28.2580  -26.4450   20.2800 O   0  0  0  0  0  0  0  0  0  0  0  0
  -24.5670  -31.9210   23.2530 C   0  0  0  0  0  0  0  0  0  0  0  0
  -27.1530  -27.3220   20.2030 C   0  0  0  0  0  0  0  0  0  0  0  0
  -23.3560  -30.5210   21.6220 C   0  0  0  0  0  3  0  0  0  0  0  0
  -24.7970  -28.9640   20.1920 C   0  0  0  0  0  0  0  0  0  0  0  0
  -25.8990  -30.8220   21.4380 C   0  0  0  0  0  2  0  0  0  0  0  0
  -25.9700  -29.4410   20.7900 C   0  0  0  0  0  0  0  0  0  0  0  0
  -27.1490  -28.6310   20.7890 C   0  0  0  0  0  3  0  0  0  0  0  0
  -25.9580  -26.9150   19.5640 C   0  0  0  0  0  3  0  0  0  0  0  0
  -24.7960  -27.7080   19.5690 C   0  0  0  0  0  3  0  0  0  0  0  0
  -23.5640  -29.8450   20.2430 C   0  0  0  0  0  2  0  0  0  0  0  0
  -24.6260  -31.1080   22.1600 N   0  0  0  0  0  0  0  0  0  0  0  0
  -23.4850  -32.2050   23.7900 O   0  0  0  0  0  0  0  0  0  0  0  0
  -22.6920  -29.5090   22.5870 C   0  0  0  0  0  0  0  0  0  0  0  0
  -21.3660  -29.3300   22.4620 N   0  0  0  0  0  0  0  0  0  0  0  0
  -23.3700  -28.8860   23.4090 O   0  0  0  0  0  0  0  0  0  0  0  0
  -20.8780  -29.8830   21.7710 H   0  0  0  0  0  0  0  0  0  0  0  0
  -17.9880  -28.1380   22.9630 C   0  0  0  0  0  0  0  0  0  0  0  0
  -20.5460  -28.4000   23.2390 C   0  0  0  0  0  3  0  0  0  0  0  0
  -20.6510  -26.9640   22.6730 C   0  0  0  0  0  2  0  0  0  0  0  0
  -19.5500  -26.6340   21.6600 C   0  0  0  0  0  2  0  0  0  0  0  0
  -18.1670  -26.7840   22.2990 C   0  0  0  0  0  2  0  0  0  0  0  0
  -19.1050  -28.9030   23.3910 C   0  0  0  0  0  0  0  0  0  0  0  0
  -18.8840  -30.1710   23.9710 C   0  0  0  0  0  3  0  0  0  0  0  0
  -17.5780  -30.6710   24.1320 C   0  0  0  0  0  3  0  0  0  0  0  0
  -16.4750  -29.9020   23.7230 C   0  0  0  0  0  3  0  0  0  0  0  0
  -16.6810  -28.6380   23.1420 C   0  0  0  0  0  3  0  0  0  0  0  0
  -25.8520  -32.5530   23.8690 C   0  0  0  0  0  3  0  0  0  0  0  0
  -26.3730  -31.7810   25.1430 C   0  0  1  0  0  0  0  0  0  0  0  0
  -25.2860  -31.5450   26.2170 C   0  0  0  0  0  1  0  0  0  0  0  0
  -26.9540  -30.4030   24.7520 C   0  0  0  0  0  1  0  0  0  0  0  0
  -27.5260  -32.5760   25.8010 C   0  0  0  0  0  1  0  0  0  0  0  0
  -25.5430  -33.9500   24.2030 N   0  0  0  0  0  0  0  0  0  0  0  0
  -25.8720  -35.0050   23.4460 C   0  0  0  0  0  0  0  0  0  0  0  0
  -26.5350  -34.9040   22.4100 O   0  0  0  0  0  0  0  0  0  0  0  0
  -24.9480  -34.1020   25.0040 H   0  0  0  0  0  0  0  0  0  0  0  0
  -24.1360  -36.7980   23.1180 C   0  0  0  0  0  1  0  0  0  0  0  0
  -25.3890  -36.3930   23.9120 C   0  0  0  0  0  3  0  0  0  0  0  0
  -27.5340  -37.2790   24.7160 C   0  0  0  0  0  1  0  0  0  0  0  0
  -26.4190  -37.4480   23.7870 N   0  0  0  0  0  0  0  0  0  0  0  0
  -26.0130  -38.3670   23.9420 H   0  0  0  0  0  0  0  0  0  0  0  0
  1  3  2  0
  2 47  1  0
  2  1  1  0
  4  2  1  0
  5  6  1  0
  5  1  1  0
  7 18  1  0
  8 13  1  0
  9 10  1  0
  9  8  1  0
 11 10  1  0
 11 22  1  0
 11 12  1  0
 13  7  1  0
 13 12  1  0
 14  7  2  0
 15 16  1  0
 17  6  1  0
 17 18  1  0
 17 15  1  0
 18 16  1  0
 19 20  2  0
 20 39  1  0
 21 20  1  0
 21 24  1  0
 22 23  1  0
 22 19  1  0
 23 21  2  0
 24 25  1  0
 25 26  2  0
 27 30  1  0
 27 26  1  0
 28 27  2  0
 29 28  1  0
 29 24  2  0
 30 31  1  0
 31 32  1  0
 32 33  2  0
 34 33  1  0
 34 38  1  0
 35 34  2  0
 36 31  2  0
 36 35  1  0
 37 36  1  0
 39 40  1  0
 40 43  1  0
 40 42  1  0
 41 39  2  0
 44 19  1  0
 44 45  1  0
 46 44  1  0
 48 49  1  0
 48 47  2  0
 50 61  2  0
 51 49  1  0
 51 56  1  0
 52 60  1  0
 52 62  1  0
 53 59  1  0
 53 55  1  0
 54 60  1  0
 55 54  1  0
 56 55  2  0
 57 58  1  0
 57 51  2  0
 58 53  2  0
 59 52  1  0
 60 50  1  0
 62 64  2  0
 63 62  1  0
 65 63  1  0
 66 75  2  0
 66 71  1  0
 67 63  1  0
 67 71  1  0
 68 67  1  0
 69 70  1  0
 69 68  1  0
 70 66  1  0
 71 72  2  0
 72 73  1  0
 74 73  2  0
 75 74  1  0
 76 50  1  0
 76 81  1  0
 76 77  1  0
 77 80  1  1
 77 78  1  0
 79 77  1  0
 81 84  1  0
 82 86  1  0
 82 81  1  0
 83 82  2  0
 86 85  1  0
 88 86  1  0
 88 89  1  0
 88 87  1  0
M  ISO  4   7 100  18 100  48 101  49 101
M  END
>  <TORSDO>  (49) 
F 20

>  <SCORE>  (49) 
-13.550

>  <name>  (49) 
48

>  <ligand_id>  (49) 
48

>  <original_smiles>  (49) 
[H]c1c([H])c([H])c2c(c1[H])C([H])([H])C([H])([H])C([H])([H])C2([H])N([H])C(=O)C1([H])N(C(=O)C([H])(N([H])C(=O)C([H])(N([H])C([H])([H])[H])C([H])([H])[H])C(C([H])([H])[H])(C([H])([H])[H])C([H])([H])[H])C([H])([H])c2c([H])c(OC([H])([H])C([H])([H])N([H])C(=O)C([H])([H])C([H])([H])C3([H])N(C(=O)N4C([H])([H])C([H])([H])C([H])([H])C([H])(n5nc(-c6c([H])c([H])c(Oc7c([H])c([H])c(F)c([H])c7F)c([H])c6[H])c(C(=O)N([H])[H])c5N([H])[H])C4([H])[H])C([H])([H])C3([H])[H])c([H])c([H])c2C1([H])[H]

>  <smiles>  (49) 
[H]c1c([H])c([H])c2c(c1[H])C([H])([H])C([H])([H])C([H])([H])C2([H])N([H])C(=O)C1([H])N(C(=O)C([H])(N([H])C(=O)C([H])(N([H])C([H])([H])[H])C([H])([H])[H])C(C([H])([H])[H])(C([H])([H])[H])C([H])([H])[H])C([H])([H])c2c([H])c(OC([H])([H])C([H])([H])N([H])C(=O)C([H])([H])C([H])([H])C3([H])N(C(=O)N4C([H])([H])C([H])([H])C([H])([H])C([H])(n5nc(-c6c([H])c([H])c(Oc7c([H])c([H])c(F)c([H])c7F)c([H])c6[H])c(C(=O)N([H])[H])c5N([H])[H])C4([H])[H])C([H])([H])C3([H])[H])c([H])c([H])c2C1([H])[H]

$$$$
49:0:0
     RDKit          3D

 93101  0  0  1  0  0  0  0  0999 V2000
  -30.3140  -23.7850   19.5390 C   0  0  0  0  0  2  0  0  0  0  0  0
  -30.6360  -22.2770   19.3370 C   0  0  0  0  0  2  0  0  0  0  0  0
  -28.7870  -22.3900   20.7700 C   0  0  0  0  0  2  0  0  0  0  0  0
  -29.2120  -23.9250   20.6090 C   0  0  1  0  0  0  0  0  0  0  0  0
  -30.0130  -21.4220   20.4730 C   0  0  2  0  0  0  0  0  0  0  0  0
  -29.8040  -24.4640   21.9300 C   0  0  0  0  0  1  0  0  0  0  0  0
  -30.9420  -21.3970   21.6220 N   0  0  0  0  0  4  0  0  0  0  0  0
  -31.2670  -22.3260   21.8280 H   0  0  0  0  0  0  0  0  0  0  0  0
  -31.7440  -20.8270   21.4230 H   0  0  0  0  0  0  0  0  0  0  0  0
  -30.4910  -21.0310   22.4430 H   0  0  0  0  0  0  0  0  0  0  0  0
  -28.0660  -24.9670   20.1880 C   0  0  0  0  0  2  0  0  0  0  0  0
  -28.3180  -26.4340   20.2150 O   0  0  0  0  0  0  0  0  0  0  0  0
  -24.6230  -31.8600   23.2290 C   0  0  0  0  0  0  0  0  0  0  0  0
  -27.2050  -27.2930   20.1620 C   0  0  0  0  0  0  0  0  0  0  0  0
  -23.4040  -30.4660   21.5980 C   0  0  0  0  0  3  0  0  0  0  0  0
  -24.8420  -28.9150   20.1590 C   0  0  0  0  0  0  0  0  0  0  0  0
  -25.9440  -30.7790   21.3950 C   0  0  0  0  0  2  0  0  0  0  0  0
  -26.0170  -29.4020   20.7470 C   0  0  0  0  0  0  0  0  0  0  0  0
  -27.2020  -28.6040   20.7340 C   0  0  0  0  0  3  0  0  0  0  0  0
  -26.0040  -26.8620   19.5480 C   0  0  0  0  0  3  0  0  0  0  0  0
  -24.8390  -27.6520   19.5500 C   0  0  0  0  0  3  0  0  0  0  0  0
  -23.6070  -29.7910   20.2160 C   0  0  0  0  0  2  0  0  0  0  0  0
  -24.6770  -31.0520   22.1320 N   0  0  0  0  0  0  0  0  0  0  0  0
  -23.5440  -32.1430   23.7700 O   0  0  0  0  0  0  0  0  0  0  0  0
  -22.7470  -29.4500   22.5620 C   0  0  0  0  0  0  0  0  0  0  0  0
  -21.4180  -29.2740   22.4440 N   0  0  0  0  0  0  0  0  0  0  0  0
  -23.4280  -28.8220   23.3760 O   0  0  0  0  0  0  0  0  0  0  0  0
  -20.9240  -29.8340   21.7620 H   0  0  0  0  0  0  0  0  0  0  0  0
  -18.0440  -28.0830   22.9630 C   0  0  0  0  0  0  0  0  0  0  0  0
  -20.6030  -28.3400   23.2210 C   0  0  0  0  0  3  0  0  0  0  0  0
  -20.7000  -26.9060   22.6520 C   0  0  0  0  0  2  0  0  0  0  0  0
  -19.5940  -26.5820   21.6420 C   0  0  0  0  0  2  0  0  0  0  0  0
  -18.2150  -26.7310   22.2900 C   0  0  0  0  0  2  0  0  0  0  0  0
  -19.1650  -28.8450   23.3860 C   0  0  0  0  0  0  0  0  0  0  0  0
  -18.9520  -30.1100   23.9750 C   0  0  0  0  0  3  0  0  0  0  0  0
  -17.6470  -30.6140   24.1440 C   0  0  0  0  0  3  0  0  0  0  0  0
  -16.5410  -29.8500   23.7370 C   0  0  0  0  0  3  0  0  0  0  0  0
  -16.7400  -28.5860   23.1520 C   0  0  0  0  0  3  0  0  0  0  0  0
  -25.9120  -32.4900   23.8400 C   0  0  0  0  0  3  0  0  0  0  0  0
  -25.6020  -33.8860   24.1830 N   0  0  0  0  0  0  0  0  0  0  0  0
  -25.9240  -34.9450   23.4270 C   0  0  0  0  0  0  0  0  0  0  0  0
  -26.5820  -34.8490   22.3870 O   0  0  0  0  0  0  0  0  0  0  0  0
  -25.0110  -34.0340   24.9880 H   0  0  0  0  0  0  0  0  0  0  0  0
  -24.1840  -36.7350   23.1140 C   0  0  0  0  0  1  0  0  0  0  0  0
  -25.4410  -36.3300   23.8990 C   0  0  0  0  0  3  0  0  0  0  0  0
  -27.5910  -37.2170   24.6910 C   0  0  0  0  0  1  0  0  0  0  0  0
  -26.4680  -37.3870   23.7710 N   0  0  0  0  0  0  0  0  0  0  0  0
  -26.0630  -38.3060   23.9290 H   0  0  0  0  0  0  0  0  0  0  0  0
  -26.4400  -31.7110   25.1080 C   0  0  1  0  0  0  0  0  0  0  0  0
  -25.3570  -31.4720   26.1850 C   0  0  0  0  0  1  0  0  0  0  0  0
  -27.0160  -30.3330   24.7060 C   0  0  0  0  0  1  0  0  0  0  0  0
  -27.5960  -32.5030   25.7630 C   0  0  0  0  0  1  0  0  0  0  0  0
  -29.7940  -19.9030   19.9330 C   0  0  0  0  0  2  0  0  0  0  0  0
  -29.7960  -18.5460   20.8060 C   0  0  0  0  0  3  0  0  0  0  0  0
  -30.2230  -17.1990   20.0310 C   0  0  0  0  0  3  0  0  0  0  0  0
  -30.6330  -14.6620   20.3240 C   0  0  0  0  0  0  0  0  0  0  0  0
  -30.3470  -12.4110   19.3060 C   0  0  0  0  0  2  0  0  0  0  0  0
  -29.4120  -12.5360   18.0820 C   0  0  0  0  0  2  0  0  0  0  0  0
  -27.9380  -12.3980   18.5130 C   0  0  0  0  0  2  0  0  0  0  0  0
  -27.5900  -13.2770   19.7470 C   0  0  0  0  0  3  0  0  0  0  0  0
  -28.6530  -13.1540   20.8640 C   0  0  0  0  0  2  0  0  0  0  0  0
  -29.9610  -13.4640   20.2710 N   0  0  0  0  0  0  0  0  0  0  0  0
  -31.7980  -14.7400   19.9280 O   0  0  0  0  0  0  0  0  0  0  0  0
  -29.9180  -15.8140   20.5810 N   0  0  0  0  0  0  0  0  0  0  0  0
  -28.9760  -15.6630   20.9150 H   0  0  0  0  0  0  0  0  0  0  0  0
  -25.2040  -13.8840   20.4770 C   0  0  0  0  0  0  0  0  0  0  0  0
  -24.1370  -13.1160   20.8570 C   0  0  0  0  0  0  0  0  0  0  0  0
  -24.5960  -11.7630   20.8340 C   0  0  0  0  0  0  0  0  0  0  0  0
  -26.2440  -12.9990   20.2420 N   0  0  0  0  0  0  0  0  0  0  0  0
  -25.8840  -11.7200   20.5200 N   0  0  0  0  0  0  0  0  0  0  0  0
  -23.8640  -10.5050   21.0350 C   0  0  0  0  0  0  0  0  0  0  0  0
  -24.3060   -9.5290   21.9560 C   0  0  0  0  0  3  0  0  0  0  0  0
  -23.5710   -8.3390   22.1480 C   0  0  0  0  0  3  0  0  0  0  0  0
  -22.3800   -8.1140   21.4170 C   0  0  0  0  0  0  0  0  0  0  0  0
  -21.9570   -9.0770   20.4830 C   0  0  0  0  0  3  0  0  0  0  0  0
  -22.6930  -10.2580   20.2910 C   0  0  0  0  0  3  0  0  0  0  0  0
  -21.6200   -6.9740   21.5150 O   0  0  0  0  0  0  0  0  0  0  0  0
  -21.6020   -6.2170   22.6600 C   0  0  0  0  0  0  0  0  0  0  0  0
  -21.2370   -6.7630   23.9090 C   0  0  0  0  0  3  0  0  0  0  0  0
  -21.1640   -5.9340   25.0470 C   0  0  0  0  0  3  0  0  0  0  0  0
  -21.4480   -4.5600   24.9360 C   0  0  0  0  0  0  0  0  0  0  0  0
  -21.8070   -4.0130   23.6920 C   0  0  0  0  0  3  0  0  0  0  0  0
  -21.8800   -4.8390   22.5560 C   0  0  0  0  0  0  0  0  0  0  0  0
  -22.2050   -4.3030   21.3540 F   0  0  0  0  0  0  0  0  0  0  0  0
  -21.3720   -3.7610   26.0260 F   0  0  0  0  0  0  0  0  0  0  0  0
  -22.7420  -13.6000   21.1320 C   0  0  0  0  0  0  0  0  0  0  0  0
  -22.0150  -12.9170   22.0080 N   0  0  0  0  0  0  0  0  0  0  0  0
  -22.3040  -14.6220   20.6030 O   0  0  0  0  0  0  0  0  0  0  0  0
  -22.3820  -12.0920   22.4590 H   0  0  0  0  0  0  0  0  0  0  0  0
  -21.0800  -13.2240   22.2350 H   0  0  0  0  0  0  0  0  0  0  0  0
  -25.3710  -15.2540   20.2890 N   0  0  0  0  0  0  0  0  0  0  0  0
  -24.6110  -15.9150   20.4100 H   0  0  0  0  0  0  0  0  0  0  0  0
  -26.2150  -15.6860   19.9370 H   0  0  0  0  0  0  0  0  0  0  0  0
  1  4  1  0
  2  1  1  0
  2  5  1  0
  4  3  1  0
  4  6  1  1
  5 53  1  6
  5  3  1  0
  5  7  1  0
  7  8  1  0
  7 10  1  0
  9  7  1  0
 11 12  1  0
 11  4  1  0
 13 24  2  0
 14 12  1  0
 14 19  1  0
 15 23  1  0
 15 25  1  0
 16 22  1  0
 16 18  1  0
 17 23  1  0
 18 17  1  0
 19 18  2  0
 20 21  1  0
 20 14  2  0
 21 16  2  0
 22 15  1  0
 23 13  1  0
 25 27  2  0
 26 25  1  0
 28 26  1  0
 29 38  2  0
 29 34  1  0
 30 26  1  0
 30 34  1  0
 31 30  1  0
 32 33  1  0
 32 31  1  0
 33 29  1  0
 34 35  2  0
 35 36  1  0
 37 36  2  0
 38 37  1  0
 39 13  1  0
 39 40  1  0
 39 49  1  0
 40 43  1  0
 41 45  1  0
 41 40  1  0
 42 41  2  0
 45 44  1  0
 47 45  1  0
 47 48  1  0
 47 46  1  0
 49 52  1  1
 49 50  1  0
 51 49  1  0
 53 54  1  0
 55 64  1  0
 55 54  2  0
 56 64  1  0
 57 62  1  0
 58 59  1  0
 58 57  1  0
 60 59  1  0
 60 69  1  0
 60 61  1  0
 62 56  1  0
 62 61  1  0
 63 56  2  0
 64 65  1  0
 66 67  2  0
 67 86  1  0
 68 67  1  0
 68 71  1  0
 69 66  1  0
 69 70  1  0
 70 68  2  0
 71 72  1  0
 72 73  2  0
 74 77  1  0
 74 73  1  0
 75 74  2  0
 76 75  1  0
 76 71  2  0
 77 78  1  0
 78 79  1  0
 79 80  2  0
 81 80  1  0
 81 85  1  0
 82 81  2  0
 83 78  2  0
 83 82  1  0
 84 83  1  0
 86 87  1  0
 87 90  1  0
 87 89  1  0
 88 86  2  0
 91 92  1  0
 91 66  1  0
 93 91  1  0
M  ISO  4  11 101  12 101  56 100  64 100
M  END
>  <TORSDO>  (50) 
F 21

>  <SCORE>  (50) 
-13.561

>  <name>  (50) 
49

>  <ligand_id>  (50) 
49

>  <original_smiles>  (50) 
[H]c1c([H])c([H])c2c(c1[H])C([H])([H])C([H])([H])C([H])([H])C2([H])N([H])C(=O)C1([H])N(C(=O)C([H])(N([H])C(=O)C([H])(N([H])C([H])([H])[H])C([H])([H])[H])C(C([H])([H])[H])(C([H])([H])[H])C([H])([H])[H])C([H])([H])c2c([H])c(OC([H])([H])C3(C([H])([H])[H])C([H])([H])C([H])([H])C(C([H])([H])C([H])([H])C([H])([H])N([H])C(=O)N4C([H])([H])C([H])([H])C([H])([H])C([H])(n5nc(-c6c([H])c([H])c(Oc7c([H])c([H])c(F)c([H])c7F)c([H])c6[H])c(C(=O)N([H])[H])c5N([H])[H])C4([H])[H])([N+]([H])([H])[H])C3([H])[H])c([H])c([H])c2C1([H])[H]

>  <smiles>  (50) 
[H]c1c([H])c([H])c2c(c1[H])C([H])([H])C([H])([H])C([H])([H])C2([H])N([H])C(=O)C1([H])N(C(=O)C([H])(N([H])C(=O)C([H])(N([H])C([H])([H])[H])C([H])([H])[H])C(C([H])([H])[H])(C([H])([H])[H])C([H])([H])[H])C([H])([H])c2c([H])c(OC([H])([H])C3(C([H])([H])[H])C([H])([H])C([H])([H])C(C([H])([H])C([H])([H])C([H])([H])N([H])C(=O)N4C([H])([H])C([H])([H])C([H])([H])C([H])(n5nc(-c6c([H])c([H])c(Oc7c([H])c([H])c(F)c([H])c7F)c([H])c6[H])c(C(=O)N([H])[H])c5N([H])[H])C4([H])[H])([N+]([H])([H])[H])C3([H])[H])c([H])c([H])c2C1([H])[H]

$$$$
50:0:0
     RDKit          3D

 90 99  0  0  1  0  0  0  0  0999 V2000
  -30.6770  -21.1370   20.6560 C   0  0  0  0  0  3  0  0  0  0  0  0
  -28.4340  -21.9470   20.2570 C   0  0  0  0  0  3  0  0  0  0  0  0
  -30.1970  -23.5790   20.5530 C   0  0  0  0  0  3  0  0  0  0  0  0
  -29.3320  -20.7770   20.4170 C   0  0  0  0  0  0  0  0  0  0  0  0
  -31.0950  -22.4930   20.7290 C   0  0  0  0  0  0  0  0  0  0  0  0
  -28.8250  -23.3760   20.3090 C   0  0  0  0  0  0  0  0  0  0  0  0
  -32.5500  -22.8020   21.0220 C   0  0  0  0  0  1  0  0  0  0  0  0
  -28.9220  -19.2190   20.4100 C   0  0  0  0  0  0  0  0  0  0  0  0
  -27.7170  -18.9580   20.4520 O   0  0  0  0  0  0  0  0  0  0  0  0
  -29.6060  -17.0640   19.0930 C   0  0  0  0  0  2  0  0  0  0  0  0
  -29.9100  -17.9120   20.3030 C   0  0  0  0  0  3  0  0  0  0  0  0
  -29.5290  -16.2780   20.3840 C   0  0  0  0  0  3  0  0  0  0  0  0
  -30.4250  -14.9220   20.2800 C   0  0  0  0  0  0  0  0  0  0  0  0
  -30.2970  -12.5830   19.3310 C   0  0  0  0  0  2  0  0  0  0  0  0
  -29.3410  -12.5950   18.1130 C   0  0  0  0  0  2  0  0  0  0  0  0
  -27.8820  -12.3870   18.5610 C   0  0  0  0  0  2  0  0  0  0  0  0
  -27.5030  -13.2850   19.7670 C   0  0  0  0  0  3  0  0  0  0  0  0
  -28.5770  -13.2530   20.8730 C   0  0  0  0  0  2  0  0  0  0  0  0
  -29.8520  -13.6520   20.2670 N   0  0  0  0  0  0  0  0  0  0  0  0
  -31.6260  -14.9900   19.9930 O   0  0  0  0  0  0  0  0  0  0  0  0
  -25.1360  -13.8560   20.5600 C   0  0  0  0  0  0  0  0  0  0  0  0
  -24.0780  -13.0770   20.9400 C   0  0  0  0  0  0  0  0  0  0  0  0
  -24.5410  -11.7260   20.8810 C   0  0  0  0  0  0  0  0  0  0  0  0
  -26.1730  -12.9820   20.2860 N   0  0  0  0  0  0  0  0  0  0  0  0
  -25.8260  -11.6940   20.5450 N   0  0  0  0  0  0  0  0  0  0  0  0
  -23.8160  -10.4610   21.0690 C   0  0  0  0  0  0  0  0  0  0  0  0
  -24.2600   -9.4840   21.9860 C   0  0  0  0  0  3  0  0  0  0  0  0
  -23.5370   -8.2850   22.1630 C   0  0  0  0  0  3  0  0  0  0  0  0
  -22.3530   -8.0550   21.4220 C   0  0  0  0  0  0  0  0  0  0  0  0
  -21.9270   -9.0220   20.4930 C   0  0  0  0  0  3  0  0  0  0  0  0
  -22.6520  -10.2110   20.3160 C   0  0  0  0  0  3  0  0  0  0  0  0
  -21.5980   -6.9110   21.5080 O   0  0  0  0  0  0  0  0  0  0  0  0
  -21.5610   -6.1580   22.6550 C   0  0  0  0  0  0  0  0  0  0  0  0
  -21.1200   -6.6940   23.8830 C   0  0  0  0  0  3  0  0  0  0  0  0
  -21.0330   -5.8660   25.0210 C   0  0  0  0  0  3  0  0  0  0  0  0
  -21.3760   -4.5050   24.9300 C   0  0  0  0  0  0  0  0  0  0  0  0
  -21.8100   -3.9670   23.7060 C   0  0  0  0  0  3  0  0  0  0  0  0
  -21.9000   -4.7910   22.5700 C   0  0  0  0  0  0  0  0  0  0  0  0
  -22.2990   -4.2650   21.3870 F   0  0  0  0  0  0  0  0  0  0  0  0
  -21.2840   -3.7070   26.0200 F   0  0  0  0  0  0  0  0  0  0  0  0
  -22.6860  -13.5500   21.2430 C   0  0  0  0  0  0  0  0  0  0  0  0
  -21.9760  -12.8450   22.1150 N   0  0  0  0  0  0  0  0  0  0  0  0
  -22.2390  -14.5800   20.7400 O   0  0  0  0  0  0  0  0  0  0  0  0
  -22.3520  -12.0110   22.5430 H   0  0  0  0  0  0  0  0  0  0  0  0
  -21.0420  -13.1420   22.3590 H   0  0  0  0  0  0  0  0  0  0  0  0
  -25.2990  -15.2290   20.4010 N   0  0  0  0  0  0  0  0  0  0  0  0
  -24.5350  -15.8830   20.5390 H   0  0  0  0  0  0  0  0  0  0  0  0
  -26.1440  -15.6760   20.0700 H   0  0  0  0  0  0  0  0  0  0  0  0
  -27.8370  -24.6680   20.0940 C   0  0  0  0  0  2  0  0  0  0  0  0
  -28.1900  -26.1690   20.2700 O   0  0  0  0  0  0  0  0  0  0  0  0
  -24.6150  -31.8840   23.2410 C   0  0  0  0  0  0  0  0  0  0  0  0
  -27.1510  -27.1670   20.1940 C   0  0  0  0  0  0  0  0  0  0  0  0
  -23.4040  -30.5060   21.5960 C   0  0  0  0  0  3  0  0  0  0  0  0
  -24.8380  -28.9290   20.1660 C   0  0  0  0  0  0  0  0  0  0  0  0
  -25.9600  -30.7510   21.4350 C   0  0  0  0  0  2  0  0  0  0  0  0
  -26.0220  -29.3630   20.7770 C   0  0  0  0  0  0  0  0  0  0  0  0
  -27.1800  -28.4980   20.7750 C   0  0  0  0  0  3  0  0  0  0  0  0
  -25.9410  -26.8400   19.5390 C   0  0  0  0  0  3  0  0  0  0  0  0
  -24.8110  -27.6810   19.5310 C   0  0  0  0  0  3  0  0  0  0  0  0
  -23.6190  -29.8340   20.2150 C   0  0  0  0  0  2  0  0  0  0  0  0
  -24.6800  -31.0680   22.1460 N   0  0  0  0  0  0  0  0  0  0  0  0
  -23.5300  -32.1760   23.7680 O   0  0  0  0  0  0  0  0  0  0  0  0
  -22.7150  -29.5000   22.5530 C   0  0  0  0  0  0  0  0  0  0  0  0
  -21.3870  -29.3420   22.4220 N   0  0  0  0  0  0  0  0  0  0  0  0
  -23.3800  -28.8660   23.3760 O   0  0  0  0  0  0  0  0  0  0  0  0
  -20.9080  -29.9040   21.7330 H   0  0  0  0  0  0  0  0  0  0  0  0
  -17.9900  -28.1860   22.9280 C   0  0  0  0  0  0  0  0  0  0  0  0
  -20.5530  -28.4110   23.1890 C   0  0  0  0  0  3  0  0  0  0  0  0
  -20.6330  -26.9810   22.6050 C   0  0  0  0  0  2  0  0  0  0  0  0
  -19.5230  -26.6800   21.5920 C   0  0  0  0  0  2  0  0  0  0  0  0
  -18.1460  -26.8390   22.2410 C   0  0  0  0  0  2  0  0  0  0  0  0
  -19.1200  -28.9300   23.3590 C   0  0  0  0  0  0  0  0  0  0  0  0
  -18.9180  -30.1910   23.9630 C   0  0  0  0  0  3  0  0  0  0  0  0
  -17.6200  -30.7060   24.1380 C   0  0  0  0  0  3  0  0  0  0  0  0
  -16.5040  -29.9590   23.7210 C   0  0  0  0  0  3  0  0  0  0  0  0
  -16.6900  -28.6990   23.1230 C   0  0  0  0  0  3  0  0  0  0  0  0
  -25.8980  -32.5050   23.8720 C   0  0  0  0  0  3  0  0  0  0  0  0
  -26.3930  -31.7330   25.1560 C   0  0  1  0  0  0  0  0  0  0  0  0
  -25.2880  -31.5110   26.2160 C   0  0  0  0  0  1  0  0  0  0  0  0
  -26.9630  -30.3470   24.7770 C   0  0  0  0  0  1  0  0  0  0  0  0
  -27.5490  -32.5140   25.8240 C   0  0  0  0  0  1  0  0  0  0  0  0
  -25.6010  -33.9080   24.2000 N   0  0  0  0  0  0  0  0  0  0  0  0
  -25.9190  -34.9570   23.4310 C   0  0  0  0  0  0  0  0  0  0  0  0
  -26.5620  -34.8460   22.3840 O   0  0  0  0  0  0  0  0  0  0  0  0
  -25.0260  -34.0680   25.0160 H   0  0  0  0  0  0  0  0  0  0  0  0
  -24.1830  -36.7540   23.1320 C   0  0  0  0  0  1  0  0  0  0  0  0
  -25.4540  -36.3520   23.8960 C   0  0  0  0  0  3  0  0  0  0  0  0
  -27.6180  -37.2450   24.6390 C   0  0  0  0  0  1  0  0  0  0  0  0
  -26.4830  -37.4020   23.7330 N   0  0  0  0  0  0  0  0  0  0  0  0
  -26.0840  -38.3250   23.8810 H   0  0  0  0  0  0  0  0  0  0  0  0
  1  5  1  0
  2  6  2  0
  2  4  1  0
  3  5  2  0
  4  1  2  0
  5  7  1  0
  6  3  1  0
  8  4  1  0
  8  9  2  0
 10 11  1  0
 10 12  1  0
 11 12  1  0
 11  8  1  0
 12 13  1  0
 14 19  1  0
 15 16  1  0
 15 14  1  0
 17 16  1  0
 17 24  1  0
 17 18  1  0
 19 13  1  0
 19 18  1  0
 20 13  2  0
 21 22  2  0
 22 41  1  0
 23 22  1  0
 23 26  1  0
 24 25  1  0
 24 21  1  0
 25 23  2  0
 26 27  1  0
 27 28  2  0
 29 32  1  0
 29 28  1  0
 30 29  2  0
 31 30  1  0
 31 26  2  0
 32 33  1  0
 33 34  1  0
 34 35  2  0
 36 35  1  0
 36 40  1  0
 37 36  2  0
 38 33  2  0
 38 37  1  0
 39 38  1  0
 41 42  1  0
 42 45  1  0
 42 44  1  0
 43 41  2  0
 46 47  1  0
 46 21  1  0
 48 46  1  0
 49 50  1  0
 49  6  1  0
 51 62  2  0
 52 50  1  0
 52 57  1  0
 53 61  1  0
 53 63  1  0
 54 60  1  0
 54 56  1  0
 55 61  1  0
 56 55  1  0
 57 56  2  0
 58 52  2  0
 59 58  1  0
 59 54  2  0
 60 53  1  0
 61 51  1  0
 63 65  2  0
 64 63  1  0
 66 64  1  0
 67 76  2  0
 67 72  1  0
 68 64  1  0
 68 72  1  0
 69 68  1  0
 70 71  1  0
 70 69  1  0
 71 67  1  0
 72 73  2  0
 73 74  1  0
 75 74  2  0
 76 75  1  0
 77 51  1  0
 77 82  1  0
 77 78  1  0
 78 81  1  1
 78 79  1  0
 80 78  1  0
 82 85  1  0
 83 87  1  0
 83 82  1  0
 84 83  2  0
 87 86  1  0
 89 90  1  0
 89 87  1  0
 89 88  1  0
M  ISO  4  12 100  13 100  49 101  50 101
M  END
>  <TORSDO>  (51) 
F 19

>  <SCORE>  (51) 
-13.854

>  <name>  (51) 
50

>  <ligand_id>  (51) 
50

>  <original_smiles>  (51) 
[H]c1c([H])c([H])c2c(c1[H])C([H])([H])C([H])([H])C([H])([H])C2([H])N([H])C(=O)C1([H])N(C(=O)C([H])(N([H])C(=O)C([H])(N([H])C([H])([H])[H])C([H])([H])[H])C(C([H])([H])[H])(C([H])([H])[H])C([H])([H])[H])C([H])([H])c2c([H])c(OC([H])([H])c3c([H])c(C(=O)C4([H])C([H])([H])C4([H])C(=O)N4C([H])([H])C([H])([H])C([H])([H])C([H])(n5nc(-c6c([H])c([H])c(Oc7c([H])c([H])c(F)c([H])c7F)c([H])c6[H])c(C(=O)N([H])[H])c5N([H])[H])C4([H])[H])c([H])c(C([H])([H])[H])c3[H])c([H])c([H])c2C1([H])[H]

>  <smiles>  (51) 
[H]c1c([H])c([H])c2c(c1[H])C([H])([H])C([H])([H])C([H])([H])C2([H])N([H])C(=O)C1([H])N(C(=O)C([H])(N([H])C(=O)C([H])(N([H])C([H])([H])[H])C([H])([H])[H])C(C([H])([H])[H])(C([H])([H])[H])C([H])([H])[H])C([H])([H])c2c([H])c(OC([H])([H])c3c([H])c(C(=O)C4([H])C([H])([H])C4([H])C(=O)N4C([H])([H])C([H])([H])C([H])([H])C([H])(n5nc(-c6c([H])c([H])c(Oc7c([H])c([H])c(F)c([H])c7F)c([H])c6[H])c(C(=O)N([H])[H])c5N([H])[H])C4([H])[H])c([H])c(C([H])([H])[H])c3[H])c([H])c([H])c2C1([H])[H]

$$$$
51:0:0
     RDKit          3D

 90 98  0  0  1  0  0  0  0  0999 V2000
  -29.5630  -20.5670   20.6090 N   0  0  0  0  0  4  0  0  0  0  0  0
  -30.5280  -20.7330   20.3640 H   0  0  0  0  0  0  0  0  0  0  0  0
  -29.5190  -20.6110   21.6160 H   0  0  0  0  0  0  0  0  0  0  0  0
  -29.2620  -19.0490   20.2190 C   0  0  0  0  0  2  0  0  0  0  0  0
  -31.9020  -18.2460   22.0810 C   0  0  0  0  0  2  0  0  0  0  0  0
  -30.4620  -17.7650   22.2350 C   0  0  0  0  0  2  0  0  0  0  0  0
  -31.7760  -18.0360   20.5730 C   0  0  0  0  0  2  0  0  0  0  0  0
  -30.2490  -17.7630   20.7010 C   0  0  2  0  0  0  0  0  0  0  0  0
  -30.5760  -15.0210   20.0590 C   0  0  0  0  0  0  0  0  0  0  0  0
  -30.3450  -12.6720   19.1000 C   0  0  0  0  0  2  0  0  0  0  0  0
  -29.3710  -12.6540   17.9040 C   0  0  0  0  0  2  0  0  0  0  0  0
  -27.9200  -12.4740   18.3900 C   0  0  0  0  0  2  0  0  0  0  0  0
  -27.5770  -13.3740   19.6080 C   0  0  0  0  0  3  0  0  0  0  0  0
  -28.6850  -13.3790   20.6850 C   0  0  0  0  0  2  0  0  0  0  0  0
  -29.9280  -13.7800   20.0150 N   0  0  0  0  0  0  0  0  0  0  0  0
  -31.7450  -15.0260   19.6700 O   0  0  0  0  0  0  0  0  0  0  0  0
  -29.8800  -16.2370   20.3620 N   0  0  0  0  0  0  0  0  0  0  0  0
  -28.9050  -16.0510   20.5500 H   0  0  0  0  0  0  0  0  0  0  0  0
  -25.2430  -13.9450   20.4820 C   0  0  0  0  0  0  0  0  0  0  0  0
  -24.1920  -13.1690   20.8860 C   0  0  0  0  0  0  0  0  0  0  0  0
  -24.6390  -11.8160   20.7870 C   0  0  0  0  0  0  0  0  0  0  0  0
  -26.2640  -13.0650   20.1620 N   0  0  0  0  0  0  0  0  0  0  0  0
  -25.9130  -11.7770   20.4100 N   0  0  0  0  0  0  0  0  0  0  0  0
  -23.9030  -10.5600   20.9720 C   0  0  0  0  0  0  0  0  0  0  0  0
  -24.3370   -9.5810   21.8920 C   0  0  0  0  0  3  0  0  0  0  0  0
  -23.6010   -8.3910   22.0740 C   0  0  0  0  0  3  0  0  0  0  0  0
  -22.4180   -8.1670   21.3260 C   0  0  0  0  0  0  0  0  0  0  0  0
  -22.0020   -9.1340   20.3960 C   0  0  0  0  0  3  0  0  0  0  0  0
  -22.7400  -10.3170   20.2150 C   0  0  0  0  0  3  0  0  0  0  0  0
  -21.6500   -7.0320   21.4140 O   0  0  0  0  0  0  0  0  0  0  0  0
  -21.5640   -6.3090   22.5770 C   0  0  0  0  0  0  0  0  0  0  0  0
  -21.0510   -6.8700   23.7660 C   0  0  0  0  0  3  0  0  0  0  0  0
  -20.9180   -6.0730   24.9210 C   0  0  0  0  0  3  0  0  0  0  0  0
  -21.2840   -4.7140   24.8850 C   0  0  0  0  0  0  0  0  0  0  0  0
  -21.7830   -4.1490   23.6980 C   0  0  0  0  0  3  0  0  0  0  0  0
  -21.9210   -4.9450   22.5470 C   0  0  0  0  0  0  0  0  0  0  0  0
  -22.3860   -4.3920   21.4020 F   0  0  0  0  0  0  0  0  0  0  0  0
  -21.1460   -3.9460   25.9920 F   0  0  0  0  0  0  0  0  0  0  0  0
  -22.8190  -13.6540   21.2430 C   0  0  0  0  0  0  0  0  0  0  0  0
  -22.1200  -12.9390   22.1180 N   0  0  0  0  0  0  0  0  0  0  0  0
  -22.3740  -14.7050   20.7830 O   0  0  0  0  0  0  0  0  0  0  0  0
  -22.4850  -12.0850   22.5130 H   0  0  0  0  0  0  0  0  0  0  0  0
  -21.2020  -13.2590   22.3960 H   0  0  0  0  0  0  0  0  0  0  0  0
  -25.4030  -15.3180   20.3380 N   0  0  0  0  0  0  0  0  0  0  0  0
  -24.6350  -15.9550   20.5250 H   0  0  0  0  0  0  0  0  0  0  0  0
  -26.2080  -15.7690   19.9220 H   0  0  0  0  0  0  0  0  0  0  0  0
  -28.7410  -21.8240   20.0760 C   0  0  0  0  0  2  0  0  0  0  0  0
  -28.9800  -23.4390   20.5530 C   0  0  0  0  0  3  0  0  0  0  0  0
  -27.9760  -24.7380   20.1440 C   0  0  0  0  0  3  0  0  0  0  0  0
  -28.2000  -26.2620   20.3690 O   0  0  0  0  0  0  0  0  0  0  0  0
  -24.5900  -31.9720   23.2420 C   0  0  0  0  0  0  0  0  0  0  0  0
  -27.1360  -27.2320   20.2660 C   0  0  0  0  0  0  0  0  0  0  0  0
  -23.3670  -30.5670   21.6190 C   0  0  0  0  0  3  0  0  0  0  0  0
  -24.8060  -28.9750   20.2020 C   0  0  0  0  0  0  0  0  0  0  0  0
  -25.9220  -30.8250   21.4410 C   0  0  0  0  0  2  0  0  0  0  0  0
  -25.9880  -29.4300   20.8000 C   0  0  0  0  0  0  0  0  0  0  0  0
  -27.1510  -28.5760   20.8130 C   0  0  0  0  0  3  0  0  0  0  0  0
  -25.9270  -26.8720   19.6280 C   0  0  0  0  0  3  0  0  0  0  0  0
  -24.7900  -27.7100   19.5970 C   0  0  0  0  0  3  0  0  0  0  0  0
  -23.5790  -29.8730   20.2450 C   0  0  0  0  0  2  0  0  0  0  0  0
  -24.6440  -31.1450   22.1530 N   0  0  0  0  0  0  0  0  0  0  0  0
  -23.5110  -32.2690   23.7740 O   0  0  0  0  0  0  0  0  0  0  0  0
  -22.6910  -29.5730   22.5950 C   0  0  0  0  0  0  0  0  0  0  0  0
  -21.3630  -29.3970   22.4650 N   0  0  0  0  0  0  0  0  0  0  0  0
  -23.3630  -28.9630   23.4290 O   0  0  0  0  0  0  0  0  0  0  0  0
  -20.8780  -29.9450   21.7680 H   0  0  0  0  0  0  0  0  0  0  0  0
  -17.9810  -28.2130   22.9740 C   0  0  0  0  0  0  0  0  0  0  0  0
  -20.5410  -28.4700   23.2460 C   0  0  0  0  0  3  0  0  0  0  0  0
  -20.6410  -27.0300   22.6870 C   0  0  0  0  0  2  0  0  0  0  0  0
  -19.5410  -26.6980   21.6740 C   0  0  0  0  0  2  0  0  0  0  0  0
  -18.1570  -26.8570   22.3100 C   0  0  0  0  0  2  0  0  0  0  0  0
  -19.1010  -28.9770   23.3980 C   0  0  0  0  0  0  0  0  0  0  0  0
  -18.8820  -30.2460   23.9770 C   0  0  0  0  0  3  0  0  0  0  0  0
  -17.5780  -30.7520   24.1360 C   0  0  0  0  0  3  0  0  0  0  0  0
  -16.4730  -29.9810   23.7320 C   0  0  0  0  0  3  0  0  0  0  0  0
  -16.6760  -28.7160   23.1560 C   0  0  0  0  0  3  0  0  0  0  0  0
  -25.8800  -32.6020   23.8550 C   0  0  0  0  0  3  0  0  0  0  0  0
  -25.5790  -33.9990   24.1980 N   0  0  0  0  0  0  0  0  0  0  0  0
  -25.8710  -35.0560   23.4280 C   0  0  0  0  0  0  0  0  0  0  0  0
  -26.4910  -34.9580   22.3650 O   0  0  0  0  0  0  0  0  0  0  0  0
  -25.0350  -34.1520   25.0340 H   0  0  0  0  0  0  0  0  0  0  0  0
  -24.1130  -36.8410   23.1740 C   0  0  0  0  0  1  0  0  0  0  0  0
  -25.4000  -36.4400   23.9150 C   0  0  0  0  0  3  0  0  0  0  0  0
  -27.5630  -37.3490   24.6400 C   0  0  0  0  0  1  0  0  0  0  0  0
  -26.4160  -37.5020   23.7490 N   0  0  0  0  0  0  0  0  0  0  0  0
  -26.0050  -38.4160   23.9170 H   0  0  0  0  0  0  0  0  0  0  0  0
  -26.4050  -31.8290   25.1290 C   0  0  1  0  0  0  0  0  0  0  0  0
  -25.3130  -31.5770   26.1920 C   0  0  0  0  0  1  0  0  0  0  0  0
  -27.0070  -30.4600   24.7370 C   0  0  0  0  0  1  0  0  0  0  0  0
  -27.5420  -32.6340   25.8030 C   0  0  0  0  0  1  0  0  0  0  0  0
  1  3  1  0
  2  1  1  0
  4  1  1  0
  8  4  1  1
  5  6  1  0
  7  8  1  0
  7  5  1  0
  8  6  1  0
  9 17  1  0
 10 15  1  0
 11 12  1  0
 11 10  1  0
 13 12  1  0
 13 22  1  0
 13 14  1  0
 15  9  1  0
 15 14  1  0
 16  9  2  0
 17 18  1  0
 17  8  1  0
 19 20  2  0
 20 39  1  0
 21 20  1  0
 21 24  1  0
 22 23  1  0
 22 19  1  0
 23 21  2  0
 24 25  1  0
 25 26  2  0
 27 30  1  0
 27 26  1  0
 28 27  2  0
 29 28  1  0
 29 24  2  0
 30 31  1  0
 31 32  1  0
 32 33  2  0
 34 33  1  0
 34 38  1  0
 35 34  2  0
 36 31  2  0
 36 35  1  0
 37 36  1  0
 39 40  1  0
 40 43  1  0
 40 42  1  0
 41 39  2  0
 44 19  1  0
 44 45  1  0
 46 44  1  0
 47 48  1  0
 47  1  1  0
 49 50  1  0
 49 48  2  0
 51 62  2  0
 52 50  1  0
 52 57  1  0
 53 61  1  0
 53 63  1  0
 54 60  1  0
 54 56  1  0
 55 61  1  0
 56 57  2  0
 56 55  1  0
 58 52  2  0
 59 58  1  0
 59 54  2  0
 60 53  1  0
 61 51  1  0
 63 65  2  0
 64 63  1  0
 66 64  1  0
 67 76  2  0
 67 72  1  0
 68 64  1  0
 68 72  1  0
 69 68  1  0
 70 71  1  0
 70 69  1  0
 71 67  1  0
 72 73  2  0
 73 74  1  0
 75 74  2  0
 76 75  1  0
 77 51  1  0
 77 78  1  0
 77 87  1  0
 78 81  1  0
 79 83  1  0
 79 78  1  0
 80 79  2  0
 83 82  1  0
 85 83  1  0
 85 86  1  0
 85 84  1  0
 87 90  1  1
 87 88  1  0
 89 87  1  0
M  ISO  4   9 100  17 100  49 101  50 101
M  END
>  <TORSDO>  (52) 
F 21

>  <SCORE>  (52) 
-13.715

>  <name>  (52) 
51

>  <ligand_id>  (52) 
51

>  <original_smiles>  (52) 
[H]c1c([H])c([H])c2c(c1[H])C([H])([H])C([H])([H])C([H])([H])C2([H])N([H])C(=O)C1([H])N(C(=O)C([H])(N([H])C(=O)C([H])(N([H])C([H])([H])[H])C([H])([H])[H])C(C([H])([H])[H])(C([H])([H])[H])C([H])([H])[H])C([H])([H])c2c([H])c(OC([H])([H])C([H])([H])C([H])([H])[N+]([H])([H])C([H])([H])C3(N([H])C(=O)N4C([H])([H])C([H])([H])C([H])([H])C([H])(n5nc(-c6c([H])c([H])c(Oc7c([H])c([H])c(F)c([H])c7F)c([H])c6[H])c(C(=O)N([H])[H])c5N([H])[H])C4([H])[H])C([H])([H])C([H])([H])C3([H])[H])c([H])c([H])c2C1([H])[H]

>  <smiles>  (52) 
[H]c1c([H])c([H])c2c(c1[H])C([H])([H])C([H])([H])C([H])([H])C2([H])N([H])C(=O)C1([H])N(C(=O)C([H])(N([H])C(=O)C([H])(N([H])C([H])([H])[H])C([H])([H])[H])C(C([H])([H])[H])(C([H])([H])[H])C([H])([H])[H])C([H])([H])c2c([H])c(OC([H])([H])C([H])([H])C([H])([H])[N+]([H])([H])C([H])([H])C3(N([H])C(=O)N4C([H])([H])C([H])([H])C([H])([H])C([H])(n5nc(-c6c([H])c([H])c(Oc7c([H])c([H])c(F)c([H])c7F)c([H])c6[H])c(C(=O)N([H])[H])c5N([H])[H])C4([H])[H])C([H])([H])C([H])([H])C3([H])[H])c([H])c([H])c2C1([H])[H]

$$$$
52:0:0
     RDKit          3D

 90 99  0  0  1  0  0  0  0  0999 V2000
  -28.9900  -20.4610   21.2990 C   0  0  0  0  0  2  0  0  0  0  0  0
  -29.6970  -20.6950   19.1880 C   0  0  0  0  0  2  0  0  0  0  0  0
  -28.3320  -21.8600   20.8130 C   0  0  0  0  0  3  0  0  0  0  0  0
  -28.7950  -21.9920   19.4110 C   0  0  0  0  0  3  0  0  0  0  0  0
  -29.2870  -19.4320   20.0990 C   0  0  0  0  0  3  0  0  0  0  0  0
  -28.9130  -23.2960   20.3350 C   0  0  2  0  0  0  0  0  0  0  0  0
  -30.2560  -23.7250   20.8960 C   0  0  0  0  0  1  0  0  0  0  0  0
  -28.0050  -24.7070   20.0400 C   0  0  0  0  0  2  0  0  0  0  0  0
  -28.2780  -26.2450   20.2810 O   0  0  0  0  0  0  0  0  0  0  0  0
  -24.6280  -31.9690   23.2610 C   0  0  0  0  0  0  0  0  0  0  0  0
  -27.2330  -27.2540   20.2080 C   0  0  0  0  0  0  0  0  0  0  0  0
  -23.4380  -30.5700   21.6190 C   0  0  0  0  0  3  0  0  0  0  0  0
  -24.8980  -29.0140   20.1810 C   0  0  0  0  0  0  0  0  0  0  0  0
  -25.9930  -30.8480   21.4550 C   0  0  0  0  0  2  0  0  0  0  0  0
  -26.0780  -29.4570   20.7930 C   0  0  0  0  0  0  0  0  0  0  0  0
  -27.2460  -28.5970   20.7830 C   0  0  0  0  0  3  0  0  0  0  0  0
  -26.0250  -26.9260   19.5520 C   0  0  0  0  0  3  0  0  0  0  0  0
  -24.8890  -27.7650   19.5420 C   0  0  0  0  0  3  0  0  0  0  0  0
  -23.6640  -29.9040   20.2360 C   0  0  0  0  0  2  0  0  0  0  0  0
  -24.7070  -31.1510   22.1670 N   0  0  0  0  0  0  0  0  0  0  0  0
  -23.5380  -32.2420   23.7890 O   0  0  0  0  0  0  0  0  0  0  0  0
  -22.7660  -29.5540   22.5770 C   0  0  0  0  0  0  0  0  0  0  0  0
  -21.4410  -29.3650   22.4420 N   0  0  0  0  0  0  0  0  0  0  0  0
  -23.4410  -28.9400   23.4060 O   0  0  0  0  0  0  0  0  0  0  0  0
  -20.9540  -29.9100   21.7450 H   0  0  0  0  0  0  0  0  0  0  0  0
  -18.0720  -28.1250   22.9320 C   0  0  0  0  0  0  0  0  0  0  0  0
  -20.6260  -28.4160   23.2070 C   0  0  0  0  0  3  0  0  0  0  0  0
  -20.7470  -26.9870   22.6270 C   0  0  0  0  0  2  0  0  0  0  0  0
  -19.6510  -26.6550   21.6090 C   0  0  0  0  0  2  0  0  0  0  0  0
  -18.2660  -26.7820   22.2480 C   0  0  0  0  0  2  0  0  0  0  0  0
  -19.1790  -28.9000   23.3660 C   0  0  0  0  0  0  0  0  0  0  0  0
  -18.9440  -30.1550   23.9660 C   0  0  0  0  0  3  0  0  0  0  0  0
  -17.6320  -30.6390   24.1340 C   0  0  0  0  0  3  0  0  0  0  0  0
  -16.5390  -29.8610   23.7140 C   0  0  0  0  0  3  0  0  0  0  0  0
  -16.7590  -28.6060   23.1190 C   0  0  0  0  0  3  0  0  0  0  0  0
  -25.8990  -32.6130   23.8920 C   0  0  0  0  0  3  0  0  0  0  0  0
  -26.4080  -31.8500   25.1770 C   0  0  1  0  0  0  0  0  0  0  0  0
  -25.3030  -31.6070   26.2320 C   0  0  0  0  0  1  0  0  0  0  0  0
  -27.0070  -30.4740   24.8020 C   0  0  0  0  0  1  0  0  0  0  0  0
  -27.5450  -32.6540   25.8490 C   0  0  0  0  0  1  0  0  0  0  0  0
  -25.5780  -34.0100   24.2220 N   0  0  0  0  0  0  0  0  0  0  0  0
  -25.8840  -35.0670   23.4570 C   0  0  0  0  0  0  0  0  0  0  0  0
  -26.5310  -34.9660   22.4100 O   0  0  0  0  0  0  0  0  0  0  0  0
  -25.0000  -34.1610   25.0350 H   0  0  0  0  0  0  0  0  0  0  0  0
  -24.1230  -36.8380   23.1510 C   0  0  0  0  0  1  0  0  0  0  0  0
  -25.3950  -36.4530   23.9220 C   0  0  0  0  0  3  0  0  0  0  0  0
  -27.5390  -37.3770   24.6840 C   0  0  0  0  0  1  0  0  0  0  0  0
  -26.4120  -37.5180   23.7680 N   0  0  0  0  0  0  0  0  0  0  0  0
  -25.9970  -38.4350   23.9130 H   0  0  0  0  0  0  0  0  0  0  0  0
  -30.2970  -18.0130   20.1770 C   0  0  0  0  0  3  0  0  0  0  0  0
  -30.6230  -15.2220   20.3200 C   0  0  0  0  0  0  0  0  0  0  0  0
  -30.4930  -12.8620   19.3750 C   0  0  0  0  0  2  0  0  0  0  0  0
  -29.5550  -12.7840   18.1490 C   0  0  0  0  0  2  0  0  0  0  0  0
  -28.1070  -12.5320   18.6030 C   0  0  0  0  0  2  0  0  0  0  0  0
  -27.6900  -13.4670   19.7650 C   0  0  0  0  0  3  0  0  0  0  0  0
  -28.7500  -13.5340   20.8840 C   0  0  0  0  0  2  0  0  0  0  0  0
  -30.0040  -13.9670   20.2550 N   0  0  0  0  0  0  0  0  0  0  0  0
  -31.8390  -15.2170   20.1040 O   0  0  0  0  0  0  0  0  0  0  0  0
  -29.8870  -16.4660   20.3980 N   0  0  0  0  0  0  0  0  0  0  0  0
  -28.8980  -16.3250   20.5430 H   0  0  0  0  0  0  0  0  0  0  0  0
  -25.3210  -14.0220   20.5430 C   0  0  0  0  0  0  0  0  0  0  0  0
  -24.2630  -13.2370   20.9090 C   0  0  0  0  0  0  0  0  0  0  0  0
  -24.7330  -11.8890   20.8550 C   0  0  0  0  0  0  0  0  0  0  0  0
  -26.3630  -13.1510   20.2780 N   0  0  0  0  0  0  0  0  0  0  0  0
  -26.0220  -11.8620   20.5330 N   0  0  0  0  0  0  0  0  0  0  0  0
  -24.0110  -10.6210   21.0280 C   0  0  0  0  0  0  0  0  0  0  0  0
  -24.4220   -9.6600   21.9790 C   0  0  0  0  0  3  0  0  0  0  0  0
  -23.7000   -8.4590   22.1430 C   0  0  0  0  0  3  0  0  0  0  0  0
  -22.5520   -8.2080   21.3540 C   0  0  0  0  0  0  0  0  0  0  0  0
  -22.1600   -9.1560   20.3930 C   0  0  0  0  0  3  0  0  0  0  0  0
  -22.8840  -10.3500   20.2280 C   0  0  0  0  0  3  0  0  0  0  0  0
  -21.8040   -7.0580   21.4240 O   0  0  0  0  0  0  0  0  0  0  0  0
  -21.6790   -6.3520   22.5940 C   0  0  0  0  0  0  0  0  0  0  0  0
  -21.1200   -6.9270   23.7560 C   0  0  0  0  0  3  0  0  0  0  0  0
  -20.9470   -6.1450   24.9140 C   0  0  0  0  0  3  0  0  0  0  0  0
  -21.3210   -4.7870   24.9110 C   0  0  0  0  0  0  0  0  0  0  0  0
  -21.8720   -4.2110   23.7530 C   0  0  0  0  0  3  0  0  0  0  0  0
  -22.0470   -4.9910   22.5970 C   0  0  0  0  0  0  0  0  0  0  0  0
  -22.5580   -4.4260   21.4770 F   0  0  0  0  0  0  0  0  0  0  0  0
  -21.1470   -4.0330   26.0220 F   0  0  0  0  0  0  0  0  0  0  0  0
  -22.8660  -13.7060   21.1930 C   0  0  0  0  0  0  0  0  0  0  0  0
  -22.1480  -12.9990   22.0570 N   0  0  0  0  0  0  0  0  0  0  0  0
  -22.4210  -14.7330   20.6830 O   0  0  0  0  0  0  0  0  0  0  0  0
  -22.5220  -12.1650   22.4860 H   0  0  0  0  0  0  0  0  0  0  0  0
  -21.2110  -13.2940   22.2930 H   0  0  0  0  0  0  0  0  0  0  0  0
  -25.4800  -15.3950   20.3860 N   0  0  0  0  0  0  0  0  0  0  0  0
  -24.7090  -16.0420   20.5110 H   0  0  0  0  0  0  0  0  0  0  0  0
  -26.3150  -15.8430   20.0330 H   0  0  0  0  0  0  0  0  0  0  0  0
  -30.4930  -17.5910   17.6210 C   0  0  0  0  0  1  0  0  0  0  0  0
  -31.1980  -18.0340   18.9150 C   0  0  0  0  0  2  0  0  0  0  0  0
  2  5  1  0
  3  1  1  0
  4  2  1  0
  4  6  1  0
  4  3  1  0
  5 50  1  0
  5  1  1  0
  6  3  1  0
  6  7  1  1
  8  9  1  0
  8  6  1  0
 10 21  2  0
 11  9  1  0
 11 16  1  0
 12 20  1  0
 12 22  1  0
 13 19  1  0
 13 15  1  0
 14 20  1  0
 15 14  1  0
 16 15  2  0
 17 11  2  0
 18 17  1  0
 18 13  2  0
 19 12  1  0
 20 10  1  0
 22 24  2  0
 23 22  1  0
 25 23  1  0
 26 35  2  0
 26 31  1  0
 27 23  1  0
 27 31  1  0
 28 27  1  0
 29 30  1  0
 29 28  1  0
 30 26  1  0
 31 32  2  0
 32 33  1  0
 34 33  2  0
 35 34  1  0
 36 10  1  0
 36 41  1  0
 36 37  1  0
 37 40  1  1
 37 38  1  0
 39 37  1  0
 41 44  1  0
 42 46  1  0
 42 41  1  0
 43 42  2  0
 46 45  1  0
 48 49  1  0
 48 46  1  0
 48 47  1  0
 50 90  1  0
 50 59  1  0
 51 59  1  0
 52 57  1  0
 53 54  1  0
 53 52  1  0
 55 54  1  0
 55 64  1  0
 55 56  1  0
 57 51  1  0
 57 56  1  0
 58 51  2  0
 59 60  1  0
 61 62  2  0
 62 81  1  0
 63 62  1  0
 63 66  1  0
 64 65  1  0
 64 61  1  0
 65 63  2  0
 66 67  1  0
 67 68  2  0
 69 72  1  0
 69 68  1  0
 70 69  2  0
 71 70  1  0
 71 66  2  0
 72 73  1  0
 73 78  2  0
 73 74  1  0
 74 75  2  0
 76 75  1  0
 76 80  1  0
 77 76  2  0
 78 77  1  0
 79 78  1  0
 81 82  1  0
 82 85  1  0
 82 84  1  0
 83 81  2  0
 86 87  1  0
 86 61  1  0
 88 86  1  0
 89 90  1  0
M  ISO  4   8 101   9 101  51 100  59 100
M  END
>  <TORSDO>  (53) 
F 19

>  <SCORE>  (53) 
-14.980

>  <name>  (53) 
52

>  <ligand_id>  (53) 
52

>  <original_smiles>  (53) 
[H]c1c([H])c([H])c2c(c1[H])C([H])([H])C([H])([H])C([H])([H])C2([H])N([H])C(=O)C1([H])N(C(=O)C([H])(N([H])C(=O)C([H])(N([H])C([H])([H])[H])C([H])([H])[H])C(C([H])([H])[H])(C([H])([H])[H])C([H])([H])[H])C([H])([H])c2c([H])c(OC([H])([H])C3(C([H])([H])[H])C4([H])C([H])([H])C([H])(C([H])(N([H])C(=O)N5C([H])([H])C([H])([H])C([H])([H])C([H])(n6nc(-c7c([H])c([H])c(Oc8c([H])c([H])c(F)c([H])c8F)c([H])c7[H])c(C(=O)N([H])[H])c6N([H])[H])C5([H])[H])C([H])([H])C([H])([H])[H])C([H])([H])C43[H])c([H])c([H])c2C1([H])[H]

>  <smiles>  (53) 
[H]c1c([H])c([H])c2c(c1[H])C([H])([H])C([H])([H])C([H])([H])C2([H])N([H])C(=O)C1([H])N(C(=O)C([H])(N([H])C(=O)C([H])(N([H])C([H])([H])[H])C([H])([H])[H])C(C([H])([H])[H])(C([H])([H])[H])C([H])([H])[H])C([H])([H])c2c([H])c(OC([H])([H])C3(C([H])([H])[H])C4([H])C([H])([H])C([H])(C([H])(N([H])C(=O)N5C([H])([H])C([H])([H])C([H])([H])C([H])(n6nc(-c7c([H])c([H])c(Oc8c([H])c([H])c(F)c([H])c8F)c([H])c7[H])c(C(=O)N([H])[H])c6N([H])[H])C5([H])[H])C([H])([H])C([H])([H])[H])C([H])([H])C43[H])c([H])c([H])c2C1([H])[H]

$$$$
53:0:0
     RDKit          3D

 89 90  0  0  1  0  0  0  0  0999 V2000
  -27.5090  -26.0820   13.9540 C   0  0  0  0  0  0  0  0  0  0  0  0
  -28.2750  -25.1410   14.1980 O   0  0  0  0  0  0  0  0  0  0  0  0
  -25.6090  -23.3820   10.5010 C   0  0  0  0  0  2  0  0  0  0  0  0
  -26.0640  -21.9530    7.3170 C   0  0  0  0  0  2  0  0  0  0  0  0
  -25.7910  -22.1010    5.6230 C   0  0  0  0  0  2  0  0  0  0  0  0
  -24.3360  -22.0490    5.1770 C   0  0  0  0  0  2  0  0  0  0  0  0
  -23.7460  -22.4600    6.5110 C   0  0  0  0  0  3  0  0  0  0  0  0
  -24.1500  -21.7830    7.9320 C   0  0  0  0  0  2  0  0  0  0  0  0
  -25.2330  -22.6420    8.7840 N   0  0  0  0  0  0  0  0  0  0  0  0
  -26.6620  -22.6460    9.9850 O   0  0  0  0  0  1  0  0  0  0  0  0
  -24.3470  -30.7260   20.3630 C   0  0  0  0  0 15  0  0  0  0  0  0
  -23.8060  -28.3990   18.5820 C   0  0  0  0  0  3  0  0  0  0  0  0
  -24.5480  -28.7730   17.6100 C   0  0  0  0  0  3  0  0  0  0  0  0
  -24.1660  -25.6840   14.1560 C   0  0  0  0  0  1  0  0  0  0  0  0
  -25.8970  -25.8910   14.1310 C   0  0  0  0  0  2  0  0  0  0  0  0
  -24.1320  -27.1450   16.2260 C   0  0  0  0  0  1  0  0  0  0  0  0
  -25.3770  -27.5900   15.7800 C   0  0  0  0  0  1  0  0  0  0  0  0
  -25.2470  -24.7370   12.4350 N   0  0  0  0  0 15  0  0  0  0  0  0
  -22.0440  -24.0030    7.0730 C   0  0  0  0  0  0  0  0  0  0  0  0
  -20.7100  -23.9900    7.0610 C   0  0  0  0  0  0  0  0  0  0  0  0
  -20.3190  -22.7520    6.4530 C   0  0  0  0  0  0  0  0  0  0  0  0
  -22.4020  -22.7940    6.5570 N   0  0  0  0  0  0  0  0  0  0  0  0
  -21.3790  -21.9900    6.1930 N   0  0  0  0  0  0  0  0  0  0  0  0
  -18.9900  -22.3150    6.0510 C   0  0  0  0  0  0  0  0  0  0  0  0
  -18.4570  -21.0710    6.4500 C   0  0  0  0  0  3  0  0  0  0  0  0
  -17.1450  -20.7160    6.0780 C   0  0  0  0  0  3  0  0  0  0  0  0
  -16.3620  -21.6080    5.3080 C   0  0  0  0  0  0  0  0  0  0  0  0
  -16.9100  -22.8340    4.8950 C   0  0  0  0  0  3  0  0  0  0  0  0
  -18.2170  -23.1830    5.2590 C   0  0  0  0  0  3  0  0  0  0  0  0
  -15.0840  -21.3430    4.8870 O   0  0  0  0  0  0  0  0  0  0  0  0
  -14.0390  -21.2630    5.7700 C   0  0  0  0  0  0  0  0  0  0  0  0
  -14.0760  -21.9060    7.0260 C   0  0  0  0  0  3  0  0  0  0  0  0
  -12.9510  -21.8540    7.8730 C   0  0  0  0  0  3  0  0  0  0  0  0
  -11.7920  -21.1700    7.4630 C   0  0  0  0  0  0  0  0  0  0  0  0
  -11.7550  -20.5300    6.2120 C   0  0  0  0  0  3  0  0  0  0  0  0
  -12.8750  -20.5800    5.3650 C   0  0  0  0  0  0  0  0  0  0  0  0
  -12.8310  -19.9810    4.1490 F   0  0  0  0  0  0  0  0  0  0  0  0
  -10.7090  -21.1280    8.2710 F   0  0  0  0  0  0  0  0  0  0  0  0
  -19.8830  -25.1340    7.5180 C   0  0  0  0  0  0  0  0  0  0  0  0
  -19.0710  -24.9270    8.5380 N   0  0  0  0  0  0  0  0  0  0  0  0
  -20.0250  -26.2510    7.0120 O   0  0  0  0  0  0  0  0  0  0  0  0
  -18.9880  -24.0190    8.9710 H   0  0  0  0  0  0  0  0  0  0  0  0
  -18.5190  -25.6920    8.8980 H   0  0  0  0  0  0  0  0  0  0  0  0
  -22.9810  -24.9550    7.4880 N   0  0  0  0  0  0  0  0  0  0  0  0
  -22.7120  -25.8860    7.7800 H   0  0  0  0  0  0  0  0  0  0  0  0
  -23.9760  -24.8210    7.3740 H   0  0  0  0  0  0  0  0  0  0  0  0
  -28.1840  -27.4750   13.5600 C   0  0  0  0  0  2  0  0  0  0  0  0
  -29.7470  -27.5200   13.1090 C   0  0  0  0  0  2  0  0  0  0  0  0
  -30.3970  -28.4500   12.1130 O   0  0  0  0  0  0  0  0  0  0  0  0
  -36.3710  -32.1770   13.2340 C   0  0  0  0  0  0  0  0  0  0  0  0
  -30.9290  -29.6610   12.5370 C   0  0  0  0  0  0  0  0  0  0  0  0
  -34.4350  -32.7710   14.5790 C   0  0  0  0  0  3  0  0  0  0  0  0
  -32.1660  -31.8810   13.7920 C   0  0  0  0  0  0  0  0  0  0  0  0
  -34.0940  -31.9230   12.1980 C   0  0  0  0  0  2  0  0  0  0  0  0
  -32.7590  -31.3270   12.6480 C   0  0  0  0  0  0  0  0  0  0  0  0
  -32.1300  -30.2250   11.9970 C   0  0  0  0  0  3  0  0  0  0  0  0
  -30.3290  -30.2970   13.6380 C   0  0  0  0  0  3  0  0  0  0  0  0
  -30.9520  -31.3720   14.2840 C   0  0  0  0  0  3  0  0  0  0  0  0
  -32.9020  -33.0360   14.4380 C   0  0  0  0  0  2  0  0  0  0  0  0
  -35.0230  -32.2690   13.3130 N   0  0  0  0  0  0  0  0  0  0  0  0
  -37.1050  -32.5250   14.1810 O   0  0  0  0  0  0  0  0  0  0  0  0
  -34.6970  -31.7600   15.6910 C   0  0  0  0  0  0  0  0  0  0  0  0
  -35.4700  -32.2160   16.6650 N   0  0  0  0  0  0  0  0  0  0  0  0
  -34.0420  -30.7160   15.7800 O   0  0  0  0  0  0  0  0  0  0  0  0
  -36.1340  -32.9400   16.4340 H   0  0  0  0  0  0  0  0  0  0  0  0
  -34.6610  -34.5780   20.0480 C   0  0  0  0  0  2  0  0  0  0  0  0
  -34.6320  -32.4670   17.8120 C   0  0  0  0  0  3  0  0  0  0  0  0
  -33.6790  -33.5810   17.7850 C   0  0  0  0  0  2  0  0  0  0  0  0
  -33.9330  -35.0840   17.8840 C   0  0  0  0  0  2  0  0  0  0  0  0
  -34.1010  -35.7040   19.2400 C   0  0  0  0  0  2  0  0  0  0  0  0
  -35.1610  -32.6300   19.0790 C   0  0  0  0  0  2  0  0  0  0  0  0
  -37.0040  -32.2830   19.0460 C   0  0  0  0  0  2  0  0  0  0  0  0
  -38.2140  -33.5040   19.4670 C   0  0  0  0  0  3  0  0  0  0  0  0
  -37.8270  -35.0120   20.2310 C   0  0  0  0  0  3  0  0  0  0  0  0
  -36.1670  -35.4800   20.6470 C   0  0  0  0  0  2  0  0  0  0  0  0
  -37.0580  -31.6530   11.9480 C   0  0  0  0  0  3  0  0  0  0  0  0
  -38.1770  -32.5570   11.6800 N   0  0  0  0  0  0  0  0  0  0  0  0
  -38.0470  -33.7540   11.1030 C   0  0  0  0  0  0  0  0  0  0  0  0
  -36.9750  -34.1710   10.6570 O   0  0  0  0  0  0  0  0  0  0  0  0
  -39.0750  -32.3130   12.0730 H   0  0  0  0  0  0  0  0  0  0  0  0
  -39.3750  -35.5970   12.1760 C   0  0  0  0  0  1  0  0  0  0  0  0
  -39.3090  -34.6240   10.9890 C   0  0  0  0  0  3  0  0  0  0  0  0
  -39.7370  -34.5330    8.5760 C   0  0  0  0  0  1  0  0  0  0  0  0
  -39.3890  -35.3760    9.7180 N   0  0  0  0  0  0  0  0  0  0  0  0
  -40.0780  -36.1230    9.7840 H   0  0  0  0  0  0  0  0  0  0  0  0
  -37.5490  -30.1620   12.0760 C   0  0  1  0  0  0  0  0  0  0  0  0
  -39.0020  -30.0310   12.5880 C   0  0  0  0  0  1  0  0  0  0  0  0
  -36.6380  -29.3550   13.0300 C   0  0  0  0  0  1  0  0  0  0  0  0
  -37.4570  -29.4790   10.6940 C   0  0  0  0  0  1  0  0  0  0  0  0
  1 15  1  0
  1  2  2  0
  4  9  1  0
  5  4  1  0
  6  5  1  0
  7  6  1  0
  7 22  1  0
  7  8  1  0
  8  9  1  0
  9  3  1  0
 10  3  1  0
 13 12  3  0
 15 14  1  0
 17 16  1  0
 19 44  1  0
 20 19  2  0
 20 39  1  0
 21 20  1  0
 22 19  1  0
 23 21  2  0
 23 22  1  0
 24 25  1  0
 24 21  1  0
 26 25  2  0
 27 26  1  0
 28 29  1  0
 28 27  2  0
 29 24  2  0
 30 27  1  0
 30 31  1  0
 31 32  1  0
 32 33  2  0
 34 33  1  0
 34 38  1  0
 35 34  2  0
 36 31  2  0
 36 35  1  0
 37 36  1  0
 39 40  1  0
 40 43  1  0
 40 42  1  0
 41 39  2  0
 44 45  1  0
 46 44  1  0
 47  1  1  0
 48 47  1  0
 49 51  1  0
 49 48  1  0
 50 60  1  0
 50 61  2  0
 51 57  1  0
 52 62  1  0
 53 58  1  0
 53 59  1  0
 54 55  1  0
 54 60  1  0
 55 53  2  0
 56 51  2  0
 56 55  1  0
 57 58  2  0
 59 52  1  0
 60 52  1  0
 62 64  2  0
 62 63  1  0
 65 63  1  0
 66 75  1  0
 67 63  1  0
 67 71  1  0
 68 67  1  0
 68 69  1  0
 69 70  1  0
 70 66  1  0
 72 71  1  0
 72 73  1  0
 73 74  2  0
 74 75  1  0
 76 86  1  0
 76 50  1  0
 77 76  1  0
 77 80  1  0
 78 77  1  0
 79 78  2  0
 82 78  1  0
 82 81  1  0
 83 84  1  0
 84 85  1  0
 84 82  1  0
 86 87  1  1
 86 88  1  0
 89 86  1  0
M  ISO  4   3 100  18 100  48 101  49 101
M  END
>  <TORSDO>  (54) 
F 18

>  <SCORE>  (54) 
-5.791

>  <name>  (54) 
53

>  <ligand_id>  (54) 
53

>  <original_smiles>  (54) 
[H]c1c([H])c([H])c2c(c1[H])C([H])([H])C([H])([H])C([H])([H])C2([H])N([H])C(=O)C1([H])N(C(=O)C([H])(N([H])C(=O)C([H])(N([H])C([H])([H])[H])C([H])([H])[H])C(C([H])([H])[H])(C([H])([H])[H])C([H])([H])[H])C([H])([H])c2c([H])c(OC([H])([H])C([H])([H])C(=O)C3([H])N(C(=O)N4C([H])([H])C([H])([H])C([H])([H])C([H])(n5nc(-c6c([H])c([H])c(Oc7c([H])c([H])c(F)c([H])c7F)c([H])c6[H])c(C(=O)N([H])[H])c5N([H])[H])C4([H])[H])C([H])([H])C4([H])C([H])([H])C([H])([H])C([H])([H])C34[H])c([H])c([H])c2C1([H])[H]

>  <smiles>  (54) 
[H]c1c([H])c([H])c2c(c1[H])C([H])([H])C([H])([H])C([H])([H])C2([H])N([H])C(=O)C1([H])N(C(=O)C([H])(N([H])C(=O)C([H])(N([H])C([H])([H])[H])C([H])([H])[H])C(C([H])([H])[H])(C([H])([H])[H])C([H])([H])[H])C([H])([H])c2c([H])c(OC([H])([H])C([H])([H])C(=O)C3([H])N(C(=O)N4C([H])([H])C([H])([H])C([H])([H])C([H])(n5nc(-c6c([H])c([H])c(Oc7c([H])c([H])c(F)c([H])c7F)c([H])c6[H])c(C(=O)N([H])[H])c5N([H])[H])C4([H])[H])C([H])([H])C4([H])C([H])([H])C([H])([H])C([H])([H])C34[H])c([H])c([H])c2C1([H])[H]

$$$$
54:0:0
     RDKit          3D

 92101  0  0  1  0  0  0  0  0999 V2000
  -27.6690  -22.1090   21.2440 C   0  0  0  0  0  2  0  0  0  0  0  0
  -28.1420  -21.4940   19.9280 C   0  0  0  0  0  3  0  0  0  0  0  0
  -27.4790  -23.4520   20.5630 C   0  0  0  0  0  3  0  0  0  0  0  0
  -28.1200  -22.9020   19.2960 C   0  0  0  0  0  3  0  0  0  0  0  0
  -28.5840  -24.2400   19.9080 C   0  0  0  0  0  3  0  0  0  0  0  0
  -29.4050  -20.6290   19.9490 C   0  0  0  0  0  0  0  0  0  0  0  0
  -30.4930  -20.9180   19.4470 O   0  0  0  0  0  0  0  0  0  0  0  0
  -29.1740  -19.2440   20.6290 C   0  0  0  0  0  2  0  0  0  0  0  0
  -31.6880  -18.8110   21.1330 C   0  0  0  0  0  1  0  0  0  0  0  0
  -29.9160  -17.4790   22.2280 C   0  0  0  0  0  1  0  0  0  0  0  0
  -30.3060  -18.1660   20.8930 C   0  0  1  0  0  0  0  0  0  0  0  0
  -30.4230  -17.0940   19.7460 C   0  0  0  0  0  2  0  0  0  0  0  0
  -31.0820  -14.6290   19.8160 C   0  0  0  0  0  0  0  0  0  0  0  0
  -30.7510  -12.3860   18.8430 C   0  0  0  0  0  2  0  0  0  0  0  0
  -29.7580  -12.5370   17.6700 C   0  0  0  0  0  2  0  0  0  0  0  0
  -28.2990  -12.4540   18.1660 C   0  0  0  0  0  2  0  0  0  0  0  0
  -28.0300  -13.3550   19.4010 C   0  0  0  0  0  3  0  0  0  0  0  0
  -29.1320  -13.1690   20.4700 C   0  0  0  0  0  2  0  0  0  0  0  0
  -30.4330  -13.4310   19.8300 N   0  0  0  0  0  0  0  0  0  0  0  0
  -32.1940  -14.7820   19.3040 O   0  0  0  0  0  0  0  0  0  0  0  0
  -30.3220  -15.6800   20.1870 N   0  0  0  0  0  0  0  0  0  0  0  0
  -29.4520  -15.4300   20.6310 H   0  0  0  0  0  0  0  0  0  0  0  0
  -25.7000  -14.0530   20.2420 C   0  0  0  0  0  0  0  0  0  0  0  0
  -24.6220  -13.3210   20.6630 C   0  0  0  0  0  0  0  0  0  0  0  0
  -25.0250  -11.9520   20.5970 C   0  0  0  0  0  0  0  0  0  0  0  0
  -26.6940  -13.1310   19.9500 N   0  0  0  0  0  0  0  0  0  0  0  0
  -26.2930  -11.8620   20.2190 N   0  0  0  0  0  0  0  0  0  0  0  0
  -24.2580  -10.7190   20.8180 C   0  0  0  0  0  0  0  0  0  0  0  0
  -24.6550   -9.7650   21.7810 C   0  0  0  0  0  3  0  0  0  0  0  0
  -23.8920   -8.5950   21.9880 C   0  0  0  0  0  3  0  0  0  0  0  0
  -22.7170   -8.3730   21.2330 C   0  0  0  0  0  0  0  0  0  0  0  0
  -22.3380   -9.3150   20.2590 C   0  0  0  0  0  3  0  0  0  0  0  0
  -23.1020  -10.4750   20.0510 C   0  0  0  0  0  3  0  0  0  0  0  0
  -21.9270   -7.2540   21.3470 O   0  0  0  0  0  0  0  0  0  0  0  0
  -21.7890   -6.5900   22.5390 C   0  0  0  0  0  0  0  0  0  0  0  0
  -21.3080   -7.2340   23.7000 C   0  0  0  0  0  3  0  0  0  0  0  0
  -21.1160   -6.4970   24.8860 C   0  0  0  0  0  3  0  0  0  0  0  0
  -21.3930   -5.1170   24.9100 C   0  0  0  0  0  0  0  0  0  0  0  0
  -21.8670   -4.4730   23.7550 C   0  0  0  0  0  3  0  0  0  0  0  0
  -22.0620   -5.2070   22.5710 C   0  0  0  0  0  0  0  0  0  0  0  0
  -22.4970   -4.5770   21.4540 F   0  0  0  0  0  0  0  0  0  0  0  0
  -21.2020   -4.4070   26.0470 F   0  0  0  0  0  0  0  0  0  0  0  0
  -23.2620  -13.8530   21.0140 C   0  0  0  0  0  0  0  0  0  0  0  0
  -22.5640  -13.1920   21.9310 N   0  0  0  0  0  0  0  0  0  0  0  0
  -22.8320  -14.8900   20.5130 O   0  0  0  0  0  0  0  0  0  0  0  0
  -22.9260  -12.3520   22.3590 H   0  0  0  0  0  0  0  0  0  0  0  0
  -21.6530  -13.5300   22.2070 H   0  0  0  0  0  0  0  0  0  0  0  0
  -25.9120  -15.4170   20.0640 N   0  0  0  0  0  0  0  0  0  0  0  0
  -25.1790  -16.1000   20.2170 H   0  0  0  0  0  0  0  0  0  0  0  0
  -26.7550  -15.8210   19.6780 H   0  0  0  0  0  0  0  0  0  0  0  0
  -28.2970  -25.5750   19.1810 C   0  0  0  0  0  2  0  0  0  0  0  0
  -28.1820  -26.7590   20.0120 O   0  0  0  0  0  0  0  0  0  0  0  0
  -24.6250  -31.9260   23.4390 C   0  0  0  0  0  0  0  0  0  0  0  0
  -27.0170  -27.5160   20.0600 C   0  0  0  0  0  0  0  0  0  0  0  0
  -23.3190  -30.6350   21.7860 C   0  0  0  0  0  3  0  0  0  0  0  0
  -24.6710  -29.1210   20.2370 C   0  0  0  0  0  0  0  0  0  0  0  0
  -25.8490  -30.9180   21.5090 C   0  0  0  0  0  2  0  0  0  0  0  0
  -25.8680  -29.5720   20.8040 C   0  0  0  0  0  0  0  0  0  0  0  0
  -27.0390  -28.7770   20.7130 C   0  0  0  0  0  3  0  0  0  0  0  0
  -25.7880  -27.0840   19.5050 C   0  0  0  0  0  3  0  0  0  0  0  0
  -24.6300  -27.8770   19.5860 C   0  0  0  0  0  3  0  0  0  0  0  0
  -23.4570  -30.0140   20.3710 C   0  0  0  0  0  2  0  0  0  0  0  0
  -24.6190  -31.1720   22.3030 N   0  0  0  0  0  0  0  0  0  0  0  0
  -23.5730  -32.2080   24.0280 O   0  0  0  0  0  0  0  0  0  0  0  0
  -22.6720  -29.5900   22.7250 C   0  0  0  0  0  0  0  0  0  0  0  0
  -21.3520  -29.3900   22.5770 N   0  0  0  0  0  0  0  0  0  0  0  0
  -23.3550  -28.9650   23.5410 O   0  0  0  0  0  0  0  0  0  0  0  0
  -20.8620  -29.9540   21.8960 H   0  0  0  0  0  0  0  0  0  0  0  0
  -18.0130  -28.0460   22.9240 C   0  0  0  0  0  0  0  0  0  0  0  0
  -20.5390  -28.4260   23.3210 C   0  0  0  0  0  3  0  0  0  0  0  0
  -20.7340  -26.9910   22.7800 C   0  0  0  0  0  2  0  0  0  0  0  0
  -19.7030  -26.6010   21.7160 C   0  0  0  0  0  2  0  0  0  0  0  0
  -18.2840  -26.6930   22.2860 C   0  0  0  0  0  2  0  0  0  0  0  0
  -19.0720  -28.8660   23.3940 C   0  0  0  0  0  0  0  0  0  0  0  0
  -18.7670  -30.1290   23.9460 C   0  0  0  0  0  3  0  0  0  0  0  0
  -17.4330  -30.5720   24.0340 C   0  0  0  0  0  3  0  0  0  0  0  0
  -16.3880  -29.7500   23.5780 C   0  0  0  0  0  3  0  0  0  0  0  0
  -16.6790  -28.4880   23.0300 C   0  0  0  0  0  3  0  0  0  0  0  0
  -25.9510  -32.4890   24.0390 C   0  0  0  0  0  3  0  0  0  0  0  0
  -25.7030  -33.8840   24.4270 N   0  0  0  0  0  0  0  0  0  0  0  0
  -26.0540  -34.9510   23.6960 C   0  0  0  0  0  0  0  0  0  0  0  0
  -26.6940  -34.8610   22.6450 O   0  0  0  0  0  0  0  0  0  0  0  0
  -25.1340  -34.0300   25.2470 H   0  0  0  0  0  0  0  0  0  0  0  0
  -24.3810  -36.8140   23.4550 C   0  0  0  0  0  1  0  0  0  0  0  0
  -25.6300  -36.3390   24.2150 C   0  0  0  0  0  3  0  0  0  0  0  0
  -27.8180  -37.1180   25.0110 C   0  0  0  0  0  1  0  0  0  0  0  0
  -26.6950  -37.3590   24.1070 N   0  0  0  0  0  0  0  0  0  0  0  0
  -26.3270  -38.2870   24.3000 H   0  0  0  0  0  0  0  0  0  0  0  0
  -26.4820  -31.6540   25.2670 C   0  0  1  0  0  0  0  0  0  0  0  0
  -25.4120  -31.4020   26.3550 C   0  0  0  0  0  1  0  0  0  0  0  0
  -27.0200  -30.2800   24.8030 C   0  0  0  0  0  1  0  0  0  0  0  0
  -27.6690  -32.3940   25.9280 C   0  0  0  0  0  1  0  0  0  0  0  0
  2  6  1  0
  2  1  1  0
  3  1  1  0
  4  5  1  0
  4  2  1  0
  4  3  1  0
  5  3  1  0
  6  8  1  0
  7  6  2  0
  8 11  1  0
 11  9  1  1
 11 10  1  0
 12 21  1  0
 12 11  1  0
 13 19  1  0
 13 21  1  0
 14 19  1  0
 15 16  1  0
 15 14  1  0
 16 17  1  0
 17 26  1  0
 17 18  1  0
 19 18  1  0
 20 13  2  0
 21 22  1  0
 23 24  2  0
 24 43  1  0
 25 24  1  0
 25 28  1  0
 26 27  1  0
 26 23  1  0
 27 25  2  0
 28 29  1  0
 29 30  2  0
 31 34  1  0
 31 30  1  0
 32 31  2  0
 33 32  1  0
 33 28  2  0
 34 35  1  0
 35 40  2  0
 35 36  1  0
 36 37  2  0
 37 38  1  0
 38 42  1  0
 39 38  2  0
 40 39  1  0
 41 40  1  0
 43 44  1  0
 44 47  1  0
 44 46  1  0
 45 43  2  0
 48 49  1  0
 48 23  1  0
 50 48  1  0
 51  5  1  0
 51 52  1  0
 52 54  1  0
 53 64  2  0
 53 79  1  0
 54 59  1  0
 55 63  1  0
 55 65  1  0
 56 62  1  0
 56 58  1  0
 57 63  1  0
 58 57  1  0
 59 58  2  0
 60 61  1  0
 60 54  2  0
 61 56  2  0
 62 55  1  0
 63 53  1  0
 65 67  2  0
 66 65  1  0
 66 70  1  0
 68 66  1  0
 69 78  2  0
 69 74  1  0
 70 74  1  0
 71 70  1  0
 72 73  1  0
 72 71  1  0
 73 69  1  0
 74 75  2  0
 75 76  1  0
 77 76  2  0
 78 77  1  0
 79 80  1  0
 79 89  1  0
 80 83  1  0
 81 85  1  0
 81 80  1  0
 82 81  2  0
 84 85  1  0
 87 85  1  0
 87 88  1  0
 87 86  1  0
 89 92  1  1
 89 90  1  0
 91 89  1  0
M  ISO  4  13 100  21 100  51 101  52 101
M  END
>  <TORSDO>  (55) 
F 21

>  <SCORE>  (55) 
-12.650

>  <name>  (55) 
54

>  <ligand_id>  (55) 
54

>  <original_smiles>  (55) 
[H]c1c([H])c([H])c2c(c1[H])C([H])([H])C([H])([H])C([H])([H])C2([H])N([H])C(=O)C1([H])N(C(=O)C([H])(N([H])C(=O)C([H])(N([H])C([H])([H])[H])C([H])([H])[H])C(C([H])([H])[H])(C([H])([H])[H])C([H])([H])[H])C([H])([H])c2c([H])c(OC([H])([H])C3([H])C4([H])C([H])([H])C([H])(C(=O)C([H])([H])C(C([H])([H])[H])(C([H])([H])[H])C([H])([H])N([H])C(=O)N5C([H])([H])C([H])([H])C([H])([H])C([H])(n6nc(-c7c([H])c([H])c(Oc8c([H])c([H])c(F)c([H])c8F)c([H])c7[H])c(C(=O)N([H])[H])c6N([H])[H])C5([H])[H])C34[H])c([H])c([H])c2C1([H])[H]

>  <smiles>  (55) 
[H]c1c([H])c([H])c2c(c1[H])C([H])([H])C([H])([H])C([H])([H])C2([H])N([H])C(=O)C1([H])N(C(=O)C([H])(N([H])C(=O)C([H])(N([H])C([H])([H])[H])C([H])([H])[H])C(C([H])([H])[H])(C([H])([H])[H])C([H])([H])[H])C([H])([H])c2c([H])c(OC([H])([H])C3([H])C4([H])C([H])([H])C([H])(C(=O)C([H])([H])C(C([H])([H])[H])(C([H])([H])[H])C([H])([H])N([H])C(=O)N5C([H])([H])C([H])([H])C([H])([H])C([H])(n6nc(-c7c([H])c([H])c(Oc8c([H])c([H])c(F)c([H])c8F)c([H])c7[H])c(C(=O)N([H])[H])c6N([H])[H])C5([H])[H])C34[H])c([H])c([H])c2C1([H])[H]

$$$$
55:0:0
     RDKit          3D

 91 99  0  0  1  0  0  0  0  0999 V2000
  -28.3340  -20.8120   20.5260 C   0  0  0  0  0  3  0  0  0  0  0  0
  -28.1580  -19.5540   21.1300 C   0  0  0  0  0  3  0  0  0  0  0  0
  -29.8820  -19.7910   18.9690 C   0  0  0  0  0  3  0  0  0  0  0  0
  -29.2260  -20.9870   19.4540 C   0  0  0  0  0  0  0  0  0  0  0  0
  -28.8360  -18.3990   20.6790 C   0  0  0  0  0  0  0  0  0  0  0  0
  -29.6960  -18.4710   19.5470 C   0  0  0  0  0  0  0  0  0  0  0  0
  -28.6090  -17.1190   21.4650 C   0  0  0  0  0  1  0  0  0  0  0  0
  -29.2950  -22.4080   18.7570 C   0  0  0  0  0  2  0  0  0  0  0  0
  -29.4360  -23.6900   21.0750 C   0  0  0  0  0  1  0  0  0  0  0  0
  -29.3990  -23.8240   19.5410 C   0  0  0  0  0  3  0  0  0  0  0  0
  -28.3380  -24.9470   19.1140 C   0  0  0  0  0  2  0  0  0  0  0  0
  -28.4970  -26.3840   19.4850 O   0  0  0  0  0  0  0  0  0  0  0  0
  -24.6430  -31.3940   22.9960 C   0  0  0  0  0  0  0  0  0  0  0  0
  -27.3420  -27.1920   19.5220 C   0  0  0  0  0  0  0  0  0  0  0  0
  -23.4320  -30.0030   21.3570 C   0  0  0  0  0  3  0  0  0  0  0  0
  -24.8860  -28.6520   19.7480 C   0  0  0  0  0  0  0  0  0  0  0  0
  -25.9300  -30.5080   21.0410 C   0  0  0  0  0  2  0  0  0  0  0  0
  -26.0580  -29.1770   20.3080 C   0  0  0  0  0  0  0  0  0  0  0  0
  -27.2870  -28.4580   20.1890 C   0  0  0  0  0  3  0  0  0  0  0  0
  -26.1440  -26.7440   18.9160 C   0  0  0  0  0  3  0  0  0  0  0  0
  -24.9330  -27.4440   19.0390 C   0  0  0  0  0  3  0  0  0  0  0  0
  -23.5990  -29.4290   19.9270 C   0  0  0  0  0  2  0  0  0  0  0  0
  -24.6890  -30.6510   21.8520 N   0  0  0  0  0  0  0  0  0  0  0  0
  -23.5790  -31.5650   23.6100 O   0  0  0  0  0  0  0  0  0  0  0  0
  -22.9080  -28.8870   22.2940 C   0  0  0  0  0  0  0  0  0  0  0  0
  -21.6160  -28.5420   22.1620 N   0  0  0  0  0  0  0  0  0  0  0  0
  -23.6630  -28.3380   23.1010 O   0  0  0  0  0  0  0  0  0  0  0  0
  -21.0570  -29.0490   21.4900 H   0  0  0  0  0  0  0  0  0  0  0  0
  -18.4490  -26.8340   22.5490 C   0  0  0  0  0  0  0  0  0  0  0  0
  -20.9250  -27.4890   22.9090 C   0  0  0  0  0  3  0  0  0  0  0  0
  -21.2710  -26.0910   22.3440 C   0  0  0  0  0  2  0  0  0  0  0  0
  -20.2650  -25.5960   21.2990 C   0  0  0  0  0  2  0  0  0  0  0  0
  -18.8590  -25.5240   21.9010 C   0  0  0  0  0  2  0  0  0  0  0  0
  -19.4190  -27.7630   23.0100 C   0  0  0  0  0  0  0  0  0  0  0  0
  -18.9850  -28.9810   23.5770 C   0  0  0  0  0  3  0  0  0  0  0  0
  -17.6120  -29.2730   23.6910 C   0  0  0  0  0  3  0  0  0  0  0  0
  -16.6560  -28.3440   23.2470 C   0  0  0  0  0  3  0  0  0  0  0  0
  -17.0760  -27.1270   22.6800 C   0  0  0  0  0  3  0  0  0  0  0  0
  -25.9160  -32.0860   23.5720 C   0  0  0  0  0  3  0  0  0  0  0  0
  -26.5300  -31.3220   24.8090 C   0  0  1  0  0  0  0  0  0  0  0  0
  -25.4980  -30.9920   25.9110 C   0  0  0  0  0  1  0  0  0  0  0  0
  -27.1840  -29.9920   24.3670 C   0  0  0  0  0  1  0  0  0  0  0  0
  -27.6530  -32.1750   25.4460 C   0  0  0  0  0  1  0  0  0  0  0  0
  -25.5480  -33.4600   23.9430 N   0  0  0  0  0  0  0  0  0  0  0  0
  -25.7890  -34.5420   23.1910 C   0  0  0  0  0  0  0  0  0  0  0  0
  -26.4130  -34.4920   22.1280 O   0  0  0  0  0  0  0  0  0  0  0  0
  -24.9890  -33.5700   24.7770 H   0  0  0  0  0  0  0  0  0  0  0  0
  -23.9540  -36.2460   22.9480 C   0  0  0  0  0  1  0  0  0  0  0  0
  -25.2500  -35.8940   23.6970 C   0  0  0  0  0  3  0  0  0  0  0  0
  -27.3630  -36.8820   24.4630 C   0  0  0  0  0  1  0  0  0  0  0  0
  -26.2200  -37.0020   23.5620 N   0  0  0  0  0  0  0  0  0  0  0  0
  -25.7700  -37.8970   23.7380 H   0  0  0  0  0  0  0  0  0  0  0  0
  -30.4560  -17.1980   18.9760 C   0  0  0  0  0  2  0  0  0  0  0  0
  -30.8420  -14.6440   19.2040 C   0  0  0  0  0  0  0  0  0  0  0  0
  -30.5300  -12.2970   18.4530 C   0  0  0  0  0  2  0  0  0  0  0  0
  -29.4480  -12.2750   17.3530 C   0  0  0  0  0  2  0  0  0  0  0  0
  -28.0450  -12.1450   17.9800 C   0  0  0  0  0  2  0  0  0  0  0  0
  -27.8160  -13.1360   19.1520 C   0  0  0  0  0  3  0  0  0  0  0  0
  -29.0100  -13.1530   20.1320 C   0  0  0  0  0  2  0  0  0  0  0  0
  -30.2220  -13.4290   19.3490 N   0  0  0  0  0  0  0  0  0  0  0  0
  -31.9790  -14.7190   18.7330 O   0  0  0  0  0  0  0  0  0  0  0  0
  -30.0820  -15.7780   19.3580 N   0  0  0  0  0  0  0  0  0  0  0  0
  -29.1340  -15.6390   19.6690 H   0  0  0  0  0  0  0  0  0  0  0  0
  -25.5850  -13.7900   20.2420 C   0  0  0  0  0  0  0  0  0  0  0  0
  -24.5590  -13.0430   20.7550 C   0  0  0  0  0  0  0  0  0  0  0  0
  -24.9600  -11.6790   20.6240 C   0  0  0  0  0  0  0  0  0  0  0  0
  -26.5490  -12.8830   19.8350 N   0  0  0  0  0  0  0  0  0  0  0  0
  -26.1890  -11.6050   20.1260 N   0  0  0  0  0  0  0  0  0  0  0  0
  -24.2200  -10.4380   20.8900 C   0  0  0  0  0  0  0  0  0  0  0  0
  -24.6480   -9.5210   21.8750 C   0  0  0  0  0  3  0  0  0  0  0  0
  -23.9080   -8.3450   22.1270 C   0  0  0  0  0  3  0  0  0  0  0  0
  -22.7270   -8.0780   21.3940 C   0  0  0  0  0  0  0  0  0  0  0  0
  -22.3190   -8.9820   20.3980 C   0  0  0  0  0  3  0  0  0  0  0  0
  -23.0580  -10.1500   20.1450 C   0  0  0  0  0  3  0  0  0  0  0  0
  -21.9610   -6.9480   21.5530 O   0  0  0  0  0  0  0  0  0  0  0  0
  -21.7690   -6.3750   22.7850 C   0  0  0  0  0  0  0  0  0  0  0  0
  -21.1960   -7.0910   23.8590 C   0  0  0  0  0  3  0  0  0  0  0  0
  -20.9530   -6.4440   25.0870 C   0  0  0  0  0  3  0  0  0  0  0  0
  -21.2740   -5.0820   25.2400 C   0  0  0  0  0  0  0  0  0  0  0  0
  -21.8390   -4.3650   24.1700 C   0  0  0  0  0  3  0  0  0  0  0  0
  -22.0840   -5.0110   22.9460 C   0  0  0  0  0  0  0  0  0  0  0  0
  -22.6100   -4.3110   21.9120 F   0  0  0  0  0  0  0  0  0  0  0  0
  -21.0340   -4.4570   26.4170 F   0  0  0  0  0  0  0  0  0  0  0  0
  -23.2360  -13.5630   21.2400 C   0  0  0  0  0  0  0  0  0  0  0  0
  -22.6350  -12.8940   22.2180 N   0  0  0  0  0  0  0  0  0  0  0  0
  -22.7480  -14.5960   20.7840 O   0  0  0  0  0  0  0  0  0  0  0  0
  -23.0450  -12.0580   22.6090 H   0  0  0  0  0  0  0  0  0  0  0  0
  -21.7530  -13.2240   22.5820 H   0  0  0  0  0  0  0  0  0  0  0  0
  -25.7650  -15.1580   20.0610 N   0  0  0  0  0  0  0  0  0  0  0  0
  -25.0240  -15.8170   20.2750 H   0  0  0  0  0  0  0  0  0  0  0  0
  -26.5240  -15.5750   19.5390 H   0  0  0  0  0  0  0  0  0  0  0  0
  1  2  1  0
  3  4  1  0
  3  6  2  0
  4  1  2  0
  5  2  2  0
  5  7  1  0
  6  5  1  0
  8  4  1  0
  8 10  1  0
 10  9  1  0
 11 12  1  0
 11 10  1  0
 12 14  1  0
 13 24  2  0
 14 19  1  0
 15 23  1  0
 15 25  1  0
 16 22  1  0
 16 18  1  0
 17 23  1  0
 18 17  1  0
 19 18  2  0
 20 21  1  0
 20 14  2  0
 21 16  2  0
 22 15  1  0
 23 13  1  0
 25 27  2  0
 26 25  1  0
 28 26  1  0
 29 38  2  0
 29 34  1  0
 30 26  1  0
 30 34  1  0
 31 30  1  0
 32 33  1  0
 32 31  1  0
 33 29  1  0
 34 35  2  0
 35 36  1  0
 37 36  2  0
 38 37  1  0
 39 13  1  0
 39 44  1  0
 39 40  1  0
 40 43  1  1
 40 41  1  0
 42 40  1  0
 44 47  1  0
 45 49  1  0
 45 44  1  0
 46 45  2  0
 49 48  1  0
 51 49  1  0
 51 52  1  0
 51 50  1  0
 53 62  1  0
 53  6  1  0
 54 60  1  0
 54 62  1  0
 55 60  1  0
 56 57  1  0
 56 55  1  0
 58 57  1  0
 58 67  1  0
 58 59  1  0
 60 59  1  0
 61 54  2  0
 62 63  1  0
 64 65  2  0
 65 84  1  0
 66 65  1  0
 66 69  1  0
 67 68  1  0
 67 64  1  0
 68 66  2  0
 69 70  1  0
 70 71  2  0
 72 75  1  0
 72 71  1  0
 73 72  2  0
 74 73  1  0
 74 69  2  0
 75 76  1  0
 76 81  2  0
 76 77  1  0
 77 78  2  0
 78 79  1  0
 79 83  1  0
 80 79  2  0
 81 80  1  0
 82 81  1  0
 84 85  1  0
 85 88  1  0
 85 87  1  0
 86 84  2  0
 89 64  1  0
 89 90  1  0
 91 89  1  0
M  ISO  4  11 101  12 101  54 100  62 100
M  END
>  <TORSDO>  (56) 
F 20

>  <SCORE>  (56) 
-9.751

>  <name>  (56) 
55

>  <ligand_id>  (56) 
55

>  <original_smiles>  (56) 
[H]c1c([H])c([H])c2c(c1[H])C([H])([H])C([H])([H])C([H])([H])C2([H])N([H])C(=O)C1([H])N(C(=O)C([H])(N([H])C(=O)C([H])(N([H])C([H])([H])[H])C([H])([H])[H])C(C([H])([H])[H])(C([H])([H])[H])C([H])([H])[H])C([H])([H])c2c([H])c(OC([H])([H])C([H])(C([H])([H])[H])C([H])([H])c3c([H])c([H])c(C([H])([H])[H])c(C([H])([H])N([H])C(=O)N4C([H])([H])C([H])([H])C([H])([H])C([H])(n5nc(-c6c([H])c([H])c(Oc7c([H])c([H])c(F)c([H])c7F)c([H])c6[H])c(C(=O)N([H])[H])c5N([H])[H])C4([H])[H])c3[H])c([H])c([H])c2C1([H])[H]

>  <smiles>  (56) 
[H]c1c([H])c([H])c2c(c1[H])C([H])([H])C([H])([H])C([H])([H])C2([H])N([H])C(=O)C1([H])N(C(=O)C([H])(N([H])C(=O)C([H])(N([H])C([H])([H])[H])C([H])([H])[H])C(C([H])([H])[H])(C([H])([H])[H])C([H])([H])[H])C([H])([H])c2c([H])c(OC([H])([H])C([H])(C([H])([H])[H])C([H])([H])c3c([H])c([H])c(C([H])([H])[H])c(C([H])([H])N([H])C(=O)N4C([H])([H])C([H])([H])C([H])([H])C([H])(n5nc(-c6c([H])c([H])c(Oc7c([H])c([H])c(F)c([H])c7F)c([H])c6[H])c(C(=O)N([H])[H])c5N([H])[H])C4([H])[H])c3[H])c([H])c([H])c2C1([H])[H]

$$$$
56:0:0
     RDKit          3D

 89 99  0  0  1  0  0  0  0  0999 V2000
  -30.2730  -20.7110   21.3160 C   0  0  0  0  0  2  0  0  0  0  0  0
  -28.5530  -18.8610   21.3240 C   0  0  0  0  0  2  0  0  0  0  0  0
  -29.0260  -21.2340   20.5390 C   0  0  0  0  0  3  0  0  0  0  0  0
  -30.0760  -19.1210   21.3660 C   0  0  2  0  0  0  0  0  0  0  0  0
  -28.8330  -19.5930   19.9980 C   0  0  2  0  0  0  0  0  0  0  0  0
  -30.0450  -18.3250   19.9990 C   0  0  1  0  0  0  0  0  0  0  0  0
  -31.1750  -18.5440   19.0020 C   0  0  0  0  0  1  0  0  0  0  0  0
  -30.5840  -15.3650   19.9210 C   0  0  0  0  0  0  0  0  0  0  0  0
  -30.4800  -12.9460   18.9750 C   0  0  0  0  0  2  0  0  0  0  0  0
  -29.4740  -12.7890   17.8070 C   0  0  0  0  0  2  0  0  0  0  0  0
  -28.0610  -12.5020   18.3420 C   0  0  0  0  0  2  0  0  0  0  0  0
  -27.6930  -13.4230   19.5330 C   0  0  0  0  0  3  0  0  0  0  0  0
  -28.8200  -13.5480   20.5810 C   0  0  0  0  0  2  0  0  0  0  0  0
  -30.0050  -14.0630   19.8750 N   0  0  0  0  0  0  0  0  0  0  0  0
  -31.7860  -15.3590   19.6100 O   0  0  0  0  0  0  0  0  0  0  0  0
  -29.8380  -16.6420   20.1070 N   0  0  0  0  0  0  0  0  0  0  0  0
  -28.8770  -16.4160   20.3150 H   0  0  0  0  0  0  0  0  0  0  0  0
  -25.3800  -13.9380   20.4700 C   0  0  0  0  0  0  0  0  0  0  0  0
  -24.3470  -13.1440   20.8800 C   0  0  0  0  0  0  0  0  0  0  0  0
  -24.8140  -11.7970   20.7710 C   0  0  0  0  0  0  0  0  0  0  0  0
  -26.4060  -13.0790   20.1230 N   0  0  0  0  0  0  0  0  0  0  0  0
  -26.0820  -11.7800   20.3700 N   0  0  0  0  0  0  0  0  0  0  0  0
  -24.1000  -10.5270   20.9590 C   0  0  0  0  0  0  0  0  0  0  0  0
  -24.5440   -9.5560   21.8830 C   0  0  0  0  0  3  0  0  0  0  0  0
  -23.8230   -8.3560   22.0610 C   0  0  0  0  0  3  0  0  0  0  0  0
  -22.6460   -8.1170   21.3140 C   0  0  0  0  0  0  0  0  0  0  0  0
  -22.2210   -9.0770   20.3770 C   0  0  0  0  0  3  0  0  0  0  0  0
  -22.9430  -10.2680   20.1960 C   0  0  0  0  0  3  0  0  0  0  0  0
  -21.8950   -6.9690   21.4050 O   0  0  0  0  0  0  0  0  0  0  0  0
  -21.7980   -6.2630   22.5780 C   0  0  0  0  0  0  0  0  0  0  0  0
  -21.2880   -6.8460   23.7580 C   0  0  0  0  0  3  0  0  0  0  0  0
  -21.1380   -6.0670   24.9220 C   0  0  0  0  0  3  0  0  0  0  0  0
  -21.4880   -4.7030   24.9060 C   0  0  0  0  0  0  0  0  0  0  0  0
  -21.9930   -4.1190   23.7320 C   0  0  0  0  0  3  0  0  0  0  0  0
  -22.1430   -4.8960   22.5690 C   0  0  0  0  0  0  0  0  0  0  0  0
  -22.6080   -4.3210   21.4340 F   0  0  0  0  0  0  0  0  0  0  0  0
  -21.3400   -3.9520   26.0230 F   0  0  0  0  0  0  0  0  0  0  0  0
  -22.9700  -13.6070   21.2550 C   0  0  0  0  0  0  0  0  0  0  0  0
  -22.3030  -12.8840   22.1450 N   0  0  0  0  0  0  0  0  0  0  0  0
  -22.5000  -14.6490   20.7980 O   0  0  0  0  0  0  0  0  0  0  0  0
  -22.6970  -12.0390   22.5330 H   0  0  0  0  0  0  0  0  0  0  0  0
  -21.3810  -13.1750   22.4400 H   0  0  0  0  0  0  0  0  0  0  0  0
  -25.5240  -15.3160   20.3290 N   0  0  0  0  0  0  0  0  0  0  0  0
  -24.7620  -15.9580   20.5170 H   0  0  0  0  0  0  0  0  0  0  0  0
  -26.3260  -15.7720   19.9150 H   0  0  0  0  0  0  0  0  0  0  0  0
  -29.0050  -22.8800   19.9030 C   0  0  0  0  0  0  0  0  0  0  0  0
  -29.7850  -23.0710   18.9630 O   0  0  0  0  0  0  0  0  0  0  0  0
  -28.0720  -24.2910   20.3820 C   0  0  0  0  0  2  0  0  0  0  0  0
  -28.3100  -25.9020   20.0760 O   0  0  0  0  0  0  0  0  0  0  0  0
  -24.6580  -31.8280   23.0830 C   0  0  0  0  0  0  0  0  0  0  0  0
  -27.2780  -26.9850   20.0710 C   0  0  0  0  0  0  0  0  0  0  0  0
  -23.4840  -30.4260   21.4350 C   0  0  0  0  0  3  0  0  0  0  0  0
  -24.9560  -28.8410   20.0160 C   0  0  0  0  0  0  0  0  0  0  0  0
  -26.0480  -30.6690   21.2940 C   0  0  0  0  0  2  0  0  0  0  0  0
  -26.1380  -29.2590   20.6400 C   0  0  0  0  0  0  0  0  0  0  0  0
  -27.2940  -28.3540   20.6400 C   0  0  0  0  0  3  0  0  0  0  0  0
  -26.0610  -26.7190   19.4040 C   0  0  0  0  0  3  0  0  0  0  0  0
  -24.9400  -27.5890   19.3790 C   0  0  0  0  0  3  0  0  0  0  0  0
  -23.7270  -29.7500   20.0570 C   0  0  0  0  0  2  0  0  0  0  0  0
  -24.7520  -31.0030   21.9910 N   0  0  0  0  0  0  0  0  0  0  0  0
  -23.5640  -32.1020   23.6020 O   0  0  0  0  0  0  0  0  0  0  0  0
  -22.8010  -29.4160   22.3950 C   0  0  0  0  0  0  0  0  0  0  0  0
  -21.4700  -29.2530   22.2820 N   0  0  0  0  0  0  0  0  0  0  0  0
  -23.4750  -28.7800   23.2100 O   0  0  0  0  0  0  0  0  0  0  0  0
  -20.9780  -29.8170   21.6010 H   0  0  0  0  0  0  0  0  0  0  0  0
  -18.0860  -28.0610   22.8310 C   0  0  0  0  0  0  0  0  0  0  0  0
  -20.6530  -28.3050   23.0500 C   0  0  0  0  0  3  0  0  0  0  0  0
  -20.7350  -26.8850   22.4420 C   0  0  0  0  0  2  0  0  0  0  0  0
  -19.6100  -26.5910   21.4450 C   0  0  0  0  0  2  0  0  0  0  0  0
  -18.2420  -26.7270   22.1200 C   0  0  0  0  0  2  0  0  0  0  0  0
  -19.2180  -28.8080   23.2530 C   0  0  0  0  0  0  0  0  0  0  0  0
  -19.0160  -30.0560   23.8840 C   0  0  0  0  0  3  0  0  0  0  0  0
  -17.7160  -30.5540   24.0930 C   0  0  0  0  0  3  0  0  0  0  0  0
  -16.6000  -29.8030   23.6850 C   0  0  0  0  0  3  0  0  0  0  0  0
  -16.7870  -28.5580   23.0590 C   0  0  0  0  0  3  0  0  0  0  0  0
  -25.9190  -32.4850   23.7210 C   0  0  0  0  0  3  0  0  0  0  0  0
  -25.5790  -33.8730   24.0750 N   0  0  0  0  0  0  0  0  0  0  0  0
  -25.8980  -34.9520   23.3460 C   0  0  0  0  0  0  0  0  0  0  0  0
  -26.5710  -34.8810   22.3150 O   0  0  0  0  0  0  0  0  0  0  0  0
  -24.9780  -34.0000   24.8780 H   0  0  0  0  0  0  0  0  0  0  0  0
  -24.1510  -36.7390   23.0290 C   0  0  0  0  0  1  0  0  0  0  0  0
  -25.3930  -36.3250   23.8360 C   0  0  0  0  0  3  0  0  0  0  0  0
  -27.5110  -37.2180   24.7040 C   0  0  0  0  0  1  0  0  0  0  0  0
  -26.4150  -37.3920   23.7540 N   0  0  0  0  0  0  0  0  0  0  0  0
  -25.9970  -38.3050   23.9170 H   0  0  0  0  0  0  0  0  0  0  0  0
  -26.4380  -31.7120   24.9980 C   0  0  1  0  0  0  0  0  0  0  0  0
  -25.3410  -31.4490   26.0580 C   0  0  0  0  0  1  0  0  0  0  0  0
  -27.0460  -30.3460   24.6070 C   0  0  0  0  0  1  0  0  0  0  0  0
  -27.5710  -32.5190   25.6730 C   0  0  0  0  0  1  0  0  0  0  0  0
  4  2  1  1
  3 46  1  0
  3  1  1  0
  4  1  1  0
  5  6  1  0
  5  3  1  0
  5  2  1  6
  5  4  1  0
  6  7  1  6
  6 16  1  0
  6  4  1  0
  8 16  1  0
  9 14  1  0
 10 11  1  0
 10  9  1  0
 12 11  1  0
 12 21  1  0
 12 13  1  0
 14  8  1  0
 14 13  1  0
 15  8  2  0
 16 17  1  0
 18 19  2  0
 19 38  1  0
 20 19  1  0
 20 23  1  0
 21 22  1  0
 21 18  1  0
 22 20  2  0
 23 24  1  0
 24 25  2  0
 26 29  1  0
 26 25  1  0
 27 26  2  0
 28 27  1  0
 28 23  2  0
 29 30  1  0
 30 31  1  0
 31 32  2  0
 33 32  1  0
 33 37  1  0
 34 33  2  0
 35 30  2  0
 35 34  1  0
 36 35  1  0
 38 39  1  0
 39 42  1  0
 39 41  1  0
 40 38  2  0
 43 18  1  0
 43 44  1  0
 45 43  1  0
 46 48  1  0
 47 46  2  0
 49 48  1  0
 50 61  2  0
 51 49  1  0
 51 56  1  0
 52 60  1  0
 52 62  1  0
 53 59  1  0
 53 55  1  0
 54 60  1  0
 55 54  1  0
 56 55  2  0
 57 51  2  0
 58 57  1  0
 58 53  2  0
 59 52  1  0
 60 50  1  0
 62 64  2  0
 63 62  1  0
 65 63  1  0
 66 75  2  0
 66 71  1  0
 67 63  1  0
 67 71  1  0
 68 67  1  0
 69 70  1  0
 69 68  1  0
 70 66  1  0
 71 72  2  0
 72 73  1  0
 74 73  2  0
 75 74  1  0
 76 50  1  0
 76 77  1  0
 76 86  1  0
 77 80  1  0
 78 82  1  0
 78 77  1  0
 79 78  2  0
 82 81  1  0
 84 82  1  0
 84 85  1  0
 84 83  1  0
 86 89  1  1
 86 87  1  0
 88 86  1  0
M  ISO  4   8 100  16 100  48 101  49 101
M  END
>  <TORSDO>  (57) 
F 18

>  <SCORE>  (57) 
-15.449

>  <name>  (57) 
56

>  <ligand_id>  (57) 
56

>  <original_smiles>  (57) 
[H]c1c([H])c([H])c2c(c1[H])C([H])([H])C([H])([H])C([H])([H])C2([H])N([H])C(=O)C1([H])N(C(=O)C([H])(N([H])C(=O)C([H])(N([H])C([H])([H])[H])C([H])([H])[H])C(C([H])([H])[H])(C([H])([H])[H])C([H])([H])[H])C([H])([H])c2c([H])c(OC([H])([H])C(=O)C3([H])C([H])([H])C4([H])C([H])([H])C3([H])C4(N([H])C(=O)N3C([H])([H])C([H])([H])C([H])([H])C([H])(n4nc(-c5c([H])c([H])c(Oc6c([H])c([H])c(F)c([H])c6F)c([H])c5[H])c(C(=O)N([H])[H])c4N([H])[H])C3([H])[H])C([H])([H])[H])c([H])c([H])c2C1([H])[H]

>  <smiles>  (57) 
[H]c1c([H])c([H])c2c(c1[H])C([H])([H])C([H])([H])C([H])([H])C2([H])N([H])C(=O)C1([H])N(C(=O)C([H])(N([H])C(=O)C([H])(N([H])C([H])([H])[H])C([H])([H])[H])C(C([H])([H])[H])(C([H])([H])[H])C([H])([H])[H])C([H])([H])c2c([H])c(OC([H])([H])C(=O)C3([H])C([H])([H])C4([H])C([H])([H])C3([H])C4(N([H])C(=O)N3C([H])([H])C([H])([H])C([H])([H])C([H])(n4nc(-c5c([H])c([H])c(Oc6c([H])c([H])c(F)c([H])c6F)c([H])c5[H])c(C(=O)N([H])[H])c4N([H])[H])C3([H])[H])C([H])([H])[H])c([H])c([H])c2C1([H])[H]

$$$$
57:0:0
     RDKit          3D

 89 98  0  0  1  0  0  0  0  0999 V2000
  -29.1140  -21.9720   22.1600 C   0  0  0  0  0  1  0  0  0  0  0  0
  -28.9650  -21.9460   20.6320 C   0  0  0  0  0  3  0  0  0  0  0  0
  -27.5380  -19.2800   19.2540 C   0  0  0  0  0  2  0  0  0  0  0  0
  -28.0100  -18.5090   20.4800 C   0  0  0  0  0  2  0  0  0  0  0  0
  -28.9580  -19.7610   19.0200 C   0  0  0  0  0  3  0  0  0  0  0  0
  -29.7250  -20.5900   20.0470 C   0  0  0  0  0  3  0  0  0  0  0  0
  -29.4320  -18.9540   20.1990 C   0  0  1  0  0  0  0  0  0  0  0  0
  -30.4360  -17.6530   20.0090 C   0  0  0  0  0  2  0  0  0  0  0  0
  -30.8510  -14.9700   20.0100 C   0  0  0  0  0  0  0  0  0  0  0  0
  -30.6670  -12.6390   19.0620 C   0  0  0  0  0  2  0  0  0  0  0  0
  -29.7130  -12.6620   17.8470 C   0  0  0  0  0  2  0  0  0  0  0  0
  -28.2490  -12.4930   18.2980 C   0  0  0  0  0  2  0  0  0  0  0  0
  -27.8930  -13.3890   19.5140 C   0  0  0  0  0  3  0  0  0  0  0  0
  -28.9740  -13.3430   20.6150 C   0  0  0  0  0  2  0  0  0  0  0  0
  -30.2420  -13.7230   19.9870 N   0  0  0  0  0  0  0  0  0  0  0  0
  -32.0340  -15.0440   19.6620 O   0  0  0  0  0  0  0  0  0  0  0  0
  -30.0870  -16.1370   20.2140 N   0  0  0  0  0  0  0  0  0  0  0  0
  -29.1250  -15.9560   20.4590 H   0  0  0  0  0  0  0  0  0  0  0  0
  -25.5340  -13.9900   20.3090 C   0  0  0  0  0  0  0  0  0  0  0  0
  -24.4740  -13.2240   20.7060 C   0  0  0  0  0  0  0  0  0  0  0  0
  -24.9230  -11.8680   20.6560 C   0  0  0  0  0  0  0  0  0  0  0  0
  -26.5640  -13.1020   20.0390 N   0  0  0  0  0  0  0  0  0  0  0  0
  -26.2040  -11.8220   20.3090 N   0  0  0  0  0  0  0  0  0  0  0  0
  -24.1860  -10.6140   20.8570 C   0  0  0  0  0  0  0  0  0  0  0  0
  -24.5820   -9.6730   21.8330 C   0  0  0  0  0  3  0  0  0  0  0  0
  -23.8490   -8.4830   22.0230 C   0  0  0  0  0  3  0  0  0  0  0  0
  -22.6990   -8.2270   21.2370 C   0  0  0  0  0  0  0  0  0  0  0  0
  -22.3200   -9.1560   20.2520 C   0  0  0  0  0  3  0  0  0  0  0  0
  -23.0550  -10.3370   20.0600 C   0  0  0  0  0  3  0  0  0  0  0  0
  -21.9340   -7.0910   21.3390 O   0  0  0  0  0  0  0  0  0  0  0  0
  -21.7760   -6.4320   22.5310 C   0  0  0  0  0  0  0  0  0  0  0  0
  -21.2430   -7.0720   23.6710 C   0  0  0  0  0  3  0  0  0  0  0  0
  -21.0310   -6.3380   24.8570 C   0  0  0  0  0  3  0  0  0  0  0  0
  -21.3410   -4.9670   24.9000 C   0  0  0  0  0  0  0  0  0  0  0  0
  -21.8670   -4.3250   23.7640 C   0  0  0  0  0  3  0  0  0  0  0  0
  -22.0810   -5.0560   22.5830 C   0  0  0  0  0  0  0  0  0  0  0  0
  -22.5660   -4.4280   21.4840 F   0  0  0  0  0  0  0  0  0  0  0  0
  -21.1320   -4.2600   26.0360 F   0  0  0  0  0  0  0  0  0  0  0  0
  -23.0890  -13.7140   21.0130 C   0  0  0  0  0  0  0  0  0  0  0  0
  -22.3780  -13.0350   21.9060 N   0  0  0  0  0  0  0  0  0  0  0  0
  -22.6490  -14.7380   20.4930 O   0  0  0  0  0  0  0  0  0  0  0  0
  -22.7430  -12.2030   22.3490 H   0  0  0  0  0  0  0  0  0  0  0  0
  -21.4500  -13.3520   22.1500 H   0  0  0  0  0  0  0  0  0  0  0  0
  -25.7040  -15.3600   20.1320 N   0  0  0  0  0  0  0  0  0  0  0  0
  -24.9380  -16.0100   20.2690 H   0  0  0  0  0  0  0  0  0  0  0  0
  -26.5340  -15.8000   19.7550 H   0  0  0  0  0  0  0  0  0  0  0  0
  -29.2300  -23.5030   20.0630 C   0  0  0  0  0  3  0  0  0  0  0  0
  -28.2900  -24.8230   20.4830 C   0  0  0  0  0  3  0  0  0  0  0  0
  -28.5070  -26.3150   20.1300 O   0  0  0  0  0  0  0  0  0  0  0  0
  -24.5770  -31.7580   23.1210 C   0  0  0  0  0  0  0  0  0  0  0  0
  -27.4030  -27.2280   20.0930 C   0  0  0  0  0  0  0  0  0  0  0  0
  -23.4640  -30.3310   21.4450 C   0  0  0  0  0  3  0  0  0  0  0  0
  -25.0020  -28.8420   20.0310 C   0  0  0  0  0  0  0  0  0  0  0  0
  -26.0020  -30.7210   21.3230 C   0  0  0  0  0  2  0  0  0  0  0  0
  -26.1480  -29.3430   20.6610 C   0  0  0  0  0  0  0  0  0  0  0  0
  -27.3540  -28.5520   20.6740 C   0  0  0  0  0  3  0  0  0  0  0  0
  -26.2350  -26.8210   19.4160 C   0  0  0  0  0  3  0  0  0  0  0  0
  -25.0550  -27.5940   19.3920 C   0  0  0  0  0  3  0  0  0  0  0  0
  -23.7350  -29.6800   20.0630 C   0  0  0  0  0  2  0  0  0  0  0  0
  -24.6980  -30.9580   22.0180 N   0  0  0  0  0  0  0  0  0  0  0  0
  -23.4710  -31.9890   23.6330 O   0  0  0  0  0  0  0  0  0  0  0  0
  -22.8160  -29.2830   22.3840 C   0  0  0  0  0  0  0  0  0  0  0  0
  -21.4960  -29.0660   22.2420 N   0  0  0  0  0  0  0  0  0  0  0  0
  -23.5040  -28.6690   23.2030 O   0  0  0  0  0  0  0  0  0  0  0  0
  -20.9990  -29.6150   21.5560 H   0  0  0  0  0  0  0  0  0  0  0  0
  -18.1500  -27.7650   22.7150 C   0  0  0  0  0  0  0  0  0  0  0  0
  -20.7020  -28.0890   22.9910 C   0  0  0  0  0  3  0  0  0  0  0  0
  -20.8420  -26.6750   22.3820 C   0  0  0  0  0  2  0  0  0  0  0  0
  -19.7480  -26.3460   21.3610 C   0  0  0  0  0  2  0  0  0  0  0  0
  -18.3630  -26.4380   22.0070 C   0  0  0  0  0  2  0  0  0  0  0  0
  -19.2490  -28.5480   23.1630 C   0  0  0  0  0  0  0  0  0  0  0  0
  -18.9940  -29.7890   23.7860 C   0  0  0  0  0  3  0  0  0  0  0  0
  -17.6750  -30.2480   23.9670 C   0  0  0  0  0  3  0  0  0  0  0  0
  -16.5920  -29.4630   23.5350 C   0  0  0  0  0  3  0  0  0  0  0  0
  -16.8320  -28.2230   22.9140 C   0  0  0  0  0  3  0  0  0  0  0  0
  -25.8180  -32.4390   23.7740 C   0  0  0  0  0  3  0  0  0  0  0  0
  -26.3400  -31.6770   25.0550 C   0  0  1  0  0  0  0  0  0  0  0  0
  -25.2330  -31.3800   26.0940 C   0  0  0  0  0  1  0  0  0  0  0  0
  -26.9930  -30.3300   24.6690 C   0  0  0  0  0  1  0  0  0  0  0  0
  -27.4390  -32.5140   25.7490 C   0  0  0  0  0  1  0  0  0  0  0  0
  -25.4420  -33.8200   24.1170 N   0  0  0  0  0  0  0  0  0  0  0  0
  -25.7340  -34.8980   23.3770 C   0  0  0  0  0  0  0  0  0  0  0  0
  -26.4180  -34.8370   22.3510 O   0  0  0  0  0  0  0  0  0  0  0  0
  -24.8340  -33.9350   24.9140 H   0  0  0  0  0  0  0  0  0  0  0  0
  -23.9310  -36.6180   23.0370 C   0  0  0  0  0  1  0  0  0  0  0  0
  -25.1850  -36.2590   23.8490 C   0  0  0  0  0  3  0  0  0  0  0  0
  -27.2740  -37.2320   24.6980 C   0  0  0  0  0  1  0  0  0  0  0  0
  -26.1700  -37.3570   23.7500 N   0  0  0  0  0  0  0  0  0  0  0  0
  -25.7220  -38.2570   23.9010 H   0  0  0  0  0  0  0  0  0  0  0  0
  2  1  1  0
  3  4  1  0
  5  3  1  0
  5  6  1  0
  5  7  1  0
  6  7  1  0
  6  2  1  0
  7  8  1  6
  7  4  1  0
  8 17  1  0
  9 17  1  0
 10 15  1  0
 11 12  1  0
 11 10  1  0
 13 12  1  0
 13 22  1  0
 13 14  1  0
 15  9  1  0
 15 14  1  0
 16  9  2  0
 17 18  1  0
 19 20  2  0
 20 39  1  0
 21 20  1  0
 21 24  1  0
 22 19  1  0
 22 23  1  0
 23 21  2  0
 24 25  1  0
 25 26  2  0
 27 30  1  0
 27 26  1  0
 28 27  2  0
 29 28  1  0
 29 24  2  0
 30 31  1  0
 31 36  2  0
 31 32  1  0
 32 33  2  0
 33 34  1  0
 34 38  1  0
 35 34  2  0
 36 35  1  0
 37 36  1  0
 39 40  1  0
 40 43  1  0
 40 42  1  0
 41 39  2  0
 44 45  1  0
 44 19  1  0
 46 44  1  0
 47 48  2  0
 47  2  1  0
 49 48  1  0
 50 61  2  0
 51 49  1  0
 51 56  1  0
 52 60  1  0
 52 62  1  0
 53 59  1  0
 53 55  1  0
 54 60  1  0
 55 56  2  0
 55 54  1  0
 57 51  2  0
 58 57  1  0
 58 53  2  0
 59 52  1  0
 60 50  1  0
 62 64  2  0
 63 62  1  0
 65 63  1  0
 66 75  2  0
 66 71  1  0
 67 63  1  0
 67 71  1  0
 68 67  1  0
 69 70  1  0
 69 68  1  0
 70 66  1  0
 71 72  2  0
 72 73  1  0
 74 73  2  0
 75 74  1  0
 76 50  1  0
 76 81  1  0
 76 77  1  0
 77 80  1  1
 77 78  1  0
 79 77  1  0
 81 84  1  0
 82 86  1  0
 82 81  1  0
 83 82  2  0
 86 85  1  0
 88 86  1  0
 88 89  1  0
 88 87  1  0
M  ISO  4   9 100  17 100  48 101  49 101
M  END
>  <TORSDO>  (58) 
F 20

>  <SCORE>  (58) 
-13.583

>  <name>  (58) 
57

>  <ligand_id>  (58) 
57

>  <original_smiles>  (58) 
[H]c1c([H])c([H])c2c(c1[H])C([H])([H])C([H])([H])C([H])([H])C2([H])N([H])C(=O)C1([H])N(C(=O)C([H])(N([H])C(=O)C([H])(N([H])C([H])([H])[H])C([H])([H])[H])C(C([H])([H])[H])(C([H])([H])[H])C([H])([H])[H])C([H])([H])c2c([H])c(OC([H])([H])C([H])([H])C([H])(C([H])([H])[H])C3([H])C4([H])C([H])([H])C([H])([H])C43C([H])([H])N([H])C(=O)N3C([H])([H])C([H])([H])C([H])([H])C([H])(n4nc(-c5c([H])c([H])c(Oc6c([H])c([H])c(F)c([H])c6F)c([H])c5[H])c(C(=O)N([H])[H])c4N([H])[H])C3([H])[H])c([H])c([H])c2C1([H])[H]

>  <smiles>  (58) 
[H]c1c([H])c([H])c2c(c1[H])C([H])([H])C([H])([H])C([H])([H])C2([H])N([H])C(=O)C1([H])N(C(=O)C([H])(N([H])C(=O)C([H])(N([H])C([H])([H])[H])C([H])([H])[H])C(C([H])([H])[H])(C([H])([H])[H])C([H])([H])[H])C([H])([H])c2c([H])c(OC([H])([H])C([H])([H])C([H])(C([H])([H])[H])C3([H])C4([H])C([H])([H])C([H])([H])C43C([H])([H])N([H])C(=O)N3C([H])([H])C([H])([H])C([H])([H])C([H])(n4nc(-c5c([H])c([H])c(Oc6c([H])c([H])c(F)c([H])c6F)c([H])c5[H])c(C(=O)N([H])[H])c4N([H])[H])C3([H])[H])c([H])c([H])c2C1([H])[H]

$$$$
58:0:0
     RDKit          3D

 89 98  0  0  1  0  0  0  0  0999 V2000
  -30.2220  -21.4160   19.5400 C   0  0  0  0  0  0  0  0  0  0  0  0
  -29.9260  -22.9490   19.3400 C   0  0  0  0  0  2  0  0  0  0  0  0
  -29.2380  -21.2520   21.9500 C   0  0  0  0  0  2  0  0  0  0  0  0
  -28.4230  -22.0000   20.9160 C   0  0  0  0  0  3  0  0  0  0  0  0
  -28.9620  -23.4500   20.4590 C   0  0  0  0  0  3  0  0  0  0  0  0
  -29.3290  -20.7120   20.5480 C   0  0  1  0  0  0  0  0  0  0  0  0
  -31.1030  -20.8360   18.9030 O   0  0  0  0  0  0  0  0  0  0  0  0
  -27.9650  -24.7770   20.1540 C   0  0  0  0  0  2  0  0  0  0  0  0
  -28.2670  -26.3030   20.2760 O   0  0  0  0  0  0  0  0  0  0  0  0
  -24.6240  -31.9570   23.2910 C   0  0  0  0  0  0  0  0  0  0  0  0
  -27.2150  -27.2900   20.2090 C   0  0  0  0  0  0  0  0  0  0  0  0
  -23.4340  -30.5890   21.6210 C   0  0  0  0  0  3  0  0  0  0  0  0
  -24.8910  -29.0390   20.1810 C   0  0  0  0  0  0  0  0  0  0  0  0
  -25.9890  -30.8550   21.4790 C   0  0  0  0  0  2  0  0  0  0  0  0
  -26.0660  -29.4750   20.8050 C   0  0  0  0  0  0  0  0  0  0  0  0
  -27.2310  -28.6170   20.8000 C   0  0  0  0  0  3  0  0  0  0  0  0
  -26.0140  -26.9590   19.5440 C   0  0  0  0  0  3  0  0  0  0  0  0
  -24.8770  -27.7960   19.5330 C   0  0  0  0  0  3  0  0  0  0  0  0
  -23.6640  -29.9350   20.2330 C   0  0  0  0  0  2  0  0  0  0  0  0
  -24.7010  -31.1540   22.1850 N   0  0  0  0  0  0  0  0  0  0  0  0
  -23.5350  -32.2340   23.8160 O   0  0  0  0  0  0  0  0  0  0  0  0
  -22.7490  -29.5670   22.5620 C   0  0  0  0  0  0  0  0  0  0  0  0
  -21.4290  -29.3700   22.3950 N   0  0  0  0  0  0  0  0  0  0  0  0
  -23.4070  -28.9540   23.4060 O   0  0  0  0  0  0  0  0  0  0  0  0
  -20.9540  -29.9190   21.6910 H   0  0  0  0  0  0  0  0  0  0  0  0
  -18.0560  -28.1090   22.7990 C   0  0  0  0  0  0  0  0  0  0  0  0
  -20.6020  -28.4170   23.1400 C   0  0  0  0  0  3  0  0  0  0  0  0
  -20.7460  -26.9870   22.5680 C   0  0  0  0  0  2  0  0  0  0  0  0
  -19.6790  -26.6450   21.5220 C   0  0  0  0  0  2  0  0  0  0  0  0
  -18.2770  -26.7640   22.1270 C   0  0  0  0  0  2  0  0  0  0  0  0
  -19.1480  -28.8920   23.2620 C   0  0  0  0  0  0  0  0  0  0  0  0
  -18.8880  -30.1470   23.8520 C   0  0  0  0  0  3  0  0  0  0  0  0
  -17.5700  -30.6210   23.9850 C   0  0  0  0  0  3  0  0  0  0  0  0
  -16.4930  -29.8370   23.5380 C   0  0  0  0  0  3  0  0  0  0  0  0
  -16.7370  -28.5830   22.9510 C   0  0  0  0  0  3  0  0  0  0  0  0
  -25.8980  -32.5810   23.9370 C   0  0  0  0  0  3  0  0  0  0  0  0
  -26.3780  -31.8110   25.2290 C   0  0  1  0  0  0  0  0  0  0  0  0
  -25.2580  -31.5890   26.2730 C   0  0  0  0  0  1  0  0  0  0  0  0
  -26.9580  -30.4270   24.8620 C   0  0  0  0  0  1  0  0  0  0  0  0
  -27.5190  -32.5990   25.9150 C   0  0  0  0  0  1  0  0  0  0  0  0
  -25.5950  -33.9830   24.2600 N   0  0  0  0  0  0  0  0  0  0  0  0
  -25.9050  -35.0310   23.4840 C   0  0  0  0  0  0  0  0  0  0  0  0
  -26.5410  -34.9180   22.4330 O   0  0  0  0  0  0  0  0  0  0  0  0
  -25.0250  -34.1450   25.0770 H   0  0  0  0  0  0  0  0  0  0  0  0
  -24.1500  -36.8130   23.1960 C   0  0  0  0  0  1  0  0  0  0  0  0
  -25.4350  -36.4250   23.9450 C   0  0  0  0  0  3  0  0  0  0  0  0
  -27.5970  -37.3460   24.6570 C   0  0  0  0  0  1  0  0  0  0  0  0
  -26.4520  -37.4820   23.7610 N   0  0  0  0  0  0  0  0  0  0  0  0
  -26.0450  -38.4030   23.9040 H   0  0  0  0  0  0  0  0  0  0  0  0
  -29.0340  -19.0740   20.3490 C   0  0  0  0  0  3  0  0  0  0  0  0
  -30.1200  -17.8100   20.6010 C   0  0  0  0  0  3  0  0  0  0  0  0
  -30.5380  -15.0940   20.3570 C   0  0  0  0  0  0  0  0  0  0  0  0
  -30.4170  -12.7680   19.3600 C   0  0  0  0  0  2  0  0  0  0  0  0
  -29.4710  -12.7420   18.1370 C   0  0  0  0  0  2  0  0  0  0  0  0
  -28.0130  -12.5190   18.5790 C   0  0  0  0  0  2  0  0  0  0  0  0
  -27.6130  -13.4160   19.7800 C   0  0  0  0  0  3  0  0  0  0  0  0
  -28.6790  -13.4110   20.8950 C   0  0  0  0  0  2  0  0  0  0  0  0
  -29.9410  -13.8390   20.2800 N   0  0  0  0  0  0  0  0  0  0  0  0
  -31.7400  -15.1700   20.0840 O   0  0  0  0  0  0  0  0  0  0  0  0
  -29.7590  -16.2710   20.5350 N   0  0  0  0  0  0  0  0  0  0  0  0
  -28.7790  -16.0720   20.6760 H   0  0  0  0  0  0  0  0  0  0  0  0
  -25.2290  -13.9570   20.5400 C   0  0  0  0  0  0  0  0  0  0  0  0
  -24.1780  -13.1650   20.9070 C   0  0  0  0  0  0  0  0  0  0  0  0
  -24.6590  -11.8210   20.8640 C   0  0  0  0  0  0  0  0  0  0  0  0
  -26.2820  -13.0950   20.2860 N   0  0  0  0  0  0  0  0  0  0  0  0
  -25.9490  -11.8040   20.5470 N   0  0  0  0  0  0  0  0  0  0  0  0
  -23.9500  -10.5480   21.0440 C   0  0  0  0  0  0  0  0  0  0  0  0
  -24.3830   -9.5860   21.9830 C   0  0  0  0  0  3  0  0  0  0  0  0
  -23.6710   -8.3790   22.1530 C   0  0  0  0  0  3  0  0  0  0  0  0
  -22.5120   -8.1250   21.3830 C   0  0  0  0  0  0  0  0  0  0  0  0
  -22.0960   -9.0750   20.4340 C   0  0  0  0  0  3  0  0  0  0  0  0
  -22.8080  -10.2740   20.2630 C   0  0  0  0  0  3  0  0  0  0  0  0
  -21.7700   -6.9700   21.4630 O   0  0  0  0  0  0  0  0  0  0  0  0
  -21.7060   -6.2350   22.6200 C   0  0  0  0  0  0  0  0  0  0  0  0
  -21.1900   -6.7750   23.8180 C   0  0  0  0  0  3  0  0  0  0  0  0
  -21.0770   -5.9640   24.9650 C   0  0  0  0  0  3  0  0  0  0  0  0
  -21.4680   -4.6130   24.9130 C   0  0  0  0  0  0  0  0  0  0  0  0
  -21.9760   -4.0710   23.7190 C   0  0  0  0  0  3  0  0  0  0  0  0
  -22.0910   -4.8800   22.5740 C   0  0  0  0  0  0  0  0  0  0  0  0
  -22.5610   -4.3480   21.4210 F   0  0  0  0  0  0  0  0  0  0  0  0
  -21.3530   -3.8300   26.0120 F   0  0  0  0  0  0  0  0  0  0  0  0
  -22.7740  -13.6210   21.1850 C   0  0  0  0  0  0  0  0  0  0  0  0
  -22.0590  -12.9110   22.0500 N   0  0  0  0  0  0  0  0  0  0  0  0
  -22.3220  -14.6440   20.6730 O   0  0  0  0  0  0  0  0  0  0  0  0
  -22.4390  -12.0860   22.4890 H   0  0  0  0  0  0  0  0  0  0  0  0
  -21.1170  -13.1980   22.2750 H   0  0  0  0  0  0  0  0  0  0  0  0
  -25.3690  -15.3310   20.3720 N   0  0  0  0  0  0  0  0  0  0  0  0
  -24.5840  -15.9650   20.4880 H   0  0  0  0  0  0  0  0  0  0  0  0
  -26.1920  -15.7900   20.0040 H   0  0  0  0  0  0  0  0  0  0  0  0
  1  6  1  0
  2  1  1  0
  2  5  1  0
  4  3  1  0
  5  8  1  0
  5  4  1  0
  6 50  1  1
  6  4  1  0
  6  3  1  0
  7  1  2  0
  8  9  1  0
 10 21  2  0
 11  9  1  0
 11 16  1  0
 12 20  1  0
 12 22  1  0
 13 19  1  0
 13 15  1  0
 14 20  1  0
 15 14  1  0
 16 15  2  0
 17 11  2  0
 18 17  1  0
 18 13  2  0
 19 12  1  0
 20 10  1  0
 22 24  2  0
 23 22  1  0
 25 23  1  0
 26 35  2  0
 26 31  1  0
 27 23  1  0
 27 31  1  0
 28 27  1  0
 29 30  1  0
 29 28  1  0
 30 26  1  0
 31 32  2  0
 32 33  1  0
 34 33  2  0
 35 34  1  0
 36 10  1  0
 36 41  1  0
 36 37  1  0
 37 40  1  1
 37 38  1  0
 39 37  1  0
 41 44  1  0
 42 46  1  0
 42 41  1  0
 43 42  2  0
 46 45  1  0
 48 49  1  0
 48 46  1  0
 48 47  1  0
 50 51  2  0
 52 60  1  0
 53 58  1  0
 54 55  1  0
 54 53  1  0
 56 55  1  0
 56 65  1  0
 56 57  1  0
 58 52  1  0
 58 57  1  0
 59 52  2  0
 60 51  1  0
 60 61  1  0
 62 63  2  0
 63 82  1  0
 64 63  1  0
 64 67  1  0
 65 62  1  0
 65 66  1  0
 66 64  2  0
 67 68  1  0
 68 69  2  0
 70 73  1  0
 70 69  1  0
 71 70  2  0
 72 71  1  0
 72 67  2  0
 73 74  1  0
 74 75  1  0
 75 76  2  0
 77 76  1  0
 77 81  1  0
 78 77  2  0
 79 74  2  0
 79 78  1  0
 80 79  1  0
 82 83  1  0
 83 86  1  0
 83 85  1  0
 84 82  2  0
 87 88  1  0
 87 62  1  0
 89 87  1  0
M  ISO  4   8 101   9 101  52 100  60 100
M  END
>  <TORSDO>  (59) 
F 19

>  <SCORE>  (59) 
-14.249

>  <name>  (59) 
58

>  <ligand_id>  (59) 
58

>  <original_smiles>  (59) 
[H]c1c([H])c([H])c2c(c1[H])C([H])([H])C([H])([H])C([H])([H])C2([H])N([H])C(=O)C1([H])N(C(=O)C([H])(N([H])C(=O)C([H])(N([H])C([H])([H])[H])C([H])([H])[H])C(C([H])([H])[H])(C([H])([H])[H])C([H])([H])[H])C([H])([H])c2c([H])c(OC([H])([H])C3([H])C([H])([H])C(=O)C4(C([H])([H])C([H])([H])N([H])C(=O)N5C([H])([H])C([H])([H])C([H])([H])C([H])(n6nc(-c7c([H])c([H])c(Oc8c([H])c([H])c(F)c([H])c8F)c([H])c7[H])c(C(=O)N([H])[H])c6N([H])[H])C5([H])[H])C([H])([H])C34[H])c([H])c([H])c2C1([H])[H]

>  <smiles>  (59) 
[H]c1c([H])c([H])c2c(c1[H])C([H])([H])C([H])([H])C([H])([H])C2([H])N([H])C(=O)C1([H])N(C(=O)C([H])(N([H])C(=O)C([H])(N([H])C([H])([H])[H])C([H])([H])[H])C(C([H])([H])[H])(C([H])([H])[H])C([H])([H])[H])C([H])([H])c2c([H])c(OC([H])([H])C3([H])C([H])([H])C(=O)C4(C([H])([H])C([H])([H])N([H])C(=O)N5C([H])([H])C([H])([H])C([H])([H])C([H])(n6nc(-c7c([H])c([H])c(Oc8c([H])c([H])c(F)c([H])c8F)c([H])c7[H])c(C(=O)N([H])[H])c6N([H])[H])C5([H])[H])C([H])([H])C34[H])c([H])c([H])c2C1([H])[H]

$$$$
59:0:0
     RDKit          3D

 95104  0  0  1  0  0  0  0  0999 V2000
  -30.2080  -19.9320   19.1180 C   0  0  0  0  0  2  0  0  0  0  0  0
  -30.2700  -21.8160   21.4040 C   0  0  0  0  0  2  0  0  0  0  0  0
  -30.4560  -20.3120   21.7280 C   0  0  0  0  0  3  0  0  0  0  0  0
  -29.0030  -20.5850   19.7620 C   0  0  0  0  0  3  0  0  0  0  0  0
  -29.8270  -19.5770   20.5480 C   0  0  1  0  0  0  0  0  0  0  0  0
  -29.2230  -21.9370   20.3580 N   0  0  2  0  0  4  0  0  0  0  0  0
  -28.3670  -22.1510   20.8490 H   0  0  0  0  0  0  0  0  0  0  0  0
  -31.9370  -19.9890   21.9820 C   0  0  0  0  0  0  0  0  0  0  0  0
  -32.5330  -20.4570   23.3030 C   0  0  0  0  0  1  0  0  0  0  0  0
  -32.6360  -19.3970   21.1560 O   0  0  0  0  0  0  0  0  0  0  0  0
  -29.3480  -18.1330   20.8440 C   0  0  0  0  0  2  0  0  0  0  0  0
  -30.4730  -17.0600   20.8870 C   0  0  0  0  0  2  0  0  0  0  0  0
  -30.6960  -14.6110   20.4180 C   0  0  0  0  0  0  0  0  0  0  0  0
  -30.3930  -12.4620   19.2530 C   0  0  0  0  0  2  0  0  0  0  0  0
  -29.4420  -12.6660   18.0560 C   0  0  0  0  0  2  0  0  0  0  0  0
  -27.9740  -12.5040   18.5010 C   0  0  0  0  0  2  0  0  0  0  0  0
  -27.6350  -13.3420   19.7640 C   0  0  0  0  0  3  0  0  0  0  0  0
  -28.6980  -13.1330   20.8660 C   0  0  0  0  0  2  0  0  0  0  0  0
  -30.0170  -13.4390   20.2860 N   0  0  0  0  0  0  0  0  0  0  0  0
  -31.8360  -14.7700   19.9780 O   0  0  0  0  0  0  0  0  0  0  0  0
  -29.9920  -15.6610   20.8910 N   0  0  0  0  0  0  0  0  0  0  0  0
  -29.0540  -15.4800   21.2140 H   0  0  0  0  0  0  0  0  0  0  0  0
  -25.2320  -13.9270   20.4770 C   0  0  0  0  0  0  0  0  0  0  0  0
  -24.1720  -13.1450   20.8510 C   0  0  0  0  0  0  0  0  0  0  0  0
  -24.6490  -11.7980   20.8220 C   0  0  0  0  0  0  0  0  0  0  0  0
  -26.2870  -13.0570   20.2470 N   0  0  0  0  0  0  0  0  0  0  0  0
  -25.9390  -11.7720   20.5150 N   0  0  0  0  0  0  0  0  0  0  0  0
  -23.9380  -10.5280   21.0170 C   0  0  0  0  0  0  0  0  0  0  0  0
  -24.3780   -9.5690   21.9550 C   0  0  0  0  0  3  0  0  0  0  0  0
  -23.6650   -8.3650   22.1370 C   0  0  0  0  0  3  0  0  0  0  0  0
  -22.4970   -8.1100   21.3770 C   0  0  0  0  0  0  0  0  0  0  0  0
  -22.0770   -9.0580   20.4290 C   0  0  0  0  0  3  0  0  0  0  0  0
  -22.7910  -10.2540   20.2460 C   0  0  0  0  0  3  0  0  0  0  0  0
  -21.7580   -6.9560   21.4650 O   0  0  0  0  0  0  0  0  0  0  0  0
  -21.7040   -6.2230   22.6240 C   0  0  0  0  0  0  0  0  0  0  0  0
  -21.2340   -6.7760   23.8350 C   0  0  0  0  0  3  0  0  0  0  0  0
  -21.1290   -5.9660   24.9840 C   0  0  0  0  0  3  0  0  0  0  0  0
  -21.4870   -4.6070   24.9230 C   0  0  0  0  0  0  0  0  0  0  0  0
  -21.9510   -4.0530   23.7170 C   0  0  0  0  0  3  0  0  0  0  0  0
  -22.0580   -4.8590   22.5700 C   0  0  0  0  0  0  0  0  0  0  0  0
  -22.4850   -4.3170   21.4040 F   0  0  0  0  0  0  0  0  0  0  0  0
  -21.3800   -3.8270   26.0250 F   0  0  0  0  0  0  0  0  0  0  0  0
  -22.7700  -13.6080   21.1220 C   0  0  0  0  0  0  0  0  0  0  0  0
  -22.0480  -12.9070   21.9880 N   0  0  0  0  0  0  0  0  0  0  0  0
  -22.3230  -14.6300   20.6000 O   0  0  0  0  0  0  0  0  0  0  0  0
  -22.4220  -12.0850   22.4390 H   0  0  0  0  0  0  0  0  0  0  0  0
  -21.1070  -13.2010   22.2090 H   0  0  0  0  0  0  0  0  0  0  0  0
  -25.3810  -15.3000   20.2950 N   0  0  0  0  0  0  0  0  0  0  0  0
  -24.6030  -15.9420   20.4040 H   0  0  0  0  0  0  0  0  0  0  0  0
  -26.2190  -15.7510   19.9510 H   0  0  0  0  0  0  0  0  0  0  0  0
  -29.4250  -23.0320   19.3520 C   0  0  0  0  0  2  0  0  0  0  0  0
  -30.7890  -25.1980   19.3630 C   0  0  0  0  0  1  0  0  0  0  0  0
  -29.5280  -24.5000   19.9130 C   0  0  0  0  0  3  0  0  0  0  0  0
  -28.2650  -25.3470   19.5890 C   0  0  0  0  0  2  0  0  0  0  0  0
  -28.3420  -26.7270   20.0100 O   0  0  0  0  0  0  0  0  0  0  0  0
  -24.5710  -31.8760   23.2120 C   0  0  0  0  0  0  0  0  0  0  0  0
  -27.1700  -27.4710   20.0090 C   0  0  0  0  0  0  0  0  0  0  0  0
  -23.3430  -30.5010   21.5670 C   0  0  0  0  0  3  0  0  0  0  0  0
  -24.7760  -28.9960   20.0890 C   0  0  0  0  0  0  0  0  0  0  0  0
  -25.8690  -30.8620   21.3390 C   0  0  0  0  0  2  0  0  0  0  0  0
  -25.9460  -29.5020   20.6690 C   0  0  0  0  0  0  0  0  0  0  0  0
  -27.1450  -28.7480   20.6250 C   0  0  0  0  0  3  0  0  0  0  0  0
  -25.9740  -26.9920   19.4210 C   0  0  0  0  0  3  0  0  0  0  0  0
  -24.7860  -27.7400   19.4650 C   0  0  0  0  0  3  0  0  0  0  0  0
  -23.5330  -29.8520   20.1710 C   0  0  0  0  0  2  0  0  0  0  0  0
  -24.6140  -31.0930   22.0970 N   0  0  0  0  0  0  0  0  0  0  0  0
  -23.4970  -32.1350   23.7730 O   0  0  0  0  0  0  0  0  0  0  0  0
  -22.7100  -29.4580   22.5180 C   0  0  0  0  0  0  0  0  0  0  0  0
  -21.3870  -29.2610   22.3940 N   0  0  0  0  0  0  0  0  0  0  0  0
  -23.4040  -28.8330   23.3220 O   0  0  0  0  0  0  0  0  0  0  0  0
  -20.8880  -29.8170   21.7140 H   0  0  0  0  0  0  0  0  0  0  0  0
  -18.0330  -28.0020   22.8710 C   0  0  0  0  0  0  0  0  0  0  0  0
  -20.5840  -28.3060   23.1580 C   0  0  0  0  0  3  0  0  0  0  0  0
  -20.7170  -26.8790   22.5780 C   0  0  0  0  0  2  0  0  0  0  0  0
  -19.6260  -26.5410   21.5570 C   0  0  0  0  0  2  0  0  0  0  0  0
  -18.2380  -26.6590   22.1930 C   0  0  0  0  0  2  0  0  0  0  0  0
  -19.1350  -28.7820   23.3100 C   0  0  0  0  0  0  0  0  0  0  0  0
  -18.8900  -30.0400   23.9040 C   0  0  0  0  0  3  0  0  0  0  0  0
  -17.5750  -30.5170   24.0640 C   0  0  0  0  0  3  0  0  0  0  0  0
  -16.4880  -29.7330   23.6420 C   0  0  0  0  0  3  0  0  0  0  0  0
  -16.7170  -28.4780   23.0510 C   0  0  0  0  0  3  0  0  0  0  0  0
  -25.8640  -32.4990   23.8210 C   0  0  0  0  0  3  0  0  0  0  0  0
  -25.5620  -33.8970   24.1580 N   0  0  0  0  0  0  0  0  0  0  0  0
  -25.9000  -34.9510   23.4040 C   0  0  0  0  0  0  0  0  0  0  0  0
  -26.5690  -34.8490   22.3710 O   0  0  0  0  0  0  0  0  0  0  0  0
  -24.9640  -34.0510   24.9580 H   0  0  0  0  0  0  0  0  0  0  0  0
  -24.1900  -36.7610   23.0520 C   0  0  0  0  0  1  0  0  0  0  0  0
  -25.4220  -36.3400   23.8680 C   0  0  0  0  0  3  0  0  0  0  0  0
  -27.5550  -37.2040   24.7240 C   0  0  0  0  0  1  0  0  0  0  0  0
  -26.4640  -37.3860   23.7700 N   0  0  0  0  0  0  0  0  0  0  0  0
  -26.0640  -38.3080   23.9200 H   0  0  0  0  0  0  0  0  0  0  0  0
  -26.3920  -31.7200   25.0880 C   0  0  1  0  0  0  0  0  0  0  0  0
  -25.3090  -31.4840   26.1670 C   0  0  0  0  0  1  0  0  0  0  0  0
  -26.9630  -30.3410   24.6840 C   0  0  0  0  0  1  0  0  0  0  0  0
  -27.5530  -32.5080   25.7390 C   0  0  0  0  0  1  0  0  0  0  0  0
  1  5  1  0
  2  3  1  0
  3  8  1  0
  4  1  1  0
  4  6  1  0
  4  5  1  0
  5 11  1  1
  5  3  1  0
  6  7  1  1
  6  2  1  0
  8  9  1  0
 10  8  2  0
 11 12  1  0
 12 21  1  0
 13 21  1  0
 14 19  1  0
 15 16  1  0
 15 14  1  0
 17 16  1  0
 17 26  1  0
 17 18  1  0
 19 13  1  0
 19 18  1  0
 20 13  2  0
 21 22  1  0
 23 24  2  0
 24 43  1  0
 25 24  1  0
 25 28  1  0
 26 23  1  0
 26 27  1  0
 27 25  2  0
 28 29  1  0
 29 30  2  0
 31 34  1  0
 31 30  1  0
 32 31  2  0
 33 32  1  0
 33 28  2  0
 34 35  1  0
 35 36  1  0
 36 37  2  0
 38 37  1  0
 38 42  1  0
 39 38  2  0
 40 35  2  0
 40 39  1  0
 41 40  1  0
 43 44  1  0
 44 47  1  0
 44 46  1  0
 45 43  2  0
 48 49  1  0
 48 23  1  0
 50 48  1  0
 51 53  1  0
 51  6  1  0
 53 52  1  0
 54 53  1  0
 54 55  1  0
 56 67  2  0
 57 55  1  0
 57 62  1  0
 58 66  1  0
 58 68  1  0
 59 65  1  0
 59 61  1  0
 60 66  1  0
 61 60  1  0
 62 61  2  0
 63 64  1  0
 63 57  2  0
 64 59  2  0
 65 58  1  0
 66 56  1  0
 68 70  2  0
 69 68  1  0
 71 69  1  0
 72 81  2  0
 72 77  1  0
 73 69  1  0
 73 77  1  0
 74 73  1  0
 75 76  1  0
 75 74  1  0
 76 72  1  0
 77 78  2  0
 78 79  1  0
 80 79  2  0
 81 80  1  0
 82 56  1  0
 82 83  1  0
 82 92  1  0
 83 86  1  0
 84 88  1  0
 84 83  1  0
 85 84  2  0
 88 87  1  0
 90 88  1  0
 90 91  1  0
 90 89  1  0
 92 95  1  1
 92 93  1  0
 94 92  1  0
M  ISO  4  13 100  21 100  54 101  55 101
M  END
>  <TORSDO>  (60) 
F 22

>  <SCORE>  (60) 
-13.517

>  <name>  (60) 
59

>  <ligand_id>  (60) 
59

>  <original_smiles>  (60) 
[H]c1c([H])c([H])c2c(c1[H])C([H])([H])C([H])([H])C([H])([H])C2([H])N([H])C(=O)C1([H])N(C(=O)C([H])(N([H])C(=O)C([H])(N([H])C([H])([H])[H])C([H])([H])[H])C(C([H])([H])[H])(C([H])([H])[H])C([H])([H])[H])C([H])([H])c2c([H])c(OC([H])([H])C([H])(C([H])([H])[H])C([H])([H])[N+]3([H])C([H])([H])C([H])(C(=O)C([H])([H])[H])C4(C([H])([H])C([H])([H])N([H])C(=O)N5C([H])([H])C([H])([H])C([H])([H])C([H])(n6nc(-c7c([H])c([H])c(Oc8c([H])c([H])c(F)c([H])c8F)c([H])c7[H])c(C(=O)N([H])[H])c6N([H])[H])C5([H])[H])C([H])([H])C43[H])c([H])c([H])c2C1([H])[H]

>  <smiles>  (60) 
[H]c1c([H])c([H])c2c(c1[H])C([H])([H])C([H])([H])C([H])([H])C2([H])N([H])C(=O)C1([H])N(C(=O)C([H])(N([H])C(=O)C([H])(N([H])C([H])([H])[H])C([H])([H])[H])C(C([H])([H])[H])(C([H])([H])[H])C([H])([H])[H])C([H])([H])c2c([H])c(OC([H])([H])C([H])(C([H])([H])[H])C([H])([H])[N+]3([H])C([H])([H])C([H])(C(=O)C([H])([H])[H])C4(C([H])([H])C([H])([H])N([H])C(=O)N5C([H])([H])C([H])([H])C([H])([H])C([H])(n6nc(-c7c([H])c([H])c(Oc8c([H])c([H])c(F)c([H])c8F)c([H])c7[H])c(C(=O)N([H])[H])c6N([H])[H])C5([H])[H])C([H])([H])C43[H])c([H])c([H])c2C1([H])[H]

$$$$
60:0:0
     RDKit          3D

 89 98  0  0  1  0  0  0  0  0999 V2000
  -29.1530  -20.6760   21.8660 C   0  0  0  0  0  2  0  0  0  0  0  0
  -28.6230  -22.1750   21.7410 C   0  0  0  0  0  2  0  0  0  0  0  0
  -30.1540  -19.1860   18.6690 C   0  0  0  0  0  2  0  0  0  0  0  0
  -30.1030  -20.7890   18.7630 C   0  0  0  0  0  2  0  0  0  0  0  0
  -29.8980  -18.5490   20.0720 C   0  0  0  0  0  3  0  0  0  0  0  0
  -28.8900  -19.9300   20.5260 C   0  0  0  0  0  3  0  0  0  0  0  0
  -28.9440  -22.7280   20.3190 C   0  0  0  0  0  3  0  0  0  0  0  0
  -28.9510  -21.2290   19.6130 N   0  0  1  0  0  4  0  0  0  0  0  0
  -28.1310  -21.1790   19.0260 H   0  0  0  0  0  0  0  0  0  0  0  0
  -30.4730  -15.5680   20.0780 C   0  0  0  0  0  0  0  0  0  0  0  0
  -30.4750  -13.0930   19.2320 C   0  0  0  0  0  2  0  0  0  0  0  0
  -29.5360  -12.8210   18.0280 C   0  0  0  0  0  2  0  0  0  0  0  0
  -28.1060  -12.5260   18.5070 C   0  0  0  0  0  2  0  0  0  0  0  0
  -27.6570  -13.5030   19.6200 C   0  0  0  0  0  3  0  0  0  0  0  0
  -28.7240  -13.7130   20.7160 C   0  0  0  0  0  2  0  0  0  0  0  0
  -29.9210  -14.2470   20.0430 N   0  0  0  0  0  0  0  0  0  0  0  0
  -31.6910  -15.5580   19.8380 O   0  0  0  0  0  0  0  0  0  0  0  0
  -29.7020  -16.8560   20.1800 N   0  0  0  0  0  0  0  0  0  0  0  0
  -28.7300  -16.6330   20.3370 H   0  0  0  0  0  0  0  0  0  0  0  0
  -25.3050  -14.0340   20.4370 C   0  0  0  0  0  0  0  0  0  0  0  0
  -24.2570  -13.2490   20.8250 C   0  0  0  0  0  0  0  0  0  0  0  0
  -24.7310  -11.9020   20.7730 C   0  0  0  0  0  0  0  0  0  0  0  0
  -26.3470  -13.1690   20.1610 N   0  0  0  0  0  0  0  0  0  0  0  0
  -26.0170  -11.8790   20.4310 N   0  0  0  0  0  0  0  0  0  0  0  0
  -24.0160  -10.6330   20.9650 C   0  0  0  0  0  0  0  0  0  0  0  0
  -24.4460   -9.6740   21.9080 C   0  0  0  0  0  3  0  0  0  0  0  0
  -23.7230   -8.4740   22.0900 C   0  0  0  0  0  3  0  0  0  0  0  0
  -22.5570   -8.2250   21.3280 C   0  0  0  0  0  0  0  0  0  0  0  0
  -22.1480   -9.1720   20.3730 C   0  0  0  0  0  3  0  0  0  0  0  0
  -22.8710  -10.3630   20.1900 C   0  0  0  0  0  3  0  0  0  0  0  0
  -21.8080   -7.0770   21.4190 O   0  0  0  0  0  0  0  0  0  0  0  0
  -21.7250   -6.3630   22.5890 C   0  0  0  0  0  0  0  0  0  0  0  0
  -21.1950   -6.9280   23.7690 C   0  0  0  0  0  3  0  0  0  0  0  0
  -21.0620   -6.1380   24.9290 C   0  0  0  0  0  3  0  0  0  0  0  0
  -21.4480   -4.7840   24.9070 C   0  0  0  0  0  0  0  0  0  0  0  0
  -21.9680   -4.2190   23.7300 C   0  0  0  0  0  3  0  0  0  0  0  0
  -22.1030   -5.0060   22.5730 C   0  0  0  0  0  0  0  0  0  0  0  0
  -22.5850   -4.4500   21.4360 F   0  0  0  0  0  0  0  0  0  0  0  0
  -21.3130   -4.0210   26.0180 F   0  0  0  0  0  0  0  0  0  0  0  0
  -22.8640  -13.7150   21.1250 C   0  0  0  0  0  0  0  0  0  0  0  0
  -22.1630  -13.0190   22.0120 N   0  0  0  0  0  0  0  0  0  0  0  0
  -22.4090  -14.7370   20.6120 O   0  0  0  0  0  0  0  0  0  0  0  0
  -22.5440  -12.1910   22.4450 H   0  0  0  0  0  0  0  0  0  0  0  0
  -21.2310  -13.3180   22.2620 H   0  0  0  0  0  0  0  0  0  0  0  0
  -25.4530  -15.4080   20.2650 N   0  0  0  0  0  0  0  0  0  0  0  0
  -24.6750  -16.0480   20.3780 H   0  0  0  0  0  0  0  0  0  0  0  0
  -26.2720  -15.8490   19.8690 H   0  0  0  0  0  0  0  0  0  0  0  0
  -28.1000  -24.3030   19.8500 C   0  0  0  0  0  2  0  0  0  0  0  0
  -28.2320  -25.9500   20.1760 O   0  0  0  0  0  0  0  0  0  0  0  0
  -24.6580  -31.9430   23.1800 C   0  0  0  0  0  0  0  0  0  0  0  0
  -27.2130  -27.0620   20.1020 C   0  0  0  0  0  0  0  0  0  0  0  0
  -23.4530  -30.5400   21.5570 C   0  0  0  0  0  3  0  0  0  0  0  0
  -24.8960  -28.9510   20.1000 C   0  0  0  0  0  0  0  0  0  0  0  0
  -26.0160  -30.7670   21.3720 C   0  0  0  0  0  2  0  0  0  0  0  0
  -26.0900  -29.3550   20.7080 C   0  0  0  0  0  0  0  0  0  0  0  0
  -27.2380  -28.4340   20.6830 C   0  0  0  0  0  3  0  0  0  0  0  0
  -25.9870  -26.8250   19.4380 C   0  0  0  0  0  3  0  0  0  0  0  0
  -24.8720  -27.7080   19.4430 C   0  0  0  0  0  3  0  0  0  0  0  0
  -23.6670  -29.8600   20.1750 C   0  0  0  0  0  2  0  0  0  0  0  0
  -24.7320  -31.1120   22.0900 N   0  0  0  0  0  0  0  0  0  0  0  0
  -23.5740  -32.2200   23.7190 O   0  0  0  0  0  0  0  0  0  0  0  0
  -22.7820  -29.5370   22.5310 C   0  0  0  0  0  0  0  0  0  0  0  0
  -21.4530  -29.3470   22.4160 N   0  0  0  0  0  0  0  0  0  0  0  0
  -23.4650  -28.9260   23.3570 O   0  0  0  0  0  0  0  0  0  0  0  0
  -20.9520  -29.8920   21.7280 H   0  0  0  0  0  0  0  0  0  0  0  0
  -18.0990  -28.0720   22.9570 C   0  0  0  0  0  0  0  0  0  0  0  0
  -20.6550  -28.3930   23.1940 C   0  0  0  0  0  3  0  0  0  0  0  0
  -20.7790  -26.9620   22.6190 C   0  0  0  0  0  2  0  0  0  0  0  0
  -19.6750  -26.6180   21.6140 C   0  0  0  0  0  2  0  0  0  0  0  0
  -18.2980  -26.7290   22.2730 C   0  0  0  0  0  2  0  0  0  0  0  0
  -19.2040  -28.8600   23.3740 C   0  0  0  0  0  0  0  0  0  0  0  0
  -18.9600  -30.1130   23.9760 C   0  0  0  0  0  3  0  0  0  0  0  0
  -17.6460  -30.5800   24.1610 C   0  0  0  0  0  3  0  0  0  0  0  0
  -16.5550  -29.7910   23.7580 C   0  0  0  0  0  3  0  0  0  0  0  0
  -16.7820  -28.5370   23.1620 C   0  0  0  0  0  3  0  0  0  0  0  0
  -25.9310  -32.5990   23.7960 C   0  0  0  0  0  3  0  0  0  0  0  0
  -25.6030  -33.9940   24.1410 N   0  0  0  0  0  0  0  0  0  0  0  0
  -25.8970  -35.0620   23.3860 C   0  0  0  0  0  0  0  0  0  0  0  0
  -26.5310  -34.9760   22.3320 O   0  0  0  0  0  0  0  0  0  0  0  0
  -25.0320  -34.1330   24.9610 H   0  0  0  0  0  0  0  0  0  0  0  0
  -24.1320  -36.8380   23.1230 C   0  0  0  0  0  1  0  0  0  0  0  0
  -25.4120  -36.4420   23.8760 C   0  0  0  0  0  3  0  0  0  0  0  0
  -27.5590  -37.3640   24.6370 C   0  0  0  0  0  1  0  0  0  0  0  0
  -26.4250  -37.5120   23.7280 N   0  0  0  0  0  0  0  0  0  0  0  0
  -26.0090  -38.4250   23.8870 H   0  0  0  0  0  0  0  0  0  0  0  0
  -26.4610  -31.8380   25.0740 C   0  0  1  0  0  0  0  0  0  0  0  0
  -25.3710  -31.5850   26.1420 C   0  0  0  0  0  1  0  0  0  0  0  0
  -27.0680  -30.4700   24.6900 C   0  0  0  0  0  1  0  0  0  0  0  0
  -27.6000  -32.6510   25.7340 C   0  0  0  0  0  1  0  0  0  0  0  0
  2  1  1  0
  3  4  1  0
  3  5  1  0
  4  8  1  0
  5 18  1  0
  5  6  1  0
  6  1  1  0
  7 48  1  0
  7  2  1  0
  8  9  1  6
  8  7  1  0
  8  6  1  0
 10 18  1  0
 11 16  1  0
 12 13  1  0
 12 11  1  0
 14 13  1  0
 14 23  1  0
 14 15  1  0
 16 10  1  0
 16 15  1  0
 17 10  2  0
 18 19  1  0
 20 21  2  0
 21 40  1  0
 22 21  1  0
 22 25  1  0
 23 24  1  0
 23 20  1  0
 24 22  2  0
 25 26  1  0
 26 27  2  0
 28 31  1  0
 28 27  1  0
 29 28  2  0
 30 29  1  0
 30 25  2  0
 31 32  1  0
 32 33  1  0
 33 34  2  0
 35 34  1  0
 35 39  1  0
 36 35  2  0
 37 32  2  0
 37 36  1  0
 38 37  1  0
 40 41  1  0
 41 44  1  0
 41 43  1  0
 42 40  2  0
 45 46  1  0
 45 20  1  0
 47 45  1  0
 48 49  1  0
 50 61  2  0
 51 49  1  0
 51 56  1  0
 52 60  1  0
 52 62  1  0
 53 59  1  0
 53 55  1  0
 54 60  1  0
 55 54  1  0
 56 55  2  0
 57 58  1  0
 57 51  2  0
 58 53  2  0
 59 52  1  0
 60 50  1  0
 62 64  2  0
 63 62  1  0
 65 63  1  0
 66 75  2  0
 66 71  1  0
 67 63  1  0
 67 71  1  0
 68 67  1  0
 69 70  1  0
 69 68  1  0
 70 66  1  0
 71 72  2  0
 72 73  1  0
 74 73  2  0
 75 74  1  0
 76 50  1  0
 76 77  1  0
 76 86  1  0
 77 80  1  0
 78 82  1  0
 78 77  1  0
 79 78  2  0
 82 81  1  0
 84 82  1  0
 84 85  1  0
 84 83  1  0
 86 89  1  1
 86 87  1  0
 88 86  1  0
M  ISO  4  10 100  18 100  48 101  49 101
M  END
>  <TORSDO>  (61) 
F 17

>  <SCORE>  (61) 
-16.390

>  <name>  (61) 
60

>  <ligand_id>  (61) 
60

>  <original_smiles>  (61) 
[H]c1c([H])c([H])c2c(c1[H])C([H])([H])C([H])([H])C([H])([H])C2([H])N([H])C(=O)C1([H])N(C(=O)C([H])(N([H])C(=O)C([H])(N([H])C([H])([H])[H])C([H])([H])[H])C(C([H])([H])[H])(C([H])([H])[H])C([H])([H])[H])C([H])([H])c2c([H])c(OC([H])([H])C3([H])C([H])([H])C([H])([H])C4([H])C([H])(N([H])C(=O)N5C([H])([H])C([H])([H])C([H])([H])C([H])(n6nc(-c7c([H])c([H])c(Oc8c([H])c([H])c(F)c([H])c8F)c([H])c7[H])c(C(=O)N([H])[H])c6N([H])[H])C5([H])[H])C([H])([H])C([H])([H])[N+]34[H])c([H])c([H])c2C1([H])[H]

>  <smiles>  (61) 
[H]c1c([H])c([H])c2c(c1[H])C([H])([H])C([H])([H])C([H])([H])C2([H])N([H])C(=O)C1([H])N(C(=O)C([H])(N([H])C(=O)C([H])(N([H])C([H])([H])[H])C([H])([H])[H])C(C([H])([H])[H])(C([H])([H])[H])C([H])([H])[H])C([H])([H])c2c([H])c(OC([H])([H])C3([H])C([H])([H])C([H])([H])C4([H])C([H])(N([H])C(=O)N5C([H])([H])C([H])([H])C([H])([H])C([H])(n6nc(-c7c([H])c([H])c(Oc8c([H])c([H])c(F)c([H])c8F)c([H])c7[H])c(C(=O)N([H])[H])c6N([H])[H])C5([H])[H])C([H])([H])C([H])([H])[N+]34[H])c([H])c([H])c2C1([H])[H]

$$$$
61:0:0
     RDKit          3D

 93102  0  0  1  0  0  0  0  0999 V2000
  -28.8870  -22.2600   18.3590 C   0  0  0  0  0  0  0  0  0  0  0  0
  -28.1110  -23.2500   18.8160 N   0  0  0  0  0  0  0  0  0  0  0  0
  -30.0140  -22.4640   17.9080 O   0  0  0  0  0  0  0  0  0  0  0  0
  -27.1940  -23.0020   19.1660 H   0  0  0  0  0  0  0  0  0  0  0  0
  -28.2970  -20.8440   18.3430 C   0  0  0  0  0  2  0  0  0  0  0  0
  -31.2530  -19.3920   18.4360 C   0  0  0  0  0  2  0  0  0  0  0  0
  -30.3280  -18.3140   17.8840 C   0  0  0  0  0  2  0  0  0  0  0  0
  -30.3050  -19.6110   19.5960 C   0  0  0  0  0  3  0  0  0  0  0  0
  -28.8340  -19.9130   19.4240 C   0  0  0  0  0  3  0  0  0  0  0  0
  -29.3870  -18.5380   19.0500 C   0  0  1  0  0  0  0  0  0  0  0  0
  -29.0160  -17.2680   19.8050 C   0  0  0  0  0  2  0  0  0  0  0  0
  -30.0690  -16.7940   20.8340 C   0  0  0  0  0  2  0  0  0  0  0  0
  -30.6440  -14.3970   20.5430 C   0  0  0  0  0  0  0  0  0  0  0  0
  -30.3530  -12.2690   19.3510 C   0  0  0  0  0  2  0  0  0  0  0  0
  -29.4140  -12.5250   18.1530 C   0  0  0  0  0  2  0  0  0  0  0  0
  -27.9360  -12.4000   18.5720 C   0  0  0  0  0  2  0  0  0  0  0  0
  -27.6100  -13.2090   19.8550 C   0  0  0  0  0  3  0  0  0  0  0  0
  -28.6540  -12.9190   20.9590 C   0  0  0  0  0  2  0  0  0  0  0  0
  -29.9900  -13.2170   20.4110 N   0  0  0  0  0  0  0  0  0  0  0  0
  -31.7480  -14.6250   20.0350 O   0  0  0  0  0  0  0  0  0  0  0  0
  -29.9090  -15.3680   21.1040 N   0  0  0  0  0  0  0  0  0  0  0  0
  -29.0320  -15.0770   21.5100 H   0  0  0  0  0  0  0  0  0  0  0  0
  -25.2090  -13.8370   20.5440 C   0  0  0  0  0  0  0  0  0  0  0  0
  -24.1340  -13.0730   20.9110 C   0  0  0  0  0  0  0  0  0  0  0  0
  -24.5890  -11.7190   20.8900 C   0  0  0  0  0  0  0  0  0  0  0  0
  -26.2510  -12.9480   20.3240 N   0  0  0  0  0  0  0  0  0  0  0  0
  -25.8780  -11.6690   20.5860 N   0  0  0  0  0  0  0  0  0  0  0  0
  -23.8570  -10.4610   21.0830 C   0  0  0  0  0  0  0  0  0  0  0  0
  -24.2990   -9.4840   22.0020 C   0  0  0  0  0  3  0  0  0  0  0  0
  -23.5700   -8.2900   22.1820 C   0  0  0  0  0  3  0  0  0  0  0  0
  -22.3850   -8.0650   21.4420 C   0  0  0  0  0  0  0  0  0  0  0  0
  -21.9620   -9.0300   20.5110 C   0  0  0  0  0  3  0  0  0  0  0  0
  -22.6930  -10.2160   20.3290 C   0  0  0  0  0  3  0  0  0  0  0  0
  -21.6260   -6.9240   21.5340 O   0  0  0  0  0  0  0  0  0  0  0  0
  -21.6050   -6.1600   22.6720 C   0  0  0  0  0  0  0  0  0  0  0  0
  -21.2360   -6.6980   23.9240 C   0  0  0  0  0  3  0  0  0  0  0  0
  -21.1580   -5.8630   25.0560 C   0  0  0  0  0  3  0  0  0  0  0  0
  -21.4420   -4.4890   24.9380 C   0  0  0  0  0  0  0  0  0  0  0  0
  -21.8040   -3.9490   23.6910 C   0  0  0  0  0  3  0  0  0  0  0  0
  -21.8820   -4.7810   22.5610 C   0  0  0  0  0  0  0  0  0  0  0  0
  -22.2110   -4.2520   21.3590 F   0  0  0  0  0  0  0  0  0  0  0  0
  -21.3620   -3.6850   26.0230 F   0  0  0  0  0  0  0  0  0  0  0  0
  -22.7380  -13.5580   21.1770 C   0  0  0  0  0  0  0  0  0  0  0  0
  -22.0060  -12.8670   22.0420 N   0  0  0  0  0  0  0  0  0  0  0  0
  -22.3060  -14.5820   20.6510 O   0  0  0  0  0  0  0  0  0  0  0  0
  -22.3710  -12.0380   22.4860 H   0  0  0  0  0  0  0  0  0  0  0  0
  -21.0670  -13.1710   22.2600 H   0  0  0  0  0  0  0  0  0  0  0  0
  -25.3820  -15.2070   20.3630 N   0  0  0  0  0  0  0  0  0  0  0  0
  -24.6180  -15.8670   20.4540 H   0  0  0  0  0  0  0  0  0  0  0  0
  -26.2360  -15.6360   20.0310 H   0  0  0  0  0  0  0  0  0  0  0  0
  -28.4420  -24.6780   18.7730 C   0  0  0  0  0  2  0  0  0  0  0  0
  -28.3260  -25.3240   20.1660 C   0  0  0  0  0  2  0  0  0  0  0  0
  -28.3960  -26.7520   20.1110 O   0  0  0  0  0  0  0  0  0  0  0  0
  -24.6020  -31.8810   23.2320 C   0  0  0  0  0  0  0  0  0  0  0  0
  -27.2070  -27.4500   20.1180 C   0  0  0  0  0  0  0  0  0  0  0  0
  -23.3760  -30.4820   21.6030 C   0  0  0  0  0  3  0  0  0  0  0  0
  -24.8090  -28.9490   20.1620 C   0  0  0  0  0  0  0  0  0  0  0  0
  -25.8980  -30.8450   21.3750 C   0  0  0  0  0  2  0  0  0  0  0  0
  -25.9750  -29.4760   20.7300 C   0  0  0  0  0  0  0  0  0  0  0  0
  -27.1780  -28.7380   20.6990 C   0  0  0  0  0  3  0  0  0  0  0  0
  -26.0170  -26.9310   19.5560 C   0  0  0  0  0  3  0  0  0  0  0  0
  -24.8240  -27.6740   19.5710 C   0  0  0  0  0  3  0  0  0  0  0  0
  -23.5680  -29.8070   20.2200 C   0  0  0  0  0  2  0  0  0  0  0  0
  -24.6440  -31.0820   22.1280 N   0  0  0  0  0  0  0  0  0  0  0  0
  -23.5260  -32.1530   23.7820 O   0  0  0  0  0  0  0  0  0  0  0  0
  -22.7360  -29.4580   22.5670 C   0  0  0  0  0  0  0  0  0  0  0  0
  -21.4100  -29.2770   22.4500 N   0  0  0  0  0  0  0  0  0  0  0  0
  -23.4250  -28.8300   23.3730 O   0  0  0  0  0  0  0  0  0  0  0  0
  -20.9150  -29.8350   21.7680 H   0  0  0  0  0  0  0  0  0  0  0  0
  -18.0400  -28.0840   22.9660 C   0  0  0  0  0  0  0  0  0  0  0  0
  -20.5980  -28.3410   23.2250 C   0  0  0  0  0  3  0  0  0  0  0  0
  -20.6980  -26.9080   22.6520 C   0  0  0  0  0  2  0  0  0  0  0  0
  -19.5910  -26.5830   21.6440 C   0  0  0  0  0  2  0  0  0  0  0  0
  -18.2110  -26.7320   22.2930 C   0  0  0  0  0  2  0  0  0  0  0  0
  -19.1600  -28.8460   23.3890 C   0  0  0  0  0  0  0  0  0  0  0  0
  -18.9460  -30.1110   23.9760 C   0  0  0  0  0  3  0  0  0  0  0  0
  -17.6430  -30.6160   24.1440 C   0  0  0  0  0  3  0  0  0  0  0  0
  -16.5350  -29.8510   23.7390 C   0  0  0  0  0  3  0  0  0  0  0  0
  -16.7350  -28.5870   23.1550 C   0  0  0  0  0  3  0  0  0  0  0  0
  -25.8950  -32.5080   23.8410 C   0  0  0  0  0  3  0  0  0  0  0  0
  -25.5900  -33.9030   24.1830 N   0  0  0  0  0  0  0  0  0  0  0  0
  -25.9120  -34.9590   23.4240 C   0  0  0  0  0  0  0  0  0  0  0  0
  -26.5710  -34.8610   22.3850 O   0  0  0  0  0  0  0  0  0  0  0  0
  -25.0100  -34.0540   24.9950 H   0  0  0  0  0  0  0  0  0  0  0  0
  -24.1760  -36.7480   23.0950 C   0  0  0  0  0  1  0  0  0  0  0  0
  -25.4270  -36.3440   23.8920 C   0  0  0  0  0  3  0  0  0  0  0  0
  -27.5710  -37.2240   24.7020 C   0  0  0  0  0  1  0  0  0  0  0  0
  -26.4560  -37.4000   23.7740 N   0  0  0  0  0  0  0  0  0  0  0  0
  -26.0510  -38.3180   23.9340 H   0  0  0  0  0  0  0  0  0  0  0  0
  -26.4320  -31.7260   25.1020 C   0  0  1  0  0  0  0  0  0  0  0  0
  -25.3570  -31.4780   26.1840 C   0  0  0  0  0  1  0  0  0  0  0  0
  -27.0100  -30.3540   24.6860 C   0  0  0  0  0  1  0  0  0  0  0  0
  -27.5920  -32.5160   25.7530 C   0  0  0  0  0  1  0  0  0  0  0  0
  1  2  1  0
  2  4  1  0
  3  1  2  0
  5  1  1  0
  7  6  1  0
  7 10  1  0
  8  6  1  0
  9  5  1  0
  9  8  1  0
 10  9  1  0
 10  8  1  0
 10 11  1  1
 11 12  1  0
 12 21  1  0
 13 21  1  0
 14 19  1  0
 15 16  1  0
 15 14  1  0
 17 16  1  0
 17 26  1  0
 17 18  1  0
 19 13  1  0
 19 18  1  0
 20 13  2  0
 21 22  1  0
 23 24  2  0
 24 43  1  0
 25 24  1  0
 25 28  1  0
 26 23  1  0
 26 27  1  0
 27 25  2  0
 28 29  1  0
 29 30  2  0
 31 34  1  0
 31 30  1  0
 32 31  2  0
 33 32  1  0
 33 28  2  0
 34 35  1  0
 35 36  1  0
 36 37  2  0
 38 37  1  0
 38 42  1  0
 39 38  2  0
 40 35  2  0
 40 39  1  0
 41 40  1  0
 43 44  1  0
 44 47  1  0
 44 46  1  0
 45 43  2  0
 48 49  1  0
 48 23  1  0
 50 48  1  0
 51  2  1  0
 51 52  1  0
 53 55  1  0
 53 52  1  0
 54 65  2  0
 55 60  1  0
 56 64  1  0
 56 66  1  0
 57 63  1  0
 57 59  1  0
 58 64  1  0
 59 58  1  0
 60 59  2  0
 61 62  1  0
 61 55  2  0
 62 57  2  0
 63 56  1  0
 64 54  1  0
 66 68  2  0
 67 66  1  0
 69 67  1  0
 70 79  2  0
 70 75  1  0
 71 67  1  0
 71 75  1  0
 72 71  1  0
 73 74  1  0
 73 72  1  0
 74 70  1  0
 75 76  2  0
 76 77  1  0
 78 77  2  0
 79 78  1  0
 80 54  1  0
 80 81  1  0
 80 90  1  0
 81 84  1  0
 82 86  1  0
 82 81  1  0
 83 82  2  0
 86 85  1  0
 88 86  1  0
 88 89  1  0
 88 87  1  0
 90 93  1  1
 90 91  1  0
 92 90  1  0
M  ISO  4  13 100  21 100  52 101  53 101
M  END
>  <TORSDO>  (62) 
F 22

>  <SCORE>  (62) 
-13.190

>  <name>  (62) 
61

>  <ligand_id>  (62) 
61

>  <original_smiles>  (62) 
[H]c1c([H])c([H])c2c(c1[H])C([H])([H])C([H])([H])C([H])([H])C2([H])N([H])C(=O)C1([H])N(C(=O)C([H])(N([H])C(=O)C([H])(N([H])C([H])([H])[H])C([H])([H])[H])C(C([H])([H])[H])(C([H])([H])[H])C([H])([H])[H])C([H])([H])c2c([H])c(OC([H])([H])C([H])([H])N([H])C(=O)C([H])([H])C3([H])C4([H])C([H])([H])C([H])([H])C34C([H])([H])C([H])([H])N([H])C(=O)N3C([H])([H])C([H])([H])C([H])([H])C([H])(n4nc(-c5c([H])c([H])c(Oc6c([H])c([H])c(F)c([H])c6F)c([H])c5[H])c(C(=O)N([H])[H])c4N([H])[H])C3([H])[H])c([H])c([H])c2C1([H])[H]

>  <smiles>  (62) 
[H]c1c([H])c([H])c2c(c1[H])C([H])([H])C([H])([H])C([H])([H])C2([H])N([H])C(=O)C1([H])N(C(=O)C([H])(N([H])C(=O)C([H])(N([H])C([H])([H])[H])C([H])([H])[H])C(C([H])([H])[H])(C([H])([H])[H])C([H])([H])[H])C([H])([H])c2c([H])c(OC([H])([H])C([H])([H])N([H])C(=O)C([H])([H])C3([H])C4([H])C([H])([H])C([H])([H])C34C([H])([H])C([H])([H])N([H])C(=O)N3C([H])([H])C([H])([H])C([H])([H])C([H])(n4nc(-c5c([H])c([H])c(Oc6c([H])c([H])c(F)c([H])c6F)c([H])c5[H])c(C(=O)N([H])[H])c4N([H])[H])C3([H])[H])c([H])c([H])c2C1([H])[H]

$$$$
62:0:0
     RDKit          3D

 93103  0  0  1  0  0  0  0  0999 V2000
  -29.1220  -20.9130   20.6350 C   0  0  0  0  0  3  0  0  0  0  0  0
  -29.8480  -18.3610   22.3980 C   0  0  0  0  0  2  0  0  0  0  0  0
  -31.2050  -19.1740   20.4870 C   0  0  0  0  0  2  0  0  0  0  0  0
  -31.0710  -18.0220   21.5170 C   0  0  1  0  0  0  0  0  0  0  0  0
  -29.2350  -18.1800   20.9850 C   0  0  2  0  0  0  0  0  0  0  0  0
  -29.7170  -19.4500   20.1630 C   0  0  0  0  0  3  0  0  0  0  0  0
  -30.1380  -16.8400   21.1000 C   0  0  0  0  0  3  0  0  0  0  0  0
  -31.1880  -14.7660   19.9550 C   0  0  0  0  0  0  0  0  0  0  0  0
  -30.7720  -12.5540   18.8810 C   0  0  0  0  0  2  0  0  0  0  0  0
  -29.7850  -12.7190   17.7070 C   0  0  0  0  0  2  0  0  0  0  0  0
  -28.3350  -12.5890   18.2080 C   0  0  0  0  0  2  0  0  0  0  0  0
  -28.0610  -13.4540   19.4680 C   0  0  0  0  0  3  0  0  0  0  0  0
  -29.1720  -13.3080   20.5310 C   0  0  0  0  0  2  0  0  0  0  0  0
  -30.4460  -13.6090   19.8700 N   0  0  0  0  0  0  0  0  0  0  0  0
  -32.3680  -14.7540   19.6070 O   0  0  0  0  0  0  0  0  0  0  0  0
  -30.5520  -15.9950   19.9290 N   0  0  0  0  0  0  0  0  0  0  0  0
  -30.9780  -16.5720   19.2190 H   0  0  0  0  0  0  0  0  0  0  0  0
  -25.7320  -14.1080   20.3180 C   0  0  0  0  0  0  0  0  0  0  0  0
  -24.6570  -13.3620   20.7180 C   0  0  0  0  0  0  0  0  0  0  0  0
  -25.0720  -11.9960   20.6420 C   0  0  0  0  0  0  0  0  0  0  0  0
  -26.7330  -13.1980   20.0200 N   0  0  0  0  0  0  0  0  0  0  0  0
  -26.3460  -11.9220   20.2780 N   0  0  0  0  0  0  0  0  0  0  0  0
  -24.3120  -10.7540   20.8380 C   0  0  0  0  0  0  0  0  0  0  0  0
  -24.7110   -9.7850   21.7840 C   0  0  0  0  0  3  0  0  0  0  0  0
  -23.9510   -8.6100   21.9690 C   0  0  0  0  0  3  0  0  0  0  0  0
  -22.7780   -8.3960   21.2070 C   0  0  0  0  0  0  0  0  0  0  0  0
  -22.3990   -9.3540   20.2500 C   0  0  0  0  0  3  0  0  0  0  0  0
  -23.1590  -10.5200   20.0630 C   0  0  0  0  0  3  0  0  0  0  0  0
  -21.9920   -7.2720   21.3010 O   0  0  0  0  0  0  0  0  0  0  0  0
  -21.8520   -6.5880   22.4810 C   0  0  0  0  0  0  0  0  0  0  0  0
  -21.3690   -7.2120   23.6520 C   0  0  0  0  0  3  0  0  0  0  0  0
  -21.1770   -6.4560   24.8260 C   0  0  0  0  0  3  0  0  0  0  0  0
  -21.4550   -5.0760   24.8290 C   0  0  0  0  0  0  0  0  0  0  0  0
  -21.9300   -4.4510   23.6620 C   0  0  0  0  0  3  0  0  0  0  0  0
  -22.1250   -5.2040   22.4920 C   0  0  0  0  0  0  0  0  0  0  0  0
  -22.5640   -4.5940   21.3650 F   0  0  0  0  0  0  0  0  0  0  0  0
  -21.2610   -4.3460   25.9530 F   0  0  0  0  0  0  0  0  0  0  0  0
  -23.2900  -13.8780   21.0600 C   0  0  0  0  0  0  0  0  0  0  0  0
  -22.5860  -13.1960   21.9570 N   0  0  0  0  0  0  0  0  0  0  0  0
  -22.8580  -14.9200   20.5670 O   0  0  0  0  0  0  0  0  0  0  0  0
  -22.9530  -12.3520   22.3720 H   0  0  0  0  0  0  0  0  0  0  0  0
  -21.6710  -13.5200   22.2350 H   0  0  0  0  0  0  0  0  0  0  0  0
  -25.9380  -15.4750   20.1540 N   0  0  0  0  0  0  0  0  0  0  0  0
  -25.1980  -16.1560   20.2770 H   0  0  0  0  0  0  0  0  0  0  0  0
  -26.7950  -15.8770   19.7950 H   0  0  0  0  0  0  0  0  0  0  0  0
  -27.6670  -20.7810   20.8240 N   0  0  0  0  0  4  0  0  0  0  0  0
  -27.4650  -20.0160   21.4430 H   0  0  0  0  0  0  0  0  0  0  0  0
  -27.2130  -20.6050   19.9440 H   0  0  0  0  0  0  0  0  0  0  0  0
  -27.2830  -21.6190   21.2200 H   0  0  0  0  0  0  0  0  0  0  0  0
  -29.3480  -22.2890   19.8130 C   0  0  0  0  0  2  0  0  0  0  0  0
  -29.0950  -23.7400   20.5160 C   0  0  0  0  0  2  0  0  0  0  0  0
  -28.2420  -24.9080   19.7950 C   0  0  0  0  0  2  0  0  0  0  0  0
  -28.3730  -26.3570   20.1750 O   0  0  0  0  0  0  0  0  0  0  0  0
  -24.7210  -31.8560   23.1700 C   0  0  0  0  0  0  0  0  0  0  0  0
  -27.2710  -27.2440   20.0950 C   0  0  0  0  0  0  0  0  0  0  0  0
  -23.4900  -30.4570   21.5510 C   0  0  0  0  0  3  0  0  0  0  0  0
  -24.9160  -28.8990   20.1050 C   0  0  0  0  0  0  0  0  0  0  0  0
  -26.0310  -30.7560   21.3360 C   0  0  0  0  0  2  0  0  0  0  0  0
  -26.0940  -29.3720   20.6940 C   0  0  0  0  0  0  0  0  0  0  0  0
  -27.2680  -28.5520   20.6860 C   0  0  0  0  0  3  0  0  0  0  0  0
  -26.0740  -26.8520   19.4510 C   0  0  0  0  0  3  0  0  0  0  0  0
  -24.9110  -27.6470   19.4730 C   0  0  0  0  0  3  0  0  0  0  0  0
  -23.6810  -29.7750   20.1700 C   0  0  0  0  0  2  0  0  0  0  0  0
  -24.7670  -31.0430   22.0740 N   0  0  0  0  0  0  0  0  0  0  0  0
  -23.6450  -32.1410   23.7180 O   0  0  0  0  0  0  0  0  0  0  0  0
  -22.8360  -29.4500   22.5260 C   0  0  0  0  0  0  0  0  0  0  0  0
  -21.5110  -29.2540   22.3980 N   0  0  0  0  0  0  0  0  0  0  0  0
  -23.5200  -28.8460   23.3550 O   0  0  0  0  0  0  0  0  0  0  0  0
  -21.0150  -29.7840   21.6960 H   0  0  0  0  0  0  0  0  0  0  0  0
  -18.1590  -27.9900   22.8790 C   0  0  0  0  0  0  0  0  0  0  0  0
  -20.7060  -28.3160   23.1810 C   0  0  0  0  0  3  0  0  0  0  0  0
  -20.8510  -26.8750   22.6410 C   0  0  0  0  0  2  0  0  0  0  0  0
  -19.7730  -26.5030   21.6190 C   0  0  0  0  0  2  0  0  0  0  0  0
  -18.3760  -26.6300   22.2370 C   0  0  0  0  0  2  0  0  0  0  0  0
  -19.2530  -28.7880   23.3080 C   0  0  0  0  0  0  0  0  0  0  0  0
  -18.9960  -30.0590   23.8670 C   0  0  0  0  0  3  0  0  0  0  0  0
  -17.6780  -30.5320   24.0050 C   0  0  0  0  0  3  0  0  0  0  0  0
  -16.5980  -29.7310   23.5960 C   0  0  0  0  0  3  0  0  0  0  0  0
  -16.8400  -28.4620   23.0360 C   0  0  0  0  0  3  0  0  0  0  0  0
  -26.0120  -32.4880   23.7720 C   0  0  0  0  0  3  0  0  0  0  0  0
  -25.7030  -33.8810   24.1290 N   0  0  0  0  0  0  0  0  0  0  0  0
  -26.0120  -34.9470   23.3800 C   0  0  0  0  0  0  0  0  0  0  0  0
  -26.6580  -34.8620   22.3320 O   0  0  0  0  0  0  0  0  0  0  0  0
  -25.1190  -34.0180   24.9410 H   0  0  0  0  0  0  0  0  0  0  0  0
  -24.2640  -36.7370   23.1010 C   0  0  0  0  0  1  0  0  0  0  0  0
  -25.5290  -36.3250   23.8710 C   0  0  0  0  0  3  0  0  0  0  0  0
  -27.6780  -37.2150   24.6580 C   0  0  0  0  0  1  0  0  0  0  0  0
  -26.5500  -37.3850   23.7460 N   0  0  0  0  0  0  0  0  0  0  0  0
  -26.1420  -38.3000   23.9170 H   0  0  0  0  0  0  0  0  0  0  0  0
  -26.5610  -31.7020   25.0270 C   0  0  1  0  0  0  0  0  0  0  0  0
  -25.4940  -31.4420   26.1150 C   0  0  0  0  0  1  0  0  0  0  0  0
  -27.1450  -30.3330   24.6060 C   0  0  0  0  0  1  0  0  0  0  0  0
  -27.7160  -32.4970   25.6800 C   0  0  0  0  0  1  0  0  0  0  0  0
  1 50  1  0
  1 46  1  0
  4  3  1  6
  4  2  1  0
  5  7  1  0
  5  4  1  0
  5  2  1  1
  6  3  1  0
  6  1  1  0
  6  5  1  0
  7 16  1  0
  7  4  1  0
  9 14  1  0
 10 11  1  0
 10  9  1  0
 12 11  1  0
 12 21  1  0
 12 13  1  0
 14  8  1  0
 14 13  1  0
 15  8  2  0
 16  8  1  0
 17 16  1  0
 18 19  2  0
 19 38  1  0
 20 19  1  0
 20 23  1  0
 21 22  1  0
 21 18  1  0
 22 20  2  0
 23 24  1  0
 24 25  2  0
 26 29  1  0
 26 25  1  0
 27 26  2  0
 28 27  1  0
 28 23  2  0
 29 30  1  0
 30 35  2  0
 30 31  1  0
 31 32  2  0
 32 33  1  0
 33 37  1  0
 34 33  2  0
 35 34  1  0
 36 35  1  0
 38 39  1  0
 39 42  1  0
 39 41  1  0
 40 38  2  0
 43 44  1  0
 43 18  1  0
 45 43  1  0
 46 49  1  0
 46 47  1  0
 48 46  1  0
 50 51  1  0
 52 53  1  0
 52 51  1  0
 54 65  2  0
 55 53  1  0
 55 60  1  0
 56 64  1  0
 56 66  1  0
 57 63  1  0
 57 59  1  0
 58 64  1  0
 59 58  1  0
 60 59  2  0
 61 62  1  0
 61 55  2  0
 62 57  2  0
 63 56  1  0
 64 54  1  0
 66 68  2  0
 67 66  1  0
 69 67  1  0
 70 79  2  0
 70 75  1  0
 71 67  1  0
 71 75  1  0
 72 71  1  0
 73 74  1  0
 73 72  1  0
 74 70  1  0
 75 76  2  0
 76 77  1  0
 78 77  2  0
 79 78  1  0
 80 54  1  0
 80 81  1  0
 80 90  1  0
 81 84  1  0
 82 86  1  0
 82 81  1  0
 83 82  2  0
 86 85  1  0
 88 86  1  0
 88 89  1  0
 88 87  1  0
 90 93  1  1
 90 91  1  0
 92 90  1  0
M  ISO  4   8 100  16 100  52 101  53 101
M  END
>  <TORSDO>  (63) 
F 21

>  <SCORE>  (63) 
-12.380

>  <name>  (63) 
62

>  <ligand_id>  (63) 
62

>  <original_smiles>  (63) 
[H]c1c([H])c([H])c2c(c1[H])C([H])([H])C([H])([H])C([H])([H])C2([H])N([H])C(=O)C1([H])N(C(=O)C([H])(N([H])C(=O)C([H])(N([H])C([H])([H])[H])C([H])([H])[H])C(C([H])([H])[H])(C([H])([H])[H])C([H])([H])[H])C([H])([H])c2c([H])c(OC([H])([H])C([H])([H])C([H])([H])C([H])(C3([H])C([H])([H])C4([H])C([H])([H])C3([H])C4([H])N([H])C(=O)N3C([H])([H])C([H])([H])C([H])([H])C([H])(n4nc(-c5c([H])c([H])c(Oc6c([H])c([H])c(F)c([H])c6F)c([H])c5[H])c(C(=O)N([H])[H])c4N([H])[H])C3([H])[H])[N+]([H])([H])[H])c([H])c([H])c2C1([H])[H]

>  <smiles>  (63) 
[H]c1c([H])c([H])c2c(c1[H])C([H])([H])C([H])([H])C([H])([H])C2([H])N([H])C(=O)C1([H])N(C(=O)C([H])(N([H])C(=O)C([H])(N([H])C([H])([H])[H])C([H])([H])[H])C(C([H])([H])[H])(C([H])([H])[H])C([H])([H])[H])C([H])([H])c2c([H])c(OC([H])([H])C([H])([H])C([H])([H])C([H])(C3([H])C([H])([H])C4([H])C([H])([H])C3([H])C4([H])N([H])C(=O)N3C([H])([H])C([H])([H])C([H])([H])C([H])(n4nc(-c5c([H])c([H])c(Oc6c([H])c([H])c(F)c([H])c6F)c([H])c5[H])c(C(=O)N([H])[H])c4N([H])[H])C3([H])[H])[N+]([H])([H])[H])c([H])c([H])c2C1([H])[H]

$$$$
63:0:0
     RDKit          3D

 84 88  0  0  1  0  0  0  0  0999 V2000
  -28.9170  -21.4610   19.5990 C   0  0  0  0  0 15  0  0  0  0  0  0
  -29.4910  -19.5500   21.5430 C   0  0  0  0  0  1  0  0  0  0  0  0
  -31.2320  -19.8790   19.7960 C   0  0  0  0  0  1  0  0  0  0  0  0
  -29.7450  -19.5740   20.0290 C   0  0  0  0  0  3  0  0  0  0  0  0
  -30.4530  -16.2160   19.6660 C   0  0  0  0  0  0  0  0  0  0  0  0
  -30.6050  -13.5860   18.8560 C   0  0  0  0  0  2  0  0  0  0  0  0
  -29.6800  -12.9640   17.7570 C   0  0  0  0  0  2  0  0  0  0  0  0
  -28.3270  -12.5320   18.3350 C   0  0  0  0  0  2  0  0  0  0  0  0
  -27.8220  -13.5740   19.3520 C   0  0  0  0  0  3  0  0  0  0  0  0
  -28.9000  -14.0630   20.3590 C   0  0  0  0  0  2  0  0  0  0  0  0
  -29.9460  -14.7990   19.5780 N   0  0  0  0  0  0  0  0  0  0  0  0
  -31.6940  -16.0660   19.5620 O   0  0  0  0  0  0  0  0  0  0  0  0
  -29.7180  -17.6950   19.6770 N   0  0  0  0  0  0  0  0  0  0  0  0
  -28.7460  -17.4630   19.5220 H   0  0  0  0  0  0  0  0  0  0  0  0
  -25.5350  -14.0830   20.3070 C   0  0  0  0  0  0  0  0  0  0  0  0
  -24.4990  -13.3010   20.7260 C   0  0  0  0  0  0  0  0  0  0  0  0
  -24.9560  -11.9500   20.6310 C   0  0  0  0  0  0  0  0  0  0  0  0
  -26.5550  -13.2150   19.9720 N   0  0  0  0  0  0  0  0  0  0  0  0
  -26.2260  -11.9200   20.2300 N   0  0  0  0  0  0  0  0  0  0  0  0
  -24.2290  -10.6900   20.8400 C   0  0  0  0  0  0  0  0  0  0  0  0
  -24.6520   -9.7380   21.7940 C   0  0  0  0  0  3  0  0  0  0  0  0
  -23.9180   -8.5490   21.9940 C   0  0  0  0  0  3  0  0  0  0  0  0
  -22.7460   -8.3020   21.2420 C   0  0  0  0  0  0  0  0  0  0  0  0
  -22.3390   -9.2410   20.2790 C   0  0  0  0  0  3  0  0  0  0  0  0
  -23.0740  -10.4220   20.0760 C   0  0  0  0  0  3  0  0  0  0  0  0
  -21.9850   -7.1630   21.3520 O   0  0  0  0  0  0  0  0  0  0  0  0
  -21.8690   -6.4840   22.5390 C   0  0  0  0  0  0  0  0  0  0  0  0
  -21.3100   -7.0860   23.6880 C   0  0  0  0  0  3  0  0  0  0  0  0
  -21.1440   -6.3310   24.8660 C   0  0  0  0  0  3  0  0  0  0  0  0
  -21.5280   -4.9770   24.8970 C   0  0  0  0  0  0  0  0  0  0  0  0
  -22.0830   -4.3760   23.7530 C   0  0  0  0  0  3  0  0  0  0  0  0
  -22.2490   -5.1270   22.5760 C   0  0  0  0  0  0  0  0  0  0  0  0
  -22.7630   -4.5370   21.4700 F   0  0  0  0  0  0  0  0  0  0  0  0
  -21.3630   -4.2500   26.0270 F   0  0  0  0  0  0  0  0  0  0  0  0
  -23.1260  -13.7830   21.0910 C   0  0  0  0  0  0  0  0  0  0  0  0
  -22.4560  -13.0910   22.0050 N   0  0  0  0  0  0  0  0  0  0  0  0
  -22.6610  -14.8120   20.6010 O   0  0  0  0  0  0  0  0  0  0  0  0
  -22.8480  -12.2600   22.4210 H   0  0  0  0  0  0  0  0  0  0  0  0
  -21.5380  -13.4000   22.2940 H   0  0  0  0  0  0  0  0  0  0  0  0
  -25.6860  -15.4570   20.1480 N   0  0  0  0  0  0  0  0  0  0  0  0
  -24.9250  -16.1030   20.3260 H   0  0  0  0  0  0  0  0  0  0  0  0
  -26.5080  -15.9070   19.7650 H   0  0  0  0  0  0  0  0  0  0  0  0
  -28.4070  -23.3990   20.2720 C   0  0  0  0  0 15  0  0  0  0  0  0
  -28.3200  -25.2880   20.0760 O   0  0  0  0  0  1  0  0  0  0  0  0
  -24.5610  -31.7740   23.0230 C   0  0  0  0  0  0  0  0  0  0  0  0
  -27.3040  -26.5620   20.1160 C   0  0  0  0  0  0  0  0  0  0  0  0
  -23.4570  -30.3210   21.3820 C   0  0  0  0  0  3  0  0  0  0  0  0
  -24.9810  -28.6720   20.0170 C   0  0  0  0  0  0  0  0  0  0  0  0
  -26.0430  -30.4870   21.3190 C   0  0  0  0  0  2  0  0  0  0  0  0
  -26.1640  -29.0270   20.6730 C   0  0  0  0  0  0  0  0  0  0  0  0
  -27.2990  -28.0110   20.6750 C   0  0  0  0  0  3  0  0  0  0  0  0
  -26.0670  -26.4800   19.4040 C   0  0  0  0  0  3  0  0  0  0  0  0
  -24.9860  -27.4290   19.3560 C   0  0  0  0  0  3  0  0  0  0  0  0
  -23.7520  -29.6120   20.0270 C   0  0  0  0  0  2  0  0  0  0  0  0
  -24.7120  -30.9020   21.9600 N   0  0  0  0  0  0  0  0  0  0  0  0
  -23.4460  -32.0450   23.5060 O   0  0  0  0  0  0  0  0  0  0  0  0
  -22.7400  -29.3430   22.3550 C   0  0  0  0  0  0  0  0  0  0  0  0
  -21.4090  -29.1730   22.2360 N   0  0  0  0  0  0  0  0  0  0  0  0
  -23.4030  -28.7270   23.1940 O   0  0  0  0  0  0  0  0  0  0  0  0
  -20.9200  -29.7200   21.5400 H   0  0  0  0  0  0  0  0  0  0  0  0
  -18.0380  -27.9110   22.7850 C   0  0  0  0  0  0  0  0  0  0  0  0
  -20.6000  -28.2160   23.0050 C   0  0  0  0  0  3  0  0  0  0  0  0
  -20.7100  -26.7930   22.4070 C   0  0  0  0  0  2  0  0  0  0  0  0
  -19.5970  -26.4720   21.4050 C   0  0  0  0  0  2  0  0  0  0  0  0
  -18.2240  -26.5800   22.0740 C   0  0  0  0  0  2  0  0  0  0  0  0
  -19.1520  -28.6870   23.2070 C   0  0  0  0  0  0  0  0  0  0  0  0
  -18.9190  -29.9260   23.8400 C   0  0  0  0  0  3  0  0  0  0  0  0
  -17.6090  -30.3950   24.0480 C   0  0  0  0  0  3  0  0  0  0  0  0
  -16.5100  -29.6180   23.6370 C   0  0  0  0  0  3  0  0  0  0  0  0
  -16.7260  -28.3780   23.0120 C   0  0  0  0  0  3  0  0  0  0  0  0
  -25.7780  -32.4880   23.6860 C   0  0  0  0  0  3  0  0  0  0  0  0
  -25.3960  -33.8840   23.9940 N   0  0  0  0  0  0  0  0  0  0  0  0
  -25.7140  -34.9580   23.2580 C   0  0  0  0  0  0  0  0  0  0  0  0
  -26.4120  -34.8800   22.2450 O   0  0  0  0  0  0  0  0  0  0  0  0
  -24.7720  -34.0120   24.7780 H   0  0  0  0  0  0  0  0  0  0  0  0
  -23.9490  -36.7210   22.8780 C   0  0  0  0  0  1  0  0  0  0  0  0
  -25.1810  -36.3350   23.7140 C   0  0  0  0  0  3  0  0  0  0  0  0
  -27.2580  -37.2920   24.6150 C   0  0  0  0  0  1  0  0  0  0  0  0
  -26.1870  -37.4180   23.6300 N   0  0  0  0  0  0  0  0  0  0  0  0
  -25.7500  -38.3270   23.7510 H   0  0  0  0  0  0  0  0  0  0  0  0
  -26.2630  -31.7730   25.0100 C   0  0  1  0  0  0  0  0  0  0  0  0
  -25.1320  -31.5180   26.0340 C   0  0  0  0  0  1  0  0  0  0  0  0
  -26.9210  -30.4110   24.6990 C   0  0  0  0  0  1  0  0  0  0  0  0
  -27.3470  -32.6330   25.7030 C   0  0  0  0  0  1  0  0  0  0  0  0
  3  4  1  0
  4  2  1  0
  5 13  1  0
  6 11  1  0
  7  8  1  0
  7  6  1  0
  9  8  1  0
  9 18  1  0
  9 10  1  0
 11  5  1  0
 11 10  1  0
 12  5  2  0
 13  4  1  0
 14 13  1  0
 15 16  2  0
 16 35  1  0
 17 16  1  0
 17 20  1  0
 18 19  1  0
 18 15  1  0
 19 17  2  0
 20 21  1  0
 21 22  2  0
 23 26  1  0
 23 22  1  0
 24 23  2  0
 25 24  1  0
 25 20  2  0
 26 27  1  0
 27 32  2  0
 27 28  1  0
 28 29  2  0
 29 30  1  0
 30 34  1  0
 31 30  2  0
 32 31  1  0
 33 32  1  0
 35 36  1  0
 36 39  1  0
 36 38  1  0
 37 35  2  0
 40 15  1  0
 40 41  1  0
 42 40  1  0
 44 46  1  0
 45 56  2  0
 46 51  1  0
 47 55  1  0
 47 57  1  0
 48 54  1  0
 48 50  1  0
 49 55  1  0
 50 51  2  0
 50 49  1  0
 52 46  2  0
 53 52  1  0
 53 48  2  0
 54 47  1  0
 55 45  1  0
 57 59  2  0
 58 57  1  0
 60 58  1  0
 61 70  2  0
 61 66  1  0
 62 58  1  0
 62 66  1  0
 63 62  1  0
 64 65  1  0
 64 63  1  0
 65 61  1  0
 66 67  2  0
 67 68  1  0
 69 68  2  0
 70 69  1  0
 71 45  1  0
 71 72  1  0
 71 81  1  0
 72 75  1  0
 73 77  1  0
 73 72  1  0
 74 73  2  0
 77 76  1  0
 79 77  1  0
 79 80  1  0
 79 78  1  0
 81 84  1  1
 81 82  1  0
 83 81  1  0
M  ISO  4   5 100  13 100  43 101  44 101
M  END
>  <TORSDO>  (64) 
F 18

>  <SCORE>  (64) 
-15.259

>  <name>  (64) 
63

>  <ligand_id>  (64) 
63

>  <original_smiles>  (64) 
[H]c1c([H])c([H])c2c(c1[H])C([H])([H])C([H])([H])C([H])([H])C2([H])N([H])C(=O)C1([H])N(C(=O)C([H])(N([H])C(=O)C([H])(N([H])C([H])([H])[H])C([H])([H])[H])C(C([H])([H])[H])(C([H])([H])[H])C([H])([H])[H])C([H])([H])c2c([H])c(OC([H])([H])C([H])([H])C(N([H])C(=O)N3C([H])([H])C([H])([H])C([H])([H])C([H])(n4nc(-c5c([H])c([H])c(Oc6c([H])c([H])c(F)c([H])c6F)c([H])c5[H])c(C(=O)N([H])[H])c4N([H])[H])C3([H])[H])(C([H])([H])[H])C([H])([H])[H])c([H])c([H])c2C1([H])[H]

>  <smiles>  (64) 
[H]c1c([H])c([H])c2c(c1[H])C([H])([H])C([H])([H])C([H])([H])C2([H])N([H])C(=O)C1([H])N(C(=O)C([H])(N([H])C(=O)C([H])(N([H])C([H])([H])[H])C([H])([H])[H])C(C([H])([H])[H])(C([H])([H])[H])C([H])([H])[H])C([H])([H])c2c([H])c(OC([H])([H])C([H])([H])C(N([H])C(=O)N3C([H])([H])C([H])([H])C([H])([H])C([H])(n4nc(-c5c([H])c([H])c(Oc6c([H])c([H])c(F)c([H])c6F)c([H])c5[H])c(C(=O)N([H])[H])c4N([H])[H])C3([H])[H])(C([H])([H])[H])C([H])([H])[H])c([H])c([H])c2C1([H])[H]

$$$$
64:0:0
     RDKit          3D

 90 97  0  0  1  0  0  0  0  0999 V2000
  -28.4950  -22.3750   20.7040 C   0  0  0  0  0  0  0  0  0  0  0  0
  -29.0550  -21.2060   20.2220 N   0  0  0  0  0  0  0  0  0  0  0  0
  -27.7440  -22.3260   21.6790 O   0  0  0  0  0  0  0  0  0  0  0  0
  -29.6600  -21.3210   19.4180 H   0  0  0  0  0  0  0  0  0  0  0  0
  -28.7870  -23.8100   20.0620 C   0  0  0  0  0  3  0  0  0  0  0  0
  -28.0970  -25.1000   20.7310 C   0  0  0  0  0  3  0  0  0  0  0  0
  -28.3230  -26.4790   20.2040 O   0  0  0  0  0  0  0  0  0  0  0  0
  -24.5970  -31.8840   23.2350 C   0  0  0  0  0  0  0  0  0  0  0  0
  -27.2190  -27.3440   20.1730 C   0  0  0  0  0  0  0  0  0  0  0  0
  -23.3990  -30.4870   21.5900 C   0  0  0  0  0  3  0  0  0  0  0  0
  -24.8550  -28.9500   20.1540 C   0  0  0  0  0  0  0  0  0  0  0  0
  -25.9360  -30.8220   21.4010 C   0  0  0  0  0  2  0  0  0  0  0  0
  -26.0220  -29.4450   20.7490 C   0  0  0  0  0  0  0  0  0  0  0  0
  -27.2120  -28.6580   20.7410 C   0  0  0  0  0  3  0  0  0  0  0  0
  -26.0340  -26.9060   19.5470 C   0  0  0  0  0  3  0  0  0  0  0  0
  -24.8630  -27.6860   19.5420 C   0  0  0  0  0  3  0  0  0  0  0  0
  -23.6140  -29.8170   20.2070 C   0  0  0  0  0  2  0  0  0  0  0  0
  -24.6640  -31.0810   22.1330 N   0  0  0  0  0  0  0  0  0  0  0  0
  -23.5140  -32.1550   23.7700 O   0  0  0  0  0  0  0  0  0  0  0  0
  -22.7420  -29.4640   22.5460 C   0  0  0  0  0  0  0  0  0  0  0  0
  -21.4150  -29.2850   22.4190 N   0  0  0  0  0  0  0  0  0  0  0  0
  -23.4240  -28.8370   23.3610 O   0  0  0  0  0  0  0  0  0  0  0  0
  -20.9250  -29.8430   21.7350 H   0  0  0  0  0  0  0  0  0  0  0  0
  -18.0380  -28.0870   22.9190 C   0  0  0  0  0  0  0  0  0  0  0  0
  -20.5980  -28.3430   23.1860 C   0  0  0  0  0  3  0  0  0  0  0  0
  -20.6970  -26.9130   22.6030 C   0  0  0  0  0  2  0  0  0  0  0  0
  -19.5930  -26.5960   21.5890 C   0  0  0  0  0  2  0  0  0  0  0  0
  -18.2130  -26.7400   22.2370 C   0  0  0  0  0  2  0  0  0  0  0  0
  -19.1590  -28.8450   23.3500 C   0  0  0  0  0  0  0  0  0  0  0  0
  -18.9410  -30.1070   23.9470 C   0  0  0  0  0  3  0  0  0  0  0  0
  -17.6380  -30.6060   24.1220 C   0  0  0  0  0  3  0  0  0  0  0  0
  -16.5320  -29.8440   23.7070 C   0  0  0  0  0  3  0  0  0  0  0  0
  -16.7340  -28.5860   23.1100 C   0  0  0  0  0  3  0  0  0  0  0  0
  -25.8790  -32.5200   23.8590 C   0  0  0  0  0  3  0  0  0  0  0  0
  -25.5690  -33.9200   24.1850 N   0  0  0  0  0  0  0  0  0  0  0  0
  -25.9090  -34.9710   23.4260 C   0  0  0  0  0  0  0  0  0  0  0  0
  -26.5840  -34.8630   22.3990 O   0  0  0  0  0  0  0  0  0  0  0  0
  -24.9720  -34.0780   24.9830 H   0  0  0  0  0  0  0  0  0  0  0  0
  -24.1910  -36.7680   23.0500 C   0  0  0  0  0  1  0  0  0  0  0  0
  -25.4210  -36.3600   23.8770 C   0  0  0  0  0  3  0  0  0  0  0  0
  -27.5460  -37.2370   24.7380 C   0  0  0  0  0  1  0  0  0  0  0  0
  -26.4590  -37.4080   23.7770 N   0  0  0  0  0  0  0  0  0  0  0  0
  -26.0550  -38.3300   23.9210 H   0  0  0  0  0  0  0  0  0  0  0  0
  -26.3920  -31.7510   25.1380 C   0  0  1  0  0  0  0  0  0  0  0  0
  -25.2990  -31.5160   26.2060 C   0  0  0  0  0  1  0  0  0  0  0  0
  -26.9760  -30.3730   24.7500 C   0  0  0  0  0  1  0  0  0  0  0  0
  -27.5410  -32.5470   25.8010 C   0  0  0  0  0  1  0  0  0  0  0  0
  -29.0060  -19.7990   20.8220 C   0  0  0  0  0  3  0  0  0  0  0  0
  -29.1930  -18.5200   19.8530 C   0  0  0  0  0  3  0  0  0  0  0  0
  -29.1440  -16.9610   20.3770 C   0  0  0  0  0  2  0  0  0  0  0  0
  -30.7710  -14.7630   20.2550 C   0  0  0  0  0  0  0  0  0  0  0  0
  -30.3330  -12.5140   19.2830 C   0  0  0  0  0  2  0  0  0  0  0  0
  -29.4140  -12.5290   18.0550 C   0  0  0  0  0  2  0  0  0  0  0  0
  -27.9660  -12.3340   18.5210 C   0  0  0  0  0  2  0  0  0  0  0  0
  -27.5850  -13.2980   19.6760 C   0  0  0  0  0  3  0  0  0  0  0  0
  -28.6530  -13.3740   20.7910 C   0  0  0  0  0  2  0  0  0  0  0  0
  -29.9360  -13.6680   20.1420 N   0  0  0  0  0  0  0  0  0  0  0  0
  -31.9600  -14.5330   20.0430 O   0  0  0  0  0  0  0  0  0  0  0  0
  -30.4220  -16.1240   20.4370 N   0  0  0  0  0  0  0  0  0  0  0  0
  -25.2140  -13.8790   20.4350 C   0  0  0  0  0  0  0  0  0  0  0  0
  -24.1530  -13.1010   20.8120 C   0  0  0  0  0  0  0  0  0  0  0  0
  -24.6250  -11.7510   20.7950 C   0  0  0  0  0  0  0  0  0  0  0  0
  -26.2580  -13.0020   20.1990 N   0  0  0  0  0  0  0  0  0  0  0  0
  -25.9160  -11.7200   20.4890 N   0  0  0  0  0  0  0  0  0  0  0  0
  -23.9050  -10.4860   20.9930 C   0  0  0  0  0  0  0  0  0  0  0  0
  -24.3390   -9.5260   21.9340 C   0  0  0  0  0  3  0  0  0  0  0  0
  -23.6120   -8.3290   22.1200 C   0  0  0  0  0  3  0  0  0  0  0  0
  -22.4420   -8.0840   21.3660 C   0  0  0  0  0  0  0  0  0  0  0  0
  -22.0300   -9.0310   20.4120 C   0  0  0  0  0  3  0  0  0  0  0  0
  -22.7540  -10.2190   20.2230 C   0  0  0  0  0  3  0  0  0  0  0  0
  -21.6880   -6.9390   21.4610 O   0  0  0  0  0  0  0  0  0  0  0  0
  -21.6390   -6.2040   22.6190 C   0  0  0  0  0  0  0  0  0  0  0  0
  -21.2010   -6.7630   23.8410 C   0  0  0  0  0  3  0  0  0  0  0  0
  -21.0990   -5.9540   24.9890 C   0  0  0  0  0  3  0  0  0  0  0  0
  -21.4270   -4.5860   24.9180 C   0  0  0  0  0  0  0  0  0  0  0  0
  -21.8590   -4.0260   23.7030 C   0  0  0  0  0  3  0  0  0  0  0  0
  -21.9610   -4.8320   22.5560 C   0  0  0  0  0  0  0  0  0  0  0  0
  -22.3550   -4.2820   21.3810 F   0  0  0  0  0  0  0  0  0  0  0  0
  -21.3230   -3.8080   26.0210 F   0  0  0  0  0  0  0  0  0  0  0  0
  -22.7550  -13.5760   21.0730 C   0  0  0  0  0  0  0  0  0  0  0  0
  -22.0250  -12.8830   21.9420 N   0  0  0  0  0  0  0  0  0  0  0  0
  -22.3160  -14.5930   20.5430 O   0  0  0  0  0  0  0  0  0  0  0  0
  -22.3950  -12.0600   22.3920 H   0  0  0  0  0  0  0  0  0  0  0  0
  -21.0840  -13.1820   22.1570 H   0  0  0  0  0  0  0  0  0  0  0  0
  -25.3780  -15.2490   20.2470 N   0  0  0  0  0  0  0  0  0  0  0  0
  -24.6170  -15.9110   20.3580 H   0  0  0  0  0  0  0  0  0  0  0  0
  -26.2420  -15.6890   19.9630 H   0  0  0  0  0  0  0  0  0  0  0  0
  -31.5740  -17.0310   20.7220 C   0  0  0  0  0  2  0  0  0  0  0  0
  -33.3310  -18.6230   19.6910 C   0  0  0  0  0  1  0  0  0  0  0  0
  -32.4490  -17.3860   19.4780 C   0  0  0  0  0  2  0  0  0  0  0  0
  1  3  2  0
  2  1  1  0
  2 48  1  0
  4  2  1  0
  5  1  1  0
  5  6  2  0
  7  6  1  0
  8 19  2  0
  9  7  1  0
  9 14  1  0
 10 18  1  0
 10 20  1  0
 11 17  1  0
 11 13  1  0
 12 18  1  0
 13 12  1  0
 14 13  2  0
 15  9  2  0
 16 15  1  0
 16 11  2  0
 17 10  1  0
 18  8  1  0
 20 22  2  0
 21 20  1  0
 23 21  1  0
 24 33  2  0
 24 29  1  0
 25 21  1  0
 25 29  1  0
 26 25  1  0
 27 28  1  0
 27 26  1  0
 28 24  1  0
 29 30  2  0
 30 31  1  0
 32 31  2  0
 33 32  1  0
 34  8  1  0
 34 35  1  0
 34 44  1  0
 35 38  1  0
 36 40  1  0
 36 35  1  0
 37 36  2  0
 40 39  1  0
 42 40  1  0
 42 43  1  0
 42 41  1  0
 44 47  1  1
 44 45  1  0
 46 44  1  0
 49 50  1  0
 49 48  2  0
 50 59  1  0
 51 59  1  0
 52 57  1  0
 53 54  1  0
 53 52  1  0
 55 54  1  0
 55 63  1  0
 55 56  1  0
 57 51  1  0
 57 56  1  0
 58 51  2  0
 59 88  1  0
 60 61  2  0
 61 80  1  0
 62 61  1  0
 62 65  1  0
 63 60  1  0
 63 64  1  0
 64 62  2  0
 65 66  1  0
 66 67  2  0
 68 71  1  0
 68 67  1  0
 69 68  2  0
 70 69  1  0
 70 65  2  0
 71 72  1  0
 72 73  1  0
 73 74  2  0
 75 74  1  0
 75 79  1  0
 76 75  2  0
 77 72  2  0
 77 76  1  0
 78 77  1  0
 80 81  1  0
 81 84  1  0
 81 83  1  0
 82 80  2  0
 85 86  1  0
 85 60  1  0
 87 85  1  0
 90 89  1  0
 90 88  1  0
M  ISO  4   6 101   7 101  51 100  59 100
M  END
>  <TORSDO>  (65) 
F 23

>  <SCORE>  (65) 
-12.858

>  <name>  (65) 
64

>  <ligand_id>  (65) 
64

>  <original_smiles>  (65) 
[H]c1c([H])c([H])c2c(c1[H])C([H])([H])C([H])([H])C([H])([H])C2([H])N([H])C(=O)C1([H])N(C(=O)C([H])(N([H])C(=O)C([H])(N([H])C([H])([H])[H])C([H])([H])[H])C(C([H])([H])[H])(C([H])([H])[H])C([H])([H])[H])C([H])([H])c2c([H])c(OC([H])([H])C([H])([H])C(=O)N([H])C([H])([H])C([H])([H])C([H])([H])N(C(=O)N3C([H])([H])C([H])([H])C([H])([H])C([H])(n4nc(-c5c([H])c([H])c(Oc6c([H])c([H])c(F)c([H])c6F)c([H])c5[H])c(C(=O)N([H])[H])c4N([H])[H])C3([H])[H])C([H])([H])C([H])([H])C([H])([H])[H])c([H])c([H])c2C1([H])[H]

>  <smiles>  (65) 
[H]c1c([H])c([H])c2c(c1[H])C([H])([H])C([H])([H])C([H])([H])C2([H])N([H])C(=O)C1([H])N(C(=O)C([H])(N([H])C(=O)C([H])(N([H])C([H])([H])[H])C([H])([H])[H])C(C([H])([H])[H])(C([H])([H])[H])C([H])([H])[H])C([H])([H])c2c([H])c(OC([H])([H])C([H])([H])C(=O)N([H])C([H])([H])C([H])([H])C([H])([H])N(C(=O)N3C([H])([H])C([H])([H])C([H])([H])C([H])(n4nc(-c5c([H])c([H])c(Oc6c([H])c([H])c(F)c([H])c6F)c([H])c5[H])c(C(=O)N([H])[H])c4N([H])[H])C3([H])[H])C([H])([H])C([H])([H])C([H])([H])[H])c([H])c([H])c2C1([H])[H]

$$$$
65:0:0
     RDKit          3D

 90100  0  0  1  0  0  0  0  0999 V2000
  -29.3540  -21.1730   20.2890 C   0  0  0  0  0  0  0  0  0  0  0  0
  -29.9380  -21.4380   21.3430 O   0  0  0  0  0  0  0  0  0  0  0  0
  -30.5770  -15.2780   19.1020 C   0  0  0  0  0  0  0  0  0  0  0  0
  -30.3130  -12.8900   18.0630 C   0  0  0  0  0  2  0  0  0  0  0  0
  -29.1620  -12.7930   17.0310 C   0  0  0  0  0  2  0  0  0  0  0  0
  -27.8290  -12.4800   17.7280 C   0  0  0  0  0  2  0  0  0  0  0  0
  -27.6470  -13.3200   19.0130 C   0  0  0  0  0  3  0  0  0  0  0  0
  -28.9050  -13.4070   19.8860 C   0  0  0  0  0  2  0  0  0  0  0  0
  -29.9870  -13.9750   19.0730 N   0  0  0  0  0  0  0  0  0  0  0  0
  -31.6180  -15.3180   18.4350 O   0  0  0  0  0  0  0  0  0  0  0  0
  -31.0850  -18.6480   20.3900 C   0  0  0  0  0  2  0  0  0  0  0  0
  -29.1670  -19.4080   19.9150 C   0  0  0  0  0  3  0  0  0  0  0  0
  -29.4740  -16.8530   20.9860 C   0  0  0  0  0  3  0  0  0  0  0  0
  -29.7040  -18.4340   21.0530 C   0  0  2  0  0  0  0  0  0  0  0  0
  -30.1960  -18.1400   19.2600 C   0  0  1  0  0  0  0  0  0  0  0  0
  -29.9720  -16.5550   19.6080 N   0  0  0  0  0  0  0  0  0  0  0  0
  -25.5620  -13.7660   20.4030 C   0  0  0  0  0  0  0  0  0  0  0  0
  -24.6120  -12.9410   20.9420 C   0  0  0  0  0  0  0  0  0  0  0  0
  -25.0270  -11.6080   20.6430 C   0  0  0  0  0  0  0  0  0  0  0  0
  -26.4800  -12.9320   19.7920 N   0  0  0  0  0  0  0  0  0  0  0  0
  -26.1920  -11.6180   20.0020 N   0  0  0  0  0  0  0  0  0  0  0  0
  -24.3370  -10.3270   20.8740 C   0  0  0  0  0  0  0  0  0  0  0  0
  -24.8210   -9.3890   21.8110 C   0  0  0  0  0  3  0  0  0  0  0  0
  -24.1340   -8.1760   22.0280 C   0  0  0  0  0  3  0  0  0  0  0  0
  -22.9470   -7.8950   21.3100 C   0  0  0  0  0  0  0  0  0  0  0  0
  -22.4840   -8.8190   20.3570 C   0  0  0  0  0  3  0  0  0  0  0  0
  -23.1720  -10.0230   20.1420 C   0  0  0  0  0  3  0  0  0  0  0  0
  -22.2290   -6.7300   21.4340 O   0  0  0  0  0  0  0  0  0  0  0  0
  -22.0230   -6.1350   22.6530 C   0  0  0  0  0  0  0  0  0  0  0  0
  -21.3940   -6.8140   23.7170 C   0  0  0  0  0  3  0  0  0  0  0  0
  -21.1450   -6.1440   24.9320 C   0  0  0  0  0  3  0  0  0  0  0  0
  -21.5150   -4.7940   25.0770 C   0  0  0  0  0  0  0  0  0  0  0  0
  -22.1320   -4.1120   24.0160 C   0  0  0  0  0  3  0  0  0  0  0  0
  -22.3840   -4.7810   22.8060 C   0  0  0  0  0  0  0  0  0  0  0  0
  -22.9660   -4.1150   21.7790 F   0  0  0  0  0  0  0  0  0  0  0  0
  -21.2650   -4.1460   26.2390 F   0  0  0  0  0  0  0  0  0  0  0  0
  -23.3440  -13.3760   21.6140 C   0  0  0  0  0  0  0  0  0  0  0  0
  -22.8860  -12.6220   22.6070 N   0  0  0  0  0  0  0  0  0  0  0  0
  -22.7740  -14.4200   21.2930 O   0  0  0  0  0  0  0  0  0  0  0  0
  -23.3630  -11.7770   22.8820 H   0  0  0  0  0  0  0  0  0  0  0  0
  -22.0500  -12.8950   23.1040 H   0  0  0  0  0  0  0  0  0  0  0  0
  -25.7120  -15.1490   20.3560 N   0  0  0  0  0  0  0  0  0  0  0  0
  -25.0030  -15.7770   20.7180 H   0  0  0  0  0  0  0  0  0  0  0  0
  -26.4420  -15.6270   19.8390 H   0  0  0  0  0  0  0  0  0  0  0  0
  -30.2450  -16.1470   22.1730 C   0  0  0  0  0  0  0  0  0  0  0  0
  -30.2780  -14.6270   22.3540 C   0  0  0  0  0  1  0  0  0  0  0  0
  -30.8190  -16.7920   23.0510 O   0  0  0  0  0  0  0  0  0  0  0  0
  -28.8510  -22.6860   19.5550 C   0  0  0  0  0  2  0  0  0  0  0  0
  -28.4090  -24.2800   20.2720 C   0  0  0  0  0  2  0  0  0  0  0  0
  -28.5100  -25.8770   19.8940 O   0  0  0  0  0  0  0  0  0  0  0  0
  -24.6670  -31.6570   22.8700 C   0  0  0  0  0  0  0  0  0  0  0  0
  -27.4370  -26.9050   19.8940 C   0  0  0  0  0  0  0  0  0  0  0  0
  -23.5420  -30.2340   21.2050 C   0  0  0  0  0  3  0  0  0  0  0  0
  -25.0710  -28.6870   19.8000 C   0  0  0  0  0  0  0  0  0  0  0  0
  -26.1020  -30.5400   21.1000 C   0  0  0  0  0  2  0  0  0  0  0  0
  -26.2310  -29.1370   20.4420 C   0  0  0  0  0  0  0  0  0  0  0  0
  -27.4110  -28.2710   20.4620 C   0  0  0  0  0  3  0  0  0  0  0  0
  -26.2400  -26.5930   19.2130 C   0  0  0  0  0  3  0  0  0  0  0  0
  -25.0980  -27.4320   19.1650 C   0  0  0  0  0  3  0  0  0  0  0  0
  -23.8100  -29.5540   19.8320 C   0  0  0  0  0  2  0  0  0  0  0  0
  -24.7890  -30.8340   21.7800 N   0  0  0  0  0  0  0  0  0  0  0  0
  -23.5600  -31.9090   23.3770 O   0  0  0  0  0  0  0  0  0  0  0  0
  -22.8730  -29.2090   22.1570 C   0  0  0  0  0  0  0  0  0  0  0  0
  -21.5460  -29.0360   22.0460 N   0  0  0  0  0  0  0  0  0  0  0  0
  -23.5560  -28.5680   22.9590 O   0  0  0  0  0  0  0  0  0  0  0  0
  -21.0480  -29.5960   21.3670 H   0  0  0  0  0  0  0  0  0  0  0  0
  -18.1670  -27.8610   22.6450 C   0  0  0  0  0  0  0  0  0  0  0  0
  -20.7400  -28.0770   22.8070 C   0  0  0  0  0  3  0  0  0  0  0  0
  -20.7930  -26.6750   22.1620 C   0  0  0  0  0  2  0  0  0  0  0  0
  -19.6440  -26.4180   21.1820 C   0  0  0  0  0  2  0  0  0  0  0  0
  -18.2940  -26.5480   21.8910 C   0  0  0  0  0  2  0  0  0  0  0  0
  -19.3160  -28.5880   23.0580 C   0  0  0  0  0  0  0  0  0  0  0  0
  -19.1410  -29.8160   23.7290 C   0  0  0  0  0  3  0  0  0  0  0  0
  -17.8530  -30.3210   23.9880 C   0  0  0  0  0  3  0  0  0  0  0  0
  -16.7190  -29.5940   23.5860 C   0  0  0  0  0  3  0  0  0  0  0  0
  -16.8780  -28.3650   22.9200 C   0  0  0  0  0  3  0  0  0  0  0  0
  -25.9080  -32.3380   23.5230 C   0  0  0  0  0  3  0  0  0  0  0  0
  -26.4950  -31.5190   24.7390 C   0  0  1  0  0  0  0  0  0  0  0  0
  -25.4240  -31.0780   25.7660 C   0  0  0  0  0  1  0  0  0  0  0  0
  -27.2260  -30.2460   24.2530 C   0  0  0  0  0  1  0  0  0  0  0  0
  -27.5460  -32.3740   25.4850 C   0  0  0  0  0  1  0  0  0  0  0  0
  -25.5010  -33.6830   23.9650 N   0  0  0  0  0  0  0  0  0  0  0  0
  -25.7670  -34.8200   23.3070 C   0  0  0  0  0  0  0  0  0  0  0  0
  -26.4380  -34.8520   22.2740 O   0  0  0  0  0  0  0  0  0  0  0  0
  -24.8850  -33.7260   24.7610 H   0  0  0  0  0  0  0  0  0  0  0  0
  -23.9290  -36.5350   23.1160 C   0  0  0  0  0  1  0  0  0  0  0  0
  -25.1970  -36.1320   23.8860 C   0  0  0  0  0  3  0  0  0  0  0  0
  -27.2730  -37.0690   24.8050 C   0  0  0  0  0  1  0  0  0  0  0  0
  -26.1640  -37.2520   23.8730 N   0  0  0  0  0  0  0  0  0  0  0  0
  -25.7010  -38.1260   24.1040 H   0  0  0  0  0  0  0  0  0  0  0  0
  1  2  2  0
  3 16  1  0
  4  9  1  0
  5  6  1  0
  5  4  1  0
  7  6  1  0
  7 20  1  0
  7  8  1  0
  9  3  1  0
  9  8  1  0
 10  3  2  0
 12  1  1  0
 12 14  1  0
 13 14  1  0
 13 45  1  0
 14 11  1  6
 15 16  1  0
 15 12  1  0
 15 11  1  6
 15 14  1  0
 16 13  1  0
 17 18  2  0
 18 37  1  0
 19 22  1  0
 19 18  1  0
 20 21  1  0
 20 17  1  0
 21 19  2  0
 22 23  1  0
 23 24  2  0
 25 28  1  0
 25 24  1  0
 26 25  2  0
 27 26  1  0
 27 22  2  0
 28 29  1  0
 29 34  2  0
 29 30  1  0
 30 31  2  0
 31 32  1  0
 32 36  1  0
 33 32  2  0
 34 33  1  0
 35 34  1  0
 37 38  1  0
 38 40  1  0
 38 41  1  0
 39 37  2  0
 42 17  1  0
 42 43  1  0
 44 42  1  0
 45 46  1  0
 45 47  2  0
 48 49  1  0
 48  1  1  0
 50 52  1  0
 50 49  1  0
 51 62  2  0
 52 57  1  0
 53 61  1  0
 53 63  1  0
 54 60  1  0
 54 56  1  0
 55 61  1  0
 56 57  2  0
 56 55  1  0
 58 52  2  0
 59 58  1  0
 59 54  2  0
 60 53  1  0
 61 51  1  0
 63 65  2  0
 64 63  1  0
 66 64  1  0
 67 76  2  0
 67 72  1  0
 68 64  1  0
 68 72  1  0
 69 68  1  0
 70 71  1  0
 70 69  1  0
 71 67  1  0
 72 73  2  0
 73 74  1  0
 75 74  2  0
 76 75  1  0
 77 51  1  0
 77 82  1  0
 77 78  1  0
 78 81  1  1
 78 79  1  0
 80 78  1  0
 82 85  1  0
 83 87  1  0
 83 82  1  0
 84 83  2  0
 87 86  1  0
 89 87  1  0
 89 90  1  0
 89 88  1  0
M  ISO  4   3 100  16 100  49 101  50 101
M  END
>  <TORSDO>  (66) 
F 19

>  <SCORE>  (66) 
-10.775

>  <name>  (66) 
65

>  <ligand_id>  (66) 
65

>  <original_smiles>  (66) 
[H]c1c([H])c([H])c2c(c1[H])C([H])([H])C([H])([H])C([H])([H])C2([H])N([H])C(=O)C1([H])N(C(=O)C([H])(N([H])C(=O)C([H])(N([H])C([H])([H])[H])C([H])([H])[H])C(C([H])([H])[H])(C([H])([H])[H])C([H])([H])[H])C([H])([H])c2c([H])c(OC([H])([H])C([H])([H])C(=O)C3([H])C4([H])N(C(=O)N5C([H])([H])C([H])([H])C([H])([H])C([H])(n6nc(-c7c([H])c([H])c(Oc8c([H])c([H])c(F)c([H])c8F)c([H])c7[H])c(C(=O)N([H])[H])c6N([H])[H])C5([H])[H])C([H])(C(=O)C([H])([H])[H])C3([H])C4([H])[H])c([H])c([H])c2C1([H])[H]

>  <smiles>  (66) 
[H]c1c([H])c([H])c2c(c1[H])C([H])([H])C([H])([H])C([H])([H])C2([H])N([H])C(=O)C1([H])N(C(=O)C([H])(N([H])C(=O)C([H])(N([H])C([H])([H])[H])C([H])([H])[H])C(C([H])([H])[H])(C([H])([H])[H])C([H])([H])[H])C([H])([H])c2c([H])c(OC([H])([H])C([H])([H])C(=O)C3([H])C4([H])N(C(=O)N5C([H])([H])C([H])([H])C([H])([H])C([H])(n6nc(-c7c([H])c([H])c(Oc8c([H])c([H])c(F)c([H])c8F)c([H])c7[H])c(C(=O)N([H])[H])c6N([H])[H])C5([H])[H])C([H])(C(=O)C([H])([H])[H])C3([H])C4([H])[H])c([H])c([H])c2C1([H])[H]

$$$$
66:0:0
     RDKit          3D

 91100  0  0  1  0  0  0  0  0999 V2000
  -29.4520  -20.6720   21.4880 C   0  0  0  0  0  3  0  0  0  0  0  0
  -29.0360  -22.0940   21.4760 C   0  0  0  0  0  3  0  0  0  0  0  0
  -28.9670  -20.4800   19.2270 C   0  0  0  0  0  0  0  0  0  0  0  0
  -29.4480  -19.7260   20.3810 C   0  0  0  0  0  0  0  0  0  0  0  0
  -28.5830  -22.8720   20.3360 C   0  0  0  0  0  0  0  0  0  0  0  0
  -28.5950  -21.9360   19.2060 C   0  0  0  0  0  0  0  0  0  0  0  0
  -28.1730  -22.5360   17.8690 C   0  0  0  0  0  1  0  0  0  0  0  0
  -27.5830  -19.5670   17.1630 C   0  0  0  0  0  2  0  0  0  0  0  0
  -28.1020  -18.3680   17.9110 C   0  0  0  0  0  2  0  0  0  0  0  0
  -28.8720  -19.6740   17.9550 C   0  0  0  0  0  3  0  0  0  0  0  0
  -30.2120  -18.1640   20.3920 C   0  0  0  0  0  2  0  0  0  0  0  0
  -30.5190  -15.3170   20.2820 C   0  0  0  0  0  0  0  0  0  0  0  0
  -30.4590  -12.9020   19.3720 C   0  0  0  0  0  2  0  0  0  0  0  0
  -29.5260  -12.7380   18.1480 C   0  0  0  0  0  2  0  0  0  0  0  0
  -28.0820  -12.4620   18.6040 C   0  0  0  0  0  2  0  0  0  0  0  0
  -27.6430  -13.4120   19.7470 C   0  0  0  0  0  3  0  0  0  0  0  0
  -28.7040  -13.5400   20.8610 C   0  0  0  0  0  2  0  0  0  0  0  0
  -29.9350  -14.0290   20.2210 N   0  0  0  0  0  0  0  0  0  0  0  0
  -31.7320  -15.3240   20.0350 O   0  0  0  0  0  0  0  0  0  0  0  0
  -29.7790  -16.5790   20.4180 N   0  0  0  0  0  0  0  0  0  0  0  0
  -28.7890  -16.4380   20.5570 H   0  0  0  0  0  0  0  0  0  0  0  0
  -25.2780  -13.9440   20.5380 C   0  0  0  0  0  0  0  0  0  0  0  0
  -24.2270  -13.1530   20.9080 C   0  0  0  0  0  0  0  0  0  0  0  0
  -24.7030  -11.8080   20.8530 C   0  0  0  0  0  0  0  0  0  0  0  0
  -26.3240  -13.0810   20.2700 N   0  0  0  0  0  0  0  0  0  0  0  0
  -25.9920  -11.7890   20.5270 N   0  0  0  0  0  0  0  0  0  0  0  0
  -23.9890  -10.5360   21.0290 C   0  0  0  0  0  0  0  0  0  0  0  0
  -24.4160   -9.5700   21.9670 C   0  0  0  0  0  3  0  0  0  0  0  0
  -23.6960   -8.3680   22.1330 C   0  0  0  0  0  3  0  0  0  0  0  0
  -22.5350   -8.1210   21.3630 C   0  0  0  0  0  0  0  0  0  0  0  0
  -22.1280   -9.0760   20.4140 C   0  0  0  0  0  3  0  0  0  0  0  0
  -22.8490  -10.2700   20.2450 C   0  0  0  0  0  3  0  0  0  0  0  0
  -21.7880   -6.9710   21.4380 O   0  0  0  0  0  0  0  0  0  0  0  0
  -21.6960   -6.2470   22.5990 C   0  0  0  0  0  0  0  0  0  0  0  0
  -21.1900   -6.8120   23.7900 C   0  0  0  0  0  3  0  0  0  0  0  0
  -21.0490   -6.0130   24.9430 C   0  0  0  0  0  3  0  0  0  0  0  0
  -21.4030   -4.6510   24.9050 C   0  0  0  0  0  0  0  0  0  0  0  0
  -21.9010   -4.0870   23.7170 C   0  0  0  0  0  3  0  0  0  0  0  0
  -22.0450   -4.8820   22.5680 C   0  0  0  0  0  0  0  0  0  0  0  0
  -22.5070   -4.3280   21.4210 F   0  0  0  0  0  0  0  0  0  0  0  0
  -21.2600   -3.8820   26.0090 F   0  0  0  0  0  0  0  0  0  0  0  0
  -22.8280  -13.6160   21.1970 C   0  0  0  0  0  0  0  0  0  0  0  0
  -22.1170  -12.9060   22.0650 N   0  0  0  0  0  0  0  0  0  0  0  0
  -22.3780  -14.6430   20.6900 O   0  0  0  0  0  0  0  0  0  0  0  0
  -22.4930  -12.0730   22.4930 H   0  0  0  0  0  0  0  0  0  0  0  0
  -21.1810  -13.2030   22.3080 H   0  0  0  0  0  0  0  0  0  0  0  0
  -25.4260  -15.3190   20.3780 N   0  0  0  0  0  0  0  0  0  0  0  0
  -24.6490  -15.9610   20.4960 H   0  0  0  0  0  0  0  0  0  0  0  0
  -26.2570  -15.7680   20.0170 H   0  0  0  0  0  0  0  0  0  0  0  0
  -27.7900  -24.4220   20.3760 C   0  0  0  0  0  2  0  0  0  0  0  0
  -28.2110  -25.9940   20.3530 O   0  0  0  0  0  0  0  0  0  0  0  0
  -24.6630  -31.9680   23.2700 C   0  0  0  0  0  0  0  0  0  0  0  0
  -27.2150  -27.0960   20.2910 C   0  0  0  0  0  0  0  0  0  0  0  0
  -23.4730  -30.5710   21.6330 C   0  0  0  0  0  3  0  0  0  0  0  0
  -24.9230  -28.9660   20.2260 C   0  0  0  0  0  0  0  0  0  0  0  0
  -26.0410  -30.7810   21.4970 C   0  0  0  0  0  2  0  0  0  0  0  0
  -26.1100  -29.3730   20.8480 C   0  0  0  0  0  0  0  0  0  0  0  0
  -27.2540  -28.4590   20.8580 C   0  0  0  0  0  3  0  0  0  0  0  0
  -26.0010  -26.8420   19.6120 C   0  0  0  0  0  3  0  0  0  0  0  0
  -24.8920  -27.7200   19.5880 C   0  0  0  0  0  3  0  0  0  0  0  0
  -23.7060  -29.8860   20.2600 C   0  0  0  0  0  2  0  0  0  0  0  0
  -24.7480  -31.1330   22.1870 N   0  0  0  0  0  0  0  0  0  0  0  0
  -23.5730  -32.2630   23.7840 O   0  0  0  0  0  0  0  0  0  0  0  0
  -22.7740  -29.5780   22.5980 C   0  0  0  0  0  0  0  0  0  0  0  0
  -21.4440  -29.4120   22.4640 N   0  0  0  0  0  0  0  0  0  0  0  0
  -23.4330  -28.9580   23.4380 O   0  0  0  0  0  0  0  0  0  0  0  0
  -20.9660  -29.9640   21.7660 H   0  0  0  0  0  0  0  0  0  0  0  0
  -18.0560  -28.2160   22.9600 C   0  0  0  0  0  0  0  0  0  0  0  0
  -20.6150  -28.4800   23.2360 C   0  0  0  0  0  3  0  0  0  0  0  0
  -20.7160  -27.0450   22.6710 C   0  0  0  0  0  2  0  0  0  0  0  0
  -19.6180  -26.7160   21.6530 C   0  0  0  0  0  2  0  0  0  0  0  0
  -18.2340  -26.8650   22.2900 C   0  0  0  0  0  2  0  0  0  0  0  0
  -19.1730  -28.9810   23.3910 C   0  0  0  0  0  0  0  0  0  0  0  0
  -18.9510  -30.2430   23.9830 C   0  0  0  0  0  3  0  0  0  0  0  0
  -17.6440  -30.7420   24.1450 C   0  0  0  0  0  3  0  0  0  0  0  0
  -16.5420  -29.9760   23.7300 C   0  0  0  0  0  3  0  0  0  0  0  0
  -16.7480  -28.7140   23.1440 C   0  0  0  0  0  3  0  0  0  0  0  0
  -25.9330  -32.6100   23.9060 C   0  0  0  0  0  3  0  0  0  0  0  0
  -26.4320  -31.8500   25.1960 C   0  0  1  0  0  0  0  0  0  0  0  0
  -25.3240  -31.6160   26.2500 C   0  0  0  0  0  1  0  0  0  0  0  0
  -27.0260  -30.4710   24.8290 C   0  0  0  0  0  1  0  0  0  0  0  0
  -27.5720  -32.6520   25.8690 C   0  0  0  0  0  1  0  0  0  0  0  0
  -25.6170  -34.0120   24.2330 N   0  0  0  0  0  0  0  0  0  0  0  0
  -25.9240  -35.0670   23.4680 C   0  0  0  0  0  0  0  0  0  0  0  0
  -26.5660  -34.9630   22.4200 O   0  0  0  0  0  0  0  0  0  0  0  0
  -25.0430  -34.1650   25.0500 H   0  0  0  0  0  0  0  0  0  0  0  0
  -24.1620  -36.8440   23.1840 C   0  0  0  0  0  1  0  0  0  0  0  0
  -25.4450  -36.4570   23.9370 C   0  0  0  0  0  3  0  0  0  0  0  0
  -27.6040  -37.3760   24.6640 C   0  0  0  0  0  1  0  0  0  0  0  0
  -26.4600  -37.5200   23.7670 N   0  0  0  0  0  0  0  0  0  0  0  0
  -26.0500  -38.4370   23.9210 H   0  0  0  0  0  0  0  0  0  0  0  0
  2  1  1  0
  3  4  1  0
  4 11  1  0
  4  1  2  0
  5 50  1  0
  5  2  2  0
  6  3  2  0
  6  5  1  0
  7  6  1  0
  8  9  1  0
  8 10  1  0
  9 10  1  0
 10  3  1  0
 11 20  1  0
 12 20  1  0
 13 18  1  0
 14 15  1  0
 14 13  1  0
 16 15  1  0
 16 25  1  0
 16 17  1  0
 18 12  1  0
 18 17  1  0
 19 12  2  0
 20 21  1  0
 22 23  2  0
 23 42  1  0
 24 23  1  0
 24 27  1  0
 25 26  1  0
 25 22  1  0
 26 24  2  0
 27 28  1  0
 28 29  2  0
 30 33  1  0
 30 29  1  0
 31 30  2  0
 32 31  1  0
 32 27  2  0
 33 34  1  0
 34 35  1  0
 35 36  2  0
 37 36  1  0
 37 41  1  0
 38 37  2  0
 39 34  2  0
 39 38  1  0
 40 39  1  0
 42 43  1  0
 43 46  1  0
 43 45  1  0
 44 42  2  0
 47 48  1  0
 47 22  1  0
 49 47  1  0
 51 50  1  0
 52 63  2  0
 53 51  1  0
 53 58  1  0
 54 62  1  0
 54 64  1  0
 55 61  1  0
 55 57  1  0
 56 62  1  0
 57 58  2  0
 57 56  1  0
 59 53  2  0
 60 59  1  0
 60 55  2  0
 61 54  1  0
 62 52  1  0
 64 66  2  0
 65 64  1  0
 67 65  1  0
 68 77  2  0
 68 73  1  0
 69 65  1  0
 69 73  1  0
 70 69  1  0
 71 72  1  0
 71 70  1  0
 72 68  1  0
 73 74  2  0
 74 75  1  0
 76 75  2  0
 77 76  1  0
 78 52  1  0
 78 83  1  0
 78 79  1  0
 79 82  1  1
 79 80  1  0
 81 79  1  0
 83 86  1  0
 84 88  1  0
 84 83  1  0
 85 84  2  0
 88 87  1  0
 90 91  1  0
 90 88  1  0
 90 89  1  0
M  ISO  4  12 100  20 100  50 101  51 101
M  END
>  <TORSDO>  (67) 
F 19

>  <SCORE>  (67) 
-15.801

>  <name>  (67) 
66

>  <ligand_id>  (67) 
66

>  <original_smiles>  (67) 
[H]c1c([H])c([H])c2c(c1[H])C([H])([H])C([H])([H])C([H])([H])C2([H])N([H])C(=O)C1([H])N(C(=O)C([H])(N([H])C(=O)C([H])(N([H])C([H])([H])[H])C([H])([H])[H])C(C([H])([H])[H])(C([H])([H])[H])C([H])([H])[H])C([H])([H])c2c([H])c(OC([H])([H])c3c([H])c([H])c(C([H])([H])N([H])C(=O)N4C([H])([H])C([H])([H])C([H])([H])C([H])(n5nc(-c6c([H])c([H])c(Oc7c([H])c([H])c(F)c([H])c7F)c([H])c6[H])c(C(=O)N([H])[H])c5N([H])[H])C4([H])[H])c(C4([H])C([H])([H])C4([H])[H])c3C([H])([H])[H])c([H])c([H])c2C1([H])[H]

>  <smiles>  (67) 
[H]c1c([H])c([H])c2c(c1[H])C([H])([H])C([H])([H])C([H])([H])C2([H])N([H])C(=O)C1([H])N(C(=O)C([H])(N([H])C(=O)C([H])(N([H])C([H])([H])[H])C([H])([H])[H])C(C([H])([H])[H])(C([H])([H])[H])C([H])([H])[H])C([H])([H])c2c([H])c(OC([H])([H])c3c([H])c([H])c(C([H])([H])N([H])C(=O)N4C([H])([H])C([H])([H])C([H])([H])C([H])(n5nc(-c6c([H])c([H])c(Oc7c([H])c([H])c(F)c([H])c7F)c([H])c6[H])c(C(=O)N([H])[H])c5N([H])[H])C4([H])[H])c(C4([H])C([H])([H])C4([H])[H])c3C([H])([H])[H])c([H])c([H])c2C1([H])[H]

$$$$
67:0:0
     RDKit          3D

 95105  0  0  1  0  0  0  0  0999 V2000
  -28.6740  -18.4780   19.0100 C   0  0  0  0  0  2  0  0  0  0  0  0
  -29.0200  -18.3460   20.4940 C   0  0  1  0  0  0  0  0  0  0  0  0
  -30.1060  -19.0490   19.0900 C   0  0  2  0  0  0  0  0  0  0  0  0
  -29.5210  -19.8630   20.2850 C   0  0  0  0  0  3  0  0  0  0  0  0
  -30.1860  -17.2860   20.6460 C   0  0  0  0  0  3  0  0  0  0  0  0
  -31.0590  -17.9210   19.5340 C   0  0  0  0  0  3  0  0  0  0  0  0
  -30.6230  -14.6830   20.3930 C   0  0  0  0  0  0  0  0  0  0  0  0
  -30.4180  -12.4250   19.3720 C   0  0  0  0  0  2  0  0  0  0  0  0
  -29.4920  -12.5110   18.1390 C   0  0  0  0  0  2  0  0  0  0  0  0
  -28.0160  -12.3540   18.5550 C   0  0  0  0  0  2  0  0  0  0  0  0
  -27.6350  -13.2520   19.7630 C   0  0  0  0  0  3  0  0  0  0  0  0
  -28.6780  -13.1490   20.8980 C   0  0  0  0  0  2  0  0  0  0  0  0
  -29.9880  -13.4730   20.3200 N   0  0  0  0  0  0  0  0  0  0  0  0
  -31.8090  -14.8040   20.0760 O   0  0  0  0  0  0  0  0  0  0  0  0
  -29.8340  -15.8040   20.5450 N   0  0  0  0  0  0  0  0  0  0  0  0
  -28.8620  -15.5960   20.7150 H   0  0  0  0  0  0  0  0  0  0  0  0
  -25.2410  -13.8690   20.4500 C   0  0  0  0  0  0  0  0  0  0  0  0
  -24.1660  -13.1050   20.8130 C   0  0  0  0  0  0  0  0  0  0  0  0
  -24.6230  -11.7510   20.8060 C   0  0  0  0  0  0  0  0  0  0  0  0
  -26.2840  -12.9820   20.2380 N   0  0  0  0  0  0  0  0  0  0  0  0
  -25.9170  -11.7040   20.5160 N   0  0  0  0  0  0  0  0  0  0  0  0
  -23.8890  -10.4940   21.0000 C   0  0  0  0  0  0  0  0  0  0  0  0
  -24.3040   -9.5340   21.9480 C   0  0  0  0  0  3  0  0  0  0  0  0
  -23.5700   -8.3430   22.1300 C   0  0  0  0  0  3  0  0  0  0  0  0
  -22.4060   -8.1010   21.3600 C   0  0  0  0  0  0  0  0  0  0  0  0
  -22.0110   -9.0490   20.4010 C   0  0  0  0  0  3  0  0  0  0  0  0
  -22.7450  -10.2330   20.2190 C   0  0  0  0  0  3  0  0  0  0  0  0
  -21.6460   -6.9600   21.4480 O   0  0  0  0  0  0  0  0  0  0  0  0
  -21.5750   -6.2300   22.6070 C   0  0  0  0  0  0  0  0  0  0  0  0
  -21.1240   -6.7990   23.8190 C   0  0  0  0  0  3  0  0  0  0  0  0
  -21.0020   -5.9970   24.9700 C   0  0  0  0  0  3  0  0  0  0  0  0
  -21.3180   -4.6260   24.9100 C   0  0  0  0  0  0  0  0  0  0  0  0
  -21.7620   -4.0560   23.7040 C   0  0  0  0  0  3  0  0  0  0  0  0
  -21.8870   -4.8570   22.5550 C   0  0  0  0  0  0  0  0  0  0  0  0
  -22.2940   -4.3000   21.3890 F   0  0  0  0  0  0  0  0  0  0  0  0
  -21.1930   -3.8520   26.0140 F   0  0  0  0  0  0  0  0  0  0  0  0
  -22.7680  -13.5920   21.0590 C   0  0  0  0  0  0  0  0  0  0  0  0
  -22.0230  -12.9100   21.9220 N   0  0  0  0  0  0  0  0  0  0  0  0
  -22.3440  -14.6150   20.5210 O   0  0  0  0  0  0  0  0  0  0  0  0
  -22.3790  -12.0840   22.3790 H   0  0  0  0  0  0  0  0  0  0  0  0
  -21.0840  -13.2190   22.1300 H   0  0  0  0  0  0  0  0  0  0  0  0
  -25.4150  -15.2360   20.2580 N   0  0  0  0  0  0  0  0  0  0  0  0
  -24.6440  -15.8900   20.3410 H   0  0  0  0  0  0  0  0  0  0  0  0
  -26.2600  -15.6670   19.9090 H   0  0  0  0  0  0  0  0  0  0  0  0
  -31.4140  -17.0310   18.4200 N   0  0  0  0  0  4  0  0  0  0  0  0
  -30.6020  -16.7750   17.8890 H   0  0  0  0  0  0  0  0  0  0  0  0
  -31.8270  -16.1910   18.8130 H   0  0  0  0  0  0  0  0  0  0  0  0
  -32.0800  -17.4740   17.8110 H   0  0  0  0  0  0  0  0  0  0  0  0
  -28.6140  -21.1750   19.9800 C   0  0  0  0  0  2  0  0  0  0  0  0
  -28.9750  -22.5230   20.6040 N   0  0  0  0  0  4  0  0  0  0  0  0
  -29.9800  -22.5920   20.6380 H   0  0  0  0  0  0  0  0  0  0  0  0
  -28.6580  -22.4920   21.5610 H   0  0  0  0  0  0  0  0  0  0  0  0
  -28.4430  -23.8070   19.9470 C   0  0  0  0  0  2  0  0  0  0  0  0
  -28.3670  -25.1370   20.8440 C   0  0  0  0  0  2  0  0  0  0  0  0
  -28.4240  -26.4980   20.2450 O   0  0  0  0  0  0  0  0  0  0  0  0
  -24.6070  -31.8660   23.2510 C   0  0  0  0  0  0  0  0  0  0  0  0
  -27.2850  -27.3140   20.2520 C   0  0  0  0  0  0  0  0  0  0  0  0
  -23.4310  -30.4550   21.5980 C   0  0  0  0  0  3  0  0  0  0  0  0
  -24.9090  -28.9000   20.2020 C   0  0  0  0  0  0  0  0  0  0  0  0
  -25.9690  -30.7910   21.4430 C   0  0  0  0  0  2  0  0  0  0  0  0
  -26.0660  -29.4080   20.8060 C   0  0  0  0  0  0  0  0  0  0  0  0
  -27.2610  -28.6280   20.8140 C   0  0  0  0  0  3  0  0  0  0  0  0
  -26.1060  -26.8490   19.6350 C   0  0  0  0  0  3  0  0  0  0  0  0
  -24.9300  -27.6260   19.6080 C   0  0  0  0  0  3  0  0  0  0  0  0
  -23.6660  -29.7680   20.2270 C   0  0  0  0  0  2  0  0  0  0  0  0
  -24.6870  -31.0560   22.1540 N   0  0  0  0  0  0  0  0  0  0  0  0
  -23.5150  -32.1380   23.7710 O   0  0  0  0  0  0  0  0  0  0  0  0
  -22.7610  -29.4410   22.5560 C   0  0  0  0  0  0  0  0  0  0  0  0
  -21.4350  -29.2720   22.4250 N   0  0  0  0  0  0  0  0  0  0  0  0
  -23.4350  -28.8070   23.3720 O   0  0  0  0  0  0  0  0  0  0  0  0
  -20.9500  -29.8370   21.7410 H   0  0  0  0  0  0  0  0  0  0  0  0
  -18.0480  -28.1070   22.9260 C   0  0  0  0  0  0  0  0  0  0  0  0
  -20.6090  -28.3340   23.1870 C   0  0  0  0  0  3  0  0  0  0  0  0
  -20.6930  -26.9090   22.5930 C   0  0  0  0  0  2  0  0  0  0  0  0
  -19.5830  -26.6110   21.5800 C   0  0  0  0  0  2  0  0  0  0  0  0
  -18.2060  -26.7650   22.2310 C   0  0  0  0  0  2  0  0  0  0  0  0
  -19.1770  -28.8500   23.3600 C   0  0  0  0  0  0  0  0  0  0  0  0
  -18.9770  -30.1080   23.9680 C   0  0  0  0  0  3  0  0  0  0  0  0
  -17.6790  -30.6230   24.1460 C   0  0  0  0  0  3  0  0  0  0  0  0
  -16.5630  -29.8760   23.7290 C   0  0  0  0  0  3  0  0  0  0  0  0
  -16.7490  -28.6190   23.1240 C   0  0  0  0  0  3  0  0  0  0  0  0
  -25.8780  -32.5060   23.8900 C   0  0  0  0  0  3  0  0  0  0  0  0
  -25.5620  -33.9060   24.2020 N   0  0  0  0  0  0  0  0  0  0  0  0
  -25.9000  -34.9530   23.4370 C   0  0  0  0  0  0  0  0  0  0  0  0
  -26.5810  -34.8410   22.4130 O   0  0  0  0  0  0  0  0  0  0  0  0
  -24.9590  -34.0670   24.9960 H   0  0  0  0  0  0  0  0  0  0  0  0
  -24.1770  -36.7430   23.0440 C   0  0  0  0  0  1  0  0  0  0  0  0
  -25.4070  -36.3450   23.8760 C   0  0  0  0  0  3  0  0  0  0  0  0
  -27.5260  -37.2410   24.7330 C   0  0  0  0  0  1  0  0  0  0  0  0
  -26.4410  -37.3980   23.7680 N   0  0  0  0  0  0  0  0  0  0  0  0
  -26.0310  -38.3180   23.8990 H   0  0  0  0  0  0  0  0  0  0  0  0
  -26.3730  -31.7470   25.1820 C   0  0  1  0  0  0  0  0  0  0  0  0
  -25.2620  -31.5190   26.2340 C   0  0  0  0  0  1  0  0  0  0  0  0
  -26.9650  -30.3670   24.8130 C   0  0  0  0  0  1  0  0  0  0  0  0
  -27.5120  -32.5490   25.8550 C   0  0  0  0  0  1  0  0  0  0  0  0
  2  1  1  6
  2  5  1  0
  3  1  1  1
  3  6  1  0
  3  4  1  0
  3  2  1  0
  4 49  1  0
  4  2  1  0
  5 15  1  0
  6 45  1  0
  6  5  1  0
  7 15  1  0
  8 13  1  0
  9 10  1  0
  9  8  1  0
 11 10  1  0
 11 20  1  0
 11 12  1  0
 13  7  1  0
 13 12  1  0
 14  7  2  0
 15 16  1  0
 17 18  2  0
 18 37  1  0
 19 18  1  0
 19 22  1  0
 20 17  1  0
 20 21  1  0
 21 19  2  0
 22 23  1  0
 23 24  2  0
 25 28  1  0
 25 24  1  0
 26 25  2  0
 27 26  1  0
 27 22  2  0
 28 29  1  0
 29 30  1  0
 30 31  2  0
 32 31  1  0
 32 36  1  0
 33 32  2  0
 34 29  2  0
 34 33  1  0
 35 34  1  0
 37 38  1  0
 38 41  1  0
 38 40  1  0
 39 37  2  0
 42 43  1  0
 42 17  1  0
 44 42  1  0
 45 47  1  0
 46 45  1  0
 48 45  1  0
 49 50  1  0
 50 51  1  0
 50 52  1  0
 53 50  1  0
 53 54  1  0
 55 57  1  0
 55 54  1  0
 56 67  2  0
 57 62  1  0
 58 66  1  0
 58 68  1  0
 59 65  1  0
 59 61  1  0
 60 66  1  0
 61 62  2  0
 61 60  1  0
 63 57  2  0
 64 63  1  0
 64 59  2  0
 65 58  1  0
 66 56  1  0
 68 70  2  0
 69 68  1  0
 71 69  1  0
 72 81  2  0
 72 77  1  0
 73 69  1  0
 73 77  1  0
 74 73  1  0
 75 76  1  0
 75 74  1  0
 76 72  1  0
 77 78  2  0
 78 79  1  0
 80 79  2  0
 81 80  1  0
 82 56  1  0
 82 83  1  0
 82 92  1  0
 83 86  1  0
 84 88  1  0
 84 83  1  0
 85 84  2  0
 88 87  1  0
 90 88  1  0
 90 91  1  0
 90 89  1  0
 92 95  1  1
 92 93  1  0
 94 92  1  0
M  ISO  4   7 100  15 100  54 101  55 101
M  END
>  <TORSDO>  (68) 
F 21

>  <SCORE>  (68) 
-13.721

>  <name>  (68) 
67

>  <ligand_id>  (68) 
67

>  <original_smiles>  (68) 
[H]c1c([H])c([H])c2c(c1[H])C([H])([H])C([H])([H])C([H])([H])C2([H])N([H])C(=O)C1([H])N(C(=O)C([H])(N([H])C(=O)C([H])(N([H])C([H])([H])[H])C([H])([H])[H])C(C([H])([H])[H])(C([H])([H])[H])C([H])([H])[H])C([H])([H])c2c([H])c(OC([H])([H])C([H])([H])[N+]([H])([H])C([H])([H])C3([H])C4([H])C([H])([H])C3([H])C([H])([N+]([H])([H])[H])C4([H])N([H])C(=O)N3C([H])([H])C([H])([H])C([H])([H])C([H])(n4nc(-c5c([H])c([H])c(Oc6c([H])c([H])c(F)c([H])c6F)c([H])c5[H])c(C(=O)N([H])[H])c4N([H])[H])C3([H])[H])c([H])c([H])c2C1([H])[H]

>  <smiles>  (68) 
[H]c1c([H])c([H])c2c(c1[H])C([H])([H])C([H])([H])C([H])([H])C2([H])N([H])C(=O)C1([H])N(C(=O)C([H])(N([H])C(=O)C([H])(N([H])C([H])([H])[H])C([H])([H])[H])C(C([H])([H])[H])(C([H])([H])[H])C([H])([H])[H])C([H])([H])c2c([H])c(OC([H])([H])C([H])([H])[N+]([H])([H])C([H])([H])C3([H])C4([H])C([H])([H])C3([H])C([H])([N+]([H])([H])[H])C4([H])N([H])C(=O)N3C([H])([H])C([H])([H])C([H])([H])C([H])(n4nc(-c5c([H])c([H])c(Oc6c([H])c([H])c(F)c([H])c6F)c([H])c5[H])c(C(=O)N([H])[H])c4N([H])[H])C3([H])[H])c([H])c([H])c2C1([H])[H]

$$$$
68:0:0
     RDKit          3D

 88 97  0  0  1  0  0  0  0  0999 V2000
  -27.8970  -20.9680   21.5300 C   0  0  0  0  0  2  0  0  0  0  0  0
  -27.4710  -21.5940   20.1920 C   0  0  0  0  0  2  0  0  0  0  0  0
  -29.7730  -20.8020   18.9910 C   0  0  0  0  0  2  0  0  0  0  0  0
  -29.2740  -20.7100   20.9200 C   0  0  0  0  0  3  0  0  0  0  0  0
  -29.4940  -19.4900   19.8830 C   0  0  0  0  0  3  0  0  0  0  0  0
  -28.9510  -21.8860   19.8610 C   0  0  2  0  0  0  0  0  0  0  0  0
  -30.5260  -18.1370   20.0550 C   0  0  0  0  0  2  0  0  0  0  0  0
  -30.9200  -15.3810   20.0530 C   0  0  0  0  0  0  0  0  0  0  0  0
  -30.8280  -12.9710   19.2360 C   0  0  0  0  0  2  0  0  0  0  0  0
  -29.8950  -12.8330   18.0100 C   0  0  0  0  0  2  0  0  0  0  0  0
  -28.4380  -12.6210   18.4640 C   0  0  0  0  0  2  0  0  0  0  0  0
  -28.0190  -13.6120   19.5800 C   0  0  0  0  0  3  0  0  0  0  0  0
  -29.0740  -13.7090   20.7020 C   0  0  0  0  0  2  0  0  0  0  0  0
  -30.3320  -14.1130   20.0640 N   0  0  0  0  0  0  0  0  0  0  0  0
  -32.1250  -15.4230   19.7840 O   0  0  0  0  0  0  0  0  0  0  0  0
  -30.1450  -16.5860   20.1410 N   0  0  0  0  0  0  0  0  0  0  0  0
  -29.1650  -16.4140   20.3060 H   0  0  0  0  0  0  0  0  0  0  0  0
  -25.6730  -14.2230   20.3940 C   0  0  0  0  0  0  0  0  0  0  0  0
  -24.5970  -13.4620   20.7580 C   0  0  0  0  0  0  0  0  0  0  0  0
  -25.0250  -12.1010   20.6680 C   0  0  0  0  0  0  0  0  0  0  0  0
  -26.6860  -13.3270   20.0980 N   0  0  0  0  0  0  0  0  0  0  0  0
  -26.3080  -12.0440   20.3290 N   0  0  0  0  0  0  0  0  0  0  0  0
  -24.2680  -10.8540   20.8250 C   0  0  0  0  0  0  0  0  0  0  0  0
  -24.6560   -9.8660   21.7580 C   0  0  0  0  0  3  0  0  0  0  0  0
  -23.9000   -8.6830   21.9060 C   0  0  0  0  0  3  0  0  0  0  0  0
  -22.7410   -8.4780   21.1200 C   0  0  0  0  0  0  0  0  0  0  0  0
  -22.3730   -9.4530   20.1760 C   0  0  0  0  0  3  0  0  0  0  0  0
  -23.1300  -10.6280   20.0270 C   0  0  0  0  0  3  0  0  0  0  0  0
  -21.9600   -7.3500   21.1750 O   0  0  0  0  0  0  0  0  0  0  0  0
  -21.7890   -6.6510   22.3430 C   0  0  0  0  0  0  0  0  0  0  0  0
  -21.2080   -7.2400   23.4860 C   0  0  0  0  0  3  0  0  0  0  0  0
  -20.9900   -6.4660   24.6440 C   0  0  0  0  0  3  0  0  0  0  0  0
  -21.3400   -5.1030   24.6560 C   0  0  0  0  0  0  0  0  0  0  0  0
  -21.9130   -4.5120   23.5150 C   0  0  0  0  0  3  0  0  0  0  0  0
  -22.1340   -5.2830   22.3620 C   0  0  0  0  0  0  0  0  0  0  0  0
  -22.6680   -4.7050   21.2590 F   0  0  0  0  0  0  0  0  0  0  0  0
  -21.1220   -4.3560   25.7640 F   0  0  0  0  0  0  0  0  0  0  0  0
  -23.2190  -13.9650   21.0740 C   0  0  0  0  0  0  0  0  0  0  0  0
  -22.4950  -13.2650   21.9400 N   0  0  0  0  0  0  0  0  0  0  0  0
  -22.7960  -15.0130   20.5860 O   0  0  0  0  0  0  0  0  0  0  0  0
  -22.8490  -12.4140   22.3500 H   0  0  0  0  0  0  0  0  0  0  0  0
  -21.5720  -13.5860   22.1960 H   0  0  0  0  0  0  0  0  0  0  0  0
  -25.8700  -15.5940   20.2600 N   0  0  0  0  0  0  0  0  0  0  0  0
  -25.1210  -16.2630   20.4010 H   0  0  0  0  0  0  0  0  0  0  0  0
  -26.7140  -16.0190   19.8970 H   0  0  0  0  0  0  0  0  0  0  0  0
  -29.3440  -23.5560   19.9780 C   0  0  0  0  0  3  0  0  0  0  0  0
  -28.3060  -24.9010   19.7500 C   0  0  0  0  0  3  0  0  0  0  0  0
  -28.5450  -26.4360   20.0340 O   0  0  0  0  0  0  0  0  0  0  0  0
  -24.6950  -31.8260   23.3490 C   0  0  0  0  0  0  0  0  0  0  0  0
  -27.4790  -27.4230   20.0140 C   0  0  0  0  0  0  0  0  0  0  0  0
  -23.5870  -30.5550   21.5520 C   0  0  0  0  0  3  0  0  0  0  0  0
  -25.1180  -29.1400   20.0450 C   0  0  0  0  0  0  0  0  0  0  0  0
  -26.1400  -30.8810   21.5010 C   0  0  0  0  0  2  0  0  0  0  0  0
  -26.2660  -29.5500   20.7330 C   0  0  0  0  0  0  0  0  0  0  0  0
  -27.4490  -28.7120   20.6960 C   0  0  0  0  0  3  0  0  0  0  0  0
  -26.3010  -27.1280   19.2930 C   0  0  0  0  0  3  0  0  0  0  0  0
  -25.1500  -27.9460   19.3090 C   0  0  0  0  0  3  0  0  0  0  0  0
  -23.8710  -30.0070   20.1280 C   0  0  0  0  0  2  0  0  0  0  0  0
  -24.8260  -31.1070   22.1910 N   0  0  0  0  0  0  0  0  0  0  0  0
  -23.5840  -32.0370   23.8600 O   0  0  0  0  0  0  0  0  0  0  0  0
  -22.8990  -29.4540   22.3990 C   0  0  0  0  0  0  0  0  0  0  0  0
  -21.5820  -29.2620   22.2080 N   0  0  0  0  0  0  0  0  0  0  0  0
  -23.5570  -28.7780   23.1930 O   0  0  0  0  0  0  0  0  0  0  0  0
  -21.1060  -29.8640   21.5500 H   0  0  0  0  0  0  0  0  0  0  0  0
  -18.2120  -27.9610   22.5080 C   0  0  0  0  0  0  0  0  0  0  0  0
  -20.7600  -28.2420   22.8640 C   0  0  0  0  0  3  0  0  0  0  0  0
  -20.9030  -26.8730   22.1580 C   0  0  0  0  0  2  0  0  0  0  0  0
  -19.8330  -26.6300   21.0900 C   0  0  0  0  0  2  0  0  0  0  0  0
  -18.4330  -26.6880   21.7080 C   0  0  0  0  0  2  0  0  0  0  0  0
  -19.3050  -28.7000   23.0360 C   0  0  0  0  0  0  0  0  0  0  0  0
  -19.0440  -29.8920   23.7430 C   0  0  0  0  0  3  0  0  0  0  0  0
  -17.7250  -30.3500   23.9260 C   0  0  0  0  0  3  0  0  0  0  0  0
  -16.6480  -29.6090   23.4100 C   0  0  0  0  0  3  0  0  0  0  0  0
  -16.8920  -28.4150   22.7070 C   0  0  0  0  0  3  0  0  0  0  0  0
  -25.9330  -32.4330   24.0760 C   0  0  0  0  0  3  0  0  0  0  0  0
  -26.3560  -31.6200   25.3620 C   0  0  1  0  0  0  0  0  0  0  0  0
  -25.1880  -31.3470   26.3390 C   0  0  0  0  0  1  0  0  0  0  0  0
  -26.9720  -30.2580   24.9720 C   0  0  0  0  0  1  0  0  0  0  0  0
  -27.4530  -32.3940   26.1310 C   0  0  0  0  0  1  0  0  0  0  0  0
  -25.6060  -33.8220   24.4360 N   0  0  0  0  0  0  0  0  0  0  0  0
  -25.9380  -34.9000   23.7120 C   0  0  0  0  0  0  0  0  0  0  0  0
  -26.6160  -34.8280   22.6840 O   0  0  0  0  0  0  0  0  0  0  0  0
  -25.0080  -33.9510   25.2390 H   0  0  0  0  0  0  0  0  0  0  0  0
  -24.1720  -36.6700   23.4280 C   0  0  0  0  0  1  0  0  0  0  0  0
  -25.4380  -36.2730   24.2030 C   0  0  0  0  0  3  0  0  0  0  0  0
  -27.5640  -37.1960   25.0130 C   0  0  0  0  0  1  0  0  0  0  0  0
  -26.4480  -37.3460   24.0830 N   0  0  0  0  0  0  0  0  0  0  0  0
  -26.0260  -38.2580   24.2370 H   0  0  0  0  0  0  0  0  0  0  0  0
  2  1  1  0
  3  6  1  0
  3  5  1  0
  4  1  1  0
  5  7  1  0
  5  4  1  0
  6 46  1  1
  6  2  1  0
  6  4  1  0
  7 16  1  0
  8 14  1  0
  8 16  1  0
  9 14  1  0
 10 11  1  0
 10  9  1  0
 12 11  1  0
 12 21  1  0
 12 13  1  0
 14 13  1  0
 15  8  2  0
 16 17  1  0
 18 19  2  0
 19 38  1  0
 20 19  1  0
 20 23  1  0
 21 22  1  0
 21 18  1  0
 22 20  2  0
 23 24  1  0
 24 25  2  0
 26 29  1  0
 26 25  1  0
 27 26  2  0
 28 27  1  0
 28 23  2  0
 29 30  1  0
 30 35  2  0
 30 31  1  0
 31 32  2  0
 32 33  1  0
 33 37  1  0
 34 33  2  0
 35 34  1  0
 36 35  1  0
 38 39  1  0
 39 42  1  0
 39 41  1  0
 40 38  2  0
 43 18  1  0
 43 44  1  0
 45 43  1  0
 47 46  2  0
 47 48  1  0
 49 60  2  0
 50 48  1  0
 50 55  1  0
 51 59  1  0
 51 61  1  0
 52 58  1  0
 52 54  1  0
 53 59  1  0
 54 53  1  0
 55 54  2  0
 56 57  1  0
 56 50  2  0
 57 52  2  0
 58 51  1  0
 59 49  1  0
 61 63  2  0
 62 61  1  0
 64 62  1  0
 65 74  2  0
 65 70  1  0
 66 62  1  0
 66 70  1  0
 67 66  1  0
 68 69  1  0
 68 67  1  0
 69 65  1  0
 70 71  2  0
 71 72  1  0
 73 72  2  0
 74 73  1  0
 75 49  1  0
 75 80  1  0
 75 76  1  0
 76 79  1  1
 76 77  1  0
 78 76  1  0
 80 83  1  0
 81 85  1  0
 81 80  1  0
 82 81  2  0
 85 84  1  0
 87 85  1  0
 87 88  1  0
 87 86  1  0
M  ISO  4   8 100  16 100  47 101  48 101
M  END
>  <TORSDO>  (69) 
F 19

>  <SCORE>  (69) 
-14.226

>  <name>  (69) 
68

>  <ligand_id>  (69) 
68

>  <original_smiles>  (69) 
[H]c1c([H])c([H])c2c(c1[H])C([H])([H])C([H])([H])C([H])([H])C2([H])N([H])C(=O)C1([H])N(C(=O)C([H])(N([H])C(=O)C([H])(N([H])C([H])([H])[H])C([H])([H])[H])C(C([H])([H])[H])(C([H])([H])[H])C([H])([H])[H])C([H])([H])c2c([H])c(OC([H])([H])C([H])([H])C34C([H])([H])C([H])([H])C3([H])C([H])(C([H])([H])N([H])C(=O)N3C([H])([H])C([H])([H])C([H])([H])C([H])(n5nc(-c6c([H])c([H])c(Oc7c([H])c([H])c(F)c([H])c7F)c([H])c6[H])c(C(=O)N([H])[H])c5N([H])[H])C3([H])[H])C4([H])[H])c([H])c([H])c2C1([H])[H]

>  <smiles>  (69) 
[H]c1c([H])c([H])c2c(c1[H])C([H])([H])C([H])([H])C([H])([H])C2([H])N([H])C(=O)C1([H])N(C(=O)C([H])(N([H])C(=O)C([H])(N([H])C([H])([H])[H])C([H])([H])[H])C(C([H])([H])[H])(C([H])([H])[H])C([H])([H])[H])C([H])([H])c2c([H])c(OC([H])([H])C([H])([H])C34C([H])([H])C([H])([H])C3([H])C([H])(C([H])([H])N([H])C(=O)N3C([H])([H])C([H])([H])C([H])([H])C([H])(n5nc(-c6c([H])c([H])c(Oc7c([H])c([H])c(F)c([H])c7F)c([H])c6[H])c(C(=O)N([H])[H])c5N([H])[H])C3([H])[H])C4([H])[H])c([H])c([H])c2C1([H])[H]

$$$$
70:0:0
     RDKit          3D

 88 97  0  0  1  0  0  0  0  0999 V2000
  -31.1290  -22.7480   19.5580 C   0  0  0  0  0  2  0  0  0  0  0  0
  -30.3600  -23.2480   20.7920 C   0  0  0  0  0  2  0  0  0  0  0  0
  -29.2320  -21.2860   18.3750 C   0  0  0  0  0  2  0  0  0  0  0  0
  -30.5120  -21.4270   19.1510 C   0  0  0  0  0  3  0  0  0  0  0  0
  -28.9000  -22.8150   20.5990 C   0  0  0  0  0  3  0  0  0  0  0  0
  -29.1970  -21.2280   19.8820 C   0  0  1  0  0  0  0  0  0  0  0  0
  -28.1020  -24.2980   19.9730 C   0  0  0  0  0  2  0  0  0  0  0  0
  -28.2310  -25.9000   20.3100 O   0  0  0  0  0  0  0  0  0  0  0  0
  -24.6560  -31.8460   23.1890 C   0  0  0  0  0  0  0  0  0  0  0  0
  -27.2080  -26.9730   20.1990 C   0  0  0  0  0  0  0  0  0  0  0  0
  -23.4540  -30.4410   21.5600 C   0  0  0  0  0  3  0  0  0  0  0  0
  -24.9000  -28.8310   20.1410 C   0  0  0  0  0  0  0  0  0  0  0  0
  -26.0170  -30.6590   21.4030 C   0  0  0  0  0  2  0  0  0  0  0  0
  -26.0860  -29.2480   20.7580 C   0  0  0  0  0  0  0  0  0  0  0  0
  -27.2330  -28.3390   20.7640 C   0  0  0  0  0  3  0  0  0  0  0  0
  -25.9940  -26.7010   19.5290 C   0  0  0  0  0  3  0  0  0  0  0  0
  -24.8780  -27.5780   19.5060 C   0  0  0  0  0  3  0  0  0  0  0  0
  -23.6780  -29.7470   20.1880 C   0  0  0  0  0  2  0  0  0  0  0  0
  -24.7310  -31.0080   22.1050 N   0  0  0  0  0  0  0  0  0  0  0  0
  -23.5680  -32.1400   23.7120 O   0  0  0  0  0  0  0  0  0  0  0  0
  -22.7610  -29.4520   22.5340 C   0  0  0  0  0  0  0  0  0  0  0  0
  -21.4300  -29.2990   22.4210 N   0  0  0  0  0  0  0  0  0  0  0  0
  -23.4300  -28.8230   23.3590 O   0  0  0  0  0  0  0  0  0  0  0  0
  -20.9450  -29.8560   21.7310 H   0  0  0  0  0  0  0  0  0  0  0  0
  -18.0430  -28.1180   22.9560 C   0  0  0  0  0  0  0  0  0  0  0  0
  -20.6050  -28.3690   23.2000 C   0  0  0  0  0  3  0  0  0  0  0  0
  -20.6930  -26.9350   22.6280 C   0  0  0  0  0  2  0  0  0  0  0  0
  -19.5830  -26.6160   21.6230 C   0  0  0  0  0  2  0  0  0  0  0  0
  -18.2070  -26.7680   22.2780 C   0  0  0  0  0  2  0  0  0  0  0  0
  -19.1670  -28.8760   23.3740 C   0  0  0  0  0  0  0  0  0  0  0  0
  -18.9580  -30.1370   23.9720 C   0  0  0  0  0  3  0  0  0  0  0  0
  -17.6560  -30.6410   24.1540 C   0  0  0  0  0  3  0  0  0  0  0  0
  -16.5450  -29.8810   23.7490 C   0  0  0  0  0  3  0  0  0  0  0  0
  -16.7390  -28.6210   23.1560 C   0  0  0  0  0  3  0  0  0  0  0  0
  -25.9300  -32.4880   23.8160 C   0  0  0  0  0  3  0  0  0  0  0  0
  -26.4450  -31.7180   25.0950 C   0  0  1  0  0  0  0  0  0  0  0  0
  -25.3540  -31.4860   26.1660 C   0  0  0  0  0  1  0  0  0  0  0  0
  -27.0260  -30.3380   24.7140 C   0  0  0  0  0  1  0  0  0  0  0  0
  -27.5970  -32.5130   25.7550 C   0  0  0  0  0  1  0  0  0  0  0  0
  -25.6110  -33.8850   24.1600 N   0  0  0  0  0  0  0  0  0  0  0  0
  -25.9320  -34.9520   23.4160 C   0  0  0  0  0  0  0  0  0  0  0  0
  -26.5910  -34.8640   22.3770 O   0  0  0  0  0  0  0  0  0  0  0  0
  -25.0210  -34.0260   24.9680 H   0  0  0  0  0  0  0  0  0  0  0  0
  -24.1910  -36.7480   23.1180 C   0  0  0  0  0  1  0  0  0  0  0  0
  -25.4490  -36.3350   23.8990 C   0  0  0  0  0  3  0  0  0  0  0  0
  -27.5950  -37.2250   24.6960 C   0  0  0  0  0  1  0  0  0  0  0  0
  -26.4740  -37.3950   23.7750 N   0  0  0  0  0  0  0  0  0  0  0  0
  -26.0670  -38.3120   23.9390 H   0  0  0  0  0  0  0  0  0  0  0  0
  -29.1070  -19.5960   20.5500 C   0  0  0  0  0  3  0  0  0  0  0  0
  -29.9380  -18.0920   20.0420 C   0  0  0  0  0  3  0  0  0  0  0  0
  -30.4380  -15.2190   20.2420 C   0  0  0  0  0  0  0  0  0  0  0  0
  -30.3670  -12.7880   19.3700 C   0  0  0  0  0  2  0  0  0  0  0  0
  -29.4290  -12.6220   18.1470 C   0  0  0  0  0  2  0  0  0  0  0  0
  -27.9840  -12.3610   18.6050 C   0  0  0  0  0  2  0  0  0  0  0  0
  -27.5580  -13.3200   19.7460 C   0  0  0  0  0  3  0  0  0  0  0  0
  -28.6220  -13.4490   20.8590 C   0  0  0  0  0  2  0  0  0  0  0  0
  -29.8570  -13.9250   20.2170 N   0  0  0  0  0  0  0  0  0  0  0  0
  -31.6430  -15.2240   19.9540 O   0  0  0  0  0  0  0  0  0  0  0  0
  -29.6910  -16.4840   20.3790 N   0  0  0  0  0  0  0  0  0  0  0  0
  -28.7290  -16.2950   20.6210 H   0  0  0  0  0  0  0  0  0  0  0  0
  -25.1980  -13.8820   20.5350 C   0  0  0  0  0  0  0  0  0  0  0  0
  -24.1400  -13.1050   20.9160 C   0  0  0  0  0  0  0  0  0  0  0  0
  -24.6040  -11.7550   20.8750 C   0  0  0  0  0  0  0  0  0  0  0  0
  -26.2360  -13.0050   20.2730 N   0  0  0  0  0  0  0  0  0  0  0  0
  -25.8920  -11.7200   20.5470 N   0  0  0  0  0  0  0  0  0  0  0  0
  -23.8780  -10.4930   21.0700 C   0  0  0  0  0  0  0  0  0  0  0  0
  -24.3280   -9.5130   21.9830 C   0  0  0  0  0  3  0  0  0  0  0  0
  -23.5990   -8.3180   22.1680 C   0  0  0  0  0  3  0  0  0  0  0  0
  -22.4060   -8.0950   21.4400 C   0  0  0  0  0  0  0  0  0  0  0  0
  -21.9750   -9.0630   20.5160 C   0  0  0  0  0  3  0  0  0  0  0  0
  -22.7040  -10.2500   20.3280 C   0  0  0  0  0  3  0  0  0  0  0  0
  -21.6460   -6.9530   21.5360 O   0  0  0  0  0  0  0  0  0  0  0  0
  -21.6340   -6.1910   22.6750 C   0  0  0  0  0  0  0  0  0  0  0  0
  -21.2700   -6.7290   23.9290 C   0  0  0  0  0  3  0  0  0  0  0  0
  -21.2030   -5.8920   25.0610 C   0  0  0  0  0  3  0  0  0  0  0  0
  -21.4900   -4.5200   24.9420 C   0  0  0  0  0  0  0  0  0  0  0  0
  -21.8470   -3.9820   23.6920 C   0  0  0  0  0  3  0  0  0  0  0  0
  -21.9170   -4.8130   22.5630 C   0  0  0  0  0  0  0  0  0  0  0  0
  -22.2410   -4.2850   21.3580 F   0  0  0  0  0  0  0  0  0  0  0  0
  -21.4190   -3.7150   26.0280 F   0  0  0  0  0  0  0  0  0  0  0  0
  -22.7470  -13.5840   21.2020 C   0  0  0  0  0  0  0  0  0  0  0  0
  -22.0280  -12.8890   22.0760 N   0  0  0  0  0  0  0  0  0  0  0  0
  -22.3060  -14.6100   20.6860 O   0  0  0  0  0  0  0  0  0  0  0  0
  -22.4000  -12.0600   22.5150 H   0  0  0  0  0  0  0  0  0  0  0  0
  -21.0920  -13.1900   22.3080 H   0  0  0  0  0  0  0  0  0  0  0  0
  -25.3580  -15.2530   20.3590 N   0  0  0  0  0  0  0  0  0  0  0  0
  -24.5880  -15.9020   20.4800 H   0  0  0  0  0  0  0  0  0  0  0  0
  -26.1880  -15.6930   19.9820 H   0  0  0  0  0  0  0  0  0  0  0  0
  1  2  1  0
  3  6  1  0
  4  3  1  0
  4  1  1  0
  4  6  1  0
  5  7  1  0
  5  2  1  0
  6 49  1  6
  6  5  1  0
  7  8  1  0
  9 20  2  0
 10  8  1  0
 10 15  1  0
 11 19  1  0
 11 21  1  0
 12 18  1  0
 12 14  1  0
 13 19  1  0
 14 15  2  0
 14 13  1  0
 16 10  2  0
 17 16  1  0
 17 12  2  0
 18 11  1  0
 19  9  1  0
 21 23  2  0
 22 21  1  0
 24 22  1  0
 25 34  2  0
 25 30  1  0
 26 22  1  0
 26 30  1  0
 27 26  1  0
 28 29  1  0
 28 27  1  0
 29 25  1  0
 30 31  2  0
 31 32  1  0
 33 32  2  0
 34 33  1  0
 35  9  1  0
 35 40  1  0
 35 36  1  0
 36 39  1  1
 36 37  1  0
 38 36  1  0
 40 43  1  0
 41 45  1  0
 41 40  1  0
 42 41  2  0
 45 44  1  0
 47 45  1  0
 47 48  1  0
 47 46  1  0
 50 59  1  0
 50 49  2  0
 51 59  1  0
 52 57  1  0
 53 54  1  0
 53 52  1  0
 55 54  1  0
 55 64  1  0
 55 56  1  0
 57 51  1  0
 57 56  1  0
 58 51  2  0
 59 60  1  0
 61 62  2  0
 62 81  1  0
 63 62  1  0
 63 66  1  0
 64 61  1  0
 64 65  1  0
 65 63  2  0
 66 67  1  0
 67 68  2  0
 69 72  1  0
 69 68  1  0
 70 69  2  0
 71 70  1  0
 71 66  2  0
 72 73  1  0
 73 74  1  0
 74 75  2  0
 76 75  1  0
 76 80  1  0
 77 76  2  0
 78 73  2  0
 78 77  1  0
 79 78  1  0
 81 82  1  0
 82 85  1  0
 82 84  1  0
 83 81  2  0
 86 87  1  0
 86 61  1  0
 88 86  1  0
M  ISO  4   7 101   8 101  51 100  59 100
M  END
>  <TORSDO>  (70) 
F 19

>  <SCORE>  (70) 
-15.745

>  <name>  (70) 
70

>  <ligand_id>  (70) 
70

>  <original_smiles>  (70) 
[H]c1c([H])c([H])c2c(c1[H])C([H])([H])C([H])([H])C([H])([H])C2([H])N([H])C(=O)C1([H])N(C(=O)C([H])(N([H])C(=O)C([H])(N([H])C([H])([H])[H])C([H])([H])[H])C(C([H])([H])[H])(C([H])([H])[H])C([H])([H])[H])C([H])([H])c2c([H])c(OC([H])([H])C3([H])C([H])([H])C([H])([H])C4([H])C([H])([H])C34C([H])([H])C([H])([H])N([H])C(=O)N3C([H])([H])C([H])([H])C([H])([H])C([H])(n4nc(-c5c([H])c([H])c(Oc6c([H])c([H])c(F)c([H])c6F)c([H])c5[H])c(C(=O)N([H])[H])c4N([H])[H])C3([H])[H])c([H])c([H])c2C1([H])[H]

>  <smiles>  (70) 
[H]c1c([H])c([H])c2c(c1[H])C([H])([H])C([H])([H])C([H])([H])C2([H])N([H])C(=O)C1([H])N(C(=O)C([H])(N([H])C(=O)C([H])(N([H])C([H])([H])[H])C([H])([H])[H])C(C([H])([H])[H])(C([H])([H])[H])C([H])([H])[H])C([H])([H])c2c([H])c(OC([H])([H])C3([H])C([H])([H])C([H])([H])C4([H])C([H])([H])C34C([H])([H])C([H])([H])N([H])C(=O)N3C([H])([H])C([H])([H])C([H])([H])C([H])(n4nc(-c5c([H])c([H])c(Oc6c([H])c([H])c(F)c([H])c6F)c([H])c5[H])c(C(=O)N([H])[H])c4N([H])[H])C3([H])[H])c([H])c([H])c2C1([H])[H]

$$$$
71:0:0
     RDKit          3D

 90 99  0  0  1  0  0  0  0  0999 V2000
  -28.8030  -21.1180   18.9330 C   0  0  0  0  0  3  0  0  0  0  0  0
  -28.6160  -22.5350   18.7580 C   0  0  0  0  0  3  0  0  0  0  0  0
  -28.9780  -22.9010   21.0590 C   0  0  0  0  0  3  0  0  0  0  0  0
  -29.0810  -20.4830   20.1820 C   0  0  0  0  0  0  0  0  0  0  0  0
  -28.6730  -23.5120   19.8000 C   0  0  0  0  0  0  0  0  0  0  0  0
  -29.1650  -21.4640   21.2390 C   0  0  0  0  0  0  0  0  0  0  0  0
  -29.3960  -21.0140   22.4950 F   0  0  0  0  0  0  0  0  0  0  0  0
  -29.0640  -18.0460   19.1150 C   0  0  0  0  0  2  0  0  0  0  0  0
  -29.0460  -18.8590   20.3870 C   0  0  0  0  0  3  0  0  0  0  0  0
  -30.0230  -17.5410   20.1570 C   0  0  0  0  0  3  0  0  0  0  0  0
  -30.5740  -14.9180   20.3210 C   0  0  0  0  0  0  0  0  0  0  0  0
  -30.4280  -12.5970   19.3630 C   0  0  0  0  0  2  0  0  0  0  0  0
  -29.4920  -12.6120   18.1330 C   0  0  0  0  0  2  0  0  0  0  0  0
  -28.0240  -12.4210   18.5620 C   0  0  0  0  0  2  0  0  0  0  0  0
  -27.6330  -13.3260   19.7600 C   0  0  0  0  0  3  0  0  0  0  0  0
  -28.6900  -13.2870   20.8860 C   0  0  0  0  0  2  0  0  0  0  0  0
  -29.9760  -13.6690   20.2870 N   0  0  0  0  0  0  0  0  0  0  0  0
  -31.7620  -15.0140   19.9960 O   0  0  0  0  0  0  0  0  0  0  0  0
  -29.7710  -16.0620   20.4800 N   0  0  0  0  0  0  0  0  0  0  0  0
  -28.8250  -15.8490   20.7540 H   0  0  0  0  0  0  0  0  0  0  0  0
  -25.2470  -13.9060   20.4940 C   0  0  0  0  0  0  0  0  0  0  0  0
  -24.1840  -13.1300   20.8640 C   0  0  0  0  0  0  0  0  0  0  0  0
  -24.6500  -11.7790   20.8320 C   0  0  0  0  0  0  0  0  0  0  0  0
  -26.2920  -13.0290   20.2540 N   0  0  0  0  0  0  0  0  0  0  0  0
  -25.9410  -11.7450   20.5220 N   0  0  0  0  0  0  0  0  0  0  0  0
  -23.9250  -10.5150   21.0200 C   0  0  0  0  0  0  0  0  0  0  0  0
  -24.3520   -9.5510   21.9580 C   0  0  0  0  0  3  0  0  0  0  0  0
  -23.6260   -8.3530   22.1350 C   0  0  0  0  0  3  0  0  0  0  0  0
  -22.4590   -8.1120   21.3720 C   0  0  0  0  0  0  0  0  0  0  0  0
  -22.0510   -9.0650   20.4230 C   0  0  0  0  0  3  0  0  0  0  0  0
  -22.7780  -10.2550   20.2440 C   0  0  0  0  0  3  0  0  0  0  0  0
  -21.7050   -6.9660   21.4570 O   0  0  0  0  0  0  0  0  0  0  0  0
  -21.6370   -6.2340   22.6160 C   0  0  0  0  0  0  0  0  0  0  0  0
  -21.1690   -6.7930   23.8240 C   0  0  0  0  0  3  0  0  0  0  0  0
  -21.0510   -5.9860   24.9740 C   0  0  0  0  0  3  0  0  0  0  0  0
  -21.3890   -4.6220   24.9150 C   0  0  0  0  0  0  0  0  0  0  0  0
  -21.8500   -4.0620   23.7100 C   0  0  0  0  0  3  0  0  0  0  0  0
  -21.9700   -4.8650   22.5630 C   0  0  0  0  0  0  0  0  0  0  0  0
  -22.3950   -4.3160   21.4000 F   0  0  0  0  0  0  0  0  0  0  0  0
  -21.2680   -3.8440   26.0170 F   0  0  0  0  0  0  0  0  0  0  0  0
  -22.7860  -13.6050   21.1340 C   0  0  0  0  0  0  0  0  0  0  0  0
  -22.0570  -12.9060   21.9970 N   0  0  0  0  0  0  0  0  0  0  0  0
  -22.3490  -14.6310   20.6160 O   0  0  0  0  0  0  0  0  0  0  0  0
  -22.4240  -12.0750   22.4380 H   0  0  0  0  0  0  0  0  0  0  0  0
  -21.1190  -13.2060   22.2210 H   0  0  0  0  0  0  0  0  0  0  0  0
  -25.4080  -15.2770   20.3150 N   0  0  0  0  0  0  0  0  0  0  0  0
  -24.6330  -15.9230   20.4190 H   0  0  0  0  0  0  0  0  0  0  0  0
  -26.2390  -15.7160   19.9430 H   0  0  0  0  0  0  0  0  0  0  0  0
  -28.4490  -25.0790   19.3890 C   0  0  0  0  0  2  0  0  0  0  0  0
  -28.2990  -26.3230   20.2600 O   0  0  0  0  0  0  0  0  0  0  0  0
  -24.6060  -31.8880   23.2330 C   0  0  0  0  0  0  0  0  0  0  0  0
  -27.2180  -27.2550   20.1530 C   0  0  0  0  0  0  0  0  0  0  0  0
  -23.4090  -30.4940   21.5890 C   0  0  0  0  0  3  0  0  0  0  0  0
  -24.8630  -28.9460   20.1480 C   0  0  0  0  0  0  0  0  0  0  0  0
  -25.9560  -30.7900   21.4150 C   0  0  0  0  0  2  0  0  0  0  0  0
  -26.0380  -29.4080   20.7550 C   0  0  0  0  0  0  0  0  0  0  0  0
  -27.2110  -28.5730   20.7500 C   0  0  0  0  0  3  0  0  0  0  0  0
  -26.0070  -26.8760   19.5270 C   0  0  0  0  0  3  0  0  0  0  0  0
  -24.8570  -27.6910   19.5240 C   0  0  0  0  0  3  0  0  0  0  0  0
  -23.6270  -29.8280   20.2050 C   0  0  0  0  0  2  0  0  0  0  0  0
  -24.6770  -31.0780   22.1340 N   0  0  0  0  0  0  0  0  0  0  0  0
  -23.5200  -32.1630   23.7660 O   0  0  0  0  0  0  0  0  0  0  0  0
  -22.7420  -29.4750   22.5470 C   0  0  0  0  0  0  0  0  0  0  0  0
  -21.4150  -29.3000   22.4250 N   0  0  0  0  0  0  0  0  0  0  0  0
  -23.4220  -28.8450   23.3610 O   0  0  0  0  0  0  0  0  0  0  0  0
  -20.9240  -29.8590   21.7420 H   0  0  0  0  0  0  0  0  0  0  0  0
  -18.0390  -28.0950   22.9380 C   0  0  0  0  0  0  0  0  0  0  0  0
  -20.5990  -28.3570   23.1940 C   0  0  0  0  0  3  0  0  0  0  0  0
  -20.6980  -26.9290   22.6100 C   0  0  0  0  0  2  0  0  0  0  0  0
  -19.5910  -26.6120   21.5980 C   0  0  0  0  0  2  0  0  0  0  0  0
  -18.2130  -26.7510   22.2510 C   0  0  0  0  0  2  0  0  0  0  0  0
  -19.1580  -28.8560   23.3660 C   0  0  0  0  0  0  0  0  0  0  0  0
  -18.9410  -30.1140   23.9700 C   0  0  0  0  0  3  0  0  0  0  0  0
  -17.6360  -30.6110   24.1480 C   0  0  0  0  0  3  0  0  0  0  0  0
  -16.5310  -29.8470   23.7350 C   0  0  0  0  0  3  0  0  0  0  0  0
  -16.7320  -28.5910   23.1360 C   0  0  0  0  0  3  0  0  0  0  0  0
  -25.8830  -32.5270   23.8590 C   0  0  0  0  0  3  0  0  0  0  0  0
  -25.5710  -33.9280   24.1790 N   0  0  0  0  0  0  0  0  0  0  0  0
  -25.9050  -34.9790   23.4180 C   0  0  0  0  0  0  0  0  0  0  0  0
  -26.5770  -34.8700   22.3890 O   0  0  0  0  0  0  0  0  0  0  0  0
  -24.9740  -34.0860   24.9780 H   0  0  0  0  0  0  0  0  0  0  0  0
  -24.1830  -36.7770   23.0520 C   0  0  0  0  0  1  0  0  0  0  0  0
  -25.4190  -36.3700   23.8700 C   0  0  0  0  0  3  0  0  0  0  0  0
  -27.5500  -37.2570   24.7120 C   0  0  0  0  0  1  0  0  0  0  0  0
  -26.4550  -37.4200   23.7580 N   0  0  0  0  0  0  0  0  0  0  0  0
  -26.0500  -38.3420   23.8970 H   0  0  0  0  0  0  0  0  0  0  0  0
  -26.3890  -31.7670   25.1460 C   0  0  1  0  0  0  0  0  0  0  0  0
  -25.2880  -31.5420   26.2090 C   0  0  0  0  0  1  0  0  0  0  0  0
  -26.9720  -30.3840   24.7750 C   0  0  0  0  0  1  0  0  0  0  0  0
  -27.5360  -32.5650   25.8080 C   0  0  0  0  0  1  0  0  0  0  0  0
  1  4  1  0
  2  1  2  0
  2  5  1  0
  3  6  1  0
  4  6  2  0
  5  3  2  0
  6  7  1  0
  8 10  1  0
  8  9  1  0
  9  4  1  0
 10  9  1  0
 10 19  1  0
 11 19  1  0
 12 17  1  0
 13 14  1  0
 13 12  1  0
 15 14  1  0
 15 24  1  0
 15 16  1  0
 17 11  1  0
 17 16  1  0
 18 11  2  0
 19 20  1  0
 21 22  2  0
 22 41  1  0
 23 22  1  0
 23 26  1  0
 24 21  1  0
 24 25  1  0
 25 23  2  0
 26 27  1  0
 27 28  2  0
 29 32  1  0
 29 28  1  0
 30 29  2  0
 31 30  1  0
 31 26  2  0
 32 33  1  0
 33 34  1  0
 34 35  2  0
 36 35  1  0
 36 40  1  0
 37 36  2  0
 38 33  2  0
 38 37  1  0
 39 38  1  0
 41 42  1  0
 42 45  1  0
 42 44  1  0
 43 41  2  0
 46 47  1  0
 46 21  1  0
 48 46  1  0
 49  5  1  0
 49 50  1  0
 51 62  2  0
 52 50  1  0
 52 57  1  0
 53 61  1  0
 53 63  1  0
 54 60  1  0
 54 56  1  0
 55 61  1  0
 56 55  1  0
 57 56  2  0
 58 52  2  0
 59 58  1  0
 59 54  2  0
 60 53  1  0
 61 51  1  0
 63 65  2  0
 64 63  1  0
 66 64  1  0
 67 76  2  0
 67 72  1  0
 68 64  1  0
 68 72  1  0
 69 68  1  0
 70 71  1  0
 70 69  1  0
 71 67  1  0
 72 73  2  0
 73 74  1  0
 75 74  2  0
 76 75  1  0
 77 51  1  0
 77 78  1  0
 77 87  1  0
 78 81  1  0
 79 83  1  0
 79 78  1  0
 80 79  2  0
 83 82  1  0
 85 83  1  0
 85 86  1  0
 85 84  1  0
 87 90  1  1
 87 88  1  0
 89 87  1  0
M  ISO  4  11 100  19 100  49 101  50 101
M  END
>  <TORSDO>  (71) 
F 18

>  <SCORE>  (71) 
-14.752

>  <name>  (71) 
71

>  <ligand_id>  (71) 
71

>  <original_smiles>  (71) 
[H]c1c([H])c([H])c2c(c1[H])C([H])([H])C([H])([H])C([H])([H])C2([H])N([H])C(=O)C1([H])N(C(=O)C([H])(N([H])C(=O)C([H])(N([H])C([H])([H])[H])C([H])([H])[H])C(C([H])([H])[H])(C([H])([H])[H])C([H])([H])[H])C([H])([H])c2c([H])c(OC([H])([H])c3c([H])c([H])c(C4([H])C([H])([H])C4([H])N([H])C(=O)N4C([H])([H])C([H])([H])C([H])([H])C([H])(n5nc(-c6c([H])c([H])c(Oc7c([H])c([H])c(F)c([H])c7F)c([H])c6[H])c(C(=O)N([H])[H])c5N([H])[H])C4([H])[H])c(F)c3[H])c([H])c([H])c2C1([H])[H]

>  <smiles>  (71) 
[H]c1c([H])c([H])c2c(c1[H])C([H])([H])C([H])([H])C([H])([H])C2([H])N([H])C(=O)C1([H])N(C(=O)C([H])(N([H])C(=O)C([H])(N([H])C([H])([H])[H])C([H])([H])[H])C(C([H])([H])[H])(C([H])([H])[H])C([H])([H])[H])C([H])([H])c2c([H])c(OC([H])([H])c3c([H])c([H])c(C4([H])C([H])([H])C4([H])N([H])C(=O)N4C([H])([H])C([H])([H])C([H])([H])C([H])(n5nc(-c6c([H])c([H])c(Oc7c([H])c([H])c(F)c([H])c7F)c([H])c6[H])c(C(=O)N([H])[H])c5N([H])[H])C4([H])[H])c(F)c3[H])c([H])c([H])c2C1([H])[H]

$$$$
72:0:0
     RDKit          3D

 93101  0  0  1  0  0  0  0  0999 V2000
  -27.9240  -21.8530   20.0970 C   0  0  0  0  0  0  0  0  0  0  0  0
  -28.6020  -23.0110   20.0460 N   0  0  0  0  0  0  0  0  0  0  0  0
  -26.6950  -21.8020   20.1740 O   0  0  0  0  0  0  0  0  0  0  0  0
  -29.5970  -22.9260   19.8970 H   0  0  0  0  0  0  0  0  0  0  0  0
  -29.7950  -20.5500   21.1600 C   0  0  0  0  0  3  0  0  0  0  0  0
  -30.5170  -19.3650   21.4070 C   0  0  0  0  0  3  0  0  0  0  0  0
  -29.2420  -18.2280   19.6880 C   0  0  0  0  0  3  0  0  0  0  0  0
  -28.7660  -20.5960   20.1850 C   0  0  0  0  0  0  0  0  0  0  0  0
  -30.2190  -18.1760   20.7070 C   0  0  0  0  0  0  0  0  0  0  0  0
  -28.5260  -19.4210   19.4120 C   0  0  0  0  0  0  0  0  0  0  0  0
  -27.5370  -19.3980   18.2540 C   0  0  0  0  0  1  0  0  0  0  0  0
  -30.9970  -16.8980   21.0540 C   0  0  0  0  0  2  0  0  0  0  0  0
  -30.9150  -14.5730   20.1270 C   0  0  0  0  0  0  0  0  0  0  0  0
  -30.4930  -12.4270   18.9710 C   0  0  0  0  0  2  0  0  0  0  0  0
  -29.4970  -12.6430   17.8150 C   0  0  0  0  0  2  0  0  0  0  0  0
  -28.0420  -12.5300   18.3110 C   0  0  0  0  0  2  0  0  0  0  0  0
  -27.7800  -13.3500   19.6070 C   0  0  0  0  0  3  0  0  0  0  0  0
  -28.8950  -13.1360   20.6550 C   0  0  0  0  0  2  0  0  0  0  0  0
  -30.1870  -13.4230   20.0120 N   0  0  0  0  0  0  0  0  0  0  0  0
  -32.0160  -14.7090   19.5880 O   0  0  0  0  0  0  0  0  0  0  0  0
  -30.3370  -15.6060   20.7710 N   0  0  0  0  0  0  0  0  0  0  0  0
  -29.4170  -15.4630   21.1580 H   0  0  0  0  0  0  0  0  0  0  0  0
  -25.4290  -13.9520   20.4580 C   0  0  0  0  0  0  0  0  0  0  0  0
  -24.3720  -13.1810   20.8600 C   0  0  0  0  0  0  0  0  0  0  0  0
  -24.8140  -11.8260   20.7670 C   0  0  0  0  0  0  0  0  0  0  0  0
  -26.4520  -13.0690   20.1500 N   0  0  0  0  0  0  0  0  0  0  0  0
  -26.0880  -11.7820   20.3880 N   0  0  0  0  0  0  0  0  0  0  0  0
  -24.0800  -10.5670   20.9630 C   0  0  0  0  0  0  0  0  0  0  0  0
  -24.5190   -9.5920   21.8850 C   0  0  0  0  0  3  0  0  0  0  0  0
  -23.7860   -8.3990   22.0710 C   0  0  0  0  0  3  0  0  0  0  0  0
  -22.6010   -8.1730   21.3330 C   0  0  0  0  0  0  0  0  0  0  0  0
  -22.1790   -9.1350   20.3970 C   0  0  0  0  0  3  0  0  0  0  0  0
  -22.9130  -10.3200   20.2110 C   0  0  0  0  0  3  0  0  0  0  0  0
  -21.8420   -7.0310   21.4260 O   0  0  0  0  0  0  0  0  0  0  0  0
  -21.7700   -6.3060   22.5890 C   0  0  0  0  0  0  0  0  0  0  0  0
  -21.2820   -6.8680   23.7900 C   0  0  0  0  0  3  0  0  0  0  0  0
  -21.1620   -6.0690   24.9430 C   0  0  0  0  0  3  0  0  0  0  0  0
  -21.5150   -4.7070   24.8980 C   0  0  0  0  0  0  0  0  0  0  0  0
  -21.9930   -4.1430   23.7020 C   0  0  0  0  0  3  0  0  0  0  0  0
  -22.1160   -4.9400   22.5490 C   0  0  0  0  0  0  0  0  0  0  0  0
  -22.5580   -4.3870   21.3950 F   0  0  0  0  0  0  0  0  0  0  0  0
  -21.3910   -3.9370   26.0030 F   0  0  0  0  0  0  0  0  0  0  0  0
  -22.9970  -13.6670   21.2200 C   0  0  0  0  0  0  0  0  0  0  0  0
  -22.3010  -12.9530   22.0980 N   0  0  0  0  0  0  0  0  0  0  0  0
  -22.5480  -14.7130   20.7560 O   0  0  0  0  0  0  0  0  0  0  0  0
  -22.6780  -12.1090   22.5000 H   0  0  0  0  0  0  0  0  0  0  0  0
  -21.3800  -13.2580   22.3760 H   0  0  0  0  0  0  0  0  0  0  0  0
  -25.6000  -15.3260   20.3140 N   0  0  0  0  0  0  0  0  0  0  0  0
  -24.8480  -15.9810   20.4980 H   0  0  0  0  0  0  0  0  0  0  0  0
  -26.4390  -15.7720   19.9650 H   0  0  0  0  0  0  0  0  0  0  0  0
  -28.1070  -24.3340   20.4750 C   0  0  0  0  0  2  0  0  0  0  0  0
  -28.6060  -25.4930   19.5710 C   0  0  0  0  0  2  0  0  0  0  0  0
  -28.5060  -26.8070   20.1690 O   0  0  0  0  0  0  0  0  0  0  0  0
  -24.6170  -31.9490   23.2450 C   0  0  0  0  0  0  0  0  0  0  0  0
  -27.3120  -27.5090   20.1590 C   0  0  0  0  0  0  0  0  0  0  0  0
  -23.4320  -30.5420   21.5940 C   0  0  0  0  0  3  0  0  0  0  0  0
  -24.9040  -29.0150   20.1790 C   0  0  0  0  0  0  0  0  0  0  0  0
  -25.9650  -30.9050   21.4300 C   0  0  0  0  0  2  0  0  0  0  0  0
  -26.0570  -29.5380   20.7760 C   0  0  0  0  0  0  0  0  0  0  0  0
  -27.2590  -28.7910   20.7620 C   0  0  0  0  0  3  0  0  0  0  0  0
  -26.1350  -27.0040   19.5580 C   0  0  0  0  0  3  0  0  0  0  0  0
  -24.9410  -27.7520   19.5640 C   0  0  0  0  0  3  0  0  0  0  0  0
  -23.6500  -29.8600   20.2180 C   0  0  0  0  0  2  0  0  0  0  0  0
  -24.6860  -31.1510   22.1430 N   0  0  0  0  0  0  0  0  0  0  0  0
  -23.5320  -32.2150   23.7770 O   0  0  0  0  0  0  0  0  0  0  0  0
  -22.7820  -29.5190   22.5530 C   0  0  0  0  0  0  0  0  0  0  0  0
  -21.4540  -29.3460   22.4350 N   0  0  0  0  0  0  0  0  0  0  0  0
  -23.4690  -28.8830   23.3550 O   0  0  0  0  0  0  0  0  0  0  0  0
  -20.9560  -29.9450   21.7890 H   0  0  0  0  0  0  0  0  0  0  0  0
  -18.0820  -28.1200   22.9300 C   0  0  0  0  0  0  0  0  0  0  0  0
  -20.6420  -28.3860   23.1830 C   0  0  0  0  0  3  0  0  0  0  0  0
  -20.7490  -26.9700   22.5790 C   0  0  0  0  0  2  0  0  0  0  0  0
  -19.6320  -26.6330   21.5860 C   0  0  0  0  0  2  0  0  0  0  0  0
  -18.2510  -26.7800   22.2330 C   0  0  0  0  0  2  0  0  0  0  0  0
  -19.2030  -28.8780   23.3620 C   0  0  0  0  0  0  0  0  0  0  0  0
  -18.9880  -30.1320   23.9690 C   0  0  0  0  0  3  0  0  0  0  0  0
  -17.6850  -30.6370   24.1480 C   0  0  0  0  0  3  0  0  0  0  0  0
  -16.5790  -29.8790   23.7280 C   0  0  0  0  0  3  0  0  0  0  0  0
  -16.7800  -28.6230   23.1290 C   0  0  0  0  0  3  0  0  0  0  0  0
  -25.8930  -32.5890   23.8730 C   0  0  0  0  0  3  0  0  0  0  0  0
  -26.4030  -31.8330   25.1630 C   0  0  1  0  0  0  0  0  0  0  0  0
  -25.2970  -31.6030   26.2200 C   0  0  0  0  0  1  0  0  0  0  0  0
  -27.0030  -30.4540   24.7970 C   0  0  0  0  0  1  0  0  0  0  0  0
  -27.5350  -32.6470   25.8330 C   0  0  0  0  0  1  0  0  0  0  0  0
  -25.5720  -33.9880   24.1850 N   0  0  0  0  0  0  0  0  0  0  0  0
  -25.9140  -35.0370   23.4260 C   0  0  0  0  0  0  0  0  0  0  0  0
  -26.6030  -34.9290   22.4060 O   0  0  0  0  0  0  0  0  0  0  0  0
  -24.9450  -34.1470   24.9600 H   0  0  0  0  0  0  0  0  0  0  0  0
  -24.1910  -36.8280   23.0320 C   0  0  0  0  0  1  0  0  0  0  0  0
  -25.4170  -36.4260   23.8670 C   0  0  0  0  0  3  0  0  0  0  0  0
  -27.5250  -37.3210   24.7480 C   0  0  0  0  0  1  0  0  0  0  0  0
  -26.4480  -37.4800   23.7740 N   0  0  0  0  0  0  0  0  0  0  0  0
  -26.0340  -38.3980   23.9040 H   0  0  0  0  0  0  0  0  0  0  0  0
  1  3  2  0
  1  8  1  0
  2  1  1  0
  2 51  1  0
  4  2  1  0
  5  6  1  0
  7  9  1  0
  8  5  2  0
  9 12  1  0
  9  6  2  0
 10  7  2  0
 10  8  1  0
 11 10  1  0
 13 21  1  0
 14 19  1  0
 15 16  1  0
 15 14  1  0
 17 16  1  0
 17 26  1  0
 17 18  1  0
 19 13  1  0
 19 18  1  0
 20 13  2  0
 21 12  1  0
 21 22  1  0
 23 24  2  0
 24 43  1  0
 25 24  1  0
 25 28  1  0
 26 27  1  0
 26 23  1  0
 27 25  2  0
 28 29  1  0
 29 30  2  0
 31 34  1  0
 31 30  1  0
 32 31  2  0
 33 32  1  0
 33 28  2  0
 34 35  1  0
 35 36  1  0
 36 37  2  0
 38 37  1  0
 38 42  1  0
 39 38  2  0
 40 35  2  0
 40 39  1  0
 41 40  1  0
 43 44  1  0
 44 47  1  0
 44 46  1  0
 45 43  2  0
 48 23  1  0
 48 49  1  0
 50 48  1  0
 52 53  1  0
 52 51  1  0
 54 65  2  0
 55 53  1  0
 55 60  1  0
 56 64  1  0
 56 66  1  0
 57 63  1  0
 57 59  1  0
 58 64  1  0
 59 58  1  0
 60 59  2  0
 61 62  1  0
 61 55  2  0
 62 57  2  0
 63 56  1  0
 64 54  1  0
 66 68  2  0
 67 66  1  0
 69 67  1  0
 70 79  2  0
 70 75  1  0
 71 67  1  0
 71 75  1  0
 72 71  1  0
 73 74  1  0
 73 72  1  0
 74 70  1  0
 75 76  2  0
 76 77  1  0
 78 77  2  0
 79 78  1  0
 80 54  1  0
 80 85  1  0
 80 81  1  0
 81 84  1  1
 81 82  1  0
 83 81  1  0
 85 88  1  0
 86 90  1  0
 86 85  1  0
 87 86  2  0
 90 89  1  0
 92 90  1  0
 92 93  1  0
 92 91  1  0
M  ISO  4  13 100  21 100  52 101  53 101
M  END
>  <TORSDO>  (72) 
F 20

>  <SCORE>  (72) 
-13.736

>  <name>  (72) 
72

>  <ligand_id>  (72) 
72

>  <original_smiles>  (72) 
[H]c1c([H])c([H])c2c(c1[H])C([H])([H])C([H])([H])C([H])([H])C2([H])N([H])C(=O)C1([H])N(C(=O)C([H])(N([H])C(=O)C([H])(N([H])C([H])([H])[H])C([H])([H])[H])C(C([H])([H])[H])(C([H])([H])[H])C([H])([H])[H])C([H])([H])c2c([H])c(OC([H])([H])C([H])([H])N([H])C(=O)c3c([H])c([H])c(C([H])([H])N([H])C(=O)N4C([H])([H])C([H])([H])C([H])([H])C([H])(n5nc(-c6c([H])c([H])c(Oc7c([H])c([H])c(F)c([H])c7F)c([H])c6[H])c(C(=O)N([H])[H])c5N([H])[H])C4([H])[H])c([H])c3C([H])([H])[H])c([H])c([H])c2C1([H])[H]

>  <smiles>  (72) 
[H]c1c([H])c([H])c2c(c1[H])C([H])([H])C([H])([H])C([H])([H])C2([H])N([H])C(=O)C1([H])N(C(=O)C([H])(N([H])C(=O)C([H])(N([H])C([H])([H])[H])C([H])([H])[H])C(C([H])([H])[H])(C([H])([H])[H])C([H])([H])[H])C([H])([H])c2c([H])c(OC([H])([H])C([H])([H])N([H])C(=O)c3c([H])c([H])c(C([H])([H])N([H])C(=O)N4C([H])([H])C([H])([H])C([H])([H])C([H])(n5nc(-c6c([H])c([H])c(Oc7c([H])c([H])c(F)c([H])c7F)c([H])c6[H])c(C(=O)N([H])[H])c5N([H])[H])C4([H])[H])c([H])c3C([H])([H])[H])c([H])c([H])c2C1([H])[H]

$$$$
73:0:0
     RDKit          3D

 92101  0  0  1  0  0  0  0  0999 V2000
  -28.3380  -21.3610   20.0950 C   0  0  0  0  0  3  0  0  0  0  0  0
  -30.5180  -22.1920   20.6260 C   0  0  0  0  0  3  0  0  0  0  0  0
  -27.8260  -22.7000   20.1410 C   0  0  0  0  0  0  0  0  0  0  0  0
  -30.0270  -23.5320   20.6830 C   0  0  0  0  0  0  0  0  0  0  0  0
  -28.6500  -23.8290   20.4780 C   0  0  0  0  0  0  0  0  0  0  0  0
  -29.6950  -21.0640   20.3680 C   0  0  0  0  0  0  0  0  0  0  0  0
  -26.3470  -22.8900   19.8520 C   0  0  0  0  0  1  0  0  0  0  0  0
  -31.0040  -24.6460   21.0190 C   0  0  0  0  0  1  0  0  0  0  0  0
  -28.0290  -25.2390   20.8650 C   0  0  0  0  0  2  0  0  0  0  0  0
  -28.3470  -26.5070   20.1660 O   0  0  0  0  0  0  0  0  0  0  0  0
  -24.6200  -31.9120   23.1960 C   0  0  0  0  0  0  0  0  0  0  0  0
  -27.2680  -27.4000   20.1180 C   0  0  0  0  0  0  0  0  0  0  0  0
  -23.4290  -30.5100   21.5490 C   0  0  0  0  0  3  0  0  0  0  0  0
  -24.8940  -28.9850   20.1130 C   0  0  0  0  0  0  0  0  0  0  0  0
  -25.9650  -30.8550   21.3680 C   0  0  0  0  0  2  0  0  0  0  0  0
  -26.0580  -29.4830   20.7120 C   0  0  0  0  0  0  0  0  0  0  0  0
  -27.2540  -28.7020   20.7080 C   0  0  0  0  0  3  0  0  0  0  0  0
  -26.0900  -26.9650   19.4770 C   0  0  0  0  0  3  0  0  0  0  0  0
  -24.9100  -27.7300   19.4860 C   0  0  0  0  0  3  0  0  0  0  0  0
  -23.6480  -29.8450   20.1660 C   0  0  0  0  0  2  0  0  0  0  0  0
  -24.6890  -31.1090   22.0940 N   0  0  0  0  0  0  0  0  0  0  0  0
  -23.5340  -32.1770   23.7320 O   0  0  0  0  0  0  0  0  0  0  0  0
  -22.7750  -29.4830   22.5040 C   0  0  0  0  0  0  0  0  0  0  0  0
  -21.4510  -29.2900   22.3730 N   0  0  0  0  0  0  0  0  0  0  0  0
  -23.4580  -28.8610   23.3230 O   0  0  0  0  0  0  0  0  0  0  0  0
  -20.9600  -29.8440   21.6850 H   0  0  0  0  0  0  0  0  0  0  0  0
  -18.0910  -28.0360   22.8390 C   0  0  0  0  0  0  0  0  0  0  0  0
  -20.6400  -28.3430   23.1390 C   0  0  0  0  0  3  0  0  0  0  0  0
  -20.7760  -26.9100   22.5740 C   0  0  0  0  0  2  0  0  0  0  0  0
  -19.6930  -26.5610   21.5480 C   0  0  0  0  0  2  0  0  0  0  0  0
  -18.3000  -26.6870   22.1730 C   0  0  0  0  0  2  0  0  0  0  0  0
  -19.1900  -28.8210   23.2780 C   0  0  0  0  0  0  0  0  0  0  0  0
  -18.9410  -30.0830   23.8580 C   0  0  0  0  0  3  0  0  0  0  0  0
  -17.6250  -30.5610   24.0060 C   0  0  0  0  0  3  0  0  0  0  0  0
  -16.5400  -29.7740   23.5840 C   0  0  0  0  0  3  0  0  0  0  0  0
  -16.7740  -28.5130   23.0060 C   0  0  0  0  0  3  0  0  0  0  0  0
  -25.8980  -32.5520   23.8210 C   0  0  0  0  0  3  0  0  0  0  0  0
  -26.4190  -31.7820   25.0960 C   0  0  1  0  0  0  0  0  0  0  0  0
  -25.3260  -31.5320   26.1610 C   0  0  0  0  0  1  0  0  0  0  0  0
  -27.0140  -30.4100   24.7030 C   0  0  0  0  0  1  0  0  0  0  0  0
  -27.5630  -32.5840   25.7600 C   0  0  0  0  0  1  0  0  0  0  0  0
  -25.5760  -33.9470   24.1530 N   0  0  0  0  0  0  0  0  0  0  0  0
  -25.9090  -35.0050   23.4020 C   0  0  0  0  0  0  0  0  0  0  0  0
  -26.5870  -34.9110   22.3750 O   0  0  0  0  0  0  0  0  0  0  0  0
  -24.9780  -34.0950   24.9530 H   0  0  0  0  0  0  0  0  0  0  0  0
  -24.1800  -36.7940   23.0340 C   0  0  0  0  0  1  0  0  0  0  0  0
  -25.4110  -36.3900   23.8610 C   0  0  0  0  0  3  0  0  0  0  0  0
  -27.5300  -37.2740   24.7310 C   0  0  0  0  0  1  0  0  0  0  0  0
  -26.4420  -37.4460   23.7720 N   0  0  0  0  0  0  0  0  0  0  0  0
  -26.0300  -38.3640   23.9200 H   0  0  0  0  0  0  0  0  0  0  0  0
  -30.2950  -19.7860   20.4070 O   0  0  0  0  0  0  0  0  0  0  0  0
  -29.6220  -18.5040   20.1660 C   0  0  0  0  0  2  0  0  0  0  0  0
  -30.7470  -14.7400   20.0370 C   0  0  0  0  0  0  0  0  0  0  0  0
  -30.4210  -12.5290   18.9250 C   0  0  0  0  0  2  0  0  0  0  0  0
  -29.4080  -12.6540   17.7670 C   0  0  0  0  0  2  0  0  0  0  0  0
  -27.9660  -12.4810   18.2840 C   0  0  0  0  0  2  0  0  0  0  0  0
  -27.6820  -13.3320   19.5480 C   0  0  0  0  0  3  0  0  0  0  0  0
  -28.8040  -13.1820   20.5940 C   0  0  0  0  0  2  0  0  0  0  0  0
  -30.0690  -13.5470   19.9410 N   0  0  0  0  0  0  0  0  0  0  0  0
  -31.8560  -14.8620   19.5100 O   0  0  0  0  0  0  0  0  0  0  0  0
  -30.9340  -17.0790   21.9790 C   0  0  0  0  0  2  0  0  0  0  0  0
  -29.8570  -16.0010   21.9770 C   0  0  0  0  0  2  0  0  0  0  0  0
  -30.6030  -17.2950   20.5090 C   0  0  0  0  0  3  0  0  0  0  0  0
  -30.0900  -15.8580   20.5310 N   0  0  0  0  0  0  0  0  0  0  0  0
  -25.3520  -13.9170   20.4540 C   0  0  0  0  0  0  0  0  0  0  0  0
  -24.3060  -13.1370   20.8670 C   0  0  0  0  0  0  0  0  0  0  0  0
  -24.7560  -11.7840   20.7600 C   0  0  0  0  0  0  0  0  0  0  0  0
  -26.3690  -13.0390   20.1170 N   0  0  0  0  0  0  0  0  0  0  0  0
  -26.0210  -11.7500   20.3630 N   0  0  0  0  0  0  0  0  0  0  0  0
  -24.0340  -10.5210   20.9570 C   0  0  0  0  0  0  0  0  0  0  0  0
  -24.4720   -9.5570   21.8920 C   0  0  0  0  0  3  0  0  0  0  0  0
  -23.7500   -8.3580   22.0770 C   0  0  0  0  0  3  0  0  0  0  0  0
  -22.5760   -8.1140   21.3250 C   0  0  0  0  0  0  0  0  0  0  0  0
  -22.1570   -9.0660   20.3790 C   0  0  0  0  0  3  0  0  0  0  0  0
  -22.8790  -10.2560   20.1930 C   0  0  0  0  0  3  0  0  0  0  0  0
  -21.8240   -6.9670   21.4180 O   0  0  0  0  0  0  0  0  0  0  0  0
  -21.7170   -6.2720   22.5960 C   0  0  0  0  0  0  0  0  0  0  0  0
  -21.2060   -6.8670   23.7690 C   0  0  0  0  0  3  0  0  0  0  0  0
  -21.0470   -6.0970   24.9380 C   0  0  0  0  0  3  0  0  0  0  0  0
  -21.3880   -4.7310   24.9340 C   0  0  0  0  0  0  0  0  0  0  0  0
  -21.8900   -4.1350   23.7650 C   0  0  0  0  0  3  0  0  0  0  0  0
  -22.0510   -4.9020   22.5980 C   0  0  0  0  0  0  0  0  0  0  0  0
  -22.5160   -4.3170   21.4680 F   0  0  0  0  0  0  0  0  0  0  0  0
  -21.2280   -3.9880   26.0540 F   0  0  0  0  0  0  0  0  0  0  0  0
  -22.9340  -13.6120   21.2480 C   0  0  0  0  0  0  0  0  0  0  0  0
  -22.2600  -12.8900   22.1360 N   0  0  0  0  0  0  0  0  0  0  0  0
  -22.4700  -14.6570   20.7930 O   0  0  0  0  0  0  0  0  0  0  0  0
  -22.6510  -12.0450   22.5250 H   0  0  0  0  0  0  0  0  0  0  0  0
  -21.3410  -13.1860   22.4310 H   0  0  0  0  0  0  0  0  0  0  0  0
  -25.5200  -15.2920   20.3160 N   0  0  0  0  0  0  0  0  0  0  0  0
  -24.7810  -15.9570   20.5120 H   0  0  0  0  0  0  0  0  0  0  0  0
  -26.3660  -15.7280   19.9720 H   0  0  0  0  0  0  0  0  0  0  0  0
  1  3  2  0
  1  6  1  0
  2  4  1  0
  3  5  1  0
  4  8  1  0
  5  4  2  0
  5  9  1  0
  6 51  1  0
  6  2  2  0
  7  3  1  0
 10  9  1  0
 11 22  2  0
 12 10  1  0
 12 17  1  0
 13 21  1  0
 13 23  1  0
 14 20  1  0
 14 16  1  0
 15 21  1  0
 16 15  1  0
 17 16  2  0
 18 19  1  0
 18 12  2  0
 19 14  2  0
 20 13  1  0
 21 11  1  0
 23 25  2  0
 24 23  1  0
 26 24  1  0
 27 36  2  0
 27 32  1  0
 28 24  1  0
 28 32  1  0
 29 28  1  0
 30 31  1  0
 30 29  1  0
 31 27  1  0
 32 33  2  0
 33 34  1  0
 35 34  2  0
 36 35  1  0
 37 11  1  0
 37 42  1  0
 37 38  1  0
 38 41  1  1
 38 39  1  0
 40 38  1  0
 42 45  1  0
 43 47  1  0
 43 42  1  0
 44 43  2  0
 47 46  1  0
 49 47  1  0
 49 50  1  0
 49 48  1  0
 52 51  1  0
 53 64  1  0
 54 59  1  0
 55 56  1  0
 55 54  1  0
 57 56  1  0
 57 68  1  0
 57 58  1  0
 59 53  1  0
 59 58  1  0
 60 53  2  0
 62 61  1  0
 63 52  1  0
 63 64  1  0
 63 61  1  0
 64 62  1  0
 65 66  2  0
 66 85  1  0
 67 66  1  0
 67 70  1  0
 68 69  1  0
 68 65  1  0
 69 67  2  0
 70 71  1  0
 71 72  2  0
 73 76  1  0
 73 72  1  0
 74 73  2  0
 75 74  1  0
 75 70  2  0
 76 77  1  0
 77 82  2  0
 77 78  1  0
 78 79  2  0
 80 79  1  0
 80 84  1  0
 81 80  2  0
 82 81  1  0
 83 82  1  0
 85 86  1  0
 86 89  1  0
 86 88  1  0
 87 85  2  0
 90 65  1  0
 90 91  1  0
 92 90  1  0
M  ISO  4   9 101  10 101  53 100  64 100
M  END
>  <TORSDO>  (73) 
F 19

>  <SCORE>  (73) 
-14.020

>  <name>  (73) 
73

>  <ligand_id>  (73) 
73

>  <original_smiles>  (73) 
[H]c1c([H])c([H])c2c(c1[H])C([H])([H])C([H])([H])C([H])([H])C2([H])N([H])C(=O)C1([H])N(C(=O)C([H])(N([H])C(=O)C([H])(N([H])C([H])([H])[H])C([H])([H])[H])C(C([H])([H])[H])(C([H])([H])[H])C([H])([H])[H])C([H])([H])c2c([H])c(OC([H])([H])c3c(C([H])([H])[H])c([H])c(OC([H])([H])C4([H])N(C(=O)N5C([H])([H])C([H])([H])C([H])([H])C([H])(n6nc(-c7c([H])c([H])c(Oc8c([H])c([H])c(F)c([H])c8F)c([H])c7[H])c(C(=O)N([H])[H])c6N([H])[H])C5([H])[H])C([H])([H])C4([H])[H])c([H])c3C([H])([H])[H])c([H])c([H])c2C1([H])[H]

>  <smiles>  (73) 
[H]c1c([H])c([H])c2c(c1[H])C([H])([H])C([H])([H])C([H])([H])C2([H])N([H])C(=O)C1([H])N(C(=O)C([H])(N([H])C(=O)C([H])(N([H])C([H])([H])[H])C([H])([H])[H])C(C([H])([H])[H])(C([H])([H])[H])C([H])([H])[H])C([H])([H])c2c([H])c(OC([H])([H])c3c(C([H])([H])[H])c([H])c(OC([H])([H])C4([H])N(C(=O)N5C([H])([H])C([H])([H])C([H])([H])C([H])(n6nc(-c7c([H])c([H])c(Oc8c([H])c([H])c(F)c([H])c8F)c([H])c7[H])c(C(=O)N([H])[H])c6N([H])[H])C5([H])[H])C([H])([H])C4([H])[H])c([H])c3C([H])([H])[H])c([H])c([H])c2C1([H])[H]

$$$$
74:0:0
     RDKit          3D

 88 96  0  0  1  0  0  0  0  0999 V2000
  -30.8520  -15.5480   19.3210 C   0  0  0  0  0  0  0  0  0  0  0  0
  -31.0750  -12.8930   18.9320 C   0  0  0  0  0  2  0  0  0  0  0  0
  -30.1700  -12.1560   17.9000 C   0  0  0  0  0  2  0  0  0  0  0  0
  -28.7990  -11.8050   18.4950 C   0  0  0  0  0  2  0  0  0  0  0  0
  -28.2710  -12.9570   19.3780 C   0  0  0  0  0  3  0  0  0  0  0  0
  -29.3340  -13.5350   20.3470 C   0  0  0  0  0  2  0  0  0  0  0  0
  -30.3820  -14.1570   19.4920 N   0  0  0  0  0  0  0  0  0  0  0  0
  -32.0860  -15.4500   19.1410 O   0  0  0  0  0  0  0  0  0  0  0  0
  -28.1440  -20.1210   17.6360 C   0  0  0  0  0  2  0  0  0  0  0  0
  -30.6560  -18.4970   18.7260 C   0  0  0  0  0  2  0  0  0  0  0  0
  -28.4640  -19.2420   18.9480 C   0  0  0  0  0  3  0  0  0  0  0  0
  -29.7260  -20.0170   18.9390 C   0  0  0  0  0  3  0  0  0  0  0  0
  -29.0080  -21.4450   17.9600 C   0  0  0  0  0  2  0  0  0  0  0  0
  -28.6930  -17.5660   19.1740 C   0  0  0  0  0  3  0  0  0  0  0  0
  -30.1440  -16.9710   19.1350 N   0  0  0  0  0  0  0  0  0  0  0  0
  -26.0150  -13.5280   20.3890 C   0  0  0  0  0  0  0  0  0  0  0  0
  -24.9830  -12.7790   20.8700 C   0  0  0  0  0  0  0  0  0  0  0  0
  -25.3890  -11.4190   20.7250 C   0  0  0  0  0  0  0  0  0  0  0  0
  -27.0040  -12.6390   20.0220 N   0  0  0  0  0  0  0  0  0  0  0  0
  -26.6440  -11.3520   20.2780 N   0  0  0  0  0  0  0  0  0  0  0  0
  -24.6230  -10.1830   20.9260 C   0  0  0  0  0  0  0  0  0  0  0  0
  -25.0740   -9.1700   21.7990 C   0  0  0  0  0  3  0  0  0  0  0  0
  -24.3080   -8.0020   21.9960 C   0  0  0  0  0  3  0  0  0  0  0  0
  -23.0760   -7.8390   21.3200 C   0  0  0  0  0  0  0  0  0  0  0  0
  -22.6410   -8.8420   20.4330 C   0  0  0  0  0  3  0  0  0  0  0  0
  -23.4080  -10.0010   20.2340 C   0  0  0  0  0  3  0  0  0  0  0  0
  -22.2760   -6.7270   21.4300 O   0  0  0  0  0  0  0  0  0  0  0  0
  -22.1760   -6.0270   22.6050 C   0  0  0  0  0  0  0  0  0  0  0  0
  -21.7010   -6.6270   23.7920 C   0  0  0  0  0  3  0  0  0  0  0  0
  -21.5470   -5.8520   24.9600 C   0  0  0  0  0  3  0  0  0  0  0  0
  -21.8620   -4.4810   24.9420 C   0  0  0  0  0  0  0  0  0  0  0  0
  -22.3350   -3.8810   23.7600 C   0  0  0  0  0  3  0  0  0  0  0  0
  -22.4890   -4.6530   22.5950 C   0  0  0  0  0  0  0  0  0  0  0  0
  -22.9230   -4.0660   21.4540 F   0  0  0  0  0  0  0  0  0  0  0  0
  -21.7080   -3.7350   26.0610 F   0  0  0  0  0  0  0  0  0  0  0  0
  -23.6480  -13.3040   21.3070 C   0  0  0  0  0  0  0  0  0  0  0  0
  -23.0010  -12.6280   22.2490 N   0  0  0  0  0  0  0  0  0  0  0  0
  -23.1940  -14.3500   20.8460 O   0  0  0  0  0  0  0  0  0  0  0  0
  -23.3800  -11.7800   22.6400 H   0  0  0  0  0  0  0  0  0  0  0  0
  -22.1040  -12.9600   22.5760 H   0  0  0  0  0  0  0  0  0  0  0  0
  -26.1640  -14.8880   20.1800 N   0  0  0  0  0  0  0  0  0  0  0  0
  -25.3750  -15.5140   20.3060 H   0  0  0  0  0  0  0  0  0  0  0  0
  -26.8800  -15.2670   19.5750 H   0  0  0  0  0  0  0  0  0  0  0  0
  -28.7570  -17.6360   21.7610 C   0  0  0  0  0  1  0  0  0  0  0  0
  -26.5150  -17.5310   20.5890 C   0  0  0  0  0  1  0  0  0  0  0  0
  -28.0090  -17.1490   20.5060 C   0  0  0  0  0  3  0  0  0  0  0  0
  -28.1260  -23.2240   18.0290 C   0  0  0  0  0  1  0  0  0  0  0  0
  -28.2600  -24.9800   17.7130 O   0  0  0  0  0  0  0  0  0  0  0  0
  -25.6950  -30.6570   22.4650 C   0  0  0  0  0  0  0  0  0  0  0  0
  -27.4330  -26.2600   18.0960 C   0  0  0  0  0  0  0  0  0  0  0  0
  -24.2680  -29.8610   20.6270 C   0  0  0  0  0  3  0  0  0  0  0  0
  -25.4320  -28.4860   18.7410 C   0  0  0  0  0  0  0  0  0  0  0  0
  -26.8370  -29.7510   20.3430 C   0  0  0  0  0  2  0  0  0  0  0  0
  -26.6950  -28.5360   19.3410 C   0  0  0  0  0  0  0  0  0  0  0  0
  -27.6820  -27.4670   18.9890 C   0  0  0  0  0  3  0  0  0  0  0  0
  -26.1540  -26.4380   17.5070 C   0  0  0  0  0  3  0  0  0  0  0  0
  -25.2040  -27.4630   17.8020 C   0  0  0  0  0  3  0  0  0  0  0  0
  -24.3530  -29.5170   19.1140 C   0  0  0  0  0  2  0  0  0  0  0  0
  -25.6310  -30.1080   21.2010 N   0  0  0  0  0  0  0  0  0  0  0  0
  -24.6710  -30.9300   23.1150 O   0  0  0  0  0  0  0  0  0  0  0  0
  -23.4840  -28.7510   21.3790 C   0  0  0  0  0  0  0  0  0  0  0  0
  -22.1380  -28.8100   21.3650 N   0  0  0  0  0  0  0  0  0  0  0  0
  -24.0960  -27.8450   21.9470 O   0  0  0  0  0  0  0  0  0  0  0  0
  -21.7000  -29.5850   20.8850 H   0  0  0  0  0  0  0  0  0  0  0  0
  -18.6580  -28.0060   22.0490 C   0  0  0  0  0  0  0  0  0  0  0  0
  -21.2360  -27.8040   21.9400 C   0  0  0  0  0  3  0  0  0  0  0  0
  -20.9970  -26.6450   20.9470 C   0  0  0  0  0  2  0  0  0  0  0  0
  -19.7410  -26.8260   20.0880 C   0  0  0  0  0  2  0  0  0  0  0  0
  -18.4970  -26.9510   20.9700 C   0  0  0  0  0  2  0  0  0  0  0  0
  -19.9430  -28.4170   22.4950 C   0  0  0  0  0  0  0  0  0  0  0  0
  -20.0330  -29.4230   23.4830 C   0  0  0  0  0  3  0  0  0  0  0  0
  -18.8730  -30.0130   24.0160 C   0  0  0  0  0  3  0  0  0  0  0  0
  -17.6040  -29.5930   23.5790 C   0  0  0  0  0  3  0  0  0  0  0  0
  -17.4990  -28.5900   22.6010 C   0  0  0  0  0  3  0  0  0  0  0  0
  -27.0560  -30.9830   23.1510 C   0  0  0  0  0  3  0  0  0  0  0  0
  -26.8610  -32.1510   24.0330 N   0  0  0  0  0  0  0  0  0  0  0  0
  -27.3110  -33.3880   23.7900 C   0  0  0  0  0  0  0  0  0  0  0  0
  -27.9940  -33.6600   22.7990 O   0  0  0  0  0  0  0  0  0  0  0  0
  -26.2610  -32.0130   24.8330 H   0  0  0  0  0  0  0  0  0  0  0  0
  -25.8220  -35.3720   24.2380 C   0  0  0  0  0  1  0  0  0  0  0  0
  -26.9550  -34.4990   24.8020 C   0  0  0  0  0  3  0  0  0  0  0  0
  -29.1080  -34.6760   25.9730 C   0  0  0  0  0  1  0  0  0  0  0  0
  -28.1050  -35.3610   25.1640 N   0  0  0  0  0  0  0  0  0  0  0  0
  -27.7930  -36.1830   25.6750 H   0  0  0  0  0  0  0  0  0  0  0  0
  -27.6280  -29.7740   23.9900 C   0  0  1  0  0  0  0  0  0  0  0  0
  -26.6220  -29.1890   25.0100 C   0  0  0  0  0  1  0  0  0  0  0  0
  -28.0790  -28.6200   23.0680 C   0  0  0  0  0  1  0  0  0  0  0  0
  -28.8860  -30.2270   24.7690 C   0  0  0  0  0  1  0  0  0  0  0  0
  1  7  1  0
  2  7  1  0
  3  4  1  0
  3  2  1  0
  5  4  1  0
  5 19  1  0
  5  6  1  0
  7  6  1  0
  8  1  2  0
  9 13  1  0
 10 12  1  0
 10 15  1  0
 11  9  1  0
 11 14  1  0
 12 13  1  0
 12 11  1  0
 14 46  1  0
 15 14  1  0
 15  1  1  0
 16 17  2  0
 17 36  1  0
 18 17  1  0
 18 21  1  0
 19 20  1  0
 19 16  1  0
 20 18  2  0
 21 22  1  0
 22 23  2  0
 24 27  1  0
 24 23  1  0
 25 24  2  0
 26 25  1  0
 26 21  2  0
 27 28  1  0
 28 29  1  0
 29 30  2  0
 31 30  1  0
 31 35  1  0
 32 31  2  0
 33 28  2  0
 33 32  1  0
 34 33  1  0
 36 37  1  0
 37 40  1  0
 37 39  1  0
 38 36  2  0
 41 42  1  0
 41 16  1  0
 43 41  1  0
 46 45  1  0
 46 44  1  0
 48 47  1  0
 48 50  1  0
 49 60  2  0
 50 55  1  0
 51 59  1  0
 51 61  1  0
 52 58  1  0
 52 54  1  0
 53 59  1  0
 54 53  1  0
 55 54  2  0
 56 57  1  0
 56 50  2  0
 57 52  2  0
 58 51  1  0
 59 49  1  0
 61 63  2  0
 62 61  1  0
 64 62  1  0
 65 70  2  0
 65 74  1  0
 66 62  1  0
 66 70  1  0
 67 66  1  0
 68 67  1  0
 68 69  1  0
 69 65  1  0
 70 71  1  0
 71 72  2  0
 73 72  1  0
 74 73  2  0
 75 49  1  0
 75 85  1  0
 75 76  1  0
 76 79  1  0
 77 76  1  0
 77 81  1  0
 78 77  2  0
 81 80  1  0
 81 83  1  0
 83 84  1  0
 83 82  1  0
 85 88  1  1
 85 86  1  0
 87 85  1  0
M  ISO  4   1 100  15 100  47 101  48 101
M  END
>  <TORSDO>  (74) 
F 17

>  <SCORE>  (74) 
-9.152

>  <name>  (74) 
74

>  <ligand_id>  (74) 
74

>  <original_smiles>  (74) 
[H]c1c([H])c([H])c2c(c1[H])C([H])([H])C([H])([H])C([H])([H])C2([H])N([H])C(=O)C1([H])N(C(=O)C([H])(N([H])C(=O)C([H])(N([H])C([H])([H])[H])C([H])([H])[H])C(C([H])([H])[H])(C([H])([H])[H])C([H])([H])[H])C([H])([H])c2c([H])c(OC([H])([H])C3([H])C([H])([H])C4([H])C([H])(C([H])(C([H])([H])[H])C([H])([H])[H])N(C(=O)N5C([H])([H])C([H])([H])C([H])([H])C([H])(n6nc(-c7c([H])c([H])c(Oc8c([H])c([H])c(F)c([H])c8F)c([H])c7[H])c(C(=O)N([H])[H])c6N([H])[H])C5([H])[H])C([H])([H])C34[H])c([H])c([H])c2C1([H])[H]

>  <smiles>  (74) 
[H]c1c([H])c([H])c2c(c1[H])C([H])([H])C([H])([H])C([H])([H])C2([H])N([H])C(=O)C1([H])N(C(=O)C([H])(N([H])C(=O)C([H])(N([H])C([H])([H])[H])C([H])([H])[H])C(C([H])([H])[H])(C([H])([H])[H])C([H])([H])[H])C([H])([H])c2c([H])c(OC([H])([H])C3([H])C([H])([H])C4([H])C([H])(C([H])(C([H])([H])[H])C([H])([H])[H])N(C(=O)N5C([H])([H])C([H])([H])C([H])([H])C([H])(n6nc(-c7c([H])c([H])c(Oc8c([H])c([H])c(F)c([H])c8F)c([H])c7[H])c(C(=O)N([H])[H])c6N([H])[H])C5([H])[H])C([H])([H])C34[H])c([H])c([H])c2C1([H])[H]

$$$$
75:0:0
     RDKit          3D

 91100  0  0  1  0  0  0  0  0999 V2000
  -29.2690  -20.4500   21.7130 C   0  0  0  0  0  2  0  0  0  0  0  0
  -27.9800  -20.4170   19.5940 C   0  0  0  0  0  2  0  0  0  0  0  0
  -30.4560  -20.3370   19.5300 C   0  0  0  0  0  2  0  0  0  0  0  0
  -29.2620  -22.0210   21.6570 C   0  0  0  0  0  2  0  0  0  0  0  0
  -28.0140  -21.9750   19.5070 C   0  0  0  0  0  2  0  0  0  0  0  0
  -30.4940  -21.9010   19.5080 C   0  0  0  0  0  2  0  0  0  0  0  0
  -29.2260  -19.8010   20.3000 C   0  0  1  0  0  0  0  0  0  0  0  0
  -29.2640  -22.5680   20.2010 C   0  0  2  0  0  0  0  0  0  0  0  0
  -29.0870  -18.2040   20.3000 C   0  0  0  0  0  2  0  0  0  0  0  0
  -30.2600  -17.2280   20.7210 C   0  0  0  0  0  2  0  0  0  0  0  0
  -30.6640  -14.6810   20.4410 C   0  0  0  0  0  0  0  0  0  0  0  0
  -30.4410  -12.4430   19.3900 C   0  0  0  0  0  2  0  0  0  0  0  0
  -29.5170  -12.5660   18.1590 C   0  0  0  0  0  2  0  0  0  0  0  0
  -28.0380  -12.4180   18.5680 C   0  0  0  0  0  2  0  0  0  0  0  0
  -27.6640  -13.2950   19.7920 C   0  0  0  0  0  3  0  0  0  0  0  0
  -28.7050  -13.1540   20.9260 C   0  0  0  0  0  2  0  0  0  0  0  0
  -30.0240  -13.4740   20.3600 N   0  0  0  0  0  0  0  0  0  0  0  0
  -31.8330  -14.8160   20.0750 O   0  0  0  0  0  0  0  0  0  0  0  0
  -29.8930  -15.7680   20.7510 N   0  0  0  0  0  0  0  0  0  0  0  0
  -28.9430  -15.5540   21.0100 H   0  0  0  0  0  0  0  0  0  0  0  0
  -25.2600  -13.9050   20.4670 C   0  0  0  0  0  0  0  0  0  0  0  0
  -24.1870  -13.1370   20.8270 C   0  0  0  0  0  0  0  0  0  0  0  0
  -24.6480  -11.7850   20.8190 C   0  0  0  0  0  0  0  0  0  0  0  0
  -26.3070  -13.0210   20.2590 N   0  0  0  0  0  0  0  0  0  0  0  0
  -25.9430  -11.7420   20.5320 N   0  0  0  0  0  0  0  0  0  0  0  0
  -23.9170  -10.5250   21.0110 C   0  0  0  0  0  0  0  0  0  0  0  0
  -24.3360   -9.5650   21.9580 C   0  0  0  0  0  3  0  0  0  0  0  0
  -23.6050   -8.3700   22.1370 C   0  0  0  0  0  3  0  0  0  0  0  0
  -22.4420   -8.1270   21.3680 C   0  0  0  0  0  0  0  0  0  0  0  0
  -22.0440   -9.0750   20.4100 C   0  0  0  0  0  3  0  0  0  0  0  0
  -22.7750  -10.2620   20.2300 C   0  0  0  0  0  3  0  0  0  0  0  0
  -21.6850   -6.9840   21.4550 O   0  0  0  0  0  0  0  0  0  0  0  0
  -21.6170   -6.2530   22.6140 C   0  0  0  0  0  0  0  0  0  0  0  0
  -21.1720   -6.8180   23.8280 C   0  0  0  0  0  3  0  0  0  0  0  0
  -21.0520   -6.0130   24.9790 C   0  0  0  0  0  3  0  0  0  0  0  0
  -21.3670   -4.6420   24.9150 C   0  0  0  0  0  0  0  0  0  0  0  0
  -21.8060   -4.0760   23.7050 C   0  0  0  0  0  3  0  0  0  0  0  0
  -21.9280   -4.8780   22.5570 C   0  0  0  0  0  0  0  0  0  0  0  0
  -22.3310   -4.3230   21.3890 F   0  0  0  0  0  0  0  0  0  0  0  0
  -21.2450   -3.8670   26.0170 F   0  0  0  0  0  0  0  0  0  0  0  0
  -22.7860  -13.6180   21.0720 C   0  0  0  0  0  0  0  0  0  0  0  0
  -22.0440  -12.9320   21.9330 N   0  0  0  0  0  0  0  0  0  0  0  0
  -22.3580  -14.6390   20.5340 O   0  0  0  0  0  0  0  0  0  0  0  0
  -22.4020  -12.1080   22.3910 H   0  0  0  0  0  0  0  0  0  0  0  0
  -21.1030  -13.2380   22.1400 H   0  0  0  0  0  0  0  0  0  0  0  0
  -25.4290  -15.2730   20.2760 N   0  0  0  0  0  0  0  0  0  0  0  0
  -24.6570  -15.9270   20.3620 H   0  0  0  0  0  0  0  0  0  0  0  0
  -26.2750  -15.7070   19.9320 H   0  0  0  0  0  0  0  0  0  0  0  0
  -29.3740  -24.1650   20.0850 C   0  0  0  0  0  3  0  0  0  0  0  0
  -28.1680  -25.1170   20.4530 C   0  0  0  0  0  3  0  0  0  0  0  0
  -28.3570  -26.5660   20.2060 O   0  0  0  0  0  0  0  0  0  0  0  0
  -24.5970  -31.9250   23.2360 C   0  0  0  0  0  0  0  0  0  0  0  0
  -27.2220  -27.3870   20.1810 C   0  0  0  0  0  0  0  0  0  0  0  0
  -23.3940  -30.5190   21.5990 C   0  0  0  0  0  3  0  0  0  0  0  0
  -24.8470  -28.9770   20.1750 C   0  0  0  0  0  0  0  0  0  0  0  0
  -25.9310  -30.8520   21.4100 C   0  0  0  0  0  2  0  0  0  0  0  0
  -26.0140  -29.4750   20.7670 C   0  0  0  0  0  0  0  0  0  0  0  0
  -27.2050  -28.6910   20.7610 C   0  0  0  0  0  3  0  0  0  0  0  0
  -26.0340  -26.9450   19.5550 C   0  0  0  0  0  3  0  0  0  0  0  0
  -24.8580  -27.7160   19.5600 C   0  0  0  0  0  3  0  0  0  0  0  0
  -23.6070  -29.8430   20.2200 C   0  0  0  0  0  2  0  0  0  0  0  0
  -24.6590  -31.1160   22.1380 N   0  0  0  0  0  0  0  0  0  0  0  0
  -23.5130  -32.1980   23.7720 O   0  0  0  0  0  0  0  0  0  0  0  0
  -22.7400  -29.4990   22.5620 C   0  0  0  0  0  0  0  0  0  0  0  0
  -21.4150  -29.3110   22.4320 N   0  0  0  0  0  0  0  0  0  0  0  0
  -23.4210  -28.8810   23.3830 O   0  0  0  0  0  0  0  0  0  0  0  0
  -20.9250  -29.8620   21.7400 H   0  0  0  0  0  0  0  0  0  0  0  0
  -18.0420  -28.1040   22.9340 C   0  0  0  0  0  0  0  0  0  0  0  0
  -20.6000  -28.3720   23.2040 C   0  0  0  0  0  3  0  0  0  0  0  0
  -20.7070  -26.9400   22.6310 C   0  0  0  0  0  2  0  0  0  0  0  0
  -19.6060  -26.6110   21.6170 C   0  0  0  0  0  2  0  0  0  0  0  0
  -18.2240  -26.7540   22.2600 C   0  0  0  0  0  2  0  0  0  0  0  0
  -19.1590  -28.8710   23.3620 C   0  0  0  0  0  0  0  0  0  0  0  0
  -18.9360  -30.1340   23.9510 C   0  0  0  0  0  3  0  0  0  0  0  0
  -17.6290  -30.6320   24.1150 C   0  0  0  0  0  3  0  0  0  0  0  0
  -16.5270  -29.8620   23.7030 C   0  0  0  0  0  3  0  0  0  0  0  0
  -16.7350  -28.6000   23.1180 C   0  0  0  0  0  3  0  0  0  0  0  0
  -25.8790  -32.5610   23.8540 C   0  0  0  0  0  3  0  0  0  0  0  0
  -26.4020  -31.7910   25.1280 C   0  0  1  0  0  0  0  0  0  0  0  0
  -25.3130  -31.5460   26.1980 C   0  0  0  0  0  1  0  0  0  0  0  0
  -26.9910  -30.4170   24.7330 C   0  0  0  0  0  1  0  0  0  0  0  0
  -27.5510  -32.5900   25.7880 C   0  0  0  0  0  1  0  0  0  0  0  0
  -25.5630  -33.9580   24.1860 N   0  0  0  0  0  0  0  0  0  0  0  0
  -25.8860  -35.0130   23.4260 C   0  0  0  0  0  0  0  0  0  0  0  0
  -26.5500  -34.9130   22.3910 O   0  0  0  0  0  0  0  0  0  0  0  0
  -24.9730  -34.1090   24.9910 H   0  0  0  0  0  0  0  0  0  0  0  0
  -24.1470  -36.7970   23.0830 C   0  0  0  0  0  1  0  0  0  0  0  0
  -25.3940  -36.3980   23.8870 C   0  0  0  0  0  3  0  0  0  0  0  0
  -27.5290  -37.2940   24.7070 C   0  0  0  0  0  1  0  0  0  0  0  0
  -26.4210  -37.4560   23.7690 N   0  0  0  0  0  0  0  0  0  0  0  0
  -26.0120  -38.3750   23.9180 H   0  0  0  0  0  0  0  0  0  0  0  0
  2  7  1  0
  3  7  1  0
  4  1  1  0
  5  2  1  0
  5  8  1  0
  6  3  1  0
  6  8  1  0
  7  9  1  1
  7  1  1  0
  8 49  1  1
  8  4  1  0
  9 10  1  0
 10 19  1  0
 11 19  1  0
 12 17  1  0
 13 14  1  0
 13 12  1  0
 15 14  1  0
 15 24  1  0
 15 16  1  0
 17 11  1  0
 17 16  1  0
 18 11  2  0
 19 20  1  0
 21 22  2  0
 22 41  1  0
 23 22  1  0
 23 26  1  0
 24 21  1  0
 24 25  1  0
 25 23  2  0
 26 27  1  0
 27 28  2  0
 29 32  1  0
 29 28  1  0
 30 29  2  0
 31 30  1  0
 31 26  2  0
 32 33  1  0
 33 34  1  0
 34 35  2  0
 36 35  1  0
 36 40  1  0
 37 36  2  0
 38 33  2  0
 38 37  1  0
 39 38  1  0
 41 42  1  0
 42 45  1  0
 42 44  1  0
 43 41  2  0
 46 47  1  0
 46 21  1  0
 48 46  1  0
 49 50  2  0
 51 50  1  0
 52 63  2  0
 53 51  1  0
 53 58  1  0
 54 62  1  0
 54 64  1  0
 55 61  1  0
 55 57  1  0
 56 62  1  0
 57 56  1  0
 58 57  2  0
 59 60  1  0
 59 53  2  0
 60 55  2  0
 61 54  1  0
 62 52  1  0
 64 66  2  0
 65 64  1  0
 67 65  1  0
 68 77  2  0
 68 73  1  0
 69 65  1  0
 69 73  1  0
 70 69  1  0
 71 72  1  0
 71 70  1  0
 72 68  1  0
 73 74  2  0
 74 75  1  0
 76 75  2  0
 77 76  1  0
 78 52  1  0
 78 83  1  0
 78 79  1  0
 79 82  1  1
 79 80  1  0
 81 79  1  0
 83 86  1  0
 84 88  1  0
 84 83  1  0
 85 84  2  0
 88 87  1  0
 90 88  1  0
 90 91  1  0
 90 89  1  0
M  ISO  4  11 100  19 100  50 101  51 101
M  END
>  <TORSDO>  (75) 
F 20

>  <SCORE>  (75) 
-13.722

>  <name>  (75) 
75

>  <ligand_id>  (75) 
75

>  <original_smiles>  (75) 
[H]c1c([H])c([H])c2c(c1[H])C([H])([H])C([H])([H])C([H])([H])C2([H])N([H])C(=O)C1([H])N(C(=O)C([H])(N([H])C(=O)C([H])(N([H])C([H])([H])[H])C([H])([H])[H])C(C([H])([H])[H])(C([H])([H])[H])C([H])([H])[H])C([H])([H])c2c([H])c(OC([H])([H])C([H])([H])C34C([H])([H])C([H])([H])C(C([H])([H])C([H])([H])N([H])C(=O)N5C([H])([H])C([H])([H])C([H])([H])C([H])(n6nc(-c7c([H])c([H])c(Oc8c([H])c([H])c(F)c([H])c8F)c([H])c7[H])c(C(=O)N([H])[H])c6N([H])[H])C5([H])[H])(C([H])([H])C3([H])[H])C([H])([H])C4([H])[H])c([H])c([H])c2C1([H])[H]

>  <smiles>  (75) 
[H]c1c([H])c([H])c2c(c1[H])C([H])([H])C([H])([H])C([H])([H])C2([H])N([H])C(=O)C1([H])N(C(=O)C([H])(N([H])C(=O)C([H])(N([H])C([H])([H])[H])C([H])([H])[H])C(C([H])([H])[H])(C([H])([H])[H])C([H])([H])[H])C([H])([H])c2c([H])c(OC([H])([H])C([H])([H])C34C([H])([H])C([H])([H])C(C([H])([H])C([H])([H])N([H])C(=O)N5C([H])([H])C([H])([H])C([H])([H])C([H])(n6nc(-c7c([H])c([H])c(Oc8c([H])c([H])c(F)c([H])c8F)c([H])c7[H])c(C(=O)N([H])[H])c6N([H])[H])C5([H])[H])(C([H])([H])C3([H])[H])C([H])([H])C4([H])[H])c([H])c([H])c2C1([H])[H]

$$$$
76:0:0
     RDKit          3D

 91100  0  0  1  0  0  0  0  0999 V2000
  -30.2250  -19.1580   21.7920 C   0  0  0  0  0  3  0  0  0  0  0  0
  -30.3650  -20.6320   22.1080 C   0  0  0  0  0  2  0  0  0  0  0  0
  -29.3070  -19.6750   18.8560 C   0  0  0  0  0  2  0  0  0  0  0  0
  -30.9790  -19.2030   20.4860 C   0  0  0  0  0  3  0  0  0  0  0  0
  -29.3310  -21.1940   19.6960 C   0  0  0  0  0  3  0  0  0  0  0  0
  -30.5550  -20.7580   20.5730 C   0  0  0  0  0  3  0  0  0  0  0  0
  -30.3850  -18.3930   19.2920 C   0  0  0  0  0  3  0  0  0  0  0  0
  -29.5340  -18.2620   22.3280 N   0  0  0  0  0  2  0  0  0  0  0  0
  -29.9280  -17.9590   23.2120 H   0  0  0  0  0  0  0  0  0  0  0  0
  -30.9870  -15.4690   19.3550 C   0  0  0  0  0  0  0  0  0  0  0  0
  -30.9810  -12.9650   18.6520 C   0  0  0  0  0  2  0  0  0  0  0  0
  -29.9780  -12.6390   17.5160 C   0  0  0  0  0  2  0  0  0  0  0  0
  -28.5790  -12.3530   18.0880 C   0  0  0  0  0  2  0  0  0  0  0  0
  -28.1820  -13.3790   19.1790 C   0  0  0  0  0  3  0  0  0  0  0  0
  -29.3070  -13.6440   20.2020 C   0  0  0  0  0  2  0  0  0  0  0  0
  -30.4620  -14.1450   19.4380 N   0  0  0  0  0  0  0  0  0  0  0  0
  -32.1830  -15.4810   19.0280 O   0  0  0  0  0  0  0  0  0  0  0  0
  -30.1950  -16.7270   19.4400 N   0  0  0  0  0  0  0  0  0  0  0  0
  -29.2420  -16.5060   19.6940 H   0  0  0  0  0  0  0  0  0  0  0  0
  -25.9220  -13.9400   20.2150 C   0  0  0  0  0  0  0  0  0  0  0  0
  -24.8870  -13.1640   20.6550 C   0  0  0  0  0  0  0  0  0  0  0  0
  -25.3120  -11.8090   20.4980 C   0  0  0  0  0  0  0  0  0  0  0  0
  -26.9090  -13.0590   19.8110 N   0  0  0  0  0  0  0  0  0  0  0  0
  -26.5610  -11.7670   20.0460 N   0  0  0  0  0  0  0  0  0  0  0  0
  -24.5750  -10.5520   20.6920 C   0  0  0  0  0  0  0  0  0  0  0  0
  -24.9640   -9.6100   21.6690 C   0  0  0  0  0  3  0  0  0  0  0  0
  -24.2240   -8.4220   21.8510 C   0  0  0  0  0  3  0  0  0  0  0  0
  -23.0820   -8.1660   21.0560 C   0  0  0  0  0  0  0  0  0  0  0  0
  -22.7120   -9.0980   20.0690 C   0  0  0  0  0  3  0  0  0  0  0  0
  -23.4530  -10.2770   19.8840 C   0  0  0  0  0  3  0  0  0  0  0  0
  -22.3180   -7.0280   21.1460 O   0  0  0  0  0  0  0  0  0  0  0  0
  -22.0190   -6.4550   22.3570 C   0  0  0  0  0  0  0  0  0  0  0  0
  -21.2850   -7.1450   23.3460 C   0  0  0  0  0  3  0  0  0  0  0  0
  -20.9390   -6.4960   24.5470 C   0  0  0  0  0  3  0  0  0  0  0  0
  -21.3160   -5.1560   24.7580 C   0  0  0  0  0  0  0  0  0  0  0  0
  -22.0420   -4.4650   23.7710 C   0  0  0  0  0  3  0  0  0  0  0  0
  -22.3890   -5.1130   22.5730 C   0  0  0  0  0  0  0  0  0  0  0  0
  -23.0690   -4.4360   21.6170 F   0  0  0  0  0  0  0  0  0  0  0  0
  -20.9790   -4.5290   25.9090 F   0  0  0  0  0  0  0  0  0  0  0  0
  -23.5390  -13.6530   21.0980 C   0  0  0  0  0  0  0  0  0  0  0  0
  -22.9020  -12.9410   22.0200 N   0  0  0  0  0  0  0  0  0  0  0  0
  -23.0670  -14.7040   20.6650 O   0  0  0  0  0  0  0  0  0  0  0  0
  -23.3020  -12.0910   22.3900 H   0  0  0  0  0  0  0  0  0  0  0  0
  -22.0020  -13.2480   22.3610 H   0  0  0  0  0  0  0  0  0  0  0  0
  -26.0990  -15.3160   20.0960 N   0  0  0  0  0  0  0  0  0  0  0  0
  -25.3650  -15.9760   20.3220 H   0  0  0  0  0  0  0  0  0  0  0  0
  -26.9140  -15.7550   19.6870 H   0  0  0  0  0  0  0  0  0  0  0  0
  -29.2820  -22.8700   19.1310 C   0  0  0  0  0  0  0  0  0  0  0  0
  -30.0900  -23.0820   18.2220 O   0  0  0  0  0  0  0  0  0  0  0  0
  -28.3240  -24.2900   19.5840 C   0  0  0  0  0  2  0  0  0  0  0  0
  -28.4380  -25.9340   19.3600 O   0  0  0  0  0  0  0  0  0  0  0  0
  -24.6080  -31.4020   22.9430 C   0  0  0  0  0  0  0  0  0  0  0  0
  -27.3610  -26.9670   19.4490 C   0  0  0  0  0  0  0  0  0  0  0  0
  -23.4620  -30.1110   21.1890 C   0  0  0  0  0  3  0  0  0  0  0  0
  -24.9670  -28.7250   19.6050 C   0  0  0  0  0  0  0  0  0  0  0  0
  -26.0120  -30.4680   21.0360 C   0  0  0  0  0  2  0  0  0  0  0  0
  -26.1440  -29.1320   20.2460 C   0  0  0  0  0  0  0  0  0  0  0  0
  -27.3340  -28.2790   20.1400 C   0  0  0  0  0  3  0  0  0  0  0  0
  -26.1430  -26.7110   18.7810 C   0  0  0  0  0  3  0  0  0  0  0  0
  -24.9910  -27.5380   18.8550 C   0  0  0  0  0  3  0  0  0  0  0  0
  -23.7070  -29.5760   19.7510 C   0  0  0  0  0  2  0  0  0  0  0  0
  -24.7160  -30.6830   21.7780 N   0  0  0  0  0  0  0  0  0  0  0  0
  -23.5140  -31.5810   23.5020 O   0  0  0  0  0  0  0  0  0  0  0  0
  -22.8350  -28.9910   22.0610 C   0  0  0  0  0  0  0  0  0  0  0  0
  -21.5140  -28.7610   21.9260 N   0  0  0  0  0  0  0  0  0  0  0  0
  -23.5420  -28.3340   22.8290 O   0  0  0  0  0  0  0  0  0  0  0  0
  -20.9940  -29.3470   21.2890 H   0  0  0  0  0  0  0  0  0  0  0  0
  -18.2060  -27.3320   22.3550 C   0  0  0  0  0  0  0  0  0  0  0  0
  -20.7540  -27.7090   22.6120 C   0  0  0  0  0  3  0  0  0  0  0  0
  -20.9210  -26.3480   21.8970 C   0  0  0  0  0  2  0  0  0  0  0  0
  -19.8200  -26.0660   20.8710 C   0  0  0  0  0  2  0  0  0  0  0  0
  -18.4440  -26.0700   21.5430 C   0  0  0  0  0  2  0  0  0  0  0  0
  -19.2910  -28.1100   22.8440 C   0  0  0  0  0  0  0  0  0  0  0  0
  -19.0130  -29.2890   23.5690 C   0  0  0  0  0  3  0  0  0  0  0  0
  -17.6850  -29.6920   23.8070 C   0  0  0  0  0  3  0  0  0  0  0  0
  -16.6170  -28.9110   23.3330 C   0  0  0  0  0  3  0  0  0  0  0  0
  -16.8790  -27.7330   22.6120 C   0  0  0  0  0  3  0  0  0  0  0  0
  -25.8530  -32.0490   23.6210 C   0  0  0  0  0  3  0  0  0  0  0  0
  -25.4890  -33.4180   24.0280 N   0  0  0  0  0  0  0  0  0  0  0  0
  -25.7790  -34.5280   23.3360 C   0  0  0  0  0  0  0  0  0  0  0  0
  -26.4410  -34.5100   22.2950 O   0  0  0  0  0  0  0  0  0  0  0  0
  -24.9000  -33.5040   24.8420 H   0  0  0  0  0  0  0  0  0  0  0  0
  -23.9710  -36.2690   23.1340 C   0  0  0  0  0  1  0  0  0  0  0  0
  -25.2520  -35.8710   23.8830 C   0  0  0  0  0  3  0  0  0  0  0  0
  -27.3610  -36.8180   24.7150 C   0  0  0  0  0  1  0  0  0  0  0  0
  -26.2380  -36.9720   23.7950 N   0  0  0  0  0  0  0  0  0  0  0  0
  -25.7940  -37.8670   23.9840 H   0  0  0  0  0  0  0  0  0  0  0  0
  -26.3690  -31.2340   24.8720 C   0  0  1  0  0  0  0  0  0  0  0  0
  -25.2660  -30.9160   25.9080 C   0  0  0  0  0  1  0  0  0  0  0  0
  -27.0000  -29.8930   24.4330 C   0  0  0  0  0  1  0  0  0  0  0  0
  -27.4860  -32.0280   25.5910 C   0  0  0  0  0  1  0  0  0  0  0  0
  1  2  1  0
  1  8  1  0
  3  7  1  0
  3  5  1  0
  4  6  1  0
  4  1  1  0
  5  6  1  0
  6  2  1  0
  7 18  1  0
  7  4  1  0
  8  9  1  0
 10 16  1  0
 10 18  1  0
 11 16  1  0
 12 13  1  0
 12 11  1  0
 13 14  1  0
 14 23  1  0
 14 15  1  0
 16 15  1  0
 17 10  2  0
 18 19  1  0
 20 21  2  0
 21 40  1  0
 22 21  1  0
 22 25  1  0
 23 24  1  0
 23 20  1  0
 24 22  2  0
 25 26  1  0
 26 27  2  0
 28 31  1  0
 28 27  1  0
 29 28  2  0
 30 29  1  0
 30 25  2  0
 31 32  1  0
 32 37  2  0
 32 33  1  0
 33 34  2  0
 34 35  1  0
 35 39  1  0
 36 35  2  0
 37 36  1  0
 38 37  1  0
 40 41  1  0
 41 44  1  0
 41 43  1  0
 42 40  2  0
 45 20  1  0
 45 46  1  0
 47 45  1  0
 48 50  1  0
 48  5  1  0
 49 48  2  0
 51 53  1  0
 51 50  1  0
 52 63  2  0
 52 78  1  0
 53 58  1  0
 54 62  1  0
 54 64  1  0
 55 61  1  0
 55 57  1  0
 56 62  1  0
 57 56  1  0
 58 57  2  0
 59 60  1  0
 59 53  2  0
 60 55  2  0
 61 54  1  0
 62 52  1  0
 64 66  2  0
 65 64  1  0
 65 69  1  0
 67 65  1  0
 68 77  2  0
 68 73  1  0
 69 73  1  0
 70 69  1  0
 71 72  1  0
 71 70  1  0
 72 68  1  0
 73 74  2  0
 74 75  1  0
 76 75  2  0
 77 76  1  0
 78 79  1  0
 78 88  1  0
 79 82  1  0
 80 84  1  0
 80 79  1  0
 81 80  2  0
 83 84  1  0
 86 84  1  0
 86 87  1  0
 86 85  1  0
 88 91  1  1
 88 89  1  0
 90 88  1  0
M  ISO  4  10 100  18 100  50 101  51 101
M  END
>  <TORSDO>  (76) 
F 18

>  <SCORE>  (76) 
-12.731

>  <name>  (76) 
76

>  <ligand_id>  (76) 
76

>  <original_smiles>  (76) 
[H]N=C1C([H])([H])C2([H])C([H])(C(=O)C([H])([H])Oc3c([H])c([H])c4c(c3[H])C([H])([H])N(C(=O)C([H])(N([H])C(=O)C([H])(N([H])C([H])([H])[H])C([H])([H])[H])C(C([H])([H])[H])(C([H])([H])[H])C([H])([H])[H])C([H])(C(=O)N([H])C3([H])c5c([H])c([H])c([H])c([H])c5C([H])([H])C([H])([H])C3([H])[H])C4([H])[H])C([H])([H])C([H])(N([H])C(=O)N3C([H])([H])C([H])([H])C([H])([H])C([H])(n4nc(-c5c([H])c([H])c(Oc6c([H])c([H])c(F)c([H])c6F)c([H])c5[H])c(C(=O)N([H])[H])c4N([H])[H])C3([H])[H])C12[H]

>  <smiles>  (76) 
[H]N=C1C([H])([H])C2([H])C([H])(C(=O)C([H])([H])Oc3c([H])c([H])c4c(c3[H])C([H])([H])N(C(=O)C([H])(N([H])C(=O)C([H])(N([H])C([H])([H])[H])C([H])([H])[H])C(C([H])([H])[H])(C([H])([H])[H])C([H])([H])[H])C([H])(C(=O)N([H])C3([H])c5c([H])c([H])c([H])c([H])c5C([H])([H])C([H])([H])C3([H])[H])C4([H])[H])C([H])([H])C([H])(N([H])C(=O)N3C([H])([H])C([H])([H])C([H])([H])C([H])(n4nc(-c5c([H])c([H])c(Oc6c([H])c([H])c(F)c([H])c6F)c([H])c5[H])c(C(=O)N([H])[H])c4N([H])[H])C3([H])[H])C12[H]

$$$$
77:0:0
     RDKit          3D

 90 99  0  0  1  0  0  0  0  0999 V2000
  -28.9070  -23.2950   20.5360 C   0  0  0  0  0  0  0  0  0  0  0  0
  -28.5590  -20.4110   18.1760 C   0  0  0  0  0  2  0  0  0  0  0  0
  -29.6620  -20.6590   20.8330 C   0  0  0  0  0  2  0  0  0  0  0  0
  -29.0940  -19.1260   20.4890 C   0  0  0  0  0  3  0  0  0  0  0  0
  -28.1420  -19.5980   19.3820 C   0  0  0  0  0  3  0  0  0  0  0  0
  -27.9610  -21.1500   19.3590 C   0  0  0  0  0  3  0  0  0  0  0  0
  -28.8450  -21.8700   20.2500 N   0  0  0  0  0  0  0  0  0  0  0  0
  -29.7890  -23.6510   21.3250 O   0  0  0  0  0  0  0  0  0  0  0  0
  -30.4710  -15.1260   20.2680 C   0  0  0  0  0  0  0  0  0  0  0  0
  -30.3610  -12.7360   19.3790 C   0  0  0  0  0  2  0  0  0  0  0  0
  -29.4290  -12.6400   18.1480 C   0  0  0  0  0  2  0  0  0  0  0  0
  -27.9730  -12.4090   18.5920 C   0  0  0  0  0  2  0  0  0  0  0  0
  -27.5580  -13.3490   19.7530 C   0  0  0  0  0  3  0  0  0  0  0  0
  -28.6180  -13.4190   20.8730 C   0  0  0  0  0  2  0  0  0  0  0  0
  -29.8730  -13.8550   20.2470 N   0  0  0  0  0  0  0  0  0  0  0  0
  -31.6760  -15.1280   19.9880 O   0  0  0  0  0  0  0  0  0  0  0  0
  -30.0450  -17.7490   20.2230 C   0  0  0  0  0  0  0  0  0  0  0  0
  -29.7150  -16.3530   20.4170 N   0  0  0  0  0  0  0  0  0  0  0  0
  -31.1800  -18.0240   19.8240 O   0  0  0  0  0  0  0  0  0  0  0  0
  -28.7550  -16.2040   20.6820 H   0  0  0  0  0  0  0  0  0  0  0  0
  -25.1870  -13.9130   20.5220 C   0  0  0  0  0  0  0  0  0  0  0  0
  -24.1270  -13.1340   20.8950 C   0  0  0  0  0  0  0  0  0  0  0  0
  -24.5940  -11.7830   20.8490 C   0  0  0  0  0  0  0  0  0  0  0  0
  -26.2290  -13.0380   20.2650 N   0  0  0  0  0  0  0  0  0  0  0  0
  -25.8820  -11.7510   20.5290 N   0  0  0  0  0  0  0  0  0  0  0  0
  -23.8670  -10.5200   21.0340 C   0  0  0  0  0  0  0  0  0  0  0  0
  -24.2920   -9.5530   21.9720 C   0  0  0  0  0  3  0  0  0  0  0  0
  -23.5640   -8.3560   22.1450 C   0  0  0  0  0  3  0  0  0  0  0  0
  -22.3990   -8.1160   21.3800 C   0  0  0  0  0  0  0  0  0  0  0  0
  -21.9930   -9.0720   20.4310 C   0  0  0  0  0  3  0  0  0  0  0  0
  -22.7210  -10.2610   20.2560 C   0  0  0  0  0  3  0  0  0  0  0  0
  -21.6430   -6.9710   21.4630 O   0  0  0  0  0  0  0  0  0  0  0  0
  -21.5700   -6.2400   22.6210 C   0  0  0  0  0  0  0  0  0  0  0  0
  -21.0870   -6.7960   23.8250 C   0  0  0  0  0  3  0  0  0  0  0  0
  -20.9630   -5.9890   24.9730 C   0  0  0  0  0  3  0  0  0  0  0  0
  -21.3120   -4.6270   24.9190 C   0  0  0  0  0  0  0  0  0  0  0  0
  -21.7870   -4.0690   23.7190 C   0  0  0  0  0  3  0  0  0  0  0  0
  -21.9120   -4.8720   22.5720 C   0  0  0  0  0  0  0  0  0  0  0  0
  -22.3510   -4.3260   21.4130 F   0  0  0  0  0  0  0  0  0  0  0  0
  -21.1860   -3.8490   26.0200 F   0  0  0  0  0  0  0  0  0  0  0  0
  -22.7320  -13.6080   21.1770 C   0  0  0  0  0  0  0  0  0  0  0  0
  -22.0110  -12.9080   22.0440 N   0  0  0  0  0  0  0  0  0  0  0  0
  -22.2920  -14.6380   20.6660 O   0  0  0  0  0  0  0  0  0  0  0  0
  -22.3800  -12.0750   22.4790 H   0  0  0  0  0  0  0  0  0  0  0  0
  -21.0740  -13.2070   22.2770 H   0  0  0  0  0  0  0  0  0  0  0  0
  -25.3480  -15.2850   20.3510 N   0  0  0  0  0  0  0  0  0  0  0  0
  -24.5730  -15.9310   20.4580 H   0  0  0  0  0  0  0  0  0  0  0  0
  -26.1730  -15.7210   19.9640 H   0  0  0  0  0  0  0  0  0  0  0  0
  -27.9450  -24.5650   19.9790 C   0  0  0  0  0  2  0  0  0  0  0  0
  -28.2030  -26.1040   20.3040 O   0  0  0  0  0  0  0  0  0  0  0  0
  -24.6410  -31.9250   23.2460 C   0  0  0  0  0  0  0  0  0  0  0  0
  -27.1750  -27.1390   20.2190 C   0  0  0  0  0  0  0  0  0  0  0  0
  -23.4300  -30.5310   21.6140 C   0  0  0  0  0  3  0  0  0  0  0  0
  -24.8660  -28.9410   20.1850 C   0  0  0  0  0  0  0  0  0  0  0  0
  -25.9880  -30.7680   21.4450 C   0  0  0  0  0  2  0  0  0  0  0  0
  -26.0520  -29.3680   20.7940 C   0  0  0  0  0  0  0  0  0  0  0  0
  -27.2050  -28.4840   20.7930 C   0  0  0  0  0  3  0  0  0  0  0  0
  -25.9660  -26.8350   19.5580 C   0  0  0  0  0  3  0  0  0  0  0  0
  -24.8400  -27.6900   19.5480 C   0  0  0  0  0  3  0  0  0  0  0  0
  -23.6450  -29.8490   20.2360 C   0  0  0  0  0  2  0  0  0  0  0  0
  -24.7080  -31.0980   22.1560 N   0  0  0  0  0  0  0  0  0  0  0  0
  -23.5570  -32.2160   23.7760 O   0  0  0  0  0  0  0  0  0  0  0  0
  -22.7460  -29.5320   22.5830 C   0  0  0  0  0  0  0  0  0  0  0  0
  -21.4180  -29.3630   22.4590 N   0  0  0  0  0  0  0  0  0  0  0  0
  -23.4160  -28.9100   23.4110 O   0  0  0  0  0  0  0  0  0  0  0  0
  -20.9320  -29.9150   21.7650 H   0  0  0  0  0  0  0  0  0  0  0  0
  -18.0360  -28.1610   22.9710 C   0  0  0  0  0  0  0  0  0  0  0  0
  -20.5960  -28.4310   23.2360 C   0  0  0  0  0  3  0  0  0  0  0  0
  -20.6990  -26.9940   22.6710 C   0  0  0  0  0  2  0  0  0  0  0  0
  -19.5990  -26.6630   21.6590 C   0  0  0  0  0  2  0  0  0  0  0  0
  -18.2160  -26.8090   22.3020 C   0  0  0  0  0  2  0  0  0  0  0  0
  -19.1530  -28.9290   23.3950 C   0  0  0  0  0  0  0  0  0  0  0  0
  -18.9300  -30.1930   23.9830 C   0  0  0  0  0  3  0  0  0  0  0  0
  -17.6230  -30.6900   24.1490 C   0  0  0  0  0  3  0  0  0  0  0  0
  -16.5210  -29.9200   23.7390 C   0  0  0  0  0  3  0  0  0  0  0  0
  -16.7290  -28.6570   23.1550 C   0  0  0  0  0  3  0  0  0  0  0  0
  -25.9220  -32.5600   23.8670 C   0  0  0  0  0  3  0  0  0  0  0  0
  -25.6130  -33.9600   24.2020 N   0  0  0  0  0  0  0  0  0  0  0  0
  -25.9190  -35.0170   23.4350 C   0  0  0  0  0  0  0  0  0  0  0  0
  -26.5550  -34.9140   22.3830 O   0  0  0  0  0  0  0  0  0  0  0  0
  -25.0460  -34.1140   25.0220 H   0  0  0  0  0  0  0  0  0  0  0  0
  -24.1660  -36.8010   23.1530 C   0  0  0  0  0  1  0  0  0  0  0  0
  -25.4450  -36.4050   23.9090 C   0  0  0  0  0  3  0  0  0  0  0  0
  -27.6060  -37.3130   24.6440 C   0  0  0  0  0  1  0  0  0  0  0  0
  -26.4650  -37.4640   23.7440 N   0  0  0  0  0  0  0  0  0  0  0  0
  -26.0590  -38.3830   23.8990 H   0  0  0  0  0  0  0  0  0  0  0  0
  -26.4340  -31.7930   25.1490 C   0  0  1  0  0  0  0  0  0  0  0  0
  -25.3390  -31.5640   26.2170 C   0  0  0  0  0  1  0  0  0  0  0  0
  -27.0130  -30.4110   24.7690 C   0  0  0  0  0  1  0  0  0  0  0  0
  -27.5860  -32.5870   25.8080 C   0  0  0  0  0  1  0  0  0  0  0  0
  1  8  2  0
  4 17  1  0
  4  3  1  0
  5  2  1  0
  5  4  1  0
  6  2  1  0
  6  5  1  0
  6  7  1  0
  7  1  1  0
  7  3  1  0
  9 18  1  0
 10 15  1  0
 11 12  1  0
 11 10  1  0
 13 12  1  0
 13 24  1  0
 13 14  1  0
 15  9  1  0
 15 14  1  0
 16  9  2  0
 17 18  1  0
 18 20  1  0
 19 17  2  0
 21 22  2  0
 22 41  1  0
 23 22  1  0
 23 26  1  0
 24 21  1  0
 24 25  1  0
 25 23  2  0
 26 27  1  0
 27 28  2  0
 29 32  1  0
 29 28  1  0
 30 29  2  0
 31 30  1  0
 31 26  2  0
 32 33  1  0
 33 34  1  0
 34 35  2  0
 36 35  1  0
 36 40  1  0
 37 36  2  0
 38 33  2  0
 38 37  1  0
 39 38  1  0
 41 42  1  0
 42 45  1  0
 42 44  1  0
 43 41  2  0
 46 47  1  0
 46 21  1  0
 48 46  1  0
 49 50  1  0
 49  1  1  0
 51 62  2  0
 52 50  1  0
 52 57  1  0
 53 61  1  0
 53 63  1  0
 54 60  1  0
 54 56  1  0
 55 61  1  0
 56 55  1  0
 57 56  2  0
 58 52  2  0
 59 58  1  0
 59 54  2  0
 60 53  1  0
 61 51  1  0
 63 65  2  0
 64 63  1  0
 66 64  1  0
 67 76  2  0
 67 72  1  0
 68 64  1  0
 68 72  1  0
 69 68  1  0
 70 71  1  0
 70 69  1  0
 71 67  1  0
 72 73  2  0
 73 74  1  0
 75 74  2  0
 76 75  1  0
 77 51  1  0
 77 78  1  0
 77 87  1  0
 78 81  1  0
 79 83  1  0
 79 78  1  0
 80 79  2  0
 83 82  1  0
 85 86  1  0
 85 83  1  0
 85 84  1  0
 87 90  1  1
 87 88  1  0
 89 87  1  0
M  ISO  4   9 100  18 100  49 101  50 101
M  END
>  <TORSDO>  (77) 
F 17

>  <SCORE>  (77) 
-15.625

>  <name>  (77) 
77

>  <ligand_id>  (77) 
77

>  <original_smiles>  (77) 
[H]c1c([H])c([H])c2c(c1[H])C([H])([H])C([H])([H])C([H])([H])C2([H])N([H])C(=O)C1([H])N(C(=O)C([H])(N([H])C(=O)C([H])(N([H])C([H])([H])[H])C([H])([H])[H])C(C([H])([H])[H])(C([H])([H])[H])C([H])([H])[H])C([H])([H])c2c([H])c(OC([H])([H])C(=O)N3C([H])([H])C([H])(C(=O)N([H])C(=O)N4C([H])([H])C([H])([H])C([H])([H])C([H])(n5nc(-c6c([H])c([H])c(Oc7c([H])c([H])c(F)c([H])c7F)c([H])c6[H])c(C(=O)N([H])[H])c5N([H])[H])C4([H])[H])C4([H])C([H])([H])C34[H])c([H])c([H])c2C1([H])[H]

>  <smiles>  (77) 
[H]c1c([H])c([H])c2c(c1[H])C([H])([H])C([H])([H])C([H])([H])C2([H])N([H])C(=O)C1([H])N(C(=O)C([H])(N([H])C(=O)C([H])(N([H])C([H])([H])[H])C([H])([H])[H])C(C([H])([H])[H])(C([H])([H])[H])C([H])([H])[H])C([H])([H])c2c([H])c(OC([H])([H])C(=O)N3C([H])([H])C([H])(C(=O)N([H])C(=O)N4C([H])([H])C([H])([H])C([H])([H])C([H])(n5nc(-c6c([H])c([H])c(Oc7c([H])c([H])c(F)c([H])c7F)c([H])c6[H])c(C(=O)N([H])[H])c5N([H])[H])C4([H])[H])C4([H])C([H])([H])C34[H])c([H])c([H])c2C1([H])[H]

$$$$
78:0:0
     RDKit          3D

 90 99  0  0  1  0  0  0  0  0999 V2000
  -29.4580  -21.0120   18.5410 C   0  0  0  0  0  2  0  0  0  0  0  0
  -30.0670  -23.1780   19.5150 C   0  0  0  0  0  2  0  0  0  0  0  0
  -27.7720  -21.7810   20.3570 C   0  0  0  0  0  2  0  0  0  0  0  0
  -29.9100  -22.4320   18.1750 C   0  0  0  0  0  3  0  0  0  0  0  0
  -28.9930  -21.0870   19.9870 C   0  0  2  0  0  0  0  0  0  0  0  0
  -28.8570  -22.8540   20.3890 C   0  0  1  0  0  0  0  0  0  0  0  0
  -31.1230  -22.4140   17.4490 O   0  0  0  0  0  0  0  0  0  0  0  0
  -31.1730  -23.2180   16.9390 H   0  0  0  0  0  0  0  0  0  0  0  0
  -29.2070  -19.5020   20.7130 C   0  0  0  0  0  2  0  0  0  0  0  0
  -29.9110  -18.0170   20.0540 C   0  0  0  0  0  2  0  0  0  0  0  0
  -30.4840  -15.1940   20.3100 C   0  0  0  0  0  0  0  0  0  0  0  0
  -30.4310  -12.7770   19.4300 C   0  0  0  0  0  2  0  0  0  0  0  0
  -29.5280  -12.6410   18.1770 C   0  0  0  0  0  2  0  0  0  0  0  0
  -28.0670  -12.4020   18.5930 C   0  0  0  0  0  2  0  0  0  0  0  0
  -27.6180  -13.3470   19.7310 C   0  0  0  0  0  3  0  0  0  0  0  0
  -28.6470  -13.4450   20.8770 C   0  0  0  0  0  2  0  0  0  0  0  0
  -29.9080  -13.9040   20.2770 N   0  0  0  0  0  0  0  0  0  0  0  0
  -31.6890  -15.2130   20.0260 O   0  0  0  0  0  0  0  0  0  0  0  0
  -29.7150  -16.4330   20.4560 N   0  0  0  0  0  0  0  0  0  0  0  0
  -28.7570  -16.2310   20.7010 H   0  0  0  0  0  0  0  0  0  0  0  0
  -25.2310  -13.9090   20.4350 C   0  0  0  0  0  0  0  0  0  0  0  0
  -24.1670  -13.1340   20.7990 C   0  0  0  0  0  0  0  0  0  0  0  0
  -24.6400  -11.7840   20.7930 C   0  0  0  0  0  0  0  0  0  0  0  0
  -26.2800  -13.0360   20.2170 N   0  0  0  0  0  0  0  0  0  0  0  0
  -25.9350  -11.7520   20.5030 N   0  0  0  0  0  0  0  0  0  0  0  0
  -23.9150  -10.5230   20.9920 C   0  0  0  0  0  0  0  0  0  0  0  0
  -24.3360   -9.5670   21.9420 C   0  0  0  0  0  3  0  0  0  0  0  0
  -23.6070   -8.3700   22.1220 C   0  0  0  0  0  3  0  0  0  0  0  0
  -22.4470   -8.1230   21.3520 C   0  0  0  0  0  0  0  0  0  0  0  0
  -22.0480   -9.0680   20.3880 C   0  0  0  0  0  3  0  0  0  0  0  0
  -22.7770  -10.2550   20.2080 C   0  0  0  0  0  3  0  0  0  0  0  0
  -21.6890   -6.9820   21.4440 O   0  0  0  0  0  0  0  0  0  0  0  0
  -21.6250   -6.2500   22.6050 C   0  0  0  0  0  0  0  0  0  0  0  0
  -21.1840   -6.8200   23.8200 C   0  0  0  0  0  3  0  0  0  0  0  0
  -21.0700   -6.0170   24.9720 C   0  0  0  0  0  3  0  0  0  0  0  0
  -21.3830   -4.6460   24.9080 C   0  0  0  0  0  0  0  0  0  0  0  0
  -21.8150   -4.0750   23.6970 C   0  0  0  0  0  3  0  0  0  0  0  0
  -21.9340   -4.8760   22.5480 C   0  0  0  0  0  0  0  0  0  0  0  0
  -22.3320   -4.3190   21.3800 F   0  0  0  0  0  0  0  0  0  0  0  0
  -21.2660   -3.8720   26.0120 F   0  0  0  0  0  0  0  0  0  0  0  0
  -22.7630  -13.6060   21.0350 C   0  0  0  0  0  0  0  0  0  0  0  0
  -22.0210  -12.9210   21.8950 N   0  0  0  0  0  0  0  0  0  0  0  0
  -22.3320  -14.6250   20.4930 O   0  0  0  0  0  0  0  0  0  0  0  0
  -22.3790  -12.0970   22.3540 H   0  0  0  0  0  0  0  0  0  0  0  0
  -21.0790  -13.2230   22.1010 H   0  0  0  0  0  0  0  0  0  0  0  0
  -25.3870  -15.2810   20.2390 N   0  0  0  0  0  0  0  0  0  0  0  0
  -24.6030  -15.9220   20.3130 H   0  0  0  0  0  0  0  0  0  0  0  0
  -26.2200  -15.7160   19.8680 H   0  0  0  0  0  0  0  0  0  0  0  0
  -27.9360  -24.3470   20.1710 C   0  0  0  0  0  2  0  0  0  0  0  0
  -28.2160  -25.9420   20.3040 O   0  0  0  0  0  0  0  0  0  0  0  0
  -24.6440  -31.8470   23.2070 C   0  0  0  0  0  0  0  0  0  0  0  0
  -27.1940  -27.0080   20.2180 C   0  0  0  0  0  0  0  0  0  0  0  0
  -23.4410  -30.4440   21.5810 C   0  0  0  0  0  3  0  0  0  0  0  0
  -24.8880  -28.8460   20.1550 C   0  0  0  0  0  0  0  0  0  0  0  0
  -26.0010  -30.6740   21.4160 C   0  0  0  0  0  2  0  0  0  0  0  0
  -26.0720  -29.2690   20.7660 C   0  0  0  0  0  0  0  0  0  0  0  0
  -27.2240  -28.3710   20.7730 C   0  0  0  0  0  3  0  0  0  0  0  0
  -25.9790  -26.7180   19.5560 C   0  0  0  0  0  3  0  0  0  0  0  0
  -24.8600  -27.5880   19.5350 C   0  0  0  0  0  3  0  0  0  0  0  0
  -23.6610  -29.7520   20.2060 C   0  0  0  0  0  2  0  0  0  0  0  0
  -24.7150  -31.0110   22.1220 N   0  0  0  0  0  0  0  0  0  0  0  0
  -23.5570  -32.1470   23.7260 O   0  0  0  0  0  0  0  0  0  0  0  0
  -22.7590  -29.4480   22.5530 C   0  0  0  0  0  0  0  0  0  0  0  0
  -21.4300  -29.2790   22.4320 N   0  0  0  0  0  0  0  0  0  0  0  0
  -23.4310  -28.8270   23.3800 O   0  0  0  0  0  0  0  0  0  0  0  0
  -20.9440  -29.8260   21.7350 H   0  0  0  0  0  0  0  0  0  0  0  0
  -18.0500  -28.0700   22.9580 C   0  0  0  0  0  0  0  0  0  0  0  0
  -20.6090  -28.3440   23.2110 C   0  0  0  0  0  3  0  0  0  0  0  0
  -20.7150  -26.9090   22.6440 C   0  0  0  0  0  2  0  0  0  0  0  0
  -19.6110  -26.5810   21.6350 C   0  0  0  0  0  2  0  0  0  0  0  0
  -18.2310  -26.7210   22.2850 C   0  0  0  0  0  2  0  0  0  0  0  0
  -19.1670  -28.8420   23.3750 C   0  0  0  0  0  0  0  0  0  0  0  0
  -18.9460  -30.1060   23.9630 C   0  0  0  0  0  3  0  0  0  0  0  0
  -17.6380  -30.5940   24.1480 C   0  0  0  0  0  3  0  0  0  0  0  0
  -16.5350  -29.8220   23.7400 C   0  0  0  0  0  3  0  0  0  0  0  0
  -16.7430  -28.5640   23.1480 C   0  0  0  0  0  3  0  0  0  0  0  0
  -25.9180  -32.4900   23.8290 C   0  0  0  0  0  3  0  0  0  0  0  0
  -26.4380  -31.7280   25.1120 C   0  0  1  0  0  0  0  0  0  0  0  0
  -25.3460  -31.4920   26.1830 C   0  0  0  0  0  1  0  0  0  0  0  0
  -27.0280  -30.3500   24.7310 C   0  0  0  0  0  1  0  0  0  0  0  0
  -27.5860  -32.5340   25.7670 C   0  0  0  0  0  1  0  0  0  0  0  0
  -25.6020  -33.8900   24.1630 N   0  0  0  0  0  0  0  0  0  0  0  0
  -25.9210  -34.9520   23.4120 C   0  0  0  0  0  0  0  0  0  0  0  0
  -26.5820  -34.8600   22.3750 O   0  0  0  0  0  0  0  0  0  0  0  0
  -25.0100  -34.0360   24.9670 H   0  0  0  0  0  0  0  0  0  0  0  0
  -24.1760  -36.7460   23.1010 C   0  0  0  0  0  1  0  0  0  0  0  0
  -25.4330  -36.3400   23.8860 C   0  0  0  0  0  3  0  0  0  0  0  0
  -27.5720  -37.2290   24.6920 C   0  0  0  0  0  1  0  0  0  0  0  0
  -26.4570  -37.4010   23.7670 N   0  0  0  0  0  0  0  0  0  0  0  0
  -26.0480  -38.3170   23.9380 H   0  0  0  0  0  0  0  0  0  0  0  0
  1  5  1  0
  2  6  1  0
  3  6  1  0
  4  7  1  0
  4  1  1  0
  4  2  1  0
  5  3  1  0
  5  6  1  0
  5  9  1  1
  6 49  1  1
  8  7  1  0
 10 19  1  0
 10  9  1  0
 11 19  1  0
 12 17  1  0
 13 14  1  0
 13 12  1  0
 15 14  1  0
 15 24  1  0
 15 16  1  0
 17 11  1  0
 17 16  1  0
 18 11  2  0
 19 20  1  0
 21 22  2  0
 22 41  1  0
 23 22  1  0
 23 26  1  0
 24 21  1  0
 24 25  1  0
 25 23  2  0
 26 27  1  0
 27 28  2  0
 29 32  1  0
 29 28  1  0
 30 29  2  0
 31 30  1  0
 31 26  2  0
 32 33  1  0
 33 34  1  0
 34 35  2  0
 36 35  1  0
 36 40  1  0
 37 36  2  0
 38 33  2  0
 38 37  1  0
 39 38  1  0
 41 42  1  0
 42 45  1  0
 42 44  1  0
 43 41  2  0
 46 47  1  0
 46 21  1  0
 48 46  1  0
 49 50  1  0
 51 62  2  0
 52 50  1  0
 52 57  1  0
 53 61  1  0
 53 63  1  0
 54 60  1  0
 54 56  1  0
 55 61  1  0
 56 57  2  0
 56 55  1  0
 58 52  2  0
 59 58  1  0
 59 54  2  0
 60 53  1  0
 61 51  1  0
 63 65  2  0
 64 63  1  0
 66 64  1  0
 67 76  2  0
 67 72  1  0
 68 64  1  0
 68 72  1  0
 69 68  1  0
 70 71  1  0
 70 69  1  0
 71 67  1  0
 72 73  2  0
 73 74  1  0
 75 74  2  0
 76 75  1  0
 77 51  1  0
 77 82  1  0
 77 78  1  0
 78 81  1  1
 78 79  1  0
 80 78  1  0
 82 85  1  0
 83 87  1  0
 83 82  1  0
 84 83  2  0
 87 86  1  0
 89 87  1  0
 89 90  1  0
 89 88  1  0
M  ISO  4  11 100  19 100  49 101  50 101
M  END
>  <TORSDO>  (78) 
F 20

>  <SCORE>  (78) 
-15.392

>  <name>  (78) 
78

>  <ligand_id>  (78) 
78

>  <original_smiles>  (78) 
[H]OC1([H])C([H])([H])C2(C([H])([H])Oc3c([H])c([H])c4c(c3[H])C([H])([H])N(C(=O)C([H])(N([H])C(=O)C([H])(N([H])C([H])([H])[H])C([H])([H])[H])C(C([H])([H])[H])(C([H])([H])[H])C([H])([H])[H])C([H])(C(=O)N([H])C3([H])c5c([H])c([H])c([H])c([H])c5C([H])([H])C([H])([H])C3([H])[H])C4([H])[H])C([H])([H])C2(C([H])([H])C([H])([H])N([H])C(=O)N2C([H])([H])C([H])([H])C([H])([H])C([H])(n3nc(-c4c([H])c([H])c(Oc5c([H])c([H])c(F)c([H])c5F)c([H])c4[H])c(C(=O)N([H])[H])c3N([H])[H])C2([H])[H])C1([H])[H]

>  <smiles>  (78) 
[H]OC1([H])C([H])([H])C2(C([H])([H])Oc3c([H])c([H])c4c(c3[H])C([H])([H])N(C(=O)C([H])(N([H])C(=O)C([H])(N([H])C([H])([H])[H])C([H])([H])[H])C(C([H])([H])[H])(C([H])([H])[H])C([H])([H])[H])C([H])(C(=O)N([H])C3([H])c5c([H])c([H])c([H])c([H])c5C([H])([H])C([H])([H])C3([H])[H])C4([H])[H])C([H])([H])C2(C([H])([H])C([H])([H])N([H])C(=O)N2C([H])([H])C([H])([H])C([H])([H])C([H])(n3nc(-c4c([H])c([H])c(Oc5c([H])c([H])c(F)c([H])c5F)c([H])c4[H])c(C(=O)N([H])[H])c3N([H])[H])C2([H])[H])C1([H])[H]

$$$$
79:0:0
     RDKit          3D

 91100  0  0  1  0  0  0  0  0999 V2000
  -29.8950  -19.6220   21.5210 C   0  0  0  0  0  2  0  0  0  0  0  0
  -31.0090  -21.7900   19.1820 C   0  0  0  0  0  2  0  0  0  0  0  0
  -29.9000  -20.6850   19.2900 C   0  0  0  0  0  3  0  0  0  0  0  0
  -29.9220  -19.2310   20.0160 C   0  0  0  0  0  3  0  0  0  0  0  0
  -29.6100  -21.1620   21.6660 C   0  0  0  0  0  3  0  0  0  0  0  0
  -29.2760  -21.7180   20.2630 C   0  0  0  0  0  3  0  0  0  0  0  0
  -28.5630  -21.5170   22.7360 C   0  0  0  0  0  1  0  0  0  0  0  0
  -30.1640  -22.8510   19.8280 N   0  0  2  0  0  4  0  0  0  0  0  0
  -30.6660  -23.2120   20.6260 H   0  0  0  0  0  0  0  0  0  0  0  0
  -30.8910  -17.9550   19.6070 C   0  0  0  0  0  2  0  0  0  0  0  0
  -31.2460  -15.2960   19.7150 C   0  0  0  0  0  0  0  0  0  0  0  0
  -31.0130  -12.9100   18.9430 C   0  0  0  0  0  2  0  0  0  0  0  0
  -30.0150  -12.8090   17.7660 C   0  0  0  0  0  2  0  0  0  0  0  0
  -28.5740  -12.6630   18.2870 C   0  0  0  0  0  2  0  0  0  0  0  0
  -28.2480  -13.6860   19.4080 C   0  0  0  0  0  3  0  0  0  0  0  0
  -29.3600  -13.7520   20.4800 C   0  0  0  0  0  2  0  0  0  0  0  0
  -30.6180  -14.0620   19.7950 N   0  0  0  0  0  0  0  0  0  0  0  0
  -32.3940  -15.3470   19.2650 O   0  0  0  0  0  0  0  0  0  0  0  0
  -30.5260  -16.4790   19.9450 N   0  0  0  0  0  0  0  0  0  0  0  0
  -29.6010  -16.3460   20.3220 H   0  0  0  0  0  0  0  0  0  0  0  0
  -25.9930  -14.3810   20.4030 C   0  0  0  0  0  0  0  0  0  0  0  0
  -24.9050  -13.6570   20.8090 C   0  0  0  0  0  0  0  0  0  0  0  0
  -25.2530  -12.2840   20.6330 C   0  0  0  0  0  0  0  0  0  0  0  0
  -26.9350  -13.4500   19.9970 N   0  0  0  0  0  0  0  0  0  0  0  0
  -26.5030  -12.1800   20.1980 N   0  0  0  0  0  0  0  0  0  0  0  0
  -24.4450  -11.0660   20.7900 C   0  0  0  0  0  0  0  0  0  0  0  0
  -24.8280  -10.0360   21.6740 C   0  0  0  0  0  3  0  0  0  0  0  0
  -24.0290   -8.8810   21.8220 C   0  0  0  0  0  3  0  0  0  0  0  0
  -22.8280   -8.7540   21.0840 C   0  0  0  0  0  0  0  0  0  0  0  0
  -22.4630   -9.7710   20.1830 C   0  0  0  0  0  3  0  0  0  0  0  0
  -23.2650  -10.9150   20.0330 C   0  0  0  0  0  3  0  0  0  0  0  0
  -21.9970   -7.6620   21.1460 O   0  0  0  0  0  0  0  0  0  0  0  0
  -21.8670   -6.9190   22.2920 C   0  0  0  0  0  0  0  0  0  0  0  0
  -21.3930   -7.4830   23.5000 C   0  0  0  0  0  3  0  0  0  0  0  0
  -21.2140   -6.6670   24.6340 C   0  0  0  0  0  3  0  0  0  0  0  0
  -21.4930   -5.2900   24.5610 C   0  0  0  0  0  0  0  0  0  0  0  0
  -21.9610   -4.7260   23.3610 C   0  0  0  0  0  3  0  0  0  0  0  0
  -22.1410   -5.5380   22.2290 C   0  0  0  0  0  0  0  0  0  0  0  0
  -22.5720   -4.9870   21.0670 F   0  0  0  0  0  0  0  0  0  0  0  0
  -21.3130   -4.5040   25.6480 F   0  0  0  0  0  0  0  0  0  0  0  0
  -23.5760  -14.2080   21.2460 C   0  0  0  0  0  0  0  0  0  0  0  0
  -22.8760  -13.5010   22.1230 N   0  0  0  0  0  0  0  0  0  0  0  0
  -23.1770  -15.3020   20.8460 O   0  0  0  0  0  0  0  0  0  0  0  0
  -23.2180  -12.6170   22.4720 H   0  0  0  0  0  0  0  0  0  0  0  0
  -21.9800  -13.8420   22.4450 H   0  0  0  0  0  0  0  0  0  0  0  0
  -26.2530  -15.7440   20.3170 N   0  0  0  0  0  0  0  0  0  0  0  0
  -25.5520  -16.4440   20.5370 H   0  0  0  0  0  0  0  0  0  0  0  0
  -27.0950  -16.1390   19.9190 H   0  0  0  0  0  0  0  0  0  0  0  0
  -29.6930  -24.0760   18.9790 C   0  0  0  0  0  3  0  0  0  0  0  0
  -28.7710  -25.2890   19.6000 C   0  0  0  0  0  3  0  0  0  0  0  0
  -28.6470  -26.6770   18.9760 O   0  0  0  0  0  0  0  0  0  0  0  0
  -24.5630  -31.3130   22.8530 C   0  0  0  0  0  0  0  0  0  0  0  0
  -27.4630  -27.4470   19.1210 C   0  0  0  0  0  0  0  0  0  0  0  0
  -23.4230  -30.0470   21.0670 C   0  0  0  0  0  3  0  0  0  0  0  0
  -24.9570  -28.8500   19.3920 C   0  0  0  0  0  0  0  0  0  0  0  0
  -25.9200  -30.6320   20.8470 C   0  0  0  0  0  2  0  0  0  0  0  0
  -26.1030  -29.3600   20.0130 C   0  0  0  0  0  0  0  0  0  0  0  0
  -27.3590  -28.6820   19.8570 C   0  0  0  0  0  3  0  0  0  0  0  0
  -26.2840  -27.0100   18.4780 C   0  0  0  0  0  3  0  0  0  0  0  0
  -25.0520  -27.6910   18.6040 C   0  0  0  0  0  3  0  0  0  0  0  0
  -23.6430  -29.5830   19.6010 C   0  0  0  0  0  2  0  0  0  0  0  0
  -24.6550  -30.6780   21.6460 N   0  0  0  0  0  0  0  0  0  0  0  0
  -23.4850  -31.3980   23.4610 O   0  0  0  0  0  0  0  0  0  0  0  0
  -22.8970  -28.8510   21.8970 C   0  0  0  0  0  0  0  0  0  0  0  0
  -21.5890  -28.5550   21.7880 N   0  0  0  0  0  0  0  0  0  0  0  0
  -23.6660  -28.1920   22.6020 O   0  0  0  0  0  0  0  0  0  0  0  0
  -21.0180  -29.1420   21.1960 H   0  0  0  0  0  0  0  0  0  0  0  0
  -18.3710  -26.9640   22.2230 C   0  0  0  0  0  0  0  0  0  0  0  0
  -20.9030  -27.4430   22.4440 C   0  0  0  0  0  3  0  0  0  0  0  0
  -21.1190  -26.1220   21.6670 C   0  0  0  0  0  2  0  0  0  0  0  0
  -20.0090  -25.8340   20.6520 C   0  0  0  0  0  2  0  0  0  0  0  0
  -18.6480  -25.7480   21.3530 C   0  0  0  0  0  2  0  0  0  0  0  0
  -19.4300  -27.7680   22.7210 C   0  0  0  0  0  0  0  0  0  0  0  0
  -19.1180  -28.9070   23.4970 C   0  0  0  0  0  3  0  0  0  0  0  0
  -17.7800  -29.2420   23.7770 C   0  0  0  0  0  3  0  0  0  0  0  0
  -16.7360  -28.4330   23.2930 C   0  0  0  0  0  3  0  0  0  0  0  0
  -17.0320  -27.2940   22.5210 C   0  0  0  0  0  3  0  0  0  0  0  0
  -25.8040  -31.9830   23.5210 C   0  0  0  0  0  3  0  0  0  0  0  0
  -26.4170  -31.1250   24.6940 C   0  0  1  0  0  0  0  0  0  0  0  0
  -25.3750  -30.6950   25.7540 C   0  0  0  0  0  1  0  0  0  0  0  0
  -27.0850  -29.8450   24.1400 C   0  0  0  0  0  1  0  0  0  0  0  0
  -27.5340  -31.9280   25.4040 C   0  0  0  0  0  1  0  0  0  0  0  0
  -25.3880  -33.3070   24.0120 N   0  0  0  0  0  0  0  0  0  0  0  0
  -25.6570  -34.4670   23.3990 C   0  0  0  0  0  0  0  0  0  0  0  0
  -26.3460  -34.5420   22.3770 O   0  0  0  0  0  0  0  0  0  0  0  0
  -24.7800  -33.3220   24.8190 H   0  0  0  0  0  0  0  0  0  0  0  0
  -23.8070  -36.1630   23.2410 C   0  0  0  0  0  1  0  0  0  0  0  0
  -25.0690  -35.7510   24.0140 C   0  0  0  0  0  3  0  0  0  0  0  0
  -27.1200  -36.6830   24.9910 C   0  0  0  0  0  1  0  0  0  0  0  0
  -26.0230  -36.8800   24.0460 N   0  0  0  0  0  0  0  0  0  0  0  0
  -25.5460  -37.7420   24.2960 H   0  0  0  0  0  0  0  0  0  0  0  0
  1  5  1  0
  2  8  1  0
  3  2  1  0
  3  4  1  0
  3  6  1  0
  4 10  1  0
  4  1  1  0
  5  7  1  0
  6  8  1  0
  6  5  1  0
  8  9  1  1
 10 19  1  0
 11 17  1  0
 11 19  1  0
 12 17  1  0
 13 14  1  0
 13 12  1  0
 15 14  1  0
 15 24  1  0
 15 16  1  0
 17 16  1  0
 18 11  2  0
 19 20  1  0
 21 22  2  0
 22 41  1  0
 23 26  1  0
 23 22  1  0
 24 25  1  0
 24 21  1  0
 25 23  2  0
 26 27  1  0
 27 28  2  0
 29 32  1  0
 29 28  1  0
 30 29  2  0
 31 30  1  0
 31 26  2  0
 32 33  1  0
 33 34  1  0
 34 35  2  0
 36 35  1  0
 36 40  1  0
 37 36  2  0
 38 33  2  0
 38 37  1  0
 39 38  1  0
 41 42  1  0
 42 45  1  0
 42 44  1  0
 43 41  2  0
 46 21  1  0
 46 47  1  0
 48 46  1  0
 49 50  2  0
 49  8  1  0
 51 53  1  0
 51 50  1  0
 52 63  2  0
 53 58  1  0
 54 62  1  0
 54 64  1  0
 55 61  1  0
 55 57  1  0
 56 62  1  0
 57 56  1  0
 58 57  2  0
 59 60  1  0
 59 53  2  0
 60 55  2  0
 61 54  1  0
 62 52  1  0
 64 66  2  0
 65 64  1  0
 67 65  1  0
 68 77  2  0
 68 73  1  0
 69 65  1  0
 69 73  1  0
 70 69  1  0
 71 72  1  0
 71 70  1  0
 72 68  1  0
 73 74  2  0
 74 75  1  0
 76 75  2  0
 77 76  1  0
 78 52  1  0
 78 83  1  0
 78 79  1  0
 79 82  1  1
 79 80  1  0
 81 79  1  0
 83 86  1  0
 84 83  1  0
 84 88  1  0
 85 84  2  0
 88 87  1  0
 88 90  1  0
 90 91  1  0
 90 89  1  0
M  ISO  4  11 100  19 100  50 101  51 101
M  END
>  <TORSDO>  (79) 
F 19

>  <SCORE>  (79) 
-9.866

>  <name>  (79) 
79

>  <ligand_id>  (79) 
79

>  <original_smiles>  (79) 
[H]c1c([H])c([H])c2c(c1[H])C([H])([H])C([H])([H])C([H])([H])C2([H])N([H])C(=O)C1([H])N(C(=O)C([H])(N([H])C(=O)C([H])(N([H])C([H])([H])[H])C([H])([H])[H])C(C([H])([H])[H])(C([H])([H])[H])C([H])([H])[H])C([H])([H])c2c([H])c(OC([H])([H])C([H])([H])[N+]3([H])C([H])([H])C4([H])C([H])(C([H])([H])N([H])C(=O)N5C([H])([H])C([H])([H])C([H])([H])C([H])(n6nc(-c7c([H])c([H])c(Oc8c([H])c([H])c(F)c([H])c8F)c([H])c7[H])c(C(=O)N([H])[H])c6N([H])[H])C5([H])[H])C([H])([H])C([H])(C([H])([H])[H])C43[H])c([H])c([H])c2C1([H])[H]

>  <smiles>  (79) 
[H]c1c([H])c([H])c2c(c1[H])C([H])([H])C([H])([H])C([H])([H])C2([H])N([H])C(=O)C1([H])N(C(=O)C([H])(N([H])C(=O)C([H])(N([H])C([H])([H])[H])C([H])([H])[H])C(C([H])([H])[H])(C([H])([H])[H])C([H])([H])[H])C([H])([H])c2c([H])c(OC([H])([H])C([H])([H])[N+]3([H])C([H])([H])C4([H])C([H])(C([H])([H])N([H])C(=O)N5C([H])([H])C([H])([H])C([H])([H])C([H])(n6nc(-c7c([H])c([H])c(Oc8c([H])c([H])c(F)c([H])c8F)c([H])c7[H])c(C(=O)N([H])[H])c6N([H])[H])C5([H])[H])C([H])([H])C([H])(C([H])([H])[H])C43[H])c([H])c([H])c2C1([H])[H]

$$$$
80:0:0
     RDKit          3D

 89 98  0  0  1  0  0  0  0  0999 V2000
  -31.7780  -23.2370   19.6240 C   0  0  0  0  0  2  0  0  0  0  0  0
  -30.8400  -24.0930   20.4920 C   0  0  0  0  0  2  0  0  0  0  0  0
  -31.2560  -20.9270   20.6350 C   0  0  0  0  0  2  0  0  0  0  0  0
  -31.0610  -21.8960   19.4690 C   0  0  0  0  0  3  0  0  0  0  0  0
  -29.5310  -22.0140   19.7420 C   0  0  0  0  0  3  0  0  0  0  0  0
  -29.4530  -23.6890   19.9870 C   0  0  0  0  0  3  0  0  0  0  0  0
  -29.7780  -20.5690   20.5930 C   0  0  0  0  0  3  0  0  0  0  0  0
  -29.4500  -18.9860   20.1320 C   0  0  0  0  0  3  0  0  0  0  0  0
  -30.3020  -17.6320   20.6480 C   0  0  0  0  0  3  0  0  0  0  0  0
  -30.5420  -14.9200   20.3470 C   0  0  0  0  0  0  0  0  0  0  0  0
  -30.3440  -12.5940   19.3750 C   0  0  0  0  0  2  0  0  0  0  0  0
  -29.4070  -12.5890   18.1480 C   0  0  0  0  0  2  0  0  0  0  0  0
  -27.9390  -12.4000   18.5800 C   0  0  0  0  0  2  0  0  0  0  0  0
  -27.5510  -13.3060   19.7790 C   0  0  0  0  0  3  0  0  0  0  0  0
  -28.6190  -13.2970   20.8960 C   0  0  0  0  0  2  0  0  0  0  0  0
  -29.8930  -13.6910   20.2750 N   0  0  0  0  0  0  0  0  0  0  0  0
  -31.7460  -14.9470   20.0850 O   0  0  0  0  0  0  0  0  0  0  0  0
  -29.8270  -16.1330   20.5080 N   0  0  0  0  0  0  0  0  0  0  0  0
  -28.8370  -15.9960   20.6430 H   0  0  0  0  0  0  0  0  0  0  0  0
  -25.1640  -13.8810   20.5120 C   0  0  0  0  0  0  0  0  0  0  0  0
  -24.1000  -13.1060   20.8800 C   0  0  0  0  0  0  0  0  0  0  0  0
  -24.5640  -11.7540   20.8560 C   0  0  0  0  0  0  0  0  0  0  0  0
  -26.2110  -13.0050   20.2810 N   0  0  0  0  0  0  0  0  0  0  0  0
  -25.8580  -11.7200   20.5520 N   0  0  0  0  0  0  0  0  0  0  0  0
  -23.8370  -10.4910   21.0460 C   0  0  0  0  0  0  0  0  0  0  0  0
  -24.2760   -9.5170   21.9700 C   0  0  0  0  0  3  0  0  0  0  0  0
  -23.5480   -8.3210   22.1530 C   0  0  0  0  0  3  0  0  0  0  0  0
  -22.3640   -8.0930   21.4110 C   0  0  0  0  0  0  0  0  0  0  0  0
  -21.9430   -9.0550   20.4760 C   0  0  0  0  0  3  0  0  0  0  0  0
  -22.6720  -10.2410   20.2920 C   0  0  0  0  0  3  0  0  0  0  0  0
  -21.6040   -6.9520   21.5040 O   0  0  0  0  0  0  0  0  0  0  0  0
  -21.5810   -6.1930   22.6470 C   0  0  0  0  0  0  0  0  0  0  0  0
  -21.1970   -6.7330   23.8950 C   0  0  0  0  0  3  0  0  0  0  0  0
  -21.1230   -5.9010   25.0310 C   0  0  0  0  0  3  0  0  0  0  0  0
  -21.4200   -4.5300   24.9190 C   0  0  0  0  0  0  0  0  0  0  0  0
  -21.7990   -3.9890   23.6780 C   0  0  0  0  0  3  0  0  0  0  0  0
  -21.8760   -4.8190   22.5450 C   0  0  0  0  0  0  0  0  0  0  0  0
  -22.2190   -4.2860   21.3480 F   0  0  0  0  0  0  0  0  0  0  0  0
  -21.3390   -3.7280   26.0070 F   0  0  0  0  0  0  0  0  0  0  0  0
  -22.7000  -13.5810   21.1410 C   0  0  0  0  0  0  0  0  0  0  0  0
  -21.9690  -12.8910   22.0080 N   0  0  0  0  0  0  0  0  0  0  0  0
  -22.2640  -14.6030   20.6110 O   0  0  0  0  0  0  0  0  0  0  0  0
  -22.3330  -12.0670   22.4600 H   0  0  0  0  0  0  0  0  0  0  0  0
  -21.0300  -13.1940   22.2250 H   0  0  0  0  0  0  0  0  0  0  0  0
  -25.3260  -15.2510   20.3230 N   0  0  0  0  0  0  0  0  0  0  0  0
  -24.5510  -15.8960   20.4150 H   0  0  0  0  0  0  0  0  0  0  0  0
  -26.1600  -15.6880   19.9550 H   0  0  0  0  0  0  0  0  0  0  0  0
  -28.2230  -24.7430   20.3860 C   0  0  0  0  0  2  0  0  0  0  0  0
  -28.3560  -26.2830   20.2420 O   0  0  0  0  0  0  0  0  0  0  0  0
  -24.6510  -31.8970   23.2470 C   0  0  0  0  0  0  0  0  0  0  0  0
  -27.2420  -27.1960   20.2260 C   0  0  0  0  0  0  0  0  0  0  0  0
  -23.4420  -30.4900   21.6210 C   0  0  0  0  0  3  0  0  0  0  0  0
  -24.8880  -28.9020   20.2050 C   0  0  0  0  0  0  0  0  0  0  0  0
  -25.9940  -30.7640   21.4400 C   0  0  0  0  0  2  0  0  0  0  0  0
  -26.0680  -29.3680   20.7980 C   0  0  0  0  0  0  0  0  0  0  0  0
  -27.2450  -28.5340   20.7850 C   0  0  0  0  0  3  0  0  0  0  0  0
  -26.0300  -26.8140   19.6070 C   0  0  0  0  0  3  0  0  0  0  0  0
  -24.8790  -27.6350   19.5980 C   0  0  0  0  0  3  0  0  0  0  0  0
  -23.6570  -29.7960   20.2500 C   0  0  0  0  0  2  0  0  0  0  0  0
  -24.7170  -31.0720   22.1570 N   0  0  0  0  0  0  0  0  0  0  0  0
  -23.5670  -32.1860   23.7760 O   0  0  0  0  0  0  0  0  0  0  0  0
  -22.7670  -29.4930   22.5940 C   0  0  0  0  0  0  0  0  0  0  0  0
  -21.4380  -29.3200   22.4700 N   0  0  0  0  0  0  0  0  0  0  0  0
  -23.4400  -28.8760   23.4240 O   0  0  0  0  0  0  0  0  0  0  0  0
  -20.9500  -29.8710   21.7760 H   0  0  0  0  0  0  0  0  0  0  0  0
  -18.0610  -28.1100   22.9750 C   0  0  0  0  0  0  0  0  0  0  0  0
  -20.6180  -28.3890   23.2500 C   0  0  0  0  0  3  0  0  0  0  0  0
  -20.7270  -26.9490   22.6950 C   0  0  0  0  0  2  0  0  0  0  0  0
  -19.6310  -26.6080   21.6810 C   0  0  0  0  0  2  0  0  0  0  0  0
  -18.2470  -26.7550   22.3160 C   0  0  0  0  0  2  0  0  0  0  0  0
  -19.1740  -28.8840   23.3990 C   0  0  0  0  0  0  0  0  0  0  0  0
  -18.9430  -30.1530   23.9750 C   0  0  0  0  0  3  0  0  0  0  0  0
  -17.6350  -30.6470   24.1310 C   0  0  0  0  0  3  0  0  0  0  0  0
  -16.5360  -29.8710   23.7210 C   0  0  0  0  0  3  0  0  0  0  0  0
  -16.7510  -28.6040   23.1500 C   0  0  0  0  0  3  0  0  0  0  0  0
  -25.9320  -32.5340   23.8680 C   0  0  0  0  0  3  0  0  0  0  0  0
  -26.4540  -31.7610   25.1420 C   0  0  1  0  0  0  0  0  0  0  0  0
  -25.3660  -31.5230   26.2160 C   0  0  0  0  0  1  0  0  0  0  0  0
  -27.0350  -30.3840   24.7480 C   0  0  0  0  0  1  0  0  0  0  0  0
  -27.6110  -32.5540   25.7950 C   0  0  0  0  0  1  0  0  0  0  0  0
  -25.6190  -33.9300   24.2090 N   0  0  0  0  0  0  0  0  0  0  0  0
  -25.9320  -34.9900   23.4510 C   0  0  0  0  0  0  0  0  0  0  0  0
  -26.5790  -34.8940   22.4050 O   0  0  0  0  0  0  0  0  0  0  0  0
  -25.0410  -34.0790   25.0220 H   0  0  0  0  0  0  0  0  0  0  0  0
  -24.1800  -36.7720   23.1590 C   0  0  0  0  0  1  0  0  0  0  0  0
  -25.4510  -36.3750   23.9260 C   0  0  0  0  0  3  0  0  0  0  0  0
  -27.6070  -37.2740   24.6860 C   0  0  0  0  0  1  0  0  0  0  0  0
  -26.4730  -37.4350   23.7780 N   0  0  0  0  0  0  0  0  0  0  0  0
  -26.0660  -38.3530   23.9370 H   0  0  0  0  0  0  0  0  0  0  0  0
  1  2  1  0
  4  1  1  0
  4  5  1  0
  4  3  1  0
  5  6  1  0
  5  7  1  0
  6 48  1  0
  6  2  1  0
  7  3  1  0
  8  7  1  0
  8  9  2  0
 10 18  1  0
 11 16  1  0
 12 13  1  0
 12 11  1  0
 13 14  1  0
 14 23  1  0
 14 15  1  0
 16 10  1  0
 16 15  1  0
 17 10  2  0
 18 19  1  0
 18  9  1  0
 20 21  2  0
 21 40  1  0
 22 21  1  0
 22 25  1  0
 23 20  1  0
 23 24  1  0
 24 22  2  0
 25 26  1  0
 26 27  2  0
 28 31  1  0
 28 27  1  0
 29 28  2  0
 30 29  1  0
 30 25  2  0
 31 32  1  0
 32 33  1  0
 33 34  2  0
 35 34  1  0
 35 39  1  0
 36 35  2  0
 37 32  2  0
 37 36  1  0
 38 37  1  0
 40 41  1  0
 41 44  1  0
 41 43  1  0
 42 40  2  0
 45 46  1  0
 45 20  1  0
 47 45  1  0
 49 48  1  0
 50 61  2  0
 50 76  1  0
 51 49  1  0
 51 56  1  0
 52 60  1  0
 52 62  1  0
 53 59  1  0
 53 55  1  0
 54 60  1  0
 55 54  1  0
 56 55  2  0
 57 51  2  0
 58 57  1  0
 58 53  2  0
 59 52  1  0
 60 50  1  0
 62 64  2  0
 63 62  1  0
 63 67  1  0
 65 63  1  0
 66 75  2  0
 66 71  1  0
 67 71  1  0
 68 67  1  0
 69 70  1  0
 69 68  1  0
 70 66  1  0
 71 72  2  0
 72 73  1  0
 74 73  2  0
 75 74  1  0
 76 81  1  0
 76 77  1  0
 77 80  1  1
 77 78  1  0
 79 77  1  0
 81 84  1  0
 82 86  1  0
 82 81  1  0
 83 82  2  0
 85 86  1  0
 88 86  1  0
 88 89  1  0
 88 87  1  0
M  ISO  4  10 100  18 100  48 101  49 101
M  END
>  <TORSDO>  (80) 
F 19

>  <SCORE>  (80) 
-14.078

>  <name>  (80) 
80

>  <ligand_id>  (80) 
80

>  <original_smiles>  (80) 
[H]c1c([H])c([H])c2c(c1[H])C([H])([H])C([H])([H])C([H])([H])C2([H])N([H])C(=O)C1([H])N(C(=O)C([H])(N([H])C(=O)C([H])(N([H])C([H])([H])[H])C([H])([H])[H])C(C([H])([H])[H])(C([H])([H])[H])C([H])([H])[H])C([H])([H])c2c([H])c(OC([H])([H])C3([H])C([H])([H])C([H])([H])C4([H])C([H])([H])C([H])(C([H])([H])C([H])([H])N([H])C(=O)N5C([H])([H])C([H])([H])C([H])([H])C([H])(n6nc(-c7c([H])c([H])c(Oc8c([H])c([H])c(F)c([H])c8F)c([H])c7[H])c(C(=O)N([H])[H])c6N([H])[H])C5([H])[H])C34[H])c([H])c([H])c2C1([H])[H]

>  <smiles>  (80) 
[H]c1c([H])c([H])c2c(c1[H])C([H])([H])C([H])([H])C([H])([H])C2([H])N([H])C(=O)C1([H])N(C(=O)C([H])(N([H])C(=O)C([H])(N([H])C([H])([H])[H])C([H])([H])[H])C(C([H])([H])[H])(C([H])([H])[H])C([H])([H])[H])C([H])([H])c2c([H])c(OC([H])([H])C3([H])C([H])([H])C([H])([H])C4([H])C([H])([H])C([H])(C([H])([H])C([H])([H])N([H])C(=O)N5C([H])([H])C([H])([H])C([H])([H])C([H])(n6nc(-c7c([H])c([H])c(Oc8c([H])c([H])c(F)c([H])c8F)c([H])c7[H])c(C(=O)N([H])[H])c6N([H])[H])C5([H])[H])C34[H])c([H])c([H])c2C1([H])[H]

$$$$
81:0:0
     RDKit          3D

 90 98  0  0  1  0  0  0  0  0999 V2000
  -28.6420  -22.3700   18.5740 C   0  0  0  0  0  3  0  0  0  0  0  0
  -29.2760  -19.9180   18.4910 C   0  0  0  0  0  3  0  0  0  0  0  0
  -29.3750  -21.1900   20.5350 C   0  0  0  0  0  3  0  0  0  0  0  0
  -28.8250  -21.1310   17.8840 C   0  0  0  0  0  0  0  0  0  0  0  0
  -28.8790  -22.5470   19.9540 C   0  0  0  0  0  0  0  0  0  0  0  0
  -29.6130  -19.8070   19.8560 C   0  0  0  0  0  0  0  0  0  0  0  0
  -28.5060  -21.1070   16.4010 C   0  0  0  0  0  1  0  0  0  0  0  0
  -31.8360  -18.5080   20.1150 C   0  0  0  0  0  1  0  0  0  0  0  0
  -30.1520  -18.2950   21.9170 C   0  0  0  0  0  1  0  0  0  0  0  0
  -30.3410  -18.2780   20.3910 C   0  0  1  0  0  0  0  0  0  0  0  0
  -30.8210  -15.3130   19.9980 C   0  0  0  0  0  0  0  0  0  0  0  0
  -30.7360  -12.8310   19.1740 C   0  0  0  0  0  2  0  0  0  0  0  0
  -29.7780  -12.5550   17.9880 C   0  0  0  0  0  2  0  0  0  0  0  0
  -28.3430  -12.3110   18.4870 C   0  0  0  0  0  2  0  0  0  0  0  0
  -27.9310  -13.3290   19.5800 C   0  0  0  0  0  3  0  0  0  0  0  0
  -29.0160  -13.5290   20.6590 C   0  0  0  0  0  2  0  0  0  0  0  0
  -30.2140  -14.0170   19.9550 N   0  0  0  0  0  0  0  0  0  0  0  0
  -32.0490  -15.2380   19.8360 O   0  0  0  0  0  0  0  0  0  0  0  0
  -30.1000  -16.6350   20.0220 N   0  0  0  0  0  0  0  0  0  0  0  0
  -29.1100  -16.4560   19.9350 H   0  0  0  0  0  0  0  0  0  0  0  0
  -25.6170  -13.9570   20.4380 C   0  0  0  0  0  0  0  0  0  0  0  0
  -24.5420  -13.2140   20.8360 C   0  0  0  0  0  0  0  0  0  0  0  0
  -24.9600  -11.8480   20.7710 C   0  0  0  0  0  0  0  0  0  0  0  0
  -26.6180  -13.0490   20.1430 N   0  0  0  0  0  0  0  0  0  0  0  0
  -26.2370  -11.7720   20.4120 N   0  0  0  0  0  0  0  0  0  0  0  0
  -24.1930  -10.6110   20.9700 C   0  0  0  0  0  0  0  0  0  0  0  0
  -24.6000   -9.6290   21.9000 C   0  0  0  0  0  3  0  0  0  0  0  0
  -23.8320   -8.4600   22.0890 C   0  0  0  0  0  3  0  0  0  0  0  0
  -22.6430   -8.2630   21.3460 C   0  0  0  0  0  0  0  0  0  0  0  0
  -22.2550   -9.2320   20.4050 C   0  0  0  0  0  3  0  0  0  0  0  0
  -23.0230  -10.3930   20.2140 C   0  0  0  0  0  3  0  0  0  0  0  0
  -21.8490   -7.1460   21.4450 O   0  0  0  0  0  0  0  0  0  0  0  0
  -21.7580   -6.4280   22.6100 C   0  0  0  0  0  0  0  0  0  0  0  0
  -21.3220   -7.0170   23.8170 C   0  0  0  0  0  3  0  0  0  0  0  0
  -21.1760   -6.2270   24.9740 C   0  0  0  0  0  3  0  0  0  0  0  0
  -21.4560   -4.8480   24.9270 C   0  0  0  0  0  0  0  0  0  0  0  0
  -21.8850   -4.2580   23.7250 C   0  0  0  0  0  3  0  0  0  0  0  0
  -22.0320   -5.0450   22.5690 C   0  0  0  0  0  0  0  0  0  0  0  0
  -22.4250   -4.4680   21.4080 F   0  0  0  0  0  0  0  0  0  0  0  0
  -21.3090   -4.0870   26.0360 F   0  0  0  0  0  0  0  0  0  0  0  0
  -23.1740  -13.7380   21.1550 C   0  0  0  0  0  0  0  0  0  0  0  0
  -22.4520  -13.0640   22.0440 N   0  0  0  0  0  0  0  0  0  0  0  0
  -22.7560  -14.7800   20.6530 O   0  0  0  0  0  0  0  0  0  0  0  0
  -22.8040  -12.2210   22.4720 H   0  0  0  0  0  0  0  0  0  0  0  0
  -21.5340  -13.3980   22.3020 H   0  0  0  0  0  0  0  0  0  0  0  0
  -25.8190  -15.3240   20.2700 N   0  0  0  0  0  0  0  0  0  0  0  0
  -25.0740  -15.9970   20.4120 H   0  0  0  0  0  0  0  0  0  0  0  0
  -26.6570  -15.7380   19.8830 H   0  0  0  0  0  0  0  0  0  0  0  0
  -28.3610  -24.0930   20.6550 C   0  0  0  0  0  2  0  0  0  0  0  0
  -28.5390  -25.7140   20.2920 O   0  0  0  0  0  0  0  0  0  0  0  0
  -24.7040  -31.6520   23.1730 C   0  0  0  0  0  0  0  0  0  0  0  0
  -27.4970  -26.7990   20.2840 C   0  0  0  0  0  0  0  0  0  0  0  0
  -23.6120  -30.2190   21.4990 C   0  0  0  0  0  3  0  0  0  0  0  0
  -25.1540  -28.6430   20.1430 C   0  0  0  0  0  0  0  0  0  0  0  0
  -26.1780  -30.4910   21.4480 C   0  0  0  0  0  2  0  0  0  0  0  0
  -26.3110  -29.0750   20.8040 C   0  0  0  0  0  0  0  0  0  0  0  0
  -27.4800  -28.1790   20.8400 C   0  0  0  0  0  3  0  0  0  0  0  0
  -26.3020  -26.5250   19.5810 C   0  0  0  0  0  3  0  0  0  0  0  0
  -25.1770  -27.3890   19.5100 C   0  0  0  0  0  3  0  0  0  0  0  0
  -23.9130  -29.5370   20.1370 C   0  0  0  0  0  2  0  0  0  0  0  0
  -24.8500  -30.8170   22.0940 N   0  0  0  0  0  0  0  0  0  0  0  0
  -23.5880  -31.9140   23.6520 O   0  0  0  0  0  0  0  0  0  0  0  0
  -22.9060  -29.2100   22.4420 C   0  0  0  0  0  0  0  0  0  0  0  0
  -21.5820  -29.0280   22.2860 N   0  0  0  0  0  0  0  0  0  0  0  0
  -23.5590  -28.5910   23.2850 O   0  0  0  0  0  0  0  0  0  0  0  0
  -21.1060  -29.5790   21.5840 H   0  0  0  0  0  0  0  0  0  0  0  0
  -18.2050  -27.7690   22.7160 C   0  0  0  0  0  0  0  0  0  0  0  0
  -20.7540  -28.0730   23.0310 C   0  0  0  0  0  3  0  0  0  0  0  0
  -20.8880  -26.6470   22.4470 C   0  0  0  0  0  2  0  0  0  0  0  0
  -19.8120  -26.3170   21.4090 C   0  0  0  0  0  2  0  0  0  0  0  0
  -18.4160  -26.4320   22.0280 C   0  0  0  0  0  2  0  0  0  0  0  0
  -19.3020  -28.5470   23.1730 C   0  0  0  0  0  0  0  0  0  0  0  0
  -19.0480  -29.7960   23.7810 C   0  0  0  0  0  3  0  0  0  0  0  0
  -17.7310  -30.2690   23.9310 C   0  0  0  0  0  3  0  0  0  0  0  0
  -16.6480  -29.4900   23.4880 C   0  0  0  0  0  3  0  0  0  0  0  0
  -16.8860  -28.2420   22.8860 C   0  0  0  0  0  3  0  0  0  0  0  0
  -25.9310  -32.3340   23.8530 C   0  0  0  0  0  3  0  0  0  0  0  0
  -25.5650  -33.7280   24.1600 N   0  0  0  0  0  0  0  0  0  0  0  0
  -25.8940  -34.7920   23.4150 C   0  0  0  0  0  0  0  0  0  0  0  0
  -26.6000  -34.7040   22.4070 O   0  0  0  0  0  0  0  0  0  0  0  0
  -24.9380  -33.8670   24.9400 H   0  0  0  0  0  0  0  0  0  0  0  0
  -24.1280  -36.5430   23.0150 C   0  0  0  0  0  1  0  0  0  0  0  0
  -25.3610  -36.1710   23.8560 C   0  0  0  0  0  3  0  0  0  0  0  0
  -27.4480  -37.1230   24.7350 C   0  0  0  0  0  1  0  0  0  0  0  0
  -26.3670  -37.2530   23.7610 N   0  0  0  0  0  0  0  0  0  0  0  0
  -25.9320  -38.1620   23.8880 H   0  0  0  0  0  0  0  0  0  0  0  0
  -26.3980  -31.5960   25.1670 C   0  0  1  0  0  0  0  0  0  0  0  0
  -25.2580  -31.3490   26.1840 C   0  0  0  0  0  1  0  0  0  0  0  0
  -27.0320  -30.2250   24.8370 C   0  0  0  0  0  1  0  0  0  0  0  0
  -27.4950  -32.4270   25.8730 C   0  0  0  0  0  1  0  0  0  0  0  0
  1  5  1  0
  2  6  2  0
  4  2  1  0
  4  1  2  0
  5  3  2  0
  5 49  1  0
  6 10  1  0
  6  3  1  0
  7  4  1  0
 10  8  1  1
 10  9  1  0
 11 19  1  0
 12 17  1  0
 13 14  1  0
 13 12  1  0
 15 14  1  0
 15 24  1  0
 15 16  1  0
 17 11  1  0
 17 16  1  0
 18 11  2  0
 19 10  1  0
 20 19  1  0
 21 22  2  0
 22 41  1  0
 23 22  1  0
 23 26  1  0
 24 25  1  0
 24 21  1  0
 25 23  2  0
 26 27  1  0
 27 28  2  0
 29 32  1  0
 29 28  1  0
 30 29  2  0
 31 30  1  0
 31 26  2  0
 32 33  1  0
 33 34  1  0
 34 35  2  0
 36 35  1  0
 36 40  1  0
 37 36  2  0
 38 33  2  0
 38 37  1  0
 39 38  1  0
 41 42  1  0
 42 45  1  0
 42 44  1  0
 43 41  2  0
 46 47  1  0
 46 21  1  0
 48 46  1  0
 50 49  1  0
 51 62  2  0
 52 50  1  0
 52 57  1  0
 53 61  1  0
 53 63  1  0
 54 56  1  0
 55 61  1  0
 56 57  2  0
 56 55  1  0
 58 52  2  0
 59 58  1  0
 59 54  2  0
 60 54  1  0
 60 53  1  0
 61 51  1  0
 63 65  2  0
 64 63  1  0
 66 64  1  0
 67 76  2  0
 67 72  1  0
 68 64  1  0
 68 72  1  0
 69 68  1  0
 70 71  1  0
 70 69  1  0
 71 67  1  0
 72 73  2  0
 73 74  1  0
 75 74  2  0
 76 75  1  0
 77 51  1  0
 77 78  1  0
 77 87  1  0
 78 81  1  0
 79 83  1  0
 79 78  1  0
 80 79  2  0
 83 82  1  0
 85 83  1  0
 85 86  1  0
 85 84  1  0
 87 90  1  1
 87 88  1  0
 89 87  1  0
M  ISO  4  11 100  19 100  49 101  50 101
M  END
>  <TORSDO>  (81) 
F 18

>  <SCORE>  (81) 
-15.452

>  <name>  (81) 
81

>  <ligand_id>  (81) 
81

>  <original_smiles>  (81) 
[H]c1c([H])c([H])c2c(c1[H])C([H])([H])C([H])([H])C([H])([H])C2([H])N([H])C(=O)C1([H])N(C(=O)C([H])(N([H])C(=O)C([H])(N([H])C([H])([H])[H])C([H])([H])[H])C(C([H])([H])[H])(C([H])([H])[H])C([H])([H])[H])C([H])([H])c2c([H])c(OC([H])([H])c3c([H])c(C([H])([H])[H])c([H])c(C(N([H])C(=O)N4C([H])([H])C([H])([H])C([H])([H])C([H])(n5nc(-c6c([H])c([H])c(Oc7c([H])c([H])c(F)c([H])c7F)c([H])c6[H])c(C(=O)N([H])[H])c5N([H])[H])C4([H])[H])(C([H])([H])[H])C([H])([H])[H])c3[H])c([H])c([H])c2C1([H])[H]

>  <smiles>  (81) 
[H]c1c([H])c([H])c2c(c1[H])C([H])([H])C([H])([H])C([H])([H])C2([H])N([H])C(=O)C1([H])N(C(=O)C([H])(N([H])C(=O)C([H])(N([H])C([H])([H])[H])C([H])([H])[H])C(C([H])([H])[H])(C([H])([H])[H])C([H])([H])[H])C([H])([H])c2c([H])c(OC([H])([H])c3c([H])c(C([H])([H])[H])c([H])c(C(N([H])C(=O)N4C([H])([H])C([H])([H])C([H])([H])C([H])(n5nc(-c6c([H])c([H])c(Oc7c([H])c([H])c(F)c([H])c7F)c([H])c6[H])c(C(=O)N([H])[H])c5N([H])[H])C4([H])[H])(C([H])([H])[H])C([H])([H])[H])c3[H])c([H])c([H])c2C1([H])[H]

$$$$
82:0:0
     RDKit          3D

 90 97  0  0  1  0  0  0  0  0999 V2000
  -28.1710  -22.4240   21.2730 C   0  0  0  0  0  0  0  0  0  0  0  0
  -28.9850  -23.1680   20.5100 N   0  0  0  0  0  0  0  0  0  0  0  0
  -26.9650  -22.6620   21.3830 O   0  0  0  0  0  0  0  0  0  0  0  0
  -29.9550  -22.8750   20.4410 H   0  0  0  0  0  0  0  0  0  0  0  0
  -28.8060  -21.2870   22.0780 C   0  0  0  0  0  2  0  0  0  0  0  0
  -29.7030  -20.2950   21.3500 C   0  0  0  0  0  3  0  0  0  0  0  0
  -29.3220  -19.0800   20.9070 C   0  0  0  0  0  3  0  0  0  0  0  0
  -30.2450  -18.0660   20.2450 C   0  0  0  0  0  2  0  0  0  0  0  0
  -30.6550  -16.9210   21.2080 C   0  0  0  0  0  2  0  0  0  0  0  0
  -30.9010  -14.6350   20.1370 C   0  0  0  0  0  0  0  0  0  0  0  0
  -30.6040  -12.4920   18.9440 C   0  0  0  0  0  2  0  0  0  0  0  0
  -29.6230  -12.6810   17.7700 C   0  0  0  0  0  2  0  0  0  0  0  0
  -28.1570  -12.5470   18.2360 C   0  0  0  0  0  2  0  0  0  0  0  0
  -27.8490  -13.3840   19.5060 C   0  0  0  0  0  3  0  0  0  0  0  0
  -28.9280  -13.1390   20.5840 C   0  0  0  0  0  2  0  0  0  0  0  0
  -30.2360  -13.4580   19.9880 N   0  0  0  0  0  0  0  0  0  0  0  0
  -32.0010  -14.8580   19.6300 O   0  0  0  0  0  0  0  0  0  0  0  0
  -30.2130  -15.5820   20.8010 N   0  0  0  0  0  0  0  0  0  0  0  0
  -29.2980  -15.3020   21.1220 H   0  0  0  0  0  0  0  0  0  0  0  0
  -25.4630  -14.0070   20.2440 C   0  0  0  0  0  0  0  0  0  0  0  0
  -24.4020  -13.2390   20.6470 C   0  0  0  0  0  0  0  0  0  0  0  0
  -24.8620  -11.8870   20.6300 C   0  0  0  0  0  0  0  0  0  0  0  0
  -26.5030  -13.1200   20.0120 N   0  0  0  0  0  0  0  0  0  0  0  0
  -26.1460  -11.8420   20.2980 N   0  0  0  0  0  0  0  0  0  0  0  0
  -24.1390  -10.6290   20.8520 C   0  0  0  0  0  0  0  0  0  0  0  0
  -24.5600   -9.6980   21.8270 C   0  0  0  0  0  3  0  0  0  0  0  0
  -23.8380   -8.5020   22.0330 C   0  0  0  0  0  3  0  0  0  0  0  0
  -22.6810   -8.2310   21.2680 C   0  0  0  0  0  0  0  0  0  0  0  0
  -22.2810   -9.1510   20.2810 C   0  0  0  0  0  3  0  0  0  0  0  0
  -23.0020  -10.3380   20.0720 C   0  0  0  0  0  3  0  0  0  0  0  0
  -21.9330   -7.0840   21.3820 O   0  0  0  0  0  0  0  0  0  0  0  0
  -21.8260   -6.4100   22.5720 C   0  0  0  0  0  0  0  0  0  0  0  0
  -21.3230   -7.0300   23.7370 C   0  0  0  0  0  3  0  0  0  0  0  0
  -21.1620   -6.2810   24.9200 C   0  0  0  0  0  3  0  0  0  0  0  0
  -21.4980   -4.9140   24.9400 C   0  0  0  0  0  0  0  0  0  0  0  0
  -21.9970   -4.2940   23.7820 C   0  0  0  0  0  3  0  0  0  0  0  0
  -22.1580   -5.0400   22.6010 C   0  0  0  0  0  0  0  0  0  0  0  0
  -22.6160   -4.4320   21.4800 F   0  0  0  0  0  0  0  0  0  0  0  0
  -21.3390   -4.1930   26.0750 F   0  0  0  0  0  0  0  0  0  0  0  0
  -23.0090  -13.7220   20.9350 C   0  0  0  0  0  0  0  0  0  0  0  0
  -22.2950  -13.0480   21.8320 N   0  0  0  0  0  0  0  0  0  0  0  0
  -22.5590  -14.7340   20.3990 O   0  0  0  0  0  0  0  0  0  0  0  0
  -22.6670  -12.2290   22.2910 H   0  0  0  0  0  0  0  0  0  0  0  0
  -21.3620  -13.3590   22.0630 H   0  0  0  0  0  0  0  0  0  0  0  0
  -25.6230  -15.3720   20.0410 N   0  0  0  0  0  0  0  0  0  0  0  0
  -24.8650  -16.0340   20.1660 H   0  0  0  0  0  0  0  0  0  0  0  0
  -26.4630  -15.8030   19.6760 H   0  0  0  0  0  0  0  0  0  0  0  0
  -28.5910  -24.3860   19.7910 C   0  0  0  0  0  2  0  0  0  0  0  0
  -28.4570  -25.6140   20.7320 C   0  0  0  0  0  2  0  0  0  0  0  0
  -28.4010  -26.8600   20.0240 O   0  0  0  0  0  0  0  0  0  0  0  0
  -24.5670  -31.9440   23.2290 C   0  0  0  0  0  0  0  0  0  0  0  0
  -27.2120  -27.5540   20.0860 C   0  0  0  0  0  0  0  0  0  0  0  0
  -23.3510  -30.5510   21.5880 C   0  0  0  0  0  3  0  0  0  0  0  0
  -24.7990  -29.0260   20.1410 C   0  0  0  0  0  0  0  0  0  0  0  0
  -25.8670  -30.9330   21.3560 C   0  0  0  0  0  2  0  0  0  0  0  0
  -25.9600  -29.5650   20.7080 C   0  0  0  0  0  0  0  0  0  0  0  0
  -27.1720  -28.8410   20.6680 C   0  0  0  0  0  3  0  0  0  0  0  0
  -26.0320  -27.0120   19.5310 C   0  0  0  0  0  3  0  0  0  0  0  0
  -24.8280  -27.7460   19.5550 C   0  0  0  0  0  3  0  0  0  0  0  0
  -23.5480  -29.8740   20.2050 C   0  0  0  0  0  2  0  0  0  0  0  0
  -24.6140  -31.1560   22.1170 N   0  0  0  0  0  0  0  0  0  0  0  0
  -23.4930  -32.2020   23.7900 O   0  0  0  0  0  0  0  0  0  0  0  0
  -22.7150  -29.5190   22.5510 C   0  0  0  0  0  0  0  0  0  0  0  0
  -21.3920  -29.3210   22.4320 N   0  0  0  0  0  0  0  0  0  0  0  0
  -23.4100  -28.8970   23.3570 O   0  0  0  0  0  0  0  0  0  0  0  0
  -20.8880  -29.8730   21.7530 H   0  0  0  0  0  0  0  0  0  0  0  0
  -18.0380  -28.0640   22.9220 C   0  0  0  0  0  0  0  0  0  0  0  0
  -20.5920  -28.3650   23.1990 C   0  0  0  0  0  3  0  0  0  0  0  0
  -20.7220  -26.9420   22.6150 C   0  0  0  0  0  2  0  0  0  0  0  0
  -19.6280  -26.6030   21.6000 C   0  0  0  0  0  2  0  0  0  0  0  0
  -18.2420  -26.7200   22.2440 C   0  0  0  0  0  2  0  0  0  0  0  0
  -19.1440  -28.8460   23.3540 C   0  0  0  0  0  0  0  0  0  0  0  0
  -18.9030  -30.1060   23.9440 C   0  0  0  0  0  3  0  0  0  0  0  0
  -17.5870  -30.5840   24.1080 C   0  0  0  0  0  3  0  0  0  0  0  0
  -16.4980  -29.8000   23.6930 C   0  0  0  0  0  3  0  0  0  0  0  0
  -16.7240  -28.5430   23.1050 C   0  0  0  0  0  3  0  0  0  0  0  0
  -25.8540  -32.5840   23.8350 C   0  0  0  0  0  3  0  0  0  0  0  0
  -25.5480  -33.9800   24.1700 N   0  0  0  0  0  0  0  0  0  0  0  0
  -25.8860  -35.0330   23.4120 C   0  0  0  0  0  0  0  0  0  0  0  0
  -26.5590  -34.9290   22.3840 O   0  0  0  0  0  0  0  0  0  0  0  0
  -24.9570  -34.1350   24.9730 H   0  0  0  0  0  0  0  0  0  0  0  0
  -24.1700  -36.8330   23.0420 C   0  0  0  0  0  1  0  0  0  0  0  0
  -25.4010  -36.4230   23.8680 C   0  0  0  0  0  3  0  0  0  0  0  0
  -27.5300  -37.2950   24.7280 C   0  0  0  0  0  1  0  0  0  0  0  0
  -26.4410  -37.4720   23.7700 N   0  0  0  0  0  0  0  0  0  0  0  0
  -26.0390  -38.3940   23.9180 H   0  0  0  0  0  0  0  0  0  0  0  0
  -26.3850  -31.8130   25.1070 C   0  0  1  0  0  0  0  0  0  0  0  0
  -25.3010  -31.5710   26.1850 C   0  0  0  0  0  1  0  0  0  0  0  0
  -26.9650  -30.4380   24.7040 C   0  0  0  0  0  1  0  0  0  0  0  0
  -27.5420  -32.6060   25.7580 C   0  0  0  0  0  1  0  0  0  0  0  0
  1  3  2  0
  1  5  1  0
  2  1  1  0
  4  2  1  0
  6  5  1  0
  7  6  2  0
  8  7  1  0
  8  9  1  0
 10 18  1  0
 11 16  1  0
 12 13  1  0
 12 11  1  0
 14 13  1  0
 14 23  1  0
 14 15  1  0
 16 10  1  0
 16 15  1  0
 17 10  2  0
 18 19  1  0
 18  9  1  0
 20 21  2  0
 21 40  1  0
 22 21  1  0
 22 25  1  0
 23 20  1  0
 23 24  1  0
 24 22  2  0
 25 26  1  0
 26 27  2  0
 28 31  1  0
 28 27  1  0
 29 28  2  0
 30 29  1  0
 30 25  2  0
 31 32  1  0
 32 37  2  0
 32 33  1  0
 33 34  2  0
 34 35  1  0
 35 39  1  0
 36 35  2  0
 37 36  1  0
 38 37  1  0
 40 41  1  0
 41 44  1  0
 41 43  1  0
 42 40  2  0
 45 46  1  0
 45 20  1  0
 47 45  1  0
 48  2  1  0
 48 49  1  0
 50 52  1  0
 50 49  1  0
 51 62  2  0
 52 57  1  0
 53 61  1  0
 53 63  1  0
 54 60  1  0
 54 56  1  0
 55 61  1  0
 56 55  1  0
 57 56  2  0
 58 59  1  0
 58 52  2  0
 59 54  2  0
 60 53  1  0
 61 51  1  0
 63 65  2  0
 64 63  1  0
 66 64  1  0
 67 76  2  0
 67 72  1  0
 68 64  1  0
 68 72  1  0
 69 68  1  0
 70 71  1  0
 70 69  1  0
 71 67  1  0
 72 73  2  0
 73 74  1  0
 75 74  2  0
 76 75  1  0
 77 51  1  0
 77 78  1  0
 77 87  1  0
 78 81  1  0
 79 83  1  0
 79 78  1  0
 80 79  2  0
 83 82  1  0
 85 83  1  0
 85 86  1  0
 85 84  1  0
 87 90  1  1
 87 88  1  0
 89 87  1  0
M  ISO  4  10 100  18 100  49 101  50 101
M  END
>  <TORSDO>  (82) 
F 22

>  <SCORE>  (82) 
-12.468

>  <name>  (82) 
82

>  <ligand_id>  (82) 
82

>  <original_smiles>  (82) 
[H]C(=C([H])C([H])([H])C([H])([H])N([H])C(=O)N1C([H])([H])C([H])([H])C([H])([H])C([H])(n2nc(-c3c([H])c([H])c(Oc4c([H])c([H])c(F)c([H])c4F)c([H])c3[H])c(C(=O)N([H])[H])c2N([H])[H])C1([H])[H])C([H])([H])C(=O)N([H])C([H])([H])C([H])([H])Oc1c([H])c([H])c2c(c1[H])C([H])([H])N(C(=O)C([H])(N([H])C(=O)C([H])(N([H])C([H])([H])[H])C([H])([H])[H])C(C([H])([H])[H])(C([H])([H])[H])C([H])([H])[H])C([H])(C(=O)N([H])C1([H])c3c([H])c([H])c([H])c([H])c3C([H])([H])C([H])([H])C1([H])[H])C2([H])[H]

>  <smiles>  (82) 
[H]C(=C([H])C([H])([H])C([H])([H])N([H])C(=O)N1C([H])([H])C([H])([H])C([H])([H])C([H])(n2nc(-c3c([H])c([H])c(Oc4c([H])c([H])c(F)c([H])c4F)c([H])c3[H])c(C(=O)N([H])[H])c2N([H])[H])C1([H])[H])C([H])([H])C(=O)N([H])C([H])([H])C([H])([H])Oc1c([H])c([H])c2c(c1[H])C([H])([H])N(C(=O)C([H])(N([H])C(=O)C([H])(N([H])C([H])([H])[H])C([H])([H])[H])C(C([H])([H])[H])(C([H])([H])[H])C([H])([H])[H])C([H])(C(=O)N([H])C1([H])c3c([H])c([H])c([H])c([H])c3C([H])([H])C([H])([H])C1([H])[H])C2([H])[H]

$$$$
83:0:0
     RDKit          3D

 91 99  0  0  1  0  0  0  0  0999 V2000
  -29.5030  -21.8750   19.3480 N   0  0  0  0  0  4  0  0  0  0  0  0
  -30.4900  -22.0650   19.2620 H   0  0  0  0  0  0  0  0  0  0  0  0
  -29.1370  -21.9570   18.4140 H   0  0  0  0  0  0  0  0  0  0  0  0
  -27.9240  -19.9470   19.4740 C   0  0  0  0  0  2  0  0  0  0  0  0
  -29.7520  -18.9360   18.8680 C   0  0  0  0  0  3  0  0  0  0  0  0
  -29.3790  -20.3360   19.7700 C   0  0  0  0  0  3  0  0  0  0  0  0
  -28.2790  -18.4880   19.1490 C   0  0  1  0  0  0  0  0  0  0  0  0
  -27.9990  -17.5500   20.3360 C   0  0  0  0  0  1  0  0  0  0  0  0
  -27.5230  -17.9100   17.9570 C   0  0  0  0  0  1  0  0  0  0  0  0
  -30.7990  -17.6300   19.1150 C   0  0  0  0  0  0  0  0  0  0  0  0
  -32.2420  -18.1030   19.2340 C   0  0  0  0  0  1  0  0  0  0  0  0
  -30.4660  -16.3070   19.1670 N   0  0  0  0  0  0  0  0  0  0  0  0
  -31.3520  -15.1130   19.1630 C   0  0  0  0  0  0  0  0  0  0  0  0
  -31.2790  -12.6130   18.6930 C   0  0  0  0  0  2  0  0  0  0  0  0
  -30.2840  -12.3120   17.5460 C   0  0  0  0  0  2  0  0  0  0  0  0
  -28.8590  -12.1270   18.0980 C   0  0  0  0  0  2  0  0  0  0  0  0
  -28.4740  -13.2330   19.1160 C   0  0  0  0  0  3  0  0  0  0  0  0
  -29.5890  -13.5130   20.1420 C   0  0  0  0  0  2  0  0  0  0  0  0
  -30.8190  -13.8420   19.4070 N   0  0  0  0  0  0  0  0  0  0  0  0
  -32.5320  -15.1220   18.8050 O   0  0  0  0  0  0  0  0  0  0  0  0
  -26.2360  -13.8830   20.1660 C   0  0  0  0  0  0  0  0  0  0  0  0
  -25.1810  -13.1530   20.6320 C   0  0  0  0  0  0  0  0  0  0  0  0
  -25.5480  -11.7840   20.4550 C   0  0  0  0  0  0  0  0  0  0  0  0
  -27.1910  -12.9680   19.7570 N   0  0  0  0  0  0  0  0  0  0  0  0
  -26.7900  -11.6920   19.9890 N   0  0  0  0  0  0  0  0  0  0  0  0
  -24.7640  -10.5630   20.6500 C   0  0  0  0  0  0  0  0  0  0  0  0
  -25.1610   -9.5650   21.5650 C   0  0  0  0  0  3  0  0  0  0  0  0
  -24.3750   -8.4060   21.7460 C   0  0  0  0  0  3  0  0  0  0  0  0
  -23.1790   -8.2380   21.0070 C   0  0  0  0  0  0  0  0  0  0  0  0
  -22.8020   -9.2240   20.0780 C   0  0  0  0  0  3  0  0  0  0  0  0
  -23.5880  -10.3730   19.8960 C   0  0  0  0  0  3  0  0  0  0  0  0
  -22.3660   -7.1340   21.0970 O   0  0  0  0  0  0  0  0  0  0  0  0
  -22.1820   -6.4720   22.2850 C   0  0  0  0  0  0  0  0  0  0  0  0
  -21.6580   -7.1210   23.4240 C   0  0  0  0  0  3  0  0  0  0  0  0
  -21.4160   -6.3870   24.6030 C   0  0  0  0  0  3  0  0  0  0  0  0
  -21.6900   -5.0070   24.6420 C   0  0  0  0  0  0  0  0  0  0  0  0
  -22.2060   -4.3590   23.5060 C   0  0  0  0  0  3  0  0  0  0  0  0
  -22.4490   -5.0890   22.3300 C   0  0  0  0  0  0  0  0  0  0  0  0
  -22.9250   -4.4560   21.2320 F   0  0  0  0  0  0  0  0  0  0  0  0
  -21.4510   -4.3000   25.7720 F   0  0  0  0  0  0  0  0  0  0  0  0
  -23.8680  -13.6990   21.1140 C   0  0  0  0  0  0  0  0  0  0  0  0
  -23.2120  -12.9960   22.0270 N   0  0  0  0  0  0  0  0  0  0  0  0
  -23.4400  -14.7800   20.7130 O   0  0  0  0  0  0  0  0  0  0  0  0
  -23.5770  -12.1180   22.3690 H   0  0  0  0  0  0  0  0  0  0  0  0
  -22.3340  -13.3350   22.3920 H   0  0  0  0  0  0  0  0  0  0  0  0
  -26.4470  -15.2440   20.0290 N   0  0  0  0  0  0  0  0  0  0  0  0
  -25.7520  -15.9360   20.2860 H   0  0  0  0  0  0  0  0  0  0  0  0
  -27.2960  -15.6510   19.6590 H   0  0  0  0  0  0  0  0  0  0  0  0
  -28.8970  -23.0830   20.2170 C   0  0  0  0  0  2  0  0  0  0  0  0
  -28.5350  -24.6320   19.6190 C   0  0  0  0  0  2  0  0  0  0  0  0
  -28.3630  -25.9880   20.4040 O   0  0  0  0  0  0  0  0  0  0  0  0
  -24.6590  -31.6520   23.3140 C   0  0  0  0  0  0  0  0  0  0  0  0
  -27.3080  -26.9740   20.2710 C   0  0  0  0  0  0  0  0  0  0  0  0
  -23.5080  -30.3080   21.5980 C   0  0  0  0  0  3  0  0  0  0  0  0
  -24.9940  -28.7530   20.1890 C   0  0  0  0  0  0  0  0  0  0  0  0
  -26.0650  -30.5520   21.5340 C   0  0  0  0  0  2  0  0  0  0  0  0
  -26.1510  -29.1710   20.8550 C   0  0  0  0  0  0  0  0  0  0  0  0
  -27.3030  -28.2980   20.8820 C   0  0  0  0  0  3  0  0  0  0  0  0
  -26.1270  -26.6690   19.5550 C   0  0  0  0  0  3  0  0  0  0  0  0
  -24.9960  -27.5180   19.5210 C   0  0  0  0  0  3  0  0  0  0  0  0
  -23.7750  -29.6620   20.2120 C   0  0  0  0  0  2  0  0  0  0  0  0
  -24.7620  -30.8580   22.2040 N   0  0  0  0  0  0  0  0  0  0  0  0
  -23.5570  -31.9310   23.8100 O   0  0  0  0  0  0  0  0  0  0  0  0
  -22.7840  -29.2880   22.5120 C   0  0  0  0  0  0  0  0  0  0  0  0
  -21.4620  -29.1300   22.3300 N   0  0  0  0  0  0  0  0  0  0  0  0
  -23.4180  -28.6420   23.3510 O   0  0  0  0  0  0  0  0  0  0  0  0
  -21.0090  -29.6880   21.6190 H   0  0  0  0  0  0  0  0  0  0  0  0
  -18.0520  -27.9770   22.7140 C   0  0  0  0  0  0  0  0  0  0  0  0
  -20.6040  -28.1880   23.0530 C   0  0  0  0  0  3  0  0  0  0  0  0
  -20.6970  -26.7740   22.4360 C   0  0  0  0  0  2  0  0  0  0  0  0
  -19.6170  -26.4930   21.3900 C   0  0  0  0  0  2  0  0  0  0  0  0
  -18.2230  -26.6450   22.0020 C   0  0  0  0  0  2  0  0  0  0  0  0
  -19.1700  -28.7050   23.1950 C   0  0  0  0  0  0  0  0  0  0  0  0
  -18.9530  -29.9480   23.8250 C   0  0  0  0  0  3  0  0  0  0  0  0
  -17.6530  -30.4610   23.9820 C   0  0  0  0  0  3  0  0  0  0  0  0
  -16.5470  -29.7260   23.5130 C   0  0  0  0  0  3  0  0  0  0  0  0
  -16.7480  -28.4870   22.8870 C   0  0  0  0  0  3  0  0  0  0  0  0
  -25.9150  -32.2630   24.0030 C   0  0  0  0  0  3  0  0  0  0  0  0
  -26.3110  -31.5210   25.3400 C   0  0  1  0  0  0  0  0  0  0  0  0
  -25.1340  -31.3490   26.3300 C   0  0  0  0  0  1  0  0  0  0  0  0
  -26.8820  -30.1150   25.0430 C   0  0  0  0  0  1  0  0  0  0  0  0
  -27.4300  -32.3070   26.0650 C   0  0  0  0  0  1  0  0  0  0  0  0
  -25.6410  -33.6840   24.2670 N   0  0  0  0  0  0  0  0  0  0  0  0
  -26.0580  -34.6990   23.4990 C   0  0  0  0  0  0  0  0  0  0  0  0
  -26.7830  -34.5350   22.5140 O   0  0  0  0  0  0  0  0  0  0  0  0
  -25.0070  -33.8880   25.0250 H   0  0  0  0  0  0  0  0  0  0  0  0
  -24.4420  -36.5570   22.9810 C   0  0  0  0  0  1  0  0  0  0  0  0
  -25.6040  -36.1190   23.8870 C   0  0  0  0  0  3  0  0  0  0  0  0
  -27.7090  -36.9430   24.8480 C   0  0  0  0  0  1  0  0  0  0  0  0
  -26.6870  -37.1250   23.8210 N   0  0  0  0  0  0  0  0  0  0  0  0
  -26.3120  -38.0650   23.9090 H   0  0  0  0  0  0  0  0  0  0  0  0
  1 49  1  0
  2  1  1  0
  3  1  1  0
  4  6  1  0
  5 10  1  0
  5  7  1  0
  5  6  1  0
  6  1  1  0
  7  4  1  0
  7  8  1  1
  9  7  1  0
 10 12  2  0
 10 11  1  0
 13 12  1  0
 13 19  1  0
 14 19  1  0
 15 16  1  0
 15 14  1  0
 17 16  1  0
 17 24  1  0
 17 18  1  0
 19 18  1  0
 20 13  2  0
 21 22  2  0
 22 41  1  0
 23 22  1  0
 23 26  1  0
 24 25  1  0
 24 21  1  0
 25 23  2  0
 26 27  1  0
 27 28  2  0
 29 32  1  0
 29 28  1  0
 30 29  2  0
 31 30  1  0
 31 26  2  0
 32 33  1  0
 33 38  2  0
 33 34  1  0
 34 35  2  0
 35 36  1  0
 36 40  1  0
 37 36  2  0
 38 37  1  0
 39 38  1  0
 41 42  1  0
 42 44  1  0
 42 45  1  0
 43 41  2  0
 46 21  1  0
 46 47  1  0
 48 46  1  0
 50 49  1  0
 50 51  1  0
 52 63  2  0
 53 51  1  0
 53 58  1  0
 54 62  1  0
 54 64  1  0
 55 61  1  0
 55 57  1  0
 56 62  1  0
 57 58  2  0
 57 56  1  0
 59 53  2  0
 60 59  1  0
 60 55  2  0
 61 54  1  0
 62 52  1  0
 64 66  2  0
 65 64  1  0
 67 65  1  0
 68 77  2  0
 68 73  1  0
 69 65  1  0
 69 73  1  0
 70 69  1  0
 71 72  1  0
 71 70  1  0
 72 68  1  0
 73 74  2  0
 74 75  1  0
 76 75  2  0
 77 76  1  0
 78 52  1  0
 78 83  1  0
 78 79  1  0
 79 82  1  1
 79 80  1  0
 81 79  1  0
 83 86  1  0
 84 88  1  0
 84 83  1  0
 85 84  2  0
 88 87  1  0
 90 88  1  0
 90 91  1  0
 90 89  1  0
M  ISO  4  12 100  13 100  50 101  51 101
M  END
>  <TORSDO>  (83) 
F 20

>  <SCORE>  (83) 
-12.568

>  <name>  (83) 
83

>  <ligand_id>  (83) 
83

>  <original_smiles>  (83) 
[H]c1c([H])c([H])c2c(c1[H])C([H])([H])C([H])([H])C([H])([H])C2([H])N([H])C(=O)C1([H])N(C(=O)C([H])(N([H])C(=O)C([H])(N([H])C([H])([H])[H])C([H])([H])[H])C(C([H])([H])[H])(C([H])([H])[H])C([H])([H])[H])C([H])([H])c2c([H])c(OC([H])([H])C([H])([H])[N+]([H])([H])C3([H])C([H])([H])C(C([H])([H])[H])(C([H])([H])[H])C3([H])C(=NC(=O)N3C([H])([H])C([H])([H])C([H])([H])C([H])(n4nc(-c5c([H])c([H])c(Oc6c([H])c([H])c(F)c([H])c6F)c([H])c5[H])c(C(=O)N([H])[H])c4N([H])[H])C3([H])[H])C([H])([H])[H])c([H])c([H])c2C1([H])[H]

>  <smiles>  (83) 
[H]c1c([H])c([H])c2c(c1[H])C([H])([H])C([H])([H])C([H])([H])C2([H])N([H])C(=O)C1([H])N(C(=O)C([H])(N([H])C(=O)C([H])(N([H])C([H])([H])[H])C([H])([H])[H])C(C([H])([H])[H])(C([H])([H])[H])C([H])([H])[H])C([H])([H])c2c([H])c(OC([H])([H])C([H])([H])[N+]([H])([H])C3([H])C([H])([H])C(C([H])([H])[H])(C([H])([H])[H])C3([H])C(=NC(=O)N3C([H])([H])C([H])([H])C([H])([H])C([H])(n4nc(-c5c([H])c([H])c(Oc6c([H])c([H])c(F)c([H])c6F)c([H])c5[H])c(C(=O)N([H])[H])c4N([H])[H])C3([H])[H])C([H])([H])[H])c([H])c([H])c2C1([H])[H]

$$$$
84:0:0
     RDKit          3D

 87 96  0  0  1  0  0  0  0  0999 V2000
  -29.3120  -19.5540   21.4150 C   0  0  0  0  0  2  0  0  0  0  0  0
  -29.0540  -19.4230   19.2350 C   0  0  0  0  0  2  0  0  0  0  0  0
  -28.5930  -20.9570   20.8440 C   0  0  0  0  0  3  0  0  0  0  0  0
  -29.1680  -21.0870   19.4580 C   0  0  0  0  0  3  0  0  0  0  0  0
  -29.7660  -18.4020   20.3150 C   0  0  0  0  0  3  0  0  0  0  0  0
  -28.9590  -22.4890   20.4150 C   0  0  2  0  0  0  0  0  0  0  0  0
  -30.1900  -23.0240   21.1190 C   0  0  0  0  0  1  0  0  0  0  0  0
  -30.3870  -15.3960   20.3530 C   0  0  0  0  0  0  0  0  0  0  0  0
  -30.4350  -12.9030   19.5330 C   0  0  0  0  0  2  0  0  0  0  0  0
  -29.5410  -12.6030   18.3020 C   0  0  0  0  0  2  0  0  0  0  0  0
  -28.0970  -12.2990   18.7330 C   0  0  0  0  0  2  0  0  0  0  0  0
  -27.6050  -13.2870   19.8190 C   0  0  0  0  0  3  0  0  0  0  0  0
  -28.6330  -13.5160   20.9490 C   0  0  0  0  0  2  0  0  0  0  0  0
  -29.8460  -14.0640   20.3130 N   0  0  0  0  0  0  0  0  0  0  0  0
  -31.6130  -15.3810   20.1550 O   0  0  0  0  0  0  0  0  0  0  0  0
  -29.6080  -16.6920   20.4230 N   0  0  0  0  0  0  0  0  0  0  0  0
  -28.6360  -16.4540   20.5550 H   0  0  0  0  0  0  0  0  0  0  0  0
  -25.2360  -13.8260   20.5760 C   0  0  0  0  0  0  0  0  0  0  0  0
  -24.1730  -13.0430   20.9270 C   0  0  0  0  0  0  0  0  0  0  0  0
  -24.6400  -11.6940   20.8770 C   0  0  0  0  0  0  0  0  0  0  0  0
  -26.2790  -12.9560   20.3220 N   0  0  0  0  0  0  0  0  0  0  0  0
  -25.9340  -11.6650   20.5720 N   0  0  0  0  0  0  0  0  0  0  0  0
  -23.9100  -10.4290   21.0410 C   0  0  0  0  0  0  0  0  0  0  0  0
  -24.3640   -9.4210   21.9190 C   0  0  0  0  0  3  0  0  0  0  0  0
  -23.6310   -8.2240   22.0760 C   0  0  0  0  0  3  0  0  0  0  0  0
  -22.4290   -8.0280   21.3550 C   0  0  0  0  0  0  0  0  0  0  0  0
  -21.9930   -9.0260   20.4650 C   0  0  0  0  0  3  0  0  0  0  0  0
  -22.7270  -10.2130   20.3050 C   0  0  0  0  0  3  0  0  0  0  0  0
  -21.6650   -6.8890   21.4240 O   0  0  0  0  0  0  0  0  0  0  0  0
  -21.6860   -6.0740   22.5280 C   0  0  0  0  0  0  0  0  0  0  0  0
  -21.4020   -6.5640   23.8210 C   0  0  0  0  0  3  0  0  0  0  0  0
  -21.3660   -5.6790   24.9170 C   0  0  0  0  0  3  0  0  0  0  0  0
  -21.6040   -4.3060   24.7220 C   0  0  0  0  0  0  0  0  0  0  0  0
  -21.8820   -3.8150   23.4340 C   0  0  0  0  0  3  0  0  0  0  0  0
  -21.9190   -4.6970   22.3400 C   0  0  0  0  0  0  0  0  0  0  0  0
  -22.1660   -4.2150   21.0980 F   0  0  0  0  0  0  0  0  0  0  0  0
  -21.5630   -3.4540   25.7730 F   0  0  0  0  0  0  0  0  0  0  0  0
  -22.7740  -13.5180   21.1910 C   0  0  0  0  0  0  0  0  0  0  0  0
  -22.0410  -12.8160   22.0470 N   0  0  0  0  0  0  0  0  0  0  0  0
  -22.3420  -14.5480   20.6750 O   0  0  0  0  0  0  0  0  0  0  0  0
  -22.4040  -11.9820   22.4850 H   0  0  0  0  0  0  0  0  0  0  0  0
  -21.1020  -13.1160   22.2680 H   0  0  0  0  0  0  0  0  0  0  0  0
  -25.3970  -15.2000   20.4190 N   0  0  0  0  0  0  0  0  0  0  0  0
  -24.6240  -15.8470   20.5320 H   0  0  0  0  0  0  0  0  0  0  0  0
  -26.2320  -15.6420   20.0610 H   0  0  0  0  0  0  0  0  0  0  0  0
  -27.9990  -24.0280   20.1290 C   0  0  0  0  0  2  0  0  0  0  0  0
  -28.2150  -25.7020   20.2800 O   0  0  0  0  0  0  0  0  0  0  0  0
  -24.6700  -31.8140   23.1630 C   0  0  0  0  0  0  0  0  0  0  0  0
  -27.2230  -26.8440   20.1980 C   0  0  0  0  0  0  0  0  0  0  0  0
  -23.4900  -30.4220   21.5130 C   0  0  0  0  0  3  0  0  0  0  0  0
  -24.9450  -28.7900   20.1140 C   0  0  0  0  0  0  0  0  0  0  0  0
  -26.0630  -30.5940   21.4050 C   0  0  0  0  0  2  0  0  0  0  0  0
  -26.1310  -29.1740   20.7530 C   0  0  0  0  0  0  0  0  0  0  0  0
  -27.2600  -28.2240   20.7660 C   0  0  0  0  0  3  0  0  0  0  0  0
  -26.0070  -26.6320   19.5080 C   0  0  0  0  0  3  0  0  0  0  0  0
  -24.9140  -27.5420   19.4700 C   0  0  0  0  0  3  0  0  0  0  0  0
  -23.7350  -29.7290   20.1430 C   0  0  0  0  0  2  0  0  0  0  0  0
  -24.7630  -30.9730   22.0800 N   0  0  0  0  0  0  0  0  0  0  0  0
  -23.5750  -32.1150   23.6670 O   0  0  0  0  0  0  0  0  0  0  0  0
  -22.7700  -29.4390   22.4750 C   0  0  0  0  0  0  0  0  0  0  0  0
  -21.4360  -29.3040   22.3510 N   0  0  0  0  0  0  0  0  0  0  0  0
  -23.4210  -28.7970   23.3030 O   0  0  0  0  0  0  0  0  0  0  0  0
  -20.9630  -29.8720   21.6620 H   0  0  0  0  0  0  0  0  0  0  0  0
  -18.0330  -28.1420   22.8460 C   0  0  0  0  0  0  0  0  0  0  0  0
  -20.5960  -28.3770   23.1170 C   0  0  0  0  0  3  0  0  0  0  0  0
  -20.6800  -26.9440   22.5400 C   0  0  0  0  0  2  0  0  0  0  0  0
  -19.5780  -26.6380   21.5210 C   0  0  0  0  0  2  0  0  0  0  0  0
  -18.1960  -26.7950   22.1620 C   0  0  0  0  0  2  0  0  0  0  0  0
  -19.1590  -28.8910   23.2800 C   0  0  0  0  0  0  0  0  0  0  0  0
  -18.9500  -30.1500   23.8840 C   0  0  0  0  0  3  0  0  0  0  0  0
  -17.6490  -30.6600   24.0550 C   0  0  0  0  0  3  0  0  0  0  0  0
  -16.5380  -29.9090   23.6350 C   0  0  0  0  0  3  0  0  0  0  0  0
  -16.7310  -28.6510   23.0360 C   0  0  0  0  0  3  0  0  0  0  0  0
  -25.9350  -32.4540   23.8120 C   0  0  0  0  0  3  0  0  0  0  0  0
  -25.5980  -33.8360   24.2020 N   0  0  0  0  0  0  0  0  0  0  0  0
  -25.9110  -34.9320   23.4980 C   0  0  0  0  0  0  0  0  0  0  0  0
  -26.5730  -34.8880   22.4590 O   0  0  0  0  0  0  0  0  0  0  0  0
  -25.0060  -33.9430   25.0130 H   0  0  0  0  0  0  0  0  0  0  0  0
  -24.1490  -36.7190   23.2650 C   0  0  0  0  0  1  0  0  0  0  0  0
  -25.4140  -36.2940   24.0290 C   0  0  0  0  0  3  0  0  0  0  0  0
  -27.5560  -37.1750   24.8460 C   0  0  0  0  0  1  0  0  0  0  0  0
  -26.4270  -37.3680   23.9400 N   0  0  0  0  0  0  0  0  0  0  0  0
  -26.0110  -38.2730   24.1420 H   0  0  0  0  0  0  0  0  0  0  0  0
  -26.4570  -31.6520   25.0690 C   0  0  1  0  0  0  0  0  0  0  0  0
  -25.3680  -31.3800   26.1330 C   0  0  0  0  0  1  0  0  0  0  0  0
  -27.0490  -30.2880   24.6490 C   0  0  0  0  0  1  0  0  0  0  0  0
  -27.6040  -32.4360   25.7500 C   0  0  0  0  0  1  0  0  0  0  0  0
  2  5  1  0
  3  1  1  0
  4  2  1  0
  4  6  1  0
  4  3  1  0
  5 16  1  0
  5  1  1  0
  6  3  1  0
  6  7  1  1
  8 16  1  0
  9 14  1  0
 10 11  1  0
 10  9  1  0
 12 11  1  0
 12 21  1  0
 12 13  1  0
 14  8  1  0
 14 13  1  0
 15  8  2  0
 16 17  1  0
 18 19  2  0
 19 38  1  0
 20 19  1  0
 20 23  1  0
 21 22  1  0
 21 18  1  0
 22 20  2  0
 23 24  1  0
 24 25  2  0
 26 29  1  0
 26 25  1  0
 27 26  2  0
 28 27  1  0
 28 23  2  0
 29 30  1  0
 30 31  1  0
 31 32  2  0
 33 32  1  0
 33 37  1  0
 34 33  2  0
 35 30  2  0
 35 34  1  0
 36 35  1  0
 38 39  1  0
 39 42  1  0
 39 41  1  0
 40 38  2  0
 43 44  1  0
 43 18  1  0
 45 43  1  0
 46 47  1  0
 46  6  1  0
 48 59  2  0
 49 47  1  0
 49 54  1  0
 50 58  1  0
 50 60  1  0
 51 57  1  0
 51 53  1  0
 52 58  1  0
 53 54  2  0
 53 52  1  0
 55 49  2  0
 56 55  1  0
 56 51  2  0
 57 50  1  0
 58 48  1  0
 60 62  2  0
 61 60  1  0
 63 61  1  0
 64 73  2  0
 64 69  1  0
 65 61  1  0
 65 69  1  0
 66 65  1  0
 67 68  1  0
 67 66  1  0
 68 64  1  0
 69 70  2  0
 70 71  1  0
 72 71  2  0
 73 72  1  0
 74 48  1  0
 74 75  1  0
 74 84  1  0
 75 78  1  0
 76 80  1  0
 76 75  1  0
 77 76  2  0
 80 79  1  0
 82 80  1  0
 82 83  1  0
 82 81  1  0
 84 87  1  1
 84 85  1  0
 86 84  1  0
M  ISO  4   8 100  16 100  46 101  47 101
M  END
>  <TORSDO>  (84) 
F 17

>  <SCORE>  (84) 
-15.936

>  <name>  (84) 
84

>  <ligand_id>  (84) 
84

>  <original_smiles>  (84) 
[H]c1c([H])c([H])c2c(c1[H])C([H])([H])C([H])([H])C([H])([H])C2([H])N([H])C(=O)C1([H])N(C(=O)C([H])(N([H])C(=O)C([H])(N([H])C([H])([H])[H])C([H])([H])[H])C(C([H])([H])[H])(C([H])([H])[H])C([H])([H])[H])C([H])([H])c2c([H])c(OC([H])([H])C3(C([H])([H])[H])C4([H])C([H])([H])C([H])(N([H])C(=O)N5C([H])([H])C([H])([H])C([H])([H])C([H])(n6nc(-c7c([H])c([H])c(Oc8c([H])c([H])c(F)c([H])c8F)c([H])c7[H])c(C(=O)N([H])[H])c6N([H])[H])C5([H])[H])C([H])([H])C43[H])c([H])c([H])c2C1([H])[H]

>  <smiles>  (84) 
[H]c1c([H])c([H])c2c(c1[H])C([H])([H])C([H])([H])C([H])([H])C2([H])N([H])C(=O)C1([H])N(C(=O)C([H])(N([H])C(=O)C([H])(N([H])C([H])([H])[H])C([H])([H])[H])C(C([H])([H])[H])(C([H])([H])[H])C([H])([H])[H])C([H])([H])c2c([H])c(OC([H])([H])C3(C([H])([H])[H])C4([H])C([H])([H])C([H])(N([H])C(=O)N5C([H])([H])C([H])([H])C([H])([H])C([H])(n6nc(-c7c([H])c([H])c(Oc8c([H])c([H])c(F)c([H])c8F)c([H])c7[H])c(C(=O)N([H])[H])c6N([H])[H])C5([H])[H])C([H])([H])C43[H])c([H])c([H])c2C1([H])[H]

$$$$
85:0:0
     RDKit          3D

 92 99  0  0  1  0  0  0  0  0999 V2000
  -29.3830  -21.8790   20.6400 C   0  0  0  0  0  3  0  0  0  0  0  0
  -29.4490  -19.0880   20.5080 C   0  0  0  0  0  0  0  0  0  0  0  0
  -29.4590  -20.4210   19.9850 N   0  0  0  0  0  0  0  0  0  0  0  0
  -29.0510  -18.9190   21.6620 O   0  0  0  0  0  0  0  0  0  0  0  0
  -29.7390  -20.4470   19.0120 H   0  0  0  0  0  0  0  0  0  0  0  0
  -29.5430  -17.7540   18.2460 C   0  0  0  0  0  1  0  0  0  0  0  0
  -29.9600  -17.7060   19.7290 C   0  0  0  0  0  3  0  0  0  0  0  0
  -30.5490  -15.0120   20.0280 C   0  0  0  0  0  0  0  0  0  0  0  0
  -30.3600  -12.6750   19.0710 C   0  0  0  0  0  2  0  0  0  0  0  0
  -29.3820  -12.7050   17.8730 C   0  0  0  0  0  2  0  0  0  0  0  0
  -27.9330  -12.4770   18.3450 C   0  0  0  0  0  2  0  0  0  0  0  0
  -27.5840  -13.3590   19.5720 C   0  0  0  0  0  3  0  0  0  0  0  0
  -28.6870  -13.3490   20.6550 C   0  0  0  0  0  2  0  0  0  0  0  0
  -29.9430  -13.7520   20.0130 N   0  0  0  0  0  0  0  0  0  0  0  0
  -31.7230  -15.0680   19.6600 O   0  0  0  0  0  0  0  0  0  0  0  0
  -29.7860  -16.2010   20.2200 N   0  0  0  0  0  0  0  0  0  0  0  0
  -28.8600  -16.0150   20.5730 H   0  0  0  0  0  0  0  0  0  0  0  0
  -25.2350  -13.9230   20.4120 C   0  0  0  0  0  0  0  0  0  0  0  0
  -24.1870  -13.1430   20.8190 C   0  0  0  0  0  0  0  0  0  0  0  0
  -24.6530  -11.7930   20.7570 C   0  0  0  0  0  0  0  0  0  0  0  0
  -26.2700  -13.0490   20.1250 N   0  0  0  0  0  0  0  0  0  0  0  0
  -25.9330  -11.7620   20.3980 N   0  0  0  0  0  0  0  0  0  0  0  0
  -23.9380  -10.5260   20.9640 C   0  0  0  0  0  0  0  0  0  0  0  0
  -24.3950   -9.5610   21.8900 C   0  0  0  0  0  3  0  0  0  0  0  0
  -23.6760   -8.3630   22.0870 C   0  0  0  0  0  3  0  0  0  0  0  0
  -22.4870   -8.1200   21.3580 C   0  0  0  0  0  0  0  0  0  0  0  0
  -22.0510   -9.0720   20.4220 C   0  0  0  0  0  3  0  0  0  0  0  0
  -22.7700  -10.2630   20.2220 C   0  0  0  0  0  3  0  0  0  0  0  0
  -21.7370   -6.9730   21.4630 O   0  0  0  0  0  0  0  0  0  0  0  0
  -21.7010   -6.2400   22.6230 C   0  0  0  0  0  0  0  0  0  0  0  0
  -21.2810   -6.8030   23.8480 C   0  0  0  0  0  3  0  0  0  0  0  0
  -21.1930   -5.9960   25.0000 C   0  0  0  0  0  3  0  0  0  0  0  0
  -21.5160   -4.6290   24.9270 C   0  0  0  0  0  0  0  0  0  0  0  0
  -21.9270   -4.0640   23.7070 C   0  0  0  0  0  3  0  0  0  0  0  0
  -22.0170   -4.8680   22.5570 C   0  0  0  0  0  0  0  0  0  0  0  0
  -22.3940   -4.3160   21.3790 F   0  0  0  0  0  0  0  0  0  0  0  0
  -21.4240   -3.8510   26.0310 F   0  0  0  0  0  0  0  0  0  0  0  0
  -22.8010  -13.6160   21.1440 C   0  0  0  0  0  0  0  0  0  0  0  0
  -22.1100  -12.9070   22.0310 N   0  0  0  0  0  0  0  0  0  0  0  0
  -22.3400  -14.6430   20.6480 O   0  0  0  0  0  0  0  0  0  0  0  0
  -22.5000  -12.0810   22.4550 H   0  0  0  0  0  0  0  0  0  0  0  0
  -21.1780  -13.1970   22.2900 H   0  0  0  0  0  0  0  0  0  0  0  0
  -25.3850  -15.2960   20.2410 N   0  0  0  0  0  0  0  0  0  0  0  0
  -24.6000  -15.9320   20.3410 H   0  0  0  0  0  0  0  0  0  0  0  0
  -26.2190  -15.7540   19.8950 H   0  0  0  0  0  0  0  0  0  0  0  0
  -31.8880  -22.0290   20.0290 C   0  0  0  0  0  1  0  0  0  0  0  0
  -30.8310  -22.2100   21.1520 C   0  0  0  0  0  3  0  0  0  0  0  0
  -30.5070  -21.8750   23.7120 C   0  0  0  0  0  1  0  0  0  0  0  0
  -31.2750  -21.4690   22.4400 C   0  0  0  0  0  2  0  0  0  0  0  0
  -28.8330  -23.3140   19.8770 C   0  0  0  0  0  2  0  0  0  0  0  0
  -28.3860  -24.7680   20.6530 C   0  0  0  0  0  2  0  0  0  0  0  0
  -28.4160  -26.2610   20.1830 O   0  0  0  0  0  0  0  0  0  0  0  0
  -24.6020  -31.8840   23.1960 C   0  0  0  0  0  0  0  0  0  0  0  0
  -27.3000  -27.1790   20.2250 C   0  0  0  0  0  0  0  0  0  0  0  0
  -23.4430  -30.4610   21.5510 C   0  0  0  0  0  3  0  0  0  0  0  0
  -24.9260  -28.8730   20.1760 C   0  0  0  0  0  0  0  0  0  0  0  0
  -25.9970  -30.7540   21.4120 C   0  0  0  0  0  2  0  0  0  0  0  0
  -26.0990  -29.3540   20.7770 C   0  0  0  0  0  0  0  0  0  0  0  0
  -27.2840  -28.5260   20.7750 C   0  0  0  0  0  3  0  0  0  0  0  0
  -26.0900  -26.7830   19.6150 C   0  0  0  0  0  3  0  0  0  0  0  0
  -24.9300  -27.5960   19.5930 C   0  0  0  0  0  3  0  0  0  0  0  0
  -23.6920  -29.7630   20.1880 C   0  0  0  0  0  2  0  0  0  0  0  0
  -24.7020  -31.0530   22.1100 N   0  0  0  0  0  0  0  0  0  0  0  0
  -23.5040  -32.1630   23.7000 O   0  0  0  0  0  0  0  0  0  0  0  0
  -22.7550  -29.4610   22.5110 C   0  0  0  0  0  0  0  0  0  0  0  0
  -21.4250  -29.2970   22.3760 N   0  0  0  0  0  0  0  0  0  0  0  0
  -23.4190  -28.8300   23.3370 O   0  0  0  0  0  0  0  0  0  0  0  0
  -20.9490  -29.8610   21.6850 H   0  0  0  0  0  0  0  0  0  0  0  0
  -18.0340  -28.1170   22.8480 C   0  0  0  0  0  0  0  0  0  0  0  0
  -20.5930  -28.3560   23.1300 C   0  0  0  0  0  3  0  0  0  0  0  0
  -20.6850  -26.9290   22.5410 C   0  0  0  0  0  2  0  0  0  0  0  0
  -19.5860  -26.6200   21.5220 C   0  0  0  0  0  2  0  0  0  0  0  0
  -18.2020  -26.7730   22.1600 C   0  0  0  0  0  2  0  0  0  0  0  0
  -19.1550  -28.8680   23.2870 C   0  0  0  0  0  0  0  0  0  0  0  0
  -18.9460  -30.1280   23.8910 C   0  0  0  0  0  3  0  0  0  0  0  0
  -17.6440  -30.6360   24.0620 C   0  0  0  0  0  3  0  0  0  0  0  0
  -16.5350  -29.8820   23.6420 C   0  0  0  0  0  3  0  0  0  0  0  0
  -16.7280  -28.6270   23.0390 C   0  0  0  0  0  3  0  0  0  0  0  0
  -25.8620  -32.5360   23.8440 C   0  0  0  0  0  3  0  0  0  0  0  0
  -25.5350  -33.9340   24.1640 N   0  0  0  0  0  0  0  0  0  0  0  0
  -25.8740  -34.9910   23.4160 C   0  0  0  0  0  0  0  0  0  0  0  0
  -26.5580  -34.8940   22.3940 O   0  0  0  0  0  0  0  0  0  0  0  0
  -24.9370  -34.0870   24.9630 H   0  0  0  0  0  0  0  0  0  0  0  0
  -24.1290  -36.7650   23.0540 C   0  0  0  0  0  1  0  0  0  0  0  0
  -25.3700  -36.3740   23.8720 C   0  0  0  0  0  3  0  0  0  0  0  0
  -27.4930  -37.2700   24.7180 C   0  0  0  0  0  1  0  0  0  0  0  0
  -26.3930  -37.4400   23.7720 N   0  0  0  0  0  0  0  0  0  0  0  0
  -25.9770  -38.3520   23.9350 H   0  0  0  0  0  0  0  0  0  0  0  0
  -26.3460  -31.7830   25.1430 C   0  0  1  0  0  0  0  0  0  0  0  0
  -25.2220  -31.5580   26.1820 C   0  0  0  0  0  1  0  0  0  0  0  0
  -26.9520  -30.4100   24.7750 C   0  0  0  0  0  1  0  0  0  0  0  0
  -27.4770  -32.5890   25.8230 C   0  0  0  0  0  1  0  0  0  0  0  0
  1 50  1  0
  1 47  1  0
  2  4  2  0
  3  2  1  0
  3  1  1  0
  5  3  1  0
  7  6  1  0
  7 16  1  0
  7  2  1  0
  8 16  1  0
  9 14  1  0
 10 11  1  0
 10  9  1  0
 12 11  1  0
 12 21  1  0
 12 13  1  0
 14  8  1  0
 14 13  1  0
 15  8  2  0
 16 17  1  0
 18 19  2  0
 19 38  1  0
 20 19  1  0
 20 23  1  0
 21 22  1  0
 21 18  1  0
 22 20  2  0
 23 24  1  0
 24 25  2  0
 26 29  1  0
 26 25  1  0
 27 26  2  0
 28 27  1  0
 28 23  2  0
 29 30  1  0
 30 31  1  0
 31 32  2  0
 33 32  1  0
 33 37  1  0
 34 33  2  0
 35 30  2  0
 35 34  1  0
 36 35  1  0
 38 39  1  0
 39 42  1  0
 39 41  1  0
 40 38  2  0
 43 44  1  0
 43 18  1  0
 45 43  1  0
 47 46  1  0
 47 49  1  0
 49 48  1  0
 50 51  1  0
 52 54  1  0
 52 51  1  0
 53 64  2  0
 54 59  1  0
 55 63  1  0
 55 65  1  0
 56 62  1  0
 56 58  1  0
 57 63  1  0
 58 57  1  0
 59 58  2  0
 60 54  2  0
 61 60  1  0
 61 56  2  0
 62 55  1  0
 63 53  1  0
 65 67  2  0
 66 65  1  0
 68 66  1  0
 69 78  2  0
 69 74  1  0
 70 66  1  0
 70 74  1  0
 71 70  1  0
 72 73  1  0
 72 71  1  0
 73 69  1  0
 74 75  2  0
 75 76  1  0
 77 76  2  0
 78 77  1  0
 79 53  1  0
 79 80  1  0
 79 89  1  0
 80 83  1  0
 81 85  1  0
 81 80  1  0
 82 81  2  0
 85 84  1  0
 87 85  1  0
 87 88  1  0
 87 86  1  0
 89 92  1  1
 89 90  1  0
 91 89  1  0
M  ISO  4   8 100  16 100  51 101  52 101
M  END
>  <TORSDO>  (85) 
F 22

>  <SCORE>  (85) 
-13.624

>  <name>  (85) 
85

>  <ligand_id>  (85) 
85

>  <original_smiles>  (85) 
[H]c1c([H])c([H])c2c(c1[H])C([H])([H])C([H])([H])C([H])([H])C2([H])N([H])C(=O)C1([H])N(C(=O)C([H])(N([H])C(=O)C([H])(N([H])C([H])([H])[H])C([H])([H])[H])C(C([H])([H])[H])(C([H])([H])[H])C([H])([H])[H])C([H])([H])c2c([H])c(OC([H])([H])C([H])([H])C([H])(N([H])C(=O)C([H])(N([H])C(=O)N3C([H])([H])C([H])([H])C([H])([H])C([H])(n4nc(-c5c([H])c([H])c(Oc6c([H])c([H])c(F)c([H])c6F)c([H])c5[H])c(C(=O)N([H])[H])c4N([H])[H])C3([H])[H])C([H])([H])[H])C([H])(C([H])([H])[H])C([H])([H])C([H])([H])[H])c([H])c([H])c2C1([H])[H]

>  <smiles>  (85) 
[H]c1c([H])c([H])c2c(c1[H])C([H])([H])C([H])([H])C([H])([H])C2([H])N([H])C(=O)C1([H])N(C(=O)C([H])(N([H])C(=O)C([H])(N([H])C([H])([H])[H])C([H])([H])[H])C(C([H])([H])[H])(C([H])([H])[H])C([H])([H])[H])C([H])([H])c2c([H])c(OC([H])([H])C([H])([H])C([H])(N([H])C(=O)C([H])(N([H])C(=O)N3C([H])([H])C([H])([H])C([H])([H])C([H])(n4nc(-c5c([H])c([H])c(Oc6c([H])c([H])c(F)c([H])c6F)c([H])c5[H])c(C(=O)N([H])[H])c4N([H])[H])C3([H])[H])C([H])([H])[H])C([H])(C([H])([H])[H])C([H])([H])C([H])([H])[H])c([H])c([H])c2C1([H])[H]

$$$$
86:0:0
     RDKit          3D

 89 98  0  0  1  0  0  0  0  0999 V2000
  -28.0480  -20.8600   18.7710 C   0  0  0  0  0  2  0  0  0  0  0  0
  -28.3850  -22.3470   18.9110 C   0  0  0  0  0  3  0  0  0  0  0  0
  -29.2740  -22.0280   20.1070 C   0  0  0  0  0  3  0  0  0  0  0  0
  -29.2080  -20.4440   19.6620 C   0  0  0  0  0  3  0  0  0  0  0  0
  -28.2270  -23.3120   20.0830 C   0  0  0  0  0  3  0  0  0  0  0  0
  -29.1990  -18.9930   20.5140 C   0  0  0  0  0  2  0  0  0  0  0  0
  -31.5600  -18.0550   20.7010 C   0  0  0  0  0  1  0  0  0  0  0  0
  -30.3020  -17.6630   18.5560 C   0  0  0  0  0  1  0  0  0  0  0  0
  -30.1880  -17.6840   20.0960 C   0  0  2  0  0  0  0  0  0  0  0  0
  -30.6230  -14.9760   20.3340 C   0  0  0  0  0  0  0  0  0  0  0  0
  -30.4570  -12.6490   19.3710 C   0  0  0  0  0  2  0  0  0  0  0  0
  -29.5270  -12.6580   18.1360 C   0  0  0  0  0  2  0  0  0  0  0  0
  -28.0630  -12.4530   18.5710 C   0  0  0  0  0  2  0  0  0  0  0  0
  -27.6700  -13.3580   19.7690 C   0  0  0  0  0  3  0  0  0  0  0  0
  -28.7270  -13.3400   20.8930 C   0  0  0  0  0  2  0  0  0  0  0  0
  -30.0030  -13.7330   20.2880 N   0  0  0  0  0  0  0  0  0  0  0  0
  -31.8200  -15.0050   20.0260 O   0  0  0  0  0  0  0  0  0  0  0  0
  -29.8770  -16.1780   20.4870 N   0  0  0  0  0  0  0  0  0  0  0  0
  -28.9130  -16.0110   20.7350 H   0  0  0  0  0  0  0  0  0  0  0  0
  -25.2880  -13.9170   20.5240 C   0  0  0  0  0  0  0  0  0  0  0  0
  -24.2310  -13.1320   20.8960 C   0  0  0  0  0  0  0  0  0  0  0  0
  -24.7070  -11.7840   20.8530 C   0  0  0  0  0  0  0  0  0  0  0  0
  -26.3360  -13.0490   20.2730 N   0  0  0  0  0  0  0  0  0  0  0  0
  -25.9960  -11.7600   20.5380 N   0  0  0  0  0  0  0  0  0  0  0  0
  -23.9890  -10.5160   21.0360 C   0  0  0  0  0  0  0  0  0  0  0  0
  -24.4210   -9.5510   21.9730 C   0  0  0  0  0  3  0  0  0  0  0  0
  -23.7040   -8.3470   22.1470 C   0  0  0  0  0  3  0  0  0  0  0  0
  -22.5390   -8.1020   21.3830 C   0  0  0  0  0  0  0  0  0  0  0  0
  -22.1250   -9.0560   20.4360 C   0  0  0  0  0  3  0  0  0  0  0  0
  -22.8440  -10.2490   20.2600 C   0  0  0  0  0  3  0  0  0  0  0  0
  -21.7900   -6.9530   21.4660 O   0  0  0  0  0  0  0  0  0  0  0  0
  -21.7260   -6.2180   22.6210 C   0  0  0  0  0  0  0  0  0  0  0  0
  -21.2600   -6.7740   23.8330 C   0  0  0  0  0  3  0  0  0  0  0  0
  -21.1450   -5.9640   24.9800 C   0  0  0  0  0  3  0  0  0  0  0  0
  -21.4850   -4.6000   24.9170 C   0  0  0  0  0  0  0  0  0  0  0  0
  -21.9420   -4.0430   23.7110 C   0  0  0  0  0  3  0  0  0  0  0  0
  -22.0610   -4.8510   22.5660 C   0  0  0  0  0  0  0  0  0  0  0  0
  -22.4820   -4.3040   21.4000 F   0  0  0  0  0  0  0  0  0  0  0  0
  -21.3660   -3.8190   26.0190 F   0  0  0  0  0  0  0  0  0  0  0  0
  -22.8310  -13.5990   21.1690 C   0  0  0  0  0  0  0  0  0  0  0  0
  -22.1050  -12.8930   22.0280 N   0  0  0  0  0  0  0  0  0  0  0  0
  -22.3880  -14.6250   20.6550 O   0  0  0  0  0  0  0  0  0  0  0  0
  -22.4770  -12.0690   22.4770 H   0  0  0  0  0  0  0  0  0  0  0  0
  -21.1650  -13.1880   22.2520 H   0  0  0  0  0  0  0  0  0  0  0  0
  -25.4330  -15.2920   20.3530 N   0  0  0  0  0  0  0  0  0  0  0  0
  -24.6490  -15.9250   20.4680 H   0  0  0  0  0  0  0  0  0  0  0  0
  -26.2570  -15.7480   19.9830 H   0  0  0  0  0  0  0  0  0  0  0  0
  -28.3910  -24.8980   19.5880 C   0  0  0  0  0  2  0  0  0  0  0  0
  -28.2470  -26.2740   20.2720 O   0  0  0  0  0  0  0  0  0  0  0  0
  -24.5900  -31.8940   23.2070 C   0  0  0  0  0  0  0  0  0  0  0  0
  -27.1710  -27.2140   20.1450 C   0  0  0  0  0  0  0  0  0  0  0  0
  -23.3850  -30.4930   21.5720 C   0  0  0  0  0  3  0  0  0  0  0  0
  -24.8290  -28.9260   20.1310 C   0  0  0  0  0  0  0  0  0  0  0  0
  -25.9340  -30.7720   21.3950 C   0  0  0  0  0  2  0  0  0  0  0  0
  -26.0060  -29.3840   20.7350 C   0  0  0  0  0  0  0  0  0  0  0  0
  -27.1720  -28.5400   20.7310 C   0  0  0  0  0  3  0  0  0  0  0  0
  -25.9690  -26.8450   19.5040 C   0  0  0  0  0  3  0  0  0  0  0  0
  -24.8230  -27.6710   19.5010 C   0  0  0  0  0  3  0  0  0  0  0  0
  -23.5980  -29.8140   20.1910 C   0  0  0  0  0  2  0  0  0  0  0  0
  -24.6560  -31.0770   22.1120 N   0  0  0  0  0  0  0  0  0  0  0  0
  -23.5070  -32.1730   23.7440 O   0  0  0  0  0  0  0  0  0  0  0  0
  -22.7180  -29.4840   22.5390 C   0  0  0  0  0  0  0  0  0  0  0  0
  -21.3890  -29.3100   22.4200 N   0  0  0  0  0  0  0  0  0  0  0  0
  -23.3950  -28.8580   23.3570 O   0  0  0  0  0  0  0  0  0  0  0  0
  -20.9010  -29.8630   21.7290 H   0  0  0  0  0  0  0  0  0  0  0  0
  -18.0120  -28.1120   22.9440 C   0  0  0  0  0  0  0  0  0  0  0  0
  -20.5730  -28.3720   23.1940 C   0  0  0  0  0  3  0  0  0  0  0  0
  -20.6700  -26.9410   22.6160 C   0  0  0  0  0  2  0  0  0  0  0  0
  -19.5610  -26.6210   21.6080 C   0  0  0  0  0  2  0  0  0  0  0  0
  -18.1840  -26.7640   22.2620 C   0  0  0  0  0  2  0  0  0  0  0  0
  -19.1330  -28.8730   23.3660 C   0  0  0  0  0  0  0  0  0  0  0  0
  -18.9180  -30.1320   23.9660 C   0  0  0  0  0  3  0  0  0  0  0  0
  -17.6140  -30.6310   24.1440 C   0  0  0  0  0  3  0  0  0  0  0  0
  -16.5070  -29.8670   23.7380 C   0  0  0  0  0  3  0  0  0  0  0  0
  -16.7070  -28.6070   23.1440 C   0  0  0  0  0  3  0  0  0  0  0  0
  -25.8710  -32.5330   23.8280 C   0  0  0  0  0  3  0  0  0  0  0  0
  -26.3840  -31.7700   25.1130 C   0  0  1  0  0  0  0  0  0  0  0  0
  -25.2900  -31.5390   26.1810 C   0  0  0  0  0  1  0  0  0  0  0  0
  -26.9680  -30.3900   24.7340 C   0  0  0  0  0  1  0  0  0  0  0  0
  -27.5340  -32.5680   25.7700 C   0  0  0  0  0  1  0  0  0  0  0  0
  -25.5590  -33.9310   24.1590 N   0  0  0  0  0  0  0  0  0  0  0  0
  -25.8930  -34.9880   23.4070 C   0  0  0  0  0  0  0  0  0  0  0  0
  -26.5640  -34.8870   22.3750 O   0  0  0  0  0  0  0  0  0  0  0  0
  -24.9700  -34.0830   24.9650 H   0  0  0  0  0  0  0  0  0  0  0  0
  -24.1780  -36.7940   23.0500 C   0  0  0  0  0  1  0  0  0  0  0  0
  -25.4090  -36.3770   23.8700 C   0  0  0  0  0  3  0  0  0  0  0  0
  -27.5380  -37.2500   24.7290 C   0  0  0  0  0  1  0  0  0  0  0  0
  -26.4470  -37.4260   23.7720 N   0  0  0  0  0  0  0  0  0  0  0  0
  -26.0460  -38.3490   23.9180 H   0  0  0  0  0  0  0  0  0  0  0  0
  1  4  1  0
  2  1  1  0
  2  5  1  0
  2  3  1  0
  4  3  1  0
  4  6  1  0
  5  3  1  0
  9  8  1  6
  9 18  1  0
  9  6  1  0
  9  7  1  0
 10 18  1  0
 11 16  1  0
 12 13  1  0
 12 11  1  0
 13 14  1  0
 14 23  1  0
 14 15  1  0
 16 10  1  0
 16 15  1  0
 17 10  2  0
 18 19  1  0
 20 21  2  0
 21 40  1  0
 22 21  1  0
 22 25  1  0
 23 20  1  0
 23 24  1  0
 24 22  2  0
 25 26  1  0
 26 27  2  0
 28 31  1  0
 28 27  1  0
 29 28  2  0
 30 29  1  0
 30 25  2  0
 31 32  1  0
 32 33  1  0
 33 34  2  0
 35 34  1  0
 35 39  1  0
 36 35  2  0
 37 32  2  0
 37 36  1  0
 38 37  1  0
 40 41  1  0
 41 44  1  0
 41 43  1  0
 42 40  2  0
 45 46  1  0
 45 20  1  0
 47 45  1  0
 48  5  1  0
 48 49  1  0
 50 61  2  0
 50 76  1  0
 51 49  1  0
 51 56  1  0
 52 60  1  0
 52 62  1  0
 53 59  1  0
 53 55  1  0
 54 60  1  0
 55 54  1  0
 56 55  2  0
 57 51  2  0
 58 57  1  0
 58 53  2  0
 59 52  1  0
 60 50  1  0
 62 64  2  0
 63 62  1  0
 63 67  1  0
 65 63  1  0
 66 75  2  0
 66 71  1  0
 67 71  1  0
 68 67  1  0
 69 70  1  0
 69 68  1  0
 70 66  1  0
 71 72  2  0
 72 73  1  0
 74 73  2  0
 75 74  1  0
 76 81  1  0
 76 77  1  0
 77 80  1  1
 77 78  1  0
 79 77  1  0
 81 84  1  0
 82 86  1  0
 82 81  1  0
 83 82  2  0
 85 86  1  0
 88 86  1  0
 88 89  1  0
 88 87  1  0
M  ISO  4  10 100  18 100  48 101  49 101
M  END
>  <TORSDO>  (86) 
F 19

>  <SCORE>  (86) 
-14.231

>  <name>  (86) 
86

>  <ligand_id>  (86) 
86

>  <original_smiles>  (86) 
[H]c1c([H])c([H])c2c(c1[H])C([H])([H])C([H])([H])C([H])([H])C2([H])N([H])C(=O)C1([H])N(C(=O)C([H])(N([H])C(=O)C([H])(N([H])C([H])([H])[H])C([H])([H])[H])C(C([H])([H])[H])(C([H])([H])[H])C([H])([H])[H])C([H])([H])c2c([H])c(OC([H])([H])C3([H])C4([H])C([H])([H])C([H])(C([H])([H])C(N([H])C(=O)N5C([H])([H])C([H])([H])C([H])([H])C([H])(n6nc(-c7c([H])c([H])c(Oc8c([H])c([H])c(F)c([H])c8F)c([H])c7[H])c(C(=O)N([H])[H])c6N([H])[H])C5([H])[H])(C([H])([H])[H])C([H])([H])[H])C34[H])c([H])c([H])c2C1([H])[H]

>  <smiles>  (86) 
[H]c1c([H])c([H])c2c(c1[H])C([H])([H])C([H])([H])C([H])([H])C2([H])N([H])C(=O)C1([H])N(C(=O)C([H])(N([H])C(=O)C([H])(N([H])C([H])([H])[H])C([H])([H])[H])C(C([H])([H])[H])(C([H])([H])[H])C([H])([H])[H])C([H])([H])c2c([H])c(OC([H])([H])C3([H])C4([H])C([H])([H])C([H])(C([H])([H])C(N([H])C(=O)N5C([H])([H])C([H])([H])C([H])([H])C([H])(n6nc(-c7c([H])c([H])c(Oc8c([H])c([H])c(F)c([H])c8F)c([H])c7[H])c(C(=O)N([H])[H])c6N([H])[H])C5([H])[H])(C([H])([H])[H])C([H])([H])[H])C34[H])c([H])c([H])c2C1([H])[H]

$$$$
87:0:0
     RDKit          3D

 90 99  0  0  1  0  0  0  0  0999 V2000
  -30.7330  -21.0460   21.4730 C   0  0  0  0  0  2  0  0  0  0  0  0
  -30.2940  -22.4290   20.9210 C   0  0  0  0  0  2  0  0  0  0  0  0
  -28.2350  -21.2520   20.0710 C   0  0  0  0  0  2  0  0  0  0  0  0
  -30.4920  -19.9350   20.4580 C   0  0  0  0  0  3  0  0  0  0  0  0
  -29.1660  -19.9770   19.7800 C   0  0  0  0  0  3  0  0  0  0  0  0
  -29.5780  -18.7080   20.6590 C   0  0  0  0  0  3  0  0  0  0  0  0
  -28.8180  -22.4640   20.7970 N   0  0  2  0  0  4  0  0  0  0  0  0
  -28.5860  -22.1790   21.7360 H   0  0  0  0  0  0  0  0  0  0  0  0
  -30.2050  -17.3250   20.1230 C   0  0  0  0  0  2  0  0  0  0  0  0
  -30.5970  -14.7610   20.3600 C   0  0  0  0  0  0  0  0  0  0  0  0
  -30.3770  -12.4910   19.3510 C   0  0  0  0  0  2  0  0  0  0  0  0
  -29.4420  -12.5890   18.1260 C   0  0  0  0  0  2  0  0  0  0  0  0
  -27.9680  -12.4320   18.5520 C   0  0  0  0  0  2  0  0  0  0  0  0
  -27.6060  -13.3010   19.7880 C   0  0  0  0  0  3  0  0  0  0  0  0
  -28.6670  -13.1930   20.9050 C   0  0  0  0  0  2  0  0  0  0  0  0
  -29.9630  -13.5400   20.3120 N   0  0  0  0  0  0  0  0  0  0  0  0
  -31.7730  -14.8520   19.9940 O   0  0  0  0  0  0  0  0  0  0  0  0
  -29.8460  -15.9080   20.5780 N   0  0  0  0  0  0  0  0  0  0  0  0
  -28.8970  -15.7590   20.8860 H   0  0  0  0  0  0  0  0  0  0  0  0
  -25.2180  -13.8870   20.5140 C   0  0  0  0  0  0  0  0  0  0  0  0
  -24.1540  -13.1120   20.8860 C   0  0  0  0  0  0  0  0  0  0  0  0
  -24.6180  -11.7620   20.8570 C   0  0  0  0  0  0  0  0  0  0  0  0
  -26.2620  -13.0100   20.2780 N   0  0  0  0  0  0  0  0  0  0  0  0
  -25.9090  -11.7260   20.5470 N   0  0  0  0  0  0  0  0  0  0  0  0
  -23.8930  -10.4980   21.0490 C   0  0  0  0  0  0  0  0  0  0  0  0
  -24.3340   -9.5270   21.9770 C   0  0  0  0  0  3  0  0  0  0  0  0
  -23.6080   -8.3290   22.1580 C   0  0  0  0  0  3  0  0  0  0  0  0
  -22.4280   -8.0950   21.4130 C   0  0  0  0  0  0  0  0  0  0  0  0
  -22.0070   -9.0540   20.4740 C   0  0  0  0  0  3  0  0  0  0  0  0
  -22.7330  -10.2430   20.2920 C   0  0  0  0  0  3  0  0  0  0  0  0
  -21.6730   -6.9510   21.5060 O   0  0  0  0  0  0  0  0  0  0  0  0
  -21.6400   -6.2000   22.6540 C   0  0  0  0  0  0  0  0  0  0  0  0
  -21.2380   -6.7480   23.8910 C   0  0  0  0  0  3  0  0  0  0  0  0
  -21.1530   -5.9240   25.0310 C   0  0  0  0  0  3  0  0  0  0  0  0
  -21.4580   -4.5540   24.9360 C   0  0  0  0  0  0  0  0  0  0  0  0
  -21.8540   -4.0050   23.7030 C   0  0  0  0  0  3  0  0  0  0  0  0
  -21.9410   -4.8260   22.5640 C   0  0  0  0  0  0  0  0  0  0  0  0
  -22.3020   -4.2880   21.3740 F   0  0  0  0  0  0  0  0  0  0  0  0
  -21.3680   -3.7610   26.0280 F   0  0  0  0  0  0  0  0  0  0  0  0
  -22.7560  -13.5890   21.1570 C   0  0  0  0  0  0  0  0  0  0  0  0
  -22.0280  -12.8920   22.0240 N   0  0  0  0  0  0  0  0  0  0  0  0
  -22.3180  -14.6130   20.6340 O   0  0  0  0  0  0  0  0  0  0  0  0
  -22.3940  -12.0650   22.4700 H   0  0  0  0  0  0  0  0  0  0  0  0
  -21.0910  -13.1970   22.2480 H   0  0  0  0  0  0  0  0  0  0  0  0
  -25.3770  -15.2570   20.3310 N   0  0  0  0  0  0  0  0  0  0  0  0
  -24.6030  -15.9050   20.4340 H   0  0  0  0  0  0  0  0  0  0  0  0
  -26.2130  -15.6960   19.9680 H   0  0  0  0  0  0  0  0  0  0  0  0
  -28.1120  -23.8490   20.8150 C   0  0  0  0  0  2  0  0  0  0  0  0
  -28.4970  -25.0680   19.8390 C   0  0  0  0  0  2  0  0  0  0  0  0
  -28.3910  -26.4970   20.2890 O   0  0  0  0  0  0  0  0  0  0  0  0
  -24.6100  -31.9060   23.2280 C   0  0  0  0  0  0  0  0  0  0  0  0
  -27.2450  -27.3130   20.2040 C   0  0  0  0  0  0  0  0  0  0  0  0
  -23.4150  -30.4960   21.5890 C   0  0  0  0  0  3  0  0  0  0  0  0
  -24.8740  -28.9350   20.1710 C   0  0  0  0  0  0  0  0  0  0  0  0
  -25.9560  -30.8100   21.4180 C   0  0  0  0  0  2  0  0  0  0  0  0
  -26.0380  -29.4290   20.7710 C   0  0  0  0  0  0  0  0  0  0  0  0
  -27.2220  -28.6290   20.7750 C   0  0  0  0  0  3  0  0  0  0  0  0
  -26.0560  -26.8720   19.5820 C   0  0  0  0  0  3  0  0  0  0  0  0
  -24.8870  -27.6660   19.5670 C   0  0  0  0  0  3  0  0  0  0  0  0
  -23.6350  -29.8100   20.2130 C   0  0  0  0  0  2  0  0  0  0  0  0
  -24.6790  -31.0900   22.1340 N   0  0  0  0  0  0  0  0  0  0  0  0
  -23.5240  -32.1850   23.7570 O   0  0  0  0  0  0  0  0  0  0  0  0
  -22.7500  -29.4850   22.5540 C   0  0  0  0  0  0  0  0  0  0  0  0
  -21.4240  -29.3090   22.4270 N   0  0  0  0  0  0  0  0  0  0  0  0
  -23.4270  -28.8620   23.3740 O   0  0  0  0  0  0  0  0  0  0  0  0
  -20.9360  -29.8630   21.7370 H   0  0  0  0  0  0  0  0  0  0  0  0
  -18.0470  -28.1170   22.9330 C   0  0  0  0  0  0  0  0  0  0  0  0
  -20.6040  -28.3750   23.2000 C   0  0  0  0  0  3  0  0  0  0  0  0
  -20.7050  -26.9410   22.6290 C   0  0  0  0  0  2  0  0  0  0  0  0
  -19.6030  -26.6180   21.6150 C   0  0  0  0  0  2  0  0  0  0  0  0
  -18.2220  -26.7660   22.2590 C   0  0  0  0  0  2  0  0  0  0  0  0
  -19.1660  -28.8800   23.3610 C   0  0  0  0  0  0  0  0  0  0  0  0
  -18.9480  -30.1420   23.9500 C   0  0  0  0  0  3  0  0  0  0  0  0
  -17.6440  -30.6460   24.1160 C   0  0  0  0  0  3  0  0  0  0  0  0
  -16.5380  -29.8800   23.7050 C   0  0  0  0  0  3  0  0  0  0  0  0
  -16.7410  -28.6180   23.1190 C   0  0  0  0  0  3  0  0  0  0  0  0
  -25.8890  -32.5460   23.8520 C   0  0  0  0  0  3  0  0  0  0  0  0
  -26.4020  -31.7840   25.1360 C   0  0  1  0  0  0  0  0  0  0  0  0
  -25.3050  -31.5530   26.2020 C   0  0  0  0  0  1  0  0  0  0  0  0
  -26.9890  -30.4050   24.7600 C   0  0  0  0  0  1  0  0  0  0  0  0
  -27.5500  -32.5850   25.7950 C   0  0  0  0  0  1  0  0  0  0  0  0
  -25.5760  -33.9450   24.1740 N   0  0  0  0  0  0  0  0  0  0  0  0
  -25.9120  -34.9970   23.4140 C   0  0  0  0  0  0  0  0  0  0  0  0
  -26.5860  -34.8900   22.3870 O   0  0  0  0  0  0  0  0  0  0  0  0
  -24.9770  -34.1030   24.9710 H   0  0  0  0  0  0  0  0  0  0  0  0
  -24.1850  -36.7880   23.0480 C   0  0  0  0  0  1  0  0  0  0  0  0
  -25.4240  -36.3870   23.8660 C   0  0  0  0  0  3  0  0  0  0  0  0
  -27.5560  -37.2740   24.6980 C   0  0  0  0  0  1  0  0  0  0  0  0
  -26.4560  -37.4400   23.7530 N   0  0  0  0  0  0  0  0  0  0  0  0
  -26.0490  -38.3600   23.8990 H   0  0  0  0  0  0  0  0  0  0  0  0
  2  1  1  0
  3  7  1  0
  4  6  1  0
  4  1  1  0
  5  3  1  0
  5  4  1  0
  5  6  1  0
  6  9  1  0
  7 48  1  0
  7  2  1  0
  7  8  1  1
  9 18  1  0
 10 18  1  0
 11 16  1  0
 12 13  1  0
 12 11  1  0
 14 13  1  0
 14 23  1  0
 14 15  1  0
 16 10  1  0
 16 15  1  0
 17 10  2  0
 18 19  1  0
 20 21  2  0
 21 40  1  0
 22 21  1  0
 22 25  1  0
 23 20  1  0
 23 24  1  0
 24 22  2  0
 25 26  1  0
 26 27  2  0
 28 31  1  0
 28 27  1  0
 29 28  2  0
 30 29  1  0
 30 25  2  0
 31 32  1  0
 32 33  1  0
 33 34  2  0
 35 34  1  0
 35 39  1  0
 36 35  2  0
 37 32  2  0
 37 36  1  0
 38 37  1  0
 40 41  1  0
 41 44  1  0
 41 43  1  0
 42 40  2  0
 45 46  1  0
 45 20  1  0
 47 45  1  0
 49 50  1  0
 49 48  1  0
 51 62  2  0
 52 50  1  0
 52 57  1  0
 53 61  1  0
 53 63  1  0
 54 60  1  0
 54 56  1  0
 55 61  1  0
 56 57  2  0
 56 55  1  0
 58 52  2  0
 59 58  1  0
 59 54  2  0
 60 53  1  0
 61 51  1  0
 63 65  2  0
 64 63  1  0
 66 64  1  0
 67 76  2  0
 67 72  1  0
 68 64  1  0
 68 72  1  0
 69 68  1  0
 70 71  1  0
 70 69  1  0
 71 67  1  0
 72 73  2  0
 73 74  1  0
 75 74  2  0
 76 75  1  0
 77 51  1  0
 77 82  1  0
 77 78  1  0
 78 81  1  1
 78 79  1  0
 80 78  1  0
 82 85  1  0
 83 87  1  0
 83 82  1  0
 84 83  2  0
 87 86  1  0
 89 87  1  0
 89 90  1  0
 89 88  1  0
M  ISO  4  10 100  18 100  49 101  50 101
M  END
>  <TORSDO>  (87) 
F 19

>  <SCORE>  (87) 
-14.263

>  <name>  (87) 
87

>  <ligand_id>  (87) 
87

>  <original_smiles>  (87) 
[H]c1c([H])c([H])c2c(c1[H])C([H])([H])C([H])([H])C([H])([H])C2([H])N([H])C(=O)C1([H])N(C(=O)C([H])(N([H])C(=O)C([H])(N([H])C([H])([H])[H])C([H])([H])[H])C(C([H])([H])[H])(C([H])([H])[H])C([H])([H])[H])C([H])([H])c2c([H])c(OC([H])([H])C([H])([H])[N+]3([H])C([H])([H])C([H])([H])C4([H])C([H])(C([H])([H])N([H])C(=O)N5C([H])([H])C([H])([H])C([H])([H])C([H])(n6nc(-c7c([H])c([H])c(Oc8c([H])c([H])c(F)c([H])c8F)c([H])c7[H])c(C(=O)N([H])[H])c6N([H])[H])C5([H])[H])C4([H])C3([H])[H])c([H])c([H])c2C1([H])[H]

>  <smiles>  (87) 
[H]c1c([H])c([H])c2c(c1[H])C([H])([H])C([H])([H])C([H])([H])C2([H])N([H])C(=O)C1([H])N(C(=O)C([H])(N([H])C(=O)C([H])(N([H])C([H])([H])[H])C([H])([H])[H])C(C([H])([H])[H])(C([H])([H])[H])C([H])([H])[H])C([H])([H])c2c([H])c(OC([H])([H])C([H])([H])[N+]3([H])C([H])([H])C([H])([H])C4([H])C([H])(C([H])([H])N([H])C(=O)N5C([H])([H])C([H])([H])C([H])([H])C([H])(n6nc(-c7c([H])c([H])c(Oc8c([H])c([H])c(F)c([H])c8F)c([H])c7[H])c(C(=O)N([H])[H])c6N([H])[H])C5([H])[H])C4([H])C3([H])[H])c([H])c([H])c2C1([H])[H]

$$$$
88:0:0
     RDKit          3D

 93103  0  0  1  0  0  0  0  0999 V2000
  -28.6520  -18.2940   19.2010 C   0  0  0  0  0  3  0  0  0  0  0  0
  -28.8260  -19.4910   18.6240 C   0  0  0  0  0  3  0  0  0  0  0  0
  -27.0770  -23.3970   20.1680 C   0  0  0  0  0  2  0  0  0  0  0  0
  -27.4410  -22.0190   19.5940 C   0  0  0  0  0  2  0  0  0  0  0  0
  -28.8180  -20.7260   21.4330 C   0  0  0  0  0  2  0  0  0  0  0  0
  -29.4780  -23.0280   20.2350 C   0  0  0  0  0  2  0  0  0  0  0  0
  -29.2680  -18.1660   20.5800 C   0  0  0  0  0  3  0  0  0  0  0  0
  -29.6000  -20.4620   19.4850 C   0  0  0  0  0  3  0  0  0  0  0  0
  -29.7360  -19.6560   20.7900 C   0  0  0  0  0  3  0  0  0  0  0  0
  -28.3990  -24.1620   20.3460 C   0  0  0  0  0  3  0  0  0  0  0  0
  -28.8080  -21.6230   20.1610 C   0  0  2  0  0  0  0  0  0  0  0  0
  -30.7530  -14.6590   20.3170 C   0  0  0  0  0  0  0  0  0  0  0  0
  -30.4620  -12.4670   19.2150 C   0  0  0  0  0  2  0  0  0  0  0  0
  -29.5150  -12.6380   18.0090 C   0  0  0  0  0  2  0  0  0  0  0  0
  -28.0460  -12.4830   18.4520 C   0  0  0  0  0  2  0  0  0  0  0  0
  -27.7020  -13.3370   19.7030 C   0  0  0  0  0  3  0  0  0  0  0  0
  -28.7680  -13.1650   20.8090 C   0  0  0  0  0  2  0  0  0  0  0  0
  -30.0790  -13.4770   20.2180 N   0  0  0  0  0  0  0  0  0  0  0  0
  -31.9290  -14.7450   19.9510 O   0  0  0  0  0  0  0  0  0  0  0  0
  -30.3770  -17.0630   20.6560 C   0  0  0  0  0  0  0  0  0  0  0  0
  -29.9930  -15.7540   20.6060 N   0  0  0  0  0  0  0  0  0  0  0  0
  -31.5570  -17.4210   20.7370 O   0  0  0  0  0  0  0  0  0  0  0  0
  -29.0070  -15.5790   20.7090 H   0  0  0  0  0  0  0  0  0  0  0  0
  -25.3100  -13.9310   20.4330 C   0  0  0  0  0  0  0  0  0  0  0  0
  -24.2490  -13.1540   20.8140 C   0  0  0  0  0  0  0  0  0  0  0  0
  -24.7170  -11.8060   20.7880 C   0  0  0  0  0  0  0  0  0  0  0  0
  -26.3580  -13.0550   20.1970 N   0  0  0  0  0  0  0  0  0  0  0  0
  -26.0050  -11.7710   20.4720 N   0  0  0  0  0  0  0  0  0  0  0  0
  -23.9980  -10.5380   20.9870 C   0  0  0  0  0  0  0  0  0  0  0  0
  -24.4330   -9.5830   21.9330 C   0  0  0  0  0  3  0  0  0  0  0  0
  -23.7140   -8.3830   22.1210 C   0  0  0  0  0  3  0  0  0  0  0  0
  -22.5470   -8.1300   21.3620 C   0  0  0  0  0  0  0  0  0  0  0  0
  -22.1340   -9.0720   20.4050 C   0  0  0  0  0  3  0  0  0  0  0  0
  -22.8530  -10.2630   20.2150 C   0  0  0  0  0  3  0  0  0  0  0  0
  -21.8010   -6.9800   21.4560 O   0  0  0  0  0  0  0  0  0  0  0  0
  -21.7370   -6.2590   22.6220 C   0  0  0  0  0  0  0  0  0  0  0  0
  -21.2700   -6.8280   23.8260 C   0  0  0  0  0  3  0  0  0  0  0  0
  -21.1550   -6.0330   24.9840 C   0  0  0  0  0  3  0  0  0  0  0  0
  -21.4940   -4.6670   24.9380 C   0  0  0  0  0  0  0  0  0  0  0  0
  -21.9540   -4.0970   23.7370 C   0  0  0  0  0  3  0  0  0  0  0  0
  -22.0700   -4.8900   22.5830 C   0  0  0  0  0  0  0  0  0  0  0  0
  -22.4940   -4.3300   21.4240 F   0  0  0  0  0  0  0  0  0  0  0  0
  -21.3740   -3.9020   26.0470 F   0  0  0  0  0  0  0  0  0  0  0  0
  -22.8490  -13.6250   21.0890 C   0  0  0  0  0  0  0  0  0  0  0  0
  -22.1290  -12.9290   21.9620 N   0  0  0  0  0  0  0  0  0  0  0  0
  -22.4030  -14.6460   20.5650 O   0  0  0  0  0  0  0  0  0  0  0  0
  -22.5020  -12.1020   22.4030 H   0  0  0  0  0  0  0  0  0  0  0  0
  -21.1910  -13.2260   22.1910 H   0  0  0  0  0  0  0  0  0  0  0  0
  -25.4730  -15.3000   20.2410 N   0  0  0  0  0  0  0  0  0  0  0  0
  -24.7000  -15.9530   20.3230 H   0  0  0  0  0  0  0  0  0  0  0  0
  -26.3060  -15.7270   19.8610 H   0  0  0  0  0  0  0  0  0  0  0  0
  -28.5860  -25.3910   19.3740 C   0  0  0  0  0  2  0  0  0  0  0  0
  -28.4470  -26.7250   19.9410 O   0  0  0  0  0  0  0  0  0  0  0  0
  -24.5520  -31.8310   23.0730 C   0  0  0  0  0  0  0  0  0  0  0  0
  -27.2510  -27.4370   19.9150 C   0  0  0  0  0  0  0  0  0  0  0  0
  -23.3650  -30.4370   21.4080 C   0  0  0  0  0  3  0  0  0  0  0  0
  -24.8370  -28.9440   19.9530 C   0  0  0  0  0  0  0  0  0  0  0  0
  -25.8900  -30.8290   21.2150 C   0  0  0  0  0  2  0  0  0  0  0  0
  -25.9920  -29.4660   20.5490 C   0  0  0  0  0  0  0  0  0  0  0  0
  -27.1980  -28.7200   20.5250 C   0  0  0  0  0  3  0  0  0  0  0  0
  -26.0720  -26.9420   19.3160 C   0  0  0  0  0  3  0  0  0  0  0  0
  -24.8730  -27.6830   19.3350 C   0  0  0  0  0  3  0  0  0  0  0  0
  -23.5860  -29.7900   20.0150 C   0  0  0  0  0  2  0  0  0  0  0  0
  -24.6210  -31.0480   21.9580 N   0  0  0  0  0  0  0  0  0  0  0  0
  -23.4680  -32.0710   23.6240 O   0  0  0  0  0  0  0  0  0  0  0  0
  -22.7360  -29.3860   22.3530 C   0  0  0  0  0  0  0  0  0  0  0  0
  -21.4090  -29.2040   22.2510 N   0  0  0  0  0  0  0  0  0  0  0  0
  -23.4380  -28.7400   23.1350 O   0  0  0  0  0  0  0  0  0  0  0  0
  -20.9060  -29.7800   21.5910 H   0  0  0  0  0  0  0  0  0  0  0  0
  -18.0430  -28.0080   22.8070 C   0  0  0  0  0  0  0  0  0  0  0  0
  -20.6100  -28.2430   23.0120 C   0  0  0  0  0  3  0  0  0  0  0  0
  -20.6870  -26.8350   22.3800 C   0  0  0  0  0  2  0  0  0  0  0  0
  -19.5520  -26.5550   21.3880 C   0  0  0  0  0  2  0  0  0  0  0  0
  -18.1900  -26.6840   22.0780 C   0  0  0  0  0  2  0  0  0  0  0  0
  -19.1790  -28.7480   23.2320 C   0  0  0  0  0  0  0  0  0  0  0  0
  -18.9850  -29.9900   23.8740 C   0  0  0  0  0  3  0  0  0  0  0  0
  -17.6890  -30.4910   24.0970 C   0  0  0  0  0  3  0  0  0  0  0  0
  -16.5680  -29.7470   23.6910 C   0  0  0  0  0  3  0  0  0  0  0  0
  -16.7460  -28.5070   23.0490 C   0  0  0  0  0  3  0  0  0  0  0  0
  -25.8290  -32.4770   23.6990 C   0  0  0  0  0  3  0  0  0  0  0  0
  -25.4880  -33.8550   24.0760 N   0  0  0  0  0  0  0  0  0  0  0  0
  -25.7820  -34.9390   23.3440 C   0  0  0  0  0  0  0  0  0  0  0  0
  -26.4440  -34.8850   22.3040 O   0  0  0  0  0  0  0  0  0  0  0  0
  -24.9070  -33.9680   24.8930 H   0  0  0  0  0  0  0  0  0  0  0  0
  -24.0130  -36.7000   23.0500 C   0  0  0  0  0  1  0  0  0  0  0  0
  -25.2650  -36.3010   23.8480 C   0  0  0  0  0  3  0  0  0  0  0  0
  -27.3780  -37.2070   24.7090 C   0  0  0  0  0  1  0  0  0  0  0  0
  -26.2730  -37.3810   23.7690 N   0  0  0  0  0  0  0  0  0  0  0  0
  -25.8460  -38.2850   23.9470 H   0  0  0  0  0  0  0  0  0  0  0  0
  -26.3760  -31.6820   24.9460 C   0  0  1  0  0  0  0  0  0  0  0  0
  -25.3020  -31.3930   26.0200 C   0  0  0  0  0  1  0  0  0  0  0  0
  -26.9830  -30.3300   24.5050 C   0  0  0  0  0  1  0  0  0  0  0  0
  -27.5160  -32.4820   25.6200 C   0  0  0  0  0  1  0  0  0  0  0  0
  1  7  1  0
  2  1  2  0
  3 10  1  0
  4  3  1  0
  6 10  1  0
  7 20  1  0
  7  9  1  0
  8  2  1  0
  8 11  1  0
  8  9  1  0
  9  5  1  0
 10 52  1  0
 11  4  1  6
 11  6  1  0
 11  5  1  0
 12 21  1  0
 13 18  1  0
 14 15  1  0
 14 13  1  0
 16 15  1  0
 16 27  1  0
 16 17  1  0
 18 12  1  0
 18 17  1  0
 19 12  2  0
 20 22  2  0
 21 20  1  0
 21 23  1  0
 24 25  2  0
 25 44  1  0
 26 25  1  0
 26 29  1  0
 27 24  1  0
 27 28  1  0
 28 26  2  0
 29 30  1  0
 30 31  2  0
 32 35  1  0
 32 31  1  0
 33 32  2  0
 34 33  1  0
 34 29  2  0
 35 36  1  0
 36 37  1  0
 37 38  2  0
 39 38  1  0
 39 43  1  0
 40 39  2  0
 41 36  2  0
 41 40  1  0
 42 41  1  0
 44 45  1  0
 45 48  1  0
 45 47  1  0
 46 44  2  0
 49 50  1  0
 49 24  1  0
 51 49  1  0
 52 53  1  0
 54 65  2  0
 55 53  1  0
 55 60  1  0
 56 64  1  0
 56 66  1  0
 57 63  1  0
 57 59  1  0
 58 64  1  0
 59 58  1  0
 60 59  2  0
 61 62  1  0
 61 55  2  0
 62 57  2  0
 63 56  1  0
 64 54  1  0
 66 68  2  0
 67 66  1  0
 69 67  1  0
 70 79  2  0
 70 75  1  0
 71 67  1  0
 71 75  1  0
 72 71  1  0
 73 74  1  0
 73 72  1  0
 74 70  1  0
 75 76  2  0
 76 77  1  0
 78 77  2  0
 79 78  1  0
 80 54  1  0
 80 81  1  0
 80 90  1  0
 81 84  1  0
 82 86  1  0
 82 81  1  0
 83 82  2  0
 86 85  1  0
 88 86  1  0
 88 89  1  0
 88 87  1  0
 90 93  1  1
 90 91  1  0
 92 90  1  0
M  ISO  4  12 100  21 100  52 101  53 101
M  END
>  <TORSDO>  (88) 
F 17

>  <SCORE>  (88) 
-15.151

>  <name>  (88) 
88

>  <ligand_id>  (88) 
88

>  <original_smiles>  (88) 
[H]C1=C([H])C2([H])C([H])(C1([H])C(=O)N([H])C(=O)N1C([H])([H])C([H])([H])C([H])([H])C([H])(n3nc(-c4c([H])c([H])c(Oc5c([H])c([H])c(F)c([H])c5F)c([H])c4[H])c(C(=O)N([H])[H])c3N([H])[H])C1([H])[H])C([H])([H])C21C([H])([H])C([H])([H])C([H])(C([H])([H])Oc2c([H])c([H])c3c(c2[H])C([H])([H])N(C(=O)C([H])(N([H])C(=O)C([H])(N([H])C([H])([H])[H])C([H])([H])[H])C(C([H])([H])[H])(C([H])([H])[H])C([H])([H])[H])C([H])(C(=O)N([H])C2([H])c4c([H])c([H])c([H])c([H])c4C([H])([H])C([H])([H])C2([H])[H])C3([H])[H])C1([H])[H]

>  <smiles>  (88) 
[H]C1=C([H])C2([H])C([H])(C1([H])C(=O)N([H])C(=O)N1C([H])([H])C([H])([H])C([H])([H])C([H])(n3nc(-c4c([H])c([H])c(Oc5c([H])c([H])c(F)c([H])c5F)c([H])c4[H])c(C(=O)N([H])[H])c3N([H])[H])C1([H])[H])C([H])([H])C21C([H])([H])C([H])([H])C([H])(C([H])([H])Oc2c([H])c([H])c3c(c2[H])C([H])([H])N(C(=O)C([H])(N([H])C(=O)C([H])(N([H])C([H])([H])[H])C([H])([H])[H])C(C([H])([H])[H])(C([H])([H])[H])C([H])([H])[H])C([H])(C(=O)N([H])C2([H])c4c([H])c([H])c([H])c([H])c4C([H])([H])C([H])([H])C2([H])[H])C3([H])[H])C1([H])[H]

$$$$
89:0:0
     RDKit          3D

 94103  0  0  1  0  0  0  0  0999 V2000
  -30.6510  -14.8230   20.3850 C   0  0  0  0  0  0  0  0  0  0  0  0
  -30.4350  -12.5040   19.4540 C   0  0  0  0  0  2  0  0  0  0  0  0
  -29.5410  -12.5190   18.1990 C   0  0  0  0  0  2  0  0  0  0  0  0
  -28.0650  -12.3460   18.6050 C   0  0  0  0  0  2  0  0  0  0  0  0
  -27.6540  -13.2850   19.7710 C   0  0  0  0  0  3  0  0  0  0  0  0
  -28.6840  -13.2740   20.9210 C   0  0  0  0  0  2  0  0  0  0  0  0
  -29.9790  -13.6160   20.3260 N   0  0  0  0  0  0  0  0  0  0  0  0
  -31.8600  -14.8060   20.1340 O   0  0  0  0  0  0  0  0  0  0  0  0
  -29.5550  -18.3150   18.9550 C   0  0  0  0  0  2  0  0  0  0  0  0
  -29.0110  -18.4180   21.2610 C   0  0  0  0  0  3  0  0  0  0  0  0
  -30.3840  -16.9790   19.1370 C   0  0  0  0  0  2  0  0  0  0  0  0
  -29.1540  -16.7890   21.2500 C   0  0  0  0  0  3  0  0  0  0  0  0
  -29.6300  -19.3640   20.1290 C   0  0  1  0  0  0  0  0  0  0  0  0
  -29.9600  -16.0470   20.2190 N   0  0  0  0  0  0  0  0  0  0  0  0
  -33.7900  -20.6080   20.8650 C   0  0  0  0  0  3  0  0  0  0  0  0
  -32.8860  -20.5090   21.9370 C   0  0  0  0  0  3  0  0  0  0  0  0
  -33.3520  -20.3170   19.5620 C   0  0  0  0  0  3  0  0  0  0  0  0
  -31.5540  -20.1010   21.7100 C   0  0  0  0  0  3  0  0  0  0  0  0
  -32.0220  -19.9130   19.3370 C   0  0  0  0  0  3  0  0  0  0  0  0
  -31.0990  -19.7770   20.4060 C   0  0  0  0  0  0  0  0  0  0  0  0
  -25.2510  -13.8870   20.4220 C   0  0  0  0  0  0  0  0  0  0  0  0
  -24.1760  -13.1200   20.7830 C   0  0  0  0  0  0  0  0  0  0  0  0
  -24.6430  -11.7710   20.8030 C   0  0  0  0  0  0  0  0  0  0  0  0
  -26.3010  -13.0040   20.2390 N   0  0  0  0  0  0  0  0  0  0  0  0
  -25.9420  -11.7270   20.5330 N   0  0  0  0  0  0  0  0  0  0  0  0
  -23.9090  -10.5110   21.0020 C   0  0  0  0  0  0  0  0  0  0  0  0
  -24.3310   -9.5530   21.9470 C   0  0  0  0  0  3  0  0  0  0  0  0
  -23.5970   -8.3630   22.1370 C   0  0  0  0  0  3  0  0  0  0  0  0
  -22.4280   -8.1200   21.3770 C   0  0  0  0  0  0  0  0  0  0  0  0
  -22.0260   -9.0670   20.4170 C   0  0  0  0  0  3  0  0  0  0  0  0
  -22.7610  -10.2500   20.2270 C   0  0  0  0  0  3  0  0  0  0  0  0
  -21.6690   -6.9800   21.4750 O   0  0  0  0  0  0  0  0  0  0  0  0
  -21.6280   -6.2390   22.6290 C   0  0  0  0  0  0  0  0  0  0  0  0
  -21.2430   -6.8050   23.8640 C   0  0  0  0  0  3  0  0  0  0  0  0
  -21.1460   -5.9930   25.0110 C   0  0  0  0  0  3  0  0  0  0  0  0
  -21.4240   -4.6150   24.9250 C   0  0  0  0  0  0  0  0  0  0  0  0
  -21.8020   -4.0490   23.6950 C   0  0  0  0  0  3  0  0  0  0  0  0
  -21.9000   -4.8590   22.5500 C   0  0  0  0  0  0  0  0  0  0  0  0
  -22.2440   -4.3040   21.3630 F   0  0  0  0  0  0  0  0  0  0  0  0
  -21.3240   -3.8330   26.0250 F   0  0  0  0  0  0  0  0  0  0  0  0
  -22.7720  -13.6030   21.0000 C   0  0  0  0  0  0  0  0  0  0  0  0
  -22.0220  -12.9330   21.8680 N   0  0  0  0  0  0  0  0  0  0  0  0
  -22.3490  -14.6120   20.4380 O   0  0  0  0  0  0  0  0  0  0  0  0
  -22.3760  -12.1170   22.3440 H   0  0  0  0  0  0  0  0  0  0  0  0
  -21.0800  -13.2450   22.0610 H   0  0  0  0  0  0  0  0  0  0  0  0
  -25.4190  -15.2530   20.2110 N   0  0  0  0  0  0  0  0  0  0  0  0
  -24.6480  -15.9080   20.2850 H   0  0  0  0  0  0  0  0  0  0  0  0
  -26.2690  -15.6820   19.8710 H   0  0  0  0  0  0  0  0  0  0  0  0
  -28.8010  -20.7300   19.7580 C   0  0  0  0  0  0  0  0  0  0  0  0
  -27.9970  -20.6770   18.8220 O   0  0  0  0  0  0  0  0  0  0  0  0
  -28.8990  -22.1550   20.5110 C   0  0  0  0  0  2  0  0  0  0  0  0
  -28.6820  -23.5840   19.7290 C   0  0  0  0  0  2  0  0  0  0  0  0
  -28.1470  -24.9090   20.5170 C   0  0  0  0  0  2  0  0  0  0  0  0
  -28.3280  -26.3430   20.0590 O   0  0  0  0  0  0  0  0  0  0  0  0
  -24.6100  -31.8380   23.1420 C   0  0  0  0  0  0  0  0  0  0  0  0
  -27.2300  -27.2380   20.0760 C   0  0  0  0  0  0  0  0  0  0  0  0
  -23.4180  -30.4380   21.4980 C   0  0  0  0  0  3  0  0  0  0  0  0
  -24.8780  -28.8860   20.0700 C   0  0  0  0  0  0  0  0  0  0  0  0
  -25.9640  -30.7490   21.3210 C   0  0  0  0  0  2  0  0  0  0  0  0
  -26.0490  -29.3670   20.6700 C   0  0  0  0  0  0  0  0  0  0  0  0
  -27.2360  -28.5580   20.6510 C   0  0  0  0  0  3  0  0  0  0  0  0
  -26.0320  -26.8230   19.4650 C   0  0  0  0  0  3  0  0  0  0  0  0
  -24.8710  -27.6240   19.4560 C   0  0  0  0  0  3  0  0  0  0  0  0
  -23.6410  -29.7650   20.1180 C   0  0  0  0  0  2  0  0  0  0  0  0
  -24.6850  -31.0270   22.0440 N   0  0  0  0  0  0  0  0  0  0  0  0
  -23.5230  -32.1110   23.6730 O   0  0  0  0  0  0  0  0  0  0  0  0
  -22.7540  -29.4190   22.4550 C   0  0  0  0  0  0  0  0  0  0  0  0
  -21.4230  -29.2650   22.3510 N   0  0  0  0  0  0  0  0  0  0  0  0
  -23.4350  -28.7690   23.2530 O   0  0  0  0  0  0  0  0  0  0  0  0
  -20.9330  -29.8430   21.6820 H   0  0  0  0  0  0  0  0  0  0  0  0
  -18.0330  -28.1140   22.8930 C   0  0  0  0  0  0  0  0  0  0  0  0
  -20.6000  -28.3260   23.1160 C   0  0  0  0  0  3  0  0  0  0  0  0
  -20.6670  -26.9060   22.5080 C   0  0  0  0  0  2  0  0  0  0  0  0
  -19.5380  -26.6220   21.5100 C   0  0  0  0  0  2  0  0  0  0  0  0
  -18.1730  -26.7770   22.1860 C   0  0  0  0  0  2  0  0  0  0  0  0
  -19.1720  -28.8480   23.3160 C   0  0  0  0  0  0  0  0  0  0  0  0
  -18.9870  -30.1020   23.9380 C   0  0  0  0  0  3  0  0  0  0  0  0
  -17.6940  -30.6210   24.1410 C   0  0  0  0  0  3  0  0  0  0  0  0
  -16.5690  -29.8810   23.7390 C   0  0  0  0  0  3  0  0  0  0  0  0
  -16.7390  -28.6300   23.1210 C   0  0  0  0  0  3  0  0  0  0  0  0
  -25.8860  -32.4760   23.7730 C   0  0  0  0  0  3  0  0  0  0  0  0
  -26.4150  -31.6860   25.0320 C   0  0  1  0  0  0  0  0  0  0  0  0
  -25.3290  -31.4200   26.1030 C   0  0  0  0  0  1  0  0  0  0  0  0
  -27.0090  -30.3210   24.6160 C   0  0  0  0  0  1  0  0  0  0  0  0
  -27.5650  -32.4800   25.6970 C   0  0  0  0  0  1  0  0  0  0  0  0
  -25.5580  -33.8630   24.1340 N   0  0  0  0  0  0  0  0  0  0  0  0
  -25.8720  -34.9380   23.3980 C   0  0  0  0  0  0  0  0  0  0  0  0
  -26.5360  -34.8660   22.3620 O   0  0  0  0  0  0  0  0  0  0  0  0
  -24.9590  -33.9890   24.9380 H   0  0  0  0  0  0  0  0  0  0  0  0
  -24.1190  -36.7230   23.1020 C   0  0  0  0  0  1  0  0  0  0  0  0
  -25.3730  -36.3110   23.8900 C   0  0  0  0  0  3  0  0  0  0  0  0
  -27.5090  -37.2040   24.7160 C   0  0  0  0  0  1  0  0  0  0  0  0
  -26.3930  -37.3790   23.7910 N   0  0  0  0  0  0  0  0  0  0  0  0
  -25.9780  -38.2910   23.9620 H   0  0  0  0  0  0  0  0  0  0  0  0
  2  7  1  0
  3  4  1  0
  3  2  1  0
  5  4  1  0
  5 24  1  0
  5  6  1  0
  7  1  1  0
  7  6  1  0
  8  1  2  0
  9 11  1  0
  9 13  1  0
 11 14  1  0
 12 10  2  0
 13 49  1  6
 13 20  1  0
 13 10  1  0
 14  1  1  0
 14 12  1  0
 15 16  1  0
 17 15  2  0
 18 16  2  0
 19 17  1  0
 19 20  2  0
 20 18  1  0
 21 22  2  0
 22 23  1  0
 22 41  1  0
 23 26  1  0
 24 21  1  0
 24 25  1  0
 25 23  2  0
 26 27  1  0
 27 28  2  0
 29 32  1  0
 29 28  1  0
 30 29  2  0
 31 30  1  0
 31 26  2  0
 32 33  1  0
 33 34  1  0
 34 35  2  0
 36 35  1  0
 36 40  1  0
 37 36  2  0
 38 33  2  0
 38 37  1  0
 39 38  1  0
 41 42  1  0
 42 45  1  0
 42 44  1  0
 43 41  2  0
 46 47  1  0
 46 21  1  0
 48 46  1  0
 49 51  1  0
 50 49  2  0
 52 51  1  0
 52 53  1  0
 54 56  1  0
 54 53  1  0
 55 66  2  0
 56 61  1  0
 57 65  1  0
 57 67  1  0
 58 64  1  0
 58 60  1  0
 59 65  1  0
 60 59  1  0
 61 60  2  0
 62 56  2  0
 63 62  1  0
 63 58  2  0
 64 57  1  0
 65 55  1  0
 67 69  2  0
 68 67  1  0
 70 68  1  0
 71 80  2  0
 71 76  1  0
 72 68  1  0
 72 76  1  0
 73 72  1  0
 74 75  1  0
 74 73  1  0
 75 71  1  0
 76 77  2  0
 77 78  1  0
 79 78  2  0
 80 79  1  0
 81 55  1  0
 81 86  1  0
 81 82  1  0
 82 85  1  1
 82 83  1  0
 84 82  1  0
 86 89  1  0
 87 91  1  0
 87 86  1  0
 88 87  2  0
 91 90  1  0
 93 91  1  0
 93 94  1  0
 93 92  1  0
M  ISO  4   1 100  14 100  53 101  54 101
M  END
>  <TORSDO>  (89) 
F 20

>  <SCORE>  (89) 
-13.674

>  <name>  (89) 
89

>  <ligand_id>  (89) 
89

>  <original_smiles>  (89) 
[H]c1c([H])c([H])c(C2(C(=O)C([H])([H])C([H])([H])C([H])([H])Oc3c([H])c([H])c4c(c3[H])C([H])([H])N(C(=O)C([H])(N([H])C(=O)C([H])(N([H])C([H])([H])[H])C([H])([H])[H])C(C([H])([H])[H])(C([H])([H])[H])C([H])([H])[H])C([H])(C(=O)N([H])C3([H])c5c([H])c([H])c([H])c([H])c5C([H])([H])C([H])([H])C3([H])[H])C4([H])[H])C([H])([H])C([H])([H])N(C(=O)N3C([H])([H])C([H])([H])C([H])([H])C([H])(n4nc(-c5c([H])c([H])c(Oc6c([H])c([H])c(F)c([H])c6F)c([H])c5[H])c(C(=O)N([H])[H])c4N([H])[H])C3([H])[H])C([H])([H])C2([H])[H])c([H])c1[H]

>  <smiles>  (89) 
[H]c1c([H])c([H])c(C2(C(=O)C([H])([H])C([H])([H])C([H])([H])Oc3c([H])c([H])c4c(c3[H])C([H])([H])N(C(=O)C([H])(N([H])C(=O)C([H])(N([H])C([H])([H])[H])C([H])([H])[H])C(C([H])([H])[H])(C([H])([H])[H])C([H])([H])[H])C([H])(C(=O)N([H])C3([H])c5c([H])c([H])c([H])c([H])c5C([H])([H])C([H])([H])C3([H])[H])C4([H])[H])C([H])([H])C([H])([H])N(C(=O)N3C([H])([H])C([H])([H])C([H])([H])C([H])(n4nc(-c5c([H])c([H])c(Oc6c([H])c([H])c(F)c([H])c6F)c([H])c5[H])c(C(=O)N([H])[H])c4N([H])[H])C3([H])[H])C([H])([H])C2([H])[H])c([H])c1[H]

$$$$
90:0:0
     RDKit          3D

 94102  0  0  1  0  0  0  0  0999 V2000
  -29.8550  -23.4620   19.4670 C   0  0  0  0  0  2  0  0  0  0  0  0
  -30.0140  -21.9120   19.3760 C   0  0  0  0  0  2  0  0  0  0  0  0
  -28.3770  -22.4350   21.0270 C   0  0  0  0  0  2  0  0  0  0  0  0
  -28.4730  -23.7310   20.0950 C   0  0  2  0  0  0  0  0  0  0  0  0
  -29.4690  -21.3090   20.6930 C   0  0  1  0  0  0  0  0  0  0  0  0
  -27.3920  -23.6270   19.0010 C   0  0  0  0  0  1  0  0  0  0  0  0
  -28.9110  -19.7910   20.5690 C   0  0  0  0  0  2  0  0  0  0  0  0
  -29.7640  -18.5050   20.0770 C   0  0  0  0  0  2  0  0  0  0  0  0
  -30.1850  -17.3010   21.0620 C   0  0  0  0  0  2  0  0  0  0  0  0
  -30.6640  -14.7620   20.4480 C   0  0  0  0  0  0  0  0  0  0  0  0
  -30.4810  -12.5150   19.3720 C   0  0  0  0  0  2  0  0  0  0  0  0
  -29.5490  -12.6150   18.1440 C   0  0  0  0  0  2  0  0  0  0  0  0
  -28.0740  -12.4440   18.5590 C   0  0  0  0  0  2  0  0  0  0  0  0
  -27.6920  -13.3140   19.7860 C   0  0  0  0  0  3  0  0  0  0  0  0
  -28.7390  -13.1840   20.9140 C   0  0  0  0  0  2  0  0  0  0  0  0
  -30.0440  -13.5420   20.3400 N   0  0  0  0  0  0  0  0  0  0  0  0
  -31.8550  -14.8950   20.1510 O   0  0  0  0  0  0  0  0  0  0  0  0
  -29.8630  -15.8540   20.7160 N   0  0  0  0  0  0  0  0  0  0  0  0
  -28.8930  -15.6060   20.8410 H   0  0  0  0  0  0  0  0  0  0  0  0
  -25.2900  -13.9080   20.4670 C   0  0  0  0  0  0  0  0  0  0  0  0
  -24.2210  -13.1340   20.8270 C   0  0  0  0  0  0  0  0  0  0  0  0
  -24.6900  -11.7830   20.8160 C   0  0  0  0  0  0  0  0  0  0  0  0
  -26.3410  -13.0290   20.2560 N   0  0  0  0  0  0  0  0  0  0  0  0
  -25.9850  -11.7470   20.5290 N   0  0  0  0  0  0  0  0  0  0  0  0
  -23.9650  -10.5200   21.0040 C   0  0  0  0  0  0  0  0  0  0  0  0
  -24.3760   -9.5690   21.9630 C   0  0  0  0  0  3  0  0  0  0  0  0
  -23.6520   -8.3690   22.1380 C   0  0  0  0  0  3  0  0  0  0  0  0
  -22.5020   -8.1140   21.3540 C   0  0  0  0  0  0  0  0  0  0  0  0
  -22.1100   -9.0540   20.3850 C   0  0  0  0  0  3  0  0  0  0  0  0
  -22.8360  -10.2440   20.2080 C   0  0  0  0  0  3  0  0  0  0  0  0
  -21.7520   -6.9670   21.4380 O   0  0  0  0  0  0  0  0  0  0  0  0
  -21.6650   -6.2450   22.6020 C   0  0  0  0  0  0  0  0  0  0  0  0
  -21.1750   -6.8160   23.7960 C   0  0  0  0  0  3  0  0  0  0  0  0
  -21.0390   -6.0200   24.9520 C   0  0  0  0  0  3  0  0  0  0  0  0
  -21.3810   -4.6560   24.9120 C   0  0  0  0  0  0  0  0  0  0  0  0
  -21.8650   -4.0850   23.7220 C   0  0  0  0  0  3  0  0  0  0  0  0
  -22.0030   -4.8770   22.5690 C   0  0  0  0  0  0  0  0  0  0  0  0
  -22.4500   -4.3180   21.4190 F   0  0  0  0  0  0  0  0  0  0  0  0
  -21.2430   -3.8890   26.0200 F   0  0  0  0  0  0  0  0  0  0  0  0
  -22.8180  -13.6070   21.0700 C   0  0  0  0  0  0  0  0  0  0  0  0
  -22.0760  -12.9130   21.9260 N   0  0  0  0  0  0  0  0  0  0  0  0
  -22.3860  -14.6280   20.5360 O   0  0  0  0  0  0  0  0  0  0  0  0
  -22.4360  -12.0860   22.3790 H   0  0  0  0  0  0  0  0  0  0  0  0
  -21.1330  -13.2120   22.1320 H   0  0  0  0  0  0  0  0  0  0  0  0
  -25.4510  -15.2770   20.2770 N   0  0  0  0  0  0  0  0  0  0  0  0
  -24.6740  -15.9240   20.3580 H   0  0  0  0  0  0  0  0  0  0  0  0
  -26.2920  -15.7140   19.9230 H   0  0  0  0  0  0  0  0  0  0  0  0
  -30.6070  -21.3320   21.7530 C   0  0  0  0  0  2  0  0  0  0  0  0
  -30.1590  -20.9430   23.1020 N   0  0  0  0  0  4  0  0  0  0  0  0
  -29.4520  -21.5700   23.4420 H   0  0  0  0  0  0  0  0  0  0  0  0
  -30.9350  -20.9750   23.7400 H   0  0  0  0  0  0  0  0  0  0  0  0
  -29.7900  -20.0090   23.1030 H   0  0  0  0  0  0  0  0  0  0  0  0
  -28.2820  -25.1590   20.8420 C   0  0  0  0  0  2  0  0  0  0  0  0
  -28.3890  -26.4940   20.1830 O   0  0  0  0  0  0  0  0  0  0  0  0
  -24.6010  -31.8840   23.2390 C   0  0  0  0  0  0  0  0  0  0  0  0
  -27.2700  -27.3460   20.1900 C   0  0  0  0  0  0  0  0  0  0  0  0
  -23.4230  -30.4870   21.5790 C   0  0  0  0  0  3  0  0  0  0  0  0
  -24.8970  -28.9490   20.1630 C   0  0  0  0  0  0  0  0  0  0  0  0
  -25.9620  -30.8200   21.4220 C   0  0  0  0  0  2  0  0  0  0  0  0
  -26.0590  -29.4420   20.7700 C   0  0  0  0  0  0  0  0  0  0  0  0
  -27.2510  -28.6550   20.7680 C   0  0  0  0  0  3  0  0  0  0  0  0
  -26.0850  -26.9050   19.5660 C   0  0  0  0  0  3  0  0  0  0  0  0
  -24.9130  -27.6850   19.5510 C   0  0  0  0  0  3  0  0  0  0  0  0
  -23.6540  -29.8170   20.2000 C   0  0  0  0  0  2  0  0  0  0  0  0
  -24.6800  -31.0820   22.1370 N   0  0  0  0  0  0  0  0  0  0  0  0
  -23.5110  -32.1520   23.7640 O   0  0  0  0  0  0  0  0  0  0  0  0
  -22.7570  -29.4620   22.5300 C   0  0  0  0  0  0  0  0  0  0  0  0
  -21.4310  -29.2860   22.3960 N   0  0  0  0  0  0  0  0  0  0  0  0
  -23.4310  -28.8300   23.3460 O   0  0  0  0  0  0  0  0  0  0  0  0
  -20.9450  -29.8490   21.7130 H   0  0  0  0  0  0  0  0  0  0  0  0
  -18.0490  -28.0990   22.8890 C   0  0  0  0  0  0  0  0  0  0  0  0
  -20.6090  -28.3410   23.1560 C   0  0  0  0  0  3  0  0  0  0  0  0
  -20.7020  -26.9180   22.5580 C   0  0  0  0  0  2  0  0  0  0  0  0
  -19.5960  -26.6160   21.5420 C   0  0  0  0  0  2  0  0  0  0  0  0
  -18.2160  -26.7600   22.1930 C   0  0  0  0  0  2  0  0  0  0  0  0
  -19.1720  -28.8490   23.3260 C   0  0  0  0  0  0  0  0  0  0  0  0
  -18.9610  -30.1040   23.9380 C   0  0  0  0  0  3  0  0  0  0  0  0
  -17.6590  -30.6100   24.1160 C   0  0  0  0  0  3  0  0  0  0  0  0
  -16.5500  -29.8560   23.6930 C   0  0  0  0  0  3  0  0  0  0  0  0
  -16.7460  -28.6030   23.0860 C   0  0  0  0  0  3  0  0  0  0  0  0
  -25.8740  -32.5210   23.8770 C   0  0  0  0  0  3  0  0  0  0  0  0
  -25.5500  -33.9140   24.2170 N   0  0  0  0  0  0  0  0  0  0  0  0
  -25.8810  -34.9770   23.4720 C   0  0  0  0  0  0  0  0  0  0  0  0
  -26.5590  -34.8900   22.4450 O   0  0  0  0  0  0  0  0  0  0  0  0
  -24.9470  -34.0560   25.0140 H   0  0  0  0  0  0  0  0  0  0  0  0
  -24.1470  -36.7680   23.1180 C   0  0  0  0  0  1  0  0  0  0  0  0
  -25.3800  -36.3590   23.9400 C   0  0  0  0  0  3  0  0  0  0  0  0
  -27.4960  -37.2470   24.8130 C   0  0  0  0  0  1  0  0  0  0  0  0
  -26.4090  -37.4180   23.8530 N   0  0  0  0  0  0  0  0  0  0  0  0
  -25.9950  -38.3350   24.0020 H   0  0  0  0  0  0  0  0  0  0  0  0
  -26.3850  -31.7430   25.1510 C   0  0  1  0  0  0  0  0  0  0  0  0
  -25.2840  -31.4890   26.2070 C   0  0  0  0  0  1  0  0  0  0  0  0
  -26.9830  -30.3750   24.7540 C   0  0  0  0  0  1  0  0  0  0  0  0
  -27.5230  -32.5420   25.8310 C   0  0  0  0  0  1  0  0  0  0  0  0
  1  4  1  0
  2  1  1  0
  2  5  1  0
  4  6  1  6
  4 53  1  0
  4  3  1  0
  5  7  1  6
  5  3  1  0
  5 48  1  0
  8  7  1  0
  8  9  1  0
 10 18  1  0
 11 16  1  0
 12 13  1  0
 12 11  1  0
 14 13  1  0
 14 23  1  0
 14 15  1  0
 16 10  1  0
 16 15  1  0
 17 10  2  0
 18 19  1  0
 18  9  1  0
 20 21  2  0
 21 40  1  0
 22 21  1  0
 22 25  1  0
 23 20  1  0
 23 24  1  0
 24 22  2  0
 25 26  1  0
 26 27  2  0
 28 31  1  0
 28 27  1  0
 29 28  2  0
 30 29  1  0
 30 25  2  0
 31 32  1  0
 32 33  1  0
 33 34  2  0
 35 34  1  0
 35 39  1  0
 36 35  2  0
 37 32  2  0
 37 36  1  0
 38 37  1  0
 40 41  1  0
 41 44  1  0
 41 43  1  0
 42 40  2  0
 45 46  1  0
 45 20  1  0
 47 45  1  0
 48 49  1  0
 49 52  1  0
 49 50  1  0
 49 51  1  0
 54 56  1  0
 54 53  1  0
 55 66  2  0
 56 61  1  0
 57 65  1  0
 57 67  1  0
 58 64  1  0
 58 60  1  0
 59 65  1  0
 60 59  1  0
 61 60  2  0
 62 56  2  0
 63 62  1  0
 63 58  2  0
 64 57  1  0
 65 55  1  0
 67 69  2  0
 68 67  1  0
 70 68  1  0
 71 80  2  0
 71 76  1  0
 72 68  1  0
 72 76  1  0
 73 72  1  0
 74 75  1  0
 74 73  1  0
 75 71  1  0
 76 77  2  0
 77 78  1  0
 79 78  2  0
 80 79  1  0
 81 55  1  0
 81 82  1  0
 81 91  1  0
 82 85  1  0
 83 87  1  0
 83 82  1  0
 84 83  2  0
 87 86  1  0
 89 87  1  0
 89 90  1  0
 89 88  1  0
 91 94  1  1
 91 92  1  0
 93 91  1  0
M  ISO  4  10 100  18 100  53 101  54 101
M  END
>  <TORSDO>  (90) 
F 22

>  <SCORE>  (90) 
-13.613

>  <name>  (90) 
90

>  <ligand_id>  (90) 
90

>  <original_smiles>  (90) 
[H]c1c([H])c([H])c2c(c1[H])C([H])([H])C([H])([H])C([H])([H])C2([H])N([H])C(=O)C1([H])N(C(=O)C([H])(N([H])C(=O)C([H])(N([H])C([H])([H])[H])C([H])([H])[H])C(C([H])([H])[H])(C([H])([H])[H])C([H])([H])[H])C([H])([H])c2c([H])c(OC([H])([H])C3(C([H])([H])[H])C([H])([H])C([H])([H])C(C([H])([H])C([H])([H])C([H])([H])N([H])C(=O)N4C([H])([H])C([H])([H])C([H])([H])C([H])(n5nc(-c6c([H])c([H])c(Oc7c([H])c([H])c(F)c([H])c7F)c([H])c6[H])c(C(=O)N([H])[H])c5N([H])[H])C4([H])[H])(C([H])([H])[N+]([H])([H])[H])C3([H])[H])c([H])c([H])c2C1([H])[H]

>  <smiles>  (90) 
[H]c1c([H])c([H])c2c(c1[H])C([H])([H])C([H])([H])C([H])([H])C2([H])N([H])C(=O)C1([H])N(C(=O)C([H])(N([H])C(=O)C([H])(N([H])C([H])([H])[H])C([H])([H])[H])C(C([H])([H])[H])(C([H])([H])[H])C([H])([H])[H])C([H])([H])c2c([H])c(OC([H])([H])C3(C([H])([H])[H])C([H])([H])C([H])([H])C(C([H])([H])C([H])([H])C([H])([H])N([H])C(=O)N4C([H])([H])C([H])([H])C([H])([H])C([H])(n5nc(-c6c([H])c([H])c(Oc7c([H])c([H])c(F)c([H])c7F)c([H])c6[H])c(C(=O)N([H])[H])c5N([H])[H])C4([H])[H])(C([H])([H])[N+]([H])([H])[H])C3([H])[H])c([H])c([H])c2C1([H])[H]

$$$$
91:0:0
     RDKit          3D

 89 98  0  0  1  0  0  0  0  0999 V2000
  -28.7160  -21.6730   20.0150 C   0  0  0  0  0  3  0  0  0  0  0  0
  -28.9380  -23.2850   20.4560 C   0  0  0  0  0  0  0  0  0  0  0  0
  -29.9090  -23.5280   21.1780 O   0  0  0  0  0  0  0  0  0  0  0  0
  -27.9700  -24.5900   20.0110 C   0  0  0  0  0  2  0  0  0  0  0  0
  -28.2490  -26.1140   20.3440 O   0  0  0  0  0  0  0  0  0  0  0  0
  -24.5920  -31.8830   23.2560 C   0  0  0  0  0  0  0  0  0  0  0  0
  -27.2170  -27.1380   20.2520 C   0  0  0  0  0  0  0  0  0  0  0  0
  -23.4190  -30.4830   21.6050 C   0  0  0  0  0  3  0  0  0  0  0  0
  -24.8910  -28.9120   20.1910 C   0  0  0  0  0  0  0  0  0  0  0  0
  -25.9770  -30.7460   21.4730 C   0  0  0  0  0  2  0  0  0  0  0  0
  -26.0640  -29.3490   20.8190 C   0  0  0  0  0  0  0  0  0  0  0  0
  -27.2260  -28.4790   20.8310 C   0  0  0  0  0  3  0  0  0  0  0  0
  -26.0170  -26.8200   19.5760 C   0  0  0  0  0  3  0  0  0  0  0  0
  -24.8840  -27.6630   19.5530 C   0  0  0  0  0  3  0  0  0  0  0  0
  -23.6600  -29.8070   20.2280 C   0  0  0  0  0  2  0  0  0  0  0  0
  -24.6830  -31.0590   22.1660 N   0  0  0  0  0  0  0  0  0  0  0  0
  -23.4970  -32.1640   23.7690 O   0  0  0  0  0  0  0  0  0  0  0  0
  -22.7300  -29.4740   22.5580 C   0  0  0  0  0  0  0  0  0  0  0  0
  -21.4040  -29.2950   22.4140 N   0  0  0  0  0  0  0  0  0  0  0  0
  -23.3920  -28.8540   23.3940 O   0  0  0  0  0  0  0  0  0  0  0  0
  -20.9240  -29.8470   21.7170 H   0  0  0  0  0  0  0  0  0  0  0  0
  -18.0220  -28.0820   22.8870 C   0  0  0  0  0  0  0  0  0  0  0  0
  -20.5770  -28.3530   23.1750 C   0  0  0  0  0  3  0  0  0  0  0  0
  -20.6880  -26.9230   22.5990 C   0  0  0  0  0  2  0  0  0  0  0  0
  -19.5960  -26.5990   21.5750 C   0  0  0  0  0  2  0  0  0  0  0  0
  -18.2080  -26.7360   22.2070 C   0  0  0  0  0  2  0  0  0  0  0  0
  -19.1340  -28.8480   23.3280 C   0  0  0  0  0  0  0  0  0  0  0  0
  -18.9030  -30.1060   23.9240 C   0  0  0  0  0  3  0  0  0  0  0  0
  -17.5940  -30.6000   24.0840 C   0  0  0  0  0  3  0  0  0  0  0  0
  -16.4970  -29.8310   23.6590 C   0  0  0  0  0  3  0  0  0  0  0  0
  -16.7110  -28.5740   23.0670 C   0  0  0  0  0  3  0  0  0  0  0  0
  -25.8580  -32.5260   23.8990 C   0  0  0  0  0  3  0  0  0  0  0  0
  -26.3360  -31.7820   25.2070 C   0  0  1  0  0  0  0  0  0  0  0  0
  -25.2130  -31.5720   26.2490 C   0  0  0  0  0  1  0  0  0  0  0  0
  -26.9230  -30.3930   24.8670 C   0  0  0  0  0  1  0  0  0  0  0  0
  -27.4730  -32.5860   25.8810 C   0  0  0  0  0  1  0  0  0  0  0  0
  -25.5440  -33.9330   24.1990 N   0  0  0  0  0  0  0  0  0  0  0  0
  -25.8900  -34.9760   23.4320 C   0  0  0  0  0  0  0  0  0  0  0  0
  -26.5730  -34.8550   22.4110 O   0  0  0  0  0  0  0  0  0  0  0  0
  -24.9350  -34.1000   24.9870 H   0  0  0  0  0  0  0  0  0  0  0  0
  -24.1770  -36.7760   23.0310 C   0  0  0  0  0  1  0  0  0  0  0  0
  -25.4050  -36.3740   23.8640 C   0  0  0  0  0  3  0  0  0  0  0  0
  -27.5280  -37.2660   24.7170 C   0  0  0  0  0  1  0  0  0  0  0  0
  -26.4450  -37.4210   23.7500 N   0  0  0  0  0  0  0  0  0  0  0  0
  -26.0400  -38.3450   23.8730 H   0  0  0  0  0  0  0  0  0  0  0  0
  -29.6050  -20.2830   20.5220 C   0  0  0  0  0  3  0  0  0  0  0  0
  -30.7140  -15.1380   20.2590 C   0  0  0  0  0  0  0  0  0  0  0  0
  -30.5770  -12.7610   19.3440 C   0  0  0  0  0  2  0  0  0  0  0  0
  -29.6350  -12.6400   18.1260 C   0  0  0  0  0  2  0  0  0  0  0  0
  -28.1890  -12.3990   18.5920 C   0  0  0  0  0  2  0  0  0  0  0  0
  -27.7730  -13.3500   19.7450 C   0  0  0  0  0  3  0  0  0  0  0  0
  -28.8440  -13.4530   20.8500 C   0  0  0  0  0  2  0  0  0  0  0  0
  -30.0790  -13.8900   20.1890 N   0  0  0  0  0  0  0  0  0  0  0  0
  -31.9320  -15.1140   20.0410 O   0  0  0  0  0  0  0  0  0  0  0  0
  -29.3510  -17.3800   21.0770 C   0  0  0  0  0  2  0  0  0  0  0  0
  -30.6280  -17.7030   19.5890 C   0  0  0  0  0  2  0  0  0  0  0  0
  -29.4070  -18.6340   20.0450 C   0  0  2  0  0  0  0  0  0  0  0  0
  -30.0260  -16.4070   20.1210 N   0  0  0  0  0  0  0  0  0  0  0  0
  -25.4130  -13.8990   20.5510 C   0  0  0  0  0  0  0  0  0  0  0  0
  -24.3570  -13.1120   20.9190 C   0  0  0  0  0  0  0  0  0  0  0  0
  -24.8270  -11.7650   20.8570 C   0  0  0  0  0  0  0  0  0  0  0  0
  -26.4540  -13.0310   20.2740 N   0  0  0  0  0  0  0  0  0  0  0  0
  -26.1140  -11.7400   20.5270 N   0  0  0  0  0  0  0  0  0  0  0  0
  -24.1080  -10.4970   21.0340 C   0  0  0  0  0  0  0  0  0  0  0  0
  -24.5360   -9.5280   21.9670 C   0  0  0  0  0  3  0  0  0  0  0  0
  -23.8120   -8.3270   22.1350 C   0  0  0  0  0  3  0  0  0  0  0  0
  -22.6480   -8.0880   21.3680 C   0  0  0  0  0  0  0  0  0  0  0  0
  -22.2390   -9.0450   20.4240 C   0  0  0  0  0  3  0  0  0  0  0  0
  -22.9630  -10.2380   20.2560 C   0  0  0  0  0  3  0  0  0  0  0  0
  -21.8960   -6.9390   21.4460 O   0  0  0  0  0  0  0  0  0  0  0  0
  -21.8060   -6.2160   22.6080 C   0  0  0  0  0  0  0  0  0  0  0  0
  -21.2890   -6.7750   23.7970 C   0  0  0  0  0  3  0  0  0  0  0  0
  -21.1500   -5.9750   24.9490 C   0  0  0  0  0  3  0  0  0  0  0  0
  -21.5170   -4.6170   24.9120 C   0  0  0  0  0  0  0  0  0  0  0  0
  -22.0270   -4.0570   23.7270 C   0  0  0  0  0  3  0  0  0  0  0  0
  -22.1680   -4.8540   22.5780 C   0  0  0  0  0  0  0  0  0  0  0  0
  -22.6390   -4.3040   21.4330 F   0  0  0  0  0  0  0  0  0  0  0  0
  -21.3760   -3.8460   26.0160 F   0  0  0  0  0  0  0  0  0  0  0  0
  -22.9630  -13.5820   21.2150 C   0  0  0  0  0  0  0  0  0  0  0  0
  -22.2530  -12.8780   22.0890 N   0  0  0  0  0  0  0  0  0  0  0  0
  -22.5130  -14.6080   20.7070 O   0  0  0  0  0  0  0  0  0  0  0  0
  -22.6310  -12.0480   22.5210 H   0  0  0  0  0  0  0  0  0  0  0  0
  -21.3190  -13.1770   22.3320 H   0  0  0  0  0  0  0  0  0  0  0  0
  -25.5660  -15.2720   20.4030 N   0  0  0  0  0  0  0  0  0  0  0  0
  -24.7980  -15.9190   20.5480 H   0  0  0  0  0  0  0  0  0  0  0  0
  -26.4140  -15.7260   20.0890 H   0  0  0  0  0  0  0  0  0  0  0  0
  -27.4840  -17.5580   18.4910 C   0  0  0  0  0  2  0  0  0  0  0  0
  -26.8460  -18.6110   19.3760 C   0  0  0  0  0  2  0  0  0  0  0  0
  -28.3020  -18.7230   18.9920 C   0  0  0  0  0  3  0  0  0  0  0  0
  1  2  1  0
  1 46  2  0
  2  3  2  0
  4  5  1  0
  4  2  1  0
  6 17  2  0
  7  5  1  0
  7 12  1  0
  8 16  1  0
  8 18  1  0
  9 15  1  0
  9 11  1  0
 10 16  1  0
 11 12  2  0
 11 10  1  0
 13  7  2  0
 14 13  1  0
 14  9  2  0
 15  8  1  0
 16  6  1  0
 18 20  2  0
 19 18  1  0
 21 19  1  0
 22 31  2  0
 22 27  1  0
 23 19  1  0
 23 27  1  0
 24 23  1  0
 25 26  1  0
 25 24  1  0
 26 22  1  0
 27 28  2  0
 28 29  1  0
 30 29  2  0
 31 30  1  0
 32  6  1  0
 32 37  1  0
 32 33  1  0
 33 36  1  1
 33 34  1  0
 35 33  1  0
 37 40  1  0
 38 42  1  0
 38 37  1  0
 39 38  2  0
 42 41  1  0
 44 42  1  0
 44 45  1  0
 44 43  1  0
 48 53  1  0
 49 50  1  0
 49 48  1  0
 51 50  1  0
 51 62  1  0
 51 52  1  0
 53 47  1  0
 53 52  1  0
 54 47  2  0
 56 57  1  0
 56 58  1  0
 57 46  1  0
 57 55  1  0
 58 47  1  0
 58 55  1  0
 59 60  2  0
 60 79  1  0
 61 60  1  0
 61 64  1  0
 62 63  1  0
 62 59  1  0
 63 61  2  0
 64 65  1  0
 65 66  2  0
 67 70  1  0
 67 66  1  0
 68 67  2  0
 69 68  1  0
 69 64  2  0
 70 71  1  0
 71 72  1  0
 72 73  2  0
 74 73  1  0
 74 78  1  0
 75 74  2  0
 76 71  2  0
 76 75  1  0
 77 76  1  0
 79 80  1  0
 80 83  1  0
 80 82  1  0
 81 79  2  0
 84 85  1  0
 84 59  1  0
 86 84  1  0
 87 89  1  0
 87 88  1  0
 89 88  1  0
 57 89  1  6
M  ISO  4   4 101   5 101  47 100  58 100
M  END
>  <TORSDO>  (91) 
F 20

>  <SCORE>  (91) 
-14.685

>  <name>  (91) 
91

>  <ligand_id>  (91) 
91

>  <original_smiles>  (91) 
[H]c1c([H])c([H])c2c(c1[H])C([H])([H])C([H])([H])C([H])([H])C2([H])N([H])C(=O)C1([H])N(C(=O)C([H])(N([H])C(=O)C([H])(N([H])C([H])([H])[H])C([H])([H])[H])C(C([H])([H])[H])(C([H])([H])[H])C([H])([H])[H])C([H])([H])c2c([H])c(OC([H])([H])C(=O)C([H])([H])C([H])([H])C3(C4([H])C([H])([H])C4([H])[H])C([H])([H])N(C(=O)N4C([H])([H])C([H])([H])C([H])([H])C([H])(n5nc(-c6c([H])c([H])c(Oc7c([H])c([H])c(F)c([H])c7F)c([H])c6[H])c(C(=O)N([H])[H])c5N([H])[H])C4([H])[H])C3([H])[H])c([H])c([H])c2C1([H])[H]

>  <smiles>  (91) 
[H]c1c([H])c([H])c2c(c1[H])C([H])([H])C([H])([H])C([H])([H])C2([H])N([H])C(=O)C1([H])N(C(=O)C([H])(N([H])C(=O)C([H])(N([H])C([H])([H])[H])C([H])([H])[H])C(C([H])([H])[H])(C([H])([H])[H])C([H])([H])[H])C([H])([H])c2c([H])c(OC([H])([H])C(=O)C([H])([H])C([H])([H])C3(C4([H])C([H])([H])C4([H])[H])C([H])([H])N(C(=O)N4C([H])([H])C([H])([H])C([H])([H])C([H])(n5nc(-c6c([H])c([H])c(Oc7c([H])c([H])c(F)c([H])c7F)c([H])c6[H])c(C(=O)N([H])[H])c5N([H])[H])C4([H])[H])C3([H])[H])c([H])c([H])c2C1([H])[H]

$$$$
92:0:0
     RDKit          3D

 92101  0  0  1  0  0  0  0  0999 V2000
  -29.4230  -20.4940   21.5320 C   0  0  0  0  0  3  0  0  0  0  0  0
  -28.5890  -21.8240   21.1720 C   0  0  0  0  0  3  0  0  0  0  0  0
  -28.1820  -21.6770   19.7560 C   0  0  0  0  0  3  0  0  0  0  0  0
  -29.6760  -19.5050   20.3090 C   0  0  0  0  0  0  0  0  0  0  0  0
  -28.8100  -23.0980   20.2080 C   0  0  0  0  0  3  0  0  0  0  0  0
  -28.7300  -20.2370   19.2530 C   0  0  0  0  0  3  0  0  0  0  0  0
  -30.3350  -17.8830   20.3390 C   0  0  0  0  0  2  0  0  0  0  0  0
  -30.5290  -15.1280   20.3190 C   0  0  0  0  0  0  0  0  0  0  0  0
  -30.4210  -12.7540   19.3870 C   0  0  0  0  0  2  0  0  0  0  0  0
  -29.4920  -12.6600   18.1550 C   0  0  0  0  0  2  0  0  0  0  0  0
  -28.0370  -12.4190   18.5940 C   0  0  0  0  0  2  0  0  0  0  0  0
  -27.6130  -13.3490   19.7610 C   0  0  0  0  0  3  0  0  0  0  0  0
  -28.6690  -13.4180   20.8830 C   0  0  0  0  0  2  0  0  0  0  0  0
  -29.9210  -13.8640   20.2590 N   0  0  0  0  0  0  0  0  0  0  0  0
  -31.7390  -15.1470   20.0630 O   0  0  0  0  0  0  0  0  0  0  0  0
  -29.8050  -16.3720   20.4480 N   0  0  0  0  0  0  0  0  0  0  0  0
  -28.8140  -16.2710   20.6100 H   0  0  0  0  0  0  0  0  0  0  0  0
  -25.2330  -13.8930   20.5170 C   0  0  0  0  0  0  0  0  0  0  0  0
  -24.1780  -13.1050   20.8840 C   0  0  0  0  0  0  0  0  0  0  0  0
  -24.6570  -11.7590   20.8440 C   0  0  0  0  0  0  0  0  0  0  0  0
  -26.2830  -13.0280   20.2660 N   0  0  0  0  0  0  0  0  0  0  0  0
  -25.9480  -11.7390   20.5320 N   0  0  0  0  0  0  0  0  0  0  0  0
  -23.9410  -10.4890   21.0260 C   0  0  0  0  0  0  0  0  0  0  0  0
  -24.3660   -9.5290   21.9710 C   0  0  0  0  0  3  0  0  0  0  0  0
  -23.6480   -8.3260   22.1410 C   0  0  0  0  0  3  0  0  0  0  0  0
  -22.4900   -8.0730   21.3680 C   0  0  0  0  0  0  0  0  0  0  0  0
  -22.0840   -9.0210   20.4130 C   0  0  0  0  0  3  0  0  0  0  0  0
  -22.8030  -10.2160   20.2400 C   0  0  0  0  0  3  0  0  0  0  0  0
  -21.7450   -6.9220   21.4470 O   0  0  0  0  0  0  0  0  0  0  0  0
  -21.6580   -6.1990   22.6100 C   0  0  0  0  0  0  0  0  0  0  0  0
  -21.1490   -6.7610   23.8010 C   0  0  0  0  0  3  0  0  0  0  0  0
  -21.0130   -5.9620   24.9540 C   0  0  0  0  0  3  0  0  0  0  0  0
  -21.3790   -4.6040   24.9170 C   0  0  0  0  0  0  0  0  0  0  0  0
  -21.8810   -4.0410   23.7310 C   0  0  0  0  0  3  0  0  0  0  0  0
  -22.0180   -4.8370   22.5800 C   0  0  0  0  0  0  0  0  0  0  0  0
  -22.4840   -4.2840   21.4340 F   0  0  0  0  0  0  0  0  0  0  0  0
  -21.2410   -3.8340   26.0230 F   0  0  0  0  0  0  0  0  0  0  0  0
  -22.7770  -13.5680   21.1550 C   0  0  0  0  0  0  0  0  0  0  0  0
  -22.0550  -12.8640   22.0190 N   0  0  0  0  0  0  0  0  0  0  0  0
  -22.3300  -14.5900   20.6350 O   0  0  0  0  0  0  0  0  0  0  0  0
  -22.4290  -12.0390   22.4630 H   0  0  0  0  0  0  0  0  0  0  0  0
  -21.1150  -13.1570   22.2430 H   0  0  0  0  0  0  0  0  0  0  0  0
  -25.3820  -15.2660   20.3460 N   0  0  0  0  0  0  0  0  0  0  0  0
  -24.6050  -15.9090   20.4610 H   0  0  0  0  0  0  0  0  0  0  0  0
  -26.2170  -15.7150   19.9950 H   0  0  0  0  0  0  0  0  0  0  0  0
  -29.3490  -20.3160   17.8400 C   0  0  0  0  0  2  0  0  0  0  0  0
  -28.3670  -20.7160   16.8170 N   0  0  0  0  0  4  0  0  0  0  0  0
  -28.8030  -20.7270   15.9110 H   0  0  0  0  0  0  0  0  0  0  0  0
  -28.0100  -21.6350   17.0030 H   0  0  0  0  0  0  0  0  0  0  0  0
  -27.6000  -20.0690   16.7870 H   0  0  0  0  0  0  0  0  0  0  0  0
  -27.8960  -24.5460   20.1510 C   0  0  0  0  0  2  0  0  0  0  0  0
  -28.2190  -26.1020   20.2520 O   0  0  0  0  0  0  0  0  0  0  0  0
  -24.6550  -31.9160   23.2390 C   0  0  0  0  0  0  0  0  0  0  0  0
  -27.1870  -27.1350   20.1970 C   0  0  0  0  0  0  0  0  0  0  0  0
  -23.4420  -30.5260   21.6070 C   0  0  0  0  0  3  0  0  0  0  0  0
  -24.8750  -28.9380   20.1730 C   0  0  0  0  0  0  0  0  0  0  0  0
  -26.0020  -30.7630   21.4330 C   0  0  0  0  0  2  0  0  0  0  0  0
  -26.0650  -29.3650   20.7790 C   0  0  0  0  0  0  0  0  0  0  0  0
  -27.2200  -28.4820   20.7690 C   0  0  0  0  0  3  0  0  0  0  0  0
  -25.9670  -26.8310   19.5510 C   0  0  0  0  0  3  0  0  0  0  0  0
  -24.8440  -27.6870   19.5420 C   0  0  0  0  0  3  0  0  0  0  0  0
  -23.6560  -29.8480   20.2270 C   0  0  0  0  0  2  0  0  0  0  0  0
  -24.7200  -31.0910   22.1470 N   0  0  0  0  0  0  0  0  0  0  0  0
  -23.5720  -32.2060   23.7700 O   0  0  0  0  0  0  0  0  0  0  0  0
  -22.7600  -29.5240   22.5740 C   0  0  0  0  0  0  0  0  0  0  0  0
  -21.4310  -29.3510   22.4480 N   0  0  0  0  0  0  0  0  0  0  0  0
  -23.4310  -28.9030   23.4030 O   0  0  0  0  0  0  0  0  0  0  0  0
  -20.9460  -29.9040   21.7550 H   0  0  0  0  0  0  0  0  0  0  0  0
  -18.0510  -28.1480   22.9610 C   0  0  0  0  0  0  0  0  0  0  0  0
  -20.6100  -28.4170   23.2230 C   0  0  0  0  0  3  0  0  0  0  0  0
  -20.7120  -26.9820   22.6540 C   0  0  0  0  0  2  0  0  0  0  0  0
  -19.6090  -26.6540   21.6420 C   0  0  0  0  0  2  0  0  0  0  0  0
  -18.2290  -26.7980   22.2870 C   0  0  0  0  0  2  0  0  0  0  0  0
  -19.1690  -28.9150   23.3870 C   0  0  0  0  0  0  0  0  0  0  0  0
  -18.9460  -30.1760   23.9790 C   0  0  0  0  0  3  0  0  0  0  0  0
  -17.6400  -30.6730   24.1490 C   0  0  0  0  0  3  0  0  0  0  0  0
  -16.5370  -29.9030   23.7380 C   0  0  0  0  0  3  0  0  0  0  0  0
  -16.7440  -28.6430   23.1510 C   0  0  0  0  0  3  0  0  0  0  0  0
  -25.9360  -32.5510   23.8600 C   0  0  0  0  0  3  0  0  0  0  0  0
  -26.4540  -31.7760   25.1350 C   0  0  1  0  0  0  0  0  0  0  0  0
  -25.3610  -31.5360   26.2050 C   0  0  0  0  0  1  0  0  0  0  0  0
  -27.0360  -30.3990   24.7440 C   0  0  0  0  0  1  0  0  0  0  0  0
  -27.6050  -32.5680   25.7960 C   0  0  0  0  0  1  0  0  0  0  0  0
  -25.6250  -33.9470   24.2040 N   0  0  0  0  0  0  0  0  0  0  0  0
  -25.9290  -35.0080   23.4430 C   0  0  0  0  0  0  0  0  0  0  0  0
  -26.5640  -34.9130   22.3900 O   0  0  0  0  0  0  0  0  0  0  0  0
  -25.0570  -34.0950   25.0240 H   0  0  0  0  0  0  0  0  0  0  0  0
  -24.1760  -36.7940   23.1730 C   0  0  0  0  0  1  0  0  0  0  0  0
  -25.4550  -36.3940   23.9250 C   0  0  0  0  0  3  0  0  0  0  0  0
  -27.6140  -37.2980   24.6690 C   0  0  0  0  0  1  0  0  0  0  0  0
  -26.4750  -37.4540   23.7690 N   0  0  0  0  0  0  0  0  0  0  0  0
  -26.0680  -38.3720   23.9280 H   0  0  0  0  0  0  0  0  0  0  0  0
  2  1  1  0
  3  5  1  0
  3  2  1  0
  4  7  1  0
  4  1  2  0
  5  2  1  0
  6  3  1  0
  6  4  1  0
  7 16  1  0
  8 16  1  0
  9 14  1  0
 10 11  1  0
 10  9  1  0
 11 12  1  0
 12 21  1  0
 12 13  1  0
 14  8  1  0
 14 13  1  0
 15  8  2  0
 16 17  1  0
 18 19  2  0
 19 38  1  0
 20 19  1  0
 20 23  1  0
 21 18  1  0
 21 22  1  0
 22 20  2  0
 23 24  1  0
 24 25  2  0
 26 29  1  0
 26 25  1  0
 27 26  2  0
 28 27  1  0
 28 23  2  0
 29 30  1  0
 30 31  1  0
 31 32  2  0
 33 32  1  0
 33 37  1  0
 34 33  2  0
 35 30  2  0
 35 34  1  0
 36 35  1  0
 38 39  1  0
 39 42  1  0
 39 41  1  0
 40 38  2  0
 43 44  1  0
 43 18  1  0
 45 43  1  0
 46  6  1  0
 47 49  1  0
 47 46  1  0
 48 47  1  0
 50 47  1  0
 51  5  1  0
 51 52  1  0
 53 64  2  0
 53 79  1  0
 54 52  1  0
 54 59  1  0
 55 63  1  0
 55 65  1  0
 56 62  1  0
 56 58  1  0
 57 63  1  0
 58 57  1  0
 59 58  2  0
 60 54  2  0
 61 60  1  0
 61 56  2  0
 62 55  1  0
 63 53  1  0
 65 67  2  0
 66 65  1  0
 66 70  1  0
 68 66  1  0
 69 78  2  0
 69 74  1  0
 70 74  1  0
 71 70  1  0
 72 73  1  0
 72 71  1  0
 73 69  1  0
 74 75  2  0
 75 76  1  0
 77 76  2  0
 78 77  1  0
 79 84  1  0
 79 80  1  0
 80 83  1  1
 80 81  1  0
 82 80  1  0
 84 87  1  0
 85 89  1  0
 85 84  1  0
 86 85  2  0
 88 89  1  0
 91 89  1  0
 91 92  1  0
 91 90  1  0
M  ISO  4   8 100  16 100  51 101  52 101
M  END
>  <TORSDO>  (92) 
F 20

>  <SCORE>  (92) 
-15.098

>  <name>  (92) 
92

>  <ligand_id>  (92) 
92

>  <original_smiles>  (92) 
[H]c1c([H])c([H])c2c(c1[H])C([H])([H])C([H])([H])C([H])([H])C2([H])N([H])C(=O)C1([H])N(C(=O)C([H])(N([H])C(=O)C([H])(N([H])C([H])([H])[H])C([H])([H])[H])C(C([H])([H])[H])(C([H])([H])[H])C([H])([H])[H])C([H])([H])c2c([H])c(OC([H])([H])C3([H])C4([H])C([H])([H])C([H])(C([H])([H])N([H])C(=O)N5C([H])([H])C([H])([H])C([H])([H])C([H])(n6nc(-c7c([H])c([H])c(Oc8c([H])c([H])c(F)c([H])c8F)c([H])c7[H])c(C(=O)N([H])[H])c6N([H])[H])C5([H])[H])C([H])(C([H])([H])[N+]([H])([H])[H])C34[H])c([H])c([H])c2C1([H])[H]

>  <smiles>  (92) 
[H]c1c([H])c([H])c2c(c1[H])C([H])([H])C([H])([H])C([H])([H])C2([H])N([H])C(=O)C1([H])N(C(=O)C([H])(N([H])C(=O)C([H])(N([H])C([H])([H])[H])C([H])([H])[H])C(C([H])([H])[H])(C([H])([H])[H])C([H])([H])[H])C([H])([H])c2c([H])c(OC([H])([H])C3([H])C4([H])C([H])([H])C([H])(C([H])([H])N([H])C(=O)N5C([H])([H])C([H])([H])C([H])([H])C([H])(n6nc(-c7c([H])c([H])c(Oc8c([H])c([H])c(F)c([H])c8F)c([H])c7[H])c(C(=O)N([H])[H])c6N([H])[H])C5([H])[H])C([H])(C([H])([H])[N+]([H])([H])[H])C34[H])c([H])c([H])c2C1([H])[H]

$$$$
93:0:0
     RDKit          3D

 93102  0  0  1  0  0  0  0  0999 V2000
  -31.1970  -20.7020   21.0470 C   0  0  0  0  0  0  0  0  0  0  0  0
  -30.3040  -20.5380   18.6630 C   0  0  0  0  0  2  0  0  0  0  0  0
  -29.2780  -21.6600   18.4660 C   0  0  0  0  0  2  0  0  0  0  0  0
  -30.8720  -22.8610   20.1630 C   0  0  0  0  0  2  0  0  0  0  0  0
  -29.9450  -20.4870   20.1730 C   0  0  2  0  0  0  0  0  0  0  0  0
  -29.5280  -22.1280   19.9030 C   0  0  2  0  0  0  0  0  0  0  0  0
  -32.8660  -22.4570   21.6390 C   0  0  0  0  0  1  0  0  0  0  0  0
  -31.6580  -21.9570   20.9850 N   0  0  0  0  0  0  0  0  0  0  0  0
  -31.7000  -19.8200   21.7470 O   0  0  0  0  0  0  0  0  0  0  0  0
  -27.0710  -22.6940   20.6550 C   0  0  0  0  0  1  0  0  0  0  0  0
  -28.4760  -23.2890   20.4940 C   0  0  0  0  0  3  0  0  0  0  0  0
  -28.3560  -24.7840   19.7190 C   0  0  0  0  0  2  0  0  0  0  0  0
  -28.2730  -26.2140   20.3020 O   0  0  0  0  0  0  0  0  0  0  0  0
  -24.6000  -31.8320   23.2310 C   0  0  0  0  0  0  0  0  0  0  0  0
  -27.1840  -27.1460   20.1900 C   0  0  0  0  0  0  0  0  0  0  0  0
  -23.3980  -30.4370   21.5900 C   0  0  0  0  0  3  0  0  0  0  0  0
  -24.8450  -28.8660   20.1600 C   0  0  0  0  0  0  0  0  0  0  0  0
  -25.9480  -30.7120   21.4200 C   0  0  0  0  0  2  0  0  0  0  0  0
  -26.0220  -29.3230   20.7660 C   0  0  0  0  0  0  0  0  0  0  0  0
  -27.1880  -28.4760   20.7650 C   0  0  0  0  0  3  0  0  0  0  0  0
  -25.9780  -26.7760   19.5540 C   0  0  0  0  0  3  0  0  0  0  0  0
  -24.8350  -27.6050   19.5420 C   0  0  0  0  0  3  0  0  0  0  0  0
  -23.6160  -29.7580   20.2100 C   0  0  0  0  0  2  0  0  0  0  0  0
  -24.6690  -31.0140   22.1350 N   0  0  0  0  0  0  0  0  0  0  0  0
  -23.5150  -32.1150   23.7600 O   0  0  0  0  0  0  0  0  0  0  0  0
  -22.7230  -29.4280   22.5530 C   0  0  0  0  0  0  0  0  0  0  0  0
  -21.3930  -29.2660   22.4360 N   0  0  0  0  0  0  0  0  0  0  0  0
  -23.3970  -28.7950   23.3700 O   0  0  0  0  0  0  0  0  0  0  0  0
  -20.9060  -29.8290   21.7530 H   0  0  0  0  0  0  0  0  0  0  0  0
  -18.0100  -28.0800   22.9490 C   0  0  0  0  0  0  0  0  0  0  0  0
  -20.5710  -28.3310   23.2080 C   0  0  0  0  0  3  0  0  0  0  0  0
  -20.6640  -26.8990   22.6320 C   0  0  0  0  0  2  0  0  0  0  0  0
  -19.5580  -26.5820   21.6200 C   0  0  0  0  0  2  0  0  0  0  0  0
  -18.1790  -26.7310   22.2690 C   0  0  0  0  0  2  0  0  0  0  0  0
  -19.1340  -28.8380   23.3750 C   0  0  0  0  0  0  0  0  0  0  0  0
  -18.9200  -30.0990   23.9720 C   0  0  0  0  0  3  0  0  0  0  0  0
  -17.6170  -30.6030   24.1450 C   0  0  0  0  0  3  0  0  0  0  0  0
  -16.5090  -29.8430   23.7330 C   0  0  0  0  0  3  0  0  0  0  0  0
  -16.7070  -28.5820   23.1420 C   0  0  0  0  0  3  0  0  0  0  0  0
  -25.8800  -32.4670   23.8560 C   0  0  0  0  0  3  0  0  0  0  0  0
  -26.3810  -31.7090   25.1470 C   0  0  1  0  0  0  0  0  0  0  0  0
  -25.2780  -31.4940   26.2110 C   0  0  0  0  0  1  0  0  0  0  0  0
  -26.9570  -30.3230   24.7820 C   0  0  0  0  0  1  0  0  0  0  0  0
  -27.5310  -32.5060   25.8090 C   0  0  0  0  0  1  0  0  0  0  0  0
  -25.5740  -33.8710   24.1730 N   0  0  0  0  0  0  0  0  0  0  0  0
  -25.9070  -34.9190   23.4080 C   0  0  0  0  0  0  0  0  0  0  0  0
  -26.5730  -34.8050   22.3740 O   0  0  0  0  0  0  0  0  0  0  0  0
  -24.9850  -34.0340   24.9760 H   0  0  0  0  0  0  0  0  0  0  0  0
  -24.1840  -36.7190   23.0530 C   0  0  0  0  0  1  0  0  0  0  0  0
  -25.4300  -36.3130   23.8580 C   0  0  0  0  0  3  0  0  0  0  0  0
  -27.5720  -37.1990   24.6690 C   0  0  0  0  0  1  0  0  0  0  0  0
  -26.4650  -37.3620   23.7300 N   0  0  0  0  0  0  0  0  0  0  0  0
  -26.0630  -38.2840   23.8700 H   0  0  0  0  0  0  0  0  0  0  0  0
  -29.2810  -18.9760   20.4870 C   0  0  0  0  0  3  0  0  0  0  0  0
  -30.1880  -17.5690   20.2260 C   0  0  0  0  0  3  0  0  0  0  0  0
  -30.4850  -14.8800   20.2520 C   0  0  0  0  0  0  0  0  0  0  0  0
  -30.3160  -12.5540   19.2840 C   0  0  0  0  0  2  0  0  0  0  0  0
  -29.3790  -12.5560   18.0550 C   0  0  0  0  0  2  0  0  0  0  0  0
  -27.9160  -12.3520   18.4940 C   0  0  0  0  0  2  0  0  0  0  0  0
  -27.5270  -13.2640   19.6870 C   0  0  0  0  0  3  0  0  0  0  0  0
  -28.5870  -13.2480   20.8090 C   0  0  0  0  0  2  0  0  0  0  0  0
  -29.8620  -13.6390   20.1990 N   0  0  0  0  0  0  0  0  0  0  0  0
  -31.6830  -14.9310   19.9530 O   0  0  0  0  0  0  0  0  0  0  0  0
  -29.7410  -16.0740   20.4200 N   0  0  0  0  0  0  0  0  0  0  0  0
  -28.7630  -15.9340   20.6260 H   0  0  0  0  0  0  0  0  0  0  0  0
  -25.1450  -13.8450   20.4250 C   0  0  0  0  0  0  0  0  0  0  0  0
  -24.0850  -13.0690   20.8050 C   0  0  0  0  0  0  0  0  0  0  0  0
  -24.5530  -11.7200   20.7840 C   0  0  0  0  0  0  0  0  0  0  0  0
  -26.1900  -12.9670   20.1900 N   0  0  0  0  0  0  0  0  0  0  0  0
  -25.8440  -11.6840   20.4730 N   0  0  0  0  0  0  0  0  0  0  0  0
  -23.8290  -10.4570   20.9830 C   0  0  0  0  0  0  0  0  0  0  0  0
  -24.2560   -9.5020   21.9330 C   0  0  0  0  0  3  0  0  0  0  0  0
  -23.5330   -8.3050   22.1210 C   0  0  0  0  0  3  0  0  0  0  0  0
  -22.3670   -8.0530   21.3580 C   0  0  0  0  0  0  0  0  0  0  0  0
  -21.9600   -8.9960   20.3970 C   0  0  0  0  0  3  0  0  0  0  0  0
  -22.6840  -10.1850   20.2090 C   0  0  0  0  0  3  0  0  0  0  0  0
  -21.6140   -6.9080   21.4540 O   0  0  0  0  0  0  0  0  0  0  0  0
  -21.5540   -6.1830   22.6170 C   0  0  0  0  0  0  0  0  0  0  0  0
  -21.1020   -6.7510   23.8290 C   0  0  0  0  0  3  0  0  0  0  0  0
  -20.9900   -5.9510   24.9830 C   0  0  0  0  0  3  0  0  0  0  0  0
  -21.3190   -4.5830   24.9270 C   0  0  0  0  0  0  0  0  0  0  0  0
  -21.7620   -4.0130   23.7210 C   0  0  0  0  0  3  0  0  0  0  0  0
  -21.8760   -4.8110   22.5690 C   0  0  0  0  0  0  0  0  0  0  0  0
  -22.2840   -4.2520   21.4040 F   0  0  0  0  0  0  0  0  0  0  0  0
  -21.2040   -3.8130   26.0340 F   0  0  0  0  0  0  0  0  0  0  0  0
  -22.6860  -13.5440   21.0710 C   0  0  0  0  0  0  0  0  0  0  0  0
  -21.9560  -12.8500   21.9360 N   0  0  0  0  0  0  0  0  0  0  0  0
  -22.2490  -14.5670   20.5450 O   0  0  0  0  0  0  0  0  0  0  0  0
  -22.3220  -12.0230   22.3840 H   0  0  0  0  0  0  0  0  0  0  0  0
  -21.0180  -13.1510   22.1580 H   0  0  0  0  0  0  0  0  0  0  0  0
  -25.3020  -15.2150   20.2340 N   0  0  0  0  0  0  0  0  0  0  0  0
  -24.5260  -15.8600   20.3350 H   0  0  0  0  0  0  0  0  0  0  0  0
  -26.1380  -15.6530   19.8710 H   0  0  0  0  0  0  0  0  0  0  0  0
  1  9  2  0
  2  5  1  0
  3  2  1  0
  3  6  1  0
  4  8  1  0
  5 54  1  1
  5  1  1  0
  6  4  1  0
  6  5  1  0
  6 11  1  1
  8  1  1  0
  8  7  1  0
 11 10  1  0
 12 13  1  0
 12 11  1  0
 14 25  2  0
 15 13  1  0
 15 20  1  0
 16 24  1  0
 16 26  1  0
 17 23  1  0
 17 19  1  0
 18 24  1  0
 19 18  1  0
 20 19  2  0
 21 15  2  0
 22 21  1  0
 22 17  2  0
 23 16  1  0
 24 14  1  0
 26 28  2  0
 27 26  1  0
 29 27  1  0
 30 39  2  0
 30 35  1  0
 31 27  1  0
 31 35  1  0
 32 31  1  0
 33 34  1  0
 33 32  1  0
 34 30  1  0
 35 36  2  0
 36 37  1  0
 38 37  2  0
 39 38  1  0
 40 14  1  0
 40 45  1  0
 40 41  1  0
 41 44  1  1
 41 42  1  0
 43 41  1  0
 45 48  1  0
 46 50  1  0
 46 45  1  0
 47 46  2  0
 50 49  1  0
 52 50  1  0
 52 53  1  0
 52 51  1  0
 55 64  1  0
 55 54  2  0
 56 64  1  0
 57 62  1  0
 58 59  1  0
 58 57  1  0
 60 59  1  0
 60 69  1  0
 60 61  1  0
 62 56  1  0
 62 61  1  0
 63 56  2  0
 64 65  1  0
 66 67  2  0
 67 86  1  0
 68 67  1  0
 68 71  1  0
 69 66  1  0
 69 70  1  0
 70 68  2  0
 71 72  1  0
 72 73  2  0
 74 77  1  0
 74 73  1  0
 75 74  2  0
 76 75  1  0
 76 71  2  0
 77 78  1  0
 78 79  1  0
 79 80  2  0
 81 80  1  0
 81 85  1  0
 82 81  2  0
 83 78  2  0
 83 82  1  0
 84 83  1  0
 86 87  1  0
 87 90  1  0
 87 89  1  0
 88 86  2  0
 91 92  1  0
 91 66  1  0
 93 91  1  0
M  ISO  4  12 101  13 101  56 100  64 100
M  END
>  <TORSDO>  (93) 
F 20

>  <SCORE>  (93) 
-13.593

>  <name>  (93) 
93

>  <ligand_id>  (93) 
93

>  <original_smiles>  (93) 
[H]c1c([H])c([H])c2c(c1[H])C([H])([H])C([H])([H])C([H])([H])C2([H])N([H])C(=O)C1([H])N(C(=O)C([H])(N([H])C(=O)C([H])(N([H])C([H])([H])[H])C([H])([H])[H])C(C([H])([H])[H])(C([H])([H])[H])C([H])([H])[H])C([H])([H])c2c([H])c(OC([H])([H])C([H])(C([H])([H])[H])C34C([H])([H])N(C([H])([H])[H])C(=O)C3(C([H])([H])C([H])([H])N([H])C(=O)N3C([H])([H])C([H])([H])C([H])([H])C([H])(n5nc(-c6c([H])c([H])c(Oc7c([H])c([H])c(F)c([H])c7F)c([H])c6[H])c(C(=O)N([H])[H])c5N([H])[H])C3([H])[H])C([H])([H])C4([H])[H])c([H])c([H])c2C1([H])[H]

>  <smiles>  (93) 
[H]c1c([H])c([H])c2c(c1[H])C([H])([H])C([H])([H])C([H])([H])C2([H])N([H])C(=O)C1([H])N(C(=O)C([H])(N([H])C(=O)C([H])(N([H])C([H])([H])[H])C([H])([H])[H])C(C([H])([H])[H])(C([H])([H])[H])C([H])([H])[H])C([H])([H])c2c([H])c(OC([H])([H])C([H])(C([H])([H])[H])C34C([H])([H])N(C([H])([H])[H])C(=O)C3(C([H])([H])C([H])([H])N([H])C(=O)N3C([H])([H])C([H])([H])C([H])([H])C([H])(n5nc(-c6c([H])c([H])c(Oc7c([H])c([H])c(F)c([H])c7F)c([H])c6[H])c(C(=O)N([H])[H])c5N([H])[H])C3([H])[H])C([H])([H])C4([H])[H])c([H])c([H])c2C1([H])[H]

$$$$
94:0:0
     RDKit          3D

 89 98  0  0  1  0  0  0  0  0999 V2000
  -29.3140  -20.6850   21.9070 C   0  0  0  0  0  2  0  0  0  0  0  0
  -28.8030  -22.1900   21.8090 C   0  0  0  0  0  2  0  0  0  0  0  0
  -29.9070  -19.0960   18.6660 C   0  0  0  0  0  2  0  0  0  0  0  0
  -29.8720  -20.7010   18.7150 C   0  0  0  0  0  2  0  0  0  0  0  0
  -29.8190  -18.4990   20.1040 C   0  0  0  0  0  3  0  0  0  0  0  0
  -28.8760  -19.9000   20.6360 C   0  0  0  0  0  3  0  0  0  0  0  0
  -28.9210  -22.6910   20.3410 C   0  0  0  0  0  3  0  0  0  0  0  0
  -28.8320  -21.1730   19.6840 N   0  0  1  0  0  4  0  0  0  0  0  0
  -27.9480  -21.1150   19.1950 H   0  0  0  0  0  0  0  0  0  0  0  0
  -30.4070  -15.5220   20.1390 C   0  0  0  0  0  0  0  0  0  0  0  0
  -30.4120  -13.0480   19.2910 C   0  0  0  0  0  2  0  0  0  0  0  0
  -29.4700  -12.7850   18.0880 C   0  0  0  0  0  2  0  0  0  0  0  0
  -28.0390  -12.4880   18.5670 C   0  0  0  0  0  2  0  0  0  0  0  0
  -27.5960  -13.4600   19.6870 C   0  0  0  0  0  3  0  0  0  0  0  0
  -28.6650  -13.6560   20.7830 C   0  0  0  0  0  2  0  0  0  0  0  0
  -29.8610  -14.1970   20.1120 N   0  0  0  0  0  0  0  0  0  0  0  0
  -31.6200  -15.5180   19.8800 O   0  0  0  0  0  0  0  0  0  0  0  0
  -29.6350  -16.8070   20.2580 N   0  0  0  0  0  0  0  0  0  0  0  0
  -28.6700  -16.5850   20.4610 H   0  0  0  0  0  0  0  0  0  0  0  0
  -25.2540  -13.9980   20.5310 C   0  0  0  0  0  0  0  0  0  0  0  0
  -24.2030  -13.2130   20.9150 C   0  0  0  0  0  0  0  0  0  0  0  0
  -24.6670  -11.8640   20.8400 C   0  0  0  0  0  0  0  0  0  0  0  0
  -26.2870  -13.1290   20.2330 N   0  0  0  0  0  0  0  0  0  0  0  0
  -25.9490  -11.8370   20.4880 N   0  0  0  0  0  0  0  0  0  0  0  0
  -23.9440  -10.5980   21.0220 C   0  0  0  0  0  0  0  0  0  0  0  0
  -24.3850   -9.6190   21.9400 C   0  0  0  0  0  3  0  0  0  0  0  0
  -23.6590   -8.4210   22.1130 C   0  0  0  0  0  3  0  0  0  0  0  0
  -22.4750   -8.1940   21.3710 C   0  0  0  0  0  0  0  0  0  0  0  0
  -22.0520   -9.1620   20.4440 C   0  0  0  0  0  3  0  0  0  0  0  0
  -22.7790  -10.3510   20.2680 C   0  0  0  0  0  3  0  0  0  0  0  0
  -21.7200   -7.0500   21.4560 O   0  0  0  0  0  0  0  0  0  0  0  0
  -21.6680   -6.3040   22.6060 C   0  0  0  0  0  0  0  0  0  0  0  0
  -21.2010   -6.8450   23.8240 C   0  0  0  0  0  3  0  0  0  0  0  0
  -21.0990   -6.0250   24.9660 C   0  0  0  0  0  3  0  0  0  0  0  0
  -21.4540   -4.6640   24.8900 C   0  0  0  0  0  0  0  0  0  0  0  0
  -21.9130   -4.1230   23.6760 C   0  0  0  0  0  3  0  0  0  0  0  0
  -22.0160   -4.9400   22.5370 C   0  0  0  0  0  0  0  0  0  0  0  0
  -22.4400   -4.4080   21.3650 F   0  0  0  0  0  0  0  0  0  0  0  0
  -21.3490   -3.8740   25.9830 F   0  0  0  0  0  0  0  0  0  0  0  0
  -22.8160  -13.6850   21.2340 C   0  0  0  0  0  0  0  0  0  0  0  0
  -22.1130  -12.9760   22.1100 N   0  0  0  0  0  0  0  0  0  0  0  0
  -22.3640  -14.7190   20.7410 O   0  0  0  0  0  0  0  0  0  0  0  0
  -22.4930  -12.1420   22.5310 H   0  0  0  0  0  0  0  0  0  0  0  0
  -21.1820  -13.2730   22.3650 H   0  0  0  0  0  0  0  0  0  0  0  0
  -25.4090  -15.3730   20.3770 N   0  0  0  0  0  0  0  0  0  0  0  0
  -24.6370  -16.0160   20.5160 H   0  0  0  0  0  0  0  0  0  0  0  0
  -26.2260  -15.8160   19.9800 H   0  0  0  0  0  0  0  0  0  0  0  0
  -28.0300  -24.2620   19.9430 C   0  0  0  0  0  2  0  0  0  0  0  0
  -28.1980  -25.9100   20.2440 O   0  0  0  0  0  0  0  0  0  0  0  0
  -24.6440  -31.9220   23.2410 C   0  0  0  0  0  0  0  0  0  0  0  0
  -27.1900  -27.0290   20.1760 C   0  0  0  0  0  0  0  0  0  0  0  0
  -23.4420  -30.5300   21.6050 C   0  0  0  0  0  3  0  0  0  0  0  0
  -24.8860  -28.9320   20.1590 C   0  0  0  0  0  0  0  0  0  0  0  0
  -26.0090  -30.7390   21.4430 C   0  0  0  0  0  2  0  0  0  0  0  0
  -26.0780  -29.3290   20.7750 C   0  0  0  0  0  0  0  0  0  0  0  0
  -27.2200  -28.4000   20.7570 C   0  0  0  0  0  3  0  0  0  0  0  0
  -25.9660  -26.7990   19.5060 C   0  0  0  0  0  3  0  0  0  0  0  0
  -24.8570  -27.6900   19.5030 C   0  0  0  0  0  3  0  0  0  0  0  0
  -23.6640  -29.8520   20.2240 C   0  0  0  0  0  2  0  0  0  0  0  0
  -24.7210  -31.0920   22.1490 N   0  0  0  0  0  0  0  0  0  0  0  0
  -23.5560  -32.2060   23.7720 O   0  0  0  0  0  0  0  0  0  0  0  0
  -22.7570  -29.5300   22.5740 C   0  0  0  0  0  0  0  0  0  0  0  0
  -21.4290  -29.3470   22.4460 N   0  0  0  0  0  0  0  0  0  0  0  0
  -23.4280  -28.9170   23.4090 O   0  0  0  0  0  0  0  0  0  0  0  0
  -20.9400  -29.8900   21.7480 H   0  0  0  0  0  0  0  0  0  0  0  0
  -18.0630  -28.0840   22.9510 C   0  0  0  0  0  0  0  0  0  0  0  0
  -20.6180  -28.3990   23.2190 C   0  0  0  0  0  3  0  0  0  0  0  0
  -20.7460  -26.9670   22.6490 C   0  0  0  0  0  2  0  0  0  0  0  0
  -19.6530  -26.6210   21.6330 C   0  0  0  0  0  2  0  0  0  0  0  0
  -18.2670  -26.7390   22.2740 C   0  0  0  0  0  2  0  0  0  0  0  0
  -19.1660  -28.8710   23.3800 C   0  0  0  0  0  0  0  0  0  0  0  0
  -18.9200  -30.1250   23.9770 C   0  0  0  0  0  3  0  0  0  0  0  0
  -17.6040  -30.5960   24.1480 C   0  0  0  0  0  3  0  0  0  0  0  0
  -16.5160  -29.8080   23.7330 C   0  0  0  0  0  3  0  0  0  0  0  0
  -16.7460  -28.5550   23.1410 C   0  0  0  0  0  3  0  0  0  0  0  0
  -25.9150  -32.5690   23.8700 C   0  0  0  0  0  3  0  0  0  0  0  0
  -25.6000  -33.9710   24.1950 N   0  0  0  0  0  0  0  0  0  0  0  0
  -25.9120  -35.0270   23.4300 C   0  0  0  0  0  0  0  0  0  0  0  0
  -26.5560  -34.9220   22.3840 O   0  0  0  0  0  0  0  0  0  0  0  0
  -25.0230  -34.1250   25.0080 H   0  0  0  0  0  0  0  0  0  0  0  0
  -24.1630  -36.8170   23.1330 C   0  0  0  0  0  1  0  0  0  0  0  0
  -25.4370  -36.4190   23.8980 C   0  0  0  0  0  3  0  0  0  0  0  0
  -27.5900  -37.3290   24.6510 C   0  0  0  0  0  1  0  0  0  0  0  0
  -26.4590  -37.4760   23.7390 N   0  0  0  0  0  0  0  0  0  0  0  0
  -26.0530  -38.3970   23.8820 H   0  0  0  0  0  0  0  0  0  0  0  0
  -26.4170  -31.8150   25.1640 C   0  0  1  0  0  0  0  0  0  0  0  0
  -25.3140  -31.5910   26.2260 C   0  0  0  0  0  1  0  0  0  0  0  0
  -27.0060  -30.4310   24.8070 C   0  0  0  0  0  1  0  0  0  0  0  0
  -27.5610  -32.6190   25.8270 C   0  0  0  0  0  1  0  0  0  0  0  0
  2  1  1  0
  3  4  1  0
  3  5  1  0
  4  8  1  0
  5 18  1  0
  5  6  1  0
  6  1  1  0
  7 48  1  0
  7  2  1  0
  8  9  1  6
  8  7  1  0
  8  6  1  0
 10 18  1  0
 11 16  1  0
 12 13  1  0
 12 11  1  0
 14 13  1  0
 14 23  1  0
 14 15  1  0
 16 10  1  0
 16 15  1  0
 17 10  2  0
 18 19  1  0
 20 21  2  0
 21 40  1  0
 22 21  1  0
 22 25  1  0
 23 24  1  0
 23 20  1  0
 24 22  2  0
 25 26  1  0
 26 27  2  0
 28 31  1  0
 28 27  1  0
 29 28  2  0
 30 29  1  0
 30 25  2  0
 31 32  1  0
 32 33  1  0
 33 34  2  0
 35 34  1  0
 35 39  1  0
 36 35  2  0
 37 32  2  0
 37 36  1  0
 38 37  1  0
 40 41  1  0
 41 44  1  0
 41 43  1  0
 42 40  2  0
 45 46  1  0
 45 20  1  0
 47 45  1  0
 48 49  1  0
 50 61  2  0
 51 49  1  0
 51 56  1  0
 52 60  1  0
 52 62  1  0
 53 59  1  0
 53 55  1  0
 54 60  1  0
 55 54  1  0
 56 55  2  0
 57 51  2  0
 58 57  1  0
 58 53  2  0
 59 52  1  0
 60 50  1  0
 62 64  2  0
 63 62  1  0
 65 63  1  0
 66 75  2  0
 66 71  1  0
 67 63  1  0
 67 71  1  0
 68 67  1  0
 69 70  1  0
 69 68  1  0
 70 66  1  0
 71 72  2  0
 72 73  1  0
 74 73  2  0
 75 74  1  0
 76 50  1  0
 76 77  1  0
 76 86  1  0
 77 80  1  0
 78 82  1  0
 78 77  1  0
 79 78  2  0
 82 81  1  0
 84 85  1  0
 84 82  1  0
 84 83  1  0
 86 89  1  1
 86 87  1  0
 88 86  1  0
M  ISO  4  10 100  18 100  48 101  49 101
M  END
>  <TORSDO>  (94) 
F 17

>  <SCORE>  (94) 
-16.452

>  <name>  (94) 
94

>  <ligand_id>  (94) 
94

>  <original_smiles>  (94) 
[H]c1c([H])c([H])c2c(c1[H])C([H])([H])C([H])([H])C([H])([H])C2([H])N([H])C(=O)C1([H])N(C(=O)C([H])(N([H])C(=O)C([H])(N([H])C([H])([H])[H])C([H])([H])[H])C(C([H])([H])[H])(C([H])([H])[H])C([H])([H])[H])C([H])([H])c2c([H])c(OC([H])([H])C3([H])C([H])([H])C([H])([H])C4([H])C([H])(N([H])C(=O)N5C([H])([H])C([H])([H])C([H])([H])C([H])(n6nc(-c7c([H])c([H])c(Oc8c([H])c([H])c(F)c([H])c8F)c([H])c7[H])c(C(=O)N([H])[H])c6N([H])[H])C5([H])[H])C([H])([H])C([H])([H])[N+]34[H])c([H])c([H])c2C1([H])[H]

>  <smiles>  (94) 
[H]c1c([H])c([H])c2c(c1[H])C([H])([H])C([H])([H])C([H])([H])C2([H])N([H])C(=O)C1([H])N(C(=O)C([H])(N([H])C(=O)C([H])(N([H])C([H])([H])[H])C([H])([H])[H])C(C([H])([H])[H])(C([H])([H])[H])C([H])([H])[H])C([H])([H])c2c([H])c(OC([H])([H])C3([H])C([H])([H])C([H])([H])C4([H])C([H])(N([H])C(=O)N5C([H])([H])C([H])([H])C([H])([H])C([H])(n6nc(-c7c([H])c([H])c(Oc8c([H])c([H])c(F)c([H])c8F)c([H])c7[H])c(C(=O)N([H])[H])c6N([H])[H])C5([H])[H])C([H])([H])C([H])([H])[N+]34[H])c([H])c([H])c2C1([H])[H]

$$$$
95:0:0
     RDKit          3D

 91 99  0  0  1  0  0  0  0  0999 V2000
  -29.9860  -22.1110   18.1370 C   0  0  0  0  0  0  0  0  0  0  0  0
  -29.0970  -23.2810   18.5910 C   0  0  0  0  0  2  0  0  0  0  0  0
  -29.6400  -20.6990   18.6540 C   0  0  0  0  0  2  0  0  0  0  0  0
  -28.7310  -21.8590   20.7030 C   0  0  0  0  0  2  0  0  0  0  0  0
  -28.9990  -23.4070   20.1280 C   0  0  0  0  0  3  0  0  0  0  0  0
  -29.6550  -20.5570   20.2010 C   0  0  2  0  0  0  0  0  0  0  0  0
  -30.9370  -22.2950   17.3740 O   0  0  0  0  0  0  0  0  0  0  0  0
  -31.3130  -20.6070   22.2280 C   0  0  0  0  0  1  0  0  0  0  0  0
  -31.1090  -20.7750   20.7140 C   0  0  0  0  0  2  0  0  0  0  0  0
  -28.0360  -24.7220   20.5240 C   0  0  0  0  0  2  0  0  0  0  0  0
  -28.2850  -26.2240   20.2220 O   0  0  0  0  0  0  0  0  0  0  0  0
  -24.6190  -31.8690   23.2180 C   0  0  0  0  0  0  0  0  0  0  0  0
  -27.2110  -27.1810   20.1940 C   0  0  0  0  0  0  0  0  0  0  0  0
  -23.4220  -30.4740   21.5780 C   0  0  0  0  0  3  0  0  0  0  0  0
  -24.8730  -28.9010   20.1570 C   0  0  0  0  0  0  0  0  0  0  0  0
  -25.9730  -30.7500   21.4120 C   0  0  0  0  0  2  0  0  0  0  0  0
  -26.0500  -29.3580   20.7640 C   0  0  0  0  0  0  0  0  0  0  0  0
  -27.2210  -28.5130   20.7630 C   0  0  0  0  0  3  0  0  0  0  0  0
  -26.0100  -26.8220   19.5440 C   0  0  0  0  0  3  0  0  0  0  0  0
  -24.8640  -27.6470   19.5310 C   0  0  0  0  0  3  0  0  0  0  0  0
  -23.6440  -29.7950   20.1990 C   0  0  0  0  0  2  0  0  0  0  0  0
  -24.6920  -31.0530   22.1240 N   0  0  0  0  0  0  0  0  0  0  0  0
  -23.5320  -32.1520   23.7450 O   0  0  0  0  0  0  0  0  0  0  0  0
  -22.7440  -29.4660   22.5380 C   0  0  0  0  0  0  0  0  0  0  0  0
  -21.4160  -29.2930   22.4080 N   0  0  0  0  0  0  0  0  0  0  0  0
  -23.4140  -28.8420   23.3650 O   0  0  0  0  0  0  0  0  0  0  0  0
  -20.9330  -29.8470   21.7140 H   0  0  0  0  0  0  0  0  0  0  0  0
  -18.0330  -28.0970   22.9100 C   0  0  0  0  0  0  0  0  0  0  0  0
  -20.5930  -28.3550   23.1760 C   0  0  0  0  0  3  0  0  0  0  0  0
  -20.6910  -26.9250   22.5990 C   0  0  0  0  0  2  0  0  0  0  0  0
  -19.5890  -26.6050   21.5850 C   0  0  0  0  0  2  0  0  0  0  0  0
  -18.2060  -26.7500   22.2300 C   0  0  0  0  0  2  0  0  0  0  0  0
  -19.1530  -28.8580   23.3400 C   0  0  0  0  0  0  0  0  0  0  0  0
  -18.9350  -30.1180   23.9380 C   0  0  0  0  0  3  0  0  0  0  0  0
  -17.6310  -30.6190   24.1090 C   0  0  0  0  0  3  0  0  0  0  0  0
  -16.5250  -29.8560   23.6930 C   0  0  0  0  0  3  0  0  0  0  0  0
  -16.7280  -28.5970   23.1020 C   0  0  0  0  0  3  0  0  0  0  0  0
  -25.8960  -32.5050   23.8470 C   0  0  0  0  0  3  0  0  0  0  0  0
  -26.4000  -31.7390   25.1330 C   0  0  1  0  0  0  0  0  0  0  0  0
  -25.2990  -31.5110   26.1960 C   0  0  0  0  0  1  0  0  0  0  0  0
  -26.9820  -30.3580   24.7560 C   0  0  0  0  0  1  0  0  0  0  0  0
  -27.5490  -32.5330   25.7970 C   0  0  0  0  0  1  0  0  0  0  0  0
  -25.5830  -33.9060   24.1750 N   0  0  0  0  0  0  0  0  0  0  0  0
  -25.9170  -34.9610   23.4190 C   0  0  0  0  0  0  0  0  0  0  0  0
  -26.5870  -34.8580   22.3880 O   0  0  0  0  0  0  0  0  0  0  0  0
  -24.9860  -34.0590   24.9750 H   0  0  0  0  0  0  0  0  0  0  0  0
  -24.1960  -36.7620   23.0650 C   0  0  0  0  0  1  0  0  0  0  0  0
  -25.4330  -36.3500   23.8790 C   0  0  0  0  0  3  0  0  0  0  0  0
  -27.5660  -37.2290   24.7200 C   0  0  0  0  0  1  0  0  0  0  0  0
  -26.4690  -37.4020   23.7720 N   0  0  0  0  0  0  0  0  0  0  0  0
  -26.0650  -38.3220   23.9170 H   0  0  0  0  0  0  0  0  0  0  0  0
  -29.2490  -18.9580   20.5670 C   0  0  0  0  0  3  0  0  0  0  0  0
  -30.2060  -17.6140   20.2530 C   0  0  0  0  0  3  0  0  0  0  0  0
  -30.5620  -14.9230   20.3550 C   0  0  0  0  0  0  0  0  0  0  0  0
  -30.3980  -12.5950   19.3900 C   0  0  0  0  0  2  0  0  0  0  0  0
  -29.4660  -12.6010   18.1580 C   0  0  0  0  0  2  0  0  0  0  0  0
  -28.0030  -12.3980   18.5890 C   0  0  0  0  0  2  0  0  0  0  0  0
  -27.6070  -13.3050   19.7830 C   0  0  0  0  0  3  0  0  0  0  0  0
  -28.6630  -13.2890   20.9100 C   0  0  0  0  0  2  0  0  0  0  0  0
  -29.9440  -13.6790   20.3060 N   0  0  0  0  0  0  0  0  0  0  0  0
  -31.7590  -14.9810   20.0550 O   0  0  0  0  0  0  0  0  0  0  0  0
  -29.8120  -16.1120   20.5160 N   0  0  0  0  0  0  0  0  0  0  0  0
  -28.8420  -15.9610   20.7490 H   0  0  0  0  0  0  0  0  0  0  0  0
  -25.2210  -13.8780   20.5150 C   0  0  0  0  0  0  0  0  0  0  0  0
  -24.1580  -13.1000   20.8830 C   0  0  0  0  0  0  0  0  0  0  0  0
  -24.6280  -11.7500   20.8530 C   0  0  0  0  0  0  0  0  0  0  0  0
  -26.2680  -13.0040   20.2780 N   0  0  0  0  0  0  0  0  0  0  0  0
  -25.9190  -11.7190   20.5460 N   0  0  0  0  0  0  0  0  0  0  0  0
  -23.9040  -10.4860   21.0410 C   0  0  0  0  0  0  0  0  0  0  0  0
  -24.3230   -9.5250   21.9870 C   0  0  0  0  0  3  0  0  0  0  0  0
  -23.5990   -8.3270   22.1610 C   0  0  0  0  0  3  0  0  0  0  0  0
  -22.4390   -8.0810   21.3900 C   0  0  0  0  0  0  0  0  0  0  0  0
  -22.0380   -9.0290   20.4320 C   0  0  0  0  0  3  0  0  0  0  0  0
  -22.7640  -10.2190   20.2550 C   0  0  0  0  0  3  0  0  0  0  0  0
  -21.6860   -6.9340   21.4730 O   0  0  0  0  0  0  0  0  0  0  0  0
  -21.6080   -6.2070   22.6350 C   0  0  0  0  0  0  0  0  0  0  0  0
  -21.1210   -6.7690   23.8350 C   0  0  0  0  0  3  0  0  0  0  0  0
  -20.9910   -5.9680   24.9860 C   0  0  0  0  0  3  0  0  0  0  0  0
  -21.3400   -4.6040   24.9380 C   0  0  0  0  0  0  0  0  0  0  0  0
  -21.8180   -4.0410   23.7420 C   0  0  0  0  0  3  0  0  0  0  0  0
  -21.9490   -4.8410   22.5920 C   0  0  0  0  0  0  0  0  0  0  0  0
  -22.3900   -4.2870   21.4370 F   0  0  0  0  0  0  0  0  0  0  0  0
  -21.2090   -3.8300   26.0410 F   0  0  0  0  0  0  0  0  0  0  0  0
  -22.7590  -13.5720   21.1470 C   0  0  0  0  0  0  0  0  0  0  0  0
  -22.0270  -12.8720   22.0070 N   0  0  0  0  0  0  0  0  0  0  0  0
  -22.3200  -14.5960   20.6240 O   0  0  0  0  0  0  0  0  0  0  0  0
  -22.3920  -12.0410   22.4500 H   0  0  0  0  0  0  0  0  0  0  0  0
  -21.0890  -13.1740   22.2260 H   0  0  0  0  0  0  0  0  0  0  0  0
  -25.3800  -15.2490   20.3370 N   0  0  0  0  0  0  0  0  0  0  0  0
  -24.6070  -15.8980   20.4440 H   0  0  0  0  0  0  0  0  0  0  0  0
  -26.2190  -15.6900   19.9850 H   0  0  0  0  0  0  0  0  0  0  0  0
  1  2  1  0
  1  3  1  0
  2  5  1  0
  3  6  1  0
  5 10  1  0
  5  4  1  0
  6 52  1  0
  6  4  1  0
  6  9  1  1
  7  1  2  0
  9  8  1  0
 11 10  1  0
 12 23  2  0
 13 11  1  0
 13 18  1  0
 14 22  1  0
 14 24  1  0
 15 21  1  0
 15 17  1  0
 16 22  1  0
 17 16  1  0
 18 17  2  0
 19 13  2  0
 20 19  1  0
 20 15  2  0
 21 14  1  0
 22 12  1  0
 24 26  2  0
 25 24  1  0
 27 25  1  0
 28 37  2  0
 28 33  1  0
 29 25  1  0
 29 33  1  0
 30 29  1  0
 31 32  1  0
 31 30  1  0
 32 28  1  0
 33 34  2  0
 34 35  1  0
 36 35  2  0
 37 36  1  0
 38 12  1  0
 38 43  1  0
 38 39  1  0
 39 42  1  1
 39 40  1  0
 41 39  1  0
 43 46  1  0
 44 48  1  0
 44 43  1  0
 45 44  2  0
 48 47  1  0
 50 48  1  0
 50 51  1  0
 50 49  1  0
 53 62  1  0
 53 52  2  0
 54 62  1  0
 55 60  1  0
 56 57  1  0
 56 55  1  0
 58 57  1  0
 58 67  1  0
 58 59  1  0
 60 54  1  0
 60 59  1  0
 61 54  2  0
 62 63  1  0
 64 65  2  0
 65 84  1  0
 66 65  1  0
 66 69  1  0
 67 64  1  0
 67 68  1  0
 68 66  2  0
 69 70  1  0
 70 71  2  0
 72 75  1  0
 72 71  1  0
 73 72  2  0
 74 73  1  0
 74 69  2  0
 75 76  1  0
 76 77  1  0
 77 78  2  0
 79 78  1  0
 79 83  1  0
 80 79  2  0
 81 76  2  0
 81 80  1  0
 82 81  1  0
 84 85  1  0
 85 88  1  0
 85 87  1  0
 86 84  2  0
 89 90  1  0
 89 64  1  0
 91 89  1  0
M  ISO  4  10 101  11 101  54 100  62 100
M  END
>  <TORSDO>  (95) 
F 20

>  <SCORE>  (95) 
-13.862

>  <name>  (95) 
95

>  <ligand_id>  (95) 
95

>  <original_smiles>  (95) 
[H]c1c([H])c([H])c2c(c1[H])C([H])([H])C([H])([H])C([H])([H])C2([H])N([H])C(=O)C1([H])N(C(=O)C([H])(N([H])C(=O)C([H])(N([H])C([H])([H])[H])C([H])([H])[H])C(C([H])([H])[H])(C([H])([H])[H])C([H])([H])[H])C([H])([H])c2c([H])c(OC([H])([H])C3([H])C([H])([H])C(=O)C([H])([H])C(C([H])([H])C([H])([H])[H])(C([H])([H])C([H])([H])N([H])C(=O)N4C([H])([H])C([H])([H])C([H])([H])C([H])(n5nc(-c6c([H])c([H])c(Oc7c([H])c([H])c(F)c([H])c7F)c([H])c6[H])c(C(=O)N([H])[H])c5N([H])[H])C4([H])[H])C3([H])[H])c([H])c([H])c2C1([H])[H]

>  <smiles>  (95) 
[H]c1c([H])c([H])c2c(c1[H])C([H])([H])C([H])([H])C([H])([H])C2([H])N([H])C(=O)C1([H])N(C(=O)C([H])(N([H])C(=O)C([H])(N([H])C([H])([H])[H])C([H])([H])[H])C(C([H])([H])[H])(C([H])([H])[H])C([H])([H])[H])C([H])([H])c2c([H])c(OC([H])([H])C3([H])C([H])([H])C(=O)C([H])([H])C(C([H])([H])C([H])([H])[H])(C([H])([H])C([H])([H])N([H])C(=O)N4C([H])([H])C([H])([H])C([H])([H])C([H])(n5nc(-c6c([H])c([H])c(Oc7c([H])c([H])c(F)c([H])c7F)c([H])c6[H])c(C(=O)N([H])[H])c5N([H])[H])C4([H])[H])C3([H])[H])c([H])c([H])c2C1([H])[H]

$$$$
