0:0:0
     RDKit          3D

 93102  0  0  1  0  0  0  0  0999 V2000
  -29.6060  -21.7830   20.1460 N   0  0  0  0  0  4  0  0  0  0  0  0
  -29.1390  -21.7370   19.2550 H   0  0  0  0  0  0  0  0  0  0  0  0
  -30.5810  -21.9610   19.9660 H   0  0  0  0  0  0  0  0  0  0  0  0
  -29.4770  -20.4420   20.7900 C   0  0  0  0  0  2  0  0  0  0  0  0
  -28.0020  -18.5220   18.7590 C   0  0  0  0  0  2  0  0  0  0  0  0
  -28.1950  -17.6400   19.9930 C   0  0  0  0  0  2  0  0  0  0  0  0
  -30.3200  -17.6610   18.7250 C   0  0  0  0  0  2  0  0  0  0  0  0
  -29.4570  -18.9200   18.5800 C   0  0  0  0  0  3  0  0  0  0  0  0
  -30.0960  -19.2940   19.9410 C   0  0  0  0  0  3  0  0  0  0  0  0
  -29.7150  -17.7770   20.1380 C   0  0  1  0  0  0  0  0  0  0  0  0
  -30.3180  -16.8930   21.2570 C   0  0  0  0  0  2  0  0  0  0  0  0
  -30.6720  -14.4860   20.5200 C   0  0  0  0  0  0  0  0  0  0  0  0
  -30.3910  -12.3370   19.3300 C   0  0  0  0  0  2  0  0  0  0  0  0
  -29.4520  -12.5570   18.1260 C   0  0  0  0  0  2  0  0  0  0  0  0
  -27.9750  -12.4110   18.5430 C   0  0  0  0  0  2  0  0  0  0  0  0
  -27.6330  -13.2270   19.8190 C   0  0  0  0  0  3  0  0  0  0  0  0
  -28.6840  -12.9860   20.9260 C   0  0  0  0  0  2  0  0  0  0  0  0
  -30.0110  -13.3060   20.3710 N   0  0  0  0  0  0  0  0  0  0  0  0
  -31.7890  -14.6950   20.0380 O   0  0  0  0  0  0  0  0  0  0  0  0
  -29.9680  -15.4650   21.1230 N   0  0  0  0  0  0  0  0  0  0  0  0
  -29.0730  -15.1850   21.4930 H   0  0  0  0  0  0  0  0  0  0  0  0
  -25.2230  -13.8310   20.4980 C   0  0  0  0  0  0  0  0  0  0  0  0
  -24.1540  -13.0590   20.8640 C   0  0  0  0  0  0  0  0  0  0  0  0
  -24.6220  -11.7090   20.8490 C   0  0  0  0  0  0  0  0  0  0  0  0
  -26.2750  -12.9520   20.2850 N   0  0  0  0  0  0  0  0  0  0  0  0
  -25.9150  -11.6710   20.5510 N   0  0  0  0  0  0  0  0  0  0  0  0
  -23.8980  -10.4470   21.0430 C   0  0  0  0  0  0  0  0  0  0  0  0
  -24.3360   -9.4790   21.9730 C   0  0  0  0  0  3  0  0  0  0  0  0
  -23.6110   -8.2820   22.1540 C   0  0  0  0  0  3  0  0  0  0  0  0
  -22.4350   -8.0430   21.4040 C   0  0  0  0  0  0  0  0  0  0  0  0
  -22.0180   -8.9980   20.4620 C   0  0  0  0  0  3  0  0  0  0  0  0
  -22.7430  -10.1880   20.2780 C   0  0  0  0  0  3  0  0  0  0  0  0
  -21.6800   -6.8980   21.4960 O   0  0  0  0  0  0  0  0  0  0  0  0
  -21.6490   -6.1470   22.6440 C   0  0  0  0  0  0  0  0  0  0  0  0
  -21.2500   -6.6950   23.8830 C   0  0  0  0  0  3  0  0  0  0  0  0
  -21.1610   -5.8690   25.0220 C   0  0  0  0  0  3  0  0  0  0  0  0
  -21.4670   -4.4980   24.9240 C   0  0  0  0  0  0  0  0  0  0  0  0
  -21.8590   -3.9500   23.6900 C   0  0  0  0  0  3  0  0  0  0  0  0
  -21.9470   -4.7730   22.5520 C   0  0  0  0  0  0  0  0  0  0  0  0
  -22.3060   -4.2350   21.3620 F   0  0  0  0  0  0  0  0  0  0  0  0
  -21.3750   -3.7030   26.0150 F   0  0  0  0  0  0  0  0  0  0  0  0
  -22.7540  -13.5350   21.1210 C   0  0  0  0  0  0  0  0  0  0  0  0
  -22.0200  -12.8420   21.9870 N   0  0  0  0  0  0  0  0  0  0  0  0
  -22.3160  -14.5540   20.5890 O   0  0  0  0  0  0  0  0  0  0  0  0
  -22.3880  -12.0180   22.4390 H   0  0  0  0  0  0  0  0  0  0  0  0
  -21.0810  -13.1430   22.2040 H   0  0  0  0  0  0  0  0  0  0  0  0
  -25.3800  -15.2010   20.3120 N   0  0  0  0  0  0  0  0  0  0  0  0
  -24.6030  -15.8460   20.4060 H   0  0  0  0  0  0  0  0  0  0  0  0
  -26.2240  -15.6410   19.9710 H   0  0  0  0  0  0  0  0  0  0  0  0
  -29.0430  -22.9360   20.9110 C   0  0  0  0  0  2  0  0  0  0  0  0
  -29.0300  -24.2830   20.1220 C   0  0  0  0  0  2  0  0  0  0  0  0
  -28.4030  -25.4750   20.8970 C   0  0  0  0  0  2  0  0  0  0  0  0
  -28.4170  -26.7050   20.1450 O   0  0  0  0  0  0  0  0  0  0  0  0
  -24.5830  -31.8790   23.2220 C   0  0  0  0  0  0  0  0  0  0  0  0
  -27.2470  -27.4350   20.1620 C   0  0  0  0  0  0  0  0  0  0  0  0
  -23.3810  -30.4730   21.5820 C   0  0  0  0  0  3  0  0  0  0  0  0
  -24.8410  -28.9300   20.1640 C   0  0  0  0  0  0  0  0  0  0  0  0
  -25.9040  -30.8390   21.3800 C   0  0  0  0  0  2  0  0  0  0  0  0
  -25.9980  -29.4630   20.7490 C   0  0  0  0  0  0  0  0  0  0  0  0
  -27.2040  -28.7240   20.7420 C   0  0  0  0  0  3  0  0  0  0  0  0
  -26.0750  -26.9140   19.5720 C   0  0  0  0  0  3  0  0  0  0  0  0
  -24.8740  -27.6540   19.5730 C   0  0  0  0  0  3  0  0  0  0  0  0
  -23.5940  -29.7870   20.2060 C   0  0  0  0  0  2  0  0  0  0  0  0
  -24.6420  -31.0800   22.1210 N   0  0  0  0  0  0  0  0  0  0  0  0
  -23.5020  -32.1510   23.7620 O   0  0  0  0  0  0  0  0  0  0  0  0
  -22.7300  -29.4530   22.5440 C   0  0  0  0  0  0  0  0  0  0  0  0
  -21.4070  -29.2690   22.4140 N   0  0  0  0  0  0  0  0  0  0  0  0
  -23.4130  -28.8310   23.3610 O   0  0  0  0  0  0  0  0  0  0  0  0
  -20.9160  -29.8240   21.7290 H   0  0  0  0  0  0  0  0  0  0  0  0
  -18.0340  -28.0700   22.9010 C   0  0  0  0  0  0  0  0  0  0  0  0
  -20.5900  -28.3290   23.1820 C   0  0  0  0  0  3  0  0  0  0  0  0
  -20.6950  -26.8980   22.6050 C   0  0  0  0  0  2  0  0  0  0  0  0
  -19.5980  -26.5760   21.5870 C   0  0  0  0  0  2  0  0  0  0  0  0
  -18.2130  -26.7210   22.2270 C   0  0  0  0  0  2  0  0  0  0  0  0
  -19.1500  -28.8320   23.3360 C   0  0  0  0  0  0  0  0  0  0  0  0
  -18.9290  -30.0970   23.9240 C   0  0  0  0  0  3  0  0  0  0  0  0
  -17.6240  -30.5990   24.0830 C   0  0  0  0  0  3  0  0  0  0  0  0
  -16.5210  -29.8330   23.6670 C   0  0  0  0  0  3  0  0  0  0  0  0
  -16.7260  -28.5700   23.0820 C   0  0  0  0  0  3  0  0  0  0  0  0
  -25.8690  -32.5110   23.8440 C   0  0  0  0  0  3  0  0  0  0  0  0
  -25.5580  -33.9080   24.1740 N   0  0  0  0  0  0  0  0  0  0  0  0
  -25.8960  -34.9600   23.4170 C   0  0  0  0  0  0  0  0  0  0  0  0
  -26.5720  -34.8570   22.3900 O   0  0  0  0  0  0  0  0  0  0  0  0
  -24.9560  -34.0620   24.9700 H   0  0  0  0  0  0  0  0  0  0  0  0
  -24.1710  -36.7530   23.0530 C   0  0  0  0  0  1  0  0  0  0  0  0
  -25.4050  -36.3470   23.8740 C   0  0  0  0  0  3  0  0  0  0  0  0
  -27.5360  -37.2290   24.7190 C   0  0  0  0  0  1  0  0  0  0  0  0
  -26.4390  -37.4000   23.7710 N   0  0  0  0  0  0  0  0  0  0  0  0
  -26.0320  -38.3200   23.9170 H   0  0  0  0  0  0  0  0  0  0  0  0
  -26.3870  -31.7400   25.1180 C   0  0  1  0  0  0  0  0  0  0  0  0
  -25.2960  -31.5030   26.1870 C   0  0  0  0  0  1  0  0  0  0  0  0
  -26.9690  -30.3630   24.7200 C   0  0  0  0  0  1  0  0  0  0  0  0
  -27.5370  -32.5330   25.7820 C   0  0  0  0  0  1  0  0  0  0  0  0
  1  4  1  0
  1 50  1  0
  2  1  1  0
  3  1  1  0
  5  6  1  0
  6 10  1  0
  7 10  1  0
  8  7  1  0
  8  5  1  0
  8  9  1  0
  9 10  1  0
  9  4  1  0
 10 11  1  1
 12 20  1  0
 13 18  1  0
 14 15  1  0
 14 13  1  0
 16 15  1  0
 16 25  1  0
 16 17  1  0
 18 12  1  0
 18 17  1  0
 19 12  2  0
 20 11  1  0
 20 21  1  0
 22 23  2  0
 23 42  1  0
 24 23  1  0
 24 27  1  0
 25 22  1  0
 25 26  1  0
 26 24  2  0
 27 28  1  0
 28 29  2  0
 30 33  1  0
 30 29  1  0
 31 30  2  0
 32 31  1  0
 32 27  2  0
 33 34  1  0
 34 35  1  0
 35 36  2  0
 37 36  1  0
 37 41  1  0
 38 37  2  0
 39 34  2  0
 39 38  1  0
 40 39  1  0
 42 43  1  0
 43 46  1  0
 43 45  1  0
 44 42  2  0
 47 48  1  0
 47 22  1  0
 49 47  1  0
 51 52  1  0
 51 50  1  0
 53 55  1  0
 53 52  1  0
 54 65  2  0
 55 60  1  0
 56 64  1  0
 56 66  1  0
 57 63  1  0
 57 59  1  0
 58 64  1  0
 59 58  1  0
 60 59  2  0
 61 62  1  0
 61 55  2  0
 62 57  2  0
 63 56  1  0
 64 54  1  0
 66 68  2  0
 67 66  1  0
 69 67  1  0
 70 79  2  0
 70 75  1  0
 71 67  1  0
 71 75  1  0
 72 71  1  0
 73 74  1  0
 73 72  1  0
 74 70  1  0
 75 76  2  0
 76 77  1  0
 78 77  2  0
 79 78  1  0
 80 54  1  0
 80 81  1  0
 80 90  1  0
 81 84  1  0
 82 86  1  0
 82 81  1  0
 83 82  2  0
 86 85  1  0
 88 86  1  0
 88 89  1  0
 88 87  1  0
 90 93  1  1
 90 91  1  0
 92 90  1  0
M  ISO  4  12 100  20 100  52 101  53 101
M  END
>  <TORSDO>  (1) 
F 22

>  <SCORE>  (1) 
-13.460

>  <name>  (1) 
0

>  <ligand_id>  (1) 
0

>  <original_smiles>  (1) 
[H]c1c([H])c([H])c2c(c1[H])C([H])([H])C([H])([H])C([H])([H])C2([H])N([H])C(=O)C1([H])N(C(=O)C([H])(N([H])C(=O)C([H])(N([H])C([H])([H])[H])C([H])([H])[H])C(C([H])([H])[H])(C([H])([H])[H])C([H])([H])[H])C([H])([H])c2c([H])c(OC([H])([H])C([H])([H])C([H])([H])[N+]([H])([H])C([H])([H])C3([H])C4([H])C([H])([H])C([H])([H])C3(C([H])([H])N([H])C(=O)N3C([H])([H])C([H])([H])C([H])([H])C([H])(n5nc(-c6c([H])c([H])c(Oc7c([H])c([H])c(F)c([H])c7F)c([H])c6[H])c(C(=O)N([H])[H])c5N([H])[H])C3([H])[H])C4([H])[H])c([H])c([H])c2C1([H])[H]

>  <smiles>  (1) 
[H]c1c([H])c([H])c2c(c1[H])C([H])([H])C([H])([H])C([H])([H])C2([H])N([H])C(=O)C1([H])N(C(=O)C([H])(N([H])C(=O)C([H])(N([H])C([H])([H])[H])C([H])([H])[H])C(C([H])([H])[H])(C([H])([H])[H])C([H])([H])[H])C([H])([H])c2c([H])c(OC([H])([H])C([H])([H])C([H])([H])[N+]([H])([H])C([H])([H])C3([H])C4([H])C([H])([H])C([H])([H])C3(C([H])([H])N([H])C(=O)N3C([H])([H])C([H])([H])C([H])([H])C([H])(n5nc(-c6c([H])c([H])c(Oc7c([H])c([H])c(F)c([H])c7F)c([H])c6[H])c(C(=O)N([H])[H])c5N([H])[H])C3([H])[H])C4([H])[H])c([H])c([H])c2C1([H])[H]

$$$$
1:0:0
     RDKit          3D

 90 99  0  0  1  0  0  0  0  0999 V2000
  -31.5860  -23.5150   19.7230 C   0  0  0  0  0  3  0  0  0  0  0  0
  -31.4380  -22.1410   19.9930 C   0  0  0  0  0  3  0  0  0  0  0  0
  -30.4910  -24.3900   19.8130 C   0  0  0  0  0  3  0  0  0  0  0  0
  -29.0880  -22.4830   20.4450 C   0  0  0  0  0  3  0  0  0  0  0  0
  -30.2000  -21.5550   20.3590 C   0  0  0  0  0  0  0  0  0  0  0  0
  -29.2210  -23.9100   20.1770 C   0  0  0  0  0  0  0  0  0  0  0  0
  -31.0500  -19.2550   19.6770 C   0  0  0  0  0  2  0  0  0  0  0  0
  -30.3220  -20.0270   20.7700 C   0  0  0  0  0  3  0  0  0  0  0  0
  -29.8870  -18.5550   20.2800 C   0  0  0  0  0  3  0  0  0  0  0  0
  -30.2520  -17.2120   21.0630 C   0  0  0  0  0  2  0  0  0  0  0  0
  -30.5910  -14.6910   20.4020 C   0  0  0  0  0  0  0  0  0  0  0  0
  -30.3670  -12.4330   19.3610 C   0  0  0  0  0  2  0  0  0  0  0  0
  -29.4280  -12.5140   18.1380 C   0  0  0  0  0  2  0  0  0  0  0  0
  -27.9550  -12.3630   18.5660 C   0  0  0  0  0  2  0  0  0  0  0  0
  -27.5870  -13.2580   19.7790 C   0  0  0  0  0  3  0  0  0  0  0  0
  -28.6430  -13.1490   20.9010 C   0  0  0  0  0  2  0  0  0  0  0  0
  -29.9440  -13.4830   20.3090 N   0  0  0  0  0  0  0  0  0  0  0  0
  -31.7840  -14.7910   20.1030 O   0  0  0  0  0  0  0  0  0  0  0  0
  -29.8290  -15.8100   20.6570 N   0  0  0  0  0  0  0  0  0  0  0  0
  -28.8420  -15.6210   20.7600 H   0  0  0  0  0  0  0  0  0  0  0  0
  -25.1980  -13.8720   20.4920 C   0  0  0  0  0  0  0  0  0  0  0  0
  -24.1240  -13.1080   20.8600 C   0  0  0  0  0  0  0  0  0  0  0  0
  -24.5790  -11.7530   20.8410 C   0  0  0  0  0  0  0  0  0  0  0  0
  -26.2380  -12.9850   20.2670 N   0  0  0  0  0  0  0  0  0  0  0  0
  -25.8710  -11.7050   20.5410 N   0  0  0  0  0  0  0  0  0  0  0  0
  -23.8440  -10.4980   21.0340 C   0  0  0  0  0  0  0  0  0  0  0  0
  -24.2740   -9.5240   21.9630 C   0  0  0  0  0  3  0  0  0  0  0  0
  -23.5400   -8.3320   22.1430 C   0  0  0  0  0  3  0  0  0  0  0  0
  -22.3600   -8.1070   21.3970 C   0  0  0  0  0  0  0  0  0  0  0  0
  -21.9470   -9.0680   20.4570 C   0  0  0  0  0  3  0  0  0  0  0  0
  -22.6830  -10.2510   20.2740 C   0  0  0  0  0  3  0  0  0  0  0  0
  -21.5960   -6.9680   21.4890 O   0  0  0  0  0  0  0  0  0  0  0  0
  -21.5590   -6.2160   22.6350 C   0  0  0  0  0  0  0  0  0  0  0  0
  -21.1720   -6.7660   23.8760 C   0  0  0  0  0  3  0  0  0  0  0  0
  -21.0810   -5.9410   25.0150 C   0  0  0  0  0  3  0  0  0  0  0  0
  -21.3690   -4.5670   24.9140 C   0  0  0  0  0  0  0  0  0  0  0  0
  -21.7500   -4.0150   23.6780 C   0  0  0  0  0  3  0  0  0  0  0  0
  -21.8420   -4.8370   22.5420 C   0  0  0  0  0  0  0  0  0  0  0  0
  -22.1900   -4.2970   21.3490 F   0  0  0  0  0  0  0  0  0  0  0  0
  -21.2740   -3.7720   26.0070 F   0  0  0  0  0  0  0  0  0  0  0  0
  -22.7280  -13.5960   21.1180 C   0  0  0  0  0  0  0  0  0  0  0  0
  -21.9880  -12.9140   21.9860 N   0  0  0  0  0  0  0  0  0  0  0  0
  -22.3000  -14.6180   20.5830 O   0  0  0  0  0  0  0  0  0  0  0  0
  -22.3470  -12.0900   22.4440 H   0  0  0  0  0  0  0  0  0  0  0  0
  -21.0500  -13.2230   22.1970 H   0  0  0  0  0  0  0  0  0  0  0  0
  -25.3710  -15.2400   20.3040 N   0  0  0  0  0  0  0  0  0  0  0  0
  -24.6070  -15.8990   20.4070 H   0  0  0  0  0  0  0  0  0  0  0  0
  -26.2150  -15.6690   19.9470 H   0  0  0  0  0  0  0  0  0  0  0  0
  -28.0320  -24.9410   20.1710 C   0  0  0  0  0  2  0  0  0  0  0  0
  -28.2990  -26.4130   20.2000 O   0  0  0  0  0  0  0  0  0  0  0  0
  -24.6240  -31.8800   23.2330 C   0  0  0  0  0  0  0  0  0  0  0  0
  -27.1900  -27.2880   20.1640 C   0  0  0  0  0  0  0  0  0  0  0  0
  -23.4050  -30.4880   21.6020 C   0  0  0  0  0  3  0  0  0  0  0  0
  -24.8380  -28.9320   20.1700 C   0  0  0  0  0  0  0  0  0  0  0  0
  -25.9470  -30.7900   21.4040 C   0  0  0  0  0  2  0  0  0  0  0  0
  -26.0160  -29.4100   20.7560 C   0  0  0  0  0  0  0  0  0  0  0  0
  -27.1970  -28.6010   20.7390 C   0  0  0  0  0  3  0  0  0  0  0  0
  -25.9820  -26.8740   19.5560 C   0  0  0  0  0  3  0  0  0  0  0  0
  -24.8240  -27.6720   19.5600 C   0  0  0  0  0  3  0  0  0  0  0  0
  -23.6060  -29.8150   20.2220 C   0  0  0  0  0  2  0  0  0  0  0  0
  -24.6780  -31.0710   22.1360 N   0  0  0  0  0  0  0  0  0  0  0  0
  -23.5440  -32.1640   23.7740 O   0  0  0  0  0  0  0  0  0  0  0  0
  -22.7420  -29.4740   22.5660 C   0  0  0  0  0  0  0  0  0  0  0  0
  -21.4140  -29.3040   22.4480 N   0  0  0  0  0  0  0  0  0  0  0  0
  -23.4220  -28.8430   23.3790 O   0  0  0  0  0  0  0  0  0  0  0  0
  -20.9230  -29.8660   21.7660 H   0  0  0  0  0  0  0  0  0  0  0  0
  -18.0340  -28.1210   22.9650 C   0  0  0  0  0  0  0  0  0  0  0  0
  -20.5940  -28.3720   23.2240 C   0  0  0  0  0  3  0  0  0  0  0  0
  -20.6870  -26.9380   22.6520 C   0  0  0  0  0  2  0  0  0  0  0  0
  -19.5800  -26.6170   21.6440 C   0  0  0  0  0  2  0  0  0  0  0  0
  -18.2020  -26.7690   22.2930 C   0  0  0  0  0  2  0  0  0  0  0  0
  -19.1570  -28.8810   23.3880 C   0  0  0  0  0  0  0  0  0  0  0  0
  -18.9460  -30.1460   23.9770 C   0  0  0  0  0  3  0  0  0  0  0  0
  -17.6440  -30.6530   24.1470 C   0  0  0  0  0  3  0  0  0  0  0  0
  -16.5350  -29.8920   23.7400 C   0  0  0  0  0  3  0  0  0  0  0  0
  -16.7310  -28.6270   23.1550 C   0  0  0  0  0  3  0  0  0  0  0  0
  -25.9130  -32.5090   23.8470 C   0  0  0  0  0  3  0  0  0  0  0  0
  -26.4410  -31.7270   25.1120 C   0  0  1  0  0  0  0  0  0  0  0  0
  -25.3600  -31.4840   26.1910 C   0  0  0  0  0  1  0  0  0  0  0  0
  -27.0160  -30.3500   24.7050 C   0  0  0  0  0  1  0  0  0  0  0  0
  -27.5990  -32.5140   25.7690 C   0  0  0  0  0  1  0  0  0  0  0  0
  -25.6050  -33.9040   24.1940 N   0  0  0  0  0  0  0  0  0  0  0  0
  -25.9160  -34.9640   23.4350 C   0  0  0  0  0  0  0  0  0  0  0  0
  -26.5610  -34.8690   22.3870 O   0  0  0  0  0  0  0  0  0  0  0  0
  -25.0290  -34.0510   25.0090 H   0  0  0  0  0  0  0  0  0  0  0  0
  -24.1660  -36.7480   23.1470 C   0  0  0  0  0  1  0  0  0  0  0  0
  -25.4360  -36.3460   23.9150 C   0  0  0  0  0  3  0  0  0  0  0  0
  -27.5940  -37.2400   24.6760 C   0  0  0  0  0  1  0  0  0  0  0  0
  -26.4590  -37.4060   23.7720 N   0  0  0  0  0  0  0  0  0  0  0  0
  -26.0530  -38.3230   23.9390 H   0  0  0  0  0  0  0  0  0  0  0  0
  1  3  2  0
  1  2  1  0
  2  5  2  0
  3  6  1  0
  5  4  1  0
  6  4  2  0
  7  9  1  0
  7  8  1  0
  8  5  1  0
  9  8  1  0
  9 10  1  0
 11 19  1  0
 12 17  1  0
 13 14  1  0
 13 12  1  0
 15 14  1  0
 15 24  1  0
 15 16  1  0
 17 11  1  0
 17 16  1  0
 18 11  2  0
 19 20  1  0
 19 10  1  0
 21 22  2  0
 22 41  1  0
 23 22  1  0
 23 26  1  0
 24 21  1  0
 24 25  1  0
 25 23  2  0
 26 27  1  0
 27 28  2  0
 29 32  1  0
 29 28  1  0
 30 29  2  0
 31 30  1  0
 31 26  2  0
 32 33  1  0
 33 34  1  0
 34 35  2  0
 36 35  1  0
 36 40  1  0
 37 36  2  0
 38 33  2  0
 38 37  1  0
 39 38  1  0
 41 42  1  0
 42 45  1  0
 42 44  1  0
 43 41  2  0
 46 47  1  0
 46 21  1  0
 48 46  1  0
 49  6  1  0
 49 50  1  0
 51 62  2  0
 52 50  1  0
 52 57  1  0
 53 61  1  0
 53 63  1  0
 54 60  1  0
 54 56  1  0
 55 61  1  0
 56 55  1  0
 57 56  2  0
 58 59  1  0
 58 52  2  0
 59 54  2  0
 60 53  1  0
 61 51  1  0
 63 65  2  0
 64 63  1  0
 66 64  1  0
 67 76  2  0
 67 72  1  0
 68 64  1  0
 68 72  1  0
 69 68  1  0
 70 71  1  0
 70 69  1  0
 71 67  1  0
 72 73  2  0
 73 74  1  0
 75 74  2  0
 76 75  1  0
 77 51  1  0
 77 82  1  0
 77 78  1  0
 78 81  1  1
 78 79  1  0
 80 78  1  0
 82 85  1  0
 83 87  1  0
 83 82  1  0
 84 83  2  0
 87 86  1  0
 89 87  1  0
 89 90  1  0
 89 88  1  0
M  ISO  4  11 100  19 100  49 101  50 101
M  END
>  <TORSDO>  (2) 
F 19

>  <SCORE>  (2) 
-14.156

>  <name>  (2) 
1

>  <ligand_id>  (2) 
1

>  <original_smiles>  (2) 
[H]c1c([H])c([H])c2c(c1[H])C([H])([H])C([H])([H])C([H])([H])C2([H])N([H])C(=O)C1([H])N(C(=O)C([H])(N([H])C(=O)C([H])(N([H])C([H])([H])[H])C([H])([H])[H])C(C([H])([H])[H])(C([H])([H])[H])C([H])([H])[H])C([H])([H])c2c([H])c(OC([H])([H])c3c([H])c([H])c([H])c(C4([H])C([H])([H])C4([H])C([H])([H])N([H])C(=O)N4C([H])([H])C([H])([H])C([H])([H])C([H])(n5nc(-c6c([H])c([H])c(Oc7c([H])c([H])c(F)c([H])c7F)c([H])c6[H])c(C(=O)N([H])[H])c5N([H])[H])C4([H])[H])c3[H])c([H])c([H])c2C1([H])[H]

>  <smiles>  (2) 
[H]c1c([H])c([H])c2c(c1[H])C([H])([H])C([H])([H])C([H])([H])C2([H])N([H])C(=O)C1([H])N(C(=O)C([H])(N([H])C(=O)C([H])(N([H])C([H])([H])[H])C([H])([H])[H])C(C([H])([H])[H])(C([H])([H])[H])C([H])([H])[H])C([H])([H])c2c([H])c(OC([H])([H])c3c([H])c([H])c([H])c(C4([H])C([H])([H])C4([H])C([H])([H])N([H])C(=O)N4C([H])([H])C([H])([H])C([H])([H])C([H])(n5nc(-c6c([H])c([H])c(Oc7c([H])c([H])c(F)c([H])c7F)c([H])c6[H])c(C(=O)N([H])[H])c5N([H])[H])C4([H])[H])c3[H])c([H])c([H])c2C1([H])[H]

$$$$
2:0:0
     RDKit          3D

 90100  0  0  1  0  0  0  0  0999 V2000
  -30.4690  -15.3080   20.3580 C   0  0  0  0  0  0  0  0  0  0  0  0
  -30.3880  -12.8590   19.5140 C   0  0  0  0  0  2  0  0  0  0  0  0
  -29.4970  -12.6270   18.2710 C   0  0  0  0  0  2  0  0  0  0  0  0
  -28.0440  -12.3640   18.6940 C   0  0  0  0  0  2  0  0  0  0  0  0
  -27.5730  -13.3490   19.7940 C   0  0  0  0  0  3  0  0  0  0  0  0
  -28.6020  -13.5450   20.9280 C   0  0  0  0  0  2  0  0  0  0  0  0
  -29.8370  -14.0320   20.2930 N   0  0  0  0  0  0  0  0  0  0  0  0
  -31.6930  -15.2180   20.1880 O   0  0  0  0  0  0  0  0  0  0  0  0
  -28.9870  -22.9680   20.6310 C   0  0  0  0  0  0  0  0  0  0  0  0
  -31.0990  -20.9570   19.3040 C   0  0  0  0  0  2  0  0  0  0  0  0
  -29.8620  -20.7780   18.3900 C   0  0  0  0  0  2  0  0  0  0  0  0
  -30.6010  -19.2680   21.2650 C   0  0  0  0  0  2  0  0  0  0  0  0
  -28.5040  -17.3660   20.3380 C   0  0  0  0  0  2  0  0  0  0  0  0
  -29.0950  -18.6340   19.5340 C   0  0  0  0  0  3  0  0  0  0  0  0
  -30.4980  -20.8210   20.7220 C   0  0  0  0  0  3  0  0  0  0  0  0
  -28.7790  -20.3430   19.3990 C   0  0  0  0  0  3  0  0  0  0  0  0
  -30.4030  -18.1490   20.1580 C   0  0  0  0  0  3  0  0  0  0  0  0
  -29.1530  -21.4780   20.4300 N   0  0  0  0  0  0  0  0  0  0  0  0
  -29.8630  -16.6760   20.4020 N   0  0  0  0  0  0  0  0  0  0  0  0
  -29.7280  -23.4280   21.5060 O   0  0  0  0  0  0  0  0  0  0  0  0
  -25.1960  -13.9050   20.5180 C   0  0  0  0  0  0  0  0  0  0  0  0
  -24.1290  -13.1280   20.8730 C   0  0  0  0  0  0  0  0  0  0  0  0
  -24.5970  -11.7790   20.8540 C   0  0  0  0  0  0  0  0  0  0  0  0
  -26.2420  -13.0300   20.2920 N   0  0  0  0  0  0  0  0  0  0  0  0
  -25.8940  -11.7450   20.5640 N   0  0  0  0  0  0  0  0  0  0  0  0
  -23.8670  -10.5160   21.0350 C   0  0  0  0  0  0  0  0  0  0  0  0
  -24.2840   -9.5480   21.9760 C   0  0  0  0  0  3  0  0  0  0  0  0
  -23.5500   -8.3550   22.1470 C   0  0  0  0  0  3  0  0  0  0  0  0
  -22.3850   -8.1200   21.3780 C   0  0  0  0  0  0  0  0  0  0  0  0
  -21.9880   -9.0770   20.4260 C   0  0  0  0  0  3  0  0  0  0  0  0
  -22.7230  -10.2610   20.2530 C   0  0  0  0  0  3  0  0  0  0  0  0
  -21.6240   -6.9790   21.4590 O   0  0  0  0  0  0  0  0  0  0  0  0
  -21.5560   -6.2400   22.6120 C   0  0  0  0  0  0  0  0  0  0  0  0
  -21.1190   -6.8000   23.8320 C   0  0  0  0  0  3  0  0  0  0  0  0
  -20.9970   -5.9870   24.9770 C   0  0  0  0  0  3  0  0  0  0  0  0
  -21.3020   -4.6150   24.9030 C   0  0  0  0  0  0  0  0  0  0  0  0
  -21.7320   -4.0540   23.6870 C   0  0  0  0  0  3  0  0  0  0  0  0
  -21.8560   -4.8640   22.5450 C   0  0  0  0  0  0  0  0  0  0  0  0
  -22.2490   -4.3130   21.3710 F   0  0  0  0  0  0  0  0  0  0  0  0
  -21.1790   -3.8320   26.0000 F   0  0  0  0  0  0  0  0  0  0  0  0
  -22.7270  -13.6070   21.1130 C   0  0  0  0  0  0  0  0  0  0  0  0
  -21.9850  -12.9200   21.9730 N   0  0  0  0  0  0  0  0  0  0  0  0
  -22.3000  -14.6260   20.5730 O   0  0  0  0  0  0  0  0  0  0  0  0
  -22.3450  -12.0970   22.4320 H   0  0  0  0  0  0  0  0  0  0  0  0
  -21.0430  -13.2230   22.1780 H   0  0  0  0  0  0  0  0  0  0  0  0
  -25.3580  -15.2750   20.3400 N   0  0  0  0  0  0  0  0  0  0  0  0
  -24.5900  -15.9290   20.4410 H   0  0  0  0  0  0  0  0  0  0  0  0
  -26.2140  -15.7100   20.0260 H   0  0  0  0  0  0  0  0  0  0  0  0
  -28.0350  -24.2760   19.9850 C   0  0  0  0  0  2  0  0  0  0  0  0
  -28.2370  -25.8870   20.3020 O   0  0  0  0  0  0  0  0  0  0  0  0
  -24.6550  -31.8400   23.2410 C   0  0  0  0  0  0  0  0  0  0  0  0
  -27.2280  -26.9820   20.2140 C   0  0  0  0  0  0  0  0  0  0  0  0
  -23.4690  -30.4490   21.5920 C   0  0  0  0  0  3  0  0  0  0  0  0
  -24.9250  -28.8540   20.1650 C   0  0  0  0  0  0  0  0  0  0  0  0
  -26.0350  -30.6670   21.4560 C   0  0  0  0  0  2  0  0  0  0  0  0
  -26.1090  -29.2600   20.7930 C   0  0  0  0  0  0  0  0  0  0  0  0
  -27.2540  -28.3440   20.7940 C   0  0  0  0  0  3  0  0  0  0  0  0
  -26.0170  -26.7280   19.5330 C   0  0  0  0  0  3  0  0  0  0  0  0
  -24.9050  -27.6090   19.5140 C   0  0  0  0  0  3  0  0  0  0  0  0
  -23.7040  -29.7710   20.2130 C   0  0  0  0  0  2  0  0  0  0  0  0
  -24.7410  -31.0120   22.1500 N   0  0  0  0  0  0  0  0  0  0  0  0
  -23.5630  -32.1250   23.7600 O   0  0  0  0  0  0  0  0  0  0  0  0
  -22.7730  -29.4480   22.5520 C   0  0  0  0  0  0  0  0  0  0  0  0
  -21.4430  -29.2870   22.4270 N   0  0  0  0  0  0  0  0  0  0  0  0
  -23.4380  -28.8170   23.3760 O   0  0  0  0  0  0  0  0  0  0  0  0
  -20.9600  -29.8490   21.7400 H   0  0  0  0  0  0  0  0  0  0  0  0
  -18.0580  -28.0840   22.9310 C   0  0  0  0  0  0  0  0  0  0  0  0
  -20.6190  -28.3460   23.1940 C   0  0  0  0  0  3  0  0  0  0  0  0
  -20.7180  -26.9180   22.6090 C   0  0  0  0  0  2  0  0  0  0  0  0
  -19.6140  -26.6030   21.5940 C   0  0  0  0  0  2  0  0  0  0  0  0
  -18.2330  -26.7410   22.2420 C   0  0  0  0  0  2  0  0  0  0  0  0
  -19.1770  -28.8440   23.3640 C   0  0  0  0  0  0  0  0  0  0  0  0
  -18.9560  -30.0990   23.9730 C   0  0  0  0  0  3  0  0  0  0  0  0
  -17.6510  -30.5940   24.1510 C   0  0  0  0  0  3  0  0  0  0  0  0
  -16.5470  -29.8310   23.7320 C   0  0  0  0  0  3  0  0  0  0  0  0
  -16.7510  -28.5780   23.1290 C   0  0  0  0  0  3  0  0  0  0  0  0
  -25.9230  -32.4820   23.8820 C   0  0  0  0  0  3  0  0  0  0  0  0
  -25.6020  -33.8810   24.2150 N   0  0  0  0  0  0  0  0  0  0  0  0
  -25.9270  -34.9440   23.4660 C   0  0  0  0  0  0  0  0  0  0  0  0
  -26.5890  -34.8500   22.4290 O   0  0  0  0  0  0  0  0  0  0  0  0
  -25.0120  -34.0280   25.0200 H   0  0  0  0  0  0  0  0  0  0  0  0
  -24.1820  -36.7350   23.1580 C   0  0  0  0  0  1  0  0  0  0  0  0
  -25.4430  -36.3310   23.9400 C   0  0  0  0  0  3  0  0  0  0  0  0
  -27.5890  -37.2290   24.7270 C   0  0  0  0  0  1  0  0  0  0  0  0
  -26.4670  -37.3900   23.8070 N   0  0  0  0  0  0  0  0  0  0  0  0
  -26.0590  -38.3080   23.9630 H   0  0  0  0  0  0  0  0  0  0  0  0
  -26.4210  -31.7170   25.1710 C   0  0  1  0  0  0  0  0  0  0  0  0
  -25.3150  -31.4920   26.2270 C   0  0  0  0  0  1  0  0  0  0  0  0
  -27.0040  -30.3350   24.8030 C   0  0  0  0  0  1  0  0  0  0  0  0
  -27.5670  -32.5130   25.8410 C   0  0  0  0  0  1  0  0  0  0  0  0
  1 19  1  0
  2  7  1  0
  3  4  1  0
  3  2  1  0
  5  4  1  0
  5 24  1  0
  5  6  1  0
  7  1  1  0
  7  6  1  0
  8  1  2  0
  9 20  2  0
 11 10  1  0
 13 19  1  0
 14 17  1  0
 14 13  1  0
 15 10  1  0
 15 12  1  0
 16 11  1  0
 16 14  1  0
 16 18  1  0
 17 19  1  0
 17 12  1  0
 18  9  1  0
 18 15  1  0
 21 22  2  0
 22 41  1  0
 23 22  1  0
 23 26  1  0
 24 21  1  0
 24 25  1  0
 25 23  2  0
 26 27  1  0
 27 28  2  0
 29 32  1  0
 29 28  1  0
 30 29  2  0
 31 30  1  0
 31 26  2  0
 32 33  1  0
 33 34  1  0
 34 35  2  0
 36 35  1  0
 36 40  1  0
 37 36  2  0
 38 33  2  0
 38 37  1  0
 39 38  1  0
 41 42  1  0
 42 45  1  0
 42 44  1  0
 43 41  2  0
 46 47  1  0
 46 21  1  0
 48 46  1  0
 49 50  1  0
 49  9  1  0
 51 62  2  0
 52 50  1  0
 52 57  1  0
 53 61  1  0
 53 63  1  0
 54 60  1  0
 54 56  1  0
 55 61  1  0
 56 57  2  0
 56 55  1  0
 58 52  2  0
 59 58  1  0
 59 54  2  0
 60 53  1  0
 61 51  1  0
 63 65  2  0
 64 63  1  0
 66 64  1  0
 67 76  2  0
 67 72  1  0
 68 64  1  0
 68 72  1  0
 69 68  1  0
 70 71  1  0
 70 69  1  0
 71 67  1  0
 72 73  2  0
 73 74  1  0
 75 74  2  0
 76 75  1  0
 77 51  1  0
 77 78  1  0
 77 87  1  0
 78 81  1  0
 79 83  1  0
 79 78  1  0
 80 79  2  0
 83 82  1  0
 85 83  1  0
 85 86  1  0
 85 84  1  0
 87 90  1  1
 87 88  1  0
 89 87  1  0
M  ISO  4   1 100  19 100  49 101  50 101
M  END
>  <TORSDO>  (3) 
F 16

>  <SCORE>  (3) 
-16.927

>  <name>  (3) 
2

>  <ligand_id>  (3) 
2

>  <original_smiles>  (3) 
[H]c1c([H])c([H])c2c(c1[H])C([H])([H])C([H])([H])C([H])([H])C2([H])N([H])C(=O)C1([H])N(C(=O)C([H])(N([H])C(=O)C([H])(N([H])C([H])([H])[H])C([H])([H])[H])C(C([H])([H])[H])(C([H])([H])[H])C([H])([H])[H])C([H])([H])c2c([H])c(OC([H])([H])C(=O)N3C4([H])C([H])([H])C([H])([H])C3([H])C3([H])C([H])([H])N(C(=O)N5C([H])([H])C([H])([H])C([H])([H])C([H])(n6nc(-c7c([H])c([H])c(Oc8c([H])c([H])c(F)c([H])c8F)c([H])c7[H])c(C(=O)N([H])[H])c6N([H])[H])C5([H])[H])C3([H])C4([H])[H])c([H])c([H])c2C1([H])[H]

>  <smiles>  (3) 
[H]c1c([H])c([H])c2c(c1[H])C([H])([H])C([H])([H])C([H])([H])C2([H])N([H])C(=O)C1([H])N(C(=O)C([H])(N([H])C(=O)C([H])(N([H])C([H])([H])[H])C([H])([H])[H])C(C([H])([H])[H])(C([H])([H])[H])C([H])([H])[H])C([H])([H])c2c([H])c(OC([H])([H])C(=O)N3C4([H])C([H])([H])C([H])([H])C3([H])C3([H])C([H])([H])N(C(=O)N5C([H])([H])C([H])([H])C([H])([H])C([H])(n6nc(-c7c([H])c([H])c(Oc8c([H])c([H])c(F)c([H])c8F)c([H])c7[H])c(C(=O)N([H])[H])c6N([H])[H])C5([H])[H])C3([H])C4([H])[H])c([H])c([H])c2C1([H])[H]

$$$$
3:0:0
     RDKit          3D

 91100  0  0  1  0  0  0  0  0999 V2000
  -30.2650  -20.0850   21.6910 C   0  0  0  0  0  2  0  0  0  0  0  0
  -31.3780  -19.8470   19.6280 C   0  0  0  0  0  2  0  0  0  0  0  0
  -28.5910  -20.2560   20.0290 C   0  0  0  0  0  2  0  0  0  0  0  0
  -29.4370  -19.1820   20.7710 C   0  0  0  0  0  3  0  0  0  0  0  0
  -30.4780  -18.5730   19.7930 C   0  0  0  0  0  3  0  0  0  0  0  0
  -30.7390  -20.9570   20.5340 C   0  0  0  0  0  3  0  0  0  0  0  0
  -29.4740  -21.4590   19.9180 N   0  0  2  0  0  4  0  0  0  0  0  0
  -29.6460  -21.6440   18.9420 H   0  0  0  0  0  0  0  0  0  0  0  0
  -31.2960  -17.2910   20.2540 C   0  0  0  0  0  2  0  0  0  0  0  0
  -31.1280  -14.7830   20.0960 C   0  0  0  0  0  0  0  0  0  0  0  0
  -30.6700  -12.6170   18.9580 C   0  0  0  0  0  2  0  0  0  0  0  0
  -29.6900  -12.8260   17.7860 C   0  0  0  0  0  2  0  0  0  0  0  0
  -28.2310  -12.7200   18.2760 C   0  0  0  0  0  2  0  0  0  0  0  0
  -27.9650  -13.5350   19.5690 C   0  0  0  0  0  3  0  0  0  0  0  0
  -29.0700  -13.2900   20.6140 C   0  0  0  0  0  2  0  0  0  0  0  0
  -30.3590  -13.6380   19.9870 N   0  0  0  0  0  0  0  0  0  0  0  0
  -32.2460  -14.8010   19.5750 O   0  0  0  0  0  0  0  0  0  0  0  0
  -29.9130  -16.0350   21.8380 C   0  0  0  0  0  1  0  0  0  0  0  0
  -30.5960  -15.9810   20.5440 N   0  0  0  0  0  0  0  0  0  0  0  0
  -25.6240  -14.1790   20.4100 C   0  0  0  0  0  0  0  0  0  0  0  0
  -24.5520  -13.4260   20.8100 C   0  0  0  0  0  0  0  0  0  0  0  0
  -24.9750  -12.0640   20.7270 C   0  0  0  0  0  0  0  0  0  0  0  0
  -26.6310  -13.2770   20.1080 N   0  0  0  0  0  0  0  0  0  0  0  0
  -26.2470  -11.9970   20.3530 N   0  0  0  0  0  0  0  0  0  0  0  0
  -24.2250  -10.8160   20.9270 C   0  0  0  0  0  0  0  0  0  0  0  0
  -24.6390   -9.8460   21.8640 C   0  0  0  0  0  3  0  0  0  0  0  0
  -23.8890   -8.6640   22.0510 C   0  0  0  0  0  3  0  0  0  0  0  0
  -22.7130   -8.4430   21.2950 C   0  0  0  0  0  0  0  0  0  0  0  0
  -22.3220   -9.4000   20.3440 C   0  0  0  0  0  3  0  0  0  0  0  0
  -23.0700  -10.5730   20.1570 C   0  0  0  0  0  3  0  0  0  0  0  0
  -21.9350   -7.3140   21.3900 O   0  0  0  0  0  0  0  0  0  0  0  0
  -21.8080   -6.6240   22.5690 C   0  0  0  0  0  0  0  0  0  0  0  0
  -21.3040   -7.2330   23.7370 C   0  0  0  0  0  3  0  0  0  0  0  0
  -21.1310   -6.4710   24.9110 C   0  0  0  0  0  3  0  0  0  0  0  0
  -21.4490   -5.0990   24.9120 C   0  0  0  0  0  0  0  0  0  0  0  0
  -21.9440   -4.4890   23.7450 C   0  0  0  0  0  3  0  0  0  0  0  0
  -22.1190   -5.2500   22.5760 C   0  0  0  0  0  0  0  0  0  0  0  0
  -22.5730   -4.6540   21.4490 F   0  0  0  0  0  0  0  0  0  0  0  0
  -21.2740   -4.3620   26.0340 F   0  0  0  0  0  0  0  0  0  0  0  0
  -23.1830  -13.9340   21.1610 C   0  0  0  0  0  0  0  0  0  0  0  0
  -22.4890  -13.2440   22.0610 N   0  0  0  0  0  0  0  0  0  0  0  0
  -22.7390  -14.9710   20.6760 O   0  0  0  0  0  0  0  0  0  0  0  0
  -22.8520  -12.3960   22.4640 H   0  0  0  0  0  0  0  0  0  0  0  0
  -21.5790  -13.5720   22.3530 H   0  0  0  0  0  0  0  0  0  0  0  0
  -25.8220  -15.5480   20.2550 N   0  0  0  0  0  0  0  0  0  0  0  0
  -25.0920  -16.2260   20.4330 H   0  0  0  0  0  0  0  0  0  0  0  0
  -26.6790  -15.9690   19.9160 H   0  0  0  0  0  0  0  0  0  0  0  0
  -28.8100  -22.6890   20.5050 C   0  0  0  0  0  2  0  0  0  0  0  0
  -29.3670  -24.1250   20.1710 C   0  0  0  0  0  2  0  0  0  0  0  0
  -28.3270  -25.2470   20.5580 C   0  0  0  0  0  2  0  0  0  0  0  0
  -28.5750  -26.6550   20.2250 O   0  0  0  0  0  0  0  0  0  0  0  0
  -24.6350  -31.8950   23.2130 C   0  0  0  0  0  0  0  0  0  0  0  0
  -27.4400  -27.4670   20.1740 C   0  0  0  0  0  0  0  0  0  0  0  0
  -23.5120  -30.4920   21.5170 C   0  0  0  0  0  3  0  0  0  0  0  0
  -25.0380  -28.9970   20.1210 C   0  0  0  0  0  0  0  0  0  0  0  0
  -26.0450  -30.8750   21.4190 C   0  0  0  0  0  2  0  0  0  0  0  0
  -26.1740  -29.5080   20.7640 C   0  0  0  0  0  0  0  0  0  0  0  0
  -27.3800  -28.7520   20.7870 C   0  0  0  0  0  3  0  0  0  0  0  0
  -26.2900  -27.0140   19.4920 C   0  0  0  0  0  3  0  0  0  0  0  0
  -25.0940  -27.7520   19.4800 C   0  0  0  0  0  3  0  0  0  0  0  0
  -23.7840  -29.8430   20.1380 C   0  0  0  0  0  2  0  0  0  0  0  0
  -24.7470  -31.1050   22.1080 N   0  0  0  0  0  0  0  0  0  0  0  0
  -23.5290  -32.1450   23.7130 O   0  0  0  0  0  0  0  0  0  0  0  0
  -22.8390  -29.4500   22.4410 C   0  0  0  0  0  0  0  0  0  0  0  0
  -21.5170  -29.2680   22.2830 N   0  0  0  0  0  0  0  0  0  0  0  0
  -23.5050  -28.8100   23.2580 O   0  0  0  0  0  0  0  0  0  0  0  0
  -21.0390  -29.8400   21.6020 H   0  0  0  0  0  0  0  0  0  0  0  0
  -18.1280  -28.0750   22.7120 C   0  0  0  0  0  0  0  0  0  0  0  0
  -20.6860  -28.3110   23.0150 C   0  0  0  0  0  3  0  0  0  0  0  0
  -20.7830  -26.8970   22.3960 C   0  0  0  0  0  2  0  0  0  0  0  0
  -19.6900  -26.6120   21.3620 C   0  0  0  0  0  2  0  0  0  0  0  0
  -18.3040  -26.7450   21.9980 C   0  0  0  0  0  2  0  0  0  0  0  0
  -19.2460  -28.8170   23.1750 C   0  0  0  0  0  0  0  0  0  0  0  0
  -19.0290  -30.0630   23.8020 C   0  0  0  0  0  3  0  0  0  0  0  0
  -17.7260  -30.5680   23.9700 C   0  0  0  0  0  3  0  0  0  0  0  0
  -16.6210  -29.8220   23.5230 C   0  0  0  0  0  3  0  0  0  0  0  0
  -16.8230  -28.5770   22.9000 C   0  0  0  0  0  3  0  0  0  0  0  0
  -25.8840  -32.5430   23.8860 C   0  0  0  0  0  3  0  0  0  0  0  0
  -26.3590  -31.7740   25.1790 C   0  0  1  0  0  0  0  0  0  0  0  0
  -25.2230  -31.5030   26.1920 C   0  0  0  0  0  1  0  0  0  0  0  0
  -26.9900  -30.4150   24.8000 C   0  0  0  0  0  1  0  0  0  0  0  0
  -27.4630  -32.5870   25.8920 C   0  0  0  0  0  1  0  0  0  0  0  0
  -25.5460  -33.9370   24.2040 N   0  0  0  0  0  0  0  0  0  0  0  0
  -25.9030  -34.9950   23.4610 C   0  0  0  0  0  0  0  0  0  0  0  0
  -26.6210  -34.8980   22.4620 O   0  0  0  0  0  0  0  0  0  0  0  0
  -24.9130  -34.0850   24.9760 H   0  0  0  0  0  0  0  0  0  0  0  0
  -24.1820  -36.7730   23.0240 C   0  0  0  0  0  1  0  0  0  0  0  0
  -25.3830  -36.3770   23.8980 C   0  0  0  0  0  3  0  0  0  0  0  0
  -27.4610  -37.2760   24.8460 C   0  0  0  0  0  1  0  0  0  0  0  0
  -26.4140  -37.4380   23.8410 N   0  0  0  0  0  0  0  0  0  0  0  0
  -25.9940  -38.3560   23.9640 H   0  0  0  0  0  0  0  0  0  0  0  0
  2  5  1  0
  4  3  1  0
  4  1  1  0
  5  9  1  0
  5  4  1  0
  6  2  1  0
  6  1  1  0
  7  3  1  0
  7 48  1  0
  7  6  1  0
  7  8  1  6
  9 19  1  0
 10 19  1  0
 11 16  1  0
 12 13  1  0
 12 11  1  0
 14 13  1  0
 14 23  1  0
 14 15  1  0
 16 10  1  0
 16 15  1  0
 17 10  2  0
 19 18  1  0
 20 21  2  0
 21 40  1  0
 22 21  1  0
 22 25  1  0
 23 24  1  0
 23 20  1  0
 24 22  2  0
 25 26  1  0
 26 27  2  0
 28 31  1  0
 28 27  1  0
 29 28  2  0
 30 29  1  0
 30 25  2  0
 31 32  1  0
 32 37  2  0
 32 33  1  0
 33 34  2  0
 34 35  1  0
 35 39  1  0
 36 35  2  0
 37 36  1  0
 38 37  1  0
 40 41  1  0
 41 44  1  0
 41 43  1  0
 42 40  2  0
 45 20  1  0
 45 46  1  0
 47 45  1  0
 49 48  1  0
 49 50  1  0
 51 50  1  0
 52 63  2  0
 53 51  1  0
 53 58  1  0
 54 62  1  0
 54 64  1  0
 55 61  1  0
 55 57  1  0
 56 62  1  0
 57 58  2  0
 57 56  1  0
 59 53  2  0
 60 59  1  0
 60 55  2  0
 61 54  1  0
 62 52  1  0
 64 66  2  0
 65 64  1  0
 67 65  1  0
 68 77  2  0
 68 73  1  0
 69 65  1  0
 69 73  1  0
 70 69  1  0
 71 72  1  0
 71 70  1  0
 72 68  1  0
 73 74  2  0
 74 75  1  0
 76 75  2  0
 77 76  1  0
 78 52  1  0
 78 83  1  0
 78 79  1  0
 79 82  1  1
 79 80  1  0
 81 79  1  0
 83 86  1  0
 84 88  1  0
 84 83  1  0
 85 84  2  0
 88 87  1  0
 90 88  1  0
 90 91  1  0
 90 89  1  0
M  ISO  4  10 100  19 100  50 101  51 101
M  END
>  <TORSDO>  (4) 
F 20

>  <SCORE>  (4) 
-13.260

>  <name>  (4) 
3

>  <ligand_id>  (4) 
3

>  <original_smiles>  (4) 
[H]c1c([H])c([H])c2c(c1[H])C([H])([H])C([H])([H])C([H])([H])C2([H])N([H])C(=O)C1([H])N(C(=O)C([H])(N([H])C(=O)C([H])(N([H])C([H])([H])[H])C([H])([H])[H])C(C([H])([H])[H])(C([H])([H])[H])C([H])([H])[H])C([H])([H])c2c([H])c(OC([H])([H])C([H])([H])C([H])([H])[N+]3([H])C([H])([H])C4([H])C([H])([H])C3([H])C([H])([H])C4([H])C([H])([H])N(C(=O)N3C([H])([H])C([H])([H])C([H])([H])C([H])(n4nc(-c5c([H])c([H])c(Oc6c([H])c([H])c(F)c([H])c6F)c([H])c5[H])c(C(=O)N([H])[H])c4N([H])[H])C3([H])[H])C([H])([H])[H])c([H])c([H])c2C1([H])[H]

>  <smiles>  (4) 
[H]c1c([H])c([H])c2c(c1[H])C([H])([H])C([H])([H])C([H])([H])C2([H])N([H])C(=O)C1([H])N(C(=O)C([H])(N([H])C(=O)C([H])(N([H])C([H])([H])[H])C([H])([H])[H])C(C([H])([H])[H])(C([H])([H])[H])C([H])([H])[H])C([H])([H])c2c([H])c(OC([H])([H])C([H])([H])C([H])([H])[N+]3([H])C([H])([H])C4([H])C([H])([H])C3([H])C([H])([H])C4([H])C([H])([H])N(C(=O)N3C([H])([H])C([H])([H])C([H])([H])C([H])(n4nc(-c5c([H])c([H])c(Oc6c([H])c([H])c(F)c([H])c6F)c([H])c5[H])c(C(=O)N([H])[H])c4N([H])[H])C3([H])[H])C([H])([H])[H])c([H])c([H])c2C1([H])[H]

$$$$
4:0:0
     RDKit          3D

 88 96  0  0  1  0  0  0  0  0999 V2000
  -31.1660  -22.4350   20.6440 C   0  0  0  0  0  3  0  0  0  0  0  0
  -30.7720  -21.0740   20.5680 C   0  0  0  0  0  3  0  0  0  0  0  0
  -30.2620  -23.5190   20.4940 C   0  0  0  0  0  3  0  0  0  0  0  0
  -28.5210  -21.8630   20.1830 C   0  0  0  0  0  3  0  0  0  0  0  0
  -29.4330  -20.6900   20.3390 C   0  0  0  0  0  0  0  0  0  0  0  0
  -28.8900  -23.3100   20.2540 C   0  0  0  0  0  0  0  0  0  0  0  0
  -29.0640  -19.0670   20.2850 C   0  0  0  0  0  3  0  0  0  0  0  0
  -30.1380  -17.7530   20.4270 C   0  0  0  0  0  3  0  0  0  0  0  0
  -30.5190  -15.0060   20.3280 C   0  0  0  0  0  0  0  0  0  0  0  0
  -30.3980  -12.6520   19.3870 C   0  0  0  0  0  2  0  0  0  0  0  0
  -29.4650  -12.6010   18.1550 C   0  0  0  0  0  2  0  0  0  0  0  0
  -28.0050  -12.3770   18.5890 C   0  0  0  0  0  2  0  0  0  0  0  0
  -27.5920  -13.2960   19.7700 C   0  0  0  0  0  3  0  0  0  0  0  0
  -28.6510  -13.3250   20.8910 C   0  0  0  0  0  2  0  0  0  0  0  0
  -29.9170  -13.7480   20.2760 N   0  0  0  0  0  0  0  0  0  0  0  0
  -31.7260  -15.0580   20.0670 O   0  0  0  0  0  0  0  0  0  0  0  0
  -29.7550  -16.2050   20.4600 N   0  0  0  0  0  0  0  0  0  0  0  0
  -28.7730  -16.0300   20.6060 H   0  0  0  0  0  0  0  0  0  0  0  0
  -25.2090  -13.8510   20.5170 C   0  0  0  0  0  0  0  0  0  0  0  0
  -24.1530  -13.0660   20.8890 C   0  0  0  0  0  0  0  0  0  0  0  0
  -24.6300  -11.7190   20.8570 C   0  0  0  0  0  0  0  0  0  0  0  0
  -26.2590  -12.9820   20.2740 N   0  0  0  0  0  0  0  0  0  0  0  0
  -25.9210  -11.6950   20.5470 N   0  0  0  0  0  0  0  0  0  0  0  0
  -23.9140  -10.4500   21.0470 C   0  0  0  0  0  0  0  0  0  0  0  0
  -24.3540   -9.4860   21.9790 C   0  0  0  0  0  3  0  0  0  0  0  0
  -23.6370   -8.2830   22.1590 C   0  0  0  0  0  3  0  0  0  0  0  0
  -22.4650   -8.0370   21.4060 C   0  0  0  0  0  0  0  0  0  0  0  0
  -22.0430   -8.9890   20.4620 C   0  0  0  0  0  3  0  0  0  0  0  0
  -22.7600  -10.1840   20.2820 C   0  0  0  0  0  3  0  0  0  0  0  0
  -21.7190   -6.8870   21.4940 O   0  0  0  0  0  0  0  0  0  0  0  0
  -21.6800   -6.1410   22.6450 C   0  0  0  0  0  0  0  0  0  0  0  0
  -21.2540   -6.6880   23.8740 C   0  0  0  0  0  3  0  0  0  0  0  0
  -21.1640   -5.8670   25.0170 C   0  0  0  0  0  3  0  0  0  0  0  0
  -21.4890   -4.5000   24.9310 C   0  0  0  0  0  0  0  0  0  0  0  0
  -21.9080   -3.9530   23.7050 C   0  0  0  0  0  3  0  0  0  0  0  0
  -22.0000   -4.7690   22.5650 C   0  0  0  0  0  0  0  0  0  0  0  0
  -22.3840   -4.2320   21.3820 F   0  0  0  0  0  0  0  0  0  0  0  0
  -21.3950   -3.7090   26.0250 F   0  0  0  0  0  0  0  0  0  0  0  0
  -22.7510  -13.5310   21.1550 C   0  0  0  0  0  0  0  0  0  0  0  0
  -22.0280  -12.8330   22.0230 N   0  0  0  0  0  0  0  0  0  0  0  0
  -22.3060  -14.5500   20.6280 O   0  0  0  0  0  0  0  0  0  0  0  0
  -22.4040  -12.0120   22.4750 H   0  0  0  0  0  0  0  0  0  0  0  0
  -21.0860  -13.1250   22.2410 H   0  0  0  0  0  0  0  0  0  0  0  0
  -25.3570  -15.2230   20.3360 N   0  0  0  0  0  0  0  0  0  0  0  0
  -24.5720  -15.8590   20.4340 H   0  0  0  0  0  0  0  0  0  0  0  0
  -26.1840  -15.6700   19.9620 H   0  0  0  0  0  0  0  0  0  0  0  0
  -27.9020  -24.6250   20.0350 C   0  0  0  0  0  2  0  0  0  0  0  0
  -28.2300  -26.1410   20.2680 O   0  0  0  0  0  0  0  0  0  0  0  0
  -24.6420  -31.8930   23.2460 C   0  0  0  0  0  0  0  0  0  0  0  0
  -27.1940  -27.1540   20.2040 C   0  0  0  0  0  0  0  0  0  0  0  0
  -23.4360  -30.5070   21.6060 C   0  0  0  0  0  3  0  0  0  0  0  0
  -24.8760  -28.9260   20.1780 C   0  0  0  0  0  0  0  0  0  0  0  0
  -25.9940  -30.7520   21.4450 C   0  0  0  0  0  2  0  0  0  0  0  0
  -26.0600  -29.3590   20.7890 C   0  0  0  0  0  0  0  0  0  0  0  0
  -27.2190  -28.4890   20.7860 C   0  0  0  0  0  3  0  0  0  0  0  0
  -25.9810  -26.8340   19.5510 C   0  0  0  0  0  3  0  0  0  0  0  0
  -24.8510  -27.6770   19.5430 C   0  0  0  0  0  3  0  0  0  0  0  0
  -23.6540  -29.8310   20.2270 C   0  0  0  0  0  2  0  0  0  0  0  0
  -24.7100  -31.0710   22.1540 N   0  0  0  0  0  0  0  0  0  0  0  0
  -23.5560  -32.1830   23.7730 O   0  0  0  0  0  0  0  0  0  0  0  0
  -22.7480  -29.5030   22.5670 C   0  0  0  0  0  0  0  0  0  0  0  0
  -21.4190  -29.3390   22.4380 N   0  0  0  0  0  0  0  0  0  0  0  0
  -23.4130  -28.8730   23.3930 O   0  0  0  0  0  0  0  0  0  0  0  0
  -20.9370  -29.8980   21.7460 H   0  0  0  0  0  0  0  0  0  0  0  0
  -18.0310  -28.1490   22.9270 C   0  0  0  0  0  0  0  0  0  0  0  0
  -20.5900  -28.4070   23.2090 C   0  0  0  0  0  3  0  0  0  0  0  0
  -20.6920  -26.9720   22.6410 C   0  0  0  0  0  2  0  0  0  0  0  0
  -19.5940  -26.6460   21.6230 C   0  0  0  0  0  2  0  0  0  0  0  0
  -18.2090  -26.7960   22.2580 C   0  0  0  0  0  2  0  0  0  0  0  0
  -19.1490  -28.9120   23.3590 C   0  0  0  0  0  0  0  0  0  0  0  0
  -18.9260  -30.1750   23.9480 C   0  0  0  0  0  3  0  0  0  0  0  0
  -17.6200  -30.6770   24.1060 C   0  0  0  0  0  3  0  0  0  0  0  0
  -16.5180  -29.9110   23.6880 C   0  0  0  0  0  3  0  0  0  0  0  0
  -16.7250  -28.6490   23.1040 C   0  0  0  0  0  3  0  0  0  0  0  0
  -25.9210  -32.5210   23.8760 C   0  0  0  0  0  3  0  0  0  0  0  0
  -26.4300  -31.7450   25.1520 C   0  0  1  0  0  0  0  0  0  0  0  0
  -25.3320  -31.5120   26.2170 C   0  0  0  0  0  1  0  0  0  0  0  0
  -27.0050  -30.3640   24.7630 C   0  0  0  0  0  1  0  0  0  0  0  0
  -27.5830  -32.5300   25.8180 C   0  0  0  0  0  1  0  0  0  0  0  0
  -25.6140  -33.9190   24.2170 N   0  0  0  0  0  0  0  0  0  0  0  0
  -25.9260  -34.9790   23.4580 C   0  0  0  0  0  0  0  0  0  0  0  0
  -26.5690  -34.8820   22.4090 O   0  0  0  0  0  0  0  0  0  0  0  0
  -25.0410  -34.0690   25.0350 H   0  0  0  0  0  0  0  0  0  0  0  0
  -24.1750  -36.7650   23.1780 C   0  0  0  0  0  1  0  0  0  0  0  0
  -25.4520  -36.3660   23.9370 C   0  0  0  0  0  3  0  0  0  0  0  0
  -27.6130  -37.2660   24.6780 C   0  0  0  0  0  1  0  0  0  0  0  0
  -26.4740  -37.4240   23.7780 N   0  0  0  0  0  0  0  0  0  0  0  0
  -26.0690  -38.3430   23.9370 H   0  0  0  0  0  0  0  0  0  0  0  0
  2  1  1  0
  3  1  2  0
  4  6  2  0
  4  5  1  0
  5  2  2  0
  6  3  1  0
  7  5  1  0
  7  8  2  0
  8 17  1  0
  9 17  1  0
 10 15  1  0
 11 12  1  0
 11 10  1  0
 13 12  1  0
 13 22  1  0
 13 14  1  0
 15  9  1  0
 15 14  1  0
 16  9  2  0
 17 18  1  0
 19 20  2  0
 20 39  1  0
 21 20  1  0
 21 24  1  0
 22 19  1  0
 22 23  1  0
 23 21  2  0
 24 25  1  0
 25 26  2  0
 27 30  1  0
 27 26  1  0
 28 27  2  0
 29 28  1  0
 29 24  2  0
 30 31  1  0
 31 32  1  0
 32 33  2  0
 34 33  1  0
 34 38  1  0
 35 34  2  0
 36 31  2  0
 36 35  1  0
 37 36  1  0
 39 40  1  0
 40 43  1  0
 40 42  1  0
 41 39  2  0
 44 45  1  0
 44 19  1  0
 46 44  1  0
 47  6  1  0
 47 48  1  0
 49 60  2  0
 50 48  1  0
 50 55  1  0
 51 59  1  0
 51 61  1  0
 52 58  1  0
 52 54  1  0
 53 59  1  0
 54 53  1  0
 55 54  2  0
 56 50  2  0
 57 56  1  0
 57 52  2  0
 58 51  1  0
 59 49  1  0
 61 63  2  0
 62 61  1  0
 64 62  1  0
 65 74  2  0
 65 70  1  0
 66 62  1  0
 66 70  1  0
 67 66  1  0
 68 69  1  0
 68 67  1  0
 69 65  1  0
 70 71  2  0
 71 72  1  0
 73 72  2  0
 74 73  1  0
 75 49  1  0
 75 80  1  0
 75 76  1  0
 76 79  1  1
 76 77  1  0
 78 76  1  0
 80 83  1  0
 81 85  1  0
 81 80  1  0
 82 81  2  0
 85 84  1  0
 87 85  1  0
 87 88  1  0
 87 86  1  0
M  ISO  4   9 100  17 100  47 101  48 101
M  END
>  <TORSDO>  (5) 
F 19

>  <SCORE>  (5) 
-14.983

>  <name>  (5) 
4

>  <ligand_id>  (5) 
4

>  <original_smiles>  (5) 
[H]c1c([H])c(C([H])([H])Oc2c([H])c([H])c3c(c2[H])C([H])([H])N(C(=O)C([H])(N([H])C(=O)C([H])(N([H])C([H])([H])[H])C([H])([H])[H])C(C([H])([H])[H])(C([H])([H])[H])C([H])([H])[H])C([H])(C(=O)N([H])C2([H])c4c([H])c([H])c([H])c([H])c4C([H])([H])C([H])([H])C2([H])[H])C3([H])[H])c([H])c(C([H])([H])C([H])([H])N([H])C(=O)N2C([H])([H])C([H])([H])C([H])([H])C([H])(n3nc(-c4c([H])c([H])c(Oc5c([H])c([H])c(F)c([H])c5F)c([H])c4[H])c(C(=O)N([H])[H])c3N([H])[H])C2([H])[H])c1[H]

>  <smiles>  (5) 
[H]c1c([H])c(C([H])([H])Oc2c([H])c([H])c3c(c2[H])C([H])([H])N(C(=O)C([H])(N([H])C(=O)C([H])(N([H])C([H])([H])[H])C([H])([H])[H])C(C([H])([H])[H])(C([H])([H])[H])C([H])([H])[H])C([H])(C(=O)N([H])C2([H])c4c([H])c([H])c([H])c([H])c4C([H])([H])C([H])([H])C2([H])[H])C3([H])[H])c([H])c(C([H])([H])C([H])([H])N([H])C(=O)N2C([H])([H])C([H])([H])C([H])([H])C([H])(n3nc(-c4c([H])c([H])c(Oc5c([H])c([H])c(F)c([H])c5F)c([H])c4[H])c(C(=O)N([H])[H])c3N([H])[H])C2([H])[H])c1[H]

$$$$
5:0:0
     RDKit          3D

 92102  0  0  1  0  0  0  0  0999 V2000
  -30.1280  -22.2000   21.3020 C   0  0  0  0  0  2  0  0  0  0  0  0
  -29.6630  -24.6510   20.8340 C   0  0  0  0  0  0  0  0  0  0  0  0
  -29.4680  -23.3340   20.6450 N   0  0  0  0  0  0  0  0  0  0  0  0
  -30.4330  -25.0970   21.6880 O   0  0  0  0  0  0  0  0  0  0  0  0
  -28.7990  -23.0900   19.9270 H   0  0  0  0  0  0  0  0  0  0  0  0
  -28.8540  -25.5800   19.9020 C   0  0  0  0  0  2  0  0  0  0  0  0
  -28.8520  -26.9610   20.3230 O   0  0  0  0  0  0  0  0  0  0  0  0
  -24.7870  -31.8930   23.4100 C   0  0  0  0  0  0  0  0  0  0  0  0
  -27.6590  -27.6650   20.2400 C   0  0  0  0  0  0  0  0  0  0  0  0
  -23.6740  -30.5400   21.6650 C   0  0  0  0  0  3  0  0  0  0  0  0
  -25.2160  -29.1150   20.2140 C   0  0  0  0  0  0  0  0  0  0  0  0
  -26.1910  -30.9740   21.5700 C   0  0  0  0  0  2  0  0  0  0  0  0
  -26.3370  -29.6380   20.8710 C   0  0  0  0  0  0  0  0  0  0  0  0
  -27.5550  -28.9220   20.8810 C   0  0  0  0  0  3  0  0  0  0  0  0
  -26.5250  -27.1780   19.5430 C   0  0  0  0  0  3  0  0  0  0  0  0
  -25.3080  -27.8850   19.5440 C   0  0  0  0  0  3  0  0  0  0  0  0
  -23.9440  -29.9320   20.2630 C   0  0  0  0  0  2  0  0  0  0  0  0
  -24.9000  -31.1470   22.2750 N   0  0  0  0  0  0  0  0  0  0  0  0
  -23.6840  -32.1150   23.9260 O   0  0  0  0  0  0  0  0  0  0  0  0
  -23.0170  -29.4600   22.5550 C   0  0  0  0  0  0  0  0  0  0  0  0
  -21.7080  -29.2300   22.3550 N   0  0  0  0  0  0  0  0  0  0  0  0
  -23.6870  -28.8310   23.3820 O   0  0  0  0  0  0  0  0  0  0  0  0
  -21.2290  -29.7900   21.6640 H   0  0  0  0  0  0  0  0  0  0  0  0
  -18.3680  -27.8810   22.6420 C   0  0  0  0  0  0  0  0  0  0  0  0
  -20.8950  -28.2340   23.0560 C   0  0  0  0  0  3  0  0  0  0  0  0
  -21.0840  -26.8270   22.4420 C   0  0  0  0  0  2  0  0  0  0  0  0
  -20.0500  -26.5020   21.3570 C   0  0  0  0  0  2  0  0  0  0  0  0
  -18.6370  -26.5630   21.9380 C   0  0  0  0  0  2  0  0  0  0  0  0
  -19.4280  -28.6730   23.1530 C   0  0  0  0  0  0  0  0  0  0  0  0
  -19.1240  -29.9040   23.7760 C   0  0  0  0  0  3  0  0  0  0  0  0
  -17.7900  -30.3430   23.8890 C   0  0  0  0  0  3  0  0  0  0  0  0
  -16.7430  -29.5470   23.3900 C   0  0  0  0  0  3  0  0  0  0  0  0
  -17.0320  -28.3190   22.7720 C   0  0  0  0  0  3  0  0  0  0  0  0
  -26.0380  -32.5260   24.0980 C   0  0  0  0  0  3  0  0  0  0  0  0
  -25.7180  -33.9280   24.3990 N   0  0  0  0  0  0  0  0  0  0  0  0
  -26.0720  -34.9690   23.6340 C   0  0  0  0  0  0  0  0  0  0  0  0
  -26.7740  -34.8500   22.6260 O   0  0  0  0  0  0  0  0  0  0  0  0
  -25.0940  -34.0920   25.1760 H   0  0  0  0  0  0  0  0  0  0  0  0
  -24.3330  -36.7340   23.2170 C   0  0  0  0  0  1  0  0  0  0  0  0
  -25.5660  -36.3610   24.0530 C   0  0  0  0  0  3  0  0  0  0  0  0
  -27.6770  -37.2890   24.9010 C   0  0  0  0  0  1  0  0  0  0  0  0
  -26.5920  -37.4200   23.9310 N   0  0  0  0  0  0  0  0  0  0  0  0
  -26.1760  -38.3400   24.0450 H   0  0  0  0  0  0  0  0  0  0  0  0
  -26.4820  -31.7600   25.4050 C   0  0  1  0  0  0  0  0  0  0  0  0
  -25.3270  -31.5210   26.4050 C   0  0  0  0  0  1  0  0  0  0  0  0
  -27.0920  -30.3830   25.0520 C   0  0  0  0  0  1  0  0  0  0  0  0
  -27.5890  -32.5620   26.1290 C   0  0  0  0  0  1  0  0  0  0  0  0
  -29.2360  -20.9430   21.2030 C   0  0  0  0  0  2  0  0  0  0  0  0
  -29.9580  -19.7060   21.2330 O   0  0  0  0  0  0  0  0  0  0  0  0
  -29.0610  -18.5920   21.3470 C   0  0  0  0  0  2  0  0  0  0  0  0
  -31.0330  -14.4290   19.8940 C   0  0  0  0  0  0  0  0  0  0  0  0
  -30.6790  -12.1910   18.9290 C   0  0  0  0  0  2  0  0  0  0  0  0
  -29.6720  -12.2780   17.7620 C   0  0  0  0  0  2  0  0  0  0  0  0
  -28.2340  -12.1320   18.2850 C   0  0  0  0  0  2  0  0  0  0  0  0
  -27.9450  -13.0720   19.4820 C   0  0  0  0  0  3  0  0  0  0  0  0
  -29.0590  -12.9720   20.5550 C   0  0  0  0  0  2  0  0  0  0  0  0
  -30.3470  -13.2500   19.8980 N   0  0  0  0  0  0  0  0  0  0  0  0
  -32.1200  -14.5530   19.3240 O   0  0  0  0  0  0  0  0  0  0  0  0
  -30.6740  -17.2990   18.9280 C   0  0  0  0  0  2  0  0  0  0  0  0
  -29.2750  -16.7020   18.8310 C   0  0  0  0  0  2  0  0  0  0  0  0
  -29.7390  -17.2060   21.2880 C   0  0  0  0  0  3  0  0  0  0  0  0
  -30.9410  -16.9080   20.3820 C   0  0  2  0  0  0  0  0  0  0  0  0
  -29.1930  -16.1890   20.2700 C   0  0  1  0  0  0  0  0  0  0  0  0
  -30.4750  -15.5060   20.5130 N   0  0  0  0  0  0  0  0  0  0  0  0
  -25.6230  -13.7330   20.3820 C   0  0  0  0  0  0  0  0  0  0  0  0
  -24.5620  -12.9820   20.8020 C   0  0  0  0  0  0  0  0  0  0  0  0
  -24.9730  -11.6170   20.6870 C   0  0  0  0  0  0  0  0  0  0  0  0
  -26.6210  -12.8280   20.0480 N   0  0  0  0  0  0  0  0  0  0  0  0
  -26.2340  -11.5480   20.2850 N   0  0  0  0  0  0  0  0  0  0  0  0
  -24.2190  -10.3730   20.8780 C   0  0  0  0  0  0  0  0  0  0  0  0
  -24.6110   -9.4120   21.8370 C   0  0  0  0  0  3  0  0  0  0  0  0
  -23.8590   -8.2320   22.0150 C   0  0  0  0  0  3  0  0  0  0  0  0
  -22.7010   -8.0050   21.2340 C   0  0  0  0  0  0  0  0  0  0  0  0
  -22.3290   -8.9540   20.2660 C   0  0  0  0  0  3  0  0  0  0  0  0
  -23.0790  -10.1250   20.0840 C   0  0  0  0  0  3  0  0  0  0  0  0
  -21.9260   -6.8730   21.3200 O   0  0  0  0  0  0  0  0  0  0  0  0
  -21.7350   -6.2230   22.5130 C   0  0  0  0  0  0  0  0  0  0  0  0
  -21.1580   -6.8680   23.6300 C   0  0  0  0  0  3  0  0  0  0  0  0
  -20.9130   -6.1420   24.8120 C   0  0  0  0  0  3  0  0  0  0  0  0
  -21.2350   -4.7720   24.8780 C   0  0  0  0  0  0  0  0  0  0  0  0
  -21.8060   -4.1290   23.7670 C   0  0  0  0  0  3  0  0  0  0  0  0
  -22.0510   -4.8530   22.5860 C   0  0  0  0  0  0  0  0  0  0  0  0
  -22.5790   -4.2210   21.5080 F   0  0  0  0  0  0  0  0  0  0  0  0
  -20.9950   -4.0730   26.0120 F   0  0  0  0  0  0  0  0  0  0  0  0
  -23.2040  -13.4920   21.1990 C   0  0  0  0  0  0  0  0  0  0  0  0
  -22.5320  -12.7960   22.1080 N   0  0  0  0  0  0  0  0  0  0  0  0
  -22.7560  -14.5440   20.7390 O   0  0  0  0  0  0  0  0  0  0  0  0
  -22.9130  -11.9460   22.5000 H   0  0  0  0  0  0  0  0  0  0  0  0
  -21.6230  -13.1130   22.4120 H   0  0  0  0  0  0  0  0  0  0  0  0
  -25.8040  -15.1070   20.2370 N   0  0  0  0  0  0  0  0  0  0  0  0
  -25.0280  -15.7480   20.3650 H   0  0  0  0  0  0  0  0  0  0  0  0
  -26.6040  -15.5450   19.8050 H   0  0  0  0  0  0  0  0  0  0  0  0
  2  4  2  0
  3  2  1  0
  3  1  1  0
  5  3  1  0
  6  7  1  0
  6  2  1  0
  8 19  2  0
  9  7  1  0
  9 14  1  0
 10 18  1  0
 10 20  1  0
 11 17  1  0
 11 13  1  0
 12 18  1  0
 13 14  2  0
 13 12  1  0
 15 16  1  0
 15  9  2  0
 16 11  2  0
 17 10  1  0
 18  8  1  0
 20 22  2  0
 21 20  1  0
 23 21  1  0
 24 33  2  0
 24 29  1  0
 25 21  1  0
 25 29  1  0
 26 25  1  0
 27 28  1  0
 27 26  1  0
 28 24  1  0
 29 30  2  0
 30 31  1  0
 32 31  2  0
 33 32  1  0
 34  8  1  0
 34 35  1  0
 34 44  1  0
 35 38  1  0
 36 40  1  0
 36 35  1  0
 37 36  2  0
 40 39  1  0
 42 43  1  0
 42 40  1  0
 42 41  1  0
 44 47  1  1
 44 45  1  0
 46 44  1  0
 48 49  1  0
 48  1  1  0
 49 50  1  0
 51 57  1  0
 51 64  1  0
 52 57  1  0
 53 54  1  0
 53 52  1  0
 55 54  1  0
 55 68  1  0
 55 56  1  0
 57 56  1  0
 58 51  2  0
 60 59  1  0
 61 50  1  0
 62 59  1  1
 62 64  1  0
 62 61  1  0
 63 60  1  6
 63 62  1  0
 63 64  1  0
 63 61  1  0
 65 66  2  0
 66 85  1  0
 67 66  1  0
 67 70  1  0
 68 69  1  0
 68 65  1  0
 69 67  2  0
 70 71  1  0
 71 72  2  0
 73 76  1  0
 73 72  1  0
 74 73  2  0
 75 74  1  0
 75 70  2  0
 76 77  1  0
 77 82  2  0
 77 78  1  0
 78 79  2  0
 79 80  1  0
 80 84  1  0
 81 80  2  0
 82 81  1  0
 83 82  1  0
 85 86  1  0
 86 89  1  0
 86 88  1  0
 87 85  2  0
 90 91  1  0
 90 65  1  0
 92 90  1  0
M  ISO  4   6 101   7 101  51 100  64 100
M  END
>  <TORSDO>  (6) 
F 21

>  <SCORE>  (6) 
-12.369

>  <name>  (6) 
5

>  <ligand_id>  (6) 
5

>  <original_smiles>  (6) 
[H]c1c([H])c([H])c2c(c1[H])C([H])([H])C([H])([H])C([H])([H])C2([H])N([H])C(=O)C1([H])N(C(=O)C([H])(N([H])C(=O)C([H])(N([H])C([H])([H])[H])C([H])([H])[H])C(C([H])([H])[H])(C([H])([H])[H])C([H])([H])[H])C([H])([H])c2c([H])c(OC([H])([H])C(=O)N([H])C([H])([H])C([H])([H])OC([H])([H])C3([H])C4([H])N(C(=O)N5C([H])([H])C([H])([H])C([H])([H])C([H])(n6nc(-c7c([H])c([H])c(Oc8c([H])c([H])c(F)c([H])c8F)c([H])c7[H])c(C(=O)N([H])[H])c6N([H])[H])C5([H])[H])C3([H])C([H])([H])C4([H])[H])c([H])c([H])c2C1([H])[H]

>  <smiles>  (6) 
[H]c1c([H])c([H])c2c(c1[H])C([H])([H])C([H])([H])C([H])([H])C2([H])N([H])C(=O)C1([H])N(C(=O)C([H])(N([H])C(=O)C([H])(N([H])C([H])([H])[H])C([H])([H])[H])C(C([H])([H])[H])(C([H])([H])[H])C([H])([H])[H])C([H])([H])c2c([H])c(OC([H])([H])C(=O)N([H])C([H])([H])C([H])([H])OC([H])([H])C3([H])C4([H])N(C(=O)N5C([H])([H])C([H])([H])C([H])([H])C([H])(n6nc(-c7c([H])c([H])c(Oc8c([H])c([H])c(F)c([H])c8F)c([H])c7[H])c(C(=O)N([H])[H])c6N([H])[H])C5([H])[H])C3([H])C([H])([H])C4([H])[H])c([H])c([H])c2C1([H])[H]

$$$$
6:0:0
     RDKit          3D

 91100  0  0  1  0  0  0  0  0999 V2000
  -30.2440  -19.2750   21.8740 C   0  0  0  0  0  2  0  0  0  0  0  0
  -29.8120  -20.7580   21.7800 C   0  0  0  0  0  2  0  0  0  0  0  0
  -29.8050  -17.6180   18.5920 C   0  0  0  0  0  2  0  0  0  0  0  0
  -29.7370  -19.1630   18.4900 C   0  0  0  0  0  2  0  0  0  0  0  0
  -30.1830  -17.3270   20.0540 C   0  0  0  0  0  3  0  0  0  0  0  0
  -29.4490  -18.5520   20.7740 C   0  0  0  0  0  3  0  0  0  0  0  0
  -29.6310  -21.0230   20.2770 C   0  0  0  0  0  3  0  0  0  0  0  0
  -29.1810  -19.6520   19.7740 N   0  0  1  0  0  4  0  0  0  0  0  0
  -28.1780  -19.6780   19.6690 H   0  0  0  0  0  0  0  0  0  0  0  0
  -30.6710  -14.7670   20.2860 C   0  0  0  0  0  0  0  0  0  0  0  0
  -30.4420  -12.5040   19.2800 C   0  0  0  0  0  2  0  0  0  0  0  0
  -29.5030  -12.6180   18.0600 C   0  0  0  0  0  2  0  0  0  0  0  0
  -28.0310  -12.4640   18.4900 C   0  0  0  0  0  2  0  0  0  0  0  0
  -27.6730  -13.3420   19.7190 C   0  0  0  0  0  3  0  0  0  0  0  0
  -28.7330  -13.2220   20.8370 C   0  0  0  0  0  2  0  0  0  0  0  0
  -30.0380  -13.5490   20.2450 N   0  0  0  0  0  0  0  0  0  0  0  0
  -31.8460  -14.8740   19.9260 O   0  0  0  0  0  0  0  0  0  0  0  0
  -29.8970  -15.8910   20.4850 N   0  0  0  0  0  0  0  0  0  0  0  0
  -28.9530  -15.7020   20.7900 H   0  0  0  0  0  0  0  0  0  0  0  0
  -25.2880  -13.9510   20.4480 C   0  0  0  0  0  0  0  0  0  0  0  0
  -24.2180  -13.1850   20.8210 C   0  0  0  0  0  0  0  0  0  0  0  0
  -24.6730  -11.8300   20.7910 C   0  0  0  0  0  0  0  0  0  0  0  0
  -26.3270  -13.0650   20.2110 N   0  0  0  0  0  0  0  0  0  0  0  0
  -25.9630  -11.7850   20.4800 N   0  0  0  0  0  0  0  0  0  0  0  0
  -23.9400  -10.5720   20.9820 C   0  0  0  0  0  0  0  0  0  0  0  0
  -24.3560   -9.6100   21.9290 C   0  0  0  0  0  3  0  0  0  0  0  0
  -23.6220   -8.4170   22.1080 C   0  0  0  0  0  3  0  0  0  0  0  0
  -22.4570   -8.1780   21.3410 C   0  0  0  0  0  0  0  0  0  0  0  0
  -22.0590   -9.1290   20.3850 C   0  0  0  0  0  3  0  0  0  0  0  0
  -22.7940  -10.3130   20.2040 C   0  0  0  0  0  3  0  0  0  0  0  0
  -21.6970   -7.0370   21.4290 O   0  0  0  0  0  0  0  0  0  0  0  0
  -21.6150   -6.3150   22.5930 C   0  0  0  0  0  0  0  0  0  0  0  0
  -21.1270   -6.8850   23.7890 C   0  0  0  0  0  3  0  0  0  0  0  0
  -20.9910   -6.0890   24.9440 C   0  0  0  0  0  3  0  0  0  0  0  0
  -21.3340   -4.7240   24.9040 C   0  0  0  0  0  0  0  0  0  0  0  0
  -21.8150   -4.1550   23.7120 C   0  0  0  0  0  3  0  0  0  0  0  0
  -21.9520   -4.9480   22.5590 C   0  0  0  0  0  0  0  0  0  0  0  0
  -22.3950   -4.3880   21.4090 F   0  0  0  0  0  0  0  0  0  0  0  0
  -21.1960   -3.9590   26.0110 F   0  0  0  0  0  0  0  0  0  0  0  0
  -22.8240  -13.6710   21.0910 C   0  0  0  0  0  0  0  0  0  0  0  0
  -22.0900  -12.9780   21.9550 N   0  0  0  0  0  0  0  0  0  0  0  0
  -22.3940  -14.7010   20.5730 O   0  0  0  0  0  0  0  0  0  0  0  0
  -22.4470  -12.1450   22.3990 H   0  0  0  0  0  0  0  0  0  0  0  0
  -21.1560  -13.2900   22.1810 H   0  0  0  0  0  0  0  0  0  0  0  0
  -25.4600  -15.3200   20.2670 N   0  0  0  0  0  0  0  0  0  0  0  0
  -24.6900  -15.9720   20.3680 H   0  0  0  0  0  0  0  0  0  0  0  0
  -26.2930  -15.7490   19.8880 H   0  0  0  0  0  0  0  0  0  0  0  0
  -28.7040  -22.3030   19.9260 C   0  0  0  0  0  2  0  0  0  0  0  0
  -29.1510  -23.8200   20.2710 C   0  0  0  0  0  3  0  0  0  0  0  0
  -28.1200  -25.0050   19.9200 C   0  0  0  0  0  3  0  0  0  0  0  0
  -28.3700  -26.4570   20.1980 O   0  0  0  0  0  0  0  0  0  0  0  0
  -24.6740  -31.9050   23.2540 C   0  0  0  0  0  0  0  0  0  0  0  0
  -27.2690  -27.3450   20.1470 C   0  0  0  0  0  0  0  0  0  0  0  0
  -23.4630  -30.5170   21.6130 C   0  0  0  0  0  3  0  0  0  0  0  0
  -24.9080  -28.9820   20.1640 C   0  0  0  0  0  0  0  0  0  0  0  0
  -26.0060  -30.8330   21.4200 C   0  0  0  0  0  2  0  0  0  0  0  0
  -26.0840  -29.4580   20.7590 C   0  0  0  0  0  0  0  0  0  0  0  0
  -27.2660  -28.6520   20.7410 C   0  0  0  0  0  3  0  0  0  0  0  0
  -26.0670  -26.9410   19.5190 C   0  0  0  0  0  3  0  0  0  0  0  0
  -24.9050  -27.7310   19.5340 C   0  0  0  0  0  3  0  0  0  0  0  0
  -23.6720  -29.8550   20.2260 C   0  0  0  0  0  2  0  0  0  0  0  0
  -24.7330  -31.1010   22.1510 N   0  0  0  0  0  0  0  0  0  0  0  0
  -23.5930  -32.1770   23.7970 O   0  0  0  0  0  0  0  0  0  0  0  0
  -22.8090  -29.4900   22.5690 C   0  0  0  0  0  0  0  0  0  0  0  0
  -21.4830  -29.3020   22.4420 N   0  0  0  0  0  0  0  0  0  0  0  0
  -23.4910  -28.8680   23.3870 O   0  0  0  0  0  0  0  0  0  0  0  0
  -20.9890  -29.8560   21.7570 H   0  0  0  0  0  0  0  0  0  0  0  0
  -18.1120  -28.0860   22.9460 C   0  0  0  0  0  0  0  0  0  0  0  0
  -20.6710  -28.3580   23.2120 C   0  0  0  0  0  3  0  0  0  0  0  0
  -20.7780  -26.9280   22.6310 C   0  0  0  0  0  2  0  0  0  0  0  0
  -19.6760  -26.6040   21.6170 C   0  0  0  0  0  2  0  0  0  0  0  0
  -18.2950  -26.7400   22.2640 C   0  0  0  0  0  2  0  0  0  0  0  0
  -19.2270  -28.8520   23.3760 C   0  0  0  0  0  0  0  0  0  0  0  0
  -19.0030  -30.1120   23.9740 C   0  0  0  0  0  3  0  0  0  0  0  0
  -17.6950  -30.6030   24.1450 C   0  0  0  0  0  3  0  0  0  0  0  0
  -16.5940  -29.8340   23.7310 C   0  0  0  0  0  3  0  0  0  0  0  0
  -16.8040  -28.5770   23.1370 C   0  0  0  0  0  3  0  0  0  0  0  0
  -25.9590  -32.5370   23.8710 C   0  0  0  0  0  3  0  0  0  0  0  0
  -26.4840  -31.7600   25.1420 C   0  0  1  0  0  0  0  0  0  0  0  0
  -25.3950  -31.5120   26.2120 C   0  0  0  0  0  1  0  0  0  0  0  0
  -27.0710  -30.3860   24.7420 C   0  0  0  0  0  1  0  0  0  0  0  0
  -27.6340  -32.5560   25.8030 C   0  0  0  0  0  1  0  0  0  0  0  0
  -25.6480  -33.9330   24.2120 N   0  0  0  0  0  0  0  0  0  0  0  0
  -25.9510  -34.9900   23.4460 C   0  0  0  0  0  0  0  0  0  0  0  0
  -26.5940  -34.8930   22.3970 O   0  0  0  0  0  0  0  0  0  0  0  0
  -25.0780  -34.0810   25.0320 H   0  0  0  0  0  0  0  0  0  0  0  0
  -24.1970  -36.7670   23.1520 C   0  0  0  0  0  1  0  0  0  0  0  0
  -25.4670  -36.3740   23.9210 C   0  0  0  0  0  3  0  0  0  0  0  0
  -27.6170  -37.2830   24.6850 C   0  0  0  0  0  1  0  0  0  0  0  0
  -26.4860  -37.4360   23.7740 N   0  0  0  0  0  0  0  0  0  0  0  0
  -26.0760  -38.3530   23.9290 H   0  0  0  0  0  0  0  0  0  0  0  0
  2  1  1  0
  3  5  1  0
  4  3  1  0
  4  8  1  0
  5 18  1  0
  5  6  1  0
  6  1  1  0
  7 48  1  0
  7  2  1  0
  8  9  1  6
  8  7  1  0
  8  6  1  0
 10 18  1  0
 11 16  1  0
 12 13  1  0
 12 11  1  0
 14 13  1  0
 14 23  1  0
 14 15  1  0
 16 10  1  0
 16 15  1  0
 17 10  2  0
 18 19  1  0
 20 21  2  0
 21 40  1  0
 22 21  1  0
 22 25  1  0
 23 20  1  0
 23 24  1  0
 24 22  2  0
 25 26  1  0
 26 27  2  0
 28 31  1  0
 28 27  1  0
 29 28  2  0
 30 29  1  0
 30 25  2  0
 31 32  1  0
 32 33  1  0
 33 34  2  0
 35 34  1  0
 35 39  1  0
 36 35  2  0
 37 32  2  0
 37 36  1  0
 38 37  1  0
 40 41  1  0
 41 44  1  0
 41 43  1  0
 42 40  2  0
 45 46  1  0
 45 20  1  0
 47 45  1  0
 48 49  1  0
 50 51  1  0
 50 49  2  0
 52 63  2  0
 53 51  1  0
 53 58  1  0
 54 62  1  0
 54 64  1  0
 55 61  1  0
 55 57  1  0
 56 62  1  0
 57 56  1  0
 58 57  2  0
 59 60  1  0
 59 53  2  0
 60 55  2  0
 61 54  1  0
 62 52  1  0
 64 66  2  0
 65 64  1  0
 67 65  1  0
 68 77  2  0
 68 73  1  0
 69 65  1  0
 69 73  1  0
 70 69  1  0
 71 72  1  0
 71 70  1  0
 72 68  1  0
 73 74  2  0
 74 75  1  0
 76 75  2  0
 77 76  1  0
 78 52  1  0
 78 83  1  0
 78 79  1  0
 79 82  1  1
 79 80  1  0
 81 79  1  0
 83 86  1  0
 84 88  1  0
 84 83  1  0
 85 84  2  0
 88 87  1  0
 90 88  1  0
 90 91  1  0
 90 89  1  0
M  ISO  4  10 100  18 100  50 101  51 101
M  END
>  <TORSDO>  (7) 
F 19

>  <SCORE>  (7) 
-13.897

>  <name>  (7) 
6

>  <ligand_id>  (7) 
6

>  <original_smiles>  (7) 
[H]c1c([H])c([H])c2c(c1[H])C([H])([H])C([H])([H])C([H])([H])C2([H])N([H])C(=O)C1([H])N(C(=O)C([H])(N([H])C(=O)C([H])(N([H])C([H])([H])[H])C([H])([H])[H])C(C([H])([H])[H])(C([H])([H])[H])C([H])([H])[H])C([H])([H])c2c([H])c(OC([H])([H])C([H])([H])C([H])([H])C3([H])C([H])([H])C([H])([H])C4([H])C([H])(N([H])C(=O)N5C([H])([H])C([H])([H])C([H])([H])C([H])(n6nc(-c7c([H])c([H])c(Oc8c([H])c([H])c(F)c([H])c8F)c([H])c7[H])c(C(=O)N([H])[H])c6N([H])[H])C5([H])[H])C([H])([H])C([H])([H])[N+]34[H])c([H])c([H])c2C1([H])[H]

>  <smiles>  (7) 
[H]c1c([H])c([H])c2c(c1[H])C([H])([H])C([H])([H])C([H])([H])C2([H])N([H])C(=O)C1([H])N(C(=O)C([H])(N([H])C(=O)C([H])(N([H])C([H])([H])[H])C([H])([H])[H])C(C([H])([H])[H])(C([H])([H])[H])C([H])([H])[H])C([H])([H])c2c([H])c(OC([H])([H])C([H])([H])C([H])([H])C3([H])C([H])([H])C([H])([H])C4([H])C([H])(N([H])C(=O)N5C([H])([H])C([H])([H])C([H])([H])C([H])(n6nc(-c7c([H])c([H])c(Oc8c([H])c([H])c(F)c([H])c8F)c([H])c7[H])c(C(=O)N([H])[H])c6N([H])[H])C5([H])[H])C([H])([H])C([H])([H])[N+]34[H])c([H])c([H])c2C1([H])[H]

$$$$
7:0:0
     RDKit          3D

 90 99  0  0  1  0  0  0  0  0999 V2000
  -30.4150  -20.0790   22.4150 C   0  0  0  0  0  2  0  0  0  0  0  0
  -30.1230  -18.6580   21.8340 C   0  0  0  0  0  2  0  0  0  0  0  0
  -29.2960  -20.6450   18.3920 C   0  0  0  0  0  2  0  0  0  0  0  0
  -28.8410  -22.1990   18.4180 C   0  0  0  0  0  2  0  0  0  0  0  0
  -29.4230  -21.2150   22.0120 C   0  0  0  0  0  2  0  0  0  0  0  0
  -30.1730  -18.5190   20.2870 C   0  0  0  0  0  3  0  0  0  0  0  0
  -29.2850  -20.0250   19.8280 C   0  0  0  0  0  3  0  0  0  0  0  0
  -28.7350  -22.7100   19.8910 C   0  0  0  0  0  3  0  0  0  0  0  0
  -29.4970  -21.4380   20.5570 N   0  0  1  0  0  4  0  0  0  0  0  0
  -30.4710  -21.6520   20.4000 H   0  0  0  0  0  0  0  0  0  0  0  0
  -30.7260  -15.5910   19.8860 C   0  0  0  0  0  0  0  0  0  0  0  0
  -30.6810  -13.1460   18.9730 C   0  0  0  0  0  2  0  0  0  0  0  0
  -29.6840  -12.8990   17.8130 C   0  0  0  0  0  2  0  0  0  0  0  0
  -28.2750  -12.6000   18.3560 C   0  0  0  0  0  2  0  0  0  0  0  0
  -27.8820  -13.5600   19.5050 C   0  0  0  0  0  3  0  0  0  0  0  0
  -29.0000  -13.7390   20.5510 C   0  0  0  0  0  2  0  0  0  0  0  0
  -30.1640  -14.2790   19.8270 N   0  0  0  0  0  0  0  0  0  0  0  0
  -31.9450  -15.5850   19.6620 O   0  0  0  0  0  0  0  0  0  0  0  0
  -29.9520  -16.8680   19.9920 N   0  0  0  0  0  0  0  0  0  0  0  0
  -28.9670  -16.6500   19.9850 H   0  0  0  0  0  0  0  0  0  0  0  0
  -25.5830  -14.0950   20.4660 C   0  0  0  0  0  0  0  0  0  0  0  0
  -24.5450  -13.3070   20.8760 C   0  0  0  0  0  0  0  0  0  0  0  0
  -24.9970  -11.9580   20.7500 C   0  0  0  0  0  0  0  0  0  0  0  0
  -26.5960  -13.2260   20.1030 N   0  0  0  0  0  0  0  0  0  0  0  0
  -26.2620  -11.9310   20.3430 N   0  0  0  0  0  0  0  0  0  0  0  0
  -24.2730  -10.6920   20.9340 C   0  0  0  0  0  0  0  0  0  0  0  0
  -24.6910   -9.7320   21.8810 C   0  0  0  0  0  3  0  0  0  0  0  0
  -23.9650   -8.5340   22.0540 C   0  0  0  0  0  3  0  0  0  0  0  0
  -22.8050   -8.2880   21.2800 C   0  0  0  0  0  0  0  0  0  0  0  0
  -22.4060   -9.2370   20.3230 C   0  0  0  0  0  3  0  0  0  0  0  0
  -23.1340  -10.4270   20.1480 C   0  0  0  0  0  3  0  0  0  0  0  0
  -22.0530   -7.1410   21.3610 O   0  0  0  0  0  0  0  0  0  0  0  0
  -21.8930   -6.4670   22.5460 C   0  0  0  0  0  0  0  0  0  0  0  0
  -21.2620   -7.0600   23.6600 C   0  0  0  0  0  3  0  0  0  0  0  0
  -21.0550   -6.3090   24.8340 C   0  0  0  0  0  3  0  0  0  0  0  0
  -21.4710   -4.9650   24.8940 C   0  0  0  0  0  0  0  0  0  0  0  0
  -22.0940   -4.3720   23.7810 C   0  0  0  0  0  3  0  0  0  0  0  0
  -22.3020   -5.1200   22.6100 C   0  0  0  0  0  0  0  0  0  0  0  0
  -22.8840   -4.5370   21.5350 F   0  0  0  0  0  0  0  0  0  0  0  0
  -21.2660   -4.2400   26.0180 F   0  0  0  0  0  0  0  0  0  0  0  0
  -23.1740  -13.7820   21.2630 C   0  0  0  0  0  0  0  0  0  0  0  0
  -22.5050  -13.0600   22.1540 N   0  0  0  0  0  0  0  0  0  0  0  0
  -22.7090  -14.8270   20.8110 O   0  0  0  0  0  0  0  0  0  0  0  0
  -22.8940  -12.2130   22.5420 H   0  0  0  0  0  0  0  0  0  0  0  0
  -21.5880  -13.3610   22.4540 H   0  0  0  0  0  0  0  0  0  0  0  0
  -25.7420  -15.4720   20.3380 N   0  0  0  0  0  0  0  0  0  0  0  0
  -24.9840  -16.1180   20.5260 H   0  0  0  0  0  0  0  0  0  0  0  0
  -26.5500  -15.9200   19.9270 H   0  0  0  0  0  0  0  0  0  0  0  0
  -28.4060  -24.4490   20.4150 C   0  0  0  0  0  2  0  0  0  0  0  0
  -28.5260  -26.0590   19.9890 O   0  0  0  0  0  0  0  0  0  0  0  0
  -24.6670  -31.8380   23.1070 C   0  0  0  0  0  0  0  0  0  0  0  0
  -27.4690  -27.1260   20.0160 C   0  0  0  0  0  0  0  0  0  0  0  0
  -23.5660  -30.4530   21.3960 C   0  0  0  0  0  3  0  0  0  0  0  0
  -25.1080  -28.9410   19.9680 C   0  0  0  0  0  0  0  0  0  0  0  0
  -26.1280  -30.7550   21.3220 C   0  0  0  0  0  2  0  0  0  0  0  0
  -26.2670  -29.3650   20.6280 C   0  0  0  0  0  0  0  0  0  0  0  0
  -27.4460  -28.4840   20.6200 C   0  0  0  0  0  3  0  0  0  0  0  0
  -26.2700  -26.8600   19.3160 C   0  0  0  0  0  3  0  0  0  0  0  0
  -25.1350  -27.7110   19.2910 C   0  0  0  0  0  3  0  0  0  0  0  0
  -23.8570  -29.8210   20.0080 C   0  0  0  0  0  2  0  0  0  0  0  0
  -24.8070  -31.0420   21.9960 N   0  0  0  0  0  0  0  0  0  0  0  0
  -23.5540  -32.0700   23.6080 O   0  0  0  0  0  0  0  0  0  0  0  0
  -22.8840  -29.4030   22.3120 C   0  0  0  0  0  0  0  0  0  0  0  0
  -21.5590  -29.2170   22.1680 N   0  0  0  0  0  0  0  0  0  0  0  0
  -23.5550  -28.7570   23.1190 O   0  0  0  0  0  0  0  0  0  0  0  0
  -21.0690  -29.7920   21.4970 H   0  0  0  0  0  0  0  0  0  0  0  0
  -18.1850  -27.9730   22.6580 C   0  0  0  0  0  0  0  0  0  0  0  0
  -20.7490  -28.2300   22.8910 C   0  0  0  0  0  3  0  0  0  0  0  0
  -20.8410  -26.8390   22.2200 C   0  0  0  0  0  2  0  0  0  0  0  0
  -19.7210  -26.5810   21.2070 C   0  0  0  0  0  2  0  0  0  0  0  0
  -18.3510  -26.6760   21.8860 C   0  0  0  0  0  2  0  0  0  0  0  0
  -19.3090  -28.7120   23.1160 C   0  0  0  0  0  0  0  0  0  0  0  0
  -19.0960  -29.9270   23.8000 C   0  0  0  0  0  3  0  0  0  0  0  0
  -17.7920  -30.4050   24.0310 C   0  0  0  0  0  3  0  0  0  0  0  0
  -16.6830  -29.6640   23.5870 C   0  0  0  0  0  3  0  0  0  0  0  0
  -16.8800  -28.4500   22.9060 C   0  0  0  0  0  3  0  0  0  0  0  0
  -25.8960  -32.5050   23.7940 C   0  0  0  0  0  3  0  0  0  0  0  0
  -25.5330  -33.8960   24.1220 N   0  0  0  0  0  0  0  0  0  0  0  0
  -25.8490  -34.9670   23.3830 C   0  0  0  0  0  0  0  0  0  0  0  0
  -26.5410  -34.8910   22.3630 O   0  0  0  0  0  0  0  0  0  0  0  0
  -24.9220  -34.0260   24.9150 H   0  0  0  0  0  0  0  0  0  0  0  0
  -24.0740  -36.7180   23.0260 C   0  0  0  0  0  1  0  0  0  0  0  0
  -25.3200  -36.3420   23.8450 C   0  0  0  0  0  3  0  0  0  0  0  0
  -27.4090  -37.2990   24.7140 C   0  0  0  0  0  1  0  0  0  0  0  0
  -26.3230  -37.4250   23.7450 N   0  0  0  0  0  0  0  0  0  0  0  0
  -25.8850  -38.3330   23.8750 H   0  0  0  0  0  0  0  0  0  0  0  0
  -26.3630  -31.7470   25.0980 C   0  0  1  0  0  0  0  0  0  0  0  0
  -25.2170  -31.4560   26.0960 C   0  0  0  0  0  1  0  0  0  0  0  0
  -27.0280  -30.3970   24.7440 C   0  0  0  0  0  1  0  0  0  0  0  0
  -27.4340  -32.5850   25.8360 C   0  0  0  0  0  1  0  0  0  0  0  0
  2  1  1  0
  3  4  1  0
  4  8  1  0
  5  1  1  0
  6 19  1  0
  6  2  1  0
  7  3  1  0
  7  6  1  0
  7  9  1  0
  8 49  1  0
  8  9  1  0
  9 10  1  1
  9  5  1  0
 11 19  1  0
 12 17  1  0
 13 14  1  0
 13 12  1  0
 15 14  1  0
 15 24  1  0
 15 16  1  0
 17 11  1  0
 17 16  1  0
 18 11  2  0
 20 19  1  0
 21 22  2  0
 22 41  1  0
 23 22  1  0
 23 26  1  0
 24 25  1  0
 24 21  1  0
 25 23  2  0
 26 27  1  0
 27 28  2  0
 29 32  1  0
 29 28  1  0
 30 29  2  0
 31 30  1  0
 31 26  2  0
 32 33  1  0
 33 38  2  0
 33 34  1  0
 34 35  2  0
 35 36  1  0
 36 40  1  0
 37 36  2  0
 38 37  1  0
 39 38  1  0
 41 42  1  0
 42 45  1  0
 42 44  1  0
 43 41  2  0
 46 21  1  0
 46 47  1  0
 48 46  1  0
 50 52  1  0
 50 49  1  0
 51 62  2  0
 52 57  1  0
 53 61  1  0
 53 63  1  0
 54 60  1  0
 54 56  1  0
 55 61  1  0
 56 55  1  0
 57 56  2  0
 58 52  2  0
 59 58  1  0
 59 54  2  0
 60 53  1  0
 61 51  1  0
 63 65  2  0
 64 63  1  0
 66 64  1  0
 67 76  2  0
 67 72  1  0
 68 64  1  0
 68 72  1  0
 69 68  1  0
 70 71  1  0
 70 69  1  0
 71 67  1  0
 72 73  2  0
 73 74  1  0
 75 74  2  0
 76 75  1  0
 77 51  1  0
 77 78  1  0
 77 87  1  0
 78 81  1  0
 79 83  1  0
 79 78  1  0
 80 79  2  0
 83 82  1  0
 85 83  1  0
 85 86  1  0
 85 84  1  0
 87 90  1  1
 87 88  1  0
 89 87  1  0
M  ISO  4  11 100  19 100  49 101  50 101
M  END
>  <TORSDO>  (8) 
F 17

>  <SCORE>  (8) 
-15.545

>  <name>  (8) 
7

>  <ligand_id>  (8) 
7

>  <original_smiles>  (8) 
[H]c1c([H])c([H])c2c(c1[H])C([H])([H])C([H])([H])C([H])([H])C2([H])N([H])C(=O)C1([H])N(C(=O)C([H])(N([H])C(=O)C([H])(N([H])C([H])([H])[H])C([H])([H])[H])C(C([H])([H])[H])(C([H])([H])[H])C([H])([H])[H])C([H])([H])c2c([H])c(OC([H])([H])C3([H])C([H])([H])C([H])([H])C4([H])C([H])(N([H])C(=O)N5C([H])([H])C([H])([H])C([H])([H])C([H])(n6nc(-c7c([H])c([H])c(Oc8c([H])c([H])c(F)c([H])c8F)c([H])c7[H])c(C(=O)N([H])[H])c6N([H])[H])C5([H])[H])C([H])([H])C([H])([H])C([H])([H])[N+]34[H])c([H])c([H])c2C1([H])[H]

>  <smiles>  (8) 
[H]c1c([H])c([H])c2c(c1[H])C([H])([H])C([H])([H])C([H])([H])C2([H])N([H])C(=O)C1([H])N(C(=O)C([H])(N([H])C(=O)C([H])(N([H])C([H])([H])[H])C([H])([H])[H])C(C([H])([H])[H])(C([H])([H])[H])C([H])([H])[H])C([H])([H])c2c([H])c(OC([H])([H])C3([H])C([H])([H])C([H])([H])C4([H])C([H])(N([H])C(=O)N5C([H])([H])C([H])([H])C([H])([H])C([H])(n6nc(-c7c([H])c([H])c(Oc8c([H])c([H])c(F)c([H])c8F)c([H])c7[H])c(C(=O)N([H])[H])c6N([H])[H])C5([H])[H])C([H])([H])C([H])([H])C([H])([H])[N+]34[H])c([H])c([H])c2C1([H])[H]

$$$$
8:0:0
     RDKit          3D

 89 98  0  0  1  0  0  0  0  0999 V2000
  -29.2930  -18.1450   19.2020 C   0  0  0  0  0  2  0  0  0  0  0  0
  -30.4710  -20.1910   21.1310 C   0  0  0  0  0  2  0  0  0  0  0  0
  -29.8690  -18.7450   21.1620 C   0  0  0  0  0  3  0  0  0  0  0  0
  -30.2860  -17.4980   20.2190 C   0  0  0  0  0  3  0  0  0  0  0  0
  -28.8480  -19.3140   20.1630 C   0  0  0  0  0  3  0  0  0  0  0  0
  -29.4950  -20.6980   20.1410 N   0  0  1  0  0  4  0  0  0  0  0  0
  -29.9440  -20.8360   19.2480 H   0  0  0  0  0  0  0  0  0  0  0  0
  -30.6710  -14.8500   20.0780 C   0  0  0  0  0  0  0  0  0  0  0  0
  -30.3810  -12.6120   18.9380 C   0  0  0  0  0  2  0  0  0  0  0  0
  -29.3700  -12.7070   17.7730 C   0  0  0  0  0  2  0  0  0  0  0  0
  -27.9300  -12.4990   18.2800 C   0  0  0  0  0  2  0  0  0  0  0  0
  -27.6320  -13.3320   19.5510 C   0  0  0  0  0  3  0  0  0  0  0  0
  -28.7530  -13.1930   20.5980 C   0  0  0  0  0  2  0  0  0  0  0  0
  -30.0110  -13.6280   19.9660 N   0  0  0  0  0  0  0  0  0  0  0  0
  -31.7710  -14.9600   19.5270 O   0  0  0  0  0  0  0  0  0  0  0  0
  -29.7300  -15.9260   22.0520 C   0  0  0  0  0  1  0  0  0  0  0  0
  -30.0380  -15.9980   20.6160 N   0  0  0  0  0  0  0  0  0  0  0  0
  -25.3020  -13.8980   20.4550 C   0  0  0  0  0  0  0  0  0  0  0  0
  -24.2590  -13.1140   20.8650 C   0  0  0  0  0  0  0  0  0  0  0  0
  -24.7140  -11.7630   20.7590 C   0  0  0  0  0  0  0  0  0  0  0  0
  -26.3230  -13.0260   20.1160 N   0  0  0  0  0  0  0  0  0  0  0  0
  -25.9810  -11.7340   20.3630 N   0  0  0  0  0  0  0  0  0  0  0  0
  -23.9970  -10.4980   20.9530 C   0  0  0  0  0  0  0  0  0  0  0  0
  -24.4470   -9.5270   21.8760 C   0  0  0  0  0  3  0  0  0  0  0  0
  -23.7280   -8.3250   22.0580 C   0  0  0  0  0  3  0  0  0  0  0  0
  -22.5450   -8.0850   21.3180 C   0  0  0  0  0  0  0  0  0  0  0  0
  -22.1140   -9.0460   20.3850 C   0  0  0  0  0  3  0  0  0  0  0  0
  -22.8330  -10.2380   20.2010 C   0  0  0  0  0  3  0  0  0  0  0  0
  -21.7990   -6.9370   21.4090 O   0  0  0  0  0  0  0  0  0  0  0  0
  -21.7120   -6.2240   22.5780 C   0  0  0  0  0  0  0  0  0  0  0  0
  -21.2270   -6.8040   23.7700 C   0  0  0  0  0  3  0  0  0  0  0  0
  -21.0890   -6.0190   24.9310 C   0  0  0  0  0  3  0  0  0  0  0  0
  -21.4270   -4.6520   24.9010 C   0  0  0  0  0  0  0  0  0  0  0  0
  -21.9050   -4.0710   23.7140 C   0  0  0  0  0  3  0  0  0  0  0  0
  -22.0450   -4.8550   22.5550 C   0  0  0  0  0  0  0  0  0  0  0  0
  -22.4860   -4.2840   21.4080 F   0  0  0  0  0  0  0  0  0  0  0  0
  -21.2880   -3.8950   26.0140 F   0  0  0  0  0  0  0  0  0  0  0  0
  -22.8850  -13.5850   21.2430 C   0  0  0  0  0  0  0  0  0  0  0  0
  -22.2160  -12.8660   22.1380 N   0  0  0  0  0  0  0  0  0  0  0  0
  -22.4150  -14.6230   20.7800 O   0  0  0  0  0  0  0  0  0  0  0  0
  -22.6100  -12.0250   22.5330 H   0  0  0  0  0  0  0  0  0  0  0  0
  -21.2960  -13.1620   22.4330 H   0  0  0  0  0  0  0  0  0  0  0  0
  -25.4630  -15.2730   20.3190 N   0  0  0  0  0  0  0  0  0  0  0  0
  -24.7150  -15.9300   20.5140 H   0  0  0  0  0  0  0  0  0  0  0  0
  -26.3050  -15.7190   19.9770 H   0  0  0  0  0  0  0  0  0  0  0  0
  -28.6310  -21.9610   20.4790 C   0  0  0  0  0  2  0  0  0  0  0  0
  -29.1530  -23.5270   20.3230 C   0  0  0  0  0  3  0  0  0  0  0  0
  -28.0780  -24.7800   20.2340 C   0  0  0  0  0  3  0  0  0  0  0  0
  -28.3710  -26.2840   20.2820 O   0  0  0  0  0  0  0  0  0  0  0  0
  -24.6220  -31.8600   23.2060 C   0  0  0  0  0  0  0  0  0  0  0  0
  -27.2910  -27.2210   20.2070 C   0  0  0  0  0  0  0  0  0  0  0  0
  -23.4600  -30.4660   21.5370 C   0  0  0  0  0  3  0  0  0  0  0  0
  -24.9440  -28.9140   20.1390 C   0  0  0  0  0  0  0  0  0  0  0  0
  -26.0120  -30.7610   21.4210 C   0  0  0  0  0  2  0  0  0  0  0  0
  -26.1070  -29.3760   20.7680 C   0  0  0  0  0  0  0  0  0  0  0  0
  -27.2840  -28.5470   20.7850 C   0  0  0  0  0  3  0  0  0  0  0  0
  -26.0980  -26.8470   19.5460 C   0  0  0  0  0  3  0  0  0  0  0  0
  -24.9490  -27.6600   19.5150 C   0  0  0  0  0  3  0  0  0  0  0  0
  -23.7100  -29.7980   20.1600 C   0  0  0  0  0  2  0  0  0  0  0  0
  -24.7160  -31.0490   22.1100 N   0  0  0  0  0  0  0  0  0  0  0  0
  -23.5250  -32.1380   23.7130 O   0  0  0  0  0  0  0  0  0  0  0  0
  -22.7700  -29.4500   22.4790 C   0  0  0  0  0  0  0  0  0  0  0  0
  -21.4460  -29.2750   22.3260 N   0  0  0  0  0  0  0  0  0  0  0  0
  -23.4290  -28.8190   23.3110 O   0  0  0  0  0  0  0  0  0  0  0  0
  -20.9730  -29.8360   21.6310 H   0  0  0  0  0  0  0  0  0  0  0  0
  -18.0570  -28.0800   22.7620 C   0  0  0  0  0  0  0  0  0  0  0  0
  -20.6110  -28.3360   23.0770 C   0  0  0  0  0  3  0  0  0  0  0  0
  -20.7200  -26.9060   22.4950 C   0  0  0  0  0  2  0  0  0  0  0  0
  -19.6360  -26.5910   21.4600 C   0  0  0  0  0  2  0  0  0  0  0  0
  -18.2440  -26.7340   22.0800 C   0  0  0  0  0  2  0  0  0  0  0  0
  -19.1680  -28.8380   23.2150 C   0  0  0  0  0  0  0  0  0  0  0  0
  -18.9390  -30.0970   23.8120 C   0  0  0  0  0  3  0  0  0  0  0  0
  -17.6320  -30.5980   23.9600 C   0  0  0  0  0  3  0  0  0  0  0  0
  -16.5340  -29.8360   23.5220 C   0  0  0  0  0  3  0  0  0  0  0  0
  -16.7470  -28.5790   22.9290 C   0  0  0  0  0  3  0  0  0  0  0  0
  -25.8860  -32.4970   23.8610 C   0  0  0  0  0  3  0  0  0  0  0  0
  -26.3740  -31.7220   25.1460 C   0  0  1  0  0  0  0  0  0  0  0  0
  -25.2560  -31.4780   26.1870 C   0  0  0  0  0  1  0  0  0  0  0  0
  -26.9710  -30.3480   24.7670 C   0  0  0  0  0  1  0  0  0  0  0  0
  -27.5050  -32.5190   25.8390 C   0  0  0  0  0  1  0  0  0  0  0  0
  -25.5610  -33.8920   24.1930 N   0  0  0  0  0  0  0  0  0  0  0  0
  -25.8790  -34.9510   23.4350 C   0  0  0  0  0  0  0  0  0  0  0  0
  -26.5420  -34.8550   22.3990 O   0  0  0  0  0  0  0  0  0  0  0  0
  -24.9690  -34.0380   24.9970 H   0  0  0  0  0  0  0  0  0  0  0  0
  -24.1210  -36.7220   23.1090 C   0  0  0  0  0  1  0  0  0  0  0  0
  -25.3820  -36.3340   23.8980 C   0  0  0  0  0  3  0  0  0  0  0  0
  -27.5170  -37.2520   24.6900 C   0  0  0  0  0  1  0  0  0  0  0  0
  -26.3980  -37.4000   23.7630 N   0  0  0  0  0  0  0  0  0  0  0  0
  -25.9820  -38.3160   23.9120 H   0  0  0  0  0  0  0  0  0  0  0  0
  1  4  1  0
  3  2  1  0
  4 17  1  0
  4  3  1  0
  5  1  1  0
  5  3  1  0
  6  5  1  0
  6 46  1  0
  6  2  1  0
  6  7  1  6
  8 17  1  0
  9 14  1  0
 10 11  1  0
 10  9  1  0
 12 11  1  0
 12 21  1  0
 12 13  1  0
 14  8  1  0
 14 13  1  0
 15  8  2  0
 17 16  1  0
 18 19  2  0
 19 38  1  0
 20 19  1  0
 20 23  1  0
 21 22  1  0
 21 18  1  0
 22 20  2  0
 23 24  1  0
 24 25  2  0
 26 29  1  0
 26 25  1  0
 27 26  2  0
 28 27  1  0
 28 23  2  0
 29 30  1  0
 30 31  1  0
 31 32  2  0
 33 32  1  0
 33 37  1  0
 34 33  2  0
 35 30  2  0
 35 34  1  0
 36 35  1  0
 38 39  1  0
 39 42  1  0
 39 41  1  0
 40 38  2  0
 43 18  1  0
 43 44  1  0
 45 43  1  0
 47 46  1  0
 48 49  1  0
 48 47  2  0
 50 61  2  0
 51 49  1  0
 51 56  1  0
 52 60  1  0
 52 62  1  0
 53 59  1  0
 53 55  1  0
 54 60  1  0
 55 56  2  0
 55 54  1  0
 57 51  2  0
 58 57  1  0
 58 53  2  0
 59 52  1  0
 60 50  1  0
 62 64  2  0
 63 62  1  0
 65 63  1  0
 66 75  2  0
 66 71  1  0
 67 63  1  0
 67 71  1  0
 68 67  1  0
 69 70  1  0
 69 68  1  0
 70 66  1  0
 71 72  2  0
 72 73  1  0
 74 73  2  0
 75 74  1  0
 76 50  1  0
 76 81  1  0
 76 77  1  0
 77 80  1  1
 77 78  1  0
 79 77  1  0
 81 84  1  0
 82 86  1  0
 82 81  1  0
 83 82  2  0
 86 85  1  0
 88 86  1  0
 88 89  1  0
 88 87  1  0
M  ISO  4   8 100  17 100  48 101  49 101
M  END
>  <TORSDO>  (9) 
F 19

>  <SCORE>  (9) 
-13.484

>  <name>  (9) 
8

>  <ligand_id>  (9) 
8

>  <original_smiles>  (9) 
[H]c1c([H])c([H])c2c(c1[H])C([H])([H])C([H])([H])C([H])([H])C2([H])N([H])C(=O)C1([H])N(C(=O)C([H])(N([H])C(=O)C([H])(N([H])C([H])([H])[H])C([H])([H])[H])C(C([H])([H])[H])(C([H])([H])[H])C([H])([H])[H])C([H])([H])c2c([H])c(OC([H])([H])C([H])([H])C([H])([H])[N+]3([H])C([H])([H])C4([H])C([H])(N(C(=O)N5C([H])([H])C([H])([H])C([H])([H])C([H])(n6nc(-c7c([H])c([H])c(Oc8c([H])c([H])c(F)c([H])c8F)c([H])c7[H])c(C(=O)N([H])[H])c6N([H])[H])C5([H])[H])C([H])([H])[H])C([H])([H])C43[H])c([H])c([H])c2C1([H])[H]

>  <smiles>  (9) 
[H]c1c([H])c([H])c2c(c1[H])C([H])([H])C([H])([H])C([H])([H])C2([H])N([H])C(=O)C1([H])N(C(=O)C([H])(N([H])C(=O)C([H])(N([H])C([H])([H])[H])C([H])([H])[H])C(C([H])([H])[H])(C([H])([H])[H])C([H])([H])[H])C([H])([H])c2c([H])c(OC([H])([H])C([H])([H])C([H])([H])[N+]3([H])C([H])([H])C4([H])C([H])(N(C(=O)N5C([H])([H])C([H])([H])C([H])([H])C([H])(n6nc(-c7c([H])c([H])c(Oc8c([H])c([H])c(F)c([H])c8F)c([H])c7[H])c(C(=O)N([H])[H])c6N([H])[H])C5([H])[H])C([H])([H])[H])C([H])([H])C43[H])c([H])c([H])c2C1([H])[H]

$$$$
9:0:0
     RDKit          3D

 96103  0  0  1  0  0  0  0  0999 V2000
  -31.8370  -19.9790   20.1620 C   0  0  0  0  0  2  0  0  0  0  0  0
  -30.8800  -20.9740   19.4520 C   0  0  0  0  0  2  0  0  0  0  0  0
  -30.7850  -22.2810   20.1590 N   0  0  0  0  0  4  0  0  0  0  0  0
  -31.7080  -22.5730   20.4430 H   0  0  0  0  0  0  0  0  0  0  0  0
  -30.2410  -22.1410   20.9960 H   0  0  0  0  0  0  0  0  0  0  0  0
  -30.1670  -23.3860   19.3730 C   0  0  0  0  0  2  0  0  0  0  0  0
  -29.6910  -24.5950   20.2560 C   0  0  0  0  0  2  0  0  0  0  0  0
  -28.3110  -25.3300   20.1300 C   0  0  0  0  0  2  0  0  0  0  0  0
  -28.4050  -26.7590   20.2370 O   0  0  0  0  0  0  0  0  0  0  0  0
  -24.5490  -31.9440   23.2510 C   0  0  0  0  0  0  0  0  0  0  0  0
  -27.2140  -27.4670   20.2230 C   0  0  0  0  0  0  0  0  0  0  0  0
  -23.3480  -30.5170   21.6280 C   0  0  0  0  0  3  0  0  0  0  0  0
  -24.8040  -28.9650   20.2270 C   0  0  0  0  0  0  0  0  0  0  0  0
  -25.8760  -30.8750   21.4280 C   0  0  0  0  0  2  0  0  0  0  0  0
  -25.9630  -29.4980   20.8030 C   0  0  0  0  0  0  0  0  0  0  0  0
  -27.1690  -28.7590   20.7940 C   0  0  0  0  0  3  0  0  0  0  0  0
  -26.0250  -26.9440   19.6530 C   0  0  0  0  0  3  0  0  0  0  0  0
  -24.8310  -27.6830   19.6530 C   0  0  0  0  0  3  0  0  0  0  0  0
  -23.5610  -29.8230   20.2560 C   0  0  0  0  0  2  0  0  0  0  0  0
  -24.6080  -31.1290   22.1580 N   0  0  0  0  0  0  0  0  0  0  0  0
  -23.4660  -32.2240   23.7850 O   0  0  0  0  0  0  0  0  0  0  0  0
  -22.7000  -29.5070   22.5990 C   0  0  0  0  0  0  0  0  0  0  0  0
  -21.3830  -29.2900   22.4460 N   0  0  0  0  0  0  0  0  0  0  0  0
  -23.3760  -28.9170   23.4460 O   0  0  0  0  0  0  0  0  0  0  0  0
  -20.8940  -29.8210   21.7400 H   0  0  0  0  0  0  0  0  0  0  0  0
  -18.0340  -27.9990   22.8750 C   0  0  0  0  0  0  0  0  0  0  0  0
  -20.5700  -28.3560   23.2260 C   0  0  0  0  0  3  0  0  0  0  0  0
  -20.7400  -26.9060   22.7140 C   0  0  0  0  0  2  0  0  0  0  0  0
  -19.6880  -26.5050   21.6750 C   0  0  0  0  0  2  0  0  0  0  0  0
  -18.2770  -26.6300   22.2630 C   0  0  0  0  0  2  0  0  0  0  0  0
  -19.1110  -28.8150   23.3130 C   0  0  0  0  0  0  0  0  0  0  0  0
  -18.8320  -30.0930   23.8420 C   0  0  0  0  0  3  0  0  0  0  0  0
  -17.5080  -30.5570   23.9440 C   0  0  0  0  0  3  0  0  0  0  0  0
  -16.4430  -29.7410   23.5220 C   0  0  0  0  0  3  0  0  0  0  0  0
  -16.7070  -28.4640   22.9920 C   0  0  0  0  0  3  0  0  0  0  0  0
  -25.8350  -32.5860   23.8600 C   0  0  0  0  0  3  0  0  0  0  0  0
  -26.3570  -31.8350   25.1470 C   0  0  1  0  0  0  0  0  0  0  0  0
  -25.2640  -31.6030   26.2160 C   0  0  0  0  0  1  0  0  0  0  0  0
  -26.9520  -30.4580   24.7730 C   0  0  0  0  0  1  0  0  0  0  0  0
  -27.5010  -32.6480   25.7960 C   0  0  0  0  0  1  0  0  0  0  0  0
  -25.5270  -33.9890   24.1670 N   0  0  0  0  0  0  0  0  0  0  0  0
  -25.8600  -35.0290   23.3920 C   0  0  0  0  0  0  0  0  0  0  0  0
  -26.5330  -34.9090   22.3650 O   0  0  0  0  0  0  0  0  0  0  0  0
  -24.9400  -34.1610   24.9700 H   0  0  0  0  0  0  0  0  0  0  0  0
  -24.1360  -36.8120   22.9890 C   0  0  0  0  0  1  0  0  0  0  0  0
  -25.3660  -36.4220   23.8240 C   0  0  0  0  0  3  0  0  0  0  0  0
  -27.4900  -37.3160   24.6690 C   0  0  0  0  0  1  0  0  0  0  0  0
  -26.4000  -37.4740   23.7110 N   0  0  0  0  0  0  0  0  0  0  0  0
  -25.9930  -38.3950   23.8500 H   0  0  0  0  0  0  0  0  0  0  0  0
  -31.3880  -18.4960   20.1980 C   0  0  0  0  0  2  0  0  0  0  0  0
  -30.5040  -18.1190   21.4220 C   0  0  0  0  0  2  0  0  0  0  0  0
  -30.3340  -16.9740   23.6640 C   0  0  0  0  0  1  0  0  0  0  0  0
  -30.8700  -16.8220   22.2250 C   0  0  2  0  0  0  0  0  0  0  0  0
  -32.3420  -16.6740   22.3060 N   0  0  0  0  0  4  0  0  0  0  0  0
  -32.7540  -17.4960   22.7140 H   0  0  0  0  0  0  0  0  0  0  0  0
  -32.7620  -16.5410   21.4040 H   0  0  0  0  0  0  0  0  0  0  0  0
  -32.5990  -15.8930   22.8850 H   0  0  0  0  0  0  0  0  0  0  0  0
  -30.2180  -15.5300   21.6470 C   0  0  0  0  0  2  0  0  0  0  0  0
  -31.1470  -14.1450   19.7830 C   0  0  0  0  0  0  0  0  0  0  0  0
  -30.5380  -12.1130   18.5460 C   0  0  0  0  0  2  0  0  0  0  0  0
  -29.5300  -12.4740   17.4350 C   0  0  0  0  0  2  0  0  0  0  0  0
  -28.0870  -12.4330   17.9740 C   0  0  0  0  0  2  0  0  0  0  0  0
  -27.9250  -13.2090   19.3080 C   0  0  0  0  0  3  0  0  0  0  0  0
  -29.0370  -12.8260   20.3070 C   0  0  0  0  0  2  0  0  0  0  0  0
  -30.3370  -13.0600   19.6540 N   0  0  0  0  0  0  0  0  0  0  0  0
  -32.2190  -14.2660   19.1930 O   0  0  0  0  0  0  0  0  0  0  0  0
  -30.6030  -15.2630   20.2700 N   0  0  0  0  0  0  0  0  0  0  0  0
  -31.0010  -16.0820   19.8320 H   0  0  0  0  0  0  0  0  0  0  0  0
  -25.6200  -13.9620   20.1820 C   0  0  0  0  0  0  0  0  0  0  0  0
  -24.5340  -13.2550   20.6190 C   0  0  0  0  0  0  0  0  0  0  0  0
  -24.9030  -11.8760   20.5470 C   0  0  0  0  0  0  0  0  0  0  0  0
  -26.5910  -13.0180   19.8770 N   0  0  0  0  0  0  0  0  0  0  0  0
  -26.1620  -11.7590   20.1470 N   0  0  0  0  0  0  0  0  0  0  0  0
  -24.1150  -10.6600   20.7790 C   0  0  0  0  0  0  0  0  0  0  0  0
  -24.5260   -9.6760   21.7040 C   0  0  0  0  0  3  0  0  0  0  0  0
  -23.7390   -8.5250   21.9220 C   0  0  0  0  0  3  0  0  0  0  0  0
  -22.5250   -8.3520   21.2130 C   0  0  0  0  0  0  0  0  0  0  0  0
  -22.1340   -9.3240   20.2740 C   0  0  0  0  0  3  0  0  0  0  0  0
  -22.9220  -10.4650   20.0550 C   0  0  0  0  0  3  0  0  0  0  0  0
  -21.7070   -7.2550   21.3420 O   0  0  0  0  0  0  0  0  0  0  0  0
  -21.6300   -6.5490   22.5160 C   0  0  0  0  0  0  0  0  0  0  0  0
  -21.2470   -7.1610   23.7300 C   0  0  0  0  0  3  0  0  0  0  0  0
  -21.1130   -6.3840   24.8980 C   0  0  0  0  0  3  0  0  0  0  0  0
  -21.3520   -4.9970   24.8520 C   0  0  0  0  0  0  0  0  0  0  0  0
  -21.7300   -4.3860   23.6440 C   0  0  0  0  0  3  0  0  0  0  0  0
  -21.8660   -5.1610   22.4780 C   0  0  0  0  0  0  0  0  0  0  0  0
  -22.2080   -4.5620   21.3110 F   0  0  0  0  0  0  0  0  0  0  0  0
  -21.2170   -4.2480   25.9710 F   0  0  0  0  0  0  0  0  0  0  0  0
  -23.1930  -13.8160   20.9950 C   0  0  0  0  0  0  0  0  0  0  0  0
  -22.4960  -13.1690   21.9210 N   0  0  0  0  0  0  0  0  0  0  0  0
  -22.7770  -14.8640   20.5010 O   0  0  0  0  0  0  0  0  0  0  0  0
  -22.8450  -12.3220   22.3430 H   0  0  0  0  0  0  0  0  0  0  0  0
  -21.5980  -13.5310   22.2130 H   0  0  0  0  0  0  0  0  0  0  0  0
  -25.8600  -15.3220   20.0060 N   0  0  0  0  0  0  0  0  0  0  0  0
  -25.1480  -16.0230   20.1800 H   0  0  0  0  0  0  0  0  0  0  0  0
  -26.7220  -15.7120   19.6460 H   0  0  0  0  0  0  0  0  0  0  0  0
  1 50  1  0
  2  3  1  0
  2  1  1  0
  3  4  1  0
  3  5  1  0
  6  3  1  0
  6  7  1  0
  8  9  1  0
  8  7  1  0
 10 21  2  0
 11  9  1  0
 11 16  1  0
 12 20  1  0
 12 22  1  0
 13 19  1  0
 13 15  1  0
 14 20  1  0
 15 14  1  0
 16 15  2  0
 17 18  1  0
 17 11  2  0
 18 13  2  0
 19 12  1  0
 20 10  1  0
 22 24  2  0
 23 22  1  0
 25 23  1  0
 26 35  2  0
 26 31  1  0
 27 23  1  0
 27 31  1  0
 28 27  1  0
 29 30  1  0
 29 28  1  0
 30 26  1  0
 31 32  2  0
 32 33  1  0
 34 33  2  0
 35 34  1  0
 36 10  1  0
 36 41  1  0
 36 37  1  0
 37 40  1  1
 37 38  1  0
 39 37  1  0
 41 44  1  0
 42 46  1  0
 42 41  1  0
 43 42  2  0
 46 45  1  0
 48 46  1  0
 48 49  1  0
 48 47  1  0
 50 51  1  0
 51 53  1  0
 53 54  1  0
 53 52  1  1
 54 55  1  0
 54 57  1  0
 56 54  1  0
 58 53  1  0
 59 67  1  0
 60 65  1  0
 61 62  1  0
 61 60  1  0
 63 62  1  0
 63 72  1  0
 63 64  1  0
 65 59  1  0
 65 64  1  0
 66 59  2  0
 67 58  1  0
 68 67  1  0
 69 70  2  0
 70 89  1  0
 71 70  1  0
 71 74  1  0
 72 73  1  0
 72 69  1  0
 73 71  2  0
 74 75  1  0
 75 76  2  0
 77 80  1  0
 77 76  1  0
 78 77  2  0
 79 78  1  0
 79 74  2  0
 80 81  1  0
 81 82  1  0
 82 83  2  0
 84 83  1  0
 84 88  1  0
 85 84  2  0
 86 81  2  0
 86 85  1  0
 87 86  1  0
 89 90  1  0
 90 93  1  0
 90 92  1  0
 91 89  2  0
 94 95  1  0
 94 69  1  0
 96 94  1  0
M  ISO  4   8 101   9 101  59 100  67 100
M  END
>  <TORSDO>  (10) 
F 26

>  <SCORE>  (10) 
-8.413

>  <name>  (10) 
9

>  <ligand_id>  (10) 
9

>  <original_smiles>  (10) 
[H]c1c([H])c([H])c2c(c1[H])C([H])([H])C([H])([H])C([H])([H])C2([H])N([H])C(=O)C1([H])N(C(=O)C([H])(N([H])C(=O)C([H])(N([H])C([H])([H])[H])C([H])([H])[H])C(C([H])([H])[H])(C([H])([H])[H])C([H])([H])[H])C([H])([H])c2c([H])c(OC([H])([H])C([H])([H])C([H])([H])[N+]([H])([H])C([H])([H])C([H])([H])C([H])([H])C([H])([H])C(C([H])([H])[H])(C([H])([H])N([H])C(=O)N3C([H])([H])C([H])([H])C([H])([H])C([H])(n4nc(-c5c([H])c([H])c(Oc6c([H])c([H])c(F)c([H])c6F)c([H])c5[H])c(C(=O)N([H])[H])c4N([H])[H])C3([H])[H])[N+]([H])([H])[H])c([H])c([H])c2C1([H])[H]

>  <smiles>  (10) 
[H]c1c([H])c([H])c2c(c1[H])C([H])([H])C([H])([H])C([H])([H])C2([H])N([H])C(=O)C1([H])N(C(=O)C([H])(N([H])C(=O)C([H])(N([H])C([H])([H])[H])C([H])([H])[H])C(C([H])([H])[H])(C([H])([H])[H])C([H])([H])[H])C([H])([H])c2c([H])c(OC([H])([H])C([H])([H])C([H])([H])[N+]([H])([H])C([H])([H])C([H])([H])C([H])([H])C([H])([H])C(C([H])([H])[H])(C([H])([H])N([H])C(=O)N3C([H])([H])C([H])([H])C([H])([H])C([H])(n4nc(-c5c([H])c([H])c(Oc6c([H])c([H])c(F)c([H])c6F)c([H])c5[H])c(C(=O)N([H])[H])c4N([H])[H])C3([H])[H])[N+]([H])([H])[H])c([H])c([H])c2C1([H])[H]

$$$$
10:0:0
     RDKit          3D

 92100  0  0  1  0  0  0  0  0999 V2000
  -28.7470  -22.8420   20.4310 C   0  0  0  0  0  3  0  0  0  0  0  0
  -30.4910  -21.3520   18.9760 C   0  0  0  0  0  3  0  0  0  0  0  0
  -31.0280  -18.8820   18.9860 C   0  0  0  0  0  3  0  0  0  0  0  0
  -29.2350  -19.7880   20.3140 C   0  0  0  0  0  3  0  0  0  0  0  0
  -31.2510  -20.2210   18.5480 C   0  0  0  0  0  0  0  0  0  0  0  0
  -29.4240  -21.2810   19.9000 C   0  0  0  0  0  0  0  0  0  0  0  0
  -30.0110  -18.5070   19.8920 C   0  0  0  0  0  0  0  0  0  0  0  0
  -32.3830  -20.4500   17.5640 C   0  0  0  0  0  1  0  0  0  0  0  0
  -30.6370  -15.6310   19.9970 C   0  0  0  0  0  0  0  0  0  0  0  0
  -30.6170  -13.1630   19.1550 C   0  0  0  0  0  2  0  0  0  0  0  0
  -29.6700  -12.9370   17.9470 C   0  0  0  0  0  2  0  0  0  0  0  0
  -28.2360  -12.6540   18.4230 C   0  0  0  0  0  2  0  0  0  0  0  0
  -27.8060  -13.6180   19.5570 C   0  0  0  0  0  3  0  0  0  0  0  0
  -28.8810  -13.7860   20.6550 C   0  0  0  0  0  2  0  0  0  0  0  0
  -30.0880  -14.3080   19.9930 N   0  0  0  0  0  0  0  0  0  0  0  0
  -31.8390  -15.6270   19.6900 O   0  0  0  0  0  0  0  0  0  0  0  0
  -29.8760  -16.9060   20.2030 N   0  0  0  0  0  0  0  0  0  0  0  0
  -28.9700  -16.6830   20.5880 H   0  0  0  0  0  0  0  0  0  0  0  0
  -25.4630  -14.1640   20.3940 C   0  0  0  0  0  0  0  0  0  0  0  0
  -24.4110  -13.3830   20.7810 C   0  0  0  0  0  0  0  0  0  0  0  0
  -24.8750  -12.0320   20.7150 C   0  0  0  0  0  0  0  0  0  0  0  0
  -26.4960  -13.2910   20.1020 N   0  0  0  0  0  0  0  0  0  0  0  0
  -26.1570  -12.0010   20.3640 N   0  0  0  0  0  0  0  0  0  0  0  0
  -24.1490  -10.7690   20.9060 C   0  0  0  0  0  0  0  0  0  0  0  0
  -24.5760   -9.8050   21.8460 C   0  0  0  0  0  3  0  0  0  0  0  0
  -23.8470   -8.6090   22.0270 C   0  0  0  0  0  3  0  0  0  0  0  0
  -22.6790   -8.3680   21.2670 C   0  0  0  0  0  0  0  0  0  0  0  0
  -22.2710   -9.3200   20.3170 C   0  0  0  0  0  3  0  0  0  0  0  0
  -23.0000  -10.5060   20.1340 C   0  0  0  0  0  3  0  0  0  0  0  0
  -21.9230   -7.2240   21.3580 O   0  0  0  0  0  0  0  0  0  0  0  0
  -21.8410   -6.5040   22.5220 C   0  0  0  0  0  0  0  0  0  0  0  0
  -21.3400   -7.0710   23.7140 C   0  0  0  0  0  3  0  0  0  0  0  0
  -21.2080   -6.2770   24.8710 C   0  0  0  0  0  3  0  0  0  0  0  0
  -21.5670   -4.9150   24.8350 C   0  0  0  0  0  0  0  0  0  0  0  0
  -22.0600   -4.3480   23.6470 C   0  0  0  0  0  3  0  0  0  0  0  0
  -22.1930   -5.1400   22.4940 C   0  0  0  0  0  0  0  0  0  0  0  0
  -22.6490   -4.5820   21.3460 F   0  0  0  0  0  0  0  0  0  0  0  0
  -21.4320   -4.1500   25.9440 F   0  0  0  0  0  0  0  0  0  0  0  0
  -23.0240  -13.8590   21.0960 C   0  0  0  0  0  0  0  0  0  0  0  0
  -22.3220  -13.1610   21.9800 N   0  0  0  0  0  0  0  0  0  0  0  0
  -22.5730  -14.8880   20.5940 O   0  0  0  0  0  0  0  0  0  0  0  0
  -22.7010  -12.3290   22.4090 H   0  0  0  0  0  0  0  0  0  0  0  0
  -21.3920  -13.4640   22.2340 H   0  0  0  0  0  0  0  0  0  0  0  0
  -25.6210  -15.5380   20.2340 N   0  0  0  0  0  0  0  0  0  0  0  0
  -24.8540  -16.1850   20.3780 H   0  0  0  0  0  0  0  0  0  0  0  0
  -26.4480  -15.9820   19.8570 H   0  0  0  0  0  0  0  0  0  0  0  0
  -27.4210  -22.5570   21.1690 C   0  0  2  0  0  0  0  0  0  0  0  0
  -26.9630  -23.6630   21.7570 F   0  0  0  0  0  0  0  0  0  0  0  0
  -27.5850  -21.6370   22.1200 F   0  0  0  0  0  0  0  0  0  0  0  0
  -26.5020  -22.1250   20.3050 F   0  0  0  0  0  0  0  0  0  0  0  0
  -28.5160  -24.4880   19.6570 C   0  0  0  0  0  2  0  0  0  0  0  0
  -28.4380  -26.0950   20.1350 O   0  0  0  0  0  0  0  0  0  0  0  0
  -24.7010  -31.9410   23.1610 C   0  0  0  0  0  0  0  0  0  0  0  0
  -27.3940  -27.1700   20.0400 C   0  0  0  0  0  0  0  0  0  0  0  0
  -23.5480  -30.5450   21.4910 C   0  0  0  0  0  3  0  0  0  0  0  0
  -25.0410  -29.0060   20.0320 C   0  0  0  0  0  0  0  0  0  0  0  0
  -26.1080  -30.8200   21.3560 C   0  0  0  0  0  2  0  0  0  0  0  0
  -26.2160  -29.4240   20.6670 C   0  0  0  0  0  0  0  0  0  0  0  0
  -27.3800  -28.5260   20.6510 C   0  0  0  0  0  3  0  0  0  0  0  0
  -26.1860  -26.9140   19.3510 C   0  0  0  0  0  3  0  0  0  0  0  0
  -25.0530  -27.7750   19.3540 C   0  0  0  0  0  3  0  0  0  0  0  0
  -23.7980  -29.8950   20.1010 C   0  0  0  0  0  2  0  0  0  0  0  0
  -24.8070  -31.1310   22.0560 N   0  0  0  0  0  0  0  0  0  0  0  0
  -23.6050  -32.1890   23.6870 O   0  0  0  0  0  0  0  0  0  0  0  0
  -22.8790  -29.5130   22.4370 C   0  0  0  0  0  0  0  0  0  0  0  0
  -21.5540  -29.3150   22.3090 N   0  0  0  0  0  0  0  0  0  0  0  0
  -23.5610  -28.8930   23.2560 O   0  0  0  0  0  0  0  0  0  0  0  0
  -21.0550  -29.8700   21.6270 H   0  0  0  0  0  0  0  0  0  0  0  0
  -18.2060  -28.0010   22.7950 C   0  0  0  0  0  0  0  0  0  0  0  0
  -20.7570  -28.3390   23.0610 C   0  0  0  0  0  3  0  0  0  0  0  0
  -20.9000  -26.9210   22.4570 C   0  0  0  0  0  2  0  0  0  0  0  0
  -19.8070  -26.5890   21.4370 C   0  0  0  0  0  2  0  0  0  0  0  0
  -18.4230  -26.6750   22.0850 C   0  0  0  0  0  2  0  0  0  0  0  0
  -19.3020  -28.7890   23.2390 C   0  0  0  0  0  0  0  0  0  0  0  0
  -19.0430  -30.0270   23.8670 C   0  0  0  0  0  3  0  0  0  0  0  0
  -17.7220  -30.4790   24.0530 C   0  0  0  0  0  3  0  0  0  0  0  0
  -16.6420  -29.6890   23.6230 C   0  0  0  0  0  3  0  0  0  0  0  0
  -16.8850  -28.4520   23.0000 C   0  0  0  0  0  3  0  0  0  0  0  0
  -25.9530  -32.6060   23.8090 C   0  0  0  0  0  3  0  0  0  0  0  0
  -26.4570  -31.8510   25.1010 C   0  0  1  0  0  0  0  0  0  0  0  0
  -25.3460  -31.5980   26.1480 C   0  0  0  0  0  1  0  0  0  0  0  0
  -27.0750  -30.4810   24.7390 C   0  0  0  0  0  1  0  0  0  0  0  0
  -27.5780  -32.6710   25.7820 C   0  0  0  0  0  1  0  0  0  0  0  0
  -25.6060  -33.9990   24.1430 N   0  0  0  0  0  0  0  0  0  0  0  0
  -25.9300  -35.0710   23.4070 C   0  0  0  0  0  0  0  0  0  0  0  0
  -26.6150  -34.9920   22.3840 O   0  0  0  0  0  0  0  0  0  0  0  0
  -24.9950  -34.1320   24.9360 H   0  0  0  0  0  0  0  0  0  0  0  0
  -24.1770  -36.8470   23.0620 C   0  0  0  0  0  1  0  0  0  0  0  0
  -25.4180  -36.4480   23.8770 C   0  0  0  0  0  3  0  0  0  0  0  0
  -27.5260  -37.3660   24.7440 C   0  0  0  0  0  1  0  0  0  0  0  0
  -26.4350  -37.5200   23.7860 N   0  0  0  0  0  0  0  0  0  0  0  0
  -26.0110  -38.4310   23.9320 H   0  0  0  0  0  0  0  0  0  0  0  0
  1 51  1  0
  1 47  1  0
  2  6  1  0
  3  7  2  0
  5  2  2  0
  5  3  1  0
  6  4  2  0
  6  1  1  0
  7 17  1  0
  7  4  1  0
  8  5  1  0
  9 17  1  0
 10 15  1  0
 11 12  1  0
 11 10  1  0
 13 12  1  0
 13 22  1  0
 13 14  1  0
 15  9  1  0
 15 14  1  0
 16  9  2  0
 17 18  1  0
 19 20  2  0
 20 39  1  0
 21 20  1  0
 21 24  1  0
 22 23  1  0
 22 19  1  0
 23 21  2  0
 24 25  1  0
 25 26  2  0
 27 30  1  0
 27 26  1  0
 28 27  2  0
 29 28  1  0
 29 24  2  0
 30 31  1  0
 31 32  1  0
 32 33  2  0
 34 33  1  0
 34 38  1  0
 35 34  2  0
 36 31  2  0
 36 35  1  0
 37 36  1  0
 39 40  1  0
 40 43  1  0
 40 42  1  0
 41 39  2  0
 44 45  1  0
 44 19  1  0
 46 44  1  0
 47 48  1  1
 47 49  1  0
 50 47  1  0
 51 52  1  0
 53 64  2  0
 54 52  1  0
 54 59  1  0
 55 63  1  0
 55 65  1  0
 56 62  1  0
 56 58  1  0
 57 63  1  0
 58 57  1  0
 59 58  2  0
 60 61  1  0
 60 54  2  0
 61 56  2  0
 62 55  1  0
 63 53  1  0
 65 67  2  0
 66 65  1  0
 68 66  1  0
 69 78  2  0
 69 74  1  0
 70 66  1  0
 70 74  1  0
 71 70  1  0
 72 73  1  0
 72 71  1  0
 73 69  1  0
 74 75  2  0
 75 76  1  0
 77 76  2  0
 78 77  1  0
 79 53  1  0
 79 84  1  0
 79 80  1  0
 80 83  1  1
 80 81  1  0
 82 80  1  0
 84 87  1  0
 85 89  1  0
 85 84  1  0
 86 85  2  0
 89 88  1  0
 91 89  1  0
 91 92  1  0
 91 90  1  0
M  ISO  4   9 100  17 100  51 101  52 101
M  END
>  <TORSDO>  (11) 
F 19

>  <SCORE>  (11) 
-15.605

>  <name>  (11) 
10

>  <ligand_id>  (11) 
10

>  <original_smiles>  (11) 
[H]c1c([H])c([H])c2c(c1[H])C([H])([H])C([H])([H])C([H])([H])C2([H])N([H])C(=O)C1([H])N(C(=O)C([H])(N([H])C(=O)C([H])(N([H])C([H])([H])[H])C([H])([H])[H])C(C([H])([H])[H])(C([H])([H])[H])C([H])([H])[H])C([H])([H])c2c([H])c(OC([H])([H])C([H])(c3c([H])c(N([H])C(=O)N4C([H])([H])C([H])([H])C([H])([H])C([H])(n5nc(-c6c([H])c([H])c(Oc7c([H])c([H])c(F)c([H])c7F)c([H])c6[H])c(C(=O)N([H])[H])c5N([H])[H])C4([H])[H])c([H])c(C([H])([H])[H])c3[H])C(F)(F)F)c([H])c([H])c2C1([H])[H]

>  <smiles>  (11) 
[H]c1c([H])c([H])c2c(c1[H])C([H])([H])C([H])([H])C([H])([H])C2([H])N([H])C(=O)C1([H])N(C(=O)C([H])(N([H])C(=O)C([H])(N([H])C([H])([H])[H])C([H])([H])[H])C(C([H])([H])[H])(C([H])([H])[H])C([H])([H])[H])C([H])([H])c2c([H])c(OC([H])([H])C([H])(c3c([H])c(N([H])C(=O)N4C([H])([H])C([H])([H])C([H])([H])C([H])(n5nc(-c6c([H])c([H])c(Oc7c([H])c([H])c(F)c([H])c7F)c([H])c6[H])c(C(=O)N([H])[H])c5N([H])[H])C4([H])[H])c([H])c(C([H])([H])[H])c3[H])C(F)(F)F)c([H])c([H])c2C1([H])[H]

$$$$
11:0:0
     RDKit          3D

 87 95  0  0  1  0  0  0  0  0999 V2000
  -30.0490  -21.0050   23.3030 C   0  0  0  0  0  3  0  0  0  0  0  0
  -29.7170  -22.3490   23.3330 C   0  0  0  0  0  3  0  0  0  0  0  0
  -29.9690  -20.2860   22.1100 C   0  0  0  0  0  3  0  0  0  0  0  0
  -29.3240  -23.0030   22.1640 C   0  0  0  0  0  3  0  0  0  0  0  0
  -29.5800  -20.7790   20.8340 C   0  0  0  0  0  0  0  0  0  0  0  0
  -29.2010  -22.4380   20.8590 C   0  0  0  0  0  0  0  0  0  0  0  0
  -29.8610  -19.1720   19.9140 C   0  0  0  0  0  2  0  0  0  0  0  0
  -30.6380  -16.0050   20.0190 C   0  0  0  0  0  0  0  0  0  0  0  0
  -30.6680  -13.4690   19.1450 C   0  0  0  0  0  2  0  0  0  0  0  0
  -29.7310  -13.0710   17.9640 C   0  0  0  0  0  2  0  0  0  0  0  0
  -28.3350  -12.6980   18.4720 C   0  0  0  0  0  2  0  0  0  0  0  0
  -27.8620  -13.6880   19.5530 C   0  0  0  0  0  3  0  0  0  0  0  0
  -28.9310  -13.9990   20.6350 C   0  0  0  0  0  2  0  0  0  0  0  0
  -30.0880  -14.6390   19.9580 N   0  0  0  0  0  0  0  0  0  0  0  0
  -31.8460  -15.9250   19.7100 O   0  0  0  0  0  0  0  0  0  0  0  0
  -29.9180  -17.3870   20.2380 N   0  0  0  0  0  0  0  0  0  0  0  0
  -29.0150  -17.1360   20.6060 H   0  0  0  0  0  0  0  0  0  0  0  0
  -25.5370  -14.2200   20.4170 C   0  0  0  0  0  0  0  0  0  0  0  0
  -24.4860  -13.4440   20.8060 C   0  0  0  0  0  0  0  0  0  0  0  0
  -24.9380  -12.0900   20.7170 C   0  0  0  0  0  0  0  0  0  0  0  0
  -26.5620  -13.3470   20.1100 N   0  0  0  0  0  0  0  0  0  0  0  0
  -26.2190  -12.0570   20.3590 N   0  0  0  0  0  0  0  0  0  0  0  0
  -24.2020  -10.8290   20.9030 C   0  0  0  0  0  0  0  0  0  0  0  0
  -24.6220   -9.8570   21.8370 C   0  0  0  0  0  3  0  0  0  0  0  0
  -23.8830   -8.6640   22.0120 C   0  0  0  0  0  3  0  0  0  0  0  0
  -22.7110   -8.4350   21.2540 C   0  0  0  0  0  0  0  0  0  0  0  0
  -22.3110   -9.3980   20.3080 C   0  0  0  0  0  3  0  0  0  0  0  0
  -23.0490  -10.5790   20.1300 C   0  0  0  0  0  3  0  0  0  0  0  0
  -21.9460   -7.2980   21.3390 O   0  0  0  0  0  0  0  0  0  0  0  0
  -21.8490   -6.5820   22.5060 C   0  0  0  0  0  0  0  0  0  0  0  0
  -21.3470   -7.1590   23.6940 C   0  0  0  0  0  3  0  0  0  0  0  0
  -21.1980   -6.3670   24.8510 C   0  0  0  0  0  3  0  0  0  0  0  0
  -21.5380   -5.0010   24.8220 C   0  0  0  0  0  0  0  0  0  0  0  0
  -22.0330   -4.4260   23.6380 C   0  0  0  0  0  3  0  0  0  0  0  0
  -22.1860   -5.2120   22.4830 C   0  0  0  0  0  0  0  0  0  0  0  0
  -22.6410   -4.6480   21.3390 F   0  0  0  0  0  0  0  0  0  0  0  0
  -21.3880   -4.2400   25.9310 F   0  0  0  0  0  0  0  0  0  0  0  0
  -23.1030  -13.9240   21.1360 C   0  0  0  0  0  0  0  0  0  0  0  0
  -22.4030  -13.2200   22.0170 N   0  0  0  0  0  0  0  0  0  0  0  0
  -22.6550  -14.9610   20.6450 O   0  0  0  0  0  0  0  0  0  0  0  0
  -22.7810  -12.3860   22.4430 H   0  0  0  0  0  0  0  0  0  0  0  0
  -21.4730  -13.5210   22.2770 H   0  0  0  0  0  0  0  0  0  0  0  0
  -25.7010  -15.5930   20.2630 N   0  0  0  0  0  0  0  0  0  0  0  0
  -24.9450  -16.2510   20.4130 H   0  0  0  0  0  0  0  0  0  0  0  0
  -26.5280  -16.0260   19.8770 H   0  0  0  0  0  0  0  0  0  0  0  0
  -28.6250  -23.9980   19.9990 C   0  0  0  0  0  2  0  0  0  0  0  0
  -28.5130  -25.7350   20.4330 O   0  0  0  0  0  0  0  0  0  0  0  0
  -24.7610  -31.9330   23.2430 C   0  0  0  0  0  0  0  0  0  0  0  0
  -27.5140  -26.9390   20.2810 C   0  0  0  0  0  0  0  0  0  0  0  0
  -23.6450  -30.5200   21.5620 C   0  0  0  0  0  3  0  0  0  0  0  0
  -25.1810  -28.9210   20.1620 C   0  0  0  0  0  0  0  0  0  0  0  0
  -26.2230  -30.7360   21.4990 C   0  0  0  0  0  2  0  0  0  0  0  0
  -26.3460  -29.3080   20.8360 C   0  0  0  0  0  0  0  0  0  0  0  0
  -27.4890  -28.3430   20.8650 C   0  0  0  0  0  3  0  0  0  0  0  0
  -26.3170  -26.7790   19.5340 C   0  0  0  0  0  3  0  0  0  0  0  0
  -25.2080  -27.6890   19.4840 C   0  0  0  0  0  3  0  0  0  0  0  0
  -23.9390  -29.8340   20.1920 C   0  0  0  0  0  2  0  0  0  0  0  0
  -24.8980  -31.0980   22.1540 N   0  0  0  0  0  0  0  0  0  0  0  0
  -23.6500  -32.1990   23.7340 O   0  0  0  0  0  0  0  0  0  0  0  0
  -22.9340  -29.5180   22.5120 C   0  0  0  0  0  0  0  0  0  0  0  0
  -21.6070  -29.3410   22.3690 N   0  0  0  0  0  0  0  0  0  0  0  0
  -23.5920  -28.8940   23.3490 O   0  0  0  0  0  0  0  0  0  0  0  0
  -21.1270  -29.8940   21.6720 H   0  0  0  0  0  0  0  0  0  0  0  0
  -18.2350  -28.0650   22.8380 C   0  0  0  0  0  0  0  0  0  0  0  0
  -20.7900  -28.3760   23.1150 C   0  0  0  0  0  3  0  0  0  0  0  0
  -20.9180  -26.9580   22.5130 C   0  0  0  0  0  2  0  0  0  0  0  0
  -19.8260  -26.6380   21.4860 C   0  0  0  0  0  2  0  0  0  0  0  0
  -18.4390  -26.7400   22.1260 C   0  0  0  0  0  2  0  0  0  0  0  0
  -19.3380  -28.8410   23.2880 C   0  0  0  0  0  0  0  0  0  0  0  0
  -19.0890  -30.0800   23.9190 C   0  0  0  0  0  3  0  0  0  0  0  0
  -17.7720  -30.5440   24.1030 C   0  0  0  0  0  3  0  0  0  0  0  0
  -16.6860  -29.7690   23.6640 C   0  0  0  0  0  3  0  0  0  0  0  0
  -16.9180  -28.5320   23.0390 C   0  0  0  0  0  3  0  0  0  0  0  0
  -25.9930  -32.6120   23.9140 C   0  0  0  0  0  3  0  0  0  0  0  0
  -25.6380  -34.0110   24.2260 N   0  0  0  0  0  0  0  0  0  0  0  0
  -25.9670  -35.0770   23.4830 C   0  0  0  0  0  0  0  0  0  0  0  0
  -26.6570  -34.9840   22.4640 O   0  0  0  0  0  0  0  0  0  0  0  0
  -25.0240  -34.1520   25.0160 H   0  0  0  0  0  0  0  0  0  0  0  0
  -24.2100  -36.8480   23.1220 C   0  0  0  0  0  1  0  0  0  0  0  0
  -25.4540  -36.4600   23.9380 C   0  0  0  0  0  3  0  0  0  0  0  0
  -27.5590  -37.4020   24.7880 C   0  0  0  0  0  1  0  0  0  0  0  0
  -26.4680  -37.5330   23.8260 N   0  0  0  0  0  0  0  0  0  0  0  0
  -26.0420  -38.4460   23.9520 H   0  0  0  0  0  0  0  0  0  0  0  0
  -26.4630  -31.8730   25.2310 C   0  0  1  0  0  0  0  0  0  0  0  0
  -25.3230  -31.6370   26.2520 C   0  0  0  0  0  1  0  0  0  0  0  0
  -27.0860  -30.4970   24.9060 C   0  0  0  0  0  1  0  0  0  0  0  0
  -27.5660  -32.7010   25.9320 C   0  0  0  0  0  1  0  0  0  0  0  0
  1  2  1  0
  3  1  2  0
  4  2  2  0
  5  6  2  0
  5  3  1  0
  6  4  1  0
  7 16  1  0
  7  5  1  0
  8 16  1  0
  9 14  1  0
 10 11  1  0
 10  9  1  0
 12 11  1  0
 12 21  1  0
 12 13  1  0
 14  8  1  0
 14 13  1  0
 15  8  2  0
 16 17  1  0
 18 19  2  0
 19 38  1  0
 20 19  1  0
 20 23  1  0
 21 22  1  0
 21 18  1  0
 22 20  2  0
 23 24  1  0
 24 25  2  0
 26 29  1  0
 26 25  1  0
 27 26  2  0
 28 27  1  0
 28 23  2  0
 29 30  1  0
 30 31  1  0
 31 32  2  0
 33 32  1  0
 33 37  1  0
 34 33  2  0
 35 30  2  0
 35 34  1  0
 36 35  1  0
 38 39  1  0
 39 42  1  0
 39 41  1  0
 40 38  2  0
 43 44  1  0
 43 18  1  0
 45 43  1  0
 46 47  1  0
 46  6  1  0
 48 59  2  0
 49 47  1  0
 49 54  1  0
 50 58  1  0
 50 60  1  0
 51 57  1  0
 51 53  1  0
 52 58  1  0
 53 54  2  0
 53 52  1  0
 55 49  2  0
 56 55  1  0
 56 51  2  0
 57 50  1  0
 58 48  1  0
 60 62  2  0
 61 60  1  0
 63 61  1  0
 64 73  2  0
 64 69  1  0
 65 61  1  0
 65 69  1  0
 66 65  1  0
 67 68  1  0
 67 66  1  0
 68 64  1  0
 69 70  2  0
 70 71  1  0
 72 71  2  0
 73 72  1  0
 74 48  1  0
 74 75  1  0
 74 84  1  0
 75 78  1  0
 76 80  1  0
 76 75  1  0
 77 76  2  0
 80 79  1  0
 82 80  1  0
 82 83  1  0
 82 81  1  0
 84 87  1  1
 84 85  1  0
 86 84  1  0
M  ISO  4   8 100  16 100  46 101  47 101
M  END
>  <TORSDO>  (12) 
F 18

>  <SCORE>  (12) 
-15.900

>  <name>  (12) 
11

>  <ligand_id>  (12) 
11

>  <original_smiles>  (12) 
[H]c1c([H])c([H])c(C([H])([H])N([H])C(=O)N2C([H])([H])C([H])([H])C([H])([H])C([H])(n3nc(-c4c([H])c([H])c(Oc5c([H])c([H])c(F)c([H])c5F)c([H])c4[H])c(C(=O)N([H])[H])c3N([H])[H])C2([H])[H])c(C([H])([H])Oc2c([H])c([H])c3c(c2[H])C([H])([H])N(C(=O)C([H])(N([H])C(=O)C([H])(N([H])C([H])([H])[H])C([H])([H])[H])C(C([H])([H])[H])(C([H])([H])[H])C([H])([H])[H])C([H])(C(=O)N([H])C2([H])c4c([H])c([H])c([H])c([H])c4C([H])([H])C([H])([H])C2([H])[H])C3([H])[H])c1[H]

>  <smiles>  (12) 
[H]c1c([H])c([H])c(C([H])([H])N([H])C(=O)N2C([H])([H])C([H])([H])C([H])([H])C([H])(n3nc(-c4c([H])c([H])c(Oc5c([H])c([H])c(F)c([H])c5F)c([H])c4[H])c(C(=O)N([H])[H])c3N([H])[H])C2([H])[H])c(C([H])([H])Oc2c([H])c([H])c3c(c2[H])C([H])([H])N(C(=O)C([H])(N([H])C(=O)C([H])(N([H])C([H])([H])[H])C([H])([H])[H])C(C([H])([H])[H])(C([H])([H])[H])C([H])([H])[H])C([H])(C(=O)N([H])C2([H])c4c([H])c([H])c([H])c([H])c4C([H])([H])C([H])([H])C2([H])[H])C3([H])[H])c1[H]

$$$$
12:0:0
     RDKit          3D

 98108  0  0  1  0  0  0  0  0999 V2000
  -28.6690  -20.7540   20.4270 C   0  0  0  0  0  2  0  0  0  0  0  0
  -27.9290  -22.0780   20.6890 C   0  0  0  0  0  2  0  0  0  0  0  0
  -29.8160  -23.0040   21.7990 C   0  0  0  0  0  2  0  0  0  0  0  0
  -29.7670  -20.4460   21.4710 C   0  0  0  0  0  3  0  0  0  0  0  0
  -30.6670  -21.7170   21.5860 C   0  0  0  0  0  3  0  0  0  0  0  0
  -28.8740  -23.1990   20.6900 N   0  0  0  0  0  0  0  0  0  0  0  0
  -32.0570  -17.1800   21.0350 C   0  0  0  0  0  2  0  0  0  0  0  0
  -30.2830  -17.8460   22.5620 C   0  0  0  0  0  2  0  0  0  0  0  0
  -31.5560  -18.3330   21.8800 C   0  0  0  0  0  3  0  0  0  0  0  0
  -30.5560  -19.1570   21.0440 C   0  0  0  0  0  3  0  0  0  0  0  0
  -30.6790  -16.8370   20.4350 C   0  0  0  0  0  3  0  0  0  0  0  0
  -29.8520  -17.8530   21.1570 N   0  0  1  0  0  4  0  0  0  0  0  0
  -28.8590  -17.8540   20.9740 H   0  0  0  0  0  0  0  0  0  0  0  0
  -30.9120  -14.4360   19.8280 C   0  0  0  0  0  0  0  0  0  0  0  0
  -30.5090  -12.2570   18.7460 C   0  0  0  0  0  2  0  0  0  0  0  0
  -29.4560  -12.4200   17.6320 C   0  0  0  0  0  2  0  0  0  0  0  0
  -28.0290  -12.2900   18.2000 C   0  0  0  0  0  2  0  0  0  0  0  0
  -27.8060  -13.1660   19.4620 C   0  0  0  0  0  3  0  0  0  0  0  0
  -28.9590  -12.9730   20.4740 C   0  0  0  0  0  2  0  0  0  0  0  0
  -30.2310  -13.2590   19.7860 N   0  0  0  0  0  0  0  0  0  0  0  0
  -31.9330  -14.6480   19.1670 O   0  0  0  0  0  0  0  0  0  0  0  0
  -30.3330  -15.4090   20.5430 N   0  0  0  0  0  0  0  0  0  0  0  0
  -29.5100  -15.1560   21.0660 H   0  0  0  0  0  0  0  0  0  0  0  0
  -25.5170  -13.8020   20.4560 C   0  0  0  0  0  0  0  0  0  0  0  0
  -24.4720  -13.0410   20.9050 C   0  0  0  0  0  0  0  0  0  0  0  0
  -24.8820  -11.6810   20.7560 C   0  0  0  0  0  0  0  0  0  0  0  0
  -26.5020  -12.9060   20.0690 N   0  0  0  0  0  0  0  0  0  0  0  0
  -26.1270  -11.6220   20.3040 N   0  0  0  0  0  0  0  0  0  0  0  0
  -24.1400  -10.4310   20.9640 C   0  0  0  0  0  0  0  0  0  0  0  0
  -24.5990   -9.4410   21.8600 C   0  0  0  0  0  3  0  0  0  0  0  0
  -23.8600   -8.2540   22.0550 C   0  0  0  0  0  3  0  0  0  0  0  0
  -22.6470   -8.0500   21.3550 C   0  0  0  0  0  0  0  0  0  0  0  0
  -22.2070   -9.0290   20.4470 C   0  0  0  0  0  3  0  0  0  0  0  0
  -22.9460  -10.2070   20.2490 C   0  0  0  0  0  3  0  0  0  0  0  0
  -21.8760   -6.9180   21.4610 O   0  0  0  0  0  0  0  0  0  0  0  0
  -21.8040   -6.2040   22.6310 C   0  0  0  0  0  0  0  0  0  0  0  0
  -21.3670   -6.7930   23.8370 C   0  0  0  0  0  3  0  0  0  0  0  0
  -21.2420   -6.0050   25.0000 C   0  0  0  0  0  3  0  0  0  0  0  0
  -21.5440   -4.6310   24.9560 C   0  0  0  0  0  0  0  0  0  0  0  0
  -21.9740   -4.0430   23.7540 C   0  0  0  0  0  3  0  0  0  0  0  0
  -22.1000   -4.8270   22.5930 C   0  0  0  0  0  0  0  0  0  0  0  0
  -22.4950   -4.2500   21.4330 F   0  0  0  0  0  0  0  0  0  0  0  0
  -21.4160   -3.8730   26.0700 F   0  0  0  0  0  0  0  0  0  0  0  0
  -23.1280  -13.5420   21.3530 C   0  0  0  0  0  0  0  0  0  0  0  0
  -22.4830  -12.8280   22.2670 N   0  0  0  0  0  0  0  0  0  0  0  0
  -22.6660  -14.6000   20.9290 O   0  0  0  0  0  0  0  0  0  0  0  0
  -22.8710  -11.9700   22.6310 H   0  0  0  0  0  0  0  0  0  0  0  0
  -21.5840  -13.1410   22.6060 H   0  0  0  0  0  0  0  0  0  0  0  0
  -25.7060  -15.1760   20.3250 N   0  0  0  0  0  0  0  0  0  0  0  0
  -24.9540  -15.8310   20.5100 H   0  0  0  0  0  0  0  0  0  0  0  0
  -26.4820  -15.5930   19.8270 H   0  0  0  0  0  0  0  0  0  0  0  0
  -31.6770  -21.6030   22.6550 N   0  0  0  0  0  4  0  0  0  0  0  0
  -31.2540  -21.4610   23.5550 H   0  0  0  0  0  0  0  0  0  0  0  0
  -32.2200  -22.4490   22.6960 H   0  0  0  0  0  0  0  0  0  0  0  0
  -32.3190  -20.8540   22.4750 H   0  0  0  0  0  0  0  0  0  0  0  0
  -28.1040  -24.4550   20.7590 C   0  0  0  0  0  2  0  0  0  0  0  0
  -28.9600  -25.7350   20.9400 C   0  0  0  0  0  2  0  0  0  0  0  0
  -28.6760  -26.7740   20.0000 O   0  0  0  0  0  0  0  0  0  0  0  0
  -24.7200  -31.7870   23.1980 C   0  0  0  0  0  0  0  0  0  0  0  0
  -27.4760  -27.4350   20.1080 C   0  0  0  0  0  0  0  0  0  0  0  0
  -23.5570  -30.3880   21.5200 C   0  0  0  0  0  3  0  0  0  0  0  0
  -25.0540  -28.8860   20.1070 C   0  0  0  0  0  0  0  0  0  0  0  0
  -26.0780  -30.7910   21.3610 C   0  0  0  0  0  2  0  0  0  0  0  0
  -26.1940  -29.4260   20.7180 C   0  0  0  0  0  0  0  0  0  0  0  0
  -27.4090  -28.7060   20.7190 C   0  0  0  0  0  3  0  0  0  0  0  0
  -26.3240  -26.9030   19.4950 C   0  0  0  0  0  3  0  0  0  0  0  0
  -25.1130  -27.6210   19.4960 C   0  0  0  0  0  3  0  0  0  0  0  0
  -23.7970  -29.7250   20.1370 C   0  0  0  0  0  2  0  0  0  0  0  0
  -24.8020  -31.0040   22.0850 N   0  0  0  0  0  0  0  0  0  0  0  0
  -23.6280  -32.0350   23.7270 O   0  0  0  0  0  0  0  0  0  0  0  0
  -22.9100  -29.3450   22.4590 C   0  0  0  0  0  0  0  0  0  0  0  0
  -21.5900  -29.1450   22.3130 N   0  0  0  0  0  0  0  0  0  0  0  0
  -23.5930  -28.7170   23.2730 O   0  0  0  0  0  0  0  0  0  0  0  0
  -21.1000  -29.7040   21.6280 H   0  0  0  0  0  0  0  0  0  0  0  0
  -18.2300  -27.8950   22.7380 C   0  0  0  0  0  0  0  0  0  0  0  0
  -20.7770  -28.1860   23.0590 C   0  0  0  0  0  3  0  0  0  0  0  0
  -20.9120  -26.7640   22.4670 C   0  0  0  0  0  2  0  0  0  0  0  0
  -19.8340  -26.4380   21.4290 C   0  0  0  0  0  2  0  0  0  0  0  0
  -18.4380  -26.5570   22.0480 C   0  0  0  0  0  2  0  0  0  0  0  0
  -19.3280  -28.6670   23.1980 C   0  0  0  0  0  0  0  0  0  0  0  0
  -19.0820  -29.9200   23.7990 C   0  0  0  0  0  3  0  0  0  0  0  0
  -17.7680  -30.4010   23.9480 C   0  0  0  0  0  3  0  0  0  0  0  0
  -16.6820  -29.6240   23.5070 C   0  0  0  0  0  3  0  0  0  0  0  0
  -16.9140  -28.3730   22.9080 C   0  0  0  0  0  3  0  0  0  0  0  0
  -25.9890  -32.4290   23.8420 C   0  0  0  0  0  3  0  0  0  0  0  0
  -26.5120  -31.6390   25.1040 C   0  0  1  0  0  0  0  0  0  0  0  0
  -25.4170  -31.3600   26.1580 C   0  0  0  0  0  1  0  0  0  0  0  0
  -27.1230  -30.2820   24.6840 C   0  0  0  0  0  1  0  0  0  0  0  0
  -27.6430  -32.4410   25.7910 C   0  0  0  0  0  1  0  0  0  0  0  0
  -25.6520  -33.8130   24.1970 N   0  0  0  0  0  0  0  0  0  0  0  0
  -25.9640  -34.8850   23.4560 C   0  0  0  0  0  0  0  0  0  0  0  0
  -26.6370  -34.8140   22.4230 O   0  0  0  0  0  0  0  0  0  0  0  0
  -25.0570  -33.9430   25.0020 H   0  0  0  0  0  0  0  0  0  0  0  0
  -24.1950  -36.6410   23.1360 C   0  0  0  0  0  1  0  0  0  0  0  0
  -25.4470  -36.2530   23.9360 C   0  0  0  0  0  3  0  0  0  0  0  0
  -27.5620  -37.1750   24.7760 C   0  0  0  0  0  1  0  0  0  0  0  0
  -26.4550  -37.3310   23.8370 N   0  0  0  0  0  0  0  0  0  0  0  0
  -26.0280  -38.2400   24.0000 H   0  0  0  0  0  0  0  0  0  0  0  0
  1  2  1  0
  2  6  1  0
  4  1  1  0
  4  5  1  0
  5  3  1  0
  5 52  1  0
  6 56  1  0
  6  3  1  0
  9  7  1  0
  9  8  1  0
 10 12  1  0
 10  4  1  0
 10  9  1  0
 11 22  1  0
 11  7  1  0
 11 12  1  0
 12 13  1  1
 12  8  1  0
 14 22  1  0
 15 20  1  0
 16 17  1  0
 16 15  1  0
 18 17  1  0
 18 27  1  0
 18 19  1  0
 20 14  1  0
 20 19  1  0
 21 14  2  0
 22 23  1  0
 24 25  2  0
 25 44  1  0
 26 25  1  0
 26 29  1  0
 27 28  1  0
 27 24  1  0
 28 26  2  0
 29 30  1  0
 30 31  2  0
 32 35  1  0
 32 31  1  0
 33 32  2  0
 34 33  1  0
 34 29  2  0
 35 36  1  0
 36 37  1  0
 37 38  2  0
 39 38  1  0
 39 43  1  0
 40 39  2  0
 41 36  2  0
 41 40  1  0
 42 41  1  0
 44 45  1  0
 45 48  1  0
 45 47  1  0
 46 44  2  0
 49 24  1  0
 49 50  1  0
 51 49  1  0
 52 54  1  0
 52 53  1  0
 55 52  1  0
 56 57  1  0
 58 60  1  0
 58 57  1  0
 59 70  2  0
 60 65  1  0
 61 69  1  0
 61 71  1  0
 62 68  1  0
 62 64  1  0
 63 69  1  0
 64 65  2  0
 64 63  1  0
 66 67  1  0
 66 60  2  0
 67 62  2  0
 68 61  1  0
 69 59  1  0
 71 73  2  0
 72 71  1  0
 74 72  1  0
 75 84  2  0
 75 80  1  0
 76 72  1  0
 76 80  1  0
 77 76  1  0
 78 79  1  0
 78 77  1  0
 79 75  1  0
 80 81  2  0
 81 82  1  0
 83 82  2  0
 84 83  1  0
 85 59  1  0
 85 90  1  0
 85 86  1  0
 86 89  1  1
 86 87  1  0
 88 86  1  0
 90 93  1  0
 91 95  1  0
 91 90  1  0
 92 91  2  0
 95 94  1  0
 97 95  1  0
 97 98  1  0
 97 96  1  0
M  ISO  4  14 100  22 100  57 101  58 101
M  END
>  <TORSDO>  (13) 
F 20

>  <SCORE>  (13) 
-13.534

>  <name>  (13) 
12

>  <ligand_id>  (13) 
12

>  <original_smiles>  (13) 
[H]c1c([H])c([H])c2c(c1[H])C([H])([H])C([H])([H])C([H])([H])C2([H])N([H])C(=O)C1([H])N(C(=O)C([H])(N([H])C(=O)C([H])(N([H])C([H])([H])[H])C([H])([H])[H])C(C([H])([H])[H])(C([H])([H])[H])C([H])([H])[H])C([H])([H])c2c([H])c(OC([H])([H])C([H])([H])N3C([H])([H])C([H])([H])C([H])(C4([H])C5([H])C([H])([H])C([H])(N([H])C(=O)N6C([H])([H])C([H])([H])C([H])([H])C([H])(n7nc(-c8c([H])c([H])c(Oc9c([H])c([H])c(F)c([H])c9F)c([H])c8[H])c(C(=O)N([H])[H])c7N([H])[H])C6([H])[H])[N+]4([H])C5([H])[H])C([H])([N+]([H])([H])[H])C3([H])[H])c([H])c([H])c2C1([H])[H]

>  <smiles>  (13) 
[H]c1c([H])c([H])c2c(c1[H])C([H])([H])C([H])([H])C([H])([H])C2([H])N([H])C(=O)C1([H])N(C(=O)C([H])(N([H])C(=O)C([H])(N([H])C([H])([H])[H])C([H])([H])[H])C(C([H])([H])[H])(C([H])([H])[H])C([H])([H])[H])C([H])([H])c2c([H])c(OC([H])([H])C([H])([H])N3C([H])([H])C([H])([H])C([H])(C4([H])C5([H])C([H])([H])C([H])(N([H])C(=O)N6C([H])([H])C([H])([H])C([H])([H])C([H])(n7nc(-c8c([H])c([H])c(Oc9c([H])c([H])c(F)c([H])c9F)c([H])c8[H])c(C(=O)N([H])[H])c7N([H])[H])C6([H])[H])[N+]4([H])C5([H])[H])C([H])([N+]([H])([H])[H])C3([H])[H])c([H])c([H])c2C1([H])[H]

$$$$
13:0:0
     RDKit          3D

 92101  0  0  1  0  0  0  0  0999 V2000
  -28.5060  -18.5370   20.7690 C   0  0  0  0  0  2  0  0  0  0  0  0
  -30.5120  -19.8790   20.4790 C   0  0  0  0  0  2  0  0  0  0  0  0
  -27.7240  -21.0120   20.0620 C   0  0  0  0  0  2  0  0  0  0  0  0
  -28.1920  -20.0090   21.1270 C   0  0  0  0  0  3  0  0  0  0  0  0
  -30.0490  -18.4020   20.7830 C   0  0  0  0  0  3  0  0  0  0  0  0
  -29.4810  -20.8010   21.1550 C   0  0  0  0  0  3  0  0  0  0  0  0
  -28.7990  -21.9340   20.4520 N   0  0  1  0  0  4  0  0  0  0  0  0
  -28.4110  -22.5630   21.1390 H   0  0  0  0  0  0  0  0  0  0  0  0
  -32.2190  -17.5320   19.8340 C   0  0  0  0  0  1  0  0  0  0  0  0
  -30.6980  -17.2480   19.9090 C   0  0  0  0  0  3  0  0  0  0  0  0
  -31.0150  -14.6740   19.9400 C   0  0  0  0  0  0  0  0  0  0  0  0
  -30.6340  -12.4190   18.9840 C   0  0  0  0  0  2  0  0  0  0  0  0
  -29.6820  -12.5820   17.7800 C   0  0  0  0  0  2  0  0  0  0  0  0
  -28.2210  -12.4640   18.2490 C   0  0  0  0  0  2  0  0  0  0  0  0
  -27.9210  -13.3650   19.4790 C   0  0  0  0  0  3  0  0  0  0  0  0
  -29.0110  -13.2410   20.5700 C   0  0  0  0  0  2  0  0  0  0  0  0
  -30.3100  -13.4970   19.9430 N   0  0  0  0  0  0  0  0  0  0  0  0
  -32.1360  -14.7060   19.4400 O   0  0  0  0  0  0  0  0  0  0  0  0
  -30.3770  -15.8260   20.3220 N   0  0  0  0  0  0  0  0  0  0  0  0
  -29.4830  -15.6950   20.7740 H   0  0  0  0  0  0  0  0  0  0  0  0
  -25.5780  -14.0200   20.3010 C   0  0  0  0  0  0  0  0  0  0  0  0
  -24.5070  -13.2680   20.7140 C   0  0  0  0  0  0  0  0  0  0  0  0
  -24.9330  -11.9070   20.6440 C   0  0  0  0  0  0  0  0  0  0  0  0
  -26.5860  -13.1130   20.0130 N   0  0  0  0  0  0  0  0  0  0  0  0
  -26.2050  -11.8360   20.2710 N   0  0  0  0  0  0  0  0  0  0  0  0
  -24.1800  -10.6630   20.8480 C   0  0  0  0  0  0  0  0  0  0  0  0
  -24.6080   -9.6830   21.7710 C   0  0  0  0  0  3  0  0  0  0  0  0
  -23.8580   -8.5040   21.9630 C   0  0  0  0  0  3  0  0  0  0  0  0
  -22.6630   -8.2950   21.2330 C   0  0  0  0  0  0  0  0  0  0  0  0
  -22.2540   -9.2610   20.2960 C   0  0  0  0  0  3  0  0  0  0  0  0
  -23.0070  -10.4330   20.1030 C   0  0  0  0  0  3  0  0  0  0  0  0
  -21.8870   -7.1660   21.3320 O   0  0  0  0  0  0  0  0  0  0  0  0
  -21.8290   -6.4310   22.4910 C   0  0  0  0  0  0  0  0  0  0  0  0
  -21.4040   -6.9970   23.7120 C   0  0  0  0  0  3  0  0  0  0  0  0
  -21.2960   -6.1890   24.8630 C   0  0  0  0  0  3  0  0  0  0  0  0
  -21.6040   -4.8180   24.7920 C   0  0  0  0  0  0  0  0  0  0  0  0
  -22.0190   -4.2520   23.5750 C   0  0  0  0  0  3  0  0  0  0  0  0
  -22.1300   -5.0570   22.4270 C   0  0  0  0  0  0  0  0  0  0  0  0
  -22.5120   -4.5010   21.2520 F   0  0  0  0  0  0  0  0  0  0  0  0
  -21.4920   -4.0380   25.8950 F   0  0  0  0  0  0  0  0  0  0  0  0
  -23.1380  -13.7810   21.0580 C   0  0  0  0  0  0  0  0  0  0  0  0
  -22.4380  -13.0950   21.9560 N   0  0  0  0  0  0  0  0  0  0  0  0
  -22.6990  -14.8210   20.5720 O   0  0  0  0  0  0  0  0  0  0  0  0
  -22.8010  -12.2490   22.3680 H   0  0  0  0  0  0  0  0  0  0  0  0
  -21.5230  -13.4180   22.2340 H   0  0  0  0  0  0  0  0  0  0  0  0
  -25.7690  -15.3890   20.1300 N   0  0  0  0  0  0  0  0  0  0  0  0
  -25.0180  -16.0610   20.2510 H   0  0  0  0  0  0  0  0  0  0  0  0
  -26.6150  -15.8090   19.7590 H   0  0  0  0  0  0  0  0  0  0  0  0
  -29.4480  -22.7380   19.3570 C   0  0  0  0  0  2  0  0  0  0  0  0
  -29.5880  -24.2950   19.6010 C   0  0  0  0  0  3  0  0  0  0  0  0
  -28.2880  -25.1610   19.5650 C   0  0  0  0  0  3  0  0  0  0  0  0
  -28.4820  -26.6160   19.4960 O   0  0  0  0  0  0  0  0  0  0  0  0
  -24.5770  -31.5090   23.0030 C   0  0  0  0  0  0  0  0  0  0  0  0
  -27.3250  -27.3890   19.5250 C   0  0  0  0  0  0  0  0  0  0  0  0
  -23.4010  -30.1920   21.2810 C   0  0  0  0  0  3  0  0  0  0  0  0
  -24.8890  -28.8490   19.7000 C   0  0  0  0  0  0  0  0  0  0  0  0
  -25.9130  -30.6610   21.0680 C   0  0  0  0  0  2  0  0  0  0  0  0
  -26.0460  -29.3470   20.3160 C   0  0  0  0  0  0  0  0  0  0  0  0
  -27.2660  -28.6250   20.2250 C   0  0  0  0  0  3  0  0  0  0  0  0
  -26.1500  -26.9470   18.8710 C   0  0  0  0  0  3  0  0  0  0  0  0
  -24.9400  -27.6570   18.9670 C   0  0  0  0  0  3  0  0  0  0  0  0
  -23.6140  -29.6500   19.8450 C   0  0  0  0  0  2  0  0  0  0  0  0
  -24.6520  -30.7980   21.8430 N   0  0  0  0  0  0  0  0  0  0  0  0
  -23.4910  -31.6880   23.5740 O   0  0  0  0  0  0  0  0  0  0  0  0
  -22.8160  -29.0610   22.1550 C   0  0  0  0  0  0  0  0  0  0  0  0
  -21.5020  -28.8170   22.0280 N   0  0  0  0  0  0  0  0  0  0  0  0
  -23.5400  -28.4110   22.9140 O   0  0  0  0  0  0  0  0  0  0  0  0
  -20.9710  -29.3910   21.3870 H   0  0  0  0  0  0  0  0  0  0  0  0
  -18.2110  -27.3950   22.4560 C   0  0  0  0  0  0  0  0  0  0  0  0
  -20.7500  -27.7810   22.7370 C   0  0  0  0  0  3  0  0  0  0  0  0
  -20.9310  -26.4000   22.0680 C   0  0  0  0  0  2  0  0  0  0  0  0
  -19.8470  -26.0870   21.0330 C   0  0  0  0  0  2  0  0  0  0  0  0
  -18.4610  -26.1120   21.6820 C   0  0  0  0  0  2  0  0  0  0  0  0
  -19.2860  -28.1890   22.9360 C   0  0  0  0  0  0  0  0  0  0  0  0
  -18.9960  -29.3960   23.6100 C   0  0  0  0  0  3  0  0  0  0  0  0
  -17.6660  -29.8100   23.8080 C   0  0  0  0  0  3  0  0  0  0  0  0
  -16.6050  -29.0140   23.3420 C   0  0  0  0  0  3  0  0  0  0  0  0
  -16.8790  -27.8110   22.6700 C   0  0  0  0  0  3  0  0  0  0  0  0
  -25.8410  -32.1520   23.6490 C   0  0  0  0  0  3  0  0  0  0  0  0
  -26.3880  -31.3340   24.8820 C   0  0  1  0  0  0  0  0  0  0  0  0
  -25.3130  -31.0140   25.9470 C   0  0  0  0  0  1  0  0  0  0  0  0
  -27.0030  -29.9960   24.4120 C   0  0  0  0  0  1  0  0  0  0  0  0
  -27.5190  -32.1280   25.5760 C   0  0  0  0  0  1  0  0  0  0  0  0
  -25.4840  -33.5210   24.0470 N   0  0  0  0  0  0  0  0  0  0  0  0
  -25.7860  -34.6190   23.3430 C   0  0  0  0  0  0  0  0  0  0  0  0
  -26.4590  -34.5880   22.3080 O   0  0  0  0  0  0  0  0  0  0  0  0
  -24.8800  -33.6160   24.8510 H   0  0  0  0  0  0  0  0  0  0  0  0
  -24.0030  -36.3760   23.0740 C   0  0  0  0  0  1  0  0  0  0  0  0
  -25.2550  -35.9670   23.8680 C   0  0  0  0  0  3  0  0  0  0  0  0
  -27.3560  -36.8840   24.7520 C   0  0  0  0  0  1  0  0  0  0  0  0
  -26.2550  -37.0560   23.8090 N   0  0  0  0  0  0  0  0  0  0  0  0
  -25.8180  -37.9550   23.9930 H   0  0  0  0  0  0  0  0  0  0  0  0
  1  5  1  0
  1  4  1  0
  2  5  1  0
  3  7  1  0
  4  3  1  0
  4  6  1  0
  5 10  1  0
  6  2  1  0
  7  8  1  1
  7  6  1  0
 10  9  1  0
 10 19  1  0
 11 17  1  0
 11 19  1  0
 12 17  1  0
 13 14  1  0
 13 12  1  0
 15 14  1  0
 15 24  1  0
 15 16  1  0
 17 16  1  0
 18 11  2  0
 19 20  1  0
 21 22  2  0
 22 41  1  0
 23 22  1  0
 23 26  1  0
 24 25  1  0
 24 21  1  0
 25 23  2  0
 26 27  1  0
 27 28  2  0
 29 32  1  0
 29 28  1  0
 30 29  2  0
 31 30  1  0
 31 26  2  0
 32 33  1  0
 33 34  1  0
 34 35  2  0
 36 35  1  0
 36 40  1  0
 37 36  2  0
 38 33  2  0
 38 37  1  0
 39 38  1  0
 41 42  1  0
 42 45  1  0
 42 44  1  0
 43 41  2  0
 46 47  1  0
 46 21  1  0
 48 46  1  0
 49 50  1  0
 49  7  1  0
 51 50  2  0
 52 54  1  0
 52 51  1  0
 53 64  2  0
 54 59  1  0
 55 63  1  0
 55 65  1  0
 56 62  1  0
 56 58  1  0
 57 63  1  0
 58 57  1  0
 59 58  2  0
 60 61  1  0
 60 54  2  0
 61 56  2  0
 62 55  1  0
 63 53  1  0
 65 67  2  0
 66 65  1  0
 68 66  1  0
 69 78  2  0
 69 74  1  0
 70 66  1  0
 70 74  1  0
 71 70  1  0
 72 73  1  0
 72 71  1  0
 73 69  1  0
 74 75  2  0
 75 76  1  0
 77 76  2  0
 78 77  1  0
 79 53  1  0
 79 84  1  0
 79 80  1  0
 80 83  1  1
 80 81  1  0
 82 80  1  0
 84 87  1  0
 85 89  1  0
 85 84  1  0
 86 85  2  0
 89 88  1  0
 91 89  1  0
 91 92  1  0
 91 90  1  0
M  ISO  4  11 100  19 100  51 101  52 101
M  END
>  <TORSDO>  (14) 
F 20

>  <SCORE>  (14) 
-12.100

>  <name>  (14) 
13

>  <ligand_id>  (14) 
13

>  <original_smiles>  (14) 
[H]c1c([H])c([H])c2c(c1[H])C([H])([H])C([H])([H])C([H])([H])C2([H])N([H])C(=O)C1([H])N(C(=O)C([H])(N([H])C(=O)C([H])(N([H])C([H])([H])[H])C([H])([H])[H])C(C([H])([H])[H])(C([H])([H])[H])C([H])([H])[H])C([H])([H])c2c([H])c(OC([H])([H])C([H])([H])C([H])([H])[N+]3([H])C([H])([H])C4([H])C([H])([H])C([H])(C([H])(N([H])C(=O)N5C([H])([H])C([H])([H])C([H])([H])C([H])(n6nc(-c7c([H])c([H])c(Oc8c([H])c([H])c(F)c([H])c8F)c([H])c7[H])c(C(=O)N([H])[H])c6N([H])[H])C5([H])[H])C([H])([H])[H])C([H])([H])C43[H])c([H])c([H])c2C1([H])[H]

>  <smiles>  (14) 
[H]c1c([H])c([H])c2c(c1[H])C([H])([H])C([H])([H])C([H])([H])C2([H])N([H])C(=O)C1([H])N(C(=O)C([H])(N([H])C(=O)C([H])(N([H])C([H])([H])[H])C([H])([H])[H])C(C([H])([H])[H])(C([H])([H])[H])C([H])([H])[H])C([H])([H])c2c([H])c(OC([H])([H])C([H])([H])C([H])([H])[N+]3([H])C([H])([H])C4([H])C([H])([H])C([H])(C([H])(N([H])C(=O)N5C([H])([H])C([H])([H])C([H])([H])C([H])(n6nc(-c7c([H])c([H])c(Oc8c([H])c([H])c(F)c([H])c8F)c([H])c7[H])c(C(=O)N([H])[H])c6N([H])[H])C5([H])[H])C([H])([H])[H])C([H])([H])C43[H])c([H])c([H])c2C1([H])[H]

$$$$
14:0:0
     RDKit          3D

 93101  0  0  1  0  0  0  0  0999 V2000
  -30.8140  -23.6920   19.3530 C   0  0  0  0  0  2  0  0  0  0  0  0
  -29.9010  -24.6250   18.5600 C   0  0  0  0  0  2  0  0  0  0  0  0
  -28.4850  -22.9650   19.5930 C   0  0  0  0  0  2  0  0  0  0  0  0
  -29.9460  -22.4560   19.6320 C   0  0  0  0  0  3  0  0  0  0  0  0
  -28.5280  -24.4570   19.2160 C   0  0  0  0  0  3  0  0  0  0  0  0
  -30.3400  -21.7470   20.9490 C   0  0  0  0  0  2  0  0  0  0  0  0
  -29.6230  -20.4680   21.1740 N   0  0  0  0  0  4  0  0  0  0  0  0
  -28.6310  -20.6270   21.1090 H   0  0  0  0  0  0  0  0  0  0  0  0
  -29.8170  -20.1910   22.1230 H   0  0  0  0  0  0  0  0  0  0  0  0
  -30.0170  -19.3550   20.2780 C   0  0  0  0  0  2  0  0  0  0  0  0
  -27.9970  -17.7870   20.3950 C   0  0  0  0  0  1  0  0  0  0  0  0
  -29.4850  -17.9720   20.7450 C   0  0  0  0  0  3  0  0  0  0  0  0
  -30.3580  -16.8410   20.1560 C   0  0  0  0  0  2  0  0  0  0  0  0
  -30.6700  -14.4070   20.2570 C   0  0  0  0  0  0  0  0  0  0  0  0
  -30.3020  -12.2600   19.1560 C   0  0  0  0  0  2  0  0  0  0  0  0
  -29.3450  -12.5020   17.9690 C   0  0  0  0  0  2  0  0  0  0  0  0
  -27.8790  -12.3810   18.4290 C   0  0  0  0  0  2  0  0  0  0  0  0
  -27.5740  -13.2170   19.7010 C   0  0  0  0  0  3  0  0  0  0  0  0
  -28.6540  -12.9960   20.7880 C   0  0  0  0  0  2  0  0  0  0  0  0
  -29.9710  -13.2510   20.1850 N   0  0  0  0  0  0  0  0  0  0  0  0
  -31.8170  -14.5390   19.8260 O   0  0  0  0  0  0  0  0  0  0  0  0
  -29.9440  -15.4920   20.5620 N   0  0  0  0  0  0  0  0  0  0  0  0
  -28.9890  -15.3460   20.8510 H   0  0  0  0  0  0  0  0  0  0  0  0
  -25.1910  -13.8300   20.4460 C   0  0  0  0  0  0  0  0  0  0  0  0
  -24.1300  -13.0610   20.8380 C   0  0  0  0  0  0  0  0  0  0  0  0
  -24.5890  -11.7090   20.8070 C   0  0  0  0  0  0  0  0  0  0  0  0
  -26.2330  -12.9470   20.2080 N   0  0  0  0  0  0  0  0  0  0  0  0
  -25.8750  -11.6670   20.4840 N   0  0  0  0  0  0  0  0  0  0  0  0
  -23.8670  -10.4470   21.0160 C   0  0  0  0  0  0  0  0  0  0  0  0
  -24.3250   -9.4770   21.9340 C   0  0  0  0  0  3  0  0  0  0  0  0
  -23.6020   -8.2800   22.1300 C   0  0  0  0  0  3  0  0  0  0  0  0
  -22.4070   -8.0490   21.4100 C   0  0  0  0  0  0  0  0  0  0  0  0
  -21.9690   -9.0070   20.4800 C   0  0  0  0  0  3  0  0  0  0  0  0
  -22.6910  -10.1950   20.2820 C   0  0  0  0  0  3  0  0  0  0  0  0
  -21.6530   -6.9030   21.5140 O   0  0  0  0  0  0  0  0  0  0  0  0
  -21.6530   -6.1460   22.6560 C   0  0  0  0  0  0  0  0  0  0  0  0
  -21.3050   -6.6910   23.9120 C   0  0  0  0  0  3  0  0  0  0  0  0
  -21.2530   -5.8610   25.0500 C   0  0  0  0  0  3  0  0  0  0  0  0
  -21.5340   -4.4860   24.9330 C   0  0  0  0  0  0  0  0  0  0  0  0
  -21.8750   -3.9410   23.6830 C   0  0  0  0  0  3  0  0  0  0  0  0
  -21.9310   -4.7690   22.5490 C   0  0  0  0  0  0  0  0  0  0  0  0
  -22.2400   -4.2350   21.3430 F   0  0  0  0  0  0  0  0  0  0  0  0
  -21.4780   -3.6870   26.0240 F   0  0  0  0  0  0  0  0  0  0  0  0
  -22.7350  -13.5390   21.1290 C   0  0  0  0  0  0  0  0  0  0  0  0
  -22.0250  -12.8490   22.0120 N   0  0  0  0  0  0  0  0  0  0  0  0
  -22.2880  -14.5600   20.6050 O   0  0  0  0  0  0  0  0  0  0  0  0
  -22.4060  -12.0230   22.4500 H   0  0  0  0  0  0  0  0  0  0  0  0
  -21.0940  -13.1510   22.2590 H   0  0  0  0  0  0  0  0  0  0  0  0
  -25.3520  -15.1970   20.2500 N   0  0  0  0  0  0  0  0  0  0  0  0
  -24.5790  -15.8430   20.3580 H   0  0  0  0  0  0  0  0  0  0  0  0
  -26.1770  -15.6250   19.8510 H   0  0  0  0  0  0  0  0  0  0  0  0
  -28.3490  -25.3680   20.4490 C   0  0  0  0  0  2  0  0  0  0  0  0
  -28.4110  -26.7530   20.1110 O   0  0  0  0  0  0  0  0  0  0  0  0
  -24.6000  -31.8650   23.2220 C   0  0  0  0  0  0  0  0  0  0  0  0
  -27.2230  -27.4430   20.1250 C   0  0  0  0  0  0  0  0  0  0  0  0
  -23.3820  -30.4650   21.5870 C   0  0  0  0  0  3  0  0  0  0  0  0
  -24.8220  -28.9270   20.1560 C   0  0  0  0  0  0  0  0  0  0  0  0
  -25.9030  -30.8320   21.3660 C   0  0  0  0  0  2  0  0  0  0  0  0
  -25.9830  -29.4640   20.7250 C   0  0  0  0  0  0  0  0  0  0  0  0
  -27.1900  -28.7320   20.6980 C   0  0  0  0  0  3  0  0  0  0  0  0
  -26.0430  -26.9100   19.5630 C   0  0  0  0  0  3  0  0  0  0  0  0
  -24.8450  -27.6490   19.5710 C   0  0  0  0  0  3  0  0  0  0  0  0
  -23.5780  -29.7840   20.2060 C   0  0  0  0  0  2  0  0  0  0  0  0
  -24.6470  -31.0680   22.1170 N   0  0  0  0  0  0  0  0  0  0  0  0
  -23.5210  -32.1380   23.7680 O   0  0  0  0  0  0  0  0  0  0  0  0
  -22.7360  -29.4440   22.5510 C   0  0  0  0  0  0  0  0  0  0  0  0
  -21.4100  -29.2670   22.4300 N   0  0  0  0  0  0  0  0  0  0  0  0
  -23.4230  -28.8150   23.3600 O   0  0  0  0  0  0  0  0  0  0  0  0
  -20.9170  -29.8230   21.7460 H   0  0  0  0  0  0  0  0  0  0  0  0
  -18.0370  -28.0820   22.9400 C   0  0  0  0  0  0  0  0  0  0  0  0
  -20.5960  -28.3310   23.2040 C   0  0  0  0  0  3  0  0  0  0  0  0
  -20.6930  -26.9010   22.6250 C   0  0  0  0  0  2  0  0  0  0  0  0
  -19.5860  -26.5820   21.6160 C   0  0  0  0  0  2  0  0  0  0  0  0
  -18.2070  -26.7310   22.2650 C   0  0  0  0  0  2  0  0  0  0  0  0
  -19.1600  -28.8390   23.3680 C   0  0  0  0  0  0  0  0  0  0  0  0
  -18.9470  -30.1040   23.9580 C   0  0  0  0  0  3  0  0  0  0  0  0
  -17.6450  -30.6110   24.1280 C   0  0  0  0  0  3  0  0  0  0  0  0
  -16.5370  -29.8490   23.7180 C   0  0  0  0  0  3  0  0  0  0  0  0
  -16.7340  -28.5860   23.1310 C   0  0  0  0  0  3  0  0  0  0  0  0
  -25.8910  -32.4920   23.8340 C   0  0  0  0  0  3  0  0  0  0  0  0
  -25.5850  -33.8880   24.1760 N   0  0  0  0  0  0  0  0  0  0  0  0
  -25.9120  -34.9440   23.4200 C   0  0  0  0  0  0  0  0  0  0  0  0
  -26.5740  -34.8450   22.3820 O   0  0  0  0  0  0  0  0  0  0  0  0
  -24.9950  -34.0400   24.9810 H   0  0  0  0  0  0  0  0  0  0  0  0
  -24.1750  -36.7330   23.0910 C   0  0  0  0  0  1  0  0  0  0  0  0
  -25.4270  -36.3300   23.8870 C   0  0  0  0  0  3  0  0  0  0  0  0
  -27.5720  -37.2140   24.6910 C   0  0  0  0  0  1  0  0  0  0  0  0
  -26.4560  -37.3850   23.7650 N   0  0  0  0  0  0  0  0  0  0  0  0
  -26.0510  -38.3040   23.9210 H   0  0  0  0  0  0  0  0  0  0  0  0
  -26.4230  -31.7110   25.0980 C   0  0  1  0  0  0  0  0  0  0  0  0
  -25.3410  -31.4650   26.1770 C   0  0  0  0  0  1  0  0  0  0  0  0
  -27.0000  -30.3360   24.6860 C   0  0  0  0  0  1  0  0  0  0  0  0
  -27.5820  -32.5000   25.7530 C   0  0  0  0  0  1  0  0  0  0  0  0
  1  4  1  0
  2  5  1  0
  2  1  1  0
  3  4  1  0
  4  6  1  0
  5  3  1  0
  5 52  1  0
  6  7  1  0
  7  9  1  0
  8  7  1  0
 10 12  1  0
 10  7  1  0
 12 11  1  0
 13 22  1  0
 13 12  1  0
 14 22  1  0
 15 20  1  0
 16 17  1  0
 16 15  1  0
 18 17  1  0
 18 27  1  0
 18 19  1  0
 20 14  1  0
 20 19  1  0
 21 14  2  0
 22 23  1  0
 24 25  2  0
 25 44  1  0
 26 25  1  0
 26 29  1  0
 27 24  1  0
 27 28  1  0
 28 26  2  0
 29 30  1  0
 30 31  2  0
 32 35  1  0
 32 31  1  0
 33 32  2  0
 34 33  1  0
 34 29  2  0
 35 36  1  0
 36 37  1  0
 37 38  2  0
 39 38  1  0
 39 43  1  0
 40 39  2  0
 41 36  2  0
 41 40  1  0
 42 41  1  0
 44 45  1  0
 45 48  1  0
 45 47  1  0
 46 44  2  0
 49 50  1  0
 49 24  1  0
 51 49  1  0
 53 55  1  0
 53 52  1  0
 54 65  2  0
 55 60  1  0
 56 64  1  0
 56 66  1  0
 57 63  1  0
 57 59  1  0
 58 64  1  0
 59 58  1  0
 60 59  2  0
 61 62  1  0
 61 55  2  0
 62 57  2  0
 63 56  1  0
 64 54  1  0
 66 68  2  0
 67 66  1  0
 69 67  1  0
 70 79  2  0
 70 75  1  0
 71 67  1  0
 71 75  1  0
 72 71  1  0
 73 74  1  0
 73 72  1  0
 74 70  1  0
 75 76  2  0
 76 77  1  0
 78 77  2  0
 79 78  1  0
 80 54  1  0
 80 81  1  0
 80 90  1  0
 81 84  1  0
 82 86  1  0
 82 81  1  0
 83 82  2  0
 86 85  1  0
 88 86  1  0
 88 89  1  0
 88 87  1  0
 90 93  1  1
 90 91  1  0
 92 90  1  0
M  ISO  4  14 100  22 100  52 101  53 101
M  END
>  <TORSDO>  (15) 
F 22

>  <SCORE>  (15) 
-13.143

>  <name>  (15) 
14

>  <ligand_id>  (15) 
14

>  <original_smiles>  (15) 
[H]c1c([H])c([H])c2c(c1[H])C([H])([H])C([H])([H])C([H])([H])C2([H])N([H])C(=O)C1([H])N(C(=O)C([H])(N([H])C(=O)C([H])(N([H])C([H])([H])[H])C([H])([H])[H])C(C([H])([H])[H])(C([H])([H])[H])C([H])([H])[H])C([H])([H])c2c([H])c(OC([H])([H])C3([H])C([H])([H])C([H])([H])C([H])(C([H])([H])[N+]([H])([H])C([H])([H])C([H])(C([H])([H])[H])C([H])([H])N([H])C(=O)N4C([H])([H])C([H])([H])C([H])([H])C([H])(n5nc(-c6c([H])c([H])c(Oc7c([H])c([H])c(F)c([H])c7F)c([H])c6[H])c(C(=O)N([H])[H])c5N([H])[H])C4([H])[H])C3([H])[H])c([H])c([H])c2C1([H])[H]

>  <smiles>  (15) 
[H]c1c([H])c([H])c2c(c1[H])C([H])([H])C([H])([H])C([H])([H])C2([H])N([H])C(=O)C1([H])N(C(=O)C([H])(N([H])C(=O)C([H])(N([H])C([H])([H])[H])C([H])([H])[H])C(C([H])([H])[H])(C([H])([H])[H])C([H])([H])[H])C([H])([H])c2c([H])c(OC([H])([H])C3([H])C([H])([H])C([H])([H])C([H])(C([H])([H])[N+]([H])([H])C([H])([H])C([H])(C([H])([H])[H])C([H])([H])N([H])C(=O)N4C([H])([H])C([H])([H])C([H])([H])C([H])(n5nc(-c6c([H])c([H])c(Oc7c([H])c([H])c(F)c([H])c7F)c([H])c6[H])c(C(=O)N([H])[H])c5N([H])[H])C4([H])[H])C3([H])[H])c([H])c([H])c2C1([H])[H]

$$$$
15:0:0
     RDKit          3D

 87 96  0  0  1  0  0  0  0  0999 V2000
  -30.5010  -15.1910   20.3290 C   0  0  0  0  0  0  0  0  0  0  0  0
  -30.3780  -12.7930   19.4100 C   0  0  0  0  0  2  0  0  0  0  0  0
  -29.4530  -12.6570   18.1780 C   0  0  0  0  0  2  0  0  0  0  0  0
  -27.9970  -12.4250   18.6200 C   0  0  0  0  0  2  0  0  0  0  0  0
  -27.5730  -13.3790   19.7670 C   0  0  0  0  0  3  0  0  0  0  0  0
  -28.6270  -13.4780   20.8880 C   0  0  0  0  0  2  0  0  0  0  0  0
  -29.8700  -13.9300   20.2500 N   0  0  0  0  0  0  0  0  0  0  0  0
  -31.7270  -15.1460   20.1530 O   0  0  0  0  0  0  0  0  0  0  0  0
  -29.3710  -18.8640   19.0040 C   0  0  0  0  0  2  0  0  0  0  0  0
  -30.0470  -20.5790   21.4850 C   0  0  0  0  0  2  0  0  0  0  0  0
  -29.2630  -17.2270   19.1950 C   0  0  0  0  0  2  0  0  0  0  0  0
  -30.2300  -17.6880   21.3160 C   0  0  0  0  0  2  0  0  0  0  0  0
  -28.7130  -19.7540   20.1290 C   0  0  0  0  0  3  0  0  0  0  0  0
  -29.3820  -19.1310   21.3750 C   0  0  0  0  0  3  0  0  0  0  0  0
  -28.8860  -21.3420   20.7270 C   0  0  0  0  0  3  0  0  0  0  0  0
  -29.8200  -16.4940   20.4160 N   0  0  0  0  0  0  0  0  0  0  0  0
  -25.2070  -13.9610   20.5200 C   0  0  0  0  0  0  0  0  0  0  0  0
  -24.1370  -13.1920   20.8840 C   0  0  0  0  0  0  0  0  0  0  0  0
  -24.5940  -11.8380   20.8540 C   0  0  0  0  0  0  0  0  0  0  0  0
  -26.2420  -13.0780   20.2760 N   0  0  0  0  0  0  0  0  0  0  0  0
  -25.8860  -11.7940   20.5470 N   0  0  0  0  0  0  0  0  0  0  0  0
  -23.8570  -10.5810   21.0400 C   0  0  0  0  0  0  0  0  0  0  0  0
  -24.2780   -9.6070   21.9720 C   0  0  0  0  0  3  0  0  0  0  0  0
  -23.5390   -8.4170   22.1470 C   0  0  0  0  0  3  0  0  0  0  0  0
  -22.3640   -8.1920   21.3910 C   0  0  0  0  0  0  0  0  0  0  0  0
  -21.9610   -9.1550   20.4490 C   0  0  0  0  0  3  0  0  0  0  0  0
  -22.7020  -10.3360   20.2710 C   0  0  0  0  0  3  0  0  0  0  0  0
  -21.5980   -7.0550   21.4770 O   0  0  0  0  0  0  0  0  0  0  0  0
  -21.5380   -6.3120   22.6280 C   0  0  0  0  0  0  0  0  0  0  0  0
  -21.1130   -6.8680   23.8540 C   0  0  0  0  0  3  0  0  0  0  0  0
  -21.0000   -6.0510   24.9960 C   0  0  0  0  0  3  0  0  0  0  0  0
  -21.3020   -4.6800   24.9150 C   0  0  0  0  0  0  0  0  0  0  0  0
  -21.7210   -4.1220   23.6940 C   0  0  0  0  0  3  0  0  0  0  0  0
  -21.8350   -4.9360   22.5520 C   0  0  0  0  0  0  0  0  0  0  0  0
  -22.2180   -4.3890   21.3730 F   0  0  0  0  0  0  0  0  0  0  0  0
  -21.1880   -3.8930   26.0100 F   0  0  0  0  0  0  0  0  0  0  0  0
  -22.7430  -13.6800   21.1470 C   0  0  0  0  0  0  0  0  0  0  0  0
  -22.0090  -12.9950   22.0160 N   0  0  0  0  0  0  0  0  0  0  0  0
  -22.3150  -14.7040   20.6180 O   0  0  0  0  0  0  0  0  0  0  0  0
  -22.3690  -12.1660   22.4660 H   0  0  0  0  0  0  0  0  0  0  0  0
  -21.0720  -13.3030   22.2360 H   0  0  0  0  0  0  0  0  0  0  0  0
  -25.3830  -15.3310   20.3480 N   0  0  0  0  0  0  0  0  0  0  0  0
  -24.6250  -15.9940   20.4740 H   0  0  0  0  0  0  0  0  0  0  0  0
  -26.2470  -15.7680   20.0580 H   0  0  0  0  0  0  0  0  0  0  0  0
  -28.9890  -22.9850   20.0950 C   0  0  0  0  0  3  0  0  0  0  0  0
  -28.1170  -24.4470   20.5550 C   0  0  0  0  0  3  0  0  0  0  0  0
  -28.3360  -26.0270   20.2680 O   0  0  0  0  0  0  0  0  0  0  0  0
  -24.6730  -31.8780   23.2120 C   0  0  0  0  0  0  0  0  0  0  0  0
  -27.2890  -27.0620   20.2440 C   0  0  0  0  0  0  0  0  0  0  0  0
  -23.4960  -30.4590   21.5790 C   0  0  0  0  0  3  0  0  0  0  0  0
  -24.9630  -28.8680   20.1760 C   0  0  0  0  0  0  0  0  0  0  0  0
  -26.0560  -30.7140   21.4330 C   0  0  0  0  0  2  0  0  0  0  0  0
  -26.1430  -29.3060   20.7910 C   0  0  0  0  0  0  0  0  0  0  0  0
  -27.3060  -28.4250   20.7980 C   0  0  0  0  0  3  0  0  0  0  0  0
  -26.0790  -26.7550   19.5860 C   0  0  0  0  0  3  0  0  0  0  0  0
  -24.9510  -27.6100   19.5550 C   0  0  0  0  0  3  0  0  0  0  0  0
  -23.7340  -29.7690   20.2090 C   0  0  0  0  0  2  0  0  0  0  0  0
  -24.7620  -31.0430   22.1290 N   0  0  0  0  0  0  0  0  0  0  0  0
  -23.5800  -32.1590   23.7290 O   0  0  0  0  0  0  0  0  0  0  0  0
  -22.8140  -29.4590   22.5490 C   0  0  0  0  0  0  0  0  0  0  0  0
  -21.4850  -29.2870   22.4260 N   0  0  0  0  0  0  0  0  0  0  0  0
  -23.4850  -28.8400   23.3780 O   0  0  0  0  0  0  0  0  0  0  0  0
  -20.9980  -29.8370   21.7320 H   0  0  0  0  0  0  0  0  0  0  0  0
  -18.1070  -28.0750   22.9480 C   0  0  0  0  0  0  0  0  0  0  0  0
  -20.6670  -28.3480   23.2020 C   0  0  0  0  0  3  0  0  0  0  0  0
  -20.7700  -26.9150   22.6290 C   0  0  0  0  0  2  0  0  0  0  0  0
  -19.6650  -26.5880   21.6200 C   0  0  0  0  0  2  0  0  0  0  0  0
  -18.2850  -26.7270   22.2700 C   0  0  0  0  0  2  0  0  0  0  0  0
  -19.2240  -28.8430   23.3710 C   0  0  0  0  0  0  0  0  0  0  0  0
  -19.0020  -30.1030   23.9680 C   0  0  0  0  0  3  0  0  0  0  0  0
  -17.6950  -30.5970   24.1440 C   0  0  0  0  0  3  0  0  0  0  0  0
  -16.5920  -29.8270   23.7350 C   0  0  0  0  0  3  0  0  0  0  0  0
  -16.7990  -28.5680   23.1430 C   0  0  0  0  0  3  0  0  0  0  0  0
  -25.9380  -32.5340   23.8430 C   0  0  0  0  0  3  0  0  0  0  0  0
  -25.6030  -33.9280   24.1810 N   0  0  0  0  0  0  0  0  0  0  0  0
  -25.9120  -34.9940   23.4310 C   0  0  0  0  0  0  0  0  0  0  0  0
  -26.5740  -34.9090   22.3940 O   0  0  0  0  0  0  0  0  0  0  0  0
  -25.0110  -34.0660   24.9870 H   0  0  0  0  0  0  0  0  0  0  0  0
  -24.1490  -36.7650   23.1190 C   0  0  0  0  0  1  0  0  0  0  0  0
  -25.4110  -36.3740   23.9050 C   0  0  0  0  0  3  0  0  0  0  0  0
  -27.5430  -37.2930   24.7070 C   0  0  0  0  0  1  0  0  0  0  0  0
  -26.4240  -37.4450   23.7810 N   0  0  0  0  0  0  0  0  0  0  0  0
  -26.0050  -38.3580   23.9380 H   0  0  0  0  0  0  0  0  0  0  0  0
  -26.4560  -31.7730   25.1250 C   0  0  1  0  0  0  0  0  0  0  0  0
  -25.3600  -31.5270   26.1900 C   0  0  0  0  0  1  0  0  0  0  0  0
  -27.0570  -30.3990   24.7480 C   0  0  0  0  0  1  0  0  0  0  0  0
  -27.5950  -32.5820   25.7900 C   0  0  0  0  0  1  0  0  0  0  0  0
  1 16  1  0
  2  7  1  0
  3  4  1  0
  3  2  1  0
  5  4  1  0
  5 20  1  0
  5  6  1  0
  7  1  1  0
  7  6  1  0
  8  1  2  0
  9 11  1  0
 11 16  1  0
 13  9  1  0
 13 15  1  0
 13 14  1  0
 14 12  1  0
 14 10  1  0
 15 45  1  0
 15 10  1  0
 16 12  1  0
 17 18  2  0
 18 37  1  0
 19 18  1  0
 19 22  1  0
 20 17  1  0
 20 21  1  0
 21 19  2  0
 22 23  1  0
 23 24  2  0
 25 28  1  0
 25 24  1  0
 26 25  2  0
 27 26  1  0
 27 22  2  0
 28 29  1  0
 29 30  1  0
 30 31  2  0
 32 31  1  0
 32 36  1  0
 33 32  2  0
 34 29  2  0
 34 33  1  0
 35 34  1  0
 37 38  1  0
 38 41  1  0
 38 40  1  0
 39 37  2  0
 42 43  1  0
 42 17  1  0
 44 42  1  0
 45 46  2  0
 47 46  1  0
 48 59  2  0
 49 47  1  0
 49 54  1  0
 50 58  1  0
 50 60  1  0
 51 57  1  0
 51 53  1  0
 52 58  1  0
 53 54  2  0
 53 52  1  0
 55 49  2  0
 56 55  1  0
 56 51  2  0
 57 50  1  0
 58 48  1  0
 60 62  2  0
 61 60  1  0
 63 61  1  0
 64 73  2  0
 64 69  1  0
 65 61  1  0
 65 69  1  0
 66 65  1  0
 67 68  1  0
 67 66  1  0
 68 64  1  0
 69 70  2  0
 70 71  1  0
 72 71  2  0
 73 72  1  0
 74 48  1  0
 74 75  1  0
 74 84  1  0
 75 78  1  0
 76 80  1  0
 76 75  1  0
 77 76  2  0
 80 79  1  0
 82 80  1  0
 82 83  1  0
 82 81  1  0
 84 87  1  1
 84 85  1  0
 86 84  1  0
M  ISO  4   1 100  16 100  46 101  47 101
M  END
>  <TORSDO>  (16) 
F 17

>  <SCORE>  (16) 
-15.771

>  <name>  (16) 
15

>  <ligand_id>  (16) 
15

>  <original_smiles>  (16) 
[H]c1c([H])c([H])c2c(c1[H])C([H])([H])C([H])([H])C([H])([H])C2([H])N([H])C(=O)C1([H])N(C(=O)C([H])(N([H])C(=O)C([H])(N([H])C([H])([H])[H])C([H])([H])[H])C(C([H])([H])[H])(C([H])([H])[H])C([H])([H])[H])C([H])([H])c2c([H])c(OC([H])([H])C([H])([H])C3([H])C([H])([H])C4([H])C([H])([H])N(C(=O)N5C([H])([H])C([H])([H])C([H])([H])C([H])(n6nc(-c7c([H])c([H])c(Oc8c([H])c([H])c(F)c([H])c8F)c([H])c7[H])c(C(=O)N([H])[H])c6N([H])[H])C5([H])[H])C([H])([H])C([H])([H])C43[H])c([H])c([H])c2C1([H])[H]

>  <smiles>  (16) 
[H]c1c([H])c([H])c2c(c1[H])C([H])([H])C([H])([H])C([H])([H])C2([H])N([H])C(=O)C1([H])N(C(=O)C([H])(N([H])C(=O)C([H])(N([H])C([H])([H])[H])C([H])([H])[H])C(C([H])([H])[H])(C([H])([H])[H])C([H])([H])[H])C([H])([H])c2c([H])c(OC([H])([H])C([H])([H])C3([H])C([H])([H])C4([H])C([H])([H])N(C(=O)N5C([H])([H])C([H])([H])C([H])([H])C([H])(n6nc(-c7c([H])c([H])c(Oc8c([H])c([H])c(F)c([H])c8F)c([H])c7[H])c(C(=O)N([H])[H])c6N([H])[H])C5([H])[H])C([H])([H])C([H])([H])C43[H])c([H])c([H])c2C1([H])[H]

$$$$
16:0:0
     RDKit          3D

 93103  0  0  1  0  0  0  0  0999 V2000
  -27.6810  -19.2860   20.7290 C   0  0  0  0  0  2  0  0  0  0  0  0
  -28.6190  -19.5800   19.5430 C   0  0  2  0  0  0  0  0  0  0  0  0
  -28.1810  -21.1260   19.9250 C   0  0  0  0  0  3  0  0  0  0  0  0
  -28.5890  -20.4280   21.2550 C   0  0  1  0  0  0  0  0  0  0  0  0
  -29.9920  -18.9810   20.0170 C   0  0  0  0  0  3  0  0  0  0  0  0
  -30.0010  -19.9030   21.1800 N   0  0  0  0  0  4  0  0  0  0  0  0
  -30.2500  -19.4130   22.0230 H   0  0  0  0  0  0  0  0  0  0  0  0
  -30.6650  -20.6480   21.0440 H   0  0  0  0  0  0  0  0  0  0  0  0
  -28.1810  -23.6860   19.3820 C   0  0  0  0  0  0  0  0  0  0  0  0
  -28.8580  -22.4990   19.7130 N   0  0  0  0  0  0  0  0  0  0  0  0
  -27.2310  -23.6290   18.5960 O   0  0  0  0  0  0  0  0  0  0  0  0
  -29.6950  -22.6620   20.2550 H   0  0  0  0  0  0  0  0  0  0  0  0
  -28.4700  -25.1220   20.0860 C   0  0  0  0  0  2  0  0  0  0  0  0
  -28.3290  -26.4380   19.3400 O   0  0  0  0  0  0  0  0  0  0  0  0
  -24.6910  -31.6040   23.0480 C   0  0  0  0  0  0  0  0  0  0  0  0
  -27.2130  -27.2950   19.5210 C   0  0  0  0  0  0  0  0  0  0  0  0
  -23.4340  -30.3360   21.3450 C   0  0  0  0  0  3  0  0  0  0  0  0
  -24.8420  -28.9160   19.7390 C   0  0  0  0  0  0  0  0  0  0  0  0
  -25.9660  -30.6870   21.0870 C   0  0  0  0  0  2  0  0  0  0  0  0
  -26.0350  -29.3610   20.3230 C   0  0  0  0  0  0  0  0  0  0  0  0
  -27.2260  -28.5690   20.1930 C   0  0  0  0  0  3  0  0  0  0  0  0
  -25.9950  -26.9160   18.9270 C   0  0  0  0  0  3  0  0  0  0  0  0
  -24.8250  -27.7010   19.0330 C   0  0  0  0  0  3  0  0  0  0  0  0
  -23.6020  -29.7790   19.9060 C   0  0  0  0  0  2  0  0  0  0  0  0
  -24.7190  -30.8910   21.8840 N   0  0  0  0  0  0  0  0  0  0  0  0
  -23.6270  -31.8190   23.6470 O   0  0  0  0  0  0  0  0  0  0  0  0
  -22.8190  -29.2360   22.2430 C   0  0  0  0  0  0  0  0  0  0  0  0
  -21.4920  -29.0440   22.1500 N   0  0  0  0  0  0  0  0  0  0  0  0
  -23.5370  -28.5570   22.9840 O   0  0  0  0  0  0  0  0  0  0  0  0
  -20.9670  -29.6480   21.5350 H   0  0  0  0  0  0  0  0  0  0  0  0
  -18.1690  -27.6980   22.6160 C   0  0  0  0  0  0  0  0  0  0  0  0
  -20.7220  -28.0230   22.8620 C   0  0  0  0  0  3  0  0  0  0  0  0
  -20.8630  -26.6450   22.1740 C   0  0  0  0  0  2  0  0  0  0  0  0
  -19.7490  -26.3590   21.1630 C   0  0  0  0  0  2  0  0  0  0  0  0
  -18.3770  -26.4100   21.8410 C   0  0  0  0  0  2  0  0  0  0  0  0
  -19.2700  -28.4620   23.0860 C   0  0  0  0  0  0  0  0  0  0  0  0
  -19.0220  -29.6660   23.7790 C   0  0  0  0  0  3  0  0  0  0  0  0
  -17.7050  -30.1120   24.0040 C   0  0  0  0  0  3  0  0  0  0  0  0
  -16.6190  -29.3480   23.5440 C   0  0  0  0  0  3  0  0  0  0  0  0
  -16.8510  -28.1430   22.8580 C   0  0  0  0  0  3  0  0  0  0  0  0
  -25.9900  -32.2010   23.6700 C   0  0  0  0  0  3  0  0  0  0  0  0
  -26.5600  -31.3370   24.8610 C   0  0  1  0  0  0  0  0  0  0  0  0
  -25.5140  -31.0110   25.9510 C   0  0  0  0  0  1  0  0  0  0  0  0
  -27.1330  -29.9980   24.3420 C   0  0  0  0  0  1  0  0  0  0  0  0
  -27.7330  -32.0870   25.5360 C   0  0  0  0  0  1  0  0  0  0  0  0
  -25.6770  -33.5630   24.1260 N   0  0  0  0  0  0  0  0  0  0  0  0
  -25.9840  -34.6830   23.4560 C   0  0  0  0  0  0  0  0  0  0  0  0
  -26.6280  -34.6760   22.4050 O   0  0  0  0  0  0  0  0  0  0  0  0
  -25.1030  -33.6410   24.9510 H   0  0  0  0  0  0  0  0  0  0  0  0
  -24.2400  -36.4900   23.3040 C   0  0  0  0  0  1  0  0  0  0  0  0
  -25.5010  -36.0210   24.0460 C   0  0  0  0  0  3  0  0  0  0  0  0
  -27.6440  -36.8510   24.9130 C   0  0  0  0  0  1  0  0  0  0  0  0
  -26.5240  -37.0870   24.0060 N   0  0  0  0  0  0  0  0  0  0  0  0
  -26.1140  -37.9890   24.2360 H   0  0  0  0  0  0  0  0  0  0  0  0
  -30.2660  -17.4360   20.5780 C   0  0  0  0  0  2  0  0  0  0  0  0
  -30.8720  -14.9390   19.8360 C   0  0  0  0  0  0  0  0  0  0  0  0
  -30.7030  -12.5920   18.9550 C   0  0  0  0  0  2  0  0  0  0  0  0
  -29.7070  -12.5350   17.7750 C   0  0  0  0  0  2  0  0  0  0  0  0
  -28.2580  -12.3720   18.2800 C   0  0  0  0  0  2  0  0  0  0  0  0
  -27.9150  -13.3490   19.4360 C   0  0  0  0  0  3  0  0  0  0  0  0
  -29.0160  -13.3540   20.5130 C   0  0  0  0  0  2  0  0  0  0  0  0
  -30.2710  -13.7000   19.8350 N   0  0  0  0  0  0  0  0  0  0  0  0
  -32.0750  -15.0390   19.5740 O   0  0  0  0  0  0  0  0  0  0  0  0
  -30.0520  -16.0620   19.9180 N   0  0  0  0  0  0  0  0  0  0  0  0
  -29.0770  -15.8110   19.8570 H   0  0  0  0  0  0  0  0  0  0  0  0
  -25.5910  -13.9930   20.3110 C   0  0  0  0  0  0  0  0  0  0  0  0
  -24.5280  -13.2430   20.7300 C   0  0  0  0  0  0  0  0  0  0  0  0
  -24.9530  -11.8800   20.6550 C   0  0  0  0  0  0  0  0  0  0  0  0
  -26.5940  -13.0900   20.0020 N   0  0  0  0  0  0  0  0  0  0  0  0
  -26.2220  -11.8130   20.2750 N   0  0  0  0  0  0  0  0  0  0  0  0
  -24.2040  -10.6350   20.8670 C   0  0  0  0  0  0  0  0  0  0  0  0
  -24.6180   -9.6750   21.8160 C   0  0  0  0  0  3  0  0  0  0  0  0
  -23.8710   -8.4940   22.0120 C   0  0  0  0  0  3  0  0  0  0  0  0
  -22.6950   -8.2660   21.2600 C   0  0  0  0  0  0  0  0  0  0  0  0
  -22.2990   -9.2140   20.2990 C   0  0  0  0  0  3  0  0  0  0  0  0
  -23.0470  -10.3860   20.1020 C   0  0  0  0  0  3  0  0  0  0  0  0
  -21.9190   -7.1370   21.3670 O   0  0  0  0  0  0  0  0  0  0  0  0
  -21.8030   -6.4510   22.5500 C   0  0  0  0  0  0  0  0  0  0  0  0
  -21.2940   -7.0610   23.7170 C   0  0  0  0  0  3  0  0  0  0  0  0
  -21.1270   -6.3020   24.8930 C   0  0  0  0  0  3  0  0  0  0  0  0
  -21.4610   -4.9340   24.9010 C   0  0  0  0  0  0  0  0  0  0  0  0
  -21.9630   -4.3240   23.7390 C   0  0  0  0  0  3  0  0  0  0  0  0
  -22.1320   -5.0810   22.5660 C   0  0  0  0  0  0  0  0  0  0  0  0
  -22.5970   -4.4840   21.4420 F   0  0  0  0  0  0  0  0  0  0  0  0
  -21.2930   -4.2030   26.0270 F   0  0  0  0  0  0  0  0  0  0  0  0
  -23.1590  -13.7530   21.0790 C   0  0  0  0  0  0  0  0  0  0  0  0
  -22.4630  -13.0720   21.9820 N   0  0  0  0  0  0  0  0  0  0  0  0
  -22.7200  -14.7910   20.5860 O   0  0  0  0  0  0  0  0  0  0  0  0
  -22.8310  -12.2320   22.4030 H   0  0  0  0  0  0  0  0  0  0  0  0
  -21.5470  -13.3960   22.2570 H   0  0  0  0  0  0  0  0  0  0  0  0
  -25.7830  -15.3620   20.1400 N   0  0  0  0  0  0  0  0  0  0  0  0
  -25.0320  -16.0280   20.2850 H   0  0  0  0  0  0  0  0  0  0  0  0
  -26.5950  -15.7780   19.7040 H   0  0  0  0  0  0  0  0  0  0  0  0
  2  3  1  0
  2  5  1  0
  2  1  1  6
  2  4  1  0
  3 10  1  0
  3  4  1  0
  4  1  1  1
  5 55  1  0
  5  6  1  0
  6  4  1  0
  6  7  1  0
  8  6  1  0
  9 10  1  0
  9 13  1  0
 10 12  1  0
 11  9  2  0
 14 16  1  0
 14 13  1  0
 15 26  2  0
 16 21  1  0
 17 25  1  0
 17 27  1  0
 18 24  1  0
 18 20  1  0
 19 25  1  0
 20 19  1  0
 21 20  2  0
 22 23  1  0
 22 16  2  0
 23 18  2  0
 24 17  1  0
 25 15  1  0
 27 29  2  0
 28 27  1  0
 30 28  1  0
 31 40  2  0
 31 36  1  0
 32 28  1  0
 32 36  1  0
 33 32  1  0
 34 35  1  0
 34 33  1  0
 35 31  1  0
 36 37  2  0
 37 38  1  0
 39 38  2  0
 40 39  1  0
 41 15  1  0
 41 46  1  0
 41 42  1  0
 42 45  1  1
 42 43  1  0
 44 42  1  0
 46 49  1  0
 47 51  1  0
 47 46  1  0
 48 47  2  0
 51 50  1  0
 53 51  1  0
 53 54  1  0
 53 52  1  0
 56 64  1  0
 57 62  1  0
 58 59  1  0
 58 57  1  0
 60 59  1  0
 60 69  1  0
 60 61  1  0
 62 56  1  0
 62 61  1  0
 63 56  2  0
 64 55  1  0
 65 64  1  0
 66 67  2  0
 67 86  1  0
 68 67  1  0
 68 71  1  0
 69 70  1  0
 69 66  1  0
 70 68  2  0
 71 72  1  0
 72 73  2  0
 74 77  1  0
 74 73  1  0
 75 74  2  0
 76 75  1  0
 76 71  2  0
 77 78  1  0
 78 83  2  0
 78 79  1  0
 79 80  2  0
 80 81  1  0
 81 85  1  0
 82 81  2  0
 83 82  1  0
 84 83  1  0
 86 87  1  0
 87 90  1  0
 87 89  1  0
 88 86  2  0
 91 92  1  0
 91 66  1  0
 93 91  1  0
M  ISO  4  13 101  14 101  56 100  64 100
M  END
>  <TORSDO>  (17) 
F 19

>  <SCORE>  (17) 
-12.709

>  <name>  (17) 
16

>  <ligand_id>  (17) 
16

>  <original_smiles>  (17) 
[H]c1c([H])c([H])c2c(c1[H])C([H])([H])C([H])([H])C([H])([H])C2([H])N([H])C(=O)C1([H])N(C(=O)C([H])(N([H])C(=O)C([H])(N([H])C([H])([H])[H])C([H])([H])[H])C(C([H])([H])[H])(C([H])([H])[H])C([H])([H])[H])C([H])([H])c2c([H])c(OC([H])([H])C(=O)N([H])C3([H])C4([H])C([H])([H])C3([H])[N+]([H])([H])C4([H])C([H])([H])N([H])C(=O)N3C([H])([H])C([H])([H])C([H])([H])C([H])(n4nc(-c5c([H])c([H])c(Oc6c([H])c([H])c(F)c([H])c6F)c([H])c5[H])c(C(=O)N([H])[H])c4N([H])[H])C3([H])[H])c([H])c([H])c2C1([H])[H]

>  <smiles>  (17) 
[H]c1c([H])c([H])c2c(c1[H])C([H])([H])C([H])([H])C([H])([H])C2([H])N([H])C(=O)C1([H])N(C(=O)C([H])(N([H])C(=O)C([H])(N([H])C([H])([H])[H])C([H])([H])[H])C(C([H])([H])[H])(C([H])([H])[H])C([H])([H])[H])C([H])([H])c2c([H])c(OC([H])([H])C(=O)N([H])C3([H])C4([H])C([H])([H])C3([H])[N+]([H])([H])C4([H])C([H])([H])N([H])C(=O)N3C([H])([H])C([H])([H])C([H])([H])C([H])(n4nc(-c5c([H])c([H])c(Oc6c([H])c([H])c(F)c([H])c6F)c([H])c5[H])c(C(=O)N([H])[H])c4N([H])[H])C3([H])[H])c([H])c([H])c2C1([H])[H]

$$$$
17:0:0
     RDKit          3D

 90 98  0  0  1  0  0  0  0  0999 V2000
  -30.3080  -22.1630   21.7900 C   0  0  0  0  0  1  0  0  0  0  0  0
  -29.0540  -21.9160   20.9270 C   0  0  0  0  0  3  0  0  0  0  0  0
  -29.6600  -19.1860   20.6530 C   0  0  0  0  0  0  0  0  0  0  0  0
  -29.2110  -20.4840   20.2300 N   0  0  0  0  0  0  0  0  0  0  0  0
  -30.2150  -19.0510   21.7430 O   0  0  0  0  0  0  0  0  0  0  0  0
  -28.8090  -20.4750   19.3000 H   0  0  0  0  0  0  0  0  0  0  0  0
  -30.5450  -15.1000   20.2560 C   0  0  0  0  0  0  0  0  0  0  0  0
  -30.4940  -12.7210   19.3670 C   0  0  0  0  0  2  0  0  0  0  0  0
  -29.5610  -12.6230   18.1350 C   0  0  0  0  0  2  0  0  0  0  0  0
  -28.0910  -12.4290   18.5600 C   0  0  0  0  0  2  0  0  0  0  0  0
  -27.6720  -13.3610   19.7250 C   0  0  0  0  0  3  0  0  0  0  0  0
  -28.7240  -13.3950   20.8520 C   0  0  0  0  0  2  0  0  0  0  0  0
  -29.9900  -13.8190   20.2390 N   0  0  0  0  0  0  0  0  0  0  0  0
  -31.7750  -15.1800   20.1460 O   0  0  0  0  0  0  0  0  0  0  0  0
  -30.1690  -17.7030   18.5090 C   0  0  0  0  0  2  0  0  0  0  0  0
  -29.6110  -16.2810   18.4610 C   0  0  0  0  0  2  0  0  0  0  0  0
  -29.3970  -17.8010   19.7910 C   0  0  0  0  0  3  0  0  0  0  0  0
  -29.6830  -16.2110   19.9540 N   0  0  0  0  0  0  0  0  0  0  0  0
  -25.2850  -13.9370   20.4410 C   0  0  0  0  0  0  0  0  0  0  0  0
  -24.2200  -13.1590   20.8050 C   0  0  0  0  0  0  0  0  0  0  0  0
  -24.6920  -11.8110   20.7920 C   0  0  0  0  0  0  0  0  0  0  0  0
  -26.3350  -13.0620   20.2200 N   0  0  0  0  0  0  0  0  0  0  0  0
  -25.9870  -11.7790   20.4980 N   0  0  0  0  0  0  0  0  0  0  0  0
  -23.9710  -10.5470   20.9850 C   0  0  0  0  0  0  0  0  0  0  0  0
  -24.3990   -9.5870   21.9290 C   0  0  0  0  0  3  0  0  0  0  0  0
  -23.6780   -8.3890   22.1100 C   0  0  0  0  0  3  0  0  0  0  0  0
  -22.5120   -8.1400   21.3460 C   0  0  0  0  0  0  0  0  0  0  0  0
  -22.1030   -9.0870   20.3910 C   0  0  0  0  0  3  0  0  0  0  0  0
  -22.8260  -10.2780   20.2080 C   0  0  0  0  0  3  0  0  0  0  0  0
  -21.7610   -6.9930   21.4370 O   0  0  0  0  0  0  0  0  0  0  0  0
  -21.7080   -6.2560   22.5920 C   0  0  0  0  0  0  0  0  0  0  0  0
  -21.2620   -6.8130   23.8110 C   0  0  0  0  0  3  0  0  0  0  0  0
  -21.1580   -6.0040   24.9590 C   0  0  0  0  0  3  0  0  0  0  0  0
  -21.4870   -4.6360   24.8910 C   0  0  0  0  0  0  0  0  0  0  0  0
  -21.9250   -4.0780   23.6760 C   0  0  0  0  0  3  0  0  0  0  0  0
  -22.0320   -4.8860   22.5300 C   0  0  0  0  0  0  0  0  0  0  0  0
  -22.4350   -4.3380   21.3580 F   0  0  0  0  0  0  0  0  0  0  0  0
  -21.3780   -3.8560   25.9910 F   0  0  0  0  0  0  0  0  0  0  0  0
  -22.8170  -13.6310   21.0540 C   0  0  0  0  0  0  0  0  0  0  0  0
  -22.0820  -12.9390   21.9180 N   0  0  0  0  0  0  0  0  0  0  0  0
  -22.3810  -14.6490   20.5180 O   0  0  0  0  0  0  0  0  0  0  0  0
  -22.4500  -12.1180   22.3740 H   0  0  0  0  0  0  0  0  0  0  0  0
  -21.1400  -13.2360   22.1260 H   0  0  0  0  0  0  0  0  0  0  0  0
  -25.4470  -15.3080   20.2560 N   0  0  0  0  0  0  0  0  0  0  0  0
  -24.6840  -15.9660   20.3650 H   0  0  0  0  0  0  0  0  0  0  0  0
  -26.3130  -15.7470   19.9720 H   0  0  0  0  0  0  0  0  0  0  0  0
  -28.7940  -23.3920   20.1010 C   0  0  0  0  0  0  0  0  0  0  0  0
  -29.1960  -23.4850   18.9370 O   0  0  0  0  0  0  0  0  0  0  0  0
  -28.0470  -24.7430   20.7410 C   0  0  0  0  0  2  0  0  0  0  0  0
  -28.2950  -26.2250   20.2890 O   0  0  0  0  0  0  0  0  0  0  0  0
  -24.6070  -31.9240   23.2580 C   0  0  0  0  0  0  0  0  0  0  0  0
  -27.2290  -27.2010   20.2720 C   0  0  0  0  0  0  0  0  0  0  0  0
  -23.4210  -30.5080   21.6250 C   0  0  0  0  0  3  0  0  0  0  0  0
  -24.8850  -28.9310   20.2170 C   0  0  0  0  0  0  0  0  0  0  0  0
  -25.9740  -30.7910   21.4630 C   0  0  0  0  0  2  0  0  0  0  0  0
  -26.0610  -29.3930   20.8220 C   0  0  0  0  0  0  0  0  0  0  0  0
  -27.2360  -28.5470   20.8260 C   0  0  0  0  0  3  0  0  0  0  0  0
  -26.0260  -26.8400   19.6310 C   0  0  0  0  0  3  0  0  0  0  0  0
  -24.8810  -27.6680   19.6040 C   0  0  0  0  0  3  0  0  0  0  0  0
  -23.6510  -29.8200   20.2530 C   0  0  0  0  0  2  0  0  0  0  0  0
  -24.6870  -31.0970   22.1700 N   0  0  0  0  0  0  0  0  0  0  0  0
  -23.5180  -32.2030   23.7830 O   0  0  0  0  0  0  0  0  0  0  0  0
  -22.7470  -29.5050   22.5940 C   0  0  0  0  0  0  0  0  0  0  0  0
  -21.4230  -29.3140   22.4580 N   0  0  0  0  0  0  0  0  0  0  0  0
  -23.4200  -28.8970   23.4300 O   0  0  0  0  0  0  0  0  0  0  0  0
  -20.9350  -29.8560   21.7580 H   0  0  0  0  0  0  0  0  0  0  0  0
  -18.0550  -28.0660   22.9410 C   0  0  0  0  0  0  0  0  0  0  0  0
  -20.6070  -28.3740   23.2320 C   0  0  0  0  0  3  0  0  0  0  0  0
  -20.7370  -26.9360   22.6770 C   0  0  0  0  0  2  0  0  0  0  0  0
  -19.6530  -26.5820   21.6560 C   0  0  0  0  0  2  0  0  0  0  0  0
  -18.2620  -26.7130   22.2820 C   0  0  0  0  0  2  0  0  0  0  0  0
  -19.1560  -28.8540   23.3710 C   0  0  0  0  0  0  0  0  0  0  0  0
  -18.9080  -30.1180   23.9480 C   0  0  0  0  0  3  0  0  0  0  0  0
  -17.5940  -30.5980   24.0960 C   0  0  0  0  0  3  0  0  0  0  0  0
  -16.5070  -29.8090   23.6790 C   0  0  0  0  0  3  0  0  0  0  0  0
  -16.7380  -28.5450   23.1080 C   0  0  0  0  0  3  0  0  0  0  0  0
  -25.8800  -32.5730   23.8840 C   0  0  0  0  0  3  0  0  0  0  0  0
  -26.3810  -31.8260   25.1820 C   0  0  1  0  0  0  0  0  0  0  0  0
  -25.2770  -31.6100   26.2420 C   0  0  0  0  0  1  0  0  0  0  0  0
  -26.9690  -30.4400   24.8270 C   0  0  0  0  0  1  0  0  0  0  0  0
  -27.5240  -32.6340   25.8400 C   0  0  0  0  0  1  0  0  0  0  0  0
  -25.5620  -33.9770   24.1920 N   0  0  0  0  0  0  0  0  0  0  0  0
  -25.9020  -35.0230   23.4280 C   0  0  0  0  0  0  0  0  0  0  0  0
  -26.5810  -34.9090   22.4050 O   0  0  0  0  0  0  0  0  0  0  0  0
  -24.9590  -34.1390   24.9850 H   0  0  0  0  0  0  0  0  0  0  0  0
  -24.1800  -36.8180   23.0390 C   0  0  0  0  0  1  0  0  0  0  0  0
  -25.4110  -36.4180   23.8670 C   0  0  0  0  0  3  0  0  0  0  0  0
  -27.5350  -37.3120   24.7170 C   0  0  0  0  0  1  0  0  0  0  0  0
  -26.4460  -37.4680   23.7570 N   0  0  0  0  0  0  0  0  0  0  0  0
  -26.0400  -38.3900   23.8860 H   0  0  0  0  0  0  0  0  0  0  0  0
  2  1  1  0
  3  5  2  0
  4  3  1  0
  4  2  1  0
  6  4  1  0
  8 13  1  0
  9 10  1  0
  9  8  1  0
 11 10  1  0
 11 22  1  0
 11 12  1  0
 13  7  1  0
 13 12  1  0
 14  7  2  0
 15 17  1  0
 16 15  1  0
 16 18  1  0
 17 18  1  0
 17  3  1  0
 18  7  1  0
 19 20  2  0
 20 39  1  0
 21 20  1  0
 21 24  1  0
 22 19  1  0
 22 23  1  0
 23 21  2  0
 24 25  1  0
 25 26  2  0
 27 30  1  0
 27 26  1  0
 28 27  2  0
 29 28  1  0
 29 24  2  0
 30 31  1  0
 31 32  1  0
 32 33  2  0
 34 33  1  0
 34 38  1  0
 35 34  2  0
 36 31  2  0
 36 35  1  0
 37 36  1  0
 39 40  1  0
 40 43  1  0
 40 42  1  0
 41 39  2  0
 44 45  1  0
 44 19  1  0
 46 44  1  0
 47 49  1  0
 47  2  1  0
 48 47  2  0
 50 49  1  0
 51 62  2  0
 52 50  1  0
 52 57  1  0
 53 61  1  0
 53 63  1  0
 54 60  1  0
 54 56  1  0
 55 61  1  0
 56 57  2  0
 56 55  1  0
 58 52  2  0
 59 58  1  0
 59 54  2  0
 60 53  1  0
 61 51  1  0
 63 65  2  0
 64 63  1  0
 66 64  1  0
 67 76  2  0
 67 72  1  0
 68 64  1  0
 68 72  1  0
 69 68  1  0
 70 71  1  0
 70 69  1  0
 71 67  1  0
 72 73  2  0
 73 74  1  0
 75 74  2  0
 76 75  1  0
 77 51  1  0
 77 82  1  0
 77 78  1  0
 78 81  1  1
 78 79  1  0
 80 78  1  0
 82 85  1  0
 83 87  1  0
 83 82  1  0
 84 83  2  0
 87 86  1  0
 89 87  1  0
 89 90  1  0
 89 88  1  0
M  ISO  4   7 100  18 100  49 101  50 101
M  END
>  <TORSDO>  (18) 
F 19

>  <SCORE>  (18) 
-14.097

>  <name>  (18) 
17

>  <ligand_id>  (18) 
17

>  <original_smiles>  (18) 
[H]c1c([H])c([H])c2c(c1[H])C([H])([H])C([H])([H])C([H])([H])C2([H])N([H])C(=O)C1([H])N(C(=O)C([H])(N([H])C(=O)C([H])(N([H])C([H])([H])[H])C([H])([H])[H])C(C([H])([H])[H])(C([H])([H])[H])C([H])([H])[H])C([H])([H])c2c([H])c(OC([H])([H])C(=O)C([H])(N([H])C(=O)C3([H])N(C(=O)N4C([H])([H])C([H])([H])C([H])([H])C([H])(n5nc(-c6c([H])c([H])c(Oc7c([H])c([H])c(F)c([H])c7F)c([H])c6[H])c(C(=O)N([H])[H])c5N([H])[H])C4([H])[H])C([H])([H])C3([H])[H])C([H])([H])[H])c([H])c([H])c2C1([H])[H]

>  <smiles>  (18) 
[H]c1c([H])c([H])c2c(c1[H])C([H])([H])C([H])([H])C([H])([H])C2([H])N([H])C(=O)C1([H])N(C(=O)C([H])(N([H])C(=O)C([H])(N([H])C([H])([H])[H])C([H])([H])[H])C(C([H])([H])[H])(C([H])([H])[H])C([H])([H])[H])C([H])([H])c2c([H])c(OC([H])([H])C(=O)C([H])(N([H])C(=O)C3([H])N(C(=O)N4C([H])([H])C([H])([H])C([H])([H])C([H])(n5nc(-c6c([H])c([H])c(Oc7c([H])c([H])c(F)c([H])c7F)c([H])c6[H])c(C(=O)N([H])[H])c5N([H])[H])C4([H])[H])C([H])([H])C3([H])[H])C([H])([H])[H])c([H])c([H])c2C1([H])[H]

$$$$
18:0:0
     RDKit          3D

 92101  0  0  1  0  0  0  0  0999 V2000
  -28.4490  -19.4980   20.3500 C   0  0  0  0  0  2  0  0  0  0  0  0
  -30.3240  -18.1660   21.1990 C   0  0  0  0  0  2  0  0  0  0  0  0
  -30.5030  -20.6140   20.4240 C   0  0  0  0  0  2  0  0  0  0  0  0
  -29.3100  -19.0460   19.1340 C   0  0  0  0  0  3  0  0  0  0  0  0
  -29.6780  -19.5940   21.2560 C   0  0  1  0  0  0  0  0  0  0  0  0
  -29.9360  -17.5830   19.8170 C   0  0  2  0  0  0  0  0  0  0  0  0
  -29.3670  -20.0750   22.6860 C   0  0  0  0  0  1  0  0  0  0  0  0
  -28.6920  -16.7190   19.9520 C   0  0  0  0  0  1  0  0  0  0  0  0
  -30.0340  -20.4360   19.0250 N   0  0  1  0  0  4  0  0  0  0  0  0
  -30.8540  -20.3180   18.4470 H   0  0  0  0  0  0  0  0  0  0  0  0
  -31.3280  -15.0710   19.2940 C   0  0  0  0  0  0  0  0  0  0  0  0
  -30.8390  -12.7360   18.3960 C   0  0  0  0  0  2  0  0  0  0  0  0
  -29.7590  -12.6650   17.3000 C   0  0  0  0  0  2  0  0  0  0  0  0
  -28.3730  -12.4590   17.9340 C   0  0  0  0  0  2  0  0  0  0  0  0
  -28.1440  -13.4180   19.1300 C   0  0  0  0  0  3  0  0  0  0  0  0
  -29.3690  -13.4870   20.0970 C   0  0  0  0  0  2  0  0  0  0  0  0
  -30.5250  -13.9100   19.2780 N   0  0  0  0  0  0  0  0  0  0  0  0
  -32.4920  -14.8800   18.9360 O   0  0  0  0  0  0  0  0  0  0  0  0
  -30.9680  -16.4780   19.2960 N   0  0  0  0  0  0  0  0  0  0  0  0
  -31.8210  -16.9490   19.0250 H   0  0  0  0  0  0  0  0  0  0  0  0
  -25.9530  -14.0930   20.2880 C   0  0  0  0  0  0  0  0  0  0  0  0
  -24.9130  -13.3670   20.7870 C   0  0  0  0  0  0  0  0  0  0  0  0
  -25.2640  -12.0020   20.5750 C   0  0  0  0  0  0  0  0  0  0  0  0
  -26.8870  -13.1770   19.8290 N   0  0  0  0  0  0  0  0  0  0  0  0
  -26.4860  -11.9050   20.0640 N   0  0  0  0  0  0  0  0  0  0  0  0
  -24.4740  -10.7850   20.7670 C   0  0  0  0  0  0  0  0  0  0  0  0
  -24.8210   -9.8300   21.7460 C   0  0  0  0  0  3  0  0  0  0  0  0
  -24.0310   -8.6770   21.9260 C   0  0  0  0  0  3  0  0  0  0  0  0
  -22.8810   -8.4730   21.1270 C   0  0  0  0  0  0  0  0  0  0  0  0
  -22.5550   -9.4170   20.1370 C   0  0  0  0  0  3  0  0  0  0  0  0
  -23.3450  -10.5620   19.9550 C   0  0  0  0  0  3  0  0  0  0  0  0
  -22.0650   -7.3740   21.2190 O   0  0  0  0  0  0  0  0  0  0  0  0
  -21.7540   -6.8110   22.4300 C   0  0  0  0  0  0  0  0  0  0  0  0
  -21.0840   -7.5380   23.4390 C   0  0  0  0  0  3  0  0  0  0  0  0
  -20.7240   -6.9010   24.6430 C   0  0  0  0  0  3  0  0  0  0  0  0
  -21.0230   -5.5380   24.8350 C   0  0  0  0  0  0  0  0  0  0  0  0
  -21.6850   -4.8130   23.8290 C   0  0  0  0  0  3  0  0  0  0  0  0
  -22.0480   -5.4480   22.6290 C   0  0  0  0  0  0  0  0  0  0  0  0
  -22.6700   -4.7400   21.6560 F   0  0  0  0  0  0  0  0  0  0  0  0
  -20.6660   -4.9240   25.9860 F   0  0  0  0  0  0  0  0  0  0  0  0
  -23.6190  -13.9170   21.3160 C   0  0  0  0  0  0  0  0  0  0  0  0
  -23.0140  -13.2470   22.2890 N   0  0  0  0  0  0  0  0  0  0  0  0
  -23.1650  -14.9840   20.9030 O   0  0  0  0  0  0  0  0  0  0  0  0
  -23.3980  -12.3880   22.6540 H   0  0  0  0  0  0  0  0  0  0  0  0
  -22.1540  -13.6020   22.6870 H   0  0  0  0  0  0  0  0  0  0  0  0
  -26.1330  -15.4540   20.1490 N   0  0  0  0  0  0  0  0  0  0  0  0
  -25.4230  -16.1230   20.4270 H   0  0  0  0  0  0  0  0  0  0  0  0
  -26.8760  -15.8660   19.5980 H   0  0  0  0  0  0  0  0  0  0  0  0
  -29.2100  -21.6840   18.4260 C   0  0  0  0  0  2  0  0  0  0  0  0
  -29.3600  -23.3190   18.8210 C   0  0  0  0  0  3  0  0  0  0  0  0
  -28.2760  -24.5290   18.3580 C   0  0  0  0  0  3  0  0  0  0  0  0
  -28.4180  -26.0760   18.4760 O   0  0  0  0  0  0  0  0  0  0  0  0
  -24.6530  -30.9820   22.4680 C   0  0  0  0  0  0  0  0  0  0  0  0
  -27.2860  -26.9610   18.6080 C   0  0  0  0  0  0  0  0  0  0  0  0
  -23.4100  -29.7190   20.7560 C   0  0  0  0  0  3  0  0  0  0  0  0
  -24.8330  -28.4800   19.0070 C   0  0  0  0  0  0  0  0  0  0  0  0
  -25.9120  -30.2170   20.4280 C   0  0  0  0  0  2  0  0  0  0  0  0
  -26.0290  -28.9410   19.5800 C   0  0  0  0  0  0  0  0  0  0  0  0
  -27.2480  -28.1960   19.3680 C   0  0  0  0  0  3  0  0  0  0  0  0
  -26.0600  -26.6130   17.9930 C   0  0  0  0  0  3  0  0  0  0  0  0
  -24.8620  -27.3350   18.1950 C   0  0  0  0  0  3  0  0  0  0  0  0
  -23.5540  -29.2570   19.2830 C   0  0  0  0  0  2  0  0  0  0  0  0
  -24.6810  -30.3190   21.2730 N   0  0  0  0  0  0  0  0  0  0  0  0
  -23.6050  -31.1020   23.1210 O   0  0  0  0  0  0  0  0  0  0  0  0
  -22.9000  -28.5410   21.6220 C   0  0  0  0  0  0  0  0  0  0  0  0
  -21.5860  -28.2500   21.5520 N   0  0  0  0  0  0  0  0  0  0  0  0
  -23.6820  -27.8950   22.3210 O   0  0  0  0  0  0  0  0  0  0  0  0
  -20.9960  -28.8310   20.9700 H   0  0  0  0  0  0  0  0  0  0  0  0
  -18.4110  -26.5620   22.0170 C   0  0  0  0  0  0  0  0  0  0  0  0
  -20.9220  -27.1470   22.2480 C   0  0  0  0  0  3  0  0  0  0  0  0
  -21.1950  -25.7960   21.5450 C   0  0  0  0  0  2  0  0  0  0  0  0
  -20.1060  -25.3940   20.5470 C   0  0  0  0  0  2  0  0  0  0  0  0
  -18.7430  -25.3010   21.2390 C   0  0  0  0  0  2  0  0  0  0  0  0
  -19.4340  -27.4300   22.4860 C   0  0  0  0  0  0  0  0  0  0  0  0
  -19.0670  -28.5970   23.1910 C   0  0  0  0  0  3  0  0  0  0  0  0
  -17.7140  -28.9070   23.4230 C   0  0  0  0  0  3  0  0  0  0  0  0
  -16.7100  -28.0380   22.9650 C   0  0  0  0  0  3  0  0  0  0  0  0
  -17.0560  -26.8680   22.2700 C   0  0  0  0  0  3  0  0  0  0  0  0
  -25.9370  -31.6370   23.0630 C   0  0  0  0  0  3  0  0  0  0  0  0
  -26.6770  -30.7120   24.1060 C   0  0  1  0  0  0  0  0  0  0  0  0
  -25.7530  -30.1810   25.2270 C   0  0  0  0  0  1  0  0  0  0  0  0
  -27.3230  -29.4880   23.4120 C   0  0  0  0  0  1  0  0  0  0  0  0
  -27.8340  -31.4970   24.7690 C   0  0  0  0  0  1  0  0  0  0  0  0
  -25.5390  -32.9070   23.6900 N   0  0  0  0  0  0  0  0  0  0  0  0
  -25.7710  -34.1200   23.1710 C   0  0  0  0  0  0  0  0  0  0  0  0
  -26.4100  -34.2920   22.1290 O   0  0  0  0  0  0  0  0  0  0  0  0
  -24.9660  -32.8390   24.5180 H   0  0  0  0  0  0  0  0  0  0  0  0
  -23.9210  -35.8240   23.2380 C   0  0  0  0  0  1  0  0  0  0  0  0
  -25.2070  -35.3390   23.9270 C   0  0  0  0  0  3  0  0  0  0  0  0
  -27.2890  -36.1770   24.9200 C   0  0  0  0  0  1  0  0  0  0  0  0
  -26.1640  -36.4600   24.0360 N   0  0  0  0  0  0  0  0  0  0  0  0
  -25.6990  -37.2960   24.3770 H   0  0  0  0  0  0  0  0  0  0  0  0
  1  5  1  0
  2  5  1  0
  3  5  1  0
  4  6  1  0
  4  1  1  0
  5  7  1  1
  6  8  1  1
  6  2  1  0
  9  4  1  0
  9  3  1  0
  9 10  1  6
 11 19  1  0
 12 17  1  0
 13 14  1  0
 13 12  1  0
 15 14  1  0
 15 24  1  0
 15 16  1  0
 17 11  1  0
 17 16  1  0
 18 11  2  0
 19  6  1  0
 20 19  1  0
 21 22  2  0
 22 41  1  0
 23 26  1  0
 23 22  1  0
 24 25  1  0
 24 21  1  0
 25 23  2  0
 26 27  1  0
 27 28  2  0
 29 32  1  0
 29 28  1  0
 30 29  2  0
 31 30  1  0
 31 26  2  0
 32 33  1  0
 33 38  2  0
 33 34  1  0
 34 35  2  0
 35 36  1  0
 36 40  1  0
 37 36  2  0
 38 37  1  0
 39 38  1  0
 41 42  1  0
 42 44  1  0
 42 45  1  0
 43 41  2  0
 46 21  1  0
 46 47  1  0
 48 46  1  0
 49 50  1  0
 49  9  1  0
 51 52  1  0
 51 50  2  0
 52 54  1  0
 53 64  2  0
 54 59  1  0
 55 63  1  0
 55 65  1  0
 56 62  1  0
 56 58  1  0
 57 63  1  0
 58 57  1  0
 59 58  2  0
 60 61  1  0
 60 54  2  0
 61 56  2  0
 62 55  1  0
 63 53  1  0
 65 67  2  0
 66 65  1  0
 68 66  1  0
 69 78  2  0
 69 74  1  0
 70 66  1  0
 70 74  1  0
 71 70  1  0
 72 73  1  0
 72 71  1  0
 73 69  1  0
 74 75  2  0
 75 76  1  0
 77 76  2  0
 78 77  1  0
 79 53  1  0
 79 84  1  0
 79 80  1  0
 80 83  1  1
 80 81  1  0
 82 80  1  0
 84 87  1  0
 85 84  1  0
 85 89  1  0
 86 85  2  0
 89 88  1  0
 89 91  1  0
 91 92  1  0
 91 90  1  0
M  ISO  4  11 100  19 100  51 101  52 101
M  END
>  <TORSDO>  (19) 
F 19

>  <SCORE>  (19) 
-8.310

>  <name>  (19) 
18

>  <ligand_id>  (19) 
18

>  <original_smiles>  (19) 
[H]c1c([H])c([H])c2c(c1[H])C([H])([H])C([H])([H])C([H])([H])C2([H])N([H])C(=O)C1([H])N(C(=O)C([H])(N([H])C(=O)C([H])(N([H])C([H])([H])[H])C([H])([H])[H])C(C([H])([H])[H])(C([H])([H])[H])C([H])([H])[H])C([H])([H])c2c([H])c(OC([H])([H])C([H])([H])C([H])([H])[N+]3([H])C([H])([H])C4(C([H])([H])[H])C([H])([H])C(N([H])C(=O)N5C([H])([H])C([H])([H])C([H])([H])C([H])(n6nc(-c7c([H])c([H])c(Oc8c([H])c([H])c(F)c([H])c8F)c([H])c7[H])c(C(=O)N([H])[H])c6N([H])[H])C5([H])[H])(C([H])([H])[H])C3([H])C4([H])[H])c([H])c([H])c2C1([H])[H]

>  <smiles>  (19) 
[H]c1c([H])c([H])c2c(c1[H])C([H])([H])C([H])([H])C([H])([H])C2([H])N([H])C(=O)C1([H])N(C(=O)C([H])(N([H])C(=O)C([H])(N([H])C([H])([H])[H])C([H])([H])[H])C(C([H])([H])[H])(C([H])([H])[H])C([H])([H])[H])C([H])([H])c2c([H])c(OC([H])([H])C([H])([H])C([H])([H])[N+]3([H])C([H])([H])C4(C([H])([H])[H])C([H])([H])C(N([H])C(=O)N5C([H])([H])C([H])([H])C([H])([H])C([H])(n6nc(-c7c([H])c([H])c(Oc8c([H])c([H])c(F)c([H])c8F)c([H])c7[H])c(C(=O)N([H])[H])c6N([H])[H])C5([H])[H])(C([H])([H])[H])C3([H])C4([H])[H])c([H])c([H])c2C1([H])[H]

$$$$
19:0:0
     RDKit          3D

 93102  0  0  1  0  0  0  0  0999 V2000
  -30.0830  -22.4550   20.2290 C   0  0  0  0  0  0  0  0  0  0  0  0
  -30.3870  -21.5250   19.2440 N   0  0  0  0  0  0  0  0  0  0  0  0
  -30.7990  -22.5110   21.2380 O   0  0  0  0  0  0  0  0  0  0  0  0
  -29.7870  -21.5610   18.4260 H   0  0  0  0  0  0  0  0  0  0  0  0
  -28.8150  -23.4470   20.1190 C   0  0  0  0  0  2  0  0  0  0  0  0
  -28.6800  -24.7690   21.0460 C   0  0  0  0  0  2  0  0  0  0  0  0
  -28.8170  -26.1600   20.4970 O   0  0  0  0  0  0  0  0  0  0  0  0
  -24.9030  -31.5810   23.1910 C   0  0  0  0  0  0  0  0  0  0  0  0
  -27.7020  -27.0050   20.3940 C   0  0  0  0  0  0  0  0  0  0  0  0
  -23.8040  -30.1770   21.4810 C   0  0  0  0  0  3  0  0  0  0  0  0
  -25.3450  -28.6150   20.1580 C   0  0  0  0  0  0  0  0  0  0  0  0
  -26.3400  -30.5100   21.4450 C   0  0  0  0  0  2  0  0  0  0  0  0
  -26.4710  -29.1210   20.8230 C   0  0  0  0  0  0  0  0  0  0  0  0
  -27.6580  -28.3410   20.9080 C   0  0  0  0  0  3  0  0  0  0  0  0
  -26.5750  -26.5530   19.6900 C   0  0  0  0  0  3  0  0  0  0  0  0
  -25.4120  -27.3440   19.5580 C   0  0  0  0  0  3  0  0  0  0  0  0
  -24.1030  -29.4860   20.1210 C   0  0  0  0  0  2  0  0  0  0  0  0
  -25.0330  -30.7700   22.1030 N   0  0  0  0  0  0  0  0  0  0  0  0
  -23.7900  -31.8610   23.6600 O   0  0  0  0  0  0  0  0  0  0  0  0
  -23.0730  -29.1680   22.4050 C   0  0  0  0  0  0  0  0  0  0  0  0
  -21.7400  -29.0690   22.2610 N   0  0  0  0  0  0  0  0  0  0  0  0
  -23.7070  -28.4850   23.2160 O   0  0  0  0  0  0  0  0  0  0  0  0
  -21.2840  -29.6890   21.6040 H   0  0  0  0  0  0  0  0  0  0  0  0
  -18.2880  -28.1390   22.7930 C   0  0  0  0  0  0  0  0  0  0  0  0
  -20.8600  -28.1430   22.9870 C   0  0  0  0  0  3  0  0  0  0  0  0
  -20.8130  -26.7550   22.3010 C   0  0  0  0  0  2  0  0  0  0  0  0
  -19.6560  -26.6130   21.3100 C   0  0  0  0  0  2  0  0  0  0  0  0
  -18.3140  -26.8360   22.0150 C   0  0  0  0  0  2  0  0  0  0  0  0
  -19.4840  -28.7600   23.2370 C   0  0  0  0  0  0  0  0  0  0  0  0
  -19.4010  -29.9880   23.9290 C   0  0  0  0  0  3  0  0  0  0  0  0
  -18.1550  -30.5880   24.1830 C   0  0  0  0  0  3  0  0  0  0  0  0
  -16.9720  -29.9620   23.7530 C   0  0  0  0  0  3  0  0  0  0  0  0
  -17.0390  -28.7360   23.0650 C   0  0  0  0  0  3  0  0  0  0  0  0
  -26.1500  -32.2050   23.8920 C   0  0  0  0  0  3  0  0  0  0  0  0
  -25.7810  -33.5610   24.3270 N   0  0  0  0  0  0  0  0  0  0  0  0
  -26.1350  -34.6840   23.6880 C   0  0  0  0  0  0  0  0  0  0  0  0
  -26.8710  -34.6930   22.6990 O   0  0  0  0  0  0  0  0  0  0  0  0
  -25.1320  -33.6300   25.0970 H   0  0  0  0  0  0  0  0  0  0  0  0
  -24.4230  -36.5020   23.3420 C   0  0  0  0  0  1  0  0  0  0  0  0
  -25.5790  -36.0180   24.2340 C   0  0  0  0  0  3  0  0  0  0  0  0
  -27.6030  -36.8230   25.3660 C   0  0  0  0  0  1  0  0  0  0  0  0
  -26.5990  -37.0830   24.3370 N   0  0  0  0  0  0  0  0  0  0  0  0
  -26.1610  -37.9770   24.5420 H   0  0  0  0  0  0  0  0  0  0  0  0
  -26.6670  -31.3540   25.1140 C   0  0  1  0  0  0  0  0  0  0  0  0
  -25.5480  -30.9220   26.0900 C   0  0  0  0  0  1  0  0  0  0  0  0
  -27.3890  -30.0750   24.6230 C   0  0  0  0  0  1  0  0  0  0  0  0
  -27.7030  -32.1710   25.9250 C   0  0  0  0  0  1  0  0  0  0  0  0
  -31.4720  -20.4390   19.1980 C   0  0  0  0  0  2  0  0  0  0  0  0
  -32.7180  -15.3640   19.5620 C   0  0  0  0  0  0  0  0  0  0  0  0
  -32.4760  -12.9800   18.8180 C   0  0  0  0  0  2  0  0  0  0  0  0
  -31.3970  -12.8710   17.7240 C   0  0  0  0  0  2  0  0  0  0  0  0
  -29.9900  -12.7340   18.3350 C   0  0  0  0  0  2  0  0  0  0  0  0
  -29.7500  -13.7460   19.4890 C   0  0  0  0  0  3  0  0  0  0  0  0
  -30.9290  -13.7640   20.4780 C   0  0  0  0  0  2  0  0  0  0  0  0
  -32.1230  -14.1230   19.7010 N   0  0  0  0  0  0  0  0  0  0  0  0
  -33.8350  -15.4180   19.0290 O   0  0  0  0  0  0  0  0  0  0  0  0
  -30.7470  -16.9660   20.3390 C   0  0  0  0  0  3  0  0  0  0  0  0
  -30.4120  -17.9020   19.1490 C   0  0  0  0  0  3  0  0  0  0  0  0
  -31.1780  -19.0340   18.4950 C   0  0  0  0  0  3  0  0  0  0  0  0
  -31.7750  -17.5460   18.5430 C   0  0  0  0  0  3  0  0  0  0  0  0
  -31.9300  -16.5250   19.5950 N   0  0  0  0  0  0  0  0  0  0  0  0
  -27.6670  -14.4360   20.8010 C   0  0  0  0  0  0  0  0  0  0  0  0
  -26.5740  -13.7320   21.2260 C   0  0  0  0  0  0  0  0  0  0  0  0
  -26.7930  -12.3840   20.8110 C   0  0  0  0  0  0  0  0  0  0  0  0
  -28.4870  -13.5200   20.1690 N   0  0  0  0  0  0  0  0  0  0  0  0
  -27.9780  -12.2650   20.2290 N   0  0  0  0  0  0  0  0  0  0  0  0
  -25.9140  -11.2070   20.8840 C   0  0  0  0  0  0  0  0  0  0  0  0
  -26.1150  -10.1980   21.8480 C   0  0  0  0  0  3  0  0  0  0  0  0
  -25.2530   -9.0830   21.9050 C   0  0  0  0  0  3  0  0  0  0  0  0
  -24.1740   -8.9730   20.9970 C   0  0  0  0  0  0  0  0  0  0  0  0
  -23.9880   -9.9690   20.0250 C   0  0  0  0  0  3  0  0  0  0  0  0
  -24.8510  -11.0820   19.9670 C   0  0  0  0  0  3  0  0  0  0  0  0
  -23.3000   -7.9140   20.9660 O   0  0  0  0  0  0  0  0  0  0  0  0
  -22.7010   -7.4350   22.1010 C   0  0  0  0  0  0  0  0  0  0  0  0
  -21.9200   -8.2670   22.9340 C   0  0  0  0  0  3  0  0  0  0  0  0
  -21.2750   -7.7280   24.0630 C   0  0  0  0  0  3  0  0  0  0  0  0
  -21.3830   -6.3520   24.3470 C   0  0  0  0  0  0  0  0  0  0  0  0
  -22.1490   -5.5190   23.5130 C   0  0  0  0  0  3  0  0  0  0  0  0
  -22.8060   -6.0580   22.3960 C   0  0  0  0  0  0  0  0  0  0  0  0
  -23.5330   -5.2520   21.5830 F   0  0  0  0  0  0  0  0  0  0  0  0
  -20.7480   -5.8280   25.4200 F   0  0  0  0  0  0  0  0  0  0  0  0
  -25.3610  -14.3060   21.8860 C   0  0  0  0  0  0  0  0  0  0  0  0
  -24.6300  -13.4950   22.6460 N   0  0  0  0  0  0  0  0  0  0  0  0
  -25.0750  -15.4960   21.7740 O   0  0  0  0  0  0  0  0  0  0  0  0
  -24.8730  -12.5210   22.7500 H   0  0  0  0  0  0  0  0  0  0  0  0
  -23.8250  -13.8580   23.1350 H   0  0  0  0  0  0  0  0  0  0  0  0
  -28.0100  -15.7820   20.8760 N   0  0  0  0  0  0  0  0  0  0  0  0
  -27.3540  -16.4720   21.2250 H   0  0  0  0  0  0  0  0  0  0  0  0
  -28.7400  -16.1750   20.2970 H   0  0  0  0  0  0  0  0  0  0  0  0
  -31.0150  -17.7840   21.6070 C   0  0  0  0  0  0  0  0  0  0  0  0
  -32.1300  -17.8890   22.1280 O   0  0  0  0  0  0  0  0  0  0  0  0
  -30.0140  -19.3540   23.4470 C   0  0  0  0  0  1  0  0  0  0  0  0
  -29.7710  -18.4560   22.2180 C   0  0  0  0  0  2  0  0  0  0  0  0
  1  3  2  0
  2  1  1  0
  4  2  1  0
  5  1  1  0
  5  6  1  0
  7  6  1  0
  8 19  2  0
  9  7  1  0
  9 14  1  0
 10 18  1  0
 10 20  1  0
 11 13  1  0
 12 18  1  0
 13 14  2  0
 13 12  1  0
 15  9  2  0
 16 15  1  0
 16 11  2  0
 17 11  1  0
 17 10  1  0
 18  8  1  0
 20 22  2  0
 21 20  1  0
 23 21  1  0
 24 33  2  0
 24 29  1  0
 25 21  1  0
 25 29  1  0
 26 25  1  0
 27 28  1  0
 27 26  1  0
 28 24  1  0
 29 30  2  0
 30 31  1  0
 32 31  2  0
 33 32  1  0
 34  8  1  0
 34 35  1  0
 34 44  1  0
 35 38  1  0
 36 40  1  0
 36 35  1  0
 37 36  2  0
 40 39  1  0
 40 42  1  0
 42 43  1  0
 42 41  1  0
 44 47  1  1
 44 45  1  0
 46 44  1  0
 48  2  1  0
 49 61  1  0
 49 55  1  0
 50 55  1  0
 51 52  1  0
 51 50  1  0
 53 52  1  0
 53 65  1  0
 53 54  1  0
 55 54  1  0
 56 49  2  0
 57 90  1  0
 58 57  1  0
 59 60  1  0
 59 58  1  0
 59 48  1  0
 60 58  1  0
 60 61  1  0
 61 57  1  0
 62 87  1  0
 62 63  2  0
 63 82  1  0
 64 67  1  0
 64 63  1  0
 65 66  1  0
 65 62  1  0
 66 64  2  0
 67 68  1  0
 68 69  2  0
 70 69  1  0
 71 70  2  0
 72 71  1  0
 72 67  2  0
 73 70  1  0
 73 74  1  0
 74 79  2  0
 74 75  1  0
 75 76  2  0
 76 77  1  0
 77 81  1  0
 78 77  2  0
 79 78  1  0
 80 79  1  0
 82 83  1  0
 83 85  1  0
 83 86  1  0
 84 82  2  0
 87 88  1  0
 89 87  1  0
 90 91  2  0
 90 93  1  0
 93 92  1  0
M  ISO  4   6 101   7 101  49 100  61 100
M  END
>  <TORSDO>  (20) 
F 21

>  <SCORE>  (20) 
-6.385

>  <name>  (20) 
19

>  <ligand_id>  (20) 
19

>  <original_smiles>  (20) 
[H]c1c([H])c([H])c2c(c1[H])C([H])([H])C([H])([H])C([H])([H])C2([H])N([H])C(=O)C1([H])N(C(=O)C([H])(N([H])C(=O)C([H])(N([H])C([H])([H])[H])C([H])([H])[H])C(C([H])([H])[H])(C([H])([H])[H])C([H])([H])[H])C([H])([H])c2c([H])c(OC([H])([H])C([H])([H])C(=O)N([H])C([H])([H])C3([H])C4([H])N(C(=O)N5C([H])([H])C([H])([H])C([H])([H])C([H])(n6nc(-c7c([H])c([H])c(Oc8c([H])c([H])c(F)c([H])c8F)c([H])c7[H])c(C(=O)N([H])[H])c6N([H])[H])C5([H])[H])C([H])(C(=O)C([H])([H])C([H])([H])[H])C43[H])c([H])c([H])c2C1([H])[H]

>  <smiles>  (20) 
[H]c1c([H])c([H])c2c(c1[H])C([H])([H])C([H])([H])C([H])([H])C2([H])N([H])C(=O)C1([H])N(C(=O)C([H])(N([H])C(=O)C([H])(N([H])C([H])([H])[H])C([H])([H])[H])C(C([H])([H])[H])(C([H])([H])[H])C([H])([H])[H])C([H])([H])c2c([H])c(OC([H])([H])C([H])([H])C(=O)N([H])C([H])([H])C3([H])C4([H])N(C(=O)N5C([H])([H])C([H])([H])C([H])([H])C([H])(n6nc(-c7c([H])c([H])c(Oc8c([H])c([H])c(F)c([H])c8F)c([H])c7[H])c(C(=O)N([H])[H])c6N([H])[H])C5([H])[H])C([H])(C(=O)C([H])([H])C([H])([H])[H])C43[H])c([H])c([H])c2C1([H])[H]

$$$$
20:0:0
     RDKit          3D

 92101  0  0  1  0  0  0  0  0999 V2000
  -26.0360  -22.8450   19.4790 C   0  0  0  0  0  2  0  0  0  0  0  0
  -26.4180  -22.2170   20.8280 C   0  0  0  0  0  2  0  0  0  0  0  0
  -27.3590  -23.0450   18.7200 C   0  0  0  0  0  2  0  0  0  0  0  0
  -28.1620  -20.3250   20.4030 C   0  0  0  0  0  2  0  0  0  0  0  0
  -29.8490  -22.4480   19.3130 C   0  0  0  0  0  2  0  0  0  0  0  0
  -27.9300  -21.9350   20.7520 C   0  0  0  0  0  3  0  0  0  0  0  0
  -29.5140  -19.7600   19.7460 C   0  0  0  0  0  3  0  0  0  0  0  0
  -28.4520  -23.1310   19.8020 C   0  0  2  0  0  0  0  0  0  0  0  0
  -30.3430  -21.0530   19.8360 N   0  0  0  0  0  4  0  0  0  0  0  0
  -31.2190  -20.8750   19.3730 H   0  0  0  0  0  0  0  0  0  0  0  0
  -30.5720  -21.1850   20.8070 H   0  0  0  0  0  0  0  0  0  0  0  0
  -30.3250  -18.2330   20.1510 C   0  0  0  0  0  2  0  0  0  0  0  0
  -30.7400  -15.4080   19.9230 C   0  0  0  0  0  0  0  0  0  0  0  0
  -30.6720  -12.9700   19.0970 C   0  0  0  0  0  2  0  0  0  0  0  0
  -29.7020  -12.7730   17.9060 C   0  0  0  0  0  2  0  0  0  0  0  0
  -28.2640  -12.5350   18.4000 C   0  0  0  0  0  2  0  0  0  0  0  0
  -27.8670  -13.5240   19.5260 C   0  0  0  0  0  3  0  0  0  0  0  0
  -28.9550  -13.6630   20.6110 C   0  0  0  0  0  2  0  0  0  0  0  0
  -30.1690  -14.1190   19.9240 N   0  0  0  0  0  0  0  0  0  0  0  0
  -31.9470  -15.4340   19.6500 O   0  0  0  0  0  0  0  0  0  0  0  0
  -29.9660  -16.6420   20.0360 N   0  0  0  0  0  0  0  0  0  0  0  0
  -28.9870  -16.4500   20.1880 H   0  0  0  0  0  0  0  0  0  0  0  0
  -25.5480  -14.1120   20.4150 C   0  0  0  0  0  0  0  0  0  0  0  0
  -24.4920  -13.3460   20.8190 C   0  0  0  0  0  0  0  0  0  0  0  0
  -24.9310  -11.9890   20.7300 C   0  0  0  0  0  0  0  0  0  0  0  0
  -26.5590  -13.2240   20.0940 N   0  0  0  0  0  0  0  0  0  0  0  0
  -26.2040  -11.9390   20.3530 N   0  0  0  0  0  0  0  0  0  0  0  0
  -24.1920  -10.7350   20.9250 C   0  0  0  0  0  0  0  0  0  0  0  0
  -24.6130   -9.7660   21.8610 C   0  0  0  0  0  3  0  0  0  0  0  0
  -23.8750   -8.5770   22.0440 C   0  0  0  0  0  3  0  0  0  0  0  0
  -22.6980   -8.3510   21.2920 C   0  0  0  0  0  0  0  0  0  0  0  0
  -22.2930   -9.3070   20.3440 C   0  0  0  0  0  3  0  0  0  0  0  0
  -23.0330  -10.4870   20.1590 C   0  0  0  0  0  3  0  0  0  0  0  0
  -21.9260   -7.2170   21.3880 O   0  0  0  0  0  0  0  0  0  0  0  0
  -21.8130   -6.5180   22.5640 C   0  0  0  0  0  0  0  0  0  0  0  0
  -21.3060   -7.1160   23.7400 C   0  0  0  0  0  3  0  0  0  0  0  0
  -21.1440   -6.3440   24.9080 C   0  0  0  0  0  3  0  0  0  0  0  0
  -21.4760   -4.9770   24.8980 C   0  0  0  0  0  0  0  0  0  0  0  0
  -21.9740   -4.3780   23.7270 C   0  0  0  0  0  3  0  0  0  0  0  0
  -22.1390   -5.1470   22.5620 C   0  0  0  0  0  0  0  0  0  0  0  0
  -22.6000   -4.5630   21.4310 F   0  0  0  0  0  0  0  0  0  0  0  0
  -21.3120   -4.2320   26.0170 F   0  0  0  0  0  0  0  0  0  0  0  0
  -23.1180  -13.8370   21.1680 C   0  0  0  0  0  0  0  0  0  0  0  0
  -22.4280  -13.1460   22.0650 N   0  0  0  0  0  0  0  0  0  0  0  0
  -22.6730  -14.8760   20.6800 O   0  0  0  0  0  0  0  0  0  0  0  0
  -22.7980  -12.3030   22.4800 H   0  0  0  0  0  0  0  0  0  0  0  0
  -21.5100  -13.4620   22.3400 H   0  0  0  0  0  0  0  0  0  0  0  0
  -25.7250  -15.4840   20.2610 N   0  0  0  0  0  0  0  0  0  0  0  0
  -24.9660  -16.1360   20.4270 H   0  0  0  0  0  0  0  0  0  0  0  0
  -26.5330  -15.9170   19.8340 H   0  0  0  0  0  0  0  0  0  0  0  0
  -28.3250  -24.7850   20.4040 C   0  0  0  0  0  2  0  0  0  0  0  0
  -28.3740  -26.2750   19.8300 O   0  0  0  0  0  0  0  0  0  0  0  0
  -24.6010  -31.8610   23.0750 C   0  0  0  0  0  0  0  0  0  0  0  0
  -27.2930  -27.2570   19.8970 C   0  0  0  0  0  0  0  0  0  0  0  0
  -23.4350  -30.4750   21.4060 C   0  0  0  0  0  3  0  0  0  0  0  0
  -24.9210  -28.9770   19.9280 C   0  0  0  0  0  0  0  0  0  0  0  0
  -25.9820  -30.8110   21.2300 C   0  0  0  0  0  2  0  0  0  0  0  0
  -26.0970  -29.4320   20.5380 C   0  0  0  0  0  0  0  0  0  0  0  0
  -27.2860  -28.5940   20.4950 C   0  0  0  0  0  3  0  0  0  0  0  0
  -26.0850  -26.9210   19.2540 C   0  0  0  0  0  3  0  0  0  0  0  0
  -24.9290  -27.7380   19.2680 C   0  0  0  0  0  3  0  0  0  0  0  0
  -23.6690  -29.8420   20.0090 C   0  0  0  0  0  2  0  0  0  0  0  0
  -24.6930  -31.0710   21.9600 N   0  0  0  0  0  0  0  0  0  0  0  0
  -23.5100  -32.0950   23.6180 O   0  0  0  0  0  0  0  0  0  0  0  0
  -22.7920  -29.4220   22.3440 C   0  0  0  0  0  0  0  0  0  0  0  0
  -21.4690  -29.2160   22.2250 N   0  0  0  0  0  0  0  0  0  0  0  0
  -23.4880  -28.7930   23.1430 O   0  0  0  0  0  0  0  0  0  0  0  0
  -20.9620  -29.7740   21.5530 H   0  0  0  0  0  0  0  0  0  0  0  0
  -18.1320  -27.8940   22.7230 C   0  0  0  0  0  0  0  0  0  0  0  0
  -20.6850  -28.2290   22.9730 C   0  0  0  0  0  3  0  0  0  0  0  0
  -20.8240  -26.8200   22.3490 C   0  0  0  0  0  2  0  0  0  0  0  0
  -19.7230  -26.5000   21.3340 C   0  0  0  0  0  2  0  0  0  0  0  0
  -18.3490  -26.5730   22.0040 C   0  0  0  0  0  2  0  0  0  0  0  0
  -19.2310  -28.6780   23.1670 C   0  0  0  0  0  0  0  0  0  0  0  0
  -18.9770  -29.9090   23.8100 C   0  0  0  0  0  3  0  0  0  0  0  0
  -17.6590  -30.3610   24.0080 C   0  0  0  0  0  3  0  0  0  0  0  0
  -16.5750  -29.5750   23.5740 C   0  0  0  0  0  3  0  0  0  0  0  0
  -16.8130  -28.3430   22.9390 C   0  0  0  0  0  3  0  0  0  0  0  0
  -25.8600  -32.5210   23.7140 C   0  0  0  0  0  3  0  0  0  0  0  0
  -25.5100  -33.9050   24.0750 N   0  0  0  0  0  0  0  0  0  0  0  0
  -25.8220  -34.9860   23.3500 C   0  0  0  0  0  0  0  0  0  0  0  0
  -26.5020  -34.9260   22.3220 O   0  0  0  0  0  0  0  0  0  0  0  0
  -24.9050  -34.0230   24.8740 H   0  0  0  0  0  0  0  0  0  0  0  0
  -24.0640  -36.7600   23.0250 C   0  0  0  0  0  1  0  0  0  0  0  0
  -25.3010  -36.3530   23.8420 C   0  0  0  0  0  3  0  0  0  0  0  0
  -27.4020  -37.2590   24.7360 C   0  0  0  0  0  1  0  0  0  0  0  0
  -26.3160  -37.4300   23.7760 N   0  0  0  0  0  0  0  0  0  0  0  0
  -25.8880  -38.3380   23.9420 H   0  0  0  0  0  0  0  0  0  0  0  0
  -26.3880  -31.7420   24.9820 C   0  0  1  0  0  0  0  0  0  0  0  0
  -25.2970  -31.4710   26.0430 C   0  0  0  0  0  1  0  0  0  0  0  0
  -26.9990  -30.3810   24.5780 C   0  0  0  0  0  1  0  0  0  0  0  0
  -27.5220  -32.5500   25.6560 C   0  0  0  0  0  1  0  0  0  0  0  0
  1  2  1  0
  3  1  1  0
  3  8  1  0
  5  8  1  0
  5  9  1  0
  6  4  1  0
  6  2  1  0
  7  9  1  0
  7 12  1  0
  7  4  1  0
  8 51  1  1
  8  6  1  0
  9 11  1  0
 10  9  1  0
 13 19  1  0
 13 21  1  0
 14 19  1  0
 15 16  1  0
 15 14  1  0
 17 16  1  0
 17 26  1  0
 17 18  1  0
 19 18  1  0
 20 13  2  0
 21 12  1  0
 21 22  1  0
 23 24  2  0
 24 43  1  0
 25 24  1  0
 25 28  1  0
 26 27  1  0
 26 23  1  0
 27 25  2  0
 28 29  1  0
 29 30  2  0
 31 34  1  0
 31 30  1  0
 32 31  2  0
 33 32  1  0
 33 28  2  0
 34 35  1  0
 35 36  1  0
 36 37  2  0
 38 37  1  0
 38 42  1  0
 39 38  2  0
 40 35  2  0
 40 39  1  0
 41 40  1  0
 43 44  1  0
 44 47  1  0
 44 46  1  0
 45 43  2  0
 48 23  1  0
 48 49  1  0
 50 48  1  0
 52 54  1  0
 52 51  1  0
 53 64  2  0
 54 59  1  0
 55 63  1  0
 55 65  1  0
 56 62  1  0
 56 58  1  0
 57 63  1  0
 58 57  1  0
 59 58  2  0
 60 61  1  0
 60 54  2  0
 61 56  2  0
 62 55  1  0
 63 53  1  0
 65 67  2  0
 66 65  1  0
 68 66  1  0
 69 78  2  0
 69 74  1  0
 70 66  1  0
 70 74  1  0
 71 70  1  0
 72 73  1  0
 72 71  1  0
 73 69  1  0
 74 75  2  0
 75 76  1  0
 77 76  2  0
 78 77  1  0
 79 53  1  0
 79 80  1  0
 79 89  1  0
 80 83  1  0
 81 85  1  0
 81 80  1  0
 82 81  2  0
 85 84  1  0
 87 85  1  0
 87 88  1  0
 87 86  1  0
 89 92  1  1
 89 90  1  0
 91 89  1  0
M  ISO  4  13 100  21 100  51 101  52 101
M  END
>  <TORSDO>  (21) 
F 18

>  <SCORE>  (21) 
-14.957

>  <name>  (21) 
20

>  <ligand_id>  (21) 
20

>  <original_smiles>  (21) 
[H]c1c([H])c([H])c2c(c1[H])C([H])([H])C([H])([H])C([H])([H])C2([H])N([H])C(=O)C1([H])N(C(=O)C([H])(N([H])C(=O)C([H])(N([H])C([H])([H])[H])C([H])([H])[H])C(C([H])([H])[H])(C([H])([H])[H])C([H])([H])[H])C([H])([H])c2c([H])c(OC([H])([H])C34C([H])([H])C([H])([H])C([H])([H])C3([H])C([H])([H])C([H])(C([H])([H])N([H])C(=O)N3C([H])([H])C([H])([H])C([H])([H])C([H])(n5nc(-c6c([H])c([H])c(Oc7c([H])c([H])c(F)c([H])c7F)c([H])c6[H])c(C(=O)N([H])[H])c5N([H])[H])C3([H])[H])[N+]([H])([H])C4([H])[H])c([H])c([H])c2C1([H])[H]

>  <smiles>  (21) 
[H]c1c([H])c([H])c2c(c1[H])C([H])([H])C([H])([H])C([H])([H])C2([H])N([H])C(=O)C1([H])N(C(=O)C([H])(N([H])C(=O)C([H])(N([H])C([H])([H])[H])C([H])([H])[H])C(C([H])([H])[H])(C([H])([H])[H])C([H])([H])[H])C([H])([H])c2c([H])c(OC([H])([H])C34C([H])([H])C([H])([H])C([H])([H])C3([H])C([H])([H])C([H])(C([H])([H])N([H])C(=O)N3C([H])([H])C([H])([H])C([H])([H])C([H])(n5nc(-c6c([H])c([H])c(Oc7c([H])c([H])c(F)c([H])c7F)c([H])c6[H])c(C(=O)N([H])[H])c5N([H])[H])C3([H])[H])[N+]([H])([H])C4([H])[H])c([H])c([H])c2C1([H])[H]

$$$$
21:0:0
     RDKit          3D

 96103  0  0  1  0  0  0  0  0999 V2000
  -31.8780  -23.8130   22.4340 C   0  0  0  0  0  2  0  0  0  0  0  0
  -31.2210  -22.6140   21.7340 C   0  0  0  0  0  2  0  0  0  0  0  0
  -32.1200  -21.9270   20.6970 C   0  0  0  0  0  2  0  0  0  0  0  0
  -31.3720  -21.7130   19.3680 C   0  0  0  0  0  2  0  0  0  0  0  0
  -32.0800  -22.3240   18.2270 N   0  0  0  0  0  4  0  0  0  0  0  0
  -32.6450  -21.6240   17.7710 H   0  0  0  0  0  0  0  0  0  0  0  0
  -32.6970  -23.0300   18.5910 H   0  0  0  0  0  0  0  0  0  0  0  0
  -31.1870  -22.9510   17.2290 C   0  0  0  0  0  2  0  0  0  0  0  0
  -31.6380  -24.3850   16.9110 C   0  0  0  0  0  2  0  0  0  0  0  0
  -30.6280  -25.2090   16.0930 C   0  0  0  0  0  2  0  0  0  0  0  0
  -28.8030  -25.8150   17.6780 C   0  0  0  0  0  0  0  0  0  0  0  0
  -27.3610  -27.7510   18.1480 C   0  0  0  0  0  2  0  0  0  0  0  0
  -26.2470  -27.5300   19.1790 C   0  0  0  0  0  2  0  0  0  0  0  0
  -24.9930  -26.9670   18.4950 C   0  0  0  0  0  2  0  0  0  0  0  0
  -25.3080  -25.7260   17.6200 C   0  0  0  0  0  3  0  0  0  0  0  0
  -26.5020  -25.9880   16.6760 C   0  0  0  0  0  2  0  0  0  0  0  0
  -27.6440  -26.4800   17.4680 N   0  0  0  0  0  0  0  0  0  0  0  0
  -29.5410  -26.0080   18.6500 O   0  0  0  0  0  0  0  0  0  0  0  0
  -29.2410  -25.1940   16.5740 N   0  0  0  0  0  0  0  0  0  0  0  0
  -28.5380  -25.1000   15.8540 H   0  0  0  0  0  0  0  0  0  0  0  0
  -23.4060  -24.1040   16.9990 C   0  0  0  0  0  0  0  0  0  0  0  0
  -22.3450  -24.2230   16.1420 C   0  0  0  0  0  0  0  0  0  0  0  0
  -22.4670  -25.5130   15.5400 C   0  0  0  0  0  0  0  0  0  0  0  0
  -24.1220  -25.2860   16.8860 N   0  0  0  0  0  0  0  0  0  0  0  0
  -23.5750  -26.1140   15.9580 N   0  0  0  0  0  0  0  0  0  0  0  0
  -21.5660  -26.2310   14.6290 C   0  0  0  0  0  0  0  0  0  0  0  0
  -22.0170  -26.7350   13.3880 C   0  0  0  0  0  3  0  0  0  0  0  0
  -21.1270  -27.4060   12.5220 C   0  0  0  0  0  3  0  0  0  0  0  0
  -19.7710  -27.5770   12.8910 C   0  0  0  0  0  0  0  0  0  0  0  0
  -19.3340  -27.0940   14.1370 C   0  0  0  0  0  3  0  0  0  0  0  0
  -20.2210  -26.4300   14.9990 C   0  0  0  0  0  3  0  0  0  0  0  0
  -18.8410  -28.2390   12.1250 O   0  0  0  0  0  0  0  0  0  0  0  0
  -18.9370  -28.2850   10.7570 C   0  0  0  0  0  0  0  0  0  0  0  0
  -18.9590  -27.1120    9.9720 C   0  0  0  0  0  3  0  0  0  0  0  0
  -18.9860  -27.2070    8.5670 C   0  0  0  0  0  3  0  0  0  0  0  0
  -18.9840  -28.4690    7.9450 C   0  0  0  0  0  0  0  0  0  0  0  0
  -18.9570  -29.6390    8.7250 C   0  0  0  0  0  3  0  0  0  0  0  0
  -18.9320  -29.5470   10.1280 C   0  0  0  0  0  0  0  0  0  0  0  0
  -18.8850  -30.6750   10.8750 F   0  0  0  0  0  0  0  0  0  0  0  0
  -19.0040  -28.5620    6.5950 F   0  0  0  0  0  0  0  0  0  0  0  0
  -21.2260  -23.2370   15.9600 C   0  0  0  0  0  0  0  0  0  0  0  0
  -20.6770  -23.1500   14.7540 N   0  0  0  0  0  0  0  0  0  0  0  0
  -20.8670  -22.5030   16.8790 O   0  0  0  0  0  0  0  0  0  0  0  0
  -20.9820  -23.7430   13.9960 H   0  0  0  0  0  0  0  0  0  0  0  0
  -19.9380  -22.4820   14.5860 H   0  0  0  0  0  0  0  0  0  0  0  0
  -23.8140  -23.1030   17.8770 N   0  0  0  0  0  0  0  0  0  0  0  0
  -23.2810  -22.2520   18.0230 H   0  0  0  0  0  0  0  0  0  0  0  0
  -24.6250  -23.1690   18.4800 H   0  0  0  0  0  0  0  0  0  0  0  0
  -30.9270  -25.0180   22.4440 C   0  0  0  0  0  2  0  0  0  0  0  0
  -31.6440  -26.3720   22.3050 C   0  0  0  0  0  2  0  0  0  0  0  0
  -30.7390  -27.5040   22.5990 N   0  0  0  0  0  4  0  0  0  0  0  0
  -31.2770  -28.3540   22.5250 H   0  0  0  0  0  0  0  0  0  0  0  0
  -30.4340  -27.4250   23.5560 H   0  0  0  0  0  0  0  0  0  0  0  0
  -29.5540  -27.6210   21.7130 C   0  0  0  0  0  2  0  0  0  0  0  0
  -28.3630  -28.2390   22.4580 C   0  0  0  0  0  2  0  0  0  0  0  0
  -27.9470  -27.3190   23.4690 O   0  0  0  0  0  0  0  0  0  0  0  0
  -27.7640  -31.7010   29.0870 C   0  0  0  0  0  0  0  0  0  0  0  0
  -27.2330  -27.8530   24.5130 C   0  0  0  0  0  0  0  0  0  0  0  0
  -25.8480  -30.1480   28.8620 C   0  0  0  0  0  3  0  0  0  0  0  0
  -25.7030  -28.8900   26.6460 C   0  0  0  0  0  0  0  0  0  0  0  0
  -27.1460  -30.9290   26.8060 C   0  0  0  0  0  2  0  0  0  0  0  0
  -26.8070  -29.6010   26.1640 C   0  0  0  0  0  0  0  0  0  0  0  0
  -27.5780  -29.0870   25.1050 C   0  0  0  0  0  3  0  0  0  0  0  0
  -26.1380  -27.1270   25.0250 C   0  0  0  0  0  3  0  0  0  0  0  0
  -25.3660  -27.6430   26.0870 C   0  0  0  0  0  3  0  0  0  0  0  0
  -24.9250  -29.5270   27.7760 C   0  0  0  0  0  2  0  0  0  0  0  0
  -26.9770  -30.9410   28.2750 N   0  0  0  0  0  0  0  0  0  0  0  0
  -27.5380  -31.7860   30.3020 O   0  0  0  0  0  0  0  0  0  0  0  0
  -26.3180  -29.0220   29.8080 C   0  0  0  0  0  0  0  0  0  0  0  0
  -25.5030  -28.7250   30.8340 N   0  0  0  0  0  0  0  0  0  0  0  0
  -27.3750  -28.4200   29.6000 O   0  0  0  0  0  0  0  0  0  0  0  0
  -24.6590  -29.2710   30.9380 H   0  0  0  0  0  0  0  0  0  0  0  0
  -24.1400  -27.2290   33.8260 C   0  0  0  0  0  0  0  0  0  0  0  0
  -25.7200  -27.6760   31.8290 C   0  0  0  0  0  3  0  0  0  0  0  0
  -25.2690  -26.3000   31.2920 C   0  0  0  0  0  2  0  0  0  0  0  0
  -23.8230  -25.9520   31.6620 C   0  0  0  0  0  2  0  0  0  0  0  0
  -23.6430  -25.9440   33.1830 C   0  0  0  0  0  2  0  0  0  0  0  0
  -25.1030  -28.0510   33.1820 C   0  0  0  0  0  0  0  0  0  0  0  0
  -25.5040  -29.2520   33.8030 C   0  0  0  0  0  3  0  0  0  0  0  0
  -24.9630  -29.6360   35.0450 C   0  0  0  0  0  3  0  0  0  0  0  0
  -24.0240  -28.8100   35.6870 C   0  0  0  0  0  3  0  0  0  0  0  0
  -23.6170  -27.6080   35.0790 C   0  0  0  0  0  3  0  0  0  0  0  0
  -28.9730  -32.5180   28.5260 C   0  0  0  0  0  3  0  0  0  0  0  0
  -29.1650  -33.6810   29.4010 N   0  0  0  0  0  0  0  0  0  0  0  0
  -28.7190  -34.9150   29.1310 C   0  0  0  0  0  0  0  0  0  0  0  0
  -28.1610  -35.2090   28.0700 O   0  0  0  0  0  0  0  0  0  0  0  0
  -29.5620  -33.5030   30.3120 H   0  0  0  0  0  0  0  0  0  0  0  0
  -27.6040  -36.2320   30.9600 C   0  0  0  0  0  1  0  0  0  0  0  0
  -28.9240  -35.9980   30.2090 C   0  0  0  0  0  3  0  0  0  0  0  0
  -30.7650  -37.1780   29.0940 C   0  0  0  0  0  1  0  0  0  0  0  0
  -29.4260  -37.2800   29.6690 N   0  0  0  0  0  0  0  0  0  0  0  0
  -29.4460  -37.9930   30.3930 H   0  0  0  0  0  0  0  0  0  0  0  0
  -30.3010  -31.6730   28.4200 C   0  0  1  0  0  0  0  0  0  0  0  0
  -30.6770  -30.9430   29.7310 C   0  0  0  0  0  1  0  0  0  0  0  0
  -30.1830  -30.6090   27.3030 C   0  0  0  0  0  1  0  0  0  0  0  0
  -31.4800  -32.5940   28.0300 C   0  0  0  0  0  1  0  0  0  0  0  0
  1 49  1  0
  2  1  1  0
  3  2  1  0
  4  3  1  0
  5  7  1  0
  5  4  1  0
  6  5  1  0
  8  5  1  0
  9  8  1  0
 10 19  1  0
 10  9  1  0
 11 18  2  0
 12 13  1  0
 14 13  1  0
 15 16  1  0
 15 14  1  0
 16 17  1  0
 17 11  1  0
 17 12  1  0
 19 11  1  0
 20 19  1  0
 21 46  1  0
 22 21  2  0
 23 25  2  0
 23 22  1  0
 24 21  1  0
 24 15  1  0
 25 24  1  0
 26 31  1  0
 26 23  1  0
 27 26  2  0
 28 29  2  0
 28 27  1  0
 29 30  1  0
 30 31  2  0
 32 29  1  0
 33 32  1  0
 34 33  2  0
 35 34  1  0
 36 35  2  0
 36 37  1  0
 37 38  2  0
 38 33  1  0
 38 39  1  0
 40 36  1  0
 41 22  1  0
 41 43  2  0
 42 41  1  0
 44 42  1  0
 45 42  1  0
 46 47  1  0
 46 48  1  0
 50 49  1  0
 50 51  1  0
 51 53  1  0
 52 51  1  0
 54 55  1  0
 54 51  1  0
 55 56  1  0
 56 58  1  0
 57 68  2  0
 58 64  2  0
 58 63  1  0
 59 69  1  0
 60 66  1  0
 61 67  1  0
 62 60  1  0
 62 61  1  0
 63 62  2  0
 64 65  1  0
 65 60  2  0
 66 59  1  0
 67 59  1  0
 67 57  1  0
 69 70  1  0
 70 72  1  0
 71 69  2  0
 73 82  1  0
 74 70  1  0
 74 78  1  0
 75 76  1  0
 75 74  1  0
 76 77  1  0
 77 73  1  0
 78 79  1  0
 78 73  2  0
 79 80  2  0
 80 81  1  0
 82 81  2  0
 83 57  1  0
 83 84  1  0
 84 87  1  0
 85 84  1  0
 85 89  1  0
 86 85  2  0
 89 88  1  0
 90 91  1  0
 91 89  1  0
 91 92  1  0
 93 83  1  0
 93 94  1  1
 95 93  1  0
 96 93  1  0
M  ISO  4  11 100  19 100  55 101  56 101
M  END
>  <TORSDO>  (22) 
F 28

>  <SCORE>  (22) 
-0.045

>  <name>  (22) 
21

>  <ligand_id>  (22) 
21

>  <original_smiles>  (22) 
[H]c1c([H])c([H])c2c(c1[H])C([H])([H])C([H])([H])C([H])([H])C2([H])N([H])C(=O)C1([H])N(C(=O)C([H])(N([H])C(=O)C([H])(N([H])C([H])([H])[H])C([H])([H])[H])C(C([H])([H])[H])(C([H])([H])[H])C([H])([H])[H])C([H])([H])c2c([H])c(OC([H])([H])C([H])([H])[N+]([H])([H])C([H])([H])C([H])([H])C([H])([H])C([H])([H])C([H])([H])C([H])([H])[N+]([H])([H])C([H])([H])C([H])([H])C([H])([H])N([H])C(=O)N3C([H])([H])C([H])([H])C([H])([H])C([H])(n4nc(-c5c([H])c([H])c(Oc6c([H])c([H])c(F)c([H])c6F)c([H])c5[H])c(C(=O)N([H])[H])c4N([H])[H])C3([H])[H])c([H])c([H])c2C1([H])[H]

>  <smiles>  (22) 
[H]c1c([H])c([H])c2c(c1[H])C([H])([H])C([H])([H])C([H])([H])C2([H])N([H])C(=O)C1([H])N(C(=O)C([H])(N([H])C(=O)C([H])(N([H])C([H])([H])[H])C([H])([H])[H])C(C([H])([H])[H])(C([H])([H])[H])C([H])([H])[H])C([H])([H])c2c([H])c(OC([H])([H])C([H])([H])[N+]([H])([H])C([H])([H])C([H])([H])C([H])([H])C([H])([H])C([H])([H])C([H])([H])[N+]([H])([H])C([H])([H])C([H])([H])C([H])([H])N([H])C(=O)N3C([H])([H])C([H])([H])C([H])([H])C([H])(n4nc(-c5c([H])c([H])c(Oc6c([H])c([H])c(F)c([H])c6F)c([H])c5[H])c(C(=O)N([H])[H])c4N([H])[H])C3([H])[H])c([H])c([H])c2C1([H])[H]

$$$$
22:0:0
     RDKit          3D

 99108  0  0  1  0  0  0  0  0999 V2000
  -31.1240  -19.5240   19.1870 N   0  0  0  0  0  4  0  0  0  0  0  0
  -30.2870  -19.7440   18.6730 H   0  0  0  0  0  0  0  0  0  0  0  0
  -31.8100  -19.2220   18.5100 H   0  0  0  0  0  0  0  0  0  0  0  0
  -31.5380  -14.6370   19.3070 C   0  0  0  0  0  0  0  0  0  0  0  0
  -30.9920  -12.4020   18.3840 C   0  0  0  0  0  2  0  0  0  0  0  0
  -29.8830  -12.4990   17.3180 C   0  0  0  0  0  2  0  0  0  0  0  0
  -28.4990  -12.3560   17.9810 C   0  0  0  0  0  2  0  0  0  0  0  0
  -28.3420  -13.2860   19.2070 C   0  0  0  0  0  3  0  0  0  0  0  0
  -29.5690  -13.2120   20.1540 C   0  0  0  0  0  2  0  0  0  0  0  0
  -30.7710  -13.4970   19.3550 N   0  0  0  0  0  0  0  0  0  0  0  0
  -32.6350  -14.5720   18.7650 O   0  0  0  0  0  0  0  0  0  0  0  0
  -29.6590  -16.2750   19.5410 C   0  0  0  0  0  2  0  0  0  0  0  0
  -29.4850  -17.7560   19.7060 C   0  0  0  0  0  3  0  0  0  0  0  0
  -31.8130  -17.1420   20.0160 C   0  0  0  0  0  3  0  0  0  0  0  0
  -30.8190  -18.3370   20.0480 C   0  0  1  0  0  0  0  0  0  0  0  0
  -29.6300  -18.4890   21.0140 C   0  0  2  0  0  0  0  0  0  0  0  0
  -29.6090  -17.7430   22.3410 C   0  0  0  0  0  1  0  0  0  0  0  0
  -28.8300  -19.7770   21.1750 C   0  0  0  0  0  1  0  0  0  0  0  0
  -31.0580  -15.8590   19.7360 N   0  0  0  0  0  0  0  0  0  0  0  0
  -26.1680  -13.9930   20.3800 C   0  0  0  0  0  0  0  0  0  0  0  0
  -25.1240  -13.2630   20.8780 C   0  0  0  0  0  0  0  0  0  0  0  0
  -25.4720  -11.8930   20.6700 C   0  0  0  0  0  0  0  0  0  0  0  0
  -27.0870  -13.0670   19.9100 N   0  0  0  0  0  0  0  0  0  0  0  0
  -26.6830  -11.7960   20.1450 N   0  0  0  0  0  0  0  0  0  0  0  0
  -24.6990  -10.6670   20.8980 C   0  0  0  0  0  0  0  0  0  0  0  0
  -25.0720   -9.7400   21.8940 C   0  0  0  0  0  3  0  0  0  0  0  0
  -24.3100   -8.5730   22.1050 C   0  0  0  0  0  3  0  0  0  0  0  0
  -23.1580   -8.3260   21.3210 C   0  0  0  0  0  0  0  0  0  0  0  0
  -22.8050   -9.2420   20.3130 C   0  0  0  0  0  3  0  0  0  0  0  0
  -23.5700  -10.4010   20.0990 C   0  0  0  0  0  3  0  0  0  0  0  0
  -22.3720   -7.2070   21.4360 O   0  0  0  0  0  0  0  0  0  0  0  0
  -22.0780   -6.6530   22.6550 C   0  0  0  0  0  0  0  0  0  0  0  0
  -21.4200   -7.3880   23.6650 C   0  0  0  0  0  3  0  0  0  0  0  0
  -21.0760   -6.7630   24.8800 C   0  0  0  0  0  3  0  0  0  0  0  0
  -21.3790   -5.4030   25.0830 C   0  0  0  0  0  0  0  0  0  0  0  0
  -22.0270   -4.6680   24.0740 C   0  0  0  0  0  3  0  0  0  0  0  0
  -22.3720   -5.2920   22.8630 C   0  0  0  0  0  0  0  0  0  0  0  0
  -22.9780   -4.5730   21.8860 F   0  0  0  0  0  0  0  0  0  0  0  0
  -21.0410   -4.7990   26.2470 F   0  0  0  0  0  0  0  0  0  0  0  0
  -23.8340  -13.7990   21.4260 C   0  0  0  0  0  0  0  0  0  0  0  0
  -23.2600  -13.1120   22.4070 N   0  0  0  0  0  0  0  0  0  0  0  0
  -23.3540  -14.8540   21.0160 O   0  0  0  0  0  0  0  0  0  0  0  0
  -23.6620  -12.2510   22.7470 H   0  0  0  0  0  0  0  0  0  0  0  0
  -22.4030  -13.4520   22.8240 H   0  0  0  0  0  0  0  0  0  0  0  0
  -26.3970  -15.3610   20.2630 N   0  0  0  0  0  0  0  0  0  0  0  0
  -25.7130  -16.0510   20.5520 H   0  0  0  0  0  0  0  0  0  0  0  0
  -27.2090  -15.7710   19.8210 H   0  0  0  0  0  0  0  0  0  0  0  0
  -34.3820  -16.6720   19.7040 C   0  0  0  0  0  1  0  0  0  0  0  0
  -33.0270  -17.6030   17.7110 C   0  0  0  0  0  1  0  0  0  0  0  0
  -33.1460  -17.4750   19.2480 C   0  0  0  0  0  3  0  0  0  0  0  0
  -31.6200  -20.7770   19.8270 C   0  0  0  0  0  2  0  0  0  0  0  0
  -31.6820  -21.9470   18.8040 C   0  0  0  0  0  2  0  0  0  0  0  0
  -31.8850  -23.3640   19.4070 C   0  0  0  0  0  2  0  0  0  0  0  0
  -30.6500  -24.1950   19.3760 N   0  0  0  0  0  4  0  0  0  0  0  0
  -29.9300  -23.7250   19.9020 H   0  0  0  0  0  0  0  0  0  0  0  0
  -30.3280  -24.2770   18.4240 H   0  0  0  0  0  0  0  0  0  0  0  0
  -30.8230  -25.5650   19.9240 C   0  0  0  0  0  2  0  0  0  0  0  0
  -29.4910  -26.3200   20.1260 C   0  0  0  0  0  2  0  0  0  0  0  0
  -28.9400  -26.7690   18.8830 O   0  0  0  0  0  0  0  0  0  0  0  0
  -24.7840  -31.1090   22.7230 C   0  0  0  0  0  0  0  0  0  0  0  0
  -27.7400  -27.4340   19.0090 C   0  0  0  0  0  0  0  0  0  0  0  0
  -23.6750  -29.9120   20.8620 C   0  0  0  0  0  3  0  0  0  0  0  0
  -25.2360  -28.7270   19.2220 C   0  0  0  0  0  0  0  0  0  0  0  0
  -26.1650  -30.4780   20.7520 C   0  0  0  0  0  2  0  0  0  0  0  0
  -26.3470  -29.2350   19.9070 C   0  0  0  0  0  0  0  0  0  0  0  0
  -27.6000  -28.5950   19.8040 C   0  0  0  0  0  3  0  0  0  0  0  0
  -26.6190  -26.9420   18.3080 C   0  0  0  0  0  3  0  0  0  0  0  0
  -25.3670  -27.5790   18.4190 C   0  0  0  0  0  3  0  0  0  0  0  0
  -23.9300  -29.4730   19.3930 C   0  0  0  0  0  2  0  0  0  0  0  0
  -24.8900  -30.5070   21.5080 N   0  0  0  0  0  0  0  0  0  0  0  0
  -23.6880  -31.2160   23.2910 O   0  0  0  0  0  0  0  0  0  0  0  0
  -23.0960  -28.7080   21.6380 C   0  0  0  0  0  0  0  0  0  0  0  0
  -21.7820  -28.4730   21.4840 N   0  0  0  0  0  0  0  0  0  0  0  0
  -23.8250  -27.9950   22.3320 O   0  0  0  0  0  0  0  0  0  0  0  0
  -21.2550  -29.1080   20.9020 H   0  0  0  0  0  0  0  0  0  0  0  0
  -18.4760  -27.0590   21.8250 C   0  0  0  0  0  0  0  0  0  0  0  0
  -21.0290  -27.3720   22.0820 C   0  0  0  0  0  3  0  0  0  0  0  0
  -21.1670  -26.0800   21.2440 C   0  0  0  0  0  2  0  0  0  0  0  0
  -20.0480  -25.9050   20.2120 C   0  0  0  0  0  2  0  0  0  0  0  0
  -18.6810  -25.8690   20.9040 C   0  0  0  0  0  2  0  0  0  0  0  0
  -19.5780  -27.7740   22.3640 C   0  0  0  0  0  0  0  0  0  0  0  0
  -19.3310  -28.8980   23.1830 C   0  0  0  0  0  3  0  0  0  0  0  0
  -18.0140  -29.3070   23.4690 C   0  0  0  0  0  3  0  0  0  0  0  0
  -16.9260  -28.5820   22.9500 C   0  0  0  0  0  3  0  0  0  0  0  0
  -17.1590  -27.4600   22.1350 C   0  0  0  0  0  3  0  0  0  0  0  0
  -26.0280  -31.7130   23.4520 C   0  0  0  0  0  3  0  0  0  0  0  0
  -25.6100  -32.9790   24.0640 N   0  0  0  0  0  0  0  0  0  0  0  0
  -25.8330  -34.1910   23.5360 C   0  0  0  0  0  0  0  0  0  0  0  0
  -26.4860  -34.3620   22.5030 O   0  0  0  0  0  0  0  0  0  0  0  0
  -25.0210  -32.9130   24.8830 H   0  0  0  0  0  0  0  0  0  0  0  0
  -23.9530  -35.8600   23.5540 C   0  0  0  0  0  1  0  0  0  0  0  0
  -25.2340  -35.4040   24.2700 C   0  0  0  0  0  3  0  0  0  0  0  0
  -27.2900  -36.2810   25.2870 C   0  0  0  0  0  1  0  0  0  0  0  0
  -26.1700  -36.5440   24.3870 N   0  0  0  0  0  0  0  0  0  0  0  0
  -25.6860  -37.3750   24.7160 H   0  0  0  0  0  0  0  0  0  0  0  0
  -26.6470  -30.7450   24.5340 C   0  0  1  0  0  0  0  0  0  0  0  0
  -25.6070  -30.1850   25.5320 C   0  0  0  0  0  1  0  0  0  0  0  0
  -27.3440  -29.5440   23.8550 C   0  0  0  0  0  1  0  0  0  0  0  0
  -27.7330  -31.4890   25.3440 C   0  0  0  0  0  1  0  0  0  0  0  0
  1 51  1  0
  2  1  1  0
  3  1  1  0
  4 10  1  0
  4 19  1  0
  5 10  1  0
  6  7  1  0
  6  5  1  0
  8  7  1  0
  8 23  1  0
  8  9  1  0
 10  9  1  0
 11  4  2  0
 12 19  1  0
 13 12  1  0
 13 15  1  0
 13 16  1  0
 14 50  1  0
 14 15  1  0
 15  1  1  6
 15 16  1  0
 16 18  1  1
 16 17  1  0
 19 14  1  0
 20 21  2  0
 21 40  1  0
 22 21  1  0
 22 25  1  0
 23 24  1  0
 23 20  1  0
 24 22  2  0
 25 26  1  0
 26 27  2  0
 28 31  1  0
 28 27  1  0
 29 28  2  0
 30 29  1  0
 30 25  2  0
 31 32  1  0
 32 37  2  0
 32 33  1  0
 33 34  2  0
 34 35  1  0
 35 39  1  0
 36 35  2  0
 37 36  1  0
 38 37  1  0
 40 41  1  0
 41 43  1  0
 41 44  1  0
 42 40  2  0
 45 20  1  0
 45 46  1  0
 47 45  1  0
 49 50  1  0
 50 48  1  0
 52 53  1  0
 52 51  1  0
 54 53  1  0
 54 55  1  0
 54 57  1  0
 56 54  1  0
 57 58  1  0
 59 61  1  0
 59 58  1  0
 60 71  2  0
 61 66  1  0
 62 70  1  0
 62 72  1  0
 63 69  1  0
 63 65  1  0
 64 70  1  0
 65 64  1  0
 66 65  2  0
 67 68  1  0
 67 61  2  0
 68 63  2  0
 69 62  1  0
 70 60  1  0
 72 74  2  0
 73 72  1  0
 75 73  1  0
 76 85  2  0
 76 81  1  0
 77 73  1  0
 77 81  1  0
 78 77  1  0
 79 80  1  0
 79 78  1  0
 80 76  1  0
 81 82  2  0
 82 83  1  0
 84 83  2  0
 85 84  1  0
 86 60  1  0
 86 87  1  0
 86 96  1  0
 87 90  1  0
 88 87  1  0
 88 92  1  0
 89 88  2  0
 92 91  1  0
 92 94  1  0
 94 95  1  0
 94 93  1  0
 96 99  1  1
 96 97  1  0
 98 96  1  0
M  ISO  4   4 100  19 100  58 101  59 101
M  END
>  <TORSDO>  (23) 
F 23

>  <SCORE>  (23) 
-7.056

>  <name>  (23) 
22

>  <ligand_id>  (23) 
22

>  <original_smiles>  (23) 
[H]c1c([H])c([H])c2c(c1[H])C([H])([H])C([H])([H])C([H])([H])C2([H])N([H])C(=O)C1([H])N(C(=O)C([H])(N([H])C(=O)C([H])(N([H])C([H])([H])[H])C([H])([H])[H])C(C([H])([H])[H])(C([H])([H])[H])C([H])([H])[H])C([H])([H])c2c([H])c(OC([H])([H])C([H])([H])[N+]([H])([H])C([H])([H])C([H])([H])C([H])([H])[N+]([H])([H])C34C([H])(C([H])(C([H])([H])[H])C([H])([H])[H])N(C(=O)N5C([H])([H])C([H])([H])C([H])([H])C([H])(n6nc(-c7c([H])c([H])c(Oc8c([H])c([H])c(F)c([H])c8F)c([H])c7[H])c(C(=O)N([H])[H])c6N([H])[H])C5([H])[H])C([H])([H])C3([H])C4(C([H])([H])[H])C([H])([H])[H])c([H])c([H])c2C1([H])[H]

>  <smiles>  (23) 
[H]c1c([H])c([H])c2c(c1[H])C([H])([H])C([H])([H])C([H])([H])C2([H])N([H])C(=O)C1([H])N(C(=O)C([H])(N([H])C(=O)C([H])(N([H])C([H])([H])[H])C([H])([H])[H])C(C([H])([H])[H])(C([H])([H])[H])C([H])([H])[H])C([H])([H])c2c([H])c(OC([H])([H])C([H])([H])[N+]([H])([H])C([H])([H])C([H])([H])C([H])([H])[N+]([H])([H])C34C([H])(C([H])(C([H])([H])[H])C([H])([H])[H])N(C(=O)N5C([H])([H])C([H])([H])C([H])([H])C([H])(n6nc(-c7c([H])c([H])c(Oc8c([H])c([H])c(F)c([H])c8F)c([H])c7[H])c(C(=O)N([H])[H])c6N([H])[H])C5([H])[H])C([H])([H])C3([H])C4(C([H])([H])[H])C([H])([H])[H])c([H])c([H])c2C1([H])[H]

$$$$
23:0:0
     RDKit          3D

 90 99  0  0  1  0  0  0  0  0999 V2000
  -29.4060  -21.6640   20.5560 C   0  0  0  0  0  0  0  0  0  0  0  0
  -28.8700  -22.8160   20.0940 N   0  0  0  0  0  0  0  0  0  0  0  0
  -30.3670  -21.6530   21.3260 O   0  0  0  0  0  0  0  0  0  0  0  0
  -28.0920  -22.7160   19.4540 H   0  0  0  0  0  0  0  0  0  0  0  0
  -28.7390  -20.3410   20.0940 C   0  0  0  0  0  2  0  0  0  0  0  0
  -30.7090  -14.5700   20.2570 C   0  0  0  0  0  0  0  0  0  0  0  0
  -30.4060  -12.3760   19.1740 C   0  0  0  0  0  2  0  0  0  0  0  0
  -29.4500  -12.5660   17.9790 C   0  0  0  0  0  2  0  0  0  0  0  0
  -27.9790  -12.4330   18.4290 C   0  0  0  0  0  2  0  0  0  0  0  0
  -27.6580  -13.2670   19.7000 C   0  0  0  0  0  3  0  0  0  0  0  0
  -28.7380  -13.0670   20.7870 C   0  0  0  0  0  2  0  0  0  0  0  0
  -30.0370  -13.3850   20.1800 N   0  0  0  0  0  0  0  0  0  0  0  0
  -31.8910  -14.6600   19.9090 O   0  0  0  0  0  0  0  0  0  0  0  0
  -29.2760  -16.4220   21.2560 C   0  0  0  0  0  2  0  0  0  0  0  0
  -30.1180  -16.6730   19.0910 C   0  0  0  0  0  2  0  0  0  0  0  0
  -28.6970  -17.7350   20.7220 C   0  0  0  0  0  3  0  0  0  0  0  0
  -29.2150  -17.8680   19.3270 C   0  0  0  0  0  3  0  0  0  0  0  0
  -29.4760  -18.9960   20.3170 C   0  0  0  0  0  3  0  0  0  0  0  0
  -29.9290  -15.6860   20.1620 N   0  0  0  0  0  0  0  0  0  0  0  0
  -25.2760  -13.8680   20.4550 C   0  0  0  0  0  0  0  0  0  0  0  0
  -24.2130  -13.0930   20.8330 C   0  0  0  0  0  0  0  0  0  0  0  0
  -24.6700  -11.7410   20.7820 C   0  0  0  0  0  0  0  0  0  0  0  0
  -26.3160  -12.9870   20.2010 N   0  0  0  0  0  0  0  0  0  0  0  0
  -25.9570  -11.7020   20.4550 N   0  0  0  0  0  0  0  0  0  0  0  0
  -23.9440  -10.4780   20.9700 C   0  0  0  0  0  0  0  0  0  0  0  0
  -24.3820   -9.5080   21.8960 C   0  0  0  0  0  3  0  0  0  0  0  0
  -23.6580   -8.3090   22.0740 C   0  0  0  0  0  3  0  0  0  0  0  0
  -22.4790   -8.0740   21.3260 C   0  0  0  0  0  0  0  0  0  0  0  0
  -22.0600   -9.0360   20.3900 C   0  0  0  0  0  3  0  0  0  0  0  0
  -22.7850  -10.2250   20.2090 C   0  0  0  0  0  3  0  0  0  0  0  0
  -21.7240   -6.9300   21.4150 O   0  0  0  0  0  0  0  0  0  0  0  0
  -21.6700   -6.1920   22.5700 C   0  0  0  0  0  0  0  0  0  0  0  0
  -21.2330   -6.7500   23.7920 C   0  0  0  0  0  3  0  0  0  0  0  0
  -21.1240   -5.9370   24.9380 C   0  0  0  0  0  3  0  0  0  0  0  0
  -21.4430   -4.5690   24.8650 C   0  0  0  0  0  0  0  0  0  0  0  0
  -21.8730   -4.0100   23.6490 C   0  0  0  0  0  3  0  0  0  0  0  0
  -21.9840   -4.8190   22.5040 C   0  0  0  0  0  0  0  0  0  0  0  0
  -22.3780   -4.2710   21.3300 F   0  0  0  0  0  0  0  0  0  0  0  0
  -21.3320   -3.7870   25.9640 F   0  0  0  0  0  0  0  0  0  0  0  0
  -22.8210  -13.5710   21.1290 C   0  0  0  0  0  0  0  0  0  0  0  0
  -22.1060  -12.8720   22.0050 N   0  0  0  0  0  0  0  0  0  0  0  0
  -22.3750  -14.5980   20.6190 O   0  0  0  0  0  0  0  0  0  0  0  0
  -22.4810  -12.0430   22.4400 H   0  0  0  0  0  0  0  0  0  0  0  0
  -21.1700  -13.1710   22.2410 H   0  0  0  0  0  0  0  0  0  0  0  0
  -25.4410  -15.2390   20.2880 N   0  0  0  0  0  0  0  0  0  0  0  0
  -24.6780  -15.8960   20.4210 H   0  0  0  0  0  0  0  0  0  0  0  0
  -26.2930  -15.6800   19.9670 H   0  0  0  0  0  0  0  0  0  0  0  0
  -29.2550  -24.2060   20.4260 C   0  0  0  0  0  2  0  0  0  0  0  0
  -28.1700  -25.2160   19.9490 C   0  0  0  0  0  2  0  0  0  0  0  0
  -28.3670  -26.6280   20.2450 O   0  0  0  0  0  0  0  0  0  0  0  0
  -24.6260  -31.9320   23.2710 C   0  0  0  0  0  0  0  0  0  0  0  0
  -27.2300  -27.4320   20.1910 C   0  0  0  0  0  0  0  0  0  0  0  0
  -23.4150  -30.5440   21.6240 C   0  0  0  0  0  3  0  0  0  0  0  0
  -24.8590  -29.0040   20.1950 C   0  0  0  0  0  0  0  0  0  0  0  0
  -25.9510  -30.8700   21.4420 C   0  0  0  0  0  2  0  0  0  0  0  0
  -26.0250  -29.4980   20.7930 C   0  0  0  0  0  0  0  0  0  0  0  0
  -27.2140  -28.7210   20.7880 C   0  0  0  0  0  3  0  0  0  0  0  0
  -26.0420  -26.9830   19.5630 C   0  0  0  0  0  3  0  0  0  0  0  0
  -24.8650  -27.7480   19.5770 C   0  0  0  0  0  3  0  0  0  0  0  0
  -23.6240  -29.8750   20.2420 C   0  0  0  0  0  2  0  0  0  0  0  0
  -24.6830  -31.1320   22.1690 N   0  0  0  0  0  0  0  0  0  0  0  0
  -23.5440  -32.2140   23.8050 O   0  0  0  0  0  0  0  0  0  0  0  0
  -22.7530  -29.5240   22.5790 C   0  0  0  0  0  0  0  0  0  0  0  0
  -21.4260  -29.3550   22.4510 N   0  0  0  0  0  0  0  0  0  0  0  0
  -23.4290  -28.8890   23.3930 O   0  0  0  0  0  0  0  0  0  0  0  0
  -20.9410  -29.9220   21.7700 H   0  0  0  0  0  0  0  0  0  0  0  0
  -18.0390  -28.1940   22.9510 C   0  0  0  0  0  0  0  0  0  0  0  0
  -20.6000  -28.4230   23.2190 C   0  0  0  0  0  3  0  0  0  0  0  0
  -20.6840  -26.9930   22.6370 C   0  0  0  0  0  2  0  0  0  0  0  0
  -19.5770  -26.6870   21.6230 C   0  0  0  0  0  2  0  0  0  0  0  0
  -18.1990  -26.8460   22.2700 C   0  0  0  0  0  2  0  0  0  0  0  0
  -19.1670  -28.9420   23.3820 C   0  0  0  0  0  0  0  0  0  0  0  0
  -18.9640  -30.2050   23.9790 C   0  0  0  0  0  3  0  0  0  0  0  0
  -17.6660  -30.7210   24.1490 C   0  0  0  0  0  3  0  0  0  0  0  0
  -16.5520  -29.9720   23.7340 C   0  0  0  0  0  3  0  0  0  0  0  0
  -16.7390  -28.7100   23.1410 C   0  0  0  0  0  3  0  0  0  0  0  0
  -25.9130  -32.5540   23.8940 C   0  0  0  0  0  3  0  0  0  0  0  0
  -26.4250  -31.7760   25.1680 C   0  0  1  0  0  0  0  0  0  0  0  0
  -25.3310  -31.5400   26.2350 C   0  0  0  0  0  1  0  0  0  0  0  0
  -27.0030  -30.3960   24.7710 C   0  0  0  0  0  1  0  0  0  0  0  0
  -27.5790  -32.5630   25.8340 C   0  0  0  0  0  1  0  0  0  0  0  0
  -25.6130  -33.9530   24.2260 N   0  0  0  0  0  0  0  0  0  0  0  0
  -25.9340  -35.0030   23.4580 C   0  0  0  0  0  0  0  0  0  0  0  0
  -26.5860  -34.8960   22.4160 O   0  0  0  0  0  0  0  0  0  0  0  0
  -25.0310  -34.1110   25.0360 H   0  0  0  0  0  0  0  0  0  0  0  0
  -24.1920  -36.7890   23.1390 C   0  0  0  0  0  1  0  0  0  0  0  0
  -25.4550  -36.3930   23.9190 C   0  0  0  0  0  3  0  0  0  0  0  0
  -27.6090  -37.2890   24.6870 C   0  0  0  0  0  1  0  0  0  0  0  0
  -26.4820  -37.4480   23.7720 N   0  0  0  0  0  0  0  0  0  0  0  0
  -26.0760  -38.3680   23.9230 H   0  0  0  0  0  0  0  0  0  0  0  0
  1  3  2  0
  2 48  1  0
  2  1  1  0
  4  2  1  0
  5  1  1  0
  7 12  1  0
  8  9  1  0
  8  7  1  0
 10  9  1  0
 10 23  1  0
 10 11  1  0
 12  6  1  0
 12 11  1  0
 13  6  2  0
 15 19  1  0
 16 14  1  0
 17 15  1  0
 17 18  1  0
 17 16  1  0
 18  5  1  0
 18 16  1  0
 19  6  1  0
 19 14  1  0
 20 21  2  0
 21 40  1  0
 22 21  1  0
 22 25  1  0
 23 20  1  0
 23 24  1  0
 24 22  2  0
 25 26  1  0
 26 27  2  0
 28 31  1  0
 28 27  1  0
 29 28  2  0
 30 29  1  0
 30 25  2  0
 31 32  1  0
 32 33  1  0
 33 34  2  0
 35 34  1  0
 35 39  1  0
 36 35  2  0
 37 32  2  0
 37 36  1  0
 38 37  1  0
 40 41  1  0
 41 44  1  0
 41 43  1  0
 42 40  2  0
 45 46  1  0
 45 20  1  0
 47 45  1  0
 49 50  1  0
 49 48  1  0
 51 62  2  0
 52 50  1  0
 52 57  1  0
 53 61  1  0
 53 63  1  0
 54 60  1  0
 54 56  1  0
 55 61  1  0
 56 55  1  0
 57 56  2  0
 58 59  1  0
 58 52  2  0
 59 54  2  0
 60 53  1  0
 61 51  1  0
 63 65  2  0
 64 63  1  0
 66 64  1  0
 67 76  2  0
 67 72  1  0
 68 64  1  0
 68 72  1  0
 69 68  1  0
 70 71  1  0
 70 69  1  0
 71 67  1  0
 72 73  2  0
 73 74  1  0
 75 74  2  0
 76 75  1  0
 77 51  1  0
 77 82  1  0
 77 78  1  0
 78 81  1  1
 78 79  1  0
 80 78  1  0
 82 85  1  0
 83 87  1  0
 83 82  1  0
 84 83  2  0
 87 86  1  0
 89 87  1  0
 89 90  1  0
 89 88  1  0
M  ISO  4   6 100  19 100  49 101  50 101
M  END
>  <TORSDO>  (24) 
F 19

>  <SCORE>  (24) 
-14.245

>  <name>  (24) 
23

>  <ligand_id>  (24) 
23

>  <original_smiles>  (24) 
[H]c1c([H])c([H])c2c(c1[H])C([H])([H])C([H])([H])C([H])([H])C2([H])N([H])C(=O)C1([H])N(C(=O)C([H])(N([H])C(=O)C([H])(N([H])C([H])([H])[H])C([H])([H])[H])C(C([H])([H])[H])(C([H])([H])[H])C([H])([H])[H])C([H])([H])c2c([H])c(OC([H])([H])C([H])([H])N([H])C(=O)C([H])([H])C3([H])C4([H])C([H])([H])N(C(=O)N5C([H])([H])C([H])([H])C([H])([H])C([H])(n6nc(-c7c([H])c([H])c(Oc8c([H])c([H])c(F)c([H])c8F)c([H])c7[H])c(C(=O)N([H])[H])c6N([H])[H])C5([H])[H])C([H])([H])C34[H])c([H])c([H])c2C1([H])[H]

>  <smiles>  (24) 
[H]c1c([H])c([H])c2c(c1[H])C([H])([H])C([H])([H])C([H])([H])C2([H])N([H])C(=O)C1([H])N(C(=O)C([H])(N([H])C(=O)C([H])(N([H])C([H])([H])[H])C([H])([H])[H])C(C([H])([H])[H])(C([H])([H])[H])C([H])([H])[H])C([H])([H])c2c([H])c(OC([H])([H])C([H])([H])N([H])C(=O)C([H])([H])C3([H])C4([H])C([H])([H])N(C(=O)N5C([H])([H])C([H])([H])C([H])([H])C([H])(n6nc(-c7c([H])c([H])c(Oc8c([H])c([H])c(F)c([H])c8F)c([H])c7[H])c(C(=O)N([H])[H])c6N([H])[H])C5([H])[H])C([H])([H])C34[H])c([H])c([H])c2C1([H])[H]

$$$$
24:0:0
     RDKit          3D

 94103  0  0  1  0  0  0  0  0999 V2000
  -28.6270  -20.5340   21.3410 C   0  0  0  0  0  2  0  0  0  0  0  0
  -30.8320  -20.7610   20.1370 C   0  0  0  0  0  2  0  0  0  0  0  0
  -29.5590  -18.4220   19.9420 C   0  0  0  0  0  2  0  0  0  0  0  0
  -28.1200  -21.7900   20.5390 C   0  0  0  0  0  2  0  0  0  0  0  0
  -30.1920  -21.9600   19.3590 C   0  0  0  0  0  2  0  0  0  0  0  0
  -30.6180  -17.6580   21.9090 C   0  0  0  0  0  2  0  0  0  0  0  0
  -30.5310  -17.2790   20.4300 C   0  0  0  0  0  3  0  0  0  0  0  0
  -29.8720  -19.7220   20.8090 C   0  0  2  0  0  0  0  0  0  0  0  0
  -30.5960  -19.1340   21.9720 N   0  0  0  0  0  4  0  0  0  0  0  0
  -29.2070  -22.7470   20.1650 N   0  0  1  0  0  4  0  0  0  0  0  0
  -31.5520  -19.4520   21.9560 H   0  0  0  0  0  0  0  0  0  0  0  0
  -30.1960  -19.4250   22.8500 H   0  0  0  0  0  0  0  0  0  0  0  0
  -29.6870  -23.0170   21.0120 H   0  0  0  0  0  0  0  0  0  0  0  0
  -30.9190  -14.7600   19.9050 C   0  0  0  0  0  0  0  0  0  0  0  0
  -30.6580  -12.4890   18.9270 C   0  0  0  0  0  2  0  0  0  0  0  0
  -29.6410  -12.5560   17.7650 C   0  0  0  0  0  2  0  0  0  0  0  0
  -28.1980  -12.4040   18.2850 C   0  0  0  0  0  2  0  0  0  0  0  0
  -27.9040  -13.3240   19.4990 C   0  0  0  0  0  3  0  0  0  0  0  0
  -29.0240  -13.2240   20.5600 C   0  0  0  0  0  2  0  0  0  0  0  0
  -30.2930  -13.5430   19.8920 N   0  0  0  0  0  0  0  0  0  0  0  0
  -32.0590  -14.9060   19.4560 O   0  0  0  0  0  0  0  0  0  0  0  0
  -30.1510  -15.8300   20.2740 N   0  0  0  0  0  0  0  0  0  0  0  0
  -29.2180  -15.5840   20.5680 H   0  0  0  0  0  0  0  0  0  0  0  0
  -25.5900  -13.9630   20.4120 C   0  0  0  0  0  0  0  0  0  0  0  0
  -24.5300  -13.2070   20.8320 C   0  0  0  0  0  0  0  0  0  0  0  0
  -24.9490  -11.8450   20.7180 C   0  0  0  0  0  0  0  0  0  0  0  0
  -26.5870  -13.0640   20.0700 N   0  0  0  0  0  0  0  0  0  0  0  0
  -26.2110  -11.7820   20.3150 N   0  0  0  0  0  0  0  0  0  0  0  0
  -24.2010  -10.5960   20.9150 C   0  0  0  0  0  0  0  0  0  0  0  0
  -24.6190   -9.6250   21.8510 C   0  0  0  0  0  3  0  0  0  0  0  0
  -23.8720   -8.4420   22.0350 C   0  0  0  0  0  3  0  0  0  0  0  0
  -22.6960   -8.2210   21.2800 C   0  0  0  0  0  0  0  0  0  0  0  0
  -22.2980   -9.1800   20.3320 C   0  0  0  0  0  3  0  0  0  0  0  0
  -23.0440  -10.3550   20.1480 C   0  0  0  0  0  3  0  0  0  0  0  0
  -21.9210   -7.0900   21.3740 O   0  0  0  0  0  0  0  0  0  0  0  0
  -21.7860   -6.4050   22.5550 C   0  0  0  0  0  0  0  0  0  0  0  0
  -21.2470   -7.0110   23.7110 C   0  0  0  0  0  3  0  0  0  0  0  0
  -21.0630   -6.2510   24.8840 C   0  0  0  0  0  3  0  0  0  0  0  0
  -21.4070   -4.8860   24.8990 C   0  0  0  0  0  0  0  0  0  0  0  0
  -21.9380   -4.2800   23.7470 C   0  0  0  0  0  3  0  0  0  0  0  0
  -22.1240   -5.0370   22.5780 C   0  0  0  0  0  0  0  0  0  0  0  0
  -22.6170   -4.4420   21.4650 F   0  0  0  0  0  0  0  0  0  0  0  0
  -21.2230   -4.1540   26.0220 F   0  0  0  0  0  0  0  0  0  0  0  0
  -23.1700  -13.7090   21.2220 C   0  0  0  0  0  0  0  0  0  0  0  0
  -22.4880  -12.9980   22.1150 N   0  0  0  0  0  0  0  0  0  0  0  0
  -22.7260  -14.7640   20.7760 O   0  0  0  0  0  0  0  0  0  0  0  0
  -22.8630  -12.1440   22.4990 H   0  0  0  0  0  0  0  0  0  0  0  0
  -21.5770  -13.3140   22.4180 H   0  0  0  0  0  0  0  0  0  0  0  0
  -25.7810  -15.3370   20.2720 N   0  0  0  0  0  0  0  0  0  0  0  0
  -25.0370  -16.0010   20.4620 H   0  0  0  0  0  0  0  0  0  0  0  0
  -26.5980  -15.7640   19.8580 H   0  0  0  0  0  0  0  0  0  0  0  0
  -28.7660  -24.0530   19.4980 C   0  0  0  0  0  2  0  0  0  0  0  0
  -28.2270  -25.2310   20.4190 C   0  0  0  0  0  2  0  0  0  0  0  0
  -28.3410  -26.6160   19.9080 O   0  0  0  0  0  0  0  0  0  0  0  0
  -24.5570  -31.8350   23.1320 C   0  0  0  0  0  0  0  0  0  0  0  0
  -27.2000  -27.4210   19.9350 C   0  0  0  0  0  0  0  0  0  0  0  0
  -23.3500  -30.4570   21.4760 C   0  0  0  0  0  3  0  0  0  0  0  0
  -24.8030  -28.9660   19.9910 C   0  0  0  0  0  0  0  0  0  0  0  0
  -25.8750  -30.8340   21.2550 C   0  0  0  0  0  2  0  0  0  0  0  0
  -25.9690  -29.4720   20.5800 C   0  0  0  0  0  0  0  0  0  0  0  0
  -27.1730  -28.7120   20.5390 C   0  0  0  0  0  3  0  0  0  0  0  0
  -26.0160  -26.9580   19.3240 C   0  0  0  0  0  3  0  0  0  0  0  0
  -24.8270  -27.7140   19.3530 C   0  0  0  0  0  3  0  0  0  0  0  0
  -23.5500  -29.8130   20.0790 C   0  0  0  0  0  2  0  0  0  0  0  0
  -24.6120  -31.0570   22.0120 N   0  0  0  0  0  0  0  0  0  0  0  0
  -23.4780  -32.0820   23.6910 O   0  0  0  0  0  0  0  0  0  0  0  0
  -22.7210  -29.4060   22.4220 C   0  0  0  0  0  0  0  0  0  0  0  0
  -21.4020  -29.1910   22.2920 N   0  0  0  0  0  0  0  0  0  0  0  0
  -23.4200  -28.7890   23.2300 O   0  0  0  0  0  0  0  0  0  0  0  0
  -20.8970  -29.7450   21.6140 H   0  0  0  0  0  0  0  0  0  0  0  0
  -18.0720  -27.8530   22.7360 C   0  0  0  0  0  0  0  0  0  0  0  0
  -20.6120  -28.2170   23.0470 C   0  0  0  0  0  3  0  0  0  0  0  0
  -20.7830  -26.7940   22.4680 C   0  0  0  0  0  2  0  0  0  0  0  0
  -19.7120  -26.4290   21.4370 C   0  0  0  0  0  2  0  0  0  0  0  0
  -18.3140  -26.5140   22.0590 C   0  0  0  0  0  2  0  0  0  0  0  0
  -19.1500  -28.6600   23.1850 C   0  0  0  0  0  0  0  0  0  0  0  0
  -18.8690  -29.9110   23.7740 C   0  0  0  0  0  3  0  0  0  0  0  0
  -17.5420  -30.3560   23.9230 C   0  0  0  0  0  3  0  0  0  0  0  0
  -16.4780  -29.5470   23.4900 C   0  0  0  0  0  3  0  0  0  0  0  0
  -16.7430  -28.2960   22.9020 C   0  0  0  0  0  3  0  0  0  0  0  0
  -25.8400  -32.4730   23.7510 C   0  0  0  0  0  3  0  0  0  0  0  0
  -25.5180  -33.8600   24.1120 N   0  0  0  0  0  0  0  0  0  0  0  0
  -25.8270  -34.9320   23.3720 C   0  0  0  0  0  0  0  0  0  0  0  0
  -26.4870  -34.8570   22.3300 O   0  0  0  0  0  0  0  0  0  0  0  0
  -24.9340  -33.9910   24.9250 H   0  0  0  0  0  0  0  0  0  0  0  0
  -24.0750  -36.7120   23.0700 C   0  0  0  0  0  1  0  0  0  0  0  0
  -25.3290  -36.3040   23.8610 C   0  0  0  0  0  3  0  0  0  0  0  0
  -27.4560  -37.2010   24.6980 C   0  0  0  0  0  1  0  0  0  0  0  0
  -26.3480  -37.3720   23.7620 N   0  0  0  0  0  0  0  0  0  0  0  0
  -25.9310  -38.2840   23.9280 H   0  0  0  0  0  0  0  0  0  0  0  0
  -26.3830  -31.6820   25.0040 C   0  0  1  0  0  0  0  0  0  0  0  0
  -25.3040  -31.4040   26.0770 C   0  0  0  0  0  1  0  0  0  0  0  0
  -26.9850  -30.3230   24.5760 C   0  0  0  0  0  1  0  0  0  0  0  0
  -27.5270  -32.4820   25.6730 C   0  0  0  0  0  1  0  0  0  0  0  0
  8  2  1  6
  3  7  1  0
  4  1  1  0
  5  2  1  0
  5 10  1  0
  6  9  1  0
  7 22  1  0
  7  6  1  0
  8  3  1  0
  8  1  1  0
  8  9  1  0
  9 12  1  0
 10  4  1  0
 10 13  1  1
 11  9  1  0
 14 22  1  0
 15 20  1  0
 16 17  1  0
 16 15  1  0
 18 17  1  0
 18 27  1  0
 18 19  1  0
 20 14  1  0
 20 19  1  0
 21 14  2  0
 22 23  1  0
 24 25  2  0
 25 44  1  0
 26 25  1  0
 26 29  1  0
 27 28  1  0
 27 24  1  0
 28 26  2  0
 29 30  1  0
 30 31  2  0
 32 35  1  0
 32 31  1  0
 33 32  2  0
 34 33  1  0
 34 29  2  0
 35 36  1  0
 36 41  2  0
 36 37  1  0
 37 38  2  0
 38 39  1  0
 39 43  1  0
 40 39  2  0
 41 40  1  0
 42 41  1  0
 44 45  1  0
 45 48  1  0
 45 47  1  0
 46 44  2  0
 49 24  1  0
 49 50  1  0
 51 49  1  0
 52 10  1  0
 52 53  1  0
 54 56  1  0
 54 53  1  0
 55 66  2  0
 56 61  1  0
 57 65  1  0
 57 67  1  0
 58 64  1  0
 58 60  1  0
 59 65  1  0
 60 59  1  0
 61 60  2  0
 62 63  1  0
 62 56  2  0
 63 58  2  0
 64 57  1  0
 65 55  1  0
 67 69  2  0
 68 67  1  0
 70 68  1  0
 71 80  2  0
 71 76  1  0
 72 68  1  0
 72 76  1  0
 73 72  1  0
 74 75  1  0
 74 73  1  0
 75 71  1  0
 76 77  2  0
 77 78  1  0
 79 78  2  0
 80 79  1  0
 81 55  1  0
 81 82  1  0
 81 91  1  0
 82 85  1  0
 83 87  1  0
 83 82  1  0
 84 83  2  0
 87 86  1  0
 89 87  1  0
 89 90  1  0
 89 88  1  0
 91 94  1  1
 91 92  1  0
 93 91  1  0
M  ISO  4  14 100  22 100  53 101  54 101
M  END
>  <TORSDO>  (25) 
F 18

>  <SCORE>  (25) 
-14.233

>  <name>  (25) 
24

>  <ligand_id>  (25) 
24

>  <original_smiles>  (25) 
[H]c1c([H])c([H])c2c(c1[H])C([H])([H])C([H])([H])C([H])([H])C2([H])N([H])C(=O)C1([H])N(C(=O)C([H])(N([H])C(=O)C([H])(N([H])C([H])([H])[H])C([H])([H])[H])C(C([H])([H])[H])(C([H])([H])[H])C([H])([H])[H])C([H])([H])c2c([H])c(OC([H])([H])C([H])([H])[N+]3([H])C([H])([H])C([H])([H])C4(C([H])([H])C([H])(N([H])C(=O)N5C([H])([H])C([H])([H])C([H])([H])C([H])(n6nc(-c7c([H])c([H])c(Oc8c([H])c([H])c(F)c([H])c8F)c([H])c7[H])c(C(=O)N([H])[H])c6N([H])[H])C5([H])[H])C([H])([H])[N+]4([H])[H])C([H])([H])C3([H])[H])c([H])c([H])c2C1([H])[H]

>  <smiles>  (25) 
[H]c1c([H])c([H])c2c(c1[H])C([H])([H])C([H])([H])C([H])([H])C2([H])N([H])C(=O)C1([H])N(C(=O)C([H])(N([H])C(=O)C([H])(N([H])C([H])([H])[H])C([H])([H])[H])C(C([H])([H])[H])(C([H])([H])[H])C([H])([H])[H])C([H])([H])c2c([H])c(OC([H])([H])C([H])([H])[N+]3([H])C([H])([H])C([H])([H])C4(C([H])([H])C([H])(N([H])C(=O)N5C([H])([H])C([H])([H])C([H])([H])C([H])(n6nc(-c7c([H])c([H])c(Oc8c([H])c([H])c(F)c([H])c8F)c([H])c7[H])c(C(=O)N([H])[H])c6N([H])[H])C5([H])[H])C([H])([H])[N+]4([H])[H])C([H])([H])C3([H])[H])c([H])c([H])c2C1([H])[H]

$$$$
25:0:0
     RDKit          3D

 88 96  0  0  1  0  0  0  0  0999 V2000
  -28.6800  -19.8260   17.8570 C   0  0  0  0  0  2  0  0  0  0  0  0
  -28.6380  -20.3680   20.9240 C   0  0  0  0  0  2  0  0  0  0  0  0
  -29.0100  -21.3120   17.6320 C   0  0  0  0  0  2  0  0  0  0  0  0
  -29.5840  -18.9750   20.2900 C   0  0  0  0  0  3  0  0  0  0  0  0
  -29.7590  -19.8220   18.9360 C   0  0  0  0  0  3  0  0  0  0  0  0
  -28.5980  -21.9500   20.0650 C   0  0  0  0  0  2  0  0  0  0  0  0
  -29.5430  -21.3900   18.9980 N   0  0  2  0  0  4  0  0  0  0  0  0
  -30.4250  -21.8820   19.0240 H   0  0  0  0  0  0  0  0  0  0  0  0
  -30.2650  -15.8070   20.2990 C   0  0  0  0  0  0  0  0  0  0  0  0
  -30.4110  -13.2410   19.5270 C   0  0  0  0  0  2  0  0  0  0  0  0
  -29.5480  -12.7860   18.3150 C   0  0  0  0  0  2  0  0  0  0  0  0
  -28.1250  -12.4180   18.7580 C   0  0  0  0  0  2  0  0  0  0  0  0
  -27.5820  -13.4330   19.7890 C   0  0  0  0  0  3  0  0  0  0  0  0
  -28.5900  -13.7940   20.9060 C   0  0  0  0  0  2  0  0  0  0  0  0
  -29.7580  -14.4290   20.2480 N   0  0  0  0  0  0  0  0  0  0  0  0
  -31.5020  -15.7470   20.1500 O   0  0  0  0  0  0  0  0  0  0  0  0
  -29.4910  -17.1730   20.3340 N   0  0  0  0  0  0  0  0  0  0  0  0
  -28.5140  -16.9280   20.4110 H   0  0  0  0  0  0  0  0  0  0  0  0
  -25.2120  -13.9450   20.5390 C   0  0  0  0  0  0  0  0  0  0  0  0
  -24.1560  -13.1570   20.8940 C   0  0  0  0  0  0  0  0  0  0  0  0
  -24.6370  -11.8110   20.8600 C   0  0  0  0  0  0  0  0  0  0  0  0
  -26.2650  -13.0820   20.2990 N   0  0  0  0  0  0  0  0  0  0  0  0
  -25.9330  -11.7900   20.5600 N   0  0  0  0  0  0  0  0  0  0  0  0
  -23.9150  -10.5430   21.0380 C   0  0  0  0  0  0  0  0  0  0  0  0
  -24.3250   -9.5830   21.9900 C   0  0  0  0  0  3  0  0  0  0  0  0
  -23.6000   -8.3840   22.1580 C   0  0  0  0  0  3  0  0  0  0  0  0
  -22.4490   -8.1340   21.3720 C   0  0  0  0  0  0  0  0  0  0  0  0
  -22.0580   -9.0810   20.4100 C   0  0  0  0  0  3  0  0  0  0  0  0
  -22.7840  -10.2730   20.2410 C   0  0  0  0  0  3  0  0  0  0  0  0
  -21.6980   -6.9860   21.4480 O   0  0  0  0  0  0  0  0  0  0  0  0
  -21.5980   -6.2660   22.6110 C   0  0  0  0  0  0  0  0  0  0  0  0
  -21.0600   -6.8270   23.7900 C   0  0  0  0  0  3  0  0  0  0  0  0
  -20.9110   -6.0310   24.9430 C   0  0  0  0  0  3  0  0  0  0  0  0
  -21.2900   -4.6750   24.9190 C   0  0  0  0  0  0  0  0  0  0  0  0
  -21.8210   -4.1140   23.7440 C   0  0  0  0  0  3  0  0  0  0  0  0
  -21.9710   -4.9070   22.5930 C   0  0  0  0  0  0  0  0  0  0  0  0
  -22.4640   -4.3550   21.4570 F   0  0  0  0  0  0  0  0  0  0  0  0
  -21.1400   -3.9090   26.0240 F   0  0  0  0  0  0  0  0  0  0  0  0
  -22.7530  -13.6230   21.1450 C   0  0  0  0  0  0  0  0  0  0  0  0
  -22.0220  -12.9270   22.0080 N   0  0  0  0  0  0  0  0  0  0  0  0
  -22.3160  -14.6420   20.6130 O   0  0  0  0  0  0  0  0  0  0  0  0
  -22.3900  -12.1030   22.4600 H   0  0  0  0  0  0  0  0  0  0  0  0
  -21.0790  -13.2230   22.2200 H   0  0  0  0  0  0  0  0  0  0  0  0
  -25.3620  -15.3180   20.3660 N   0  0  0  0  0  0  0  0  0  0  0  0
  -24.5800  -15.9570   20.4640 H   0  0  0  0  0  0  0  0  0  0  0  0
  -26.1950  -15.7620   20.0070 H   0  0  0  0  0  0  0  0  0  0  0  0
  -27.8870  -23.8040   20.1200 C   0  0  0  0  0  1  0  0  0  0  0  0
  -28.1140  -25.5690   20.1550 O   0  0  0  0  0  0  0  0  0  0  0  0
  -24.6500  -31.8880   23.1490 C   0  0  0  0  0  0  0  0  0  0  0  0
  -27.1420  -26.7930   20.1260 C   0  0  0  0  0  0  0  0  0  0  0  0
  -23.4410  -30.4870   21.5310 C   0  0  0  0  0  3  0  0  0  0  0  0
  -24.8700  -28.8370   20.1000 C   0  0  0  0  0  0  0  0  0  0  0  0
  -26.0180  -30.6290   21.3720 C   0  0  0  0  0  2  0  0  0  0  0  0
  -26.0760  -29.1920   20.7170 C   0  0  0  0  0  0  0  0  0  0  0  0
  -27.1950  -28.2010   20.6940 C   0  0  0  0  0  3  0  0  0  0  0  0
  -25.8990  -26.6560   19.4540 C   0  0  0  0  0  3  0  0  0  0  0  0
  -24.8210  -27.5950   19.4440 C   0  0  0  0  0  3  0  0  0  0  0  0
  -23.6630  -29.7880   20.1570 C   0  0  0  0  0  2  0  0  0  0  0  0
  -24.7280  -31.0340   22.0690 N   0  0  0  0  0  0  0  0  0  0  0  0
  -23.5630  -32.1860   23.6750 O   0  0  0  0  0  0  0  0  0  0  0  0
  -22.7390  -29.5110   22.5130 C   0  0  0  0  0  0  0  0  0  0  0  0
  -21.4070  -29.3420   22.3980 N   0  0  0  0  0  0  0  0  0  0  0  0
  -23.4060  -28.9000   23.3530 O   0  0  0  0  0  0  0  0  0  0  0  0
  -20.9170  -29.8870   21.7020 H   0  0  0  0  0  0  0  0  0  0  0  0
  -18.0360  -28.0940   22.9420 C   0  0  0  0  0  0  0  0  0  0  0  0
  -20.5950  -28.4030   23.1830 C   0  0  0  0  0  3  0  0  0  0  0  0
  -20.7110  -26.9660   22.6230 C   0  0  0  0  0  2  0  0  0  0  0  0
  -19.6090  -26.6190   21.6170 C   0  0  0  0  0  2  0  0  0  0  0  0
  -18.2300  -26.7450   22.2690 C   0  0  0  0  0  2  0  0  0  0  0  0
  -19.1460  -28.8790   23.3560 C   0  0  0  0  0  0  0  0  0  0  0  0
  -18.9080  -30.1370   23.9510 C   0  0  0  0  0  3  0  0  0  0  0  0
  -17.5960  -30.6120   24.1320 C   0  0  0  0  0  3  0  0  0  0  0  0
  -16.5020  -29.8260   23.7290 C   0  0  0  0  0  3  0  0  0  0  0  0
  -16.7230  -28.5690   23.1410 C   0  0  0  0  0  3  0  0  0  0  0  0
  -25.9200  -32.5430   23.7710 C   0  0  0  0  0  3  0  0  0  0  0  0
  -25.5940  -33.9390   24.1230 N   0  0  0  0  0  0  0  0  0  0  0  0
  -25.9160  -35.0160   23.3920 C   0  0  0  0  0  0  0  0  0  0  0  0
  -26.5740  -34.9380   22.3520 O   0  0  0  0  0  0  0  0  0  0  0  0
  -25.0050  -34.0710   24.9320 H   0  0  0  0  0  0  0  0  0  0  0  0
  -24.1910  -36.8310   23.1010 C   0  0  0  0  0  1  0  0  0  0  0  0
  -25.4360  -36.3970   23.8900 C   0  0  0  0  0  3  0  0  0  0  0  0
  -27.5730  -37.2690   24.7350 C   0  0  0  0  0  1  0  0  0  0  0  0
  -26.4700  -37.4520   23.7960 N   0  0  0  0  0  0  0  0  0  0  0  0
  -26.0640  -38.3690   23.9590 H   0  0  0  0  0  0  0  0  0  0  0  0
  -26.4430  -31.7800   25.0520 C   0  0  1  0  0  0  0  0  0  0  0  0
  -25.3670  -31.5890   26.1480 C   0  0  0  0  0  1  0  0  0  0  0  0
  -26.9820  -30.3800   24.6830 C   0  0  0  0  0  1  0  0  0  0  0  0
  -27.6290  -32.5540   25.6750 C   0  0  0  0  0  1  0  0  0  0  0  0
  3  1  1  0
  3  7  1  0
  4 17  1  0
  4  2  1  0
  5  1  1  0
  5  7  1  0
  5  4  1  0
  6  2  1  0
  7  8  1  6
  7  6  1  0
  9 17  1  0
 10 15  1  0
 11 12  1  0
 11 10  1  0
 13 12  1  0
 13 22  1  0
 13 14  1  0
 15  9  1  0
 15 14  1  0
 16  9  2  0
 17 18  1  0
 19 20  2  0
 20 39  1  0
 21 20  1  0
 21 24  1  0
 22 19  1  0
 22 23  1  0
 23 21  2  0
 24 25  1  0
 25 26  2  0
 27 30  1  0
 27 26  1  0
 28 27  2  0
 29 28  1  0
 29 24  2  0
 30 31  1  0
 31 32  1  0
 32 33  2  0
 34 33  1  0
 34 38  1  0
 35 34  2  0
 36 31  2  0
 36 35  1  0
 37 36  1  0
 39 40  1  0
 40 43  1  0
 40 42  1  0
 41 39  2  0
 44 45  1  0
 44 19  1  0
 46 44  1  0
 47 48  1  0
 49 60  2  0
 50 48  1  0
 50 55  1  0
 51 59  1  0
 51 61  1  0
 52 58  1  0
 52 54  1  0
 53 59  1  0
 54 53  1  0
 55 54  2  0
 56 50  2  0
 57 56  1  0
 57 52  2  0
 58 51  1  0
 59 49  1  0
 61 63  2  0
 62 61  1  0
 64 62  1  0
 65 74  2  0
 65 70  1  0
 66 62  1  0
 66 70  1  0
 67 66  1  0
 68 69  1  0
 68 67  1  0
 69 65  1  0
 70 71  2  0
 71 72  1  0
 73 72  2  0
 74 73  1  0
 75 49  1  0
 75 76  1  0
 75 85  1  0
 76 79  1  0
 77 81  1  0
 77 76  1  0
 78 77  2  0
 81 80  1  0
 83 81  1  0
 83 84  1  0
 83 82  1  0
 85 88  1  1
 85 86  1  0
 87 85  1  0
M  ISO  4   9 100  17 100  47 101  48 101
M  END
>  <TORSDO>  (26) 
F 17

>  <SCORE>  (26) 
-16.508

>  <name>  (26) 
25

>  <ligand_id>  (26) 
25

>  <original_smiles>  (26) 
[H]c1c([H])c([H])c2c(c1[H])C([H])([H])C([H])([H])C([H])([H])C2([H])N([H])C(=O)C1([H])N(C(=O)C([H])(N([H])C(=O)C([H])(N([H])C([H])([H])[H])C([H])([H])[H])C(C([H])([H])[H])(C([H])([H])[H])C([H])([H])[H])C([H])([H])c2c([H])c(OC([H])([H])C3([H])C([H])([H])C([H])(N([H])C(=O)N4C([H])([H])C([H])([H])C([H])([H])C([H])(n5nc(-c6c([H])c([H])c(Oc7c([H])c([H])c(F)c([H])c7F)c([H])c6[H])c(C(=O)N([H])[H])c5N([H])[H])C4([H])[H])C4([H])C([H])([H])C([H])([H])[N+]34[H])c([H])c([H])c2C1([H])[H]

>  <smiles>  (26) 
[H]c1c([H])c([H])c2c(c1[H])C([H])([H])C([H])([H])C([H])([H])C2([H])N([H])C(=O)C1([H])N(C(=O)C([H])(N([H])C(=O)C([H])(N([H])C([H])([H])[H])C([H])([H])[H])C(C([H])([H])[H])(C([H])([H])[H])C([H])([H])[H])C([H])([H])c2c([H])c(OC([H])([H])C3([H])C([H])([H])C([H])(N([H])C(=O)N4C([H])([H])C([H])([H])C([H])([H])C([H])(n5nc(-c6c([H])c([H])c(Oc7c([H])c([H])c(F)c([H])c7F)c([H])c6[H])c(C(=O)N([H])[H])c5N([H])[H])C4([H])[H])C4([H])C([H])([H])C([H])([H])[N+]34[H])c([H])c([H])c2C1([H])[H]

$$$$
26:0:0
     RDKit          3D

 92100  0  0  1  0  0  0  0  0999 V2000
  -28.0100  -22.9990   20.0120 C   0  0  0  0  0  2  0  0  0  0  0  0
  -28.5780  -21.6260   19.4630 C   0  0  0  0  0  2  0  0  0  0  0  0
  -30.6480  -22.0210   20.7970 C   0  0  0  0  0  2  0  0  0  0  0  0
  -29.0580  -24.0390   20.5110 C   0  0  0  0  0  3  0  0  0  0  0  0
  -29.9360  -23.2140   21.5100 C   0  0  0  0  0  3  0  0  0  0  0  0
  -29.1980  -22.7260   22.7810 C   0  0  0  0  0  1  0  0  0  0  0  0
  -29.7400  -20.9980   20.1870 N   0  0  1  0  0  4  0  0  0  0  0  0
  -30.3100  -20.6430   19.4340 H   0  0  0  0  0  0  0  0  0  0  0  0
  -29.3410  -26.0940   22.1460 C   0  0  0  0  0  1  0  0  0  0  0  0
  -28.4790  -25.4490   21.0400 C   0  0  0  0  0  3  0  0  0  0  0  0
  -28.3950  -26.5480   20.0750 O   0  0  0  0  0  0  0  0  0  0  0  0
  -24.6350  -31.8710   23.2010 C   0  0  0  0  0  0  0  0  0  0  0  0
  -27.2680  -27.3690   20.1240 C   0  0  0  0  0  0  0  0  0  0  0  0
  -23.4320  -30.4700   21.5590 C   0  0  0  0  0  3  0  0  0  0  0  0
  -24.8870  -28.9300   20.1290 C   0  0  0  0  0  0  0  0  0  0  0  0
  -25.9640  -30.8160   21.3610 C   0  0  0  0  0  2  0  0  0  0  0  0
  -26.0520  -29.4400   20.7180 C   0  0  0  0  0  0  0  0  0  0  0  0
  -27.2500  -28.6710   20.7040 C   0  0  0  0  0  3  0  0  0  0  0  0
  -26.0860  -26.8950   19.5240 C   0  0  0  0  0  3  0  0  0  0  0  0
  -24.9030  -27.6610   19.5260 C   0  0  0  0  0  3  0  0  0  0  0  0
  -23.6440  -29.7940   20.1780 C   0  0  0  0  0  2  0  0  0  0  0  0
  -24.6970  -31.0700   22.0970 N   0  0  0  0  0  0  0  0  0  0  0  0
  -23.5530  -32.1400   23.7420 O   0  0  0  0  0  0  0  0  0  0  0  0
  -22.7800  -29.4490   22.5190 C   0  0  0  0  0  0  0  0  0  0  0  0
  -21.4530  -29.2740   22.4050 N   0  0  0  0  0  0  0  0  0  0  0  0
  -23.4670  -28.8150   23.3250 O   0  0  0  0  0  0  0  0  0  0  0  0
  -20.9580  -29.8370   21.7250 H   0  0  0  0  0  0  0  0  0  0  0  0
  -18.0780  -28.0880   22.9330 C   0  0  0  0  0  0  0  0  0  0  0  0
  -20.6400  -28.3330   23.1760 C   0  0  0  0  0  3  0  0  0  0  0  0
  -20.7290  -26.9060   22.5850 C   0  0  0  0  0  2  0  0  0  0  0  0
  -19.6140  -26.5980   21.5810 C   0  0  0  0  0  2  0  0  0  0  0  0
  -18.2410  -26.7440   22.2420 C   0  0  0  0  0  2  0  0  0  0  0  0
  -19.2040  -28.8400   23.3570 C   0  0  0  0  0  0  0  0  0  0  0  0
  -18.9990  -30.1000   23.9620 C   0  0  0  0  0  3  0  0  0  0  0  0
  -17.6980  -30.6050   24.1470 C   0  0  0  0  0  3  0  0  0  0  0  0
  -16.5860  -29.8480   23.7400 C   0  0  0  0  0  3  0  0  0  0  0  0
  -16.7760  -28.5920   23.1380 C   0  0  0  0  0  3  0  0  0  0  0  0
  -25.9190  -32.5060   23.8200 C   0  0  0  0  0  3  0  0  0  0  0  0
  -26.4480  -31.7290   25.0860 C   0  0  1  0  0  0  0  0  0  0  0  0
  -25.3640  -31.4760   26.1600 C   0  0  0  0  0  1  0  0  0  0  0  0
  -27.0350  -30.3560   24.6790 C   0  0  0  0  0  1  0  0  0  0  0  0
  -27.5990  -32.5240   25.7470 C   0  0  0  0  0  1  0  0  0  0  0  0
  -25.6030  -33.9000   24.1640 N   0  0  0  0  0  0  0  0  0  0  0  0
  -25.9230  -34.9610   23.4100 C   0  0  0  0  0  0  0  0  0  0  0  0
  -26.5850  -34.8690   22.3720 O   0  0  0  0  0  0  0  0  0  0  0  0
  -25.0130  -34.0440   24.9690 H   0  0  0  0  0  0  0  0  0  0  0  0
  -24.1810  -36.7460   23.0820 C   0  0  0  0  0  1  0  0  0  0  0  0
  -25.4300  -36.3430   23.8810 C   0  0  0  0  0  3  0  0  0  0  0  0
  -27.5660  -37.2350   24.7040 C   0  0  0  0  0  1  0  0  0  0  0  0
  -26.4560  -37.4030   23.7700 N   0  0  0  0  0  0  0  0  0  0  0  0
  -26.0460  -38.3200   23.9260 H   0  0  0  0  0  0  0  0  0  0  0  0
  -29.5180  -19.7290   21.0010 C   0  0  0  0  0  2  0  0  0  0  0  0
  -29.6210  -18.3200   20.2570 C   0  0  0  0  0  2  0  0  0  0  0  0
  -30.2300  -17.1140   21.1010 C   0  0  0  0  0  2  0  0  0  0  0  0
  -30.6360  -14.6380   20.3980 C   0  0  0  0  0  0  0  0  0  0  0  0
  -30.4160  -12.4140   19.3070 C   0  0  0  0  0  2  0  0  0  0  0  0
  -29.4790  -12.5480   18.0860 C   0  0  0  0  0  2  0  0  0  0  0  0
  -28.0020  -12.3990   18.5080 C   0  0  0  0  0  2  0  0  0  0  0  0
  -27.6410  -13.2640   19.7440 C   0  0  0  0  0  3  0  0  0  0  0  0
  -28.6890  -13.0980   20.8650 C   0  0  0  0  0  2  0  0  0  0  0  0
  -30.0010  -13.4300   20.2920 N   0  0  0  0  0  0  0  0  0  0  0  0
  -31.8090  -14.7870   20.0460 O   0  0  0  0  0  0  0  0  0  0  0  0
  -29.8530  -15.7030   20.7490 N   0  0  0  0  0  0  0  0  0  0  0  0
  -28.8920  -15.4550   20.9370 H   0  0  0  0  0  0  0  0  0  0  0  0
  -25.2410  -13.8780   20.4280 C   0  0  0  0  0  0  0  0  0  0  0  0
  -24.1690  -13.1120   20.7960 C   0  0  0  0  0  0  0  0  0  0  0  0
  -24.6290  -11.7600   20.7900 C   0  0  0  0  0  0  0  0  0  0  0  0
  -26.2860  -12.9930   20.2170 N   0  0  0  0  0  0  0  0  0  0  0  0
  -25.9230  -11.7150   20.4950 N   0  0  0  0  0  0  0  0  0  0  0  0
  -23.8990  -10.5010   20.9890 C   0  0  0  0  0  0  0  0  0  0  0  0
  -24.3230   -9.5440   21.9360 C   0  0  0  0  0  3  0  0  0  0  0  0
  -23.5930   -8.3500   22.1220 C   0  0  0  0  0  3  0  0  0  0  0  0
  -22.4270   -8.1040   21.3600 C   0  0  0  0  0  0  0  0  0  0  0  0
  -22.0230   -9.0510   20.4010 C   0  0  0  0  0  3  0  0  0  0  0  0
  -22.7530  -10.2360   20.2140 C   0  0  0  0  0  3  0  0  0  0  0  0
  -21.6690   -6.9620   21.4530 O   0  0  0  0  0  0  0  0  0  0  0  0
  -21.6140   -6.2290   22.6130 C   0  0  0  0  0  0  0  0  0  0  0  0
  -21.1820   -6.7960   23.8320 C   0  0  0  0  0  3  0  0  0  0  0  0
  -21.0740   -5.9900   24.9830 C   0  0  0  0  0  3  0  0  0  0  0  0
  -21.3870   -4.6190   24.9160 C   0  0  0  0  0  0  0  0  0  0  0  0
  -21.8130   -4.0520   23.7010 C   0  0  0  0  0  3  0  0  0  0  0  0
  -21.9230   -4.8560   22.5530 C   0  0  0  0  0  0  0  0  0  0  0  0
  -22.3130   -4.3010   21.3800 F   0  0  0  0  0  0  0  0  0  0  0  0
  -21.2760   -3.8420   26.0180 F   0  0  0  0  0  0  0  0  0  0  0  0
  -22.7690  -13.5950   21.0450 C   0  0  0  0  0  0  0  0  0  0  0  0
  -22.0300  -12.9110   21.9120 N   0  0  0  0  0  0  0  0  0  0  0  0
  -22.3400  -14.6150   20.5060 O   0  0  0  0  0  0  0  0  0  0  0  0
  -22.3920  -12.0870   22.3690 H   0  0  0  0  0  0  0  0  0  0  0  0
  -21.0910  -13.2150   22.1210 H   0  0  0  0  0  0  0  0  0  0  0  0
  -25.4100  -15.2460   20.2320 N   0  0  0  0  0  0  0  0  0  0  0  0
  -24.6370  -15.8980   20.3140 H   0  0  0  0  0  0  0  0  0  0  0  0
  -26.2530  -15.6770   19.8730 H   0  0  0  0  0  0  0  0  0  0  0  0
  1  4  1  0
  2  1  1  0
  2  7  1  0
  3  5  1  0
  4 10  1  0
  4  5  1  0
  5  6  1  0
  7  3  1  0
  7 52  1  0
  7  8  1  6
 10  9  1  0
 11 13  1  0
 11 10  1  0
 12 23  2  0
 13 18  1  0
 14 22  1  0
 14 24  1  0
 15 21  1  0
 15 17  1  0
 16 22  1  0
 17 16  1  0
 18 17  2  0
 19 20  1  0
 19 13  2  0
 20 15  2  0
 21 14  1  0
 22 12  1  0
 24 26  2  0
 25 24  1  0
 27 25  1  0
 28 37  2  0
 28 33  1  0
 29 25  1  0
 29 33  1  0
 30 29  1  0
 31 32  1  0
 31 30  1  0
 32 28  1  0
 33 34  2  0
 34 35  1  0
 36 35  2  0
 37 36  1  0
 38 12  1  0
 38 43  1  0
 38 39  1  0
 39 42  1  1
 39 40  1  0
 41 39  1  0
 43 46  1  0
 44 48  1  0
 44 43  1  0
 45 44  2  0
 48 47  1  0
 50 48  1  0
 50 51  1  0
 50 49  1  0
 53 52  1  0
 53 54  1  0
 55 63  1  0
 56 61  1  0
 57 58  1  0
 57 56  1  0
 59 58  1  0
 59 68  1  0
 59 60  1  0
 61 55  1  0
 61 60  1  0
 62 55  2  0
 63 64  1  0
 63 54  1  0
 65 66  2  0
 66 85  1  0
 67 66  1  0
 67 70  1  0
 68 65  1  0
 68 69  1  0
 69 67  2  0
 70 71  1  0
 71 72  2  0
 73 76  1  0
 73 72  1  0
 74 73  2  0
 75 74  1  0
 75 70  2  0
 76 77  1  0
 77 78  1  0
 78 79  2  0
 80 79  1  0
 80 84  1  0
 81 80  2  0
 82 77  2  0
 82 81  1  0
 83 82  1  0
 85 86  1  0
 86 89  1  0
 86 88  1  0
 87 85  2  0
 90 91  1  0
 90 65  1  0
 92 90  1  0
M  ISO  4  10 101  11 101  55 100  63 100
M  END
>  <TORSDO>  (27) 
F 20

>  <SCORE>  (27) 
-13.780

>  <name>  (27) 
26

>  <ligand_id>  (27) 
26

>  <original_smiles>  (27) 
[H]c1c([H])c([H])c2c(c1[H])C([H])([H])C([H])([H])C([H])([H])C2([H])N([H])C(=O)C1([H])N(C(=O)C([H])(N([H])C(=O)C([H])(N([H])C([H])([H])[H])C([H])([H])[H])C(C([H])([H])[H])(C([H])([H])[H])C([H])([H])[H])C([H])([H])c2c([H])c(OC([H])(C([H])([H])[H])C3([H])C([H])([H])C([H])([H])[N+]([H])(C([H])([H])C([H])([H])C([H])([H])N([H])C(=O)N4C([H])([H])C([H])([H])C([H])([H])C([H])(n5nc(-c6c([H])c([H])c(Oc7c([H])c([H])c(F)c([H])c7F)c([H])c6[H])c(C(=O)N([H])[H])c5N([H])[H])C4([H])[H])C([H])([H])C3([H])C([H])([H])[H])c([H])c([H])c2C1([H])[H]

>  <smiles>  (27) 
[H]c1c([H])c([H])c2c(c1[H])C([H])([H])C([H])([H])C([H])([H])C2([H])N([H])C(=O)C1([H])N(C(=O)C([H])(N([H])C(=O)C([H])(N([H])C([H])([H])[H])C([H])([H])[H])C(C([H])([H])[H])(C([H])([H])[H])C([H])([H])[H])C([H])([H])c2c([H])c(OC([H])(C([H])([H])[H])C3([H])C([H])([H])C([H])([H])[N+]([H])(C([H])([H])C([H])([H])C([H])([H])N([H])C(=O)N4C([H])([H])C([H])([H])C([H])([H])C([H])(n5nc(-c6c([H])c([H])c(Oc7c([H])c([H])c(F)c([H])c7F)c([H])c6[H])c(C(=O)N([H])[H])c5N([H])[H])C4([H])[H])C([H])([H])C3([H])C([H])([H])[H])c([H])c([H])c2C1([H])[H]

$$$$
27:0:0
     RDKit          3D

 95104  0  0  1  0  0  0  0  0999 V2000
  -30.6400  -18.8300   18.3280 C   0  0  0  0  0  0  0  0  0  0  0  0
  -30.7840  -21.0620   19.7030 C   0  0  0  0  0  0  0  0  0  0  0  0
  -30.0770  -17.4750   18.7530 C   0  0  0  0  0  2  0  0  0  0  0  0
  -29.3990  -18.4570   21.0200 C   0  0  0  0  0  2  0  0  0  0  0  0
  -29.9160  -20.0530   18.8960 C   0  0  0  0  0  3  0  0  0  0  0  0
  -29.6110  -21.2930   20.6890 C   0  0  0  0  0  3  0  0  0  0  0  0
  -29.1240  -19.8250   20.2130 C   0  0  0  0  0  3  0  0  0  0  0  0
  -30.1690  -17.2610   20.2780 C   0  0  0  0  0  3  0  0  0  0  0  0
  -31.6050  -18.9180   17.5110 N   0  0  0  0  0  0  0  0  0  0  0  0
  -31.9380  -21.4970   19.6290 O   0  0  0  0  0  0  0  0  0  0  0  0
  -31.9470  -18.0060   17.2230 H   0  0  0  0  0  0  0  0  0  0  0  0
  -30.5800  -14.6880   20.4210 C   0  0  0  0  0  0  0  0  0  0  0  0
  -30.3430  -12.4330   19.3980 C   0  0  0  0  0  2  0  0  0  0  0  0
  -29.4150  -12.5460   18.1680 C   0  0  0  0  0  2  0  0  0  0  0  0
  -27.9390  -12.3940   18.5880 C   0  0  0  0  0  2  0  0  0  0  0  0
  -27.5730  -13.2730   19.8140 C   0  0  0  0  0  3  0  0  0  0  0  0
  -28.6230  -13.1530   20.9410 C   0  0  0  0  0  2  0  0  0  0  0  0
  -29.9330  -13.4780   20.3620 N   0  0  0  0  0  0  0  0  0  0  0  0
  -31.7550  -14.7880   20.0590 O   0  0  0  0  0  0  0  0  0  0  0  0
  -29.8240  -15.8210   20.6470 N   0  0  0  0  0  0  0  0  0  0  0  0
  -28.8730  -15.6500   20.9420 H   0  0  0  0  0  0  0  0  0  0  0  0
  -25.1810  -13.8790   20.5220 C   0  0  0  0  0  0  0  0  0  0  0  0
  -24.1100  -13.1110   20.8880 C   0  0  0  0  0  0  0  0  0  0  0  0
  -24.5660  -11.7580   20.8640 C   0  0  0  0  0  0  0  0  0  0  0  0
  -26.2230  -12.9950   20.2960 N   0  0  0  0  0  0  0  0  0  0  0  0
  -25.8580  -11.7130   20.5620 N   0  0  0  0  0  0  0  0  0  0  0  0
  -23.8320  -10.5000   21.0530 C   0  0  0  0  0  0  0  0  0  0  0  0
  -24.2600   -9.5280   21.9850 C   0  0  0  0  0  3  0  0  0  0  0  0
  -23.5270   -8.3350   22.1630 C   0  0  0  0  0  3  0  0  0  0  0  0
  -22.3520   -8.1050   21.4080 C   0  0  0  0  0  0  0  0  0  0  0  0
  -21.9440   -9.0650   20.4650 C   0  0  0  0  0  3  0  0  0  0  0  0
  -22.6770  -10.2500   20.2860 C   0  0  0  0  0  3  0  0  0  0  0  0
  -21.5890   -6.9650   21.4950 O   0  0  0  0  0  0  0  0  0  0  0  0
  -21.5380   -6.2200   22.6460 C   0  0  0  0  0  0  0  0  0  0  0  0
  -21.1190   -6.7740   23.8740 C   0  0  0  0  0  3  0  0  0  0  0  0
  -21.0140   -5.9550   25.0160 C   0  0  0  0  0  3  0  0  0  0  0  0
  -21.3190   -4.5830   24.9310 C   0  0  0  0  0  0  0  0  0  0  0  0
  -21.7300   -4.0280   23.7070 C   0  0  0  0  0  3  0  0  0  0  0  0
  -21.8360   -4.8440   22.5670 C   0  0  0  0  0  0  0  0  0  0  0  0
  -22.2140   -4.3000   21.3850 F   0  0  0  0  0  0  0  0  0  0  0  0
  -21.2110   -3.7940   26.0260 F   0  0  0  0  0  0  0  0  0  0  0  0
  -22.7130  -13.5960   21.1500 C   0  0  0  0  0  0  0  0  0  0  0  0
  -21.9760  -12.9080   22.0160 N   0  0  0  0  0  0  0  0  0  0  0  0
  -22.2830  -14.6220   20.6230 O   0  0  0  0  0  0  0  0  0  0  0  0
  -22.3350  -12.0790   22.4650 H   0  0  0  0  0  0  0  0  0  0  0  0
  -21.0390  -13.2180   22.2320 H   0  0  0  0  0  0  0  0  0  0  0  0
  -25.3520  -15.2490   20.3390 N   0  0  0  0  0  0  0  0  0  0  0  0
  -24.5850  -15.9050   20.4400 H   0  0  0  0  0  0  0  0  0  0  0  0
  -26.1960  -15.6810   19.9870 H   0  0  0  0  0  0  0  0  0  0  0  0
  -29.0620  -23.8550   20.4840 C   0  0  0  0  0  0  0  0  0  0  0  0
  -28.8090  -22.5160   20.2610 N   0  0  0  0  0  0  0  0  0  0  0  0
  -30.0670  -24.2080   21.1040 O   0  0  0  0  0  0  0  0  0  0  0  0
  -27.9640  -22.3170   19.7420 H   0  0  0  0  0  0  0  0  0  0  0  0
  -28.0480  -24.9610   19.9520 C   0  0  0  0  0  2  0  0  0  0  0  0
  -28.3040  -26.4060   20.2620 O   0  0  0  0  0  0  0  0  0  0  0  0
  -24.6110  -31.8710   23.2660 C   0  0  0  0  0  0  0  0  0  0  0  0
  -27.2100  -27.2970   20.1900 C   0  0  0  0  0  0  0  0  0  0  0  0
  -23.4060  -30.4830   21.6200 C   0  0  0  0  0  3  0  0  0  0  0  0
  -24.8540  -28.9410   20.1820 C   0  0  0  0  0  0  0  0  0  0  0  0
  -25.9490  -30.7900   21.4420 C   0  0  0  0  0  2  0  0  0  0  0  0
  -26.0260  -29.4130   20.7870 C   0  0  0  0  0  0  0  0  0  0  0  0
  -27.2050  -28.6020   20.7840 C   0  0  0  0  0  3  0  0  0  0  0  0
  -26.0150  -26.9000   19.5410 C   0  0  0  0  0  3  0  0  0  0  0  0
  -24.8530  -27.6920   19.5490 C   0  0  0  0  0  3  0  0  0  0  0  0
  -23.6190  -29.8170   20.2370 C   0  0  0  0  0  2  0  0  0  0  0  0
  -24.6750  -31.0650   22.1670 N   0  0  0  0  0  0  0  0  0  0  0  0
  -23.5290  -32.1480   23.8020 O   0  0  0  0  0  0  0  0  0  0  0  0
  -22.7410  -29.4620   22.5750 C   0  0  0  0  0  0  0  0  0  0  0  0
  -21.4150  -29.2860   22.4460 N   0  0  0  0  0  0  0  0  0  0  0  0
  -23.4170  -28.8320   23.3920 O   0  0  0  0  0  0  0  0  0  0  0  0
  -20.9280  -29.8460   21.7610 H   0  0  0  0  0  0  0  0  0  0  0  0
  -18.0350  -28.0890   22.9360 C   0  0  0  0  0  0  0  0  0  0  0  0
  -20.5930  -28.3470   23.2130 C   0  0  0  0  0  3  0  0  0  0  0  0
  -20.6960  -26.9160   22.6350 C   0  0  0  0  0  2  0  0  0  0  0  0
  -19.5960  -26.5960   21.6180 C   0  0  0  0  0  2  0  0  0  0  0  0
  -18.2130  -26.7410   22.2580 C   0  0  0  0  0  2  0  0  0  0  0  0
  -19.1520  -28.8500   23.3700 C   0  0  0  0  0  0  0  0  0  0  0  0
  -18.9320  -30.1110   23.9650 C   0  0  0  0  0  3  0  0  0  0  0  0
  -17.6270  -30.6110   24.1300 C   0  0  0  0  0  3  0  0  0  0  0  0
  -16.5230  -29.8470   23.7110 C   0  0  0  0  0  3  0  0  0  0  0  0
  -16.7290  -28.5880   23.1200 C   0  0  0  0  0  3  0  0  0  0  0  0
  -25.8960  -32.4970   23.8910 C   0  0  0  0  0  3  0  0  0  0  0  0
  -25.5900  -33.8970   24.2210 N   0  0  0  0  0  0  0  0  0  0  0  0
  -25.9150  -34.9480   23.4580 C   0  0  0  0  0  0  0  0  0  0  0  0
  -26.5730  -34.8420   22.4190 O   0  0  0  0  0  0  0  0  0  0  0  0
  -25.0040  -34.0530   25.0290 H   0  0  0  0  0  0  0  0  0  0  0  0
  -24.1780  -36.7390   23.1300 C   0  0  0  0  0  1  0  0  0  0  0  0
  -25.4350  -36.3390   23.9190 C   0  0  0  0  0  3  0  0  0  0  0  0
  -27.5840  -37.2320   24.7060 C   0  0  0  0  0  1  0  0  0  0  0  0
  -26.4650  -37.3920   23.7800 N   0  0  0  0  0  0  0  0  0  0  0  0
  -26.0600  -38.3130   23.9280 H   0  0  0  0  0  0  0  0  0  0  0  0
  -26.4050  -31.7250   25.1690 C   0  0  1  0  0  0  0  0  0  0  0  0
  -25.3090  -31.4920   26.2350 C   0  0  0  0  0  1  0  0  0  0  0  0
  -26.9830  -30.3440   24.7800 C   0  0  0  0  0  1  0  0  0  0  0  0
  -27.5580  -32.5130   25.8320 C   0  0  0  0  0  1  0  0  0  0  0  0
  1  3  1  0
  2  6  1  0
  3  8  1  0
  5  1  1  0
  5  2  1  0
  5  7  1  0
  6 51  1  0
  7  6  1  0
  7  4  1  0
  8 20  1  0
  8  4  1  0
  9  1  2  0
 10  2  2  0
 11  9  1  0
 12 20  1  0
 13 18  1  0
 14 15  1  0
 14 13  1  0
 16 15  1  0
 16 25  1  0
 16 17  1  0
 18 12  1  0
 18 17  1  0
 19 12  2  0
 20 21  1  0
 22 23  2  0
 23 42  1  0
 24 23  1  0
 24 27  1  0
 25 22  1  0
 25 26  1  0
 26 24  2  0
 27 28  1  0
 28 29  2  0
 30 33  1  0
 30 29  1  0
 31 30  2  0
 32 31  1  0
 32 27  2  0
 33 34  1  0
 34 35  1  0
 35 36  2  0
 37 36  1  0
 37 41  1  0
 38 37  2  0
 39 34  2  0
 39 38  1  0
 40 39  1  0
 42 43  1  0
 43 46  1  0
 43 45  1  0
 44 42  2  0
 47 48  1  0
 47 22  1  0
 49 47  1  0
 50 52  2  0
 51 50  1  0
 53 51  1  0
 54 55  1  0
 54 50  1  0
 56 67  2  0
 57 55  1  0
 57 62  1  0
 58 66  1  0
 58 68  1  0
 59 65  1  0
 59 61  1  0
 60 66  1  0
 61 60  1  0
 62 61  2  0
 63 64  1  0
 63 57  2  0
 64 59  2  0
 65 58  1  0
 66 56  1  0
 68 70  2  0
 69 68  1  0
 71 69  1  0
 72 81  2  0
 72 77  1  0
 73 69  1  0
 73 77  1  0
 74 73  1  0
 75 76  1  0
 75 74  1  0
 76 72  1  0
 77 78  2  0
 78 79  1  0
 80 79  2  0
 81 80  1  0
 82 56  1  0
 82 83  1  0
 82 92  1  0
 83 86  1  0
 84 88  1  0
 84 83  1  0
 85 84  2  0
 88 87  1  0
 90 88  1  0
 90 91  1  0
 90 89  1  0
 92 95  1  1
 92 93  1  0
 94 92  1  0
M  ISO  4  12 100  20 100  54 101  55 101
M  END
>  <TORSDO>  (28) 
F 18

>  <SCORE>  (28) 
-14.629

>  <name>  (28) 
27

>  <ligand_id>  (28) 
27

>  <original_smiles>  (28) 
[H]N=C1C([H])([H])C([H])(N([H])C(=O)N2C([H])([H])C([H])([H])C([H])([H])C([H])(n3nc(-c4c([H])c([H])c(Oc5c([H])c([H])c(F)c([H])c5F)c([H])c4[H])c(C(=O)N([H])[H])c3N([H])[H])C2([H])[H])C([H])([H])C2([H])C1([H])C(=O)C2([H])N([H])C(=O)C([H])([H])Oc1c([H])c([H])c2c(c1[H])C([H])([H])N(C(=O)C([H])(N([H])C(=O)C([H])(N([H])C([H])([H])[H])C([H])([H])[H])C(C([H])([H])[H])(C([H])([H])[H])C([H])([H])[H])C([H])(C(=O)N([H])C1([H])c3c([H])c([H])c([H])c([H])c3C([H])([H])C([H])([H])C1([H])[H])C2([H])[H]

>  <smiles>  (28) 
[H]N=C1C([H])([H])C([H])(N([H])C(=O)N2C([H])([H])C([H])([H])C([H])([H])C([H])(n3nc(-c4c([H])c([H])c(Oc5c([H])c([H])c(F)c([H])c5F)c([H])c4[H])c(C(=O)N([H])[H])c3N([H])[H])C2([H])[H])C([H])([H])C2([H])C1([H])C(=O)C2([H])N([H])C(=O)C([H])([H])Oc1c([H])c([H])c2c(c1[H])C([H])([H])N(C(=O)C([H])(N([H])C(=O)C([H])(N([H])C([H])([H])[H])C([H])([H])[H])C(C([H])([H])[H])(C([H])([H])[H])C([H])([H])[H])C([H])(C(=O)N([H])C1([H])c3c([H])c([H])c([H])c([H])c3C([H])([H])C([H])([H])C1([H])[H])C2([H])[H]

$$$$
28:0:0
     RDKit          3D

 90 99  0  0  1  0  0  0  0  0999 V2000
  -30.2550  -23.1230   21.1460 C   0  0  0  0  0  2  0  0  0  0  0  0
  -29.0840  -21.4440   19.8700 C   0  0  0  0  0  3  0  0  0  0  0  0
  -29.6460  -23.1010   19.7120 C   0  0  0  0  0  3  0  0  0  0  0  0
  -29.7330  -21.8340   21.8920 C   0  0  0  0  0  3  0  0  0  0  0  0
  -29.9730  -19.9900   20.3610 C   0  0  0  0  0  3  0  0  0  0  0  0
  -28.3510  -21.6060   21.2710 C   0  0  2  0  0  0  0  0  0  0  0  0
  -27.5760  -20.3980   21.9070 C   0  0  0  0  0  1  0  0  0  0  0  0
  -27.3460  -22.7860   21.4800 C   0  0  0  0  0  1  0  0  0  0  0  0
  -30.4930  -20.6250   21.5490 O   0  0  0  0  0  0  0  0  0  0  0  0
  -28.7760  -24.6100   19.2050 C   0  0  0  0  0  2  0  0  0  0  0  0
  -28.9410  -26.2360   19.3930 O   0  0  0  0  0  0  0  0  0  0  0  0
  -24.8190  -31.4830   22.8420 C   0  0  0  0  0  0  0  0  0  0  0  0
  -27.8480  -27.2440   19.3950 C   0  0  0  0  0  0  0  0  0  0  0  0
  -23.7820  -30.1940   21.0190 C   0  0  0  0  0  3  0  0  0  0  0  0
  -25.3970  -28.9090   19.4600 C   0  0  0  0  0  0  0  0  0  0  0  0
  -26.3190  -30.6520   20.9680 C   0  0  0  0  0  2  0  0  0  0  0  0
  -26.5280  -29.3430   20.1630 C   0  0  0  0  0  0  0  0  0  0  0  0
  -27.7470  -28.5340   20.1100 C   0  0  0  0  0  3  0  0  0  0  0  0
  -26.6820  -26.9620   18.6510 C   0  0  0  0  0  3  0  0  0  0  0  0
  -25.4980  -27.7420   18.6840 C   0  0  0  0  0  3  0  0  0  0  0  0
  -24.0960  -29.7010   19.5770 C   0  0  0  0  0  2  0  0  0  0  0  0
  -24.9910  -30.8000   21.6660 N   0  0  0  0  0  0  0  0  0  0  0  0
  -23.7000  -31.6080   23.3660 O   0  0  0  0  0  0  0  0  0  0  0  0
  -23.1700  -29.0300   21.8400 C   0  0  0  0  0  0  0  0  0  0  0  0
  -21.8530  -28.7870   21.6860 N   0  0  0  0  0  0  0  0  0  0  0  0
  -23.8830  -28.3490   22.5820 O   0  0  0  0  0  0  0  0  0  0  0  0
  -21.3280  -29.3950   21.0730 H   0  0  0  0  0  0  0  0  0  0  0  0
  -18.5500  -27.3490   22.1000 C   0  0  0  0  0  0  0  0  0  0  0  0
  -21.1030  -27.7010   22.3240 C   0  0  0  0  0  3  0  0  0  0  0  0
  -21.2480  -26.3820   21.5290 C   0  0  0  0  0  2  0  0  0  0  0  0
  -20.1250  -26.1680   20.5090 C   0  0  0  0  0  2  0  0  0  0  0  0
  -18.7630  -26.1360   21.2090 C   0  0  0  0  0  2  0  0  0  0  0  0
  -19.6470  -28.0930   22.6100 C   0  0  0  0  0  0  0  0  0  0  0  0
  -19.3920  -29.2290   23.4070 C   0  0  0  0  0  3  0  0  0  0  0  0
  -18.0730  -29.6210   23.7000 C   0  0  0  0  0  3  0  0  0  0  0  0
  -16.9910  -28.8750   23.2010 C   0  0  0  0  0  3  0  0  0  0  0  0
  -17.2300  -27.7390   22.4070 C   0  0  0  0  0  3  0  0  0  0  0  0
  -26.0170  -32.1540   23.5810 C   0  0  0  0  0  3  0  0  0  0  0  0
  -25.5950  -33.5060   23.9930 N   0  0  0  0  0  0  0  0  0  0  0  0
  -25.8660  -34.6330   23.3220 C   0  0  0  0  0  0  0  0  0  0  0  0
  -26.5590  -34.6500   22.3020 O   0  0  0  0  0  0  0  0  0  0  0  0
  -24.9740  -33.5590   24.7870 H   0  0  0  0  0  0  0  0  0  0  0  0
  -24.0060  -36.3160   23.0820 C   0  0  0  0  0  1  0  0  0  0  0  0
  -25.2760  -35.9510   23.8650 C   0  0  0  0  0  3  0  0  0  0  0  0
  -27.3330  -36.9520   24.7580 C   0  0  0  0  0  1  0  0  0  0  0  0
  -26.2260  -37.0850   23.8180 N   0  0  0  0  0  0  0  0  0  0  0  0
  -25.7490  -37.9630   24.0110 H   0  0  0  0  0  0  0  0  0  0  0  0
  -26.5070  -31.3320   24.8370 C   0  0  1  0  0  0  0  0  0  0  0  0
  -25.3760  -30.9710   25.8290 C   0  0  0  0  0  1  0  0  0  0  0  0
  -27.1880  -30.0130   24.4060 C   0  0  0  0  0  1  0  0  0  0  0  0
  -27.5720  -32.1450   25.6100 C   0  0  0  0  0  1  0  0  0  0  0  0
  -30.8730  -18.5560   19.7840 C   0  0  0  0  0  2  0  0  0  0  0  0
  -31.4450  -15.6670   19.8920 C   0  0  0  0  0  0  0  0  0  0  0  0
  -31.2790  -13.2310   19.0080 C   0  0  0  0  0  2  0  0  0  0  0  0
  -30.3150  -13.1140   17.7980 C   0  0  0  0  0  2  0  0  0  0  0  0
  -28.8530  -12.9530   18.2600 C   0  0  0  0  0  2  0  0  0  0  0  0
  -28.5070  -13.8830   19.4540 C   0  0  0  0  0  3  0  0  0  0  0  0
  -29.6040  -13.9460   20.5430 C   0  0  0  0  0  2  0  0  0  0  0  0
  -30.8360  -14.3810   19.8800 N   0  0  0  0  0  0  0  0  0  0  0  0
  -32.6160  -15.6530   19.5010 O   0  0  0  0  0  0  0  0  0  0  0  0
  -30.7370  -16.9350   20.1590 N   0  0  0  0  0  0  0  0  0  0  0  0
  -29.8350  -16.7340   20.5680 H   0  0  0  0  0  0  0  0  0  0  0  0
  -26.2160  -14.5110   20.3870 C   0  0  0  0  0  0  0  0  0  0  0  0
  -25.1360  -13.7650   20.7700 C   0  0  0  0  0  0  0  0  0  0  0  0
  -25.5210  -12.3970   20.6170 C   0  0  0  0  0  0  0  0  0  0  0  0
  -27.1900  -13.6020   20.0140 N   0  0  0  0  0  0  0  0  0  0  0  0
  -26.7890  -12.3190   20.2220 N   0  0  0  0  0  0  0  0  0  0  0  0
  -24.7320  -11.1660   20.7610 C   0  0  0  0  0  0  0  0  0  0  0  0
  -25.0830  -10.1620   21.6900 C   0  0  0  0  0  3  0  0  0  0  0  0
  -24.2880   -9.0050   21.8300 C   0  0  0  0  0  3  0  0  0  0  0  0
  -23.1260   -8.8410   21.0400 C   0  0  0  0  0  0  0  0  0  0  0  0
  -22.7930   -9.8320   20.0990 C   0  0  0  0  0  3  0  0  0  0  0  0
  -23.5900  -10.9800   19.9570 C   0  0  0  0  0  3  0  0  0  0  0  0
  -22.3140   -7.7330   21.0830 O   0  0  0  0  0  0  0  0  0  0  0  0
  -22.0720   -7.0640   22.2550 C   0  0  0  0  0  0  0  0  0  0  0  0
  -21.5200   -7.7110   23.3810 C   0  0  0  0  0  3  0  0  0  0  0  0
  -21.2210   -6.9730   24.5430 C   0  0  0  0  0  3  0  0  0  0  0  0
  -21.4650   -5.5860   24.5800 C   0  0  0  0  0  0  0  0  0  0  0  0
  -22.0080   -4.9370   23.4560 C   0  0  0  0  0  3  0  0  0  0  0  0
  -22.3050   -5.6750   22.2960 C   0  0  0  0  0  0  0  0  0  0  0  0
  -22.8080   -5.0420   21.2100 F   0  0  0  0  0  0  0  0  0  0  0  0
  -21.1720   -4.8730   25.6920 F   0  0  0  0  0  0  0  0  0  0  0  0
  -23.7880  -14.2960   21.1590 C   0  0  0  0  0  0  0  0  0  0  0  0
  -23.0850  -13.6050   22.0500 N   0  0  0  0  0  0  0  0  0  0  0  0
  -23.3690  -15.3650   20.7130 O   0  0  0  0  0  0  0  0  0  0  0  0
  -23.4360  -12.7430   22.4390 H   0  0  0  0  0  0  0  0  0  0  0  0
  -22.1870  -13.9480   22.3590 H   0  0  0  0  0  0  0  0  0  0  0  0
  -26.4410  -15.8830   20.2960 N   0  0  0  0  0  0  0  0  0  0  0  0
  -25.7160  -16.5540   20.5300 H   0  0  0  0  0  0  0  0  0  0  0  0
  -27.2520  -16.3080   19.8640 H   0  0  0  0  0  0  0  0  0  0  0  0
  2  5  1  0
  2  6  1  0
  3 10  1  0
  3  2  1  0
  3  1  1  0
  4  1  1  0
  5 52  1  0
  5  9  1  0
  6  8  1  6
  6  4  1  0
  6  7  1  0
  9  4  1  0
 10 11  1  0
 11 13  1  0
 12 23  2  0
 13 18  1  0
 14 22  1  0
 14 24  1  0
 15 21  1  0
 15 17  1  0
 16 22  1  0
 17 16  1  0
 18 17  2  0
 19 20  1  0
 19 13  2  0
 20 15  2  0
 21 14  1  0
 22 12  1  0
 24 26  2  0
 25 24  1  0
 27 25  1  0
 28 37  2  0
 28 33  1  0
 29 25  1  0
 29 33  1  0
 30 29  1  0
 31 32  1  0
 31 30  1  0
 32 28  1  0
 33 34  2  0
 34 35  1  0
 36 35  2  0
 37 36  1  0
 38 12  1  0
 38 39  1  0
 38 48  1  0
 39 42  1  0
 40 44  1  0
 40 39  1  0
 41 40  2  0
 44 43  1  0
 46 44  1  0
 46 47  1  0
 46 45  1  0
 48 51  1  1
 48 49  1  0
 50 48  1  0
 52 61  1  0
 53 61  1  0
 54 59  1  0
 55 56  1  0
 55 54  1  0
 57 56  1  0
 57 66  1  0
 57 58  1  0
 59 53  1  0
 59 58  1  0
 60 53  2  0
 61 62  1  0
 63 64  2  0
 64 83  1  0
 65 68  1  0
 65 64  1  0
 66 67  1  0
 66 63  1  0
 67 65  2  0
 68 69  1  0
 69 70  2  0
 71 74  1  0
 71 70  1  0
 72 71  2  0
 73 72  1  0
 73 68  2  0
 74 75  1  0
 75 80  2  0
 75 76  1  0
 76 77  2  0
 77 78  1  0
 78 82  1  0
 79 78  2  0
 80 79  1  0
 81 80  1  0
 83 84  1  0
 84 87  1  0
 84 86  1  0
 85 83  2  0
 88 63  1  0
 88 89  1  0
 90 88  1  0
M  ISO  4  10 101  11 101  53 100  61 100
M  END
>  <TORSDO>  (29) 
F 18

>  <SCORE>  (29) 
-9.320

>  <name>  (29) 
28

>  <ligand_id>  (29) 
28

>  <original_smiles>  (29) 
[H]c1c([H])c([H])c2c(c1[H])C([H])([H])C([H])([H])C([H])([H])C2([H])N([H])C(=O)C1([H])N(C(=O)C([H])(N([H])C(=O)C([H])(N([H])C([H])([H])[H])C([H])([H])[H])C(C([H])([H])[H])(C([H])([H])[H])C([H])([H])[H])C([H])([H])c2c([H])c(OC([H])([H])C3([H])C([H])([H])C4([H])OC([H])(C([H])([H])N([H])C(=O)N5C([H])([H])C([H])([H])C([H])([H])C([H])(n6nc(-c7c([H])c([H])c(Oc8c([H])c([H])c(F)c([H])c8F)c([H])c7[H])c(C(=O)N([H])[H])c6N([H])[H])C5([H])[H])C3([H])C4(C([H])([H])[H])C([H])([H])[H])c([H])c([H])c2C1([H])[H]

>  <smiles>  (29) 
[H]c1c([H])c([H])c2c(c1[H])C([H])([H])C([H])([H])C([H])([H])C2([H])N([H])C(=O)C1([H])N(C(=O)C([H])(N([H])C(=O)C([H])(N([H])C([H])([H])[H])C([H])([H])[H])C(C([H])([H])[H])(C([H])([H])[H])C([H])([H])[H])C([H])([H])c2c([H])c(OC([H])([H])C3([H])C([H])([H])C4([H])OC([H])(C([H])([H])N([H])C(=O)N5C([H])([H])C([H])([H])C([H])([H])C([H])(n6nc(-c7c([H])c([H])c(Oc8c([H])c([H])c(F)c([H])c8F)c([H])c7[H])c(C(=O)N([H])[H])c6N([H])[H])C5([H])[H])C3([H])C4(C([H])([H])[H])C([H])([H])[H])c([H])c([H])c2C1([H])[H]

$$$$
29:0:0
     RDKit          3D

 88 97  0  0  1  0  0  0  0  0999 V2000
  -29.4500  -19.0520   21.4890 C   0  0  0  0  0  2  0  0  0  0  0  0
  -29.6680  -21.6400   18.8390 C   0  0  0  0  0  2  0  0  0  0  0  0
  -29.2220  -20.6160   21.6560 C   0  0  0  0  0  2  0  0  0  0  0  0
  -29.8520  -18.7010   20.0280 C   0  0  0  0  0  3  0  0  0  0  0  0
  -29.0800  -20.1960   19.3640 C   0  0  0  0  0  3  0  0  0  0  0  0
  -29.0170  -22.6660   19.9270 C   0  0  0  0  0  3  0  0  0  0  0  0
  -28.5770  -21.2000   20.4360 N   0  0  2  0  0  4  0  0  0  0  0  0
  -27.5730  -21.1410   20.5110 H   0  0  0  0  0  0  0  0  0  0  0  0
  -30.4910  -15.6960   19.7080 C   0  0  0  0  0  0  0  0  0  0  0  0
  -30.4710  -13.1900   18.8950 C   0  0  0  0  0  2  0  0  0  0  0  0
  -29.4720  -12.8350   17.7600 C   0  0  0  0  0  2  0  0  0  0  0  0
  -28.0760  -12.5370   18.3290 C   0  0  0  0  0  2  0  0  0  0  0  0
  -27.6720  -13.5580   19.4190 C   0  0  0  0  0  3  0  0  0  0  0  0
  -28.7940  -13.8220   20.4460 C   0  0  0  0  0  2  0  0  0  0  0  0
  -29.9360  -14.3670   19.6880 N   0  0  0  0  0  0  0  0  0  0  0  0
  -31.7130  -15.6680   19.4920 O   0  0  0  0  0  0  0  0  0  0  0  0
  -29.7160  -17.0010   19.7650 N   0  0  0  0  0  0  0  0  0  0  0  0
  -28.7370  -16.7570   19.7510 H   0  0  0  0  0  0  0  0  0  0  0  0
  -25.3880  -14.1170   20.3950 C   0  0  0  0  0  0  0  0  0  0  0  0
  -24.3470  -13.3430   20.8220 C   0  0  0  0  0  0  0  0  0  0  0  0
  -24.7860  -11.9880   20.7070 C   0  0  0  0  0  0  0  0  0  0  0  0
  -26.3940  -13.2360   20.0380 N   0  0  0  0  0  0  0  0  0  0  0  0
  -26.0490  -11.9470   20.2900 N   0  0  0  0  0  0  0  0  0  0  0  0
  -24.0530  -10.7310   20.9060 C   0  0  0  0  0  0  0  0  0  0  0  0
  -24.4880   -9.7620   21.8360 C   0  0  0  0  0  3  0  0  0  0  0  0
  -23.7530   -8.5710   22.0300 C   0  0  0  0  0  3  0  0  0  0  0  0
  -22.5650   -8.3450   21.2930 C   0  0  0  0  0  0  0  0  0  0  0  0
  -22.1470   -9.3030   20.3530 C   0  0  0  0  0  3  0  0  0  0  0  0
  -22.8840  -10.4840   20.1600 C   0  0  0  0  0  3  0  0  0  0  0  0
  -21.7980   -7.2090   21.3960 O   0  0  0  0  0  0  0  0  0  0  0  0
  -21.6950   -6.5170   22.5740 C   0  0  0  0  0  0  0  0  0  0  0  0
  -21.1330   -7.0950   23.7330 C   0  0  0  0  0  3  0  0  0  0  0  0
  -20.9830   -6.3250   24.9020 C   0  0  0  0  0  3  0  0  0  0  0  0
  -21.3830   -4.9750   24.9120 C   0  0  0  0  0  0  0  0  0  0  0  0
  -21.9370   -4.3950   23.7580 C   0  0  0  0  0  3  0  0  0  0  0  0
  -22.0890   -5.1630   22.5890 C   0  0  0  0  0  0  0  0  0  0  0  0
  -22.6040   -4.5930   21.4750 F   0  0  0  0  0  0  0  0  0  0  0  0
  -21.2310   -4.2320   26.0340 F   0  0  0  0  0  0  0  0  0  0  0  0
  -22.9850  -13.8330   21.2120 C   0  0  0  0  0  0  0  0  0  0  0  0
  -22.3100  -13.1250   22.1110 N   0  0  0  0  0  0  0  0  0  0  0  0
  -22.5290  -14.8820   20.7560 O   0  0  0  0  0  0  0  0  0  0  0  0
  -22.6890  -12.2770   22.5040 H   0  0  0  0  0  0  0  0  0  0  0  0
  -21.4010  -13.4420   22.4130 H   0  0  0  0  0  0  0  0  0  0  0  0
  -25.5560  -15.4910   20.2480 N   0  0  0  0  0  0  0  0  0  0  0  0
  -24.7960  -16.1410   20.4260 H   0  0  0  0  0  0  0  0  0  0  0  0
  -26.3510  -15.9260   19.8030 H   0  0  0  0  0  0  0  0  0  0  0  0
  -28.0020  -24.2390   19.7800 C   0  0  0  0  0  2  0  0  0  0  0  0
  -28.1890  -25.9290   19.9230 O   0  0  0  0  0  0  0  0  0  0  0  0
  -24.6300  -31.8720   23.1550 C   0  0  0  0  0  0  0  0  0  0  0  0
  -27.1700  -27.0580   19.9170 C   0  0  0  0  0  0  0  0  0  0  0  0
  -23.4180  -30.5220   21.4970 C   0  0  0  0  0  3  0  0  0  0  0  0
  -24.8510  -28.9700   19.9820 C   0  0  0  0  0  0  0  0  0  0  0  0
  -25.9830  -30.7420   21.3030 C   0  0  0  0  0  2  0  0  0  0  0  0
  -26.0510  -29.3500   20.5950 C   0  0  0  0  0  0  0  0  0  0  0  0
  -27.2000  -28.4200   20.5330 C   0  0  0  0  0  3  0  0  0  0  0  0
  -25.9310  -26.8550   19.2630 C   0  0  0  0  0  3  0  0  0  0  0  0
  -24.8240  -27.7480   19.2900 C   0  0  0  0  0  3  0  0  0  0  0  0
  -23.6250  -29.8870   20.0930 C   0  0  0  0  0  2  0  0  0  0  0  0
  -24.7020  -31.0750   22.0370 N   0  0  0  0  0  0  0  0  0  0  0  0
  -23.5480  -32.1310   23.7090 O   0  0  0  0  0  0  0  0  0  0  0  0
  -22.7500  -29.4890   22.4420 C   0  0  0  0  0  0  0  0  0  0  0  0
  -21.4300  -29.2660   22.2980 N   0  0  0  0  0  0  0  0  0  0  0  0
  -23.4310  -28.8870   23.2760 O   0  0  0  0  0  0  0  0  0  0  0  0
  -20.9320  -29.8060   21.6030 H   0  0  0  0  0  0  0  0  0  0  0  0
  -18.1050  -27.8750   22.7370 C   0  0  0  0  0  0  0  0  0  0  0  0
  -20.6420  -28.2810   23.0470 C   0  0  0  0  0  3  0  0  0  0  0  0
  -20.8330  -26.8620   22.4640 C   0  0  0  0  0  2  0  0  0  0  0  0
  -19.7700  -26.4870   21.4270 C   0  0  0  0  0  2  0  0  0  0  0  0
  -18.3710  -26.5470   22.0490 C   0  0  0  0  0  2  0  0  0  0  0  0
  -19.1730  -28.6970   23.1910 C   0  0  0  0  0  0  0  0  0  0  0  0
  -18.8720  -29.9360   23.7970 C   0  0  0  0  0  3  0  0  0  0  0  0
  -17.5380  -30.3560   23.9520 C   0  0  0  0  0  3  0  0  0  0  0  0
  -16.4860  -29.5340   23.5130 C   0  0  0  0  0  3  0  0  0  0  0  0
  -16.7700  -28.2950   22.9110 C   0  0  0  0  0  3  0  0  0  0  0  0
  -25.9030  -32.5130   23.7870 C   0  0  0  0  0  3  0  0  0  0  0  0
  -25.5920  -33.9170   24.1190 N   0  0  0  0  0  0  0  0  0  0  0  0
  -25.8930  -34.9760   23.3540 C   0  0  0  0  0  0  0  0  0  0  0  0
  -26.5240  -34.8740   22.2980 O   0  0  0  0  0  0  0  0  0  0  0  0
  -25.0280  -34.0690   24.9430 H   0  0  0  0  0  0  0  0  0  0  0  0
  -24.1400  -36.7680   23.0910 C   0  0  0  0  0  1  0  0  0  0  0  0
  -25.4260  -36.3670   23.8330 C   0  0  0  0  0  3  0  0  0  0  0  0
  -27.5850  -37.2870   24.5600 C   0  0  0  0  0  1  0  0  0  0  0  0
  -26.4450  -37.4250   23.6580 N   0  0  0  0  0  0  0  0  0  0  0  0
  -26.0390  -38.3470   23.7990 H   0  0  0  0  0  0  0  0  0  0  0  0
  -26.4030  -31.7530   25.0780 C   0  0  1  0  0  0  0  0  0  0  0  0
  -25.2970  -31.5310   26.1380 C   0  0  0  0  0  1  0  0  0  0  0  0
  -26.9860  -30.3690   24.7160 C   0  0  0  0  0  1  0  0  0  0  0  0
  -27.5460  -32.5530   25.7450 C   0  0  0  0  0  1  0  0  0  0  0  0
  1  3  1  0
  2  6  1  0
  4 17  1  0
  4  1  1  0
  5  2  1  0
  5  4  1  0
  5  7  1  0
  6 47  1  0
  6  7  1  0
  7  8  1  1
  7  3  1  0
  9 17  1  0
 10 15  1  0
 11 12  1  0
 11 10  1  0
 13 12  1  0
 13 22  1  0
 13 14  1  0
 15  9  1  0
 15 14  1  0
 16  9  2  0
 18 17  1  0
 19 20  2  0
 20 39  1  0
 21 20  1  0
 21 24  1  0
 22 23  1  0
 22 19  1  0
 23 21  2  0
 24 25  1  0
 25 26  2  0
 27 30  1  0
 27 26  1  0
 28 27  2  0
 29 28  1  0
 29 24  2  0
 30 31  1  0
 31 36  2  0
 31 32  1  0
 32 33  2  0
 33 34  1  0
 34 38  1  0
 35 34  2  0
 36 35  1  0
 37 36  1  0
 39 40  1  0
 40 43  1  0
 40 42  1  0
 41 39  2  0
 44 19  1  0
 44 45  1  0
 46 44  1  0
 47 48  1  0
 49 60  2  0
 50 48  1  0
 50 55  1  0
 51 59  1  0
 51 61  1  0
 52 58  1  0
 52 54  1  0
 53 59  1  0
 54 53  1  0
 55 54  2  0
 56 57  1  0
 56 50  2  0
 57 52  2  0
 58 51  1  0
 59 49  1  0
 61 63  2  0
 62 61  1  0
 64 62  1  0
 65 74  2  0
 65 70  1  0
 66 62  1  0
 66 70  1  0
 67 66  1  0
 68 69  1  0
 68 67  1  0
 69 65  1  0
 70 71  2  0
 71 72  1  0
 73 72  2  0
 74 73  1  0
 75 49  1  0
 75 76  1  0
 75 85  1  0
 76 79  1  0
 77 81  1  0
 77 76  1  0
 78 77  2  0
 81 80  1  0
 83 84  1  0
 83 81  1  0
 83 82  1  0
 85 88  1  1
 85 86  1  0
 87 85  1  0
M  ISO  4   9 100  17 100  47 101  48 101
M  END
>  <TORSDO>  (30) 
F 17

>  <SCORE>  (30) 
-15.368

>  <name>  (30) 
29

>  <ligand_id>  (30) 
29

>  <original_smiles>  (30) 
[H]c1c([H])c([H])c2c(c1[H])C([H])([H])C([H])([H])C([H])([H])C2([H])N([H])C(=O)C1([H])N(C(=O)C([H])(N([H])C(=O)C([H])(N([H])C([H])([H])[H])C([H])([H])[H])C(C([H])([H])[H])(C([H])([H])[H])C([H])([H])[H])C([H])([H])c2c([H])c(OC([H])([H])C3([H])C([H])([H])C4([H])C([H])(N([H])C(=O)N5C([H])([H])C([H])([H])C([H])([H])C([H])(n6nc(-c7c([H])c([H])c(Oc8c([H])c([H])c(F)c([H])c8F)c([H])c7[H])c(C(=O)N([H])[H])c6N([H])[H])C5([H])[H])C([H])([H])C([H])([H])[N+]34[H])c([H])c([H])c2C1([H])[H]

>  <smiles>  (30) 
[H]c1c([H])c([H])c2c(c1[H])C([H])([H])C([H])([H])C([H])([H])C2([H])N([H])C(=O)C1([H])N(C(=O)C([H])(N([H])C(=O)C([H])(N([H])C([H])([H])[H])C([H])([H])[H])C(C([H])([H])[H])(C([H])([H])[H])C([H])([H])[H])C([H])([H])c2c([H])c(OC([H])([H])C3([H])C([H])([H])C4([H])C([H])(N([H])C(=O)N5C([H])([H])C([H])([H])C([H])([H])C([H])(n6nc(-c7c([H])c([H])c(Oc8c([H])c([H])c(F)c([H])c8F)c([H])c7[H])c(C(=O)N([H])[H])c6N([H])[H])C5([H])[H])C([H])([H])C([H])([H])[N+]34[H])c([H])c([H])c2C1([H])[H]

$$$$
30:0:0
     RDKit          3D

 93100  0  0  1  0  0  0  0  0999 V2000
  -28.2230  -22.2080   19.7780 C   0  0  0  0  0  2  0  0  0  0  0  0
  -27.8110  -23.3080   18.8720 N   0  0  0  0  0  4  0  0  0  0  0  0
  -27.9020  -22.9640   17.9280 H   0  0  0  0  0  0  0  0  0  0  0  0
  -26.8260  -23.4740   19.0160 H   0  0  0  0  0  0  0  0  0  0  0  0
  -28.5420  -24.6000   18.9730 C   0  0  0  0  0  2  0  0  0  0  0  0
  -28.3150  -25.3360   20.3100 C   0  0  0  0  0  2  0  0  0  0  0  0
  -28.4070  -26.7560   20.1480 O   0  0  0  0  0  0  0  0  0  0  0  0
  -24.5910  -31.8870   23.2280 C   0  0  0  0  0  0  0  0  0  0  0  0
  -27.2230  -27.4590   20.1360 C   0  0  0  0  0  0  0  0  0  0  0  0
  -23.3730  -30.4830   21.5930 C   0  0  0  0  0  3  0  0  0  0  0  0
  -24.8200  -28.9480   20.1620 C   0  0  0  0  0  0  0  0  0  0  0  0
  -25.8950  -30.8490   21.3790 C   0  0  0  0  0  2  0  0  0  0  0  0
  -25.9790  -29.4790   20.7420 C   0  0  0  0  0  0  0  0  0  0  0  0
  -27.1810  -28.7400   20.7260 C   0  0  0  0  0  3  0  0  0  0  0  0
  -26.0440  -26.9410   19.5450 C   0  0  0  0  0  3  0  0  0  0  0  0
  -24.8480  -27.6790   19.5610 C   0  0  0  0  0  3  0  0  0  0  0  0
  -23.5760  -29.8020   20.2120 C   0  0  0  0  0  2  0  0  0  0  0  0
  -24.6380  -31.0870   22.1260 N   0  0  0  0  0  0  0  0  0  0  0  0
  -23.5140  -32.1590   23.7760 O   0  0  0  0  0  0  0  0  0  0  0  0
  -22.7310  -29.4600   22.5570 C   0  0  0  0  0  0  0  0  0  0  0  0
  -21.4060  -29.2750   22.4350 N   0  0  0  0  0  0  0  0  0  0  0  0
  -23.4190  -28.8360   23.3700 O   0  0  0  0  0  0  0  0  0  0  0  0
  -20.9140  -29.8310   21.7500 H   0  0  0  0  0  0  0  0  0  0  0  0
  -18.0380  -28.0710   22.9330 C   0  0  0  0  0  0  0  0  0  0  0  0
  -20.5930  -28.3370   23.2090 C   0  0  0  0  0  3  0  0  0  0  0  0
  -20.7020  -26.9040   22.6380 C   0  0  0  0  0  2  0  0  0  0  0  0
  -19.6030  -26.5740   21.6250 C   0  0  0  0  0  2  0  0  0  0  0  0
  -18.2190  -26.7180   22.2660 C   0  0  0  0  0  2  0  0  0  0  0  0
  -19.1520  -28.8380   23.3610 C   0  0  0  0  0  0  0  0  0  0  0  0
  -18.9300  -30.1030   23.9440 C   0  0  0  0  0  3  0  0  0  0  0  0
  -17.6240  -30.6040   24.1040 C   0  0  0  0  0  3  0  0  0  0  0  0
  -16.5220  -29.8340   23.6940 C   0  0  0  0  0  3  0  0  0  0  0  0
  -16.7300  -28.5690   23.1140 C   0  0  0  0  0  3  0  0  0  0  0  0
  -25.8820  -32.5160   23.8380 C   0  0  0  0  0  3  0  0  0  0  0  0
  -25.5800  -33.9150   24.1680 N   0  0  0  0  0  0  0  0  0  0  0  0
  -25.9120  -34.9640   23.4030 C   0  0  0  0  0  0  0  0  0  0  0  0
  -26.5790  -34.8550   22.3710 O   0  0  0  0  0  0  0  0  0  0  0  0
  -24.9920  -34.0740   24.9710 H   0  0  0  0  0  0  0  0  0  0  0  0
  -24.1880  -36.7570   23.0440 C   0  0  0  0  0  1  0  0  0  0  0  0
  -25.4280  -36.3530   23.8570 C   0  0  0  0  0  3  0  0  0  0  0  0
  -27.5640  -37.2330   24.6850 C   0  0  0  0  0  1  0  0  0  0  0  0
  -26.4620  -37.4030   23.7410 N   0  0  0  0  0  0  0  0  0  0  0  0
  -26.0590  -38.3240   23.8900 H   0  0  0  0  0  0  0  0  0  0  0  0
  -26.4090  -31.7430   25.1100 C   0  0  1  0  0  0  0  0  0  0  0  0
  -25.3240  -31.5050   26.1870 C   0  0  0  0  0  1  0  0  0  0  0  0
  -26.9850  -30.3650   24.7080 C   0  0  0  0  0  1  0  0  0  0  0  0
  -27.5660  -32.5350   25.7620 C   0  0  0  0  0  1  0  0  0  0  0  0
  -27.9700  -20.5950   17.7880 C   0  0  0  0  0  1  0  0  0  0  0  0
  -28.8280  -20.9990   19.0150 C   0  0  0  0  0  3  0  0  0  0  0  0
  -29.1690  -19.8080   19.9760 C   0  0  0  0  0  2  0  0  0  0  0  0
  -28.4090  -18.5690   19.6780 N   0  0  0  0  0  4  0  0  0  0  0  0
  -27.4260  -18.7910   19.6920 H   0  0  0  0  0  0  0  0  0  0  0  0
  -28.6320  -18.2730   18.7390 H   0  0  0  0  0  0  0  0  0  0  0  0
  -28.5830  -17.4130   20.5850 C   0  0  0  0  0  2  0  0  0  0  0  0
  -29.9980  -16.7930   20.5710 C   0  0  0  0  0  2  0  0  0  0  0  0
  -30.6630  -14.4170   20.4860 C   0  0  0  0  0  0  0  0  0  0  0  0
  -30.3560  -12.2900   19.3030 C   0  0  0  0  0  2  0  0  0  0  0  0
  -29.4110  -12.5370   18.1080 C   0  0  0  0  0  2  0  0  0  0  0  0
  -27.9360  -12.4040   18.5350 C   0  0  0  0  0  2  0  0  0  0  0  0
  -27.6110  -13.2190   19.8160 C   0  0  0  0  0  3  0  0  0  0  0  0
  -28.6630  -12.9520   20.9180 C   0  0  0  0  0  2  0  0  0  0  0  0
  -29.9980  -13.2410   20.3640 N   0  0  0  0  0  0  0  0  0  0  0  0
  -31.7580  -14.6440   19.9640 O   0  0  0  0  0  0  0  0  0  0  0  0
  -29.9390  -15.4040   21.0290 N   0  0  0  0  0  0  0  0  0  0  0  0
  -29.0940  -15.1130   21.4970 H   0  0  0  0  0  0  0  0  0  0  0  0
  -25.2080  -13.8450   20.5070 C   0  0  0  0  0  0  0  0  0  0  0  0
  -24.1380  -13.0820   20.8850 C   0  0  0  0  0  0  0  0  0  0  0  0
  -24.5910  -11.7270   20.8590 C   0  0  0  0  0  0  0  0  0  0  0  0
  -26.2510  -12.9580   20.2840 N   0  0  0  0  0  0  0  0  0  0  0  0
  -25.8810  -11.6790   20.5500 N   0  0  0  0  0  0  0  0  0  0  0  0
  -23.8580  -10.4700   21.0530 C   0  0  0  0  0  0  0  0  0  0  0  0
  -24.3020   -9.4930   21.9700 C   0  0  0  0  0  3  0  0  0  0  0  0
  -23.5740   -8.2980   22.1520 C   0  0  0  0  0  3  0  0  0  0  0  0
  -22.3870   -8.0730   21.4170 C   0  0  0  0  0  0  0  0  0  0  0  0
  -21.9610   -9.0370   20.4870 C   0  0  0  0  0  3  0  0  0  0  0  0
  -22.6910  -10.2240   20.3040 C   0  0  0  0  0  3  0  0  0  0  0  0
  -21.6280   -6.9320   21.5090 O   0  0  0  0  0  0  0  0  0  0  0  0
  -21.6110   -6.1690   22.6490 C   0  0  0  0  0  0  0  0  0  0  0  0
  -21.2430   -6.7080   23.9020 C   0  0  0  0  0  3  0  0  0  0  0  0
  -21.1750   -5.8730   25.0340 C   0  0  0  0  0  3  0  0  0  0  0  0
  -21.4630   -4.5000   24.9170 C   0  0  0  0  0  0  0  0  0  0  0  0
  -21.8240   -3.9600   23.6690 C   0  0  0  0  0  3  0  0  0  0  0  0
  -21.8950   -4.7930   22.5390 C   0  0  0  0  0  0  0  0  0  0  0  0
  -22.2230   -4.2650   21.3350 F   0  0  0  0  0  0  0  0  0  0  0  0
  -21.3880   -3.6950   26.0030 F   0  0  0  0  0  0  0  0  0  0  0  0
  -22.7420  -13.5670   21.1540 C   0  0  0  0  0  0  0  0  0  0  0  0
  -22.0110  -12.8780   22.0230 N   0  0  0  0  0  0  0  0  0  0  0  0
  -22.3100  -14.5910   20.6270 O   0  0  0  0  0  0  0  0  0  0  0  0
  -22.3730  -12.0480   22.4690 H   0  0  0  0  0  0  0  0  0  0  0  0
  -21.0740  -13.1870   22.2450 H   0  0  0  0  0  0  0  0  0  0  0  0
  -25.3730  -15.2120   20.3080 N   0  0  0  0  0  0  0  0  0  0  0  0
  -24.5640  -15.8240   20.3200 H   0  0  0  0  0  0  0  0  0  0  0  0
  -26.1320  -15.5700   19.7460 H   0  0  0  0  0  0  0  0  0  0  0  0
  2  5  1  0
  2  4  1  0
  2  1  1  0
  3  2  1  0
  5  6  1  0
  7  6  1  0
  8 19  2  0
  9  7  1  0
  9 14  1  0
 10 18  1  0
 10 20  1  0
 11 17  1  0
 11 13  1  0
 12 18  1  0
 13 12  1  0
 14 13  2  0
 15 16  1  0
 15  9  2  0
 16 11  2  0
 17 10  1  0
 18  8  1  0
 20 22  2  0
 21 20  1  0
 23 21  1  0
 24 33  2  0
 24 29  1  0
 25 21  1  0
 25 29  1  0
 26 25  1  0
 27 28  1  0
 27 26  1  0
 28 24  1  0
 29 30  2  0
 30 31  1  0
 32 31  2  0
 33 32  1  0
 34  8  1  0
 34 35  1  0
 34 44  1  0
 35 38  1  0
 36 40  1  0
 36 35  1  0
 37 36  2  0
 40 39  1  0
 42 40  1  0
 42 43  1  0
 42 41  1  0
 44 47  1  1
 44 45  1  0
 46 44  1  0
 49 48  1  0
 49  1  1  0
 49 50  1  0
 51 52  1  0
 51 50  1  0
 51 54  1  0
 53 51  1  0
 55 54  1  0
 55 64  1  0
 56 64  1  0
 57 62  1  0
 58 59  1  0
 58 57  1  0
 60 59  1  0
 60 69  1  0
 60 61  1  0
 62 56  1  0
 62 61  1  0
 63 56  2  0
 64 65  1  0
 66 67  2  0
 67 86  1  0
 68 67  1  0
 68 71  1  0
 69 66  1  0
 69 70  1  0
 70 68  2  0
 71 72  1  0
 72 73  2  0
 74 77  1  0
 74 73  1  0
 75 74  2  0
 76 75  1  0
 76 71  2  0
 77 78  1  0
 78 79  1  0
 79 80  2  0
 81 80  1  0
 81 85  1  0
 82 81  2  0
 83 78  2  0
 83 82  1  0
 84 83  1  0
 86 87  1  0
 87 90  1  0
 87 89  1  0
 88 86  2  0
 91 92  1  0
 91 66  1  0
 93 91  1  0
M  ISO  4   6 101   7 101  56 100  64 100
M  END
>  <TORSDO>  (31) 
F 24

>  <SCORE>  (31) 
-12.444

>  <name>  (31) 
30

>  <ligand_id>  (31) 
30

>  <original_smiles>  (31) 
[H]c1c([H])c([H])c2c(c1[H])C([H])([H])C([H])([H])C([H])([H])C2([H])N([H])C(=O)C1([H])N(C(=O)C([H])(N([H])C(=O)C([H])(N([H])C([H])([H])[H])C([H])([H])[H])C(C([H])([H])[H])(C([H])([H])[H])C([H])([H])[H])C([H])([H])c2c([H])c(OC([H])([H])C([H])([H])[N+]([H])([H])C([H])([H])C([H])(C([H])([H])[H])C([H])([H])[N+]([H])([H])C([H])([H])C([H])([H])N([H])C(=O)N3C([H])([H])C([H])([H])C([H])([H])C([H])(n4nc(-c5c([H])c([H])c(Oc6c([H])c([H])c(F)c([H])c6F)c([H])c5[H])c(C(=O)N([H])[H])c4N([H])[H])C3([H])[H])c([H])c([H])c2C1([H])[H]

>  <smiles>  (31) 
[H]c1c([H])c([H])c2c(c1[H])C([H])([H])C([H])([H])C([H])([H])C2([H])N([H])C(=O)C1([H])N(C(=O)C([H])(N([H])C(=O)C([H])(N([H])C([H])([H])[H])C([H])([H])[H])C(C([H])([H])[H])(C([H])([H])[H])C([H])([H])[H])C([H])([H])c2c([H])c(OC([H])([H])C([H])([H])[N+]([H])([H])C([H])([H])C([H])(C([H])([H])[H])C([H])([H])[N+]([H])([H])C([H])([H])C([H])([H])N([H])C(=O)N3C([H])([H])C([H])([H])C([H])([H])C([H])(n4nc(-c5c([H])c([H])c(Oc6c([H])c([H])c(F)c([H])c6F)c([H])c5[H])c(C(=O)N([H])[H])c4N([H])[H])C3([H])[H])c([H])c([H])c2C1([H])[H]

$$$$
31:0:0
     RDKit          3D

 91100  0  0  1  0  0  0  0  0999 V2000
  -29.0120  -23.5780   20.3720 C   0  0  0  0  0  0  0  0  0  0  0  0
  -28.7890  -22.2080   20.1180 N   0  0  0  0  0  0  0  0  0  0  0  0
  -30.0770  -23.9160   20.8940 O   0  0  0  0  0  0  0  0  0  0  0  0
  -27.9000  -21.9880   19.6890 H   0  0  0  0  0  0  0  0  0  0  0  0
  -27.9440  -24.7620   20.0300 C   0  0  0  0  0  2  0  0  0  0  0  0
  -28.2600  -26.2430   20.3020 O   0  0  0  0  0  0  0  0  0  0  0  0
  -24.6330  -31.8620   23.2910 C   0  0  0  0  0  0  0  0  0  0  0  0
  -27.2050  -27.2070   20.2270 C   0  0  0  0  0  0  0  0  0  0  0  0
  -23.4300  -30.4820   21.6400 C   0  0  0  0  0  3  0  0  0  0  0  0
  -24.8770  -28.9260   20.2040 C   0  0  0  0  0  0  0  0  0  0  0  0
  -25.9820  -30.7550   21.4770 C   0  0  0  0  0  2  0  0  0  0  0  0
  -26.0540  -29.3740   20.8170 C   0  0  0  0  0  0  0  0  0  0  0  0
  -27.2200  -28.5280   20.8150 C   0  0  0  0  0  3  0  0  0  0  0  0
  -26.0030  -26.8550   19.5700 C   0  0  0  0  0  3  0  0  0  0  0  0
  -24.8610  -27.6790   19.5670 C   0  0  0  0  0  3  0  0  0  0  0  0
  -23.6490  -29.8180   20.2550 C   0  0  0  0  0  2  0  0  0  0  0  0
  -24.7010  -31.0530   22.1910 N   0  0  0  0  0  0  0  0  0  0  0  0
  -23.5470  -32.1440   23.8200 O   0  0  0  0  0  0  0  0  0  0  0  0
  -22.7530  -29.4640   22.5920 C   0  0  0  0  0  0  0  0  0  0  0  0
  -21.4280  -29.2860   22.4510 N   0  0  0  0  0  0  0  0  0  0  0  0
  -23.4210  -28.8390   23.4190 O   0  0  0  0  0  0  0  0  0  0  0  0
  -20.9460  -29.8430   21.7590 H   0  0  0  0  0  0  0  0  0  0  0  0
  -18.0500  -28.0610   22.9050 C   0  0  0  0  0  0  0  0  0  0  0  0
  -20.6020  -28.3450   23.2140 C   0  0  0  0  0  3  0  0  0  0  0  0
  -20.7250  -26.9110   22.6480 C   0  0  0  0  0  2  0  0  0  0  0  0
  -19.6430  -26.5740   21.6170 C   0  0  0  0  0  2  0  0  0  0  0  0
  -18.2490  -26.7100   22.2390 C   0  0  0  0  0  2  0  0  0  0  0  0
  -19.1550  -28.8350   23.3500 C   0  0  0  0  0  0  0  0  0  0  0  0
  -18.9150  -30.0980   23.9340 C   0  0  0  0  0  3  0  0  0  0  0  0
  -17.6030  -30.5870   24.0780 C   0  0  0  0  0  3  0  0  0  0  0  0
  -16.5120  -29.8100   23.6500 C   0  0  0  0  0  3  0  0  0  0  0  0
  -16.7360  -28.5480   23.0700 C   0  0  0  0  0  3  0  0  0  0  0  0
  -25.9120  -32.4890   23.9230 C   0  0  0  0  0  3  0  0  0  0  0  0
  -25.6100  -33.8920   24.2430 N   0  0  0  0  0  0  0  0  0  0  0  0
  -25.9370  -34.9390   23.4730 C   0  0  0  0  0  0  0  0  0  0  0  0
  -26.5920  -34.8240   22.4340 O   0  0  0  0  0  0  0  0  0  0  0  0
  -25.0240  -34.0540   25.0500 H   0  0  0  0  0  0  0  0  0  0  0  0
  -24.1980  -36.7300   23.1490 C   0  0  0  0  0  1  0  0  0  0  0  0
  -25.4630  -36.3330   23.9280 C   0  0  0  0  0  3  0  0  0  0  0  0
  -27.6200  -37.2310   24.6870 C   0  0  0  0  0  1  0  0  0  0  0  0
  -26.4920  -37.3850   23.7710 N   0  0  0  0  0  0  0  0  0  0  0  0
  -26.0890  -38.3070   23.9160 H   0  0  0  0  0  0  0  0  0  0  0  0
  -26.4070  -31.7230   25.2110 C   0  0  1  0  0  0  0  0  0  0  0  0
  -25.3000  -31.5040   26.2690 C   0  0  0  0  0  1  0  0  0  0  0  0
  -26.9810  -30.3360   24.8400 C   0  0  0  0  0  1  0  0  0  0  0  0
  -27.5570  -32.5110   25.8790 C   0  0  0  0  0  1  0  0  0  0  0  0
  -29.6950  -20.9900   20.4580 C   0  0  0  0  0  2  0  0  0  0  0  0
  -30.6950  -14.8750   20.0000 C   0  0  0  0  0  0  0  0  0  0  0  0
  -30.4240  -12.5720   19.0230 C   0  0  0  0  0  2  0  0  0  0  0  0
  -29.4370  -12.5920   17.8380 C   0  0  0  0  0  2  0  0  0  0  0  0
  -27.9950  -12.4000   18.3420 C   0  0  0  0  0  2  0  0  0  0  0  0
  -27.6650  -13.3000   19.5630 C   0  0  0  0  0  3  0  0  0  0  0  0
  -28.7780  -13.2840   20.6300 C   0  0  0  0  0  2  0  0  0  0  0  0
  -30.0210  -13.6640   19.9510 N   0  0  0  0  0  0  0  0  0  0  0  0
  -31.8840  -14.8620   19.6600 O   0  0  0  0  0  0  0  0  0  0  0  0
  -31.6320  -18.5660   20.4830 C   0  0  0  0  0  2  0  0  0  0  0  0
  -30.9810  -18.3940   21.6290 C   0  0  0  0  0  2  0  0  0  0  0  0
  -30.3130  -17.1570   18.8870 C   0  0  0  0  0  2  0  0  0  0  0  0
  -29.1700  -16.7920   21.0010 C   0  0  0  0  0  2  0  0  0  0  0  0
  -30.6160  -18.6520   19.3690 C   0  0  0  0  0  3  0  0  0  0  0  0
  -29.5030  -18.3420   21.3270 C   0  0  0  0  0  3  0  0  0  0  0  0
  -29.4150  -19.3750   20.1070 C   0  0  0  0  0  3  0  0  0  0  0  0
  -30.0030  -16.1140   19.9400 N   0  0  0  0  0  0  0  0  0  0  0  0
  -25.3290  -13.8630   20.4390 C   0  0  0  0  0  0  0  0  0  0  0  0
  -24.2840  -13.0800   20.8460 C   0  0  0  0  0  0  0  0  0  0  0  0
  -24.7440  -11.7310   20.7600 C   0  0  0  0  0  0  0  0  0  0  0  0
  -26.3560  -12.9910   20.1270 N   0  0  0  0  0  0  0  0  0  0  0  0
  -26.0180  -11.7010   20.3840 N   0  0  0  0  0  0  0  0  0  0  0  0
  -24.0260  -10.4640   20.9570 C   0  0  0  0  0  0  0  0  0  0  0  0
  -24.4730   -9.4960   21.8840 C   0  0  0  0  0  3  0  0  0  0  0  0
  -23.7520   -8.2970   22.0700 C   0  0  0  0  0  3  0  0  0  0  0  0
  -22.5700   -8.0560   21.3290 C   0  0  0  0  0  0  0  0  0  0  0  0
  -22.1410   -9.0130   20.3930 C   0  0  0  0  0  3  0  0  0  0  0  0
  -22.8630  -10.2040   20.2040 C   0  0  0  0  0  3  0  0  0  0  0  0
  -21.8200   -6.9090   21.4260 O   0  0  0  0  0  0  0  0  0  0  0  0
  -21.7450   -6.1940   22.5950 C   0  0  0  0  0  0  0  0  0  0  0  0
  -21.2860   -6.7770   23.7960 C   0  0  0  0  0  3  0  0  0  0  0  0
  -21.1590   -5.9890   24.9580 C   0  0  0  0  0  3  0  0  0  0  0  0
  -21.4790   -4.6180   24.9180 C   0  0  0  0  0  0  0  0  0  0  0  0
  -21.9300   -4.0350   23.7200 C   0  0  0  0  0  3  0  0  0  0  0  0
  -22.0590   -4.8200   22.5610 C   0  0  0  0  0  0  0  0  0  0  0  0
  -22.4730   -4.2490   21.4050 F   0  0  0  0  0  0  0  0  0  0  0  0
  -21.3500   -3.8580   26.0300 F   0  0  0  0  0  0  0  0  0  0  0  0
  -22.9030  -13.5520   21.1980 C   0  0  0  0  0  0  0  0  0  0  0  0
  -22.2240  -12.8420   22.0910 N   0  0  0  0  0  0  0  0  0  0  0  0
  -22.4390  -14.5850   20.7180 O   0  0  0  0  0  0  0  0  0  0  0  0
  -22.6140  -12.0050   22.4980 H   0  0  0  0  0  0  0  0  0  0  0  0
  -21.3010  -13.1400   22.3710 H   0  0  0  0  0  0  0  0  0  0  0  0
  -25.4850  -15.2370   20.2830 N   0  0  0  0  0  0  0  0  0  0  0  0
  -24.7270  -15.8920   20.4470 H   0  0  0  0  0  0  0  0  0  0  0  0
  -26.3160  -15.6800   19.9140 H   0  0  0  0  0  0  0  0  0  0  0  0
  1  3  2  0
  2  1  1  0
  2 47  1  0
  4  2  1  0
  5  6  1  0
  5  1  1  0
  7 18  2  0
  8  6  1  0
  8 13  1  0
  9 17  1  0
  9 19  1  0
 10 16  1  0
 10 12  1  0
 11 17  1  0
 12 11  1  0
 13 12  2  0
 14  8  2  0
 15 14  1  0
 15 10  2  0
 16  9  1  0
 17  7  1  0
 19 21  2  0
 20 19  1  0
 22 20  1  0
 23 32  2  0
 23 28  1  0
 24 20  1  0
 24 28  1  0
 25 24  1  0
 26 27  1  0
 26 25  1  0
 27 23  1  0
 28 29  2  0
 29 30  1  0
 31 30  2  0
 32 31  1  0
 33  7  1  0
 33 34  1  0
 33 43  1  0
 34 37  1  0
 35 39  1  0
 35 34  1  0
 36 35  2  0
 39 38  1  0
 41 42  1  0
 41 39  1  0
 41 40  1  0
 43 46  1  1
 43 44  1  0
 45 43  1  0
 49 54  1  0
 50 51  1  0
 50 49  1  0
 52 51  1  0
 52 67  1  0
 52 53  1  0
 54 48  1  0
 54 53  1  0
 55 48  2  0
 56 57  1  0
 58 63  1  0
 60 58  1  0
 60 62  1  0
 60 56  1  0
 61 59  1  0
 61 57  1  0
 62 47  1  0
 62 61  1  0
 63 48  1  0
 63 59  1  0
 64 65  2  0
 65 84  1  0
 66 65  1  0
 66 69  1  0
 67 68  1  0
 67 64  1  0
 68 66  2  0
 69 70  1  0
 70 71  2  0
 72 75  1  0
 72 71  1  0
 73 72  2  0
 74 73  1  0
 74 69  2  0
 75 76  1  0
 76 77  1  0
 77 78  2  0
 79 78  1  0
 79 83  1  0
 80 79  2  0
 81 76  2  0
 81 80  1  0
 82 81  1  0
 84 85  1  0
 85 88  1  0
 85 87  1  0
 86 84  2  0
 89 64  1  0
 89 90  1  0
 91 89  1  0
M  ISO  4   5 101   6 101  48 100  63 100
M  END
>  <TORSDO>  (32) 
F 18

>  <SCORE>  (32) 
-14.471

>  <name>  (32) 
31

>  <ligand_id>  (32) 
31

>  <original_smiles>  (32) 
[H]C1=C([H])C2([H])C([H])([H])N(C(=O)N3C([H])([H])C([H])([H])C([H])([H])C([H])(n4nc(-c5c([H])c([H])c(Oc6c([H])c([H])c(F)c([H])c6F)c([H])c5[H])c(C(=O)N([H])[H])c4N([H])[H])C3([H])[H])C([H])([H])C1([H])C2([H])C([H])([H])N([H])C(=O)C([H])([H])Oc1c([H])c([H])c2c(c1[H])C([H])([H])N(C(=O)C([H])(N([H])C(=O)C([H])(N([H])C([H])([H])[H])C([H])([H])[H])C(C([H])([H])[H])(C([H])([H])[H])C([H])([H])[H])C([H])(C(=O)N([H])C1([H])c3c([H])c([H])c([H])c([H])c3C([H])([H])C([H])([H])C1([H])[H])C2([H])[H]

>  <smiles>  (32) 
[H]C1=C([H])C2([H])C([H])([H])N(C(=O)N3C([H])([H])C([H])([H])C([H])([H])C([H])(n4nc(-c5c([H])c([H])c(Oc6c([H])c([H])c(F)c([H])c6F)c([H])c5[H])c(C(=O)N([H])[H])c4N([H])[H])C3([H])[H])C([H])([H])C1([H])C2([H])C([H])([H])N([H])C(=O)C([H])([H])Oc1c([H])c([H])c2c(c1[H])C([H])([H])N(C(=O)C([H])(N([H])C(=O)C([H])(N([H])C([H])([H])[H])C([H])([H])[H])C(C([H])([H])[H])(C([H])([H])[H])C([H])([H])[H])C([H])(C(=O)N([H])C1([H])c3c([H])c([H])c([H])c([H])c3C([H])([H])C([H])([H])C1([H])[H])C2([H])[H]

$$$$
32:0:0
     RDKit          3D

 95103  0  0  1  0  0  0  0  0999 V2000
  -28.6420  -21.3630   19.2730 C   0  0  0  0  0  2  0  0  0  0  0  0
  -30.0530  -18.2410   17.5190 C   0  0  0  0  0  3  0  0  0  0  0  0
  -30.4040  -17.4290   18.6050 C   0  0  0  0  0  3  0  0  0  0  0  0
  -29.4900  -19.5130   17.7290 C   0  0  0  0  0  0  0  0  0  0  0  0
  -30.2440  -17.8770   19.9340 C   0  0  0  0  0  0  0  0  0  0  0  0
  -29.7710  -19.2070   20.1530 C   0  0  0  0  0  0  0  0  0  0  0  0
  -29.3330  -20.0050   19.0520 C   0  0  0  0  0  0  0  0  0  0  0  0
  -29.0650  -20.3180   16.5100 C   0  0  0  0  0  1  0  0  0  0  0  0
  -29.7260  -19.7880   21.5660 C   0  0  0  0  0  1  0  0  0  0  0  0
  -30.6150  -16.9180   21.0810 C   0  0  0  0  0  2  0  0  0  0  0  0
  -30.8590  -14.4970   20.4410 C   0  0  0  0  0  0  0  0  0  0  0  0
  -30.5510  -12.3320   19.3170 C   0  0  0  0  0  2  0  0  0  0  0  0
  -29.6270  -12.5250   18.0970 C   0  0  0  0  0  2  0  0  0  0  0  0
  -28.1430  -12.4140   18.5060 C   0  0  0  0  0  2  0  0  0  0  0  0
  -27.7940  -13.2690   19.7530 C   0  0  0  0  0  3  0  0  0  0  0  0
  -28.8330  -13.0570   20.8770 C   0  0  0  0  0  2  0  0  0  0  0  0
  -30.1680  -13.3350   20.3180 N   0  0  0  0  0  0  0  0  0  0  0  0
  -32.0030  -14.6550   20.0120 O   0  0  0  0  0  0  0  0  0  0  0  0
  -30.1530  -15.5320   20.9210 N   0  0  0  0  0  0  0  0  0  0  0  0
  -29.2070  -15.3330   21.2060 H   0  0  0  0  0  0  0  0  0  0  0  0
  -25.3890  -13.9010   20.4200 C   0  0  0  0  0  0  0  0  0  0  0  0
  -24.3100  -13.1420   20.7880 C   0  0  0  0  0  0  0  0  0  0  0  0
  -24.7620  -11.7850   20.7840 C   0  0  0  0  0  0  0  0  0  0  0  0
  -26.4310  -13.0110   20.2160 N   0  0  0  0  0  0  0  0  0  0  0  0
  -26.0560  -11.7340   20.4920 N   0  0  0  0  0  0  0  0  0  0  0  0
  -24.0260  -10.5300   20.9800 C   0  0  0  0  0  0  0  0  0  0  0  0
  -24.4440   -9.5690   21.9270 C   0  0  0  0  0  3  0  0  0  0  0  0
  -23.7120   -8.3770   22.1090 C   0  0  0  0  0  3  0  0  0  0  0  0
  -22.5450   -8.1380   21.3460 C   0  0  0  0  0  0  0  0  0  0  0  0
  -22.1460   -9.0860   20.3860 C   0  0  0  0  0  3  0  0  0  0  0  0
  -22.8810  -10.2690   20.2010 C   0  0  0  0  0  3  0  0  0  0  0  0
  -21.7830   -6.9980   21.4380 O   0  0  0  0  0  0  0  0  0  0  0  0
  -21.7170   -6.2690   22.5970 C   0  0  0  0  0  0  0  0  0  0  0  0
  -21.2660   -6.8360   23.8090 C   0  0  0  0  0  3  0  0  0  0  0  0
  -21.1470   -6.0310   24.9600 C   0  0  0  0  0  3  0  0  0  0  0  0
  -21.4700   -4.6630   24.9010 C   0  0  0  0  0  0  0  0  0  0  0  0
  -21.9140   -4.0960   23.6950 C   0  0  0  0  0  3  0  0  0  0  0  0
  -22.0360   -4.8970   22.5460 C   0  0  0  0  0  0  0  0  0  0  0  0
  -22.4440   -4.3400   21.3790 F   0  0  0  0  0  0  0  0  0  0  0  0
  -21.3490   -3.8900   26.0060 F   0  0  0  0  0  0  0  0  0  0  0  0
  -22.9120  -13.6310   21.0380 C   0  0  0  0  0  0  0  0  0  0  0  0
  -22.1680  -12.9480   21.9010 N   0  0  0  0  0  0  0  0  0  0  0  0
  -22.4870  -14.6530   20.5010 O   0  0  0  0  0  0  0  0  0  0  0  0
  -22.5210  -12.1220   22.3580 H   0  0  0  0  0  0  0  0  0  0  0  0
  -21.2300  -13.2610   22.1110 H   0  0  0  0  0  0  0  0  0  0  0  0
  -25.5680  -15.2670   20.2220 N   0  0  0  0  0  0  0  0  0  0  0  0
  -24.8090  -15.9340   20.3010 H   0  0  0  0  0  0  0  0  0  0  0  0
  -26.4200  -15.6820   19.8670 H   0  0  0  0  0  0  0  0  0  0  0  0
  -29.5480  -22.5200   19.0830 N   0  0  0  0  0  4  0  0  0  0  0  0
  -29.8810  -22.4920   18.1340 H   0  0  0  0  0  0  0  0  0  0  0  0
  -30.3530  -22.4230   19.6770 H   0  0  0  0  0  0  0  0  0  0  0  0
  -28.9030  -23.8380   19.2930 C   0  0  0  0  0  2  0  0  0  0  0  0
  -29.2330  -24.4590   20.6640 C   0  0  0  0  0  2  0  0  0  0  0  0
  -28.2650  -25.5850   21.0610 C   0  0  0  0  0  2  0  0  0  0  0  0
  -28.3980  -26.7380   20.2260 O   0  0  0  0  0  0  0  0  0  0  0  0
  -24.5570  -31.9000   23.2410 C   0  0  0  0  0  0  0  0  0  0  0  0
  -27.2500  -27.4900   20.1910 C   0  0  0  0  0  0  0  0  0  0  0  0
  -23.3750  -30.4940   21.5840 C   0  0  0  0  0  3  0  0  0  0  0  0
  -24.8510  -28.9680   20.1730 C   0  0  0  0  0  0  0  0  0  0  0  0
  -25.8970  -30.8710   21.4100 C   0  0  0  0  0  2  0  0  0  0  0  0
  -25.9980  -29.5020   20.7740 C   0  0  0  0  0  0  0  0  0  0  0  0
  -27.2070  -28.7710   20.7800 C   0  0  0  0  0  3  0  0  0  0  0  0
  -26.0930  -26.9660   19.5790 C   0  0  0  0  0  3  0  0  0  0  0  0
  -24.8920  -27.6970   19.5720 C   0  0  0  0  0  3  0  0  0  0  0  0
  -23.6020  -29.8210   20.2060 C   0  0  0  0  0  2  0  0  0  0  0  0
  -24.6270  -31.1030   22.1390 N   0  0  0  0  0  0  0  0  0  0  0  0
  -23.4700  -32.1660   23.7720 O   0  0  0  0  0  0  0  0  0  0  0  0
  -22.7200  -29.4660   22.5360 C   0  0  0  0  0  0  0  0  0  0  0  0
  -21.3950  -29.2900   22.4070 N   0  0  0  0  0  0  0  0  0  0  0  0
  -23.4010  -28.8330   23.3480 O   0  0  0  0  0  0  0  0  0  0  0  0
  -20.9060  -29.8610   21.7310 H   0  0  0  0  0  0  0  0  0  0  0  0
  -18.0130  -28.1200   22.9000 C   0  0  0  0  0  0  0  0  0  0  0  0
  -20.5730  -28.3500   23.1700 C   0  0  0  0  0  3  0  0  0  0  0  0
  -20.6610  -26.9240   22.5800 C   0  0  0  0  0  2  0  0  0  0  0  0
  -19.5530  -26.6220   21.5650 C   0  0  0  0  0  2  0  0  0  0  0  0
  -18.1750  -26.7750   22.2150 C   0  0  0  0  0  2  0  0  0  0  0  0
  -19.1400  -28.8660   23.3370 C   0  0  0  0  0  0  0  0  0  0  0  0
  -18.9340  -30.1280   23.9390 C   0  0  0  0  0  3  0  0  0  0  0  0
  -17.6340  -30.6400   24.1100 C   0  0  0  0  0  3  0  0  0  0  0  0
  -16.5230  -29.8900   23.6880 C   0  0  0  0  0  3  0  0  0  0  0  0
  -16.7130  -28.6320   23.0900 C   0  0  0  0  0  3  0  0  0  0  0  0
  -25.8350  -32.5360   23.8740 C   0  0  0  0  0  3  0  0  0  0  0  0
  -25.5230  -33.9360   24.1900 N   0  0  0  0  0  0  0  0  0  0  0  0
  -25.8650  -34.9800   23.4250 C   0  0  0  0  0  0  0  0  0  0  0  0
  -26.5490  -34.8680   22.4030 O   0  0  0  0  0  0  0  0  0  0  0  0
  -24.9170  -34.0960   24.9810 H   0  0  0  0  0  0  0  0  0  0  0  0
  -24.1460  -36.7700   23.0230 C   0  0  0  0  0  1  0  0  0  0  0  0
  -25.3690  -36.3720   23.8620 C   0  0  0  0  0  3  0  0  0  0  0  0
  -27.4880  -37.2600   24.7310 C   0  0  0  0  0  1  0  0  0  0  0  0
  -26.4050  -37.4230   23.7630 N   0  0  0  0  0  0  0  0  0  0  0  0
  -25.9980  -38.3440   23.8950 H   0  0  0  0  0  0  0  0  0  0  0  0
  -26.3390  -31.7720   25.1590 C   0  0  1  0  0  0  0  0  0  0  0  0
  -25.2370  -31.5390   26.2170 C   0  0  0  0  0  1  0  0  0  0  0  0
  -26.9290  -30.3940   24.7770 C   0  0  0  0  0  1  0  0  0  0  0  0
  -27.4820  -32.5720   25.8290 C   0  0  0  0  0  1  0  0  0  0  0  0
  2  4  2  0
  2  3  1  0
  3  5  2  0
  4  7  1  0
  5  6  1  0
  5 10  1  0
  6  9  1  0
  7  1  1  0
  7  6  2  0
  8  4  1  0
 11 19  1  0
 12 17  1  0
 13 14  1  0
 13 12  1  0
 15 14  1  0
 15 24  1  0
 15 16  1  0
 17 11  1  0
 17 16  1  0
 18 11  2  0
 19 10  1  0
 19 20  1  0
 21 22  2  0
 22 41  1  0
 23 22  1  0
 23 26  1  0
 24 21  1  0
 24 25  1  0
 25 23  2  0
 26 27  1  0
 27 28  2  0
 29 32  1  0
 29 28  1  0
 30 29  2  0
 31 30  1  0
 31 26  2  0
 32 33  1  0
 33 34  1  0
 34 35  2  0
 36 35  1  0
 36 40  1  0
 37 36  2  0
 38 33  2  0
 38 37  1  0
 39 38  1  0
 41 42  1  0
 42 45  1  0
 42 44  1  0
 43 41  2  0
 46 47  1  0
 46 21  1  0
 48 46  1  0
 49  1  1  0
 49 52  1  0
 49 51  1  0
 50 49  1  0
 52 53  1  0
 53 54  1  0
 55 54  1  0
 56 67  2  0
 57 55  1  0
 57 62  1  0
 58 66  1  0
 58 68  1  0
 59 65  1  0
 59 61  1  0
 60 66  1  0
 61 62  2  0
 61 60  1  0
 63 57  2  0
 64 63  1  0
 64 59  2  0
 65 58  1  0
 66 56  1  0
 68 70  2  0
 69 68  1  0
 71 69  1  0
 72 81  2  0
 72 77  1  0
 73 69  1  0
 73 77  1  0
 74 73  1  0
 75 76  1  0
 75 74  1  0
 76 72  1  0
 77 78  2  0
 78 79  1  0
 80 79  2  0
 81 80  1  0
 82 56  1  0
 82 83  1  0
 82 92  1  0
 83 86  1  0
 84 88  1  0
 84 83  1  0
 85 84  2  0
 88 87  1  0
 90 88  1  0
 90 91  1  0
 90 89  1  0
 92 95  1  1
 92 93  1  0
 94 92  1  0
M  ISO  4  11 100  19 100  54 101  55 101
M  END
>  <TORSDO>  (33) 
F 22

>  <SCORE>  (33) 
-13.038

>  <name>  (33) 
32

>  <ligand_id>  (33) 
32

>  <original_smiles>  (33) 
[H]c1c([H])c([H])c2c(c1[H])C([H])([H])C([H])([H])C([H])([H])C2([H])N([H])C(=O)C1([H])N(C(=O)C([H])(N([H])C(=O)C([H])(N([H])C([H])([H])[H])C([H])([H])[H])C(C([H])([H])[H])(C([H])([H])[H])C([H])([H])[H])C([H])([H])c2c([H])c(OC([H])([H])C([H])([H])C([H])([H])[N+]([H])([H])C([H])([H])c3c(C([H])([H])[H])c([H])c([H])c(C([H])([H])N([H])C(=O)N4C([H])([H])C([H])([H])C([H])([H])C([H])(n5nc(-c6c([H])c([H])c(Oc7c([H])c([H])c(F)c([H])c7F)c([H])c6[H])c(C(=O)N([H])[H])c5N([H])[H])C4([H])[H])c3C([H])([H])[H])c([H])c([H])c2C1([H])[H]

>  <smiles>  (33) 
[H]c1c([H])c([H])c2c(c1[H])C([H])([H])C([H])([H])C([H])([H])C2([H])N([H])C(=O)C1([H])N(C(=O)C([H])(N([H])C(=O)C([H])(N([H])C([H])([H])[H])C([H])([H])[H])C(C([H])([H])[H])(C([H])([H])[H])C([H])([H])[H])C([H])([H])c2c([H])c(OC([H])([H])C([H])([H])C([H])([H])[N+]([H])([H])C([H])([H])c3c(C([H])([H])[H])c([H])c([H])c(C([H])([H])N([H])C(=O)N4C([H])([H])C([H])([H])C([H])([H])C([H])(n5nc(-c6c([H])c([H])c(Oc7c([H])c([H])c(F)c([H])c7F)c([H])c6[H])c(C(=O)N([H])[H])c5N([H])[H])C4([H])[H])c3C([H])([H])[H])c([H])c([H])c2C1([H])[H]

$$$$
33:0:0
     RDKit          3D

 91100  0  0  1  0  0  0  0  0999 V2000
  -29.5800  -19.5020   22.2320 C   0  0  0  0  0  2  0  0  0  0  0  0
  -29.4280  -21.9500   22.3170 C   0  0  0  0  0  2  0  0  0  0  0  0
  -28.2160  -22.1100   21.4040 C   0  0  0  0  0  2  0  0  0  0  0  0
  -30.1770  -20.7730   21.6820 C   0  0  0  0  0  3  0  0  0  0  0  0
  -29.8040  -20.7610   20.1760 C   0  0  0  0  0  3  0  0  0  0  0  0
  -29.3980  -19.1020   20.0730 C   0  0  0  0  0  3  0  0  0  0  0  0
  -29.0280  -18.7170   21.4140 N   0  0  0  0  0  2  0  0  0  0  0  0
  -28.7840  -21.9970   20.0440 N   0  0  2  0  0  4  0  0  0  0  0  0
  -28.0510  -21.7110   19.4120 H   0  0  0  0  0  0  0  0  0  0  0  0
  -30.4420  -17.8410   19.6740 C   0  0  0  0  0  2  0  0  0  0  0  0
  -30.8730  -15.1320   19.7600 C   0  0  0  0  0  0  0  0  0  0  0  0
  -30.7140  -12.7610   18.8970 C   0  0  0  0  0  2  0  0  0  0  0  0
  -29.7210  -12.6980   17.7150 C   0  0  0  0  0  2  0  0  0  0  0  0
  -28.2830  -12.4870   18.2250 C   0  0  0  0  0  2  0  0  0  0  0  0
  -27.9300  -13.4320   19.4040 C   0  0  0  0  0  3  0  0  0  0  0  0
  -29.0430  -13.4800   20.4730 C   0  0  0  0  0  2  0  0  0  0  0  0
  -30.2810  -13.8740   19.7890 N   0  0  0  0  0  0  0  0  0  0  0  0
  -32.0530  -15.1980   19.3950 O   0  0  0  0  0  0  0  0  0  0  0  0
  -30.1090  -16.3150   19.9240 N   0  0  0  0  0  0  0  0  0  0  0  0
  -29.1550  -16.1520   20.2100 H   0  0  0  0  0  0  0  0  0  0  0  0
  -25.6150  -14.0160   20.3310 C   0  0  0  0  0  0  0  0  0  0  0  0
  -24.5620  -13.2430   20.7370 C   0  0  0  0  0  0  0  0  0  0  0  0
  -24.9960  -11.8870   20.6120 C   0  0  0  0  0  0  0  0  0  0  0  0
  -26.6230  -13.1330   19.9790 N   0  0  0  0  0  0  0  0  0  0  0  0
  -26.2620  -11.8430   20.2130 N   0  0  0  0  0  0  0  0  0  0  0  0
  -24.2560  -10.6310   20.7930 C   0  0  0  0  0  0  0  0  0  0  0  0
  -24.6520   -9.6730   21.7520 C   0  0  0  0  0  3  0  0  0  0  0  0
  -23.9140   -8.4820   21.9240 C   0  0  0  0  0  3  0  0  0  0  0  0
  -22.7640   -8.2400   21.1340 C   0  0  0  0  0  0  0  0  0  0  0  0
  -22.3860   -9.1860   20.1660 C   0  0  0  0  0  3  0  0  0  0  0  0
  -23.1240  -10.3690   19.9930 C   0  0  0  0  0  3  0  0  0  0  0  0
  -22.0020   -7.0990   21.2100 O   0  0  0  0  0  0  0  0  0  0  0  0
  -21.7740   -6.4650   22.4050 C   0  0  0  0  0  0  0  0  0  0  0  0
  -21.1380   -7.1150   23.4860 C   0  0  0  0  0  3  0  0  0  0  0  0
  -20.8610   -6.4040   24.6700 C   0  0  0  0  0  3  0  0  0  0  0  0
  -21.2090   -5.0440   24.7740 C   0  0  0  0  0  0  0  0  0  0  0  0
  -21.8390   -4.3930   23.6980 C   0  0  0  0  0  3  0  0  0  0  0  0
  -22.1170   -5.1010   22.5160 C   0  0  0  0  0  0  0  0  0  0  0  0
  -22.7030   -4.4640   21.4740 F   0  0  0  0  0  0  0  0  0  0  0  0
  -20.9370   -4.3590   25.9100 F   0  0  0  0  0  0  0  0  0  0  0  0
  -23.1970  -13.7320   21.1230 C   0  0  0  0  0  0  0  0  0  0  0  0
  -22.5250  -13.0300   22.0280 N   0  0  0  0  0  0  0  0  0  0  0  0
  -22.7360  -14.7740   20.6560 O   0  0  0  0  0  0  0  0  0  0  0  0
  -22.9100  -12.1870   22.4280 H   0  0  0  0  0  0  0  0  0  0  0  0
  -21.6110  -13.3420   22.3250 H   0  0  0  0  0  0  0  0  0  0  0  0
  -25.7900  -15.3900   20.2020 N   0  0  0  0  0  0  0  0  0  0  0  0
  -25.0420  -16.0460   20.3970 H   0  0  0  0  0  0  0  0  0  0  0  0
  -26.6190  -15.8360   19.8280 H   0  0  0  0  0  0  0  0  0  0  0  0
  -29.2280  -23.4710   19.5990 C   0  0  0  0  0  2  0  0  0  0  0  0
  -28.1540  -24.7790   19.4650 C   0  0  0  0  0  2  0  0  0  0  0  0
  -28.4170  -26.3160   19.5940 O   0  0  0  0  0  0  0  0  0  0  0  0
  -24.5700  -31.5770   23.0560 C   0  0  0  0  0  0  0  0  0  0  0  0
  -27.3280  -27.2660   19.6200 C   0  0  0  0  0  0  0  0  0  0  0  0
  -23.4310  -30.3090   21.2770 C   0  0  0  0  0  3  0  0  0  0  0  0
  -24.9420  -28.9260   19.7290 C   0  0  0  0  0  0  0  0  0  0  0  0
  -25.9750  -30.6740   21.1660 C   0  0  0  0  0  2  0  0  0  0  0  0
  -26.1020  -29.3520   20.3890 C   0  0  0  0  0  0  0  0  0  0  0  0
  -27.2950  -28.5390   20.3200 C   0  0  0  0  0  3  0  0  0  0  0  0
  -26.1370  -26.9480   18.9280 C   0  0  0  0  0  3  0  0  0  0  0  0
  -24.9720  -27.7390   18.9860 C   0  0  0  0  0  3  0  0  0  0  0  0
  -23.6850  -29.7740   19.8450 C   0  0  0  0  0  2  0  0  0  0  0  0
  -24.6780  -30.8700   21.8900 N   0  0  0  0  0  0  0  0  0  0  0  0
  -23.4700  -31.7740   23.5960 O   0  0  0  0  0  0  0  0  0  0  0  0
  -22.7790  -29.1910   22.1310 C   0  0  0  0  0  0  0  0  0  0  0  0
  -21.4490  -29.0250   22.0120 N   0  0  0  0  0  0  0  0  0  0  0  0
  -23.4720  -28.4800   22.8640 O   0  0  0  0  0  0  0  0  0  0  0  0
  -20.9470  -29.6570   21.4050 H   0  0  0  0  0  0  0  0  0  0  0  0
  -18.0750  -27.8090   22.5270 C   0  0  0  0  0  0  0  0  0  0  0  0
  -20.6490  -27.9990   22.6870 C   0  0  0  0  0  3  0  0  0  0  0  0
  -20.6910  -26.6600   21.9150 C   0  0  0  0  0  2  0  0  0  0  0  0
  -19.5310  -26.4960   20.9270 C   0  0  0  0  0  2  0  0  0  0  0  0
  -18.1890  -26.5670   21.6600 C   0  0  0  0  0  2  0  0  0  0  0  0
  -19.2290  -28.4890   22.9970 C   0  0  0  0  0  0  0  0  0  0  0  0
  -19.0670  -29.6560   23.7740 C   0  0  0  0  0  3  0  0  0  0  0  0
  -17.7830  -30.1430   24.0830 C   0  0  0  0  0  3  0  0  0  0  0  0
  -16.6430  -29.4590   23.6250 C   0  0  0  0  0  3  0  0  0  0  0  0
  -16.7900  -28.2910   22.8550 C   0  0  0  0  0  3  0  0  0  0  0  0
  -25.8200  -32.1920   23.7560 C   0  0  0  0  0  3  0  0  0  0  0  0
  -26.2810  -31.3760   25.0270 C   0  0  1  0  0  0  0  0  0  0  0  0
  -25.1460  -31.1130   26.0450 C   0  0  0  0  0  1  0  0  0  0  0  0
  -26.8720  -30.0070   24.6180 C   0  0  0  0  0  1  0  0  0  0  0  0
  -27.4110  -32.1400   25.7580 C   0  0  0  0  0  1  0  0  0  0  0  0
  -25.4900  -33.5760   24.1280 N   0  0  0  0  0  0  0  0  0  0  0  0
  -25.8110  -34.6590   23.4050 C   0  0  0  0  0  0  0  0  0  0  0  0
  -26.4820  -34.5960   22.3730 O   0  0  0  0  0  0  0  0  0  0  0  0
  -24.8940  -33.6970   24.9340 H   0  0  0  0  0  0  0  0  0  0  0  0
  -24.0560  -36.4400   23.1190 C   0  0  0  0  0  1  0  0  0  0  0  0
  -25.3100  -36.0280   23.9070 C   0  0  0  0  0  3  0  0  0  0  0  0
  -27.4310  -36.9290   24.7570 C   0  0  0  0  0  1  0  0  0  0  0  0
  -26.3280  -37.0980   23.8140 N   0  0  0  0  0  0  0  0  0  0  0  0
  -25.9090  -38.0100   23.9740 H   0  0  0  0  0  0  0  0  0  0  0  0
  3  2  1  0
  4  1  1  0
  4  2  1  0
  5  8  1  0
  5  4  1  0
  6 10  1  0
  6  5  1  0
  6  7  1  0
  7  1  1  0
  8  3  1  0
  8  9  1  6
 10 19  1  0
 11 17  1  0
 11 19  1  0
 12 17  1  0
 13 14  1  0
 13 12  1  0
 15 14  1  0
 15 24  1  0
 15 16  1  0
 17 16  1  0
 18 11  2  0
 19 20  1  0
 21 22  2  0
 22 41  1  0
 23 22  1  0
 23 26  1  0
 24 25  1  0
 24 21  1  0
 25 23  2  0
 26 27  1  0
 27 28  2  0
 29 32  1  0
 29 28  1  0
 30 29  2  0
 31 30  1  0
 31 26  2  0
 32 33  1  0
 33 38  2  0
 33 34  1  0
 34 35  2  0
 35 36  1  0
 36 40  1  0
 37 36  2  0
 38 37  1  0
 39 38  1  0
 41 42  1  0
 42 45  1  0
 42 44  1  0
 43 41  2  0
 46 21  1  0
 46 47  1  0
 48 46  1  0
 49  8  1  0
 50 51  1  0
 50 49  1  0
 51 53  1  0
 52 63  2  0
 53 58  1  0
 54 62  1  0
 54 64  1  0
 55 61  1  0
 55 57  1  0
 56 62  1  0
 57 56  1  0
 58 57  2  0
 59 60  1  0
 59 53  2  0
 60 55  2  0
 61 54  1  0
 62 52  1  0
 64 66  2  0
 65 64  1  0
 67 65  1  0
 68 77  2  0
 68 73  1  0
 69 65  1  0
 69 73  1  0
 70 69  1  0
 71 72  1  0
 71 70  1  0
 72 68  1  0
 73 74  2  0
 74 75  1  0
 76 75  2  0
 77 76  1  0
 78 52  1  0
 78 83  1  0
 78 79  1  0
 79 82  1  1
 79 80  1  0
 81 79  1  0
 83 86  1  0
 84 88  1  0
 84 83  1  0
 85 84  2  0
 88 87  1  0
 90 88  1  0
 90 91  1  0
 90 89  1  0
M  ISO  4  11 100  19 100  50 101  51 101
M  END
>  <TORSDO>  (34) 
F 19

>  <SCORE>  (34) 
-12.432

>  <name>  (34) 
33

>  <ligand_id>  (34) 
33

>  <original_smiles>  (34) 
[H]C1=NC([H])(C([H])([H])N([H])C(=O)N2C([H])([H])C([H])([H])C([H])([H])C([H])(n3nc(-c4c([H])c([H])c(Oc5c([H])c([H])c(F)c([H])c5F)c([H])c4[H])c(C(=O)N([H])[H])c3N([H])[H])C2([H])[H])C2([H])C1([H])C([H])([H])C([H])([H])[N+]2([H])C([H])([H])C([H])([H])Oc1c([H])c([H])c2c(c1[H])C([H])([H])N(C(=O)C([H])(N([H])C(=O)C([H])(N([H])C([H])([H])[H])C([H])([H])[H])C(C([H])([H])[H])(C([H])([H])[H])C([H])([H])[H])C([H])(C(=O)N([H])C1([H])c3c([H])c([H])c([H])c([H])c3C([H])([H])C([H])([H])C1([H])[H])C2([H])[H]

>  <smiles>  (34) 
[H]C1=NC([H])(C([H])([H])N([H])C(=O)N2C([H])([H])C([H])([H])C([H])([H])C([H])(n3nc(-c4c([H])c([H])c(Oc5c([H])c([H])c(F)c([H])c5F)c([H])c4[H])c(C(=O)N([H])[H])c3N([H])[H])C2([H])[H])C2([H])C1([H])C([H])([H])C([H])([H])[N+]2([H])C([H])([H])C([H])([H])Oc1c([H])c([H])c2c(c1[H])C([H])([H])N(C(=O)C([H])(N([H])C(=O)C([H])(N([H])C([H])([H])[H])C([H])([H])[H])C(C([H])([H])[H])(C([H])([H])[H])C([H])([H])[H])C([H])(C(=O)N([H])C1([H])c3c([H])c([H])c([H])c([H])c3C([H])([H])C([H])([H])C1([H])[H])C2([H])[H]

$$$$
34:0:0
     RDKit          3D

 95104  0  0  1  0  0  0  0  0999 V2000
  -29.8190  -19.7460   19.7900 C   0  0  0  0  0  2  0  0  0  0  0  0
  -30.4390  -18.3130   19.8170 C   0  0  0  0  0  2  0  0  0  0  0  0
  -30.4190  -18.6750   22.4160 C   0  0  0  0  0  2  0  0  0  0  0  0
  -30.5860  -20.7380   20.7110 C   0  0  0  0  0  3  0  0  0  0  0  0
  -31.1530  -19.9290   21.9110 C   0  0  0  0  0  3  0  0  0  0  0  0
  -31.0620  -17.9830   21.1990 C   0  0  2  0  0  0  0  0  0  0  0  0
  -32.1490  -18.9540   21.4500 N   0  0  0  0  0  4  0  0  0  0  0  0
  -32.7510  -18.6660   22.2060 H   0  0  0  0  0  0  0  0  0  0  0  0
  -32.6860  -19.2300   20.6430 H   0  0  0  0  0  0  0  0  0  0  0  0
  -29.7510  -21.9810   21.1840 C   0  0  0  0  0  2  0  0  0  0  0  0
  -29.4980  -23.0290   20.1470 N   0  0  0  0  0  4  0  0  0  0  0  0
  -28.9220  -22.6350   19.4200 H   0  0  0  0  0  0  0  0  0  0  0  0
  -30.3820  -23.2730   19.7290 H   0  0  0  0  0  0  0  0  0  0  0  0
  -28.8630  -24.2870   20.6620 C   0  0  0  0  0  2  0  0  0  0  0  0
  -28.8430  -25.4620   19.6430 C   0  0  0  0  0  2  0  0  0  0  0  0
  -28.5850  -26.7340   20.2700 O   0  0  0  0  0  0  0  0  0  0  0  0
  -24.5540  -31.8250   23.1620 C   0  0  0  0  0  0  0  0  0  0  0  0
  -27.3600  -27.3770   20.2120 C   0  0  0  0  0  0  0  0  0  0  0  0
  -23.4110  -30.3810   21.5050 C   0  0  0  0  0  3  0  0  0  0  0  0
  -24.9260  -28.8430   20.1430 C   0  0  0  0  0  0  0  0  0  0  0  0
  -25.9330  -30.7760   21.3680 C   0  0  0  0  0  2  0  0  0  0  0  0
  -26.0550  -29.3930   20.7570 C   0  0  0  0  0  0  0  0  0  0  0  0
  -27.2660  -28.6670   20.7880 C   0  0  0  0  0  3  0  0  0  0  0  0
  -26.2030  -26.8330   19.6040 C   0  0  0  0  0  3  0  0  0  0  0  0
  -24.9960  -27.5620   19.5670 C   0  0  0  0  0  3  0  0  0  0  0  0
  -23.6640  -29.6800   20.1430 C   0  0  0  0  0  2  0  0  0  0  0  0
  -24.6490  -31.0110   22.0720 N   0  0  0  0  0  0  0  0  0  0  0  0
  -23.4550  -32.0860   23.6700 O   0  0  0  0  0  0  0  0  0  0  0  0
  -22.7490  -29.3690   22.4660 C   0  0  0  0  0  0  0  0  0  0  0  0
  -21.4280  -29.1760   22.3140 N   0  0  0  0  0  0  0  0  0  0  0  0
  -23.4200  -28.7590   23.3030 O   0  0  0  0  0  0  0  0  0  0  0  0
  -20.9460  -29.7200   21.6100 H   0  0  0  0  0  0  0  0  0  0  0  0
  -18.0520  -27.9730   22.7600 C   0  0  0  0  0  0  0  0  0  0  0  0
  -20.6030  -28.2390   23.0760 C   0  0  0  0  0  3  0  0  0  0  0  0
  -20.7220  -26.8040   22.5070 C   0  0  0  0  0  2  0  0  0  0  0  0
  -19.6390  -26.4750   21.4770 C   0  0  0  0  0  2  0  0  0  0  0  0
  -18.2440  -26.6210   22.0930 C   0  0  0  0  0  2  0  0  0  0  0  0
  -19.1610  -28.7390   23.2070 C   0  0  0  0  0  0  0  0  0  0  0  0
  -18.9290  -30.0050   23.7850 C   0  0  0  0  0  3  0  0  0  0  0  0
  -17.6200  -30.5040   23.9240 C   0  0  0  0  0  3  0  0  0  0  0  0
  -16.5260  -29.7320   23.4970 C   0  0  0  0  0  3  0  0  0  0  0  0
  -16.7420  -28.4690   22.9180 C   0  0  0  0  0  3  0  0  0  0  0  0
  -25.8130  -32.4830   23.8060 C   0  0  0  0  0  3  0  0  0  0  0  0
  -25.4660  -33.8690   24.1460 N   0  0  0  0  0  0  0  0  0  0  0  0
  -25.7790  -34.9370   23.4000 C   0  0  0  0  0  0  0  0  0  0  0  0
  -26.4610  -34.8620   22.3740 O   0  0  0  0  0  0  0  0  0  0  0  0
  -24.8570  -34.0020   24.9400 H   0  0  0  0  0  0  0  0  0  0  0  0
  -24.0100  -36.6890   23.0410 C   0  0  0  0  0  1  0  0  0  0  0  0
  -25.2500  -36.3080   23.8640 C   0  0  0  0  0  3  0  0  0  0  0  0
  -27.3420  -37.2450   24.7440 C   0  0  0  0  0  1  0  0  0  0  0  0
  -26.2570  -37.3880   23.7770 N   0  0  0  0  0  0  0  0  0  0  0  0
  -25.8240  -38.2970   23.9200 H   0  0  0  0  0  0  0  0  0  0  0  0
  -26.3340  -31.7120   25.0800 C   0  0  1  0  0  0  0  0  0  0  0  0
  -25.2310  -31.4240   26.1260 C   0  0  0  0  0  1  0  0  0  0  0  0
  -26.9670  -30.3610   24.6770 C   0  0  0  0  0  1  0  0  0  0  0  0
  -27.4480  -32.5320   25.7730 C   0  0  0  0  0  1  0  0  0  0  0  0
  -31.6100  -16.5290   21.3330 C   0  0  0  0  0  2  0  0  0  0  0  0
  -31.1740  -14.4410   20.0160 C   0  0  0  0  0  0  0  0  0  0  0  0
  -30.6720  -12.3150   18.8520 C   0  0  0  0  0  2  0  0  0  0  0  0
  -29.6650  -12.5270   17.7060 C   0  0  0  0  0  2  0  0  0  0  0  0
  -28.2230  -12.4210   18.2290 C   0  0  0  0  0  2  0  0  0  0  0  0
  -27.9850  -13.2840   19.4980 C   0  0  0  0  0  3  0  0  0  0  0  0
  -29.1040  -13.0720   20.5450 C   0  0  0  0  0  2  0  0  0  0  0  0
  -30.3990  -13.3230   19.8940 N   0  0  0  0  0  0  0  0  0  0  0  0
  -32.2180  -14.5830   19.3760 O   0  0  0  0  0  0  0  0  0  0  0  0
  -30.7540  -15.4120   20.8570 N   0  0  0  0  0  0  0  0  0  0  0  0
  -29.8710  -15.2700   21.3200 H   0  0  0  0  0  0  0  0  0  0  0  0
  -25.6770  -13.9600   20.4070 C   0  0  0  0  0  0  0  0  0  0  0  0
  -24.6000  -13.2200   20.8180 C   0  0  0  0  0  0  0  0  0  0  0  0
  -24.9920  -11.8520   20.6950 C   0  0  0  0  0  0  0  0  0  0  0  0
  -26.6590  -13.0440   20.0630 N   0  0  0  0  0  0  0  0  0  0  0  0
  -26.2550  -11.7680   20.2930 N   0  0  0  0  0  0  0  0  0  0  0  0
  -24.2190  -10.6170   20.8820 C   0  0  0  0  0  0  0  0  0  0  0  0
  -24.6160   -9.6290   21.8100 C   0  0  0  0  0  3  0  0  0  0  0  0
  -23.8460   -8.4600   21.9860 C   0  0  0  0  0  3  0  0  0  0  0  0
  -22.6630   -8.2700   21.2320 C   0  0  0  0  0  0  0  0  0  0  0  0
  -22.2840   -9.2450   20.2940 C   0  0  0  0  0  3  0  0  0  0  0  0
  -23.0550  -10.4060   20.1170 C   0  0  0  0  0  3  0  0  0  0  0  0
  -21.8650   -7.1550   21.3180 O   0  0  0  0  0  0  0  0  0  0  0  0
  -21.7210   -6.4600   22.4920 C   0  0  0  0  0  0  0  0  0  0  0  0
  -21.1840   -7.0590   23.6520 C   0  0  0  0  0  3  0  0  0  0  0  0
  -20.9890   -6.2900   24.8160 C   0  0  0  0  0  3  0  0  0  0  0  0
  -21.3220   -4.9230   24.8220 C   0  0  0  0  0  0  0  0  0  0  0  0
  -21.8540   -4.3220   23.6660 C   0  0  0  0  0  3  0  0  0  0  0  0
  -22.0490   -5.0890   22.5040 C   0  0  0  0  0  0  0  0  0  0  0  0
  -22.5420   -4.5010   21.3870 F   0  0  0  0  0  0  0  0  0  0  0  0
  -21.1290   -4.1810   25.9370 F   0  0  0  0  0  0  0  0  0  0  0  0
  -23.2520  -13.7480   21.2140 C   0  0  0  0  0  0  0  0  0  0  0  0
  -22.5580  -13.0500   22.1050 N   0  0  0  0  0  0  0  0  0  0  0  0
  -22.8260  -14.8130   20.7660 O   0  0  0  0  0  0  0  0  0  0  0  0
  -22.9170  -12.1880   22.4870 H   0  0  0  0  0  0  0  0  0  0  0  0
  -21.6540  -13.3820   22.4110 H   0  0  0  0  0  0  0  0  0  0  0  0
  -25.8940  -15.3280   20.2770 N   0  0  0  0  0  0  0  0  0  0  0  0
  -25.1680  -16.0100   20.4680 H   0  0  0  0  0  0  0  0  0  0  0  0
  -26.7410  -15.7440   19.9080 H   0  0  0  0  0  0  0  0  0  0  0  0
  1  2  1  0
  1  4  1  0
  2  6  1  0
  4 10  1  0
  4  5  1  0
  5  3  1  0
  6 57  1  1
  6  7  1  0
  6  3  1  0
  7  5  1  0
  7  8  1  0
  9  7  1  0
 11 14  1  0
 11 10  1  0
 12 11  1  0
 13 11  1  0
 15 16  1  0
 15 14  1  0
 17 28  2  0
 18 16  1  0
 18 23  1  0
 19 27  1  0
 19 29  1  0
 20 22  1  0
 21 27  1  0
 22 23  2  0
 22 21  1  0
 24 18  2  0
 25 24  1  0
 25 20  2  0
 26 20  1  0
 26 19  1  0
 27 17  1  0
 29 31  2  0
 30 29  1  0
 32 30  1  0
 33 42  2  0
 33 38  1  0
 34 30  1  0
 34 38  1  0
 35 34  1  0
 36 37  1  0
 36 35  1  0
 37 33  1  0
 38 39  2  0
 39 40  1  0
 41 40  2  0
 42 41  1  0
 43 17  1  0
 43 44  1  0
 43 53  1  0
 44 47  1  0
 45 49  1  0
 45 44  1  0
 46 45  2  0
 49 48  1  0
 51 49  1  0
 51 52  1  0
 51 50  1  0
 53 56  1  1
 53 54  1  0
 55 53  1  0
 58 66  1  0
 59 64  1  0
 60 61  1  0
 60 59  1  0
 62 61  1  0
 62 71  1  0
 62 63  1  0
 64 58  1  0
 64 63  1  0
 65 58  2  0
 66 67  1  0
 66 57  1  0
 68 69  2  0
 69 88  1  0
 70 69  1  0
 70 73  1  0
 71 72  1  0
 71 68  1  0
 72 70  2  0
 73 74  1  0
 74 75  2  0
 76 79  1  0
 76 75  1  0
 77 76  2  0
 78 77  1  0
 78 73  2  0
 79 80  1  0
 80 85  2  0
 80 81  1  0
 81 82  2  0
 82 83  1  0
 83 87  1  0
 84 83  2  0
 85 84  1  0
 86 85  1  0
 88 89  1  0
 89 92  1  0
 89 91  1  0
 90 88  2  0
 93 68  1  0
 93 94  1  0
 95 93  1  0
M  ISO  4  15 101  16 101  58 100  66 100
M  END
>  <TORSDO>  (35) 
F 21

>  <SCORE>  (35) 
-12.845

>  <name>  (35) 
34

>  <ligand_id>  (35) 
34

>  <original_smiles>  (35) 
[H]c1c([H])c([H])c2c(c1[H])C([H])([H])C([H])([H])C([H])([H])C2([H])N([H])C(=O)C1([H])N(C(=O)C([H])(N([H])C(=O)C([H])(N([H])C([H])([H])[H])C([H])([H])[H])C(C([H])([H])[H])(C([H])([H])[H])C([H])([H])[H])C([H])([H])c2c([H])c(OC([H])([H])C([H])([H])[N+]([H])([H])C([H])([H])C3([H])C([H])([H])C([H])([H])C4(C([H])([H])N([H])C(=O)N5C([H])([H])C([H])([H])C([H])([H])C([H])(n6nc(-c7c([H])c([H])c(Oc8c([H])c([H])c(F)c([H])c8F)c([H])c7[H])c(C(=O)N([H])[H])c6N([H])[H])C5([H])[H])C([H])([H])C3([H])[N+]4([H])[H])c([H])c([H])c2C1([H])[H]

>  <smiles>  (35) 
[H]c1c([H])c([H])c2c(c1[H])C([H])([H])C([H])([H])C([H])([H])C2([H])N([H])C(=O)C1([H])N(C(=O)C([H])(N([H])C(=O)C([H])(N([H])C([H])([H])[H])C([H])([H])[H])C(C([H])([H])[H])(C([H])([H])[H])C([H])([H])[H])C([H])([H])c2c([H])c(OC([H])([H])C([H])([H])[N+]([H])([H])C([H])([H])C3([H])C([H])([H])C([H])([H])C4(C([H])([H])N([H])C(=O)N5C([H])([H])C([H])([H])C([H])([H])C([H])(n6nc(-c7c([H])c([H])c(Oc8c([H])c([H])c(F)c([H])c8F)c([H])c7[H])c(C(=O)N([H])[H])c6N([H])[H])C5([H])[H])C([H])([H])C3([H])[N+]4([H])[H])c([H])c([H])c2C1([H])[H]

$$$$
35:0:0
     RDKit          3D

 94102  0  0  1  0  0  0  0  0999 V2000
  -29.1600  -20.0410   19.0340 C   0  0  0  0  0  2  0  0  0  0  0  0
  -28.5900  -21.5230   19.3090 C   0  0  0  0  0  2  0  0  0  0  0  0
  -30.1890  -21.4360   21.1330 C   0  0  0  0  0  2  0  0  0  0  0  0
  -29.3520  -18.9840   20.2070 C   0  0  0  0  0  3  0  0  0  0  0  0
  -29.8990  -19.8650   21.4110 C   0  0  0  0  0  3  0  0  0  0  0  0
  -29.0550  -22.2500   20.5390 N   0  0  1  0  0  4  0  0  0  0  0  0
  -28.3080  -22.1600   21.2130 H   0  0  0  0  0  0  0  0  0  0  0  0
  -30.0990  -17.5540   19.7550 C   0  0  0  0  0  2  0  0  0  0  0  0
  -30.6210  -14.9690   20.2930 C   0  0  0  0  0  0  0  0  0  0  0  0
  -30.4870  -12.6270   19.4000 C   0  0  0  0  0  2  0  0  0  0  0  0
  -29.5700  -12.6170   18.1520 C   0  0  0  0  0  2  0  0  0  0  0  0
  -28.0920  -12.4390   18.5570 C   0  0  0  0  0  2  0  0  0  0  0  0
  -27.6810  -13.3490   19.7470 C   0  0  0  0  0  3  0  0  0  0  0  0
  -28.7290  -13.3520   20.8840 C   0  0  0  0  0  2  0  0  0  0  0  0
  -30.0180  -13.7210   20.2880 N   0  0  0  0  0  0  0  0  0  0  0  0
  -31.8230  -15.0360   20.0240 O   0  0  0  0  0  0  0  0  0  0  0  0
  -29.8330  -16.1360   20.3420 N   0  0  0  0  0  0  0  0  0  0  0  0
  -28.8590  -15.9440   20.5360 H   0  0  0  0  0  0  0  0  0  0  0  0
  -25.2850  -13.9220   20.4510 C   0  0  0  0  0  0  0  0  0  0  0  0
  -24.2210  -13.1440   20.8140 C   0  0  0  0  0  0  0  0  0  0  0  0
  -24.6940  -11.7950   20.7970 C   0  0  0  0  0  0  0  0  0  0  0  0
  -26.3360  -13.0490   20.2300 N   0  0  0  0  0  0  0  0  0  0  0  0
  -25.9900  -11.7640   20.5090 N   0  0  0  0  0  0  0  0  0  0  0  0
  -23.9690  -10.5310   20.9850 C   0  0  0  0  0  0  0  0  0  0  0  0
  -24.3900   -9.5690   21.9320 C   0  0  0  0  0  3  0  0  0  0  0  0
  -23.6640   -8.3710   22.1070 C   0  0  0  0  0  3  0  0  0  0  0  0
  -22.5020   -8.1250   21.3350 C   0  0  0  0  0  0  0  0  0  0  0  0
  -22.1010   -9.0740   20.3790 C   0  0  0  0  0  3  0  0  0  0  0  0
  -22.8270  -10.2650   20.2030 C   0  0  0  0  0  3  0  0  0  0  0  0
  -21.7480   -6.9790   21.4180 O   0  0  0  0  0  0  0  0  0  0  0  0
  -21.6790   -6.2460   22.5770 C   0  0  0  0  0  0  0  0  0  0  0  0
  -21.2200   -6.8070   23.7880 C   0  0  0  0  0  3  0  0  0  0  0  0
  -21.1010   -5.9990   24.9370 C   0  0  0  0  0  3  0  0  0  0  0  0
  -21.4280   -4.6310   24.8730 C   0  0  0  0  0  0  0  0  0  0  0  0
  -21.8850   -4.0710   23.6670 C   0  0  0  0  0  3  0  0  0  0  0  0
  -22.0060   -4.8750   22.5210 C   0  0  0  0  0  0  0  0  0  0  0  0
  -22.4220   -4.3260   21.3540 F   0  0  0  0  0  0  0  0  0  0  0  0
  -21.3100   -3.8520   25.9750 F   0  0  0  0  0  0  0  0  0  0  0  0
  -22.8190  -13.6180   21.0580 C   0  0  0  0  0  0  0  0  0  0  0  0
  -22.0770  -12.9210   21.9110 N   0  0  0  0  0  0  0  0  0  0  0  0
  -22.3850  -14.6330   20.5160 O   0  0  0  0  0  0  0  0  0  0  0  0
  -22.4430  -12.1000   22.3700 H   0  0  0  0  0  0  0  0  0  0  0  0
  -21.1360  -13.2230   22.1200 H   0  0  0  0  0  0  0  0  0  0  0  0
  -25.4410  -15.2950   20.2820 N   0  0  0  0  0  0  0  0  0  0  0  0
  -24.6650  -15.9340   20.4150 H   0  0  0  0  0  0  0  0  0  0  0  0
  -26.2790  -15.7500   19.9450 H   0  0  0  0  0  0  0  0  0  0  0  0
  -31.1110  -19.1550   22.0770 C   0  0  0  0  0  2  0  0  0  0  0  0
  -31.3410  -19.5240   23.4800 N   0  0  0  0  0  4  0  0  0  0  0  0
  -31.8270  -20.3980   23.5710 H   0  0  0  0  0  0  0  0  0  0  0  0
  -31.9170  -18.8190   23.9020 H   0  0  0  0  0  0  0  0  0  0  0  0
  -30.4840  -19.5590   24.0090 H   0  0  0  0  0  0  0  0  0  0  0  0
  -29.2840  -23.7950   20.3860 C   0  0  0  0  0  3  0  0  0  0  0  0
  -28.0690  -24.8750   20.1840 C   0  0  0  0  0  3  0  0  0  0  0  0
  -28.3050  -26.3800   20.1780 O   0  0  0  0  0  0  0  0  0  0  0  0
  -24.6380  -31.9060   23.2130 C   0  0  0  0  0  0  0  0  0  0  0  0
  -27.2090  -27.2880   20.1220 C   0  0  0  0  0  0  0  0  0  0  0  0
  -23.4210  -30.5100   21.5840 C   0  0  0  0  0  3  0  0  0  0  0  0
  -24.8520  -28.9580   20.1240 C   0  0  0  0  0  0  0  0  0  0  0  0
  -25.9600  -30.8110   21.3760 C   0  0  0  0  0  2  0  0  0  0  0  0
  -26.0300  -29.4260   20.7250 C   0  0  0  0  0  0  0  0  0  0  0  0
  -27.2110  -28.6040   20.7090 C   0  0  0  0  0  3  0  0  0  0  0  0
  -26.0100  -26.9030   19.4790 C   0  0  0  0  0  3  0  0  0  0  0  0
  -24.8520  -27.7090   19.4860 C   0  0  0  0  0  3  0  0  0  0  0  0
  -23.6200  -29.8500   20.1910 C   0  0  0  0  0  2  0  0  0  0  0  0
  -24.6940  -31.0910   22.1140 N   0  0  0  0  0  0  0  0  0  0  0  0
  -23.5590  -32.1780   23.7570 O   0  0  0  0  0  0  0  0  0  0  0  0
  -22.7700  -29.4910   22.5440 C   0  0  0  0  0  0  0  0  0  0  0  0
  -21.4380  -29.3110   22.4340 N   0  0  0  0  0  0  0  0  0  0  0  0
  -23.4540  -28.8600   23.3550 O   0  0  0  0  0  0  0  0  0  0  0  0
  -20.9390  -29.8730   21.7570 H   0  0  0  0  0  0  0  0  0  0  0  0
  -18.0750  -28.0800   22.9570 C   0  0  0  0  0  0  0  0  0  0  0  0
  -20.6320  -28.3650   23.2050 C   0  0  0  0  0  3  0  0  0  0  0  0
  -20.7420  -26.9310   22.6340 C   0  0  0  0  0  2  0  0  0  0  0  0
  -19.6400  -26.5980   21.6290 C   0  0  0  0  0  2  0  0  0  0  0  0
  -18.2590  -26.7350   22.2770 C   0  0  0  0  0  2  0  0  0  0  0  0
  -19.1880  -28.8550   23.3780 C   0  0  0  0  0  0  0  0  0  0  0  0
  -18.9650  -30.1140   23.9710 C   0  0  0  0  0  3  0  0  0  0  0  0
  -17.6540  -30.6040   24.1470 C   0  0  0  0  0  3  0  0  0  0  0  0
  -16.5560  -29.8280   23.7390 C   0  0  0  0  0  3  0  0  0  0  0  0
  -16.7650  -28.5680   23.1510 C   0  0  0  0  0  3  0  0  0  0  0  0
  -25.9230  -32.5430   23.8210 C   0  0  0  0  0  3  0  0  0  0  0  0
  -25.6140  -33.9420   24.1610 N   0  0  0  0  0  0  0  0  0  0  0  0
  -25.9270  -35.0000   23.4030 C   0  0  0  0  0  0  0  0  0  0  0  0
  -26.5840  -34.9040   22.3610 O   0  0  0  0  0  0  0  0  0  0  0  0
  -25.0340  -34.0900   24.9740 H   0  0  0  0  0  0  0  0  0  0  0  0
  -24.1890  -36.7950   23.0790 C   0  0  0  0  0  1  0  0  0  0  0  0
  -25.4400  -36.3830   23.8750 C   0  0  0  0  0  3  0  0  0  0  0  0
  -27.5780  -37.2700   24.7000 C   0  0  0  0  0  1  0  0  0  0  0  0
  -26.4670  -37.4420   23.7630 N   0  0  0  0  0  0  0  0  0  0  0  0
  -26.0610  -38.3570   23.9260 H   0  0  0  0  0  0  0  0  0  0  0  0
  -26.4590  -31.7720   25.0900 C   0  0  1  0  0  0  0  0  0  0  0  0
  -25.3820  -31.5220   26.1690 C   0  0  0  0  0  1  0  0  0  0  0  0
  -27.0470  -30.4000   24.6890 C   0  0  0  0  0  1  0  0  0  0  0  0
  -27.6100  -32.5700   25.7450 C   0  0  0  0  0  1  0  0  0  0  0  0
  1  2  1  0
  1  4  1  0
  2  6  1  0
  3  5  1  0
  4  8  1  0
  4  5  1  0
  5 47  1  0
  6  3  1  0
  6  7  1  1
  8 17  1  0
  9 17  1  0
 10 15  1  0
 11 12  1  0
 11 10  1  0
 13 12  1  0
 13 22  1  0
 13 14  1  0
 15  9  1  0
 15 14  1  0
 16  9  2  0
 17 18  1  0
 19 20  2  0
 20 39  1  0
 21 20  1  0
 21 24  1  0
 22 19  1  0
 22 23  1  0
 23 21  2  0
 24 25  1  0
 25 26  2  0
 27 30  1  0
 27 26  1  0
 28 27  2  0
 29 28  1  0
 29 24  2  0
 30 31  1  0
 31 32  1  0
 32 33  2  0
 34 33  1  0
 34 38  1  0
 35 34  2  0
 36 31  2  0
 36 35  1  0
 37 36  1  0
 39 40  1  0
 40 43  1  0
 40 42  1  0
 41 39  2  0
 44 45  1  0
 44 19  1  0
 46 44  1  0
 47 48  1  0
 48 49  1  0
 48 50  1  0
 48 51  1  0
 52  6  1  0
 53 52  2  0
 54 53  1  0
 55 66  2  0
 56 54  1  0
 56 61  1  0
 57 65  1  0
 57 67  1  0
 58 64  1  0
 58 60  1  0
 59 65  1  0
 60 59  1  0
 61 60  2  0
 62 63  1  0
 62 56  2  0
 63 58  2  0
 64 57  1  0
 65 55  1  0
 67 69  2  0
 68 67  1  0
 70 68  1  0
 71 80  2  0
 71 76  1  0
 72 68  1  0
 72 76  1  0
 73 72  1  0
 74 75  1  0
 74 73  1  0
 75 71  1  0
 76 77  2  0
 77 78  1  0
 79 78  2  0
 80 79  1  0
 81 55  1  0
 81 82  1  0
 81 91  1  0
 82 85  1  0
 83 87  1  0
 83 82  1  0
 84 83  2  0
 87 86  1  0
 89 87  1  0
 89 90  1  0
 89 88  1  0
 91 94  1  1
 91 92  1  0
 93 91  1  0
M  ISO  4   9 100  17 100  53 101  54 101
M  END
>  <TORSDO>  (36) 
F 21

>  <SCORE>  (36) 
-13.713

>  <name>  (36) 
35

>  <ligand_id>  (36) 
35

>  <original_smiles>  (36) 
[H]c1c([H])c([H])c2c(c1[H])C([H])([H])C([H])([H])C([H])([H])C2([H])N([H])C(=O)C1([H])N(C(=O)C([H])(N([H])C(=O)C([H])(N([H])C([H])([H])[H])C([H])([H])[H])C(C([H])([H])[H])(C([H])([H])[H])C([H])([H])[H])C([H])([H])c2c([H])c(OC([H])([H])C([H])([H])[N+]3([H])C([H])([H])C([H])([H])C([H])(C([H])([H])N([H])C(=O)N4C([H])([H])C([H])([H])C([H])([H])C([H])(n5nc(-c6c([H])c([H])c(Oc7c([H])c([H])c(F)c([H])c7F)c([H])c6[H])c(C(=O)N([H])[H])c5N([H])[H])C4([H])[H])C([H])(C([H])([H])[N+]([H])([H])[H])C3([H])[H])c([H])c([H])c2C1([H])[H]

>  <smiles>  (36) 
[H]c1c([H])c([H])c2c(c1[H])C([H])([H])C([H])([H])C([H])([H])C2([H])N([H])C(=O)C1([H])N(C(=O)C([H])(N([H])C(=O)C([H])(N([H])C([H])([H])[H])C([H])([H])[H])C(C([H])([H])[H])(C([H])([H])[H])C([H])([H])[H])C([H])([H])c2c([H])c(OC([H])([H])C([H])([H])[N+]3([H])C([H])([H])C([H])([H])C([H])(C([H])([H])N([H])C(=O)N4C([H])([H])C([H])([H])C([H])([H])C([H])(n5nc(-c6c([H])c([H])c(Oc7c([H])c([H])c(F)c([H])c7F)c([H])c6[H])c(C(=O)N([H])[H])c5N([H])[H])C4([H])[H])C([H])(C([H])([H])[N+]([H])([H])[H])C3([H])[H])c([H])c([H])c2C1([H])[H]

$$$$
36:0:0
     RDKit          3D

 92101  0  0  1  0  0  0  0  0999 V2000
  -30.5850  -17.9170   21.8990 C   0  0  0  0  0  2  0  0  0  0  0  0
  -29.8350  -19.2720   21.8320 C   0  0  0  0  0  2  0  0  0  0  0  0
  -28.2940  -20.4700   20.1150 C   0  0  0  0  0  2  0  0  0  0  0  0
  -30.7290  -20.4880   19.7280 C   0  0  0  0  0  2  0  0  0  0  0  0
  -29.5080  -18.1790   19.7400 C   0  0  0  0  0  2  0  0  0  0  0  0
  -28.3570  -21.9730   20.5590 C   0  0  0  0  0  2  0  0  0  0  0  0
  -30.7580  -21.9870   20.1800 C   0  0  0  0  0  2  0  0  0  0  0  0
  -30.4750  -17.2300   20.5190 C   0  0  0  0  0  3  0  0  0  0  0  0
  -29.5890  -19.6280   20.3490 C   0  0  1  0  0  0  0  0  0  0  0  0
  -29.4820  -22.7330   19.9360 N   0  0  2  0  0  4  0  0  0  0  0  0
  -29.3350  -22.7100   18.9380 H   0  0  0  0  0  0  0  0  0  0  0  0
  -30.7880  -14.6880   20.2130 C   0  0  0  0  0  0  0  0  0  0  0  0
  -30.4690  -12.5030   19.0860 C   0  0  0  0  0  2  0  0  0  0  0  0
  -29.4900  -12.6820   17.9060 C   0  0  0  0  0  2  0  0  0  0  0  0
  -28.0320  -12.5320   18.3810 C   0  0  0  0  0  2  0  0  0  0  0  0
  -27.7270  -13.3700   19.6510 C   0  0  0  0  0  3  0  0  0  0  0  0
  -28.8190  -13.1820   20.7280 C   0  0  0  0  0  2  0  0  0  0  0  0
  -30.1140  -13.5020   20.1130 N   0  0  0  0  0  0  0  0  0  0  0  0
  -31.9420  -14.8090   19.7950 O   0  0  0  0  0  0  0  0  0  0  0  0
  -30.0660  -15.7840   20.5940 N   0  0  0  0  0  0  0  0  0  0  0  0
  -29.1210  -15.5980   20.8930 H   0  0  0  0  0  0  0  0  0  0  0  0
  -25.3600  -13.9740   20.4480 C   0  0  0  0  0  0  0  0  0  0  0  0
  -24.3000  -13.2010   20.8380 C   0  0  0  0  0  0  0  0  0  0  0  0
  -24.7540  -11.8470   20.7740 C   0  0  0  0  0  0  0  0  0  0  0  0
  -26.3920  -13.0900   20.1720 N   0  0  0  0  0  0  0  0  0  0  0  0
  -26.0340  -11.8060   20.4290 N   0  0  0  0  0  0  0  0  0  0  0  0
  -24.0260  -10.5860   20.9650 C   0  0  0  0  0  0  0  0  0  0  0  0
  -24.4490   -9.6240   21.9070 C   0  0  0  0  0  3  0  0  0  0  0  0
  -23.7210   -8.4270   22.0850 C   0  0  0  0  0  3  0  0  0  0  0  0
  -22.5550   -8.1860   21.3200 C   0  0  0  0  0  0  0  0  0  0  0  0
  -22.1520   -9.1370   20.3660 C   0  0  0  0  0  3  0  0  0  0  0  0
  -22.8810  -10.3240   20.1860 C   0  0  0  0  0  3  0  0  0  0  0  0
  -21.7970   -7.0430   21.4080 O   0  0  0  0  0  0  0  0  0  0  0  0
  -21.6950   -6.3360   22.5790 C   0  0  0  0  0  0  0  0  0  0  0  0
  -21.1540   -6.9080   23.7510 C   0  0  0  0  0  3  0  0  0  0  0  0
  -21.0030   -6.1240   24.9120 C   0  0  0  0  0  3  0  0  0  0  0  0
  -21.3830   -4.7680   24.9020 C   0  0  0  0  0  0  0  0  0  0  0  0
  -21.9170   -4.1960   23.7340 C   0  0  0  0  0  3  0  0  0  0  0  0
  -22.0690   -4.9770   22.5750 C   0  0  0  0  0  0  0  0  0  0  0  0
  -22.5640   -4.4130   21.4460 F   0  0  0  0  0  0  0  0  0  0  0  0
  -21.2320   -4.0130   26.0150 F   0  0  0  0  0  0  0  0  0  0  0  0
  -22.9140  -13.6810   21.1550 C   0  0  0  0  0  0  0  0  0  0  0  0
  -22.2070  -12.9740   22.0300 N   0  0  0  0  0  0  0  0  0  0  0  0
  -22.4670  -14.7150   20.6620 O   0  0  0  0  0  0  0  0  0  0  0  0
  -22.5830  -12.1370   22.4510 H   0  0  0  0  0  0  0  0  0  0  0  0
  -21.2770  -13.2750   22.2850 H   0  0  0  0  0  0  0  0  0  0  0  0
  -25.5280  -15.3460   20.2820 N   0  0  0  0  0  0  0  0  0  0  0  0
  -24.7640  -16.0010   20.4070 H   0  0  0  0  0  0  0  0  0  0  0  0
  -26.3640  -15.7790   19.9120 H   0  0  0  0  0  0  0  0  0  0  0  0
  -29.5810  -24.2040   20.3290 C   0  0  0  0  0  3  0  0  0  0  0  0
  -28.4090  -25.1680   19.8940 C   0  0  0  0  0  3  0  0  0  0  0  0
  -28.5520  -26.5910   20.2480 O   0  0  0  0  0  0  0  0  0  0  0  0
  -24.6540  -31.8270   23.2780 C   0  0  0  0  0  0  0  0  0  0  0  0
  -27.4140  -27.4020   20.1790 C   0  0  0  0  0  0  0  0  0  0  0  0
  -23.5200  -30.4650   21.5580 C   0  0  0  0  0  3  0  0  0  0  0  0
  -25.0330  -28.9750   20.1410 C   0  0  0  0  0  0  0  0  0  0  0  0
  -26.0600  -30.8140   21.4770 C   0  0  0  0  0  2  0  0  0  0  0  0
  -26.1740  -29.4590   20.7910 C   0  0  0  0  0  0  0  0  0  0  0  0
  -27.3690  -28.6840   20.8040 C   0  0  0  0  0  3  0  0  0  0  0  0
  -26.2490  -26.9650   19.5050 C   0  0  0  0  0  3  0  0  0  0  0  0
  -25.0710  -27.7310   19.4930 C   0  0  0  0  0  3  0  0  0  0  0  0
  -23.7880  -29.8330   20.1690 C   0  0  0  0  0  2  0  0  0  0  0  0
  -24.7610  -31.0510   22.1610 N   0  0  0  0  0  0  0  0  0  0  0  0
  -23.5520  -32.0800   23.7830 O   0  0  0  0  0  0  0  0  0  0  0  0
  -22.8380  -29.4140   22.4650 C   0  0  0  0  0  0  0  0  0  0  0  0
  -21.5150  -29.2450   22.3030 N   0  0  0  0  0  0  0  0  0  0  0  0
  -23.4990  -28.7580   23.2750 O   0  0  0  0  0  0  0  0  0  0  0  0
  -21.0460  -29.8280   21.6260 H   0  0  0  0  0  0  0  0  0  0  0  0
  -18.1160  -28.0830   22.7220 C   0  0  0  0  0  0  0  0  0  0  0  0
  -20.6760  -28.2850   23.0210 C   0  0  0  0  0  3  0  0  0  0  0  0
  -20.7600  -26.8820   22.3780 C   0  0  0  0  0  2  0  0  0  0  0  0
  -19.6580  -26.6270   21.3440 C   0  0  0  0  0  2  0  0  0  0  0  0
  -18.2740  -26.7650   21.9840 C   0  0  0  0  0  2  0  0  0  0  0  0
  -19.2450  -28.8050   23.1960 C   0  0  0  0  0  0  0  0  0  0  0  0
  -19.0430  -30.0410   23.8460 C   0  0  0  0  0  3  0  0  0  0  0  0
  -17.7460  -30.5570   24.0280 C   0  0  0  0  0  3  0  0  0  0  0  0
  -16.6320  -29.8310   23.5710 C   0  0  0  0  0  3  0  0  0  0  0  0
  -16.8170  -28.5970   22.9260 C   0  0  0  0  0  3  0  0  0  0  0  0
  -25.9120  -32.4520   23.9590 C   0  0  0  0  0  3  0  0  0  0  0  0
  -25.5970  -33.8540   24.2630 N   0  0  0  0  0  0  0  0  0  0  0  0
  -25.9350  -34.8950   23.4890 C   0  0  0  0  0  0  0  0  0  0  0  0
  -26.6120  -34.7750   22.4640 O   0  0  0  0  0  0  0  0  0  0  0  0
  -24.9960  -34.0210   25.0560 H   0  0  0  0  0  0  0  0  0  0  0  0
  -24.1890  -36.6680   23.1150 C   0  0  0  0  0  1  0  0  0  0  0  0
  -25.4420  -36.2900   23.9210 C   0  0  0  0  0  3  0  0  0  0  0  0
  -27.5710  -37.2190   24.7190 C   0  0  0  0  0  1  0  0  0  0  0  0
  -26.4670  -37.3480   23.7720 N   0  0  0  0  0  0  0  0  0  0  0  0
  -26.0540  -38.2690   23.8920 H   0  0  0  0  0  0  0  0  0  0  0  0
  -26.3560  -31.6870   25.2650 C   0  0  1  0  0  0  0  0  0  0  0  0
  -25.2080  -31.4610   26.2760 C   0  0  0  0  0  1  0  0  0  0  0  0
  -26.9510  -30.3030   24.9140 C   0  0  0  0  0  1  0  0  0  0  0  0
  -27.4750  -32.4800   25.9820 C   0  0  0  0  0  1  0  0  0  0  0  0
  2  1  1  0
  9  3  1  1
  3  6  1  0
  4  7  1  0
  5  9  1  0
  5  8  1  0
  8 20  1  0
  8  1  1  0
  9  4  1  0
  9  2  1  0
 10  7  1  0
 10 50  1  0
 10  6  1  0
 10 11  1  6
 12 20  1  0
 13 18  1  0
 14 15  1  0
 14 13  1  0
 16 15  1  0
 16 25  1  0
 16 17  1  0
 18 12  1  0
 18 17  1  0
 19 12  2  0
 20 21  1  0
 22 23  2  0
 23 42  1  0
 24 23  1  0
 24 27  1  0
 25 26  1  0
 25 22  1  0
 26 24  2  0
 27 28  1  0
 28 29  2  0
 30 33  1  0
 30 29  1  0
 31 30  2  0
 32 31  1  0
 32 27  2  0
 33 34  1  0
 34 35  1  0
 35 36  2  0
 37 36  1  0
 37 41  1  0
 38 37  2  0
 39 34  2  0
 39 38  1  0
 40 39  1  0
 42 43  1  0
 43 46  1  0
 43 45  1  0
 44 42  2  0
 47 48  1  0
 47 22  1  0
 49 47  1  0
 51 52  1  0
 51 50  2  0
 53 64  2  0
 54 52  1  0
 54 59  1  0
 55 63  1  0
 55 65  1  0
 56 62  1  0
 56 58  1  0
 57 63  1  0
 58 59  2  0
 58 57  1  0
 60 54  2  0
 61 60  1  0
 61 56  2  0
 62 55  1  0
 63 53  1  0
 65 67  2  0
 66 65  1  0
 68 66  1  0
 69 78  2  0
 69 74  1  0
 70 66  1  0
 70 74  1  0
 71 70  1  0
 72 73  1  0
 72 71  1  0
 73 69  1  0
 74 75  2  0
 75 76  1  0
 77 76  2  0
 78 77  1  0
 79 53  1  0
 79 80  1  0
 79 89  1  0
 80 83  1  0
 81 85  1  0
 81 80  1  0
 82 81  2  0
 85 84  1  0
 87 88  1  0
 87 85  1  0
 87 86  1  0
 89 92  1  1
 89 90  1  0
 91 89  1  0
M  ISO  4  12 100  20 100  51 101  52 101
M  END
>  <TORSDO>  (37) 
F 18

>  <SCORE>  (37) 
-14.179

>  <name>  (37) 
36

>  <ligand_id>  (37) 
36

>  <original_smiles>  (37) 
[H]c1c([H])c([H])c2c(c1[H])C([H])([H])C([H])([H])C([H])([H])C2([H])N([H])C(=O)C1([H])N(C(=O)C([H])(N([H])C(=O)C([H])(N([H])C([H])([H])[H])C([H])([H])[H])C(C([H])([H])[H])(C([H])([H])[H])C([H])([H])[H])C([H])([H])c2c([H])c(OC([H])([H])C([H])([H])[N+]3([H])C([H])([H])C([H])([H])C4(C([H])([H])C([H])([H])C([H])(N([H])C(=O)N5C([H])([H])C([H])([H])C([H])([H])C([H])(n6nc(-c7c([H])c([H])c(Oc8c([H])c([H])c(F)c([H])c8F)c([H])c7[H])c(C(=O)N([H])[H])c6N([H])[H])C5([H])[H])C4([H])[H])C([H])([H])C3([H])[H])c([H])c([H])c2C1([H])[H]

>  <smiles>  (37) 
[H]c1c([H])c([H])c2c(c1[H])C([H])([H])C([H])([H])C([H])([H])C2([H])N([H])C(=O)C1([H])N(C(=O)C([H])(N([H])C(=O)C([H])(N([H])C([H])([H])[H])C([H])([H])[H])C(C([H])([H])[H])(C([H])([H])[H])C([H])([H])[H])C([H])([H])c2c([H])c(OC([H])([H])C([H])([H])[N+]3([H])C([H])([H])C([H])([H])C4(C([H])([H])C([H])([H])C([H])(N([H])C(=O)N5C([H])([H])C([H])([H])C([H])([H])C([H])(n6nc(-c7c([H])c([H])c(Oc8c([H])c([H])c(F)c([H])c8F)c([H])c7[H])c(C(=O)N([H])[H])c6N([H])[H])C5([H])[H])C4([H])[H])C([H])([H])C3([H])[H])c([H])c([H])c2C1([H])[H]

$$$$
37:0:0
     RDKit          3D

 93101  0  0  1  0  0  0  0  0999 V2000
  -29.1560  -22.2840   21.2020 C   0  0  0  0  0  3  0  0  0  0  0  0
  -29.5950  -20.8330   21.2150 C   0  0  0  0  0  0  0  0  0  0  0  0
  -28.6050  -22.8930   20.0610 C   0  0  0  0  0  0  0  0  0  0  0  0
  -29.4600  -20.0300   20.0670 C   0  0  0  0  0  0  0  0  0  0  0  0
  -30.2050  -20.2520   22.4550 C   0  0  0  0  0  1  0  0  0  0  0  0
  -28.6700  -21.3560   18.9710 S   0  0  0  0  0  0  0  0  0  0  0  0
  -27.7360  -24.3990   19.8030 C   0  0  0  0  0  2  0  0  0  0  0  0
  -28.0810  -25.9910   20.0590 O   0  0  0  0  0  0  0  0  0  0  0  0
  -24.6220  -31.9750   23.1390 C   0  0  0  0  0  0  0  0  0  0  0  0
  -27.0920  -27.1170   20.0020 C   0  0  0  0  0  0  0  0  0  0  0  0
  -23.3750  -30.5740   21.5440 C   0  0  0  0  0  3  0  0  0  0  0  0
  -24.7810  -28.9900   20.0550 C   0  0  0  0  0  0  0  0  0  0  0  0
  -25.9350  -30.8040   21.2980 C   0  0  0  0  0  2  0  0  0  0  0  0
  -25.9890  -29.3950   20.6350 C   0  0  0  0  0  0  0  0  0  0  0  0
  -27.1360  -28.4780   20.5910 C   0  0  0  0  0  3  0  0  0  0  0  0
  -25.8540  -26.8790   19.3600 C   0  0  0  0  0  3  0  0  0  0  0  0
  -24.7380  -27.7530   19.3970 C   0  0  0  0  0  3  0  0  0  0  0  0
  -23.5550  -29.8990   20.1570 C   0  0  0  0  0  2  0  0  0  0  0  0
  -24.6670  -31.1450   22.0460 N   0  0  0  0  0  0  0  0  0  0  0  0
  -23.5510  -32.2530   23.7030 O   0  0  0  0  0  0  0  0  0  0  0  0
  -22.7270  -29.5700   22.5350 C   0  0  0  0  0  0  0  0  0  0  0  0
  -21.4110  -29.3240   22.4030 N   0  0  0  0  0  0  0  0  0  0  0  0
  -23.4190  -29.0120   23.3910 O   0  0  0  0  0  0  0  0  0  0  0  0
  -20.9030  -29.8260   21.6890 H   0  0  0  0  0  0  0  0  0  0  0  0
  -18.1170  -27.8700   22.8610 C   0  0  0  0  0  0  0  0  0  0  0  0
  -20.6350  -28.3640   23.1970 C   0  0  0  0  0  3  0  0  0  0  0  0
  -20.8750  -26.9150   22.7070 C   0  0  0  0  0  2  0  0  0  0  0  0
  -19.8420  -26.4480   21.6760 C   0  0  0  0  0  2  0  0  0  0  0  0
  -18.4300  -26.5090   22.2630 C   0  0  0  0  0  2  0  0  0  0  0  0
  -19.1530  -28.7470   23.2850 C   0  0  0  0  0  0  0  0  0  0  0  0
  -18.8050  -30.0120   23.8070 C   0  0  0  0  0  3  0  0  0  0  0  0
  -17.4570  -30.4050   23.9050 C   0  0  0  0  0  3  0  0  0  0  0  0
  -16.4370  -29.5290   23.4960 C   0  0  0  0  0  3  0  0  0  0  0  0
  -16.7680  -28.2630   22.9810 C   0  0  0  0  0  3  0  0  0  0  0  0
  -25.9110  -32.6280   23.7220 C   0  0  0  0  0  3  0  0  0  0  0  0
  -25.5840  -34.0110   24.1140 N   0  0  0  0  0  0  0  0  0  0  0  0
  -25.8740  -35.1020   23.3940 C   0  0  0  0  0  0  0  0  0  0  0  0
  -26.5100  -35.0530   22.3380 O   0  0  0  0  0  0  0  0  0  0  0  0
  -25.0140  -34.1220   24.9400 H   0  0  0  0  0  0  0  0  0  0  0  0
  -24.1320  -36.9050   23.1580 C   0  0  0  0  0  1  0  0  0  0  0  0
  -25.3870  -36.4660   23.9290 C   0  0  0  0  0  3  0  0  0  0  0  0
  -27.5150  -37.3380   24.7910 C   0  0  0  0  0  1  0  0  0  0  0  0
  -26.4120  -37.5310   23.8550 N   0  0  0  0  0  0  0  0  0  0  0  0
  -25.9980  -38.4410   24.0350 H   0  0  0  0  0  0  0  0  0  0  0  0
  -26.4990  -31.8400   24.9580 C   0  0  1  0  0  0  0  0  0  0  0  0
  -25.4480  -31.5120   26.0450 C   0  0  0  0  0  1  0  0  0  0  0  0
  -27.1390  -30.5070   24.5100 C   0  0  0  0  0  1  0  0  0  0  0  0
  -27.6270  -32.6670   25.6170 C   0  0  0  0  0  1  0  0  0  0  0  0
  -30.1240  -18.4430   19.6500 C   0  0  0  0  0  0  0  0  0  0  0  0
  -30.5290  -15.5470   19.9410 C   0  0  0  0  0  0  0  0  0  0  0  0
  -30.5180  -13.0660   19.1680 C   0  0  0  0  0  2  0  0  0  0  0  0
  -29.5710  -12.7810   17.9750 C   0  0  0  0  0  2  0  0  0  0  0  0
  -28.1450  -12.4910   18.4730 C   0  0  0  0  0  2  0  0  0  0  0  0
  -27.7000  -13.4920   19.5670 C   0  0  0  0  0  3  0  0  0  0  0  0
  -28.7760  -13.7270   20.6500 C   0  0  0  0  0  2  0  0  0  0  0  0
  -29.9720  -14.2340   19.9580 N   0  0  0  0  0  0  0  0  0  0  0  0
  -31.7410  -15.5350   19.6790 O   0  0  0  0  0  0  0  0  0  0  0  0
  -29.7800  -16.8380   19.9930 N   0  0  0  0  0  4  0  0  0  0  0  0
  -28.8050  -16.6910   20.2090 H   0  0  0  0  0  0  0  0  0  0  0  0
  -25.3730  -14.0310   20.4500 C   0  0  0  0  0  0  0  0  0  0  0  0
  -24.3260  -13.2450   20.8410 C   0  0  0  0  0  0  0  0  0  0  0  0
  -24.7840  -11.8950   20.7450 C   0  0  0  0  0  0  0  0  0  0  0  0
  -26.3990  -13.1610   20.1290 N   0  0  0  0  0  0  0  0  0  0  0  0
  -26.0610  -11.8680   20.3740 N   0  0  0  0  0  0  0  0  0  0  0  0
  -24.0600  -10.6290   20.9240 C   0  0  0  0  0  0  0  0  0  0  0  0
  -24.4410   -9.6900   21.9070 C   0  0  0  0  0  3  0  0  0  0  0  0
  -23.7130   -8.4930   22.0740 C   0  0  0  0  0  3  0  0  0  0  0  0
  -22.5890   -8.2250   21.2560 C   0  0  0  0  0  0  0  0  0  0  0  0
  -22.2270   -9.1520   20.2640 C   0  0  0  0  0  3  0  0  0  0  0  0
  -22.9560  -10.3410   20.0960 C   0  0  0  0  0  3  0  0  0  0  0  0
  -21.8380   -7.0770   21.3300 O   0  0  0  0  0  0  0  0  0  0  0  0
  -21.6170   -6.4360   22.5230 C   0  0  0  0  0  0  0  0  0  0  0  0
  -20.9070   -7.0490   23.5780 C   0  0  0  0  0  3  0  0  0  0  0  0
  -20.6420   -6.3290   24.7600 C   0  0  0  0  0  3  0  0  0  0  0  0
  -21.0770   -4.9970   24.8870 C   0  0  0  0  0  0  0  0  0  0  0  0
  -21.7810   -4.3830   23.8360 C   0  0  0  0  0  3  0  0  0  0  0  0
  -22.0460   -5.1000   22.6560 C   0  0  0  0  0  0  0  0  0  0  0  0
  -22.7060   -4.4960   21.6380 F   0  0  0  0  0  0  0  0  0  0  0  0
  -20.8160   -4.3030   26.0190 F   0  0  0  0  0  0  0  0  0  0  0  0
  -22.9430  -13.7170   21.1860 C   0  0  0  0  0  0  0  0  0  0  0  0
  -22.2550  -13.0070   22.0710 N   0  0  0  0  0  0  0  0  0  0  0  0
  -22.4860  -14.7530   20.7040 O   0  0  0  0  0  0  0  0  0  0  0  0
  -22.6400  -12.1670   22.4790 H   0  0  0  0  0  0  0  0  0  0  0  0
  -21.3310  -13.3060   22.3460 H   0  0  0  0  0  0  0  0  0  0  0  0
  -25.5320  -15.4060   20.3100 N   0  0  0  0  0  0  0  0  0  0  0  0
  -24.7680  -16.0550   20.4690 H   0  0  0  0  0  0  0  0  0  0  0  0
  -26.3540  -15.8510   19.9250 H   0  0  0  0  0  0  0  0  0  0  0  0
  -30.5350  -18.4830   18.1550 C   0  0  0  0  0  2  0  0  0  0  0  0
  -31.7790  -19.3430   17.8210 C   0  0  0  0  0  2  0  0  0  0  0  0
  -33.0550  -18.7060   18.2030 N   0  0  0  0  0  4  0  0  0  0  0  0
  -33.1200  -18.5630   19.1940 H   0  0  0  0  0  0  0  0  0  0  0  0
  -33.8190  -19.2980   17.9310 H   0  0  0  0  0  0  0  0  0  0  0  0
  -33.1720  -17.8230   17.7380 H   0  0  0  0  0  0  0  0  0  0  0  0
  1  2  1  0
  2  5  1  0
  3  1  2  0
  4  2  2  0
  6  3  1  0
  6  4  1  0
  7  8  1  0
  7  3  1  0
  9 20  2  0
 10  8  1  0
 10 15  1  0
 11 19  1  0
 11 21  1  0
 12 18  1  0
 12 14  1  0
 13 19  1  0
 14 13  1  0
 15 14  2  0
 16 17  1  0
 16 10  2  0
 17 12  2  0
 18 11  1  0
 19  9  1  0
 21 23  2  0
 22 21  1  0
 24 22  1  0
 25 34  2  0
 25 30  1  0
 26 22  1  0
 26 30  1  0
 27 26  1  0
 28 29  1  0
 28 27  1  0
 29 25  1  0
 30 31  2  0
 31 32  1  0
 33 32  2  0
 34 33  1  0
 35  9  1  0
 35 36  1  0
 35 45  1  0
 36 39  1  0
 37 41  1  0
 37 36  1  0
 38 37  2  0
 41 40  1  0
 43 41  1  0
 43 44  1  0
 43 42  1  0
 45 48  1  1
 45 46  1  0
 47 45  1  0
 49 58  2  0
 49  4  1  0
 50 56  1  0
 50 58  1  0
 51 56  1  0
 52 53  1  0
 52 51  1  0
 54 53  1  0
 54 63  1  0
 54 55  1  0
 56 55  1  0
 57 50  2  0
 58 59  1  0
 60 61  2  0
 61 80  1  0
 62 61  1  0
 62 65  1  0
 63 64  1  0
 63 60  1  0
 64 62  2  0
 65 66  1  0
 66 67  2  0
 68 71  1  0
 68 67  1  0
 69 68  2  0
 70 69  1  0
 70 65  2  0
 71 72  1  0
 72 77  2  0
 72 73  1  0
 73 74  2  0
 74 75  1  0
 75 79  1  0
 76 75  2  0
 77 76  1  0
 78 77  1  0
 80 81  1  0
 81 84  1  0
 81 83  1  0
 82 80  2  0
 85 60  1  0
 85 86  1  0
 87 85  1  0
 88 49  1  0
 89 88  1  0
 89 90  1  0
 90 91  1  0
 92 90  1  0
 93 90  1  0
M  ISO  4   7 101   8 101  50 100  58 100
M  END
>  <TORSDO>  (38) 
F 21

>  <SCORE>  (38) 
-14.618

>  <name>  (38) 
37

>  <ligand_id>  (38) 
37

>  <original_smiles>  (38) 
[H]c1c([H])c([H])c2c(c1[H])C([H])([H])C([H])([H])C([H])([H])C2([H])N([H])C(=O)C1([H])N(C(=O)C([H])(N([H])C(=O)C([H])(N([H])C([H])([H])[H])C([H])([H])[H])C(C([H])([H])[H])(C([H])([H])[H])C([H])([H])[H])C([H])([H])c2c([H])c(OC([H])([H])c3sc(C([H])(N([H])C(=O)N4C([H])([H])C([H])([H])C([H])([H])C([H])(n5nc(-c6c([H])c([H])c(Oc7c([H])c([H])c(F)c([H])c7F)c([H])c6[H])c(C(=O)N([H])[H])c5N([H])[H])C4([H])[H])C([H])([H])C([H])([H])[N+]([H])([H])[H])c(C([H])([H])[H])c3[H])c([H])c([H])c2C1([H])[H]

>  <smiles>  (38) 
[H]c1c([H])c([H])c2c(c1[H])C([H])([H])C([H])([H])C([H])([H])C2([H])N([H])C(=O)C1([H])N(C(=O)C([H])(N([H])C(=O)C([H])(N([H])C([H])([H])[H])C([H])([H])[H])C(C([H])([H])[H])(C([H])([H])[H])C([H])([H])[H])C([H])([H])c2c([H])c(OC([H])([H])c3sc(C([H])(N([H])C(=O)N4C([H])([H])C([H])([H])C([H])([H])C([H])(n5nc(-c6c([H])c([H])c(Oc7c([H])c([H])c(F)c([H])c7F)c([H])c6[H])c(C(=O)N([H])[H])c5N([H])[H])C4([H])[H])C([H])([H])C([H])([H])[N+]([H])([H])[H])c(C([H])([H])[H])c3[H])c([H])c([H])c2C1([H])[H]

$$$$
38:0:0
     RDKit          3D

 89 98  0  0  1  0  0  0  0  0999 V2000
  -27.6440  -21.1130   20.6390 C   0  0  0  0  0  2  0  0  0  0  0  0
  -27.3740  -22.4380   20.4820 C   0  0  0  0  0  2  0  0  0  0  0  0
  -29.0140  -20.9500   18.6250 C   0  0  0  0  0  2  0  0  0  0  0  0
  -28.6780  -22.4830   18.4330 C   0  0  0  0  0  2  0  0  0  0  0  0
  -29.6720  -22.1990   20.4840 C   0  0  0  0  0  2  0  0  0  0  0  0
  -29.0500  -20.7270   20.1500 C   0  0  1  0  0  0  0  0  0  0  0  0
  -28.5470  -23.1690   19.8420 C   0  0  2  0  0  0  0  0  0  0  0  0
  -29.6150  -19.2050   20.7120 C   0  0  0  0  0  2  0  0  0  0  0  0
  -29.8540  -17.7420   19.8810 C   0  0  0  0  0  2  0  0  0  0  0  0
  -30.6040  -15.0770   20.2590 C   0  0  0  0  0  0  0  0  0  0  0  0
  -30.5020  -12.7130   19.3430 C   0  0  0  0  0  2  0  0  0  0  0  0
  -29.5730  -12.6750   18.1050 C   0  0  0  0  0  2  0  0  0  0  0  0
  -28.1100  -12.4570   18.5350 C   0  0  0  0  0  2  0  0  0  0  0  0
  -27.6990  -13.3720   19.7180 C   0  0  0  0  0  3  0  0  0  0  0  0
  -28.7530  -13.3840   20.8470 C   0  0  0  0  0  2  0  0  0  0  0  0
  -30.0260  -13.8040   20.2460 N   0  0  0  0  0  0  0  0  0  0  0  0
  -31.7840  -15.1550   19.9010 O   0  0  0  0  0  0  0  0  0  0  0  0
  -29.8180  -16.2540   20.4610 N   0  0  0  0  0  0  0  0  0  0  0  0
  -28.9130  -16.0190   20.8410 H   0  0  0  0  0  0  0  0  0  0  0  0
  -25.3130  -13.9380   20.4480 C   0  0  0  0  0  0  0  0  0  0  0  0
  -24.2520  -13.1580   20.8170 C   0  0  0  0  0  0  0  0  0  0  0  0
  -24.7240  -11.8100   20.7900 C   0  0  0  0  0  0  0  0  0  0  0  0
  -26.3610  -13.0670   20.2110 N   0  0  0  0  0  0  0  0  0  0  0  0
  -26.0160  -11.7810   20.4820 N   0  0  0  0  0  0  0  0  0  0  0  0
  -24.0040  -10.5440   20.9820 C   0  0  0  0  0  0  0  0  0  0  0  0
  -24.4260   -9.5890   21.9320 C   0  0  0  0  0  3  0  0  0  0  0  0
  -23.7050   -8.3890   22.1110 C   0  0  0  0  0  3  0  0  0  0  0  0
  -22.5450   -8.1360   21.3390 C   0  0  0  0  0  0  0  0  0  0  0  0
  -22.1420   -9.0790   20.3790 C   0  0  0  0  0  3  0  0  0  0  0  0
  -22.8650  -10.2710   20.1990 C   0  0  0  0  0  3  0  0  0  0  0  0
  -21.7980   -6.9870   21.4260 O   0  0  0  0  0  0  0  0  0  0  0  0
  -21.7220   -6.2620   22.5880 C   0  0  0  0  0  0  0  0  0  0  0  0
  -21.2360   -6.8280   23.7870 C   0  0  0  0  0  3  0  0  0  0  0  0
  -21.1090   -6.0290   24.9420 C   0  0  0  0  0  3  0  0  0  0  0  0
  -21.4570   -4.6650   24.8980 C   0  0  0  0  0  0  0  0  0  0  0  0
  -21.9360   -4.0990   23.7020 C   0  0  0  0  0  3  0  0  0  0  0  0
  -22.0640   -4.8950   22.5500 C   0  0  0  0  0  0  0  0  0  0  0  0
  -22.5060   -4.3400   21.3960 F   0  0  0  0  0  0  0  0  0  0  0  0
  -21.3280   -3.8970   26.0030 F   0  0  0  0  0  0  0  0  0  0  0  0
  -22.8520  -13.6290   21.0820 C   0  0  0  0  0  0  0  0  0  0  0  0
  -22.1220  -12.9290   21.9430 N   0  0  0  0  0  0  0  0  0  0  0  0
  -22.4150  -14.6550   20.5620 O   0  0  0  0  0  0  0  0  0  0  0  0
  -22.4860  -12.0990   22.3870 H   0  0  0  0  0  0  0  0  0  0  0  0
  -21.1830  -13.2290   22.1630 H   0  0  0  0  0  0  0  0  0  0  0  0
  -25.4670  -15.3110   20.2700 N   0  0  0  0  0  0  0  0  0  0  0  0
  -24.6940  -15.9560   20.3810 H   0  0  0  0  0  0  0  0  0  0  0  0
  -26.3040  -15.7550   19.9130 H   0  0  0  0  0  0  0  0  0  0  0  0
  -28.4560  -24.8700   19.5580 C   0  0  0  0  0  2  0  0  0  0  0  0
  -28.2950  -26.2200   20.3290 O   0  0  0  0  0  0  0  0  0  0  0  0
  -24.6250  -31.9180   23.2260 C   0  0  0  0  0  0  0  0  0  0  0  0
  -27.2350  -27.1990   20.1950 C   0  0  0  0  0  0  0  0  0  0  0  0
  -23.4370  -30.5180   21.5820 C   0  0  0  0  0  3  0  0  0  0  0  0
  -24.8970  -28.9490   20.1560 C   0  0  0  0  0  0  0  0  0  0  0  0
  -25.9910  -30.7870   21.4310 C   0  0  0  0  0  2  0  0  0  0  0  0
  -26.0700  -29.3950   20.7740 C   0  0  0  0  0  0  0  0  0  0  0  0
  -27.2330  -28.5330   20.7830 C   0  0  0  0  0  3  0  0  0  0  0  0
  -26.0290  -26.8580   19.5400 C   0  0  0  0  0  3  0  0  0  0  0  0
  -24.8900  -27.6950   19.5250 C   0  0  0  0  0  3  0  0  0  0  0  0
  -23.6660  -29.8430   20.2030 C   0  0  0  0  0  2  0  0  0  0  0  0
  -24.7040  -31.0960   22.1360 N   0  0  0  0  0  0  0  0  0  0  0  0
  -23.5350  -32.1990   23.7510 O   0  0  0  0  0  0  0  0  0  0  0  0
  -22.7580  -29.5090   22.5420 C   0  0  0  0  0  0  0  0  0  0  0  0
  -21.4310  -29.3300   22.4090 N   0  0  0  0  0  0  0  0  0  0  0  0
  -23.4270  -28.8900   23.3720 O   0  0  0  0  0  0  0  0  0  0  0  0
  -20.9450  -29.8820   21.7160 H   0  0  0  0  0  0  0  0  0  0  0  0
  -18.0530  -28.1170   22.9020 C   0  0  0  0  0  0  0  0  0  0  0  0
  -20.6100  -28.3900   23.1780 C   0  0  0  0  0  3  0  0  0  0  0  0
  -20.7190  -26.9580   22.6040 C   0  0  0  0  0  2  0  0  0  0  0  0
  -19.6220  -26.6310   21.5860 C   0  0  0  0  0  2  0  0  0  0  0  0
  -18.2380  -26.7700   22.2250 C   0  0  0  0  0  2  0  0  0  0  0  0
  -19.1670  -28.8850   23.3350 C   0  0  0  0  0  0  0  0  0  0  0  0
  -18.9390  -30.1440   23.9310 C   0  0  0  0  0  3  0  0  0  0  0  0
  -17.6310  -30.6380   24.0960 C   0  0  0  0  0  3  0  0  0  0  0  0
  -16.5320  -29.8680   23.6780 C   0  0  0  0  0  3  0  0  0  0  0  0
  -16.7430  -28.6090   23.0860 C   0  0  0  0  0  3  0  0  0  0  0  0
  -25.8970  -32.5600   23.8590 C   0  0  0  0  0  3  0  0  0  0  0  0
  -26.3990  -31.8000   25.1480 C   0  0  1  0  0  0  0  0  0  0  0  0
  -25.2940  -31.5710   26.2070 C   0  0  0  0  0  1  0  0  0  0  0  0
  -26.9880  -30.4190   24.7810 C   0  0  0  0  0  1  0  0  0  0  0  0
  -27.5410  -32.6010   25.8170 C   0  0  0  0  0  1  0  0  0  0  0  0
  -25.5810  -33.9600   24.1820 N   0  0  0  0  0  0  0  0  0  0  0  0
  -25.9160  -35.0150   23.4280 C   0  0  0  0  0  0  0  0  0  0  0  0
  -26.5900  -34.9110   22.3990 O   0  0  0  0  0  0  0  0  0  0  0  0
  -24.9800  -34.1140   24.9790 H   0  0  0  0  0  0  0  0  0  0  0  0
  -24.1940  -36.8150   23.0620 C   0  0  0  0  0  1  0  0  0  0  0  0
  -25.4280  -36.4050   23.8830 C   0  0  0  0  0  3  0  0  0  0  0  0
  -27.5530  -37.2910   24.7370 C   0  0  0  0  0  1  0  0  0  0  0  0
  -26.4630  -37.4560   23.7800 N   0  0  0  0  0  0  0  0  0  0  0  0
  -26.0560  -38.3770   23.9170 H   0  0  0  0  0  0  0  0  0  0  0  0
  2  1  1  0
  3  6  1  0
  4  3  1  0
  4  7  1  0
  6  5  1  0
  6  1  1  0
  6  8  1  6
  7 48  1  6
  7  2  1  0
  7  5  1  0
  9 18  1  0
  9  8  1  0
 10 18  1  0
 11 16  1  0
 12 13  1  0
 12 11  1  0
 14 13  1  0
 14 23  1  0
 14 15  1  0
 16 10  1  0
 16 15  1  0
 17 10  2  0
 18 19  1  0
 20 21  2  0
 21 40  1  0
 22 21  1  0
 22 25  1  0
 23 20  1  0
 23 24  1  0
 24 22  2  0
 25 26  1  0
 26 27  2  0
 28 31  1  0
 28 27  1  0
 29 28  2  0
 30 29  1  0
 30 25  2  0
 31 32  1  0
 32 33  1  0
 33 34  2  0
 35 34  1  0
 35 39  1  0
 36 35  2  0
 37 32  2  0
 37 36  1  0
 38 37  1  0
 40 41  1  0
 41 44  1  0
 41 43  1  0
 42 40  2  0
 45 46  1  0
 45 20  1  0
 47 45  1  0
 48 49  1  0
 50 61  2  0
 51 49  1  0
 51 56  1  0
 52 60  1  0
 52 62  1  0
 53 59  1  0
 53 55  1  0
 54 60  1  0
 55 56  2  0
 55 54  1  0
 57 51  2  0
 58 57  1  0
 58 53  2  0
 59 52  1  0
 60 50  1  0
 62 64  2  0
 63 62  1  0
 65 63  1  0
 66 75  2  0
 66 71  1  0
 67 63  1  0
 67 71  1  0
 68 67  1  0
 69 70  1  0
 69 68  1  0
 70 66  1  0
 71 72  2  0
 72 73  1  0
 74 73  2  0
 75 74  1  0
 76 50  1  0
 76 81  1  0
 76 77  1  0
 77 80  1  1
 77 78  1  0
 79 77  1  0
 81 84  1  0
 82 86  1  0
 82 81  1  0
 83 82  2  0
 86 85  1  0
 88 86  1  0
 88 89  1  0
 88 87  1  0
M  ISO  4  10 100  18 100  48 101  49 101
M  END
>  <TORSDO>  (39) 
F 19

>  <SCORE>  (39) 
-15.696

>  <name>  (39) 
38

>  <ligand_id>  (39) 
38

>  <original_smiles>  (39) 
[H]C1=C([H])C2(C([H])([H])C([H])([H])N([H])C(=O)N3C([H])([H])C([H])([H])C([H])([H])C([H])(n4nc(-c5c([H])c([H])c(Oc6c([H])c([H])c(F)c([H])c6F)c([H])c5[H])c(C(=O)N([H])[H])c4N([H])[H])C3([H])[H])C([H])([H])C([H])([H])C1(C([H])([H])Oc1c([H])c([H])c3c(c1[H])C([H])([H])N(C(=O)C([H])(N([H])C(=O)C([H])(N([H])C([H])([H])[H])C([H])([H])[H])C(C([H])([H])[H])(C([H])([H])[H])C([H])([H])[H])C([H])(C(=O)N([H])C1([H])c4c([H])c([H])c([H])c([H])c4C([H])([H])C([H])([H])C1([H])[H])C3([H])[H])C2([H])[H]

>  <smiles>  (39) 
[H]C1=C([H])C2(C([H])([H])C([H])([H])N([H])C(=O)N3C([H])([H])C([H])([H])C([H])([H])C([H])(n4nc(-c5c([H])c([H])c(Oc6c([H])c([H])c(F)c([H])c6F)c([H])c5[H])c(C(=O)N([H])[H])c4N([H])[H])C3([H])[H])C([H])([H])C([H])([H])C1(C([H])([H])Oc1c([H])c([H])c3c(c1[H])C([H])([H])N(C(=O)C([H])(N([H])C(=O)C([H])(N([H])C([H])([H])[H])C([H])([H])[H])C(C([H])([H])[H])(C([H])([H])[H])C([H])([H])[H])C([H])(C(=O)N([H])C1([H])c4c([H])c([H])c([H])c([H])c4C([H])([H])C([H])([H])C1([H])[H])C3([H])[H])C2([H])[H]

$$$$
39:0:0
     RDKit          3D

 87 96  0  0  1  0  0  0  0  0999 V2000
  -28.5510  -22.0230   19.9710 C   0  0  0  0  0  3  0  0  0  0  0  0
  -29.5000  -20.7610   20.4160 C   0  0  0  0  0  3  0  0  0  0  0  0
  -30.6480  -14.7990   20.0270 C   0  0  0  0  0  0  0  0  0  0  0  0
  -30.3820  -12.5390   18.9730 C   0  0  0  0  0  2  0  0  0  0  0  0
  -29.3840  -12.6480   17.8020 C   0  0  0  0  0  2  0  0  0  0  0  0
  -27.9340  -12.4850   18.3030 C   0  0  0  0  0  2  0  0  0  0  0  0
  -27.6350  -13.3090   19.5870 C   0  0  0  0  0  3  0  0  0  0  0  0
  -28.7610  -13.1950   20.6330 C   0  0  0  0  0  2  0  0  0  0  0  0
  -30.0010  -13.5800   19.9590 N   0  0  0  0  0  0  0  0  0  0  0  0
  -31.8270  -14.8620   19.6650 O   0  0  0  0  0  0  0  0  0  0  0  0
  -29.4160  -18.3400   18.9340 C   0  0  0  0  0  2  0  0  0  0  0  0
  -29.2580  -16.5630   21.3130 C   0  0  0  0  0  2  0  0  0  0  0  0
  -29.8280  -17.9820   20.9860 C   0  0  0  0  0  3  0  0  0  0  0  0
  -29.0960  -19.1810   20.2130 C   0  0  0  0  0  3  0  0  0  0  0  0
  -30.3720  -17.3670   19.6990 C   0  0  0  0  0  3  0  0  0  0  0  0
  -29.9040  -15.9840   20.1110 N   0  0  0  0  0  0  0  0  0  0  0  0
  -25.2890  -13.8540   20.4530 C   0  0  0  0  0  0  0  0  0  0  0  0
  -24.2510  -13.0640   20.8590 C   0  0  0  0  0  0  0  0  0  0  0  0
  -24.7190  -11.7160   20.7730 C   0  0  0  0  0  0  0  0  0  0  0  0
  -26.3260  -12.9900   20.1440 N   0  0  0  0  0  0  0  0  0  0  0  0
  -25.9950  -11.6950   20.3990 N   0  0  0  0  0  0  0  0  0  0  0  0
  -24.0050  -10.4450   20.9720 C   0  0  0  0  0  0  0  0  0  0  0  0
  -24.4530   -9.4790   21.8980 C   0  0  0  0  0  3  0  0  0  0  0  0
  -23.7380   -8.2770   22.0850 C   0  0  0  0  0  3  0  0  0  0  0  0
  -22.5590   -8.0310   21.3440 C   0  0  0  0  0  0  0  0  0  0  0  0
  -22.1260   -8.9860   20.4070 C   0  0  0  0  0  3  0  0  0  0  0  0
  -22.8440  -10.1780   20.2200 C   0  0  0  0  0  3  0  0  0  0  0  0
  -21.8120   -6.8820   21.4420 O   0  0  0  0  0  0  0  0  0  0  0  0
  -21.7370   -6.1680   22.6110 C   0  0  0  0  0  0  0  0  0  0  0  0
  -21.2610   -6.7480   23.8070 C   0  0  0  0  0  3  0  0  0  0  0  0
  -21.1350   -5.9620   24.9690 C   0  0  0  0  0  3  0  0  0  0  0  0
  -21.4740   -4.5950   24.9370 C   0  0  0  0  0  0  0  0  0  0  0  0
  -21.9420   -4.0160   23.7450 C   0  0  0  0  0  3  0  0  0  0  0  0
  -22.0710   -4.7990   22.5850 C   0  0  0  0  0  0  0  0  0  0  0  0
  -22.5030   -4.2270   21.4350 F   0  0  0  0  0  0  0  0  0  0  0  0
  -21.3460   -3.8390   26.0520 F   0  0  0  0  0  0  0  0  0  0  0  0
  -22.8680  -13.5260   21.2180 C   0  0  0  0  0  0  0  0  0  0  0  0
  -22.1970  -12.8150   22.1140 N   0  0  0  0  0  0  0  0  0  0  0  0
  -22.3930  -14.5570   20.7430 O   0  0  0  0  0  0  0  0  0  0  0  0
  -22.5880  -11.9730   22.5120 H   0  0  0  0  0  0  0  0  0  0  0  0
  -21.2750  -13.1120   22.4040 H   0  0  0  0  0  0  0  0  0  0  0  0
  -25.4340  -15.2310   20.2910 N   0  0  0  0  0  0  0  0  0  0  0  0
  -24.6420  -15.8640   20.3230 H   0  0  0  0  0  0  0  0  0  0  0  0
  -26.2570  -15.6490   19.8770 H   0  0  0  0  0  0  0  0  0  0  0  0
  -28.9540  -23.5880   20.3130 C   0  0  0  0  0  3  0  0  0  0  0  0
  -27.9490  -24.8430   19.9980 C   0  0  0  0  0  3  0  0  0  0  0  0
  -28.2540  -26.3100   20.2790 O   0  0  0  0  0  0  0  0  0  0  0  0
  -24.6340  -31.9090   23.2750 C   0  0  0  0  0  0  0  0  0  0  0  0
  -27.1950  -27.2610   20.2130 C   0  0  0  0  0  0  0  0  0  0  0  0
  -23.4250  -30.5210   21.6300 C   0  0  0  0  0  3  0  0  0  0  0  0
  -24.8670  -28.9590   20.1960 C   0  0  0  0  0  0  0  0  0  0  0  0
  -25.9720  -30.7940   21.4620 C   0  0  0  0  0  2  0  0  0  0  0  0
  -26.0400  -29.4080   20.8160 C   0  0  0  0  0  0  0  0  0  0  0  0
  -27.2080  -28.5700   20.8230 C   0  0  0  0  0  3  0  0  0  0  0  0
  -26.0070  -26.9090   19.5400 C   0  0  0  0  0  3  0  0  0  0  0  0
  -24.8600  -27.7220   19.5400 C   0  0  0  0  0  3  0  0  0  0  0  0
  -23.6390  -29.8450   20.2490 C   0  0  0  0  0  2  0  0  0  0  0  0
  -24.6970  -31.0930   22.1800 N   0  0  0  0  0  0  0  0  0  0  0  0
  -23.5490  -32.2000   23.8000 O   0  0  0  0  0  0  0  0  0  0  0  0
  -22.7450  -29.5130   22.5880 C   0  0  0  0  0  0  0  0  0  0  0  0
  -21.4200  -29.3470   22.4560 N   0  0  0  0  0  0  0  0  0  0  0  0
  -23.4140  -28.8810   23.4100 O   0  0  0  0  0  0  0  0  0  0  0  0
  -20.9380  -29.9110   21.7720 H   0  0  0  0  0  0  0  0  0  0  0  0
  -18.0300  -28.1730   22.9580 C   0  0  0  0  0  0  0  0  0  0  0  0
  -20.5910  -28.4140   23.2250 C   0  0  0  0  0  3  0  0  0  0  0  0
  -20.6810  -26.9840   22.6470 C   0  0  0  0  0  2  0  0  0  0  0  0
  -19.5770  -26.6710   21.6320 C   0  0  0  0  0  2  0  0  0  0  0  0
  -18.1960  -26.8260   22.2770 C   0  0  0  0  0  2  0  0  0  0  0  0
  -19.1550  -28.9270   23.3860 C   0  0  0  0  0  0  0  0  0  0  0  0
  -18.9460  -30.1890   23.9820 C   0  0  0  0  0  3  0  0  0  0  0  0
  -17.6460  -30.7010   24.1500 C   0  0  0  0  0  3  0  0  0  0  0  0
  -16.5350  -29.9470   23.7320 C   0  0  0  0  0  3  0  0  0  0  0  0
  -16.7290  -28.6840   23.1440 C   0  0  0  0  0  3  0  0  0  0  0  0
  -25.9160  -32.5330   23.9030 C   0  0  0  0  0  3  0  0  0  0  0  0
  -26.4170  -31.7630   25.1860 C   0  0  1  0  0  0  0  0  0  0  0  0
  -25.3120  -31.5360   26.2460 C   0  0  0  0  0  1  0  0  0  0  0  0
  -26.9920  -30.3800   24.8030 C   0  0  0  0  0  1  0  0  0  0  0  0
  -27.5760  -32.5470   25.8500 C   0  0  0  0  0  1  0  0  0  0  0  0
  -25.6200  -33.9370   24.2260 N   0  0  0  0  0  0  0  0  0  0  0  0
  -25.9460  -34.9810   23.4540 C   0  0  0  0  0  0  0  0  0  0  0  0
  -26.5970  -34.8660   22.4110 O   0  0  0  0  0  0  0  0  0  0  0  0
  -25.0390  -34.1030   25.0350 H   0  0  0  0  0  0  0  0  0  0  0  0
  -24.2040  -36.7710   23.1370 C   0  0  0  0  0  1  0  0  0  0  0  0
  -25.4760  -36.3780   23.9070 C   0  0  0  0  0  3  0  0  0  0  0  0
  -27.6410  -37.2710   24.6490 C   0  0  0  0  0  1  0  0  0  0  0  0
  -26.5050  -37.4290   23.7430 N   0  0  0  0  0  0  0  0  0  0  0  0
  -26.1060  -38.3510   23.8960 H   0  0  0  0  0  0  0  0  0  0  0  0
  1 45  1  0
  1  2  2  0
  3 16  1  0
  4  9  1  0
  5  6  1  0
  5  4  1  0
  7  6  1  0
  7 20  1  0
  7  8  1  0
  9  3  1  0
  9  8  1  0
 10  3  2  0
 11 14  1  0
 13 12  1  0
 14  2  1  0
 14 13  1  0
 15 11  1  0
 15 16  1  0
 15 13  1  0
 16 12  1  0
 17 18  2  0
 18 37  1  0
 19 18  1  0
 19 22  1  0
 20 21  1  0
 20 17  1  0
 21 19  2  0
 22 23  1  0
 23 24  2  0
 25 28  1  0
 25 24  1  0
 26 25  2  0
 27 26  1  0
 27 22  2  0
 28 29  1  0
 29 30  1  0
 30 31  2  0
 32 31  1  0
 32 36  1  0
 33 32  2  0
 34 29  2  0
 34 33  1  0
 35 34  1  0
 37 38  1  0
 38 41  1  0
 38 40  1  0
 39 37  2  0
 42 43  1  0
 42 17  1  0
 44 42  1  0
 46 47  1  0
 46 45  2  0
 48 59  2  0
 49 47  1  0
 49 54  1  0
 50 58  1  0
 50 60  1  0
 51 57  1  0
 51 53  1  0
 52 58  1  0
 53 54  2  0
 53 52  1  0
 55 56  1  0
 55 49  2  0
 56 51  2  0
 57 50  1  0
 58 48  1  0
 60 62  2  0
 61 60  1  0
 63 61  1  0
 64 73  2  0
 64 69  1  0
 65 61  1  0
 65 69  1  0
 66 65  1  0
 67 68  1  0
 67 66  1  0
 68 64  1  0
 69 70  2  0
 70 71  1  0
 72 71  2  0
 73 72  1  0
 74 48  1  0
 74 79  1  0
 74 75  1  0
 75 78  1  1
 75 76  1  0
 77 75  1  0
 79 82  1  0
 80 84  1  0
 80 79  1  0
 81 80  2  0
 84 83  1  0
 86 87  1  0
 86 84  1  0
 86 85  1  0
M  ISO  4   3 100  16 100  46 101  47 101
M  END
>  <TORSDO>  (40) 
F 19

>  <SCORE>  (40) 
-13.973

>  <name>  (40) 
39

>  <ligand_id>  (40) 
39

>  <original_smiles>  (40) 
[H]c1c([H])c([H])c2c(c1[H])C([H])([H])C([H])([H])C([H])([H])C2([H])N([H])C(=O)C1([H])N(C(=O)C([H])(N([H])C(=O)C([H])(N([H])C([H])([H])[H])C([H])([H])[H])C(C([H])([H])[H])(C([H])([H])[H])C([H])([H])[H])C([H])([H])c2c([H])c(OC([H])([H])C([H])([H])C([H])([H])C([H])([H])C3([H])C([H])([H])C4([H])N(C(=O)N5C([H])([H])C([H])([H])C([H])([H])C([H])(n6nc(-c7c([H])c([H])c(Oc8c([H])c([H])c(F)c([H])c8F)c([H])c7[H])c(C(=O)N([H])[H])c6N([H])[H])C5([H])[H])C([H])([H])C43[H])c([H])c([H])c2C1([H])[H]

>  <smiles>  (40) 
[H]c1c([H])c([H])c2c(c1[H])C([H])([H])C([H])([H])C([H])([H])C2([H])N([H])C(=O)C1([H])N(C(=O)C([H])(N([H])C(=O)C([H])(N([H])C([H])([H])[H])C([H])([H])[H])C(C([H])([H])[H])(C([H])([H])[H])C([H])([H])[H])C([H])([H])c2c([H])c(OC([H])([H])C([H])([H])C([H])([H])C([H])([H])C3([H])C([H])([H])C4([H])N(C(=O)N5C([H])([H])C([H])([H])C([H])([H])C([H])(n6nc(-c7c([H])c([H])c(Oc8c([H])c([H])c(F)c([H])c8F)c([H])c7[H])c(C(=O)N([H])[H])c6N([H])[H])C5([H])[H])C([H])([H])C43[H])c([H])c([H])c2C1([H])[H]

$$$$
40:0:0
     RDKit          3D

 96104  0  0  1  0  0  0  0  0999 V2000
  -28.0740  -18.1700   18.3170 C   0  0  0  0  0  3  0  0  0  0  0  0
  -28.9610  -17.3580   19.0420 C   0  0  0  0  0  3  0  0  0  0  0  0
  -27.8530  -19.5070   18.6910 C   0  0  0  0  0  0  0  0  0  0  0  0
  -29.6330  -17.8480   20.1810 C   0  0  0  0  0  0  0  0  0  0  0  0
  -29.4230  -19.2150   20.5610 C   0  0  0  0  0  0  0  0  0  0  0  0
  -28.5450  -20.0560   19.8010 C   0  0  0  0  0  0  0  0  0  0  0  0
  -26.8630  -20.3170   17.8640 C   0  0  0  0  0  1  0  0  0  0  0  0
  -30.1110  -19.8130   21.7880 C   0  0  0  0  0  1  0  0  0  0  0  0
  -32.0620  -17.2630   20.7630 C   0  0  0  0  0  1  0  0  0  0  0  0
  -30.5730  -16.8940   20.9610 C   0  0  0  0  0  3  0  0  0  0  0  0
  -30.9390  -14.4610   20.1400 C   0  0  0  0  0  0  0  0  0  0  0  0
  -30.5700  -12.3090   18.9870 C   0  0  0  0  0  2  0  0  0  0  0  0
  -29.5900  -12.5280   17.8170 C   0  0  0  0  0  2  0  0  0  0  0  0
  -28.1340  -12.4040   18.3050 C   0  0  0  0  0  2  0  0  0  0  0  0
  -27.8580  -13.2580   19.5690 C   0  0  0  0  0  3  0  0  0  0  0  0
  -28.9410  -13.0130   20.6470 C   0  0  0  0  0  2  0  0  0  0  0  0
  -30.2500  -13.2940   20.0340 N   0  0  0  0  0  0  0  0  0  0  0  0
  -32.0290  -14.6290   19.5900 O   0  0  0  0  0  0  0  0  0  0  0  0
  -30.2830  -15.4490   20.7830 N   0  0  0  0  0  0  0  0  0  0  0  0
  -29.3990  -15.1550   21.1730 H   0  0  0  0  0  0  0  0  0  0  0  0
  -25.5000  -13.9260   20.3560 C   0  0  0  0  0  0  0  0  0  0  0  0
  -24.4270  -13.1800   20.7690 C   0  0  0  0  0  0  0  0  0  0  0  0
  -24.8560  -11.8170   20.7230 C   0  0  0  0  0  0  0  0  0  0  0  0
  -26.5170  -13.0210   20.0970 N   0  0  0  0  0  0  0  0  0  0  0  0
  -26.1340  -11.7470   20.3730 N   0  0  0  0  0  0  0  0  0  0  0  0
  -24.1090  -10.5710   20.9330 C   0  0  0  0  0  0  0  0  0  0  0  0
  -24.5440   -9.5990   21.8590 C   0  0  0  0  0  3  0  0  0  0  0  0
  -23.8030   -8.4150   22.0580 C   0  0  0  0  0  3  0  0  0  0  0  0
  -22.6090   -8.1970   21.3280 C   0  0  0  0  0  0  0  0  0  0  0  0
  -22.1920   -9.1580   20.3910 C   0  0  0  0  0  3  0  0  0  0  0  0
  -22.9350  -10.3320   20.1910 C   0  0  0  0  0  3  0  0  0  0  0  0
  -21.8350   -7.0680   21.4410 O   0  0  0  0  0  0  0  0  0  0  0  0
  -21.7810   -6.3430   22.6040 C   0  0  0  0  0  0  0  0  0  0  0  0
  -21.3620   -6.9200   23.8240 C   0  0  0  0  0  3  0  0  0  0  0  0
  -21.2570   -6.1200   24.9800 C   0  0  0  0  0  3  0  0  0  0  0  0
  -21.5590   -4.7470   24.9170 C   0  0  0  0  0  0  0  0  0  0  0  0
  -21.9690   -4.1700   23.7010 C   0  0  0  0  0  3  0  0  0  0  0  0
  -22.0760   -4.9670   22.5480 C   0  0  0  0  0  0  0  0  0  0  0  0
  -22.4510   -4.4010   21.3750 F   0  0  0  0  0  0  0  0  0  0  0  0
  -21.4500   -3.9780   26.0240 F   0  0  0  0  0  0  0  0  0  0  0  0
  -23.0510  -13.6900   21.0870 C   0  0  0  0  0  0  0  0  0  0  0  0
  -22.3370  -13.0090   21.9780 N   0  0  0  0  0  0  0  0  0  0  0  0
  -22.6200  -14.7270   20.5850 O   0  0  0  0  0  0  0  0  0  0  0  0
  -22.7020  -12.1750   22.4150 H   0  0  0  0  0  0  0  0  0  0  0  0
  -21.4120  -13.3310   22.2310 H   0  0  0  0  0  0  0  0  0  0  0  0
  -25.6980  -15.2910   20.1580 N   0  0  0  0  0  0  0  0  0  0  0  0
  -24.9440  -15.9630   20.2420 H   0  0  0  0  0  0  0  0  0  0  0  0
  -26.5420  -15.6880   19.7640 H   0  0  0  0  0  0  0  0  0  0  0  0
  -28.3560  -21.5510   20.1570 C   0  0  0  0  0  2  0  0  0  0  0  0
  -29.2930  -22.4870   19.3580 C   0  0  0  0  0  2  0  0  0  0  0  0
  -29.1400  -23.9290   19.6950 N   0  0  0  0  0  4  0  0  0  0  0  0
  -30.0100  -24.2350   20.1070 H   0  0  0  0  0  0  0  0  0  0  0  0
  -28.4330  -24.0490   20.4010 H   0  0  0  0  0  0  0  0  0  0  0  0
  -28.8340  -24.8140   18.5380 C   0  0  0  0  0  2  0  0  0  0  0  0
  -29.0860  -26.3110   18.8270 C   0  0  0  0  0  2  0  0  0  0  0  0
  -28.5190  -26.7710   20.0550 O   0  0  0  0  0  0  0  0  0  0  0  0
  -24.5210  -31.7650   23.1130 C   0  0  0  0  0  0  0  0  0  0  0  0
  -27.3290  -27.4550   20.0020 C   0  0  0  0  0  0  0  0  0  0  0  0
  -23.3730  -30.3630   21.4230 C   0  0  0  0  0  3  0  0  0  0  0  0
  -24.8920  -28.8800   20.0000 C   0  0  0  0  0  0  0  0  0  0  0  0
  -25.8900  -30.7850   21.2770 C   0  0  0  0  0  2  0  0  0  0  0  0
  -26.0190  -29.4250   20.6250 C   0  0  0  0  0  0  0  0  0  0  0  0
  -27.2340  -28.7090   20.6450 C   0  0  0  0  0  3  0  0  0  0  0  0
  -26.1890  -26.9190   19.3680 C   0  0  0  0  0  3  0  0  0  0  0  0
  -24.9680  -27.6210   19.3760 C   0  0  0  0  0  3  0  0  0  0  0  0
  -23.6260  -29.7080   20.0370 C   0  0  0  0  0  2  0  0  0  0  0  0
  -24.6130  -30.9840   21.9990 N   0  0  0  0  0  0  0  0  0  0  0  0
  -23.4250  -32.0070   23.6380 O   0  0  0  0  0  0  0  0  0  0  0  0
  -22.7320  -29.3140   22.3570 C   0  0  0  0  0  0  0  0  0  0  0  0
  -21.4090  -29.1250   22.2200 N   0  0  0  0  0  0  0  0  0  0  0  0
  -23.4190  -28.6760   23.1580 O   0  0  0  0  0  0  0  0  0  0  0  0
  -20.9170  -29.6970   21.5480 H   0  0  0  0  0  0  0  0  0  0  0  0
  -18.0360  -27.9150   22.6870 C   0  0  0  0  0  0  0  0  0  0  0  0
  -20.5950  -28.1620   22.9600 C   0  0  0  0  0  3  0  0  0  0  0  0
  -20.6930  -26.7510   22.3360 C   0  0  0  0  0  2  0  0  0  0  0  0
  -19.5870  -26.4640   21.3160 C   0  0  0  0  0  2  0  0  0  0  0  0
  -18.2060  -26.5880   21.9680 C   0  0  0  0  0  2  0  0  0  0  0  0
  -19.1560  -28.6610   23.1370 C   0  0  0  0  0  0  0  0  0  0  0  0
  -18.9420  -29.9050   23.7700 C   0  0  0  0  0  3  0  0  0  0  0  0
  -17.6380  -30.4010   23.9590 C   0  0  0  0  0  3  0  0  0  0  0  0
  -16.5320  -29.6510   23.5240 C   0  0  0  0  0  3  0  0  0  0  0  0
  -16.7300  -28.4100   22.8940 C   0  0  0  0  0  3  0  0  0  0  0  0
  -25.7840  -32.4110   23.7660 C   0  0  0  0  0  3  0  0  0  0  0  0
  -25.4390  -33.7960   24.1150 N   0  0  0  0  0  0  0  0  0  0  0  0
  -25.7550  -34.8680   23.3740 C   0  0  0  0  0  0  0  0  0  0  0  0
  -26.4370  -34.7970   22.3500 O   0  0  0  0  0  0  0  0  0  0  0  0
  -24.8390  -33.9250   24.9150 H   0  0  0  0  0  0  0  0  0  0  0  0
  -23.9880  -36.6210   23.0210 C   0  0  0  0  0  1  0  0  0  0  0  0
  -25.2260  -36.2360   23.8470 C   0  0  0  0  0  3  0  0  0  0  0  0
  -27.3270  -37.1590   24.7200 C   0  0  0  0  0  1  0  0  0  0  0  0
  -26.2350  -37.3160   23.7650 N   0  0  0  0  0  0  0  0  0  0  0  0
  -25.8040  -38.2240   23.9200 H   0  0  0  0  0  0  0  0  0  0  0  0
  -26.3010  -31.6280   25.0320 C   0  0  1  0  0  0  0  0  0  0  0  0
  -25.2020  -31.3460   26.0820 C   0  0  0  0  0  1  0  0  0  0  0  0
  -26.9200  -30.2710   24.6180 C   0  0  0  0  0  1  0  0  0  0  0  0
  -27.4240  -32.4360   25.7240 C   0  0  0  0  0  1  0  0  0  0  0  0
  1  3  2  0
  1  2  1  0
  2  4  2  0
  3  6  1  0
  4  5  1  0
  4 10  1  0
  5  8  1  0
  6 49  1  0
  6  5  2  0
  7  3  1  0
 10  9  1  0
 11 19  1  0
 12 17  1  0
 13 14  1  0
 13 12  1  0
 15 14  1  0
 15 24  1  0
 15 16  1  0
 17 11  1  0
 17 16  1  0
 18 11  2  0
 19 10  1  0
 19 20  1  0
 21 22  2  0
 22 41  1  0
 23 22  1  0
 23 26  1  0
 24 21  1  0
 24 25  1  0
 25 23  2  0
 26 27  1  0
 27 28  2  0
 29 32  1  0
 29 28  1  0
 30 29  2  0
 31 30  1  0
 31 26  2  0
 32 33  1  0
 33 34  1  0
 34 35  2  0
 36 35  1  0
 36 40  1  0
 37 36  2  0
 38 33  2  0
 38 37  1  0
 39 38  1  0
 41 42  1  0
 42 45  1  0
 42 44  1  0
 43 41  2  0
 46 47  1  0
 46 21  1  0
 48 46  1  0
 50 51  1  0
 50 49  1  0
 51 52  1  0
 51 53  1  0
 54 55  1  0
 54 51  1  0
 55 56  1  0
 57 68  2  0
 58 56  1  0
 58 63  1  0
 59 67  1  0
 59 69  1  0
 60 66  1  0
 60 62  1  0
 61 67  1  0
 62 63  2  0
 62 61  1  0
 64 65  1  0
 64 58  2  0
 65 60  2  0
 66 59  1  0
 67 57  1  0
 69 71  2  0
 70 69  1  0
 72 70  1  0
 73 82  2  0
 73 78  1  0
 74 70  1  0
 74 78  1  0
 75 74  1  0
 76 77  1  0
 76 75  1  0
 77 73  1  0
 78 79  2  0
 79 80  1  0
 81 80  2  0
 82 81  1  0
 83 57  1  0
 83 84  1  0
 83 93  1  0
 84 87  1  0
 85 89  1  0
 85 84  1  0
 86 85  2  0
 89 88  1  0
 91 89  1  0
 91 92  1  0
 91 90  1  0
 93 96  1  1
 93 94  1  0
 95 93  1  0
M  ISO  4  11 100  19 100  55 101  56 101
M  END
>  <TORSDO>  (41) 
F 22

>  <SCORE>  (41) 
-13.275

>  <name>  (41) 
40

>  <ligand_id>  (41) 
40

>  <original_smiles>  (41) 
[H]c1c([H])c([H])c2c(c1[H])C([H])([H])C([H])([H])C([H])([H])C2([H])N([H])C(=O)C1([H])N(C(=O)C([H])(N([H])C(=O)C([H])(N([H])C([H])([H])[H])C([H])([H])[H])C(C([H])([H])[H])(C([H])([H])[H])C([H])([H])[H])C([H])([H])c2c([H])c(OC([H])([H])C([H])([H])[N+]([H])([H])C([H])([H])C([H])([H])c3c(C([H])([H])[H])c([H])c([H])c(C([H])(N([H])C(=O)N4C([H])([H])C([H])([H])C([H])([H])C([H])(n5nc(-c6c([H])c([H])c(Oc7c([H])c([H])c(F)c([H])c7F)c([H])c6[H])c(C(=O)N([H])[H])c5N([H])[H])C4([H])[H])C([H])([H])[H])c3C([H])([H])[H])c([H])c([H])c2C1([H])[H]

>  <smiles>  (41) 
[H]c1c([H])c([H])c2c(c1[H])C([H])([H])C([H])([H])C([H])([H])C2([H])N([H])C(=O)C1([H])N(C(=O)C([H])(N([H])C(=O)C([H])(N([H])C([H])([H])[H])C([H])([H])[H])C(C([H])([H])[H])(C([H])([H])[H])C([H])([H])[H])C([H])([H])c2c([H])c(OC([H])([H])C([H])([H])[N+]([H])([H])C([H])([H])C([H])([H])c3c(C([H])([H])[H])c([H])c([H])c(C([H])(N([H])C(=O)N4C([H])([H])C([H])([H])C([H])([H])C([H])(n5nc(-c6c([H])c([H])c(Oc7c([H])c([H])c(F)c([H])c7F)c([H])c6[H])c(C(=O)N([H])[H])c5N([H])[H])C4([H])[H])C([H])([H])[H])c3C([H])([H])[H])c([H])c([H])c2C1([H])[H]

$$$$
41:0:0
     RDKit          3D

 96105  0  0  1  0  0  0  0  0999 V2000
  -27.4680  -20.2020   20.7880 C   0  0  0  0  0  2  0  0  0  0  0  0
  -30.5370  -19.4540   19.3110 C   0  0  0  0  0  2  0  0  0  0  0  0
  -27.5770  -21.5360   20.0600 C   0  0  0  0  0  2  0  0  0  0  0  0
  -28.1580  -19.2280   19.8160 C   0  0  0  0  0  3  0  0  0  0  0  0
  -30.3530  -18.0110   19.9030 C   0  0  0  0  0  3  0  0  0  0  0  0
  -29.1510  -20.0880   19.0170 C   0  0  0  0  0  3  0  0  0  0  0  0
  -28.8910  -17.9830   20.4000 C   0  0  0  0  0  3  0  0  0  0  0  0
  -28.9280  -21.5190   19.4510 N   0  0  1  0  0  4  0  0  0  0  0  0
  -29.5720  -21.7020   20.2050 H   0  0  0  0  0  0  0  0  0  0  0  0
  -28.8310  -17.8640   21.8740 N   0  0  0  0  0  4  0  0  0  0  0  0
  -29.3850  -18.5630   22.3320 H   0  0  0  0  0  0  0  0  0  0  0  0
  -29.1880  -16.9720   22.1630 H   0  0  0  0  0  0  0  0  0  0  0  0
  -27.8900  -17.9380   22.2140 H   0  0  0  0  0  0  0  0  0  0  0  0
  -30.7410  -16.7980   18.9720 C   0  0  0  0  0  2  0  0  0  0  0  0
  -31.2500  -14.2980   19.1850 C   0  0  0  0  0  0  0  0  0  0  0  0
  -30.8060  -12.0180   18.3320 C   0  0  0  0  0  2  0  0  0  0  0  0
  -29.6750  -12.0960   17.2830 C   0  0  0  0  0  2  0  0  0  0  0  0
  -28.2860  -12.0200   17.9540 C   0  0  0  0  0  2  0  0  0  0  0  0
  -28.1610  -12.9620   19.1800 C   0  0  0  0  0  3  0  0  0  0  0  0
  -29.3940  -12.8640   20.1080 C   0  0  0  0  0  2  0  0  0  0  0  0
  -30.5880  -13.1080   19.2950 N   0  0  0  0  0  0  0  0  0  0  0  0
  -32.3360  -14.3960   18.6140 O   0  0  0  0  0  0  0  0  0  0  0  0
  -30.5270  -15.4050   19.4960 N   0  0  0  0  0  0  0  0  0  0  0  0
  -29.6060  -15.1930   19.8520 H   0  0  0  0  0  0  0  0  0  0  0  0
  -26.0580  -13.6680   20.4790 C   0  0  0  0  0  0  0  0  0  0  0  0
  -24.9970  -12.9550   20.9650 C   0  0  0  0  0  0  0  0  0  0  0  0
  -25.2600  -11.5870   20.6500 C   0  0  0  0  0  0  0  0  0  0  0  0
  -26.9100  -12.7400   19.9080 N   0  0  0  0  0  0  0  0  0  0  0  0
  -26.4420  -11.4720   20.0570 N   0  0  0  0  0  0  0  0  0  0  0  0
  -24.4230  -10.3890   20.8120 C   0  0  0  0  0  0  0  0  0  0  0  0
  -24.7690   -9.3660   21.7210 C   0  0  0  0  0  3  0  0  0  0  0  0
  -23.9400   -8.2350   21.8720 C   0  0  0  0  0  3  0  0  0  0  0  0
  -22.7520   -8.1200   21.1130 C   0  0  0  0  0  0  0  0  0  0  0  0
  -22.4260   -9.1270   20.1890 C   0  0  0  0  0  3  0  0  0  0  0  0
  -23.2550  -10.2510   20.0350 C   0  0  0  0  0  3  0  0  0  0  0  0
  -21.8980   -7.0470   21.1770 O   0  0  0  0  0  0  0  0  0  0  0  0
  -21.5860   -6.4430   22.3700 C   0  0  0  0  0  0  0  0  0  0  0  0
  -20.9670   -7.1510   23.4220 C   0  0  0  0  0  3  0  0  0  0  0  0
  -20.6040   -6.4790   24.6060 C   0  0  0  0  0  3  0  0  0  0  0  0
  -20.8470   -5.0980   24.7340 C   0  0  0  0  0  0  0  0  0  0  0  0
  -21.4590   -4.3910   23.6840 C   0  0  0  0  0  3  0  0  0  0  0  0
  -21.8220   -5.0600   22.5040 C   0  0  0  0  0  0  0  0  0  0  0  0
  -22.3930   -4.3710   21.4860 F   0  0  0  0  0  0  0  0  0  0  0  0
  -20.4910   -4.4470   25.8660 F   0  0  0  0  0  0  0  0  0  0  0  0
  -23.7590  -13.5160   21.6030 C   0  0  0  0  0  0  0  0  0  0  0  0
  -23.1520  -12.7740   22.5210 N   0  0  0  0  0  0  0  0  0  0  0  0
  -23.3490  -14.6430   21.3160 O   0  0  0  0  0  0  0  0  0  0  0  0
  -23.5000  -11.8570   22.7620 H   0  0  0  0  0  0  0  0  0  0  0  0
  -22.3260  -13.1230   22.9890 H   0  0  0  0  0  0  0  0  0  0  0  0
  -26.3600  -15.0280   20.4470 N   0  0  0  0  0  0  0  0  0  0  0  0
  -25.6130  -15.6830   20.6560 H   0  0  0  0  0  0  0  0  0  0  0  0
  -26.9870  -15.3760   19.7380 H   0  0  0  0  0  0  0  0  0  0  0  0
  -29.1180  -22.5990   18.4290 C   0  0  0  0  0  2  0  0  0  0  0  0
  -28.8750  -24.0540   18.9590 C   0  0  0  0  0  2  0  0  0  0  0  0
  -29.1910  -25.1560   17.9070 C   0  0  0  0  0  2  0  0  0  0  0  0
  -29.0970  -26.5160   18.3790 O   0  0  0  0  0  0  0  0  0  0  0  0
  -25.1640  -30.5860   22.6990 C   0  0  0  0  0  0  0  0  0  0  0  0
  -27.8710  -27.1330   18.5660 C   0  0  0  0  0  0  0  0  0  0  0  0
  -23.9460  -29.5100   20.8350 C   0  0  0  0  0  3  0  0  0  0  0  0
  -25.3980  -28.4400   19.0340 C   0  0  0  0  0  0  0  0  0  0  0  0
  -26.4300  -30.0800   20.6100 C   0  0  0  0  0  2  0  0  0  0  0  0
  -26.5570  -28.8950   19.6710 C   0  0  0  0  0  0  0  0  0  0  0  0
  -27.7940  -28.2490   19.4360 C   0  0  0  0  0  3  0  0  0  0  0  0
  -26.6880  -26.6960   17.9280 C   0  0  0  0  0  3  0  0  0  0  0  0
  -25.4600  -27.3410   18.1600 C   0  0  0  0  0  3  0  0  0  0  0  0
  -24.1120  -29.1770   19.3280 C   0  0  0  0  0  2  0  0  0  0  0  0
  -25.2000  -30.0640   21.4400 N   0  0  0  0  0  0  0  0  0  0  0  0
  -24.1020  -30.6530   23.3330 O   0  0  0  0  0  0  0  0  0  0  0  0
  -23.4150  -28.2550   21.5660 C   0  0  0  0  0  0  0  0  0  0  0  0
  -22.1170  -27.9610   21.3820 N   0  0  0  0  0  0  0  0  0  0  0  0
  -24.1660  -27.5580   22.2510 O   0  0  0  0  0  0  0  0  0  0  0  0
  -21.5660  -28.5840   20.8100 H   0  0  0  0  0  0  0  0  0  0  0  0
  -18.9160  -26.2920   21.5100 C   0  0  0  0  0  0  0  0  0  0  0  0
  -21.4130  -26.8050   21.9380 C   0  0  0  0  0  3  0  0  0  0  0  0
  -21.7090  -25.5250   21.1260 C   0  0  0  0  0  2  0  0  0  0  0  0
  -20.6820  -25.2550   20.0240 C   0  0  0  0  0  2  0  0  0  0  0  0
  -19.2780  -25.1170   20.6180 C   0  0  0  0  0  2  0  0  0  0  0  0
  -19.9190  -27.0930   22.1180 C   0  0  0  0  0  0  0  0  0  0  0  0
  -19.5270  -28.1960   22.9090 C   0  0  0  0  0  3  0  0  0  0  0  0
  -18.1670  -28.4960   23.1020 C   0  0  0  0  0  3  0  0  0  0  0  0
  -17.1770  -27.6890   22.5110 C   0  0  0  0  0  3  0  0  0  0  0  0
  -17.5540  -26.5890   21.7200 C   0  0  0  0  0  3  0  0  0  0  0  0
  -26.4440  -31.1520   23.3880 C   0  0  0  0  0  3  0  0  0  0  0  0
  -26.0570  -32.3770   24.1010 N   0  0  0  0  0  0  0  0  0  0  0  0
  -26.2680  -33.6210   23.6470 C   0  0  0  0  0  0  0  0  0  0  0  0
  -26.8800  -33.8560   22.6010 O   0  0  0  0  0  0  0  0  0  0  0  0
  -25.5060  -32.2600   24.9380 H   0  0  0  0  0  0  0  0  0  0  0  0
  -24.4010  -35.2910   23.8620 C   0  0  0  0  0  1  0  0  0  0  0  0
  -25.7120  -34.7880   24.4840 C   0  0  0  0  0  3  0  0  0  0  0  0
  -27.8180  -35.5940   25.4580 C   0  0  0  0  0  1  0  0  0  0  0  0
  -26.6610  -35.9130   24.6270 N   0  0  0  0  0  0  0  0  0  0  0  0
  -26.1980  -36.7250   25.0250 H   0  0  0  0  0  0  0  0  0  0  0  0
  -27.1270  -30.1240   24.3730 C   0  0  1  0  0  0  0  0  0  0  0  0
  -26.1530  -29.5050   25.4020 C   0  0  0  0  0  1  0  0  0  0  0  0
  -27.7780  -28.9650   23.5820 C   0  0  0  0  0  1  0  0  0  0  0  0
  -28.2660  -30.8240   25.1530 C   0  0  0  0  0  1  0  0  0  0  0  0
  2  5  1  0
  3  1  1  0
  4  7  1  0
  4  1  1  0
  5 14  1  0
  5  7  1  0
  6  2  1  0
  6  8  1  0
  6  4  1  0
  7 10  1  0
  8  3  1  0
  8  9  1  1
 10 12  1  0
 10 13  1  0
 10 11  1  0
 14 23  1  0
 15 21  1  0
 15 23  1  0
 16 21  1  0
 17 18  1  0
 17 16  1  0
 19 18  1  0
 19 28  1  0
 19 20  1  0
 21 20  1  0
 22 15  2  0
 23 24  1  0
 25 26  2  0
 26 45  1  0
 27 30  1  0
 27 26  1  0
 28 29  1  0
 28 25  1  0
 29 27  2  0
 30 31  1  0
 31 32  2  0
 33 36  1  0
 33 32  1  0
 34 33  2  0
 35 34  1  0
 35 30  2  0
 36 37  1  0
 37 42  2  0
 37 38  1  0
 38 39  2  0
 39 40  1  0
 40 44  1  0
 41 40  2  0
 42 41  1  0
 43 42  1  0
 45 46  1  0
 46 48  1  0
 46 49  1  0
 47 45  2  0
 50 25  1  0
 50 51  1  0
 52 50  1  0
 53 54  1  0
 53  8  1  0
 55 56  1  0
 55 54  1  0
 56 58  1  0
 57 68  2  0
 58 63  1  0
 59 67  1  0
 59 69  1  0
 60 66  1  0
 60 62  1  0
 61 67  1  0
 62 61  1  0
 63 62  2  0
 64 65  1  0
 64 58  2  0
 65 60  2  0
 66 59  1  0
 67 57  1  0
 69 71  2  0
 70 69  1  0
 72 70  1  0
 73 82  2  0
 73 78  1  0
 74 70  1  0
 74 78  1  0
 75 74  1  0
 76 77  1  0
 76 75  1  0
 77 73  1  0
 78 79  2  0
 79 80  1  0
 81 80  2  0
 82 81  1  0
 83 57  1  0
 83 84  1  0
 83 93  1  0
 84 87  1  0
 85 84  1  0
 85 89  1  0
 86 85  2  0
 89 88  1  0
 89 91  1  0
 91 92  1  0
 91 90  1  0
 93 96  1  1
 93 94  1  0
 95 93  1  0
M  ISO  4  15 100  23 100  55 101  56 101
M  END
>  <TORSDO>  (42) 
F 21

>  <SCORE>  (42) 
-6.435

>  <name>  (42) 
41

>  <ligand_id>  (42) 
41

>  <original_smiles>  (42) 
[H]c1c([H])c([H])c2c(c1[H])C([H])([H])C([H])([H])C([H])([H])C2([H])N([H])C(=O)C1([H])N(C(=O)C([H])(N([H])C(=O)C([H])(N([H])C([H])([H])[H])C([H])([H])[H])C(C([H])([H])[H])(C([H])([H])[H])C([H])([H])[H])C([H])([H])c2c([H])c(OC([H])([H])C([H])([H])C([H])([H])[N+]3([H])C([H])([H])C([H])([H])C4([H])C([H])([N+]([H])([H])[H])C([H])(C([H])([H])N([H])C(=O)N5C([H])([H])C([H])([H])C([H])([H])C([H])(n6nc(-c7c([H])c([H])c(Oc8c([H])c([H])c(F)c([H])c8F)c([H])c7[H])c(C(=O)N([H])[H])c6N([H])[H])C5([H])[H])C([H])([H])C43[H])c([H])c([H])c2C1([H])[H]

>  <smiles>  (42) 
[H]c1c([H])c([H])c2c(c1[H])C([H])([H])C([H])([H])C([H])([H])C2([H])N([H])C(=O)C1([H])N(C(=O)C([H])(N([H])C(=O)C([H])(N([H])C([H])([H])[H])C([H])([H])[H])C(C([H])([H])[H])(C([H])([H])[H])C([H])([H])[H])C([H])([H])c2c([H])c(OC([H])([H])C([H])([H])C([H])([H])[N+]3([H])C([H])([H])C([H])([H])C4([H])C([H])([N+]([H])([H])[H])C([H])(C([H])([H])N([H])C(=O)N5C([H])([H])C([H])([H])C([H])([H])C([H])(n6nc(-c7c([H])c([H])c(Oc8c([H])c([H])c(F)c([H])c8F)c([H])c7[H])c(C(=O)N([H])[H])c6N([H])[H])C5([H])[H])C([H])([H])C43[H])c([H])c([H])c2C1([H])[H]

$$$$
42:0:0
     RDKit          3D

 98105  0  0  1  0  0  0  0  0999 V2000
  -27.8300  -20.8760   18.4590 C   0  0  0  0  0  0  0  0  0  0  0  0
  -29.1410  -20.8080   18.2010 N   0  0  0  0  0  0  0  0  0  0  0  0
  -27.1240  -21.7560   17.9660 O   0  0  0  0  0  0  0  0  0  0  0  0
  -29.6710  -20.0780   18.6570 H   0  0  0  0  0  0  0  0  0  0  0  0
  -27.2320  -19.8790   19.4540 C   0  0  0  0  0  2  0  0  0  0  0  0
  -27.9270  -18.4940   19.4630 C   0  0  0  0  0  2  0  0  0  0  0  0
  -29.1500  -18.4530   20.3820 C   0  0  0  0  0  0  0  0  0  0  0  0
  -30.1330  -17.6020   20.0680 N   0  0  0  0  0  0  0  0  0  0  0  0
  -29.2190  -19.1990   21.3590 O   0  0  0  0  0  0  0  0  0  0  0  0
  -30.0240  -16.9950   19.2650 H   0  0  0  0  0  0  0  0  0  0  0  0
  -31.3920  -17.5080   20.8010 C   0  0  0  0  0  2  0  0  0  0  0  0
  -32.2900  -16.4090   20.2200 C   0  0  0  0  0  2  0  0  0  0  0  0
  -32.0200  -14.0270   19.5850 C   0  0  0  0  0  0  0  0  0  0  0  0
  -31.4580  -11.7200   18.9260 C   0  0  0  0  0  2  0  0  0  0  0  0
  -30.4530  -11.7260   17.7610 C   0  0  0  0  0  2  0  0  0  0  0  0
  -29.0060  -11.8220   18.2860 C   0  0  0  0  0  2  0  0  0  0  0  0
  -28.8170  -12.9540   19.3320 C   0  0  0  0  0  3  0  0  0  0  0  0
  -29.9240  -12.8870   20.4080 C   0  0  0  0  0  2  0  0  0  0  0  0
  -31.2320  -12.9300   19.7300 N   0  0  0  0  0  0  0  0  0  0  0  0
  -33.0250  -14.0560   18.8700 O   0  0  0  0  0  0  0  0  0  0  0  0
  -31.6270  -15.1080   20.2690 N   0  0  0  0  0  0  0  0  0  0  0  0
  -30.8150  -15.0160   20.8600 H   0  0  0  0  0  0  0  0  0  0  0  0
  -26.6620  -13.9600   20.3280 C   0  0  0  0  0  0  0  0  0  0  0  0
  -25.4950  -13.3830   20.7530 C   0  0  0  0  0  0  0  0  0  0  0  0
  -25.6630  -11.9760   20.5740 C   0  0  0  0  0  0  0  0  0  0  0  0
  -27.4810  -12.9130   19.9290 N   0  0  0  0  0  0  0  0  0  0  0  0
  -26.8840  -11.7100   20.1270 N   0  0  0  0  0  0  0  0  0  0  0  0
  -24.7100  -10.8700   20.7460 C   0  0  0  0  0  0  0  0  0  0  0  0
  -24.9790   -9.7950   21.6200 C   0  0  0  0  0  3  0  0  0  0  0  0
  -24.0440   -8.7500   21.7830 C   0  0  0  0  0  3  0  0  0  0  0  0
  -22.8210   -8.7780   21.0710 C   0  0  0  0  0  0  0  0  0  0  0  0
  -22.5680   -9.8380   20.1830 C   0  0  0  0  0  3  0  0  0  0  0  0
  -23.5030  -10.8730   20.0180 C   0  0  0  0  0  3  0  0  0  0  0  0
  -21.8620   -7.7960   21.1490 O   0  0  0  0  0  0  0  0  0  0  0  0
  -21.6740   -7.0630   22.2930 C   0  0  0  0  0  0  0  0  0  0  0  0
  -21.3250   -7.6700   23.5190 C   0  0  0  0  0  3  0  0  0  0  0  0
  -21.0700   -6.8720   24.6520 C   0  0  0  0  0  3  0  0  0  0  0  0
  -21.1560   -5.4700   24.5600 C   0  0  0  0  0  0  0  0  0  0  0  0
  -21.4970   -4.8640   23.3390 C   0  0  0  0  0  3  0  0  0  0  0  0
  -21.7520   -5.6580   22.2080 C   0  0  0  0  0  0  0  0  0  0  0  0
  -22.0600   -5.0680   21.0280 F   0  0  0  0  0  0  0  0  0  0  0  0
  -20.9030   -4.7020   25.6460 F   0  0  0  0  0  0  0  0  0  0  0  0
  -24.2560  -14.0990   21.2090 C   0  0  0  0  0  0  0  0  0  0  0  0
  -23.4950  -13.4950   22.1160 N   0  0  0  0  0  0  0  0  0  0  0  0
  -23.9800  -15.2250   20.7980 O   0  0  0  0  0  0  0  0  0  0  0  0
  -23.7290  -12.5810   22.4750 H   0  0  0  0  0  0  0  0  0  0  0  0
  -22.6650  -13.9580   22.4570 H   0  0  0  0  0  0  0  0  0  0  0  0
  -27.0890  -15.2810   20.2290 N   0  0  0  0  0  0  0  0  0  0  0  0
  -26.4740  -16.0580   20.4480 H   0  0  0  0  0  0  0  0  0  0  0  0
  -27.9680  -15.5670   19.8210 H   0  0  0  0  0  0  0  0  0  0  0  0
  -29.9000  -21.7060   17.3310 C   0  0  0  0  0  2  0  0  0  0  0  0
  -30.2530  -23.0330   18.0310 C   0  0  0  0  0  2  0  0  0  0  0  0
  -29.1320  -23.9970   17.9810 N   0  0  0  0  0  4  0  0  0  0  0  0
  -28.2780  -23.4520   17.8830 H   0  0  0  0  0  0  0  0  0  0  0  0
  -29.2330  -24.5490   17.1430 H   0  0  0  0  0  0  0  0  0  0  0  0
  -29.0050  -24.8790   19.1670 C   0  0  0  0  0  2  0  0  0  0  0  0
  -28.5780  -26.3030   18.7900 C   0  0  0  0  0  2  0  0  0  0  0  0
  -28.2910  -27.0290   19.9880 O   0  0  0  0  0  0  0  0  0  0  0  0
  -24.6020  -31.9970   23.4880 C   0  0  0  0  0  0  0  0  0  0  0  0
  -27.0950  -27.7070   20.0840 C   0  0  0  0  0  0  0  0  0  0  0  0
  -23.3250  -30.6960   21.8130 C   0  0  0  0  0  3  0  0  0  0  0  0
  -24.7110  -29.2130   20.2770 C   0  0  0  0  0  0  0  0  0  0  0  0
  -25.8460  -31.0340   21.5590 C   0  0  0  0  0  2  0  0  0  0  0  0
  -25.8920  -29.6960   20.8530 C   0  0  0  0  0  0  0  0  0  0  0  0
  -27.0820  -28.9430   20.7670 C   0  0  0  0  0  3  0  0  0  0  0  0
  -25.8830  -27.2130   19.5480 C   0  0  0  0  0  3  0  0  0  0  0  0
  -24.6980  -27.9630   19.6340 C   0  0  0  0  0  3  0  0  0  0  0  0
  -23.4840  -30.0840   20.3970 C   0  0  0  0  0  2  0  0  0  0  0  0
  -24.6110  -31.2530   22.3460 N   0  0  0  0  0  0  0  0  0  0  0  0
  -23.5420  -32.2540   24.0740 O   0  0  0  0  0  0  0  0  0  0  0  0
  -22.6890  -29.6360   22.7400 C   0  0  0  0  0  0  0  0  0  0  0  0
  -21.3770  -29.4040   22.5710 N   0  0  0  0  0  0  0  0  0  0  0  0
  -23.3750  -29.0220   23.5630 O   0  0  0  0  0  0  0  0  0  0  0  0
  -20.8860  -29.9550   21.8810 H   0  0  0  0  0  0  0  0  0  0  0  0
  -18.0650  -27.9950   22.8620 C   0  0  0  0  0  0  0  0  0  0  0  0
  -20.5760  -28.4250   23.3030 C   0  0  0  0  0  3  0  0  0  0  0  0
  -20.8120  -26.9960   22.7620 C   0  0  0  0  0  2  0  0  0  0  0  0
  -19.8070  -26.5870   21.6820 C   0  0  0  0  0  2  0  0  0  0  0  0
  -18.3770  -26.6500   22.2270 C   0  0  0  0  0  2  0  0  0  0  0  0
  -19.1000  -28.8360   23.3520 C   0  0  0  0  0  0  0  0  0  0  0  0
  -18.7600  -30.0910   23.9010 C   0  0  0  0  0  3  0  0  0  0  0  0
  -17.4170  -30.5090   23.9660 C   0  0  0  0  0  3  0  0  0  0  0  0
  -16.3960  -29.6670   23.4940 C   0  0  0  0  0  3  0  0  0  0  0  0
  -16.7210  -28.4130   22.9480 C   0  0  0  0  0  3  0  0  0  0  0  0
  -25.9170  -32.5740   24.0990 C   0  0  0  0  0  3  0  0  0  0  0  0
  -26.4140  -31.7830   25.3710 C   0  0  1  0  0  0  0  0  0  0  0  0
  -25.3180  -31.5810   26.4410 C   0  0  0  0  0  1  0  0  0  0  0  0
  -26.9470  -30.3870   24.9730 C   0  0  0  0  0  1  0  0  0  0  0  0
  -27.5910  -32.5370   26.0320 C   0  0  0  0  0  1  0  0  0  0  0  0
  -25.6680  -33.9840   24.4260 N   0  0  0  0  0  0  0  0  0  0  0  0
  -26.0320  -35.0180   23.6560 C   0  0  0  0  0  0  0  0  0  0  0  0
  -26.6870  -34.8830   22.6170 O   0  0  0  0  0  0  0  0  0  0  0  0
  -25.0890  -34.1660   25.2330 H   0  0  0  0  0  0  0  0  0  0  0  0
  -24.3600  -36.8650   23.3200 C   0  0  0  0  0  1  0  0  0  0  0  0
  -25.6020  -36.4240   24.1110 C   0  0  0  0  0  3  0  0  0  0  0  0
  -27.7790  -37.2440   24.8960 C   0  0  0  0  0  1  0  0  0  0  0  0
  -26.6670  -37.4410   23.9690 N   0  0  0  0  0  0  0  0  0  0  0  0
  -26.2940  -38.3750   24.1150 H   0  0  0  0  0  0  0  0  0  0  0  0
  1  5  1  0
  2  1  1  0
  2  4  1  0
  3  1  2  0
  5  6  1  0
  6  7  1  0
  7  9  2  0
  8  7  1  0
  8 11  1  0
 10  8  1  0
 12 21  1  0
 12 11  1  0
 13 19  1  0
 13 21  1  0
 14 19  1  0
 15 16  1  0
 15 14  1  0
 17 16  1  0
 17 26  1  0
 17 18  1  0
 19 18  1  0
 20 13  2  0
 21 22  1  0
 23 24  2  0
 24 43  1  0
 25 28  1  0
 25 24  1  0
 26 27  1  0
 26 23  1  0
 27 25  2  0
 28 29  1  0
 29 30  2  0
 31 34  1  0
 31 30  1  0
 32 31  2  0
 33 32  1  0
 33 28  2  0
 34 35  1  0
 35 36  1  0
 36 37  2  0
 38 37  1  0
 38 42  1  0
 39 38  2  0
 40 35  2  0
 40 39  1  0
 41 40  1  0
 43 44  1  0
 44 47  1  0
 44 46  1  0
 45 43  2  0
 48 23  1  0
 48 49  1  0
 50 48  1  0
 51 52  1  0
 51  2  1  0
 53 52  1  0
 53 56  1  0
 54 53  1  0
 55 53  1  0
 57 56  1  0
 57 58  1  0
 58 60  1  0
 59 70  2  0
 60 65  1  0
 61 69  1  0
 61 71  1  0
 62 68  1  0
 62 64  1  0
 63 69  1  0
 64 63  1  0
 65 64  2  0
 66 67  1  0
 66 60  2  0
 67 62  2  0
 68 61  1  0
 69 59  1  0
 71 73  2  0
 72 71  1  0
 74 72  1  0
 75 84  2  0
 75 80  1  0
 76 72  1  0
 76 80  1  0
 77 76  1  0
 78 79  1  0
 78 77  1  0
 79 75  1  0
 80 81  2  0
 81 82  1  0
 83 82  2  0
 84 83  1  0
 85 59  1  0
 85 90  1  0
 85 86  1  0
 86 89  1  1
 86 87  1  0
 88 86  1  0
 90 93  1  0
 91 95  1  0
 91 90  1  0
 92 91  2  0
 95 94  1  0
 97 95  1  0
 97 98  1  0
 97 96  1  0
M  ISO  4  13 100  21 100  57 101  58 101
M  END
>  <TORSDO>  (43) 
F 26

>  <SCORE>  (43) 
-10.470

>  <name>  (43) 
42

>  <ligand_id>  (43) 
42

>  <original_smiles>  (43) 
[H]c1c([H])c([H])c2c(c1[H])C([H])([H])C([H])([H])C([H])([H])C2([H])N([H])C(=O)C1([H])N(C(=O)C([H])(N([H])C(=O)C([H])(N([H])C([H])([H])[H])C([H])([H])[H])C(C([H])([H])[H])(C([H])([H])[H])C([H])([H])[H])C([H])([H])c2c([H])c(OC([H])([H])C([H])([H])[N+]([H])([H])C([H])([H])C([H])([H])N([H])C(=O)C([H])([H])C([H])([H])C(=O)N([H])C([H])([H])C([H])([H])N([H])C(=O)N3C([H])([H])C([H])([H])C([H])([H])C([H])(n4nc(-c5c([H])c([H])c(Oc6c([H])c([H])c(F)c([H])c6F)c([H])c5[H])c(C(=O)N([H])[H])c4N([H])[H])C3([H])[H])c([H])c([H])c2C1([H])[H]

>  <smiles>  (43) 
[H]c1c([H])c([H])c2c(c1[H])C([H])([H])C([H])([H])C([H])([H])C2([H])N([H])C(=O)C1([H])N(C(=O)C([H])(N([H])C(=O)C([H])(N([H])C([H])([H])[H])C([H])([H])[H])C(C([H])([H])[H])(C([H])([H])[H])C([H])([H])[H])C([H])([H])c2c([H])c(OC([H])([H])C([H])([H])[N+]([H])([H])C([H])([H])C([H])([H])N([H])C(=O)C([H])([H])C([H])([H])C(=O)N([H])C([H])([H])C([H])([H])N([H])C(=O)N3C([H])([H])C([H])([H])C([H])([H])C([H])(n4nc(-c5c([H])c([H])c(Oc6c([H])c([H])c(F)c([H])c6F)c([H])c5[H])c(C(=O)N([H])[H])c4N([H])[H])C3([H])[H])c([H])c([H])c2C1([H])[H]

$$$$
43:0:0
     RDKit          3D

 92101  0  0  1  0  0  0  0  0999 V2000
  -28.5020  -21.7110   20.3340 C   0  0  0  0  0  2  0  0  0  0  0  0
  -31.8960  -19.2730   19.6130 C   0  0  0  0  0  2  0  0  0  0  0  0
  -30.7350  -19.4580   18.5620 C   0  0  0  0  0  2  0  0  0  0  0  0
  -30.3180  -20.0100   21.4350 C   0  0  0  0  0  2  0  0  0  0  0  0
  -31.1420  -18.7590   20.8880 C   0  0  0  0  0  3  0  0  0  0  0  0
  -30.1210  -17.8470   20.1890 C   0  0  0  0  0  3  0  0  0  0  0  0
  -29.4710  -19.1860   19.4330 C   0  0  0  0  0  3  0  0  0  0  0  0
  -29.5660  -20.5180   20.2500 N   0  0  1  0  0  4  0  0  0  0  0  0
  -30.2870  -20.9880   19.7250 H   0  0  0  0  0  0  0  0  0  0  0  0
  -30.5310  -15.0770   20.3000 C   0  0  0  0  0  0  0  0  0  0  0  0
  -30.4000  -12.7180   19.3690 C   0  0  0  0  0  2  0  0  0  0  0  0
  -29.4570  -12.6620   18.1450 C   0  0  0  0  0  2  0  0  0  0  0  0
  -28.0030  -12.4300   18.5950 C   0  0  0  0  0  2  0  0  0  0  0  0
  -27.5990  -13.3530   19.7740 C   0  0  0  0  0  3  0  0  0  0  0  0
  -28.6670  -13.3930   20.8880 C   0  0  0  0  0  2  0  0  0  0  0  0
  -29.9250  -13.8180   20.2600 N   0  0  0  0  0  0  0  0  0  0  0  0
  -31.7320  -15.1140   20.0100 O   0  0  0  0  0  0  0  0  0  0  0  0
  -29.7810  -16.2950   20.4350 N   0  0  0  0  0  0  0  0  0  0  0  0
  -28.8110  -16.1300   20.6570 H   0  0  0  0  0  0  0  0  0  0  0  0
  -25.2280  -13.9080   20.5570 C   0  0  0  0  0  0  0  0  0  0  0  0
  -24.1710  -13.1240   20.9290 C   0  0  0  0  0  0  0  0  0  0  0  0
  -24.6410  -11.7740   20.8720 C   0  0  0  0  0  0  0  0  0  0  0  0
  -26.2700  -13.0380   20.2890 N   0  0  0  0  0  0  0  0  0  0  0  0
  -25.9280  -11.7480   20.5450 N   0  0  0  0  0  0  0  0  0  0  0  0
  -23.9190  -10.5070   21.0510 C   0  0  0  0  0  0  0  0  0  0  0  0
  -24.3470   -9.5380   21.9850 C   0  0  0  0  0  3  0  0  0  0  0  0
  -23.6240   -8.3380   22.1540 C   0  0  0  0  0  3  0  0  0  0  0  0
  -22.4590   -8.0970   21.3880 C   0  0  0  0  0  0  0  0  0  0  0  0
  -22.0510   -9.0540   20.4420 C   0  0  0  0  0  3  0  0  0  0  0  0
  -22.7750  -10.2450   20.2720 C   0  0  0  0  0  3  0  0  0  0  0  0
  -21.7090   -6.9480   21.4650 O   0  0  0  0  0  0  0  0  0  0  0  0
  -21.6290   -6.2180   22.6240 C   0  0  0  0  0  0  0  0  0  0  0  0
  -21.1290   -6.7740   23.8230 C   0  0  0  0  0  3  0  0  0  0  0  0
  -20.9980   -5.9680   24.9700 C   0  0  0  0  0  3  0  0  0  0  0  0
  -21.3570   -4.6070   24.9220 C   0  0  0  0  0  0  0  0  0  0  0  0
  -21.8490   -4.0510   23.7280 C   0  0  0  0  0  3  0  0  0  0  0  0
  -21.9810   -4.8530   22.5820 C   0  0  0  0  0  0  0  0  0  0  0  0
  -22.4360   -4.3070   21.4290 F   0  0  0  0  0  0  0  0  0  0  0  0
  -21.2250   -3.8320   26.0230 F   0  0  0  0  0  0  0  0  0  0  0  0
  -22.7760  -13.5920   21.2220 C   0  0  0  0  0  0  0  0  0  0  0  0
  -22.0580  -12.8820   22.0850 N   0  0  0  0  0  0  0  0  0  0  0  0
  -22.3310  -14.6240   20.7190 O   0  0  0  0  0  0  0  0  0  0  0  0
  -22.4310  -12.0490   22.5150 H   0  0  0  0  0  0  0  0  0  0  0  0
  -21.1220  -13.1800   22.3220 H   0  0  0  0  0  0  0  0  0  0  0  0
  -25.3830  -15.2820   20.3960 N   0  0  0  0  0  0  0  0  0  0  0  0
  -24.6070  -15.9260   20.5140 H   0  0  0  0  0  0  0  0  0  0  0  0
  -26.2140  -15.7280   20.0350 H   0  0  0  0  0  0  0  0  0  0  0  0
  -28.9210  -23.3350   20.2630 C   0  0  0  0  0  0  0  0  0  0  0  0
  -30.1160  -23.5990   20.0960 O   0  0  0  0  0  0  0  0  0  0  0  0
  -27.1300  -24.4900   21.7550 C   0  0  0  0  0  1  0  0  0  0  0  0
  -27.8370  -24.6150   20.3920 C   0  0  0  0  0  3  0  0  0  0  0  0
  -28.2020  -26.1500   20.2520 O   0  0  0  0  0  0  0  0  0  0  0  0
  -24.6000  -31.9070   23.2440 C   0  0  0  0  0  0  0  0  0  0  0  0
  -27.1680  -27.1730   20.1960 C   0  0  0  0  0  0  0  0  0  0  0  0
  -23.3980  -30.5160   21.6040 C   0  0  0  0  0  3  0  0  0  0  0  0
  -24.8430  -28.9440   20.1710 C   0  0  0  0  0  0  0  0  0  0  0  0
  -25.9550  -30.7720   21.4370 C   0  0  0  0  0  2  0  0  0  0  0  0
  -26.0270  -29.3790   20.7810 C   0  0  0  0  0  0  0  0  0  0  0  0
  -27.1900  -28.5120   20.7750 C   0  0  0  0  0  3  0  0  0  0  0  0
  -25.9580  -26.8560   19.5370 C   0  0  0  0  0  3  0  0  0  0  0  0
  -24.8250  -27.6970   19.5320 C   0  0  0  0  0  3  0  0  0  0  0  0
  -23.6160  -29.8430   20.2230 C   0  0  0  0  0  2  0  0  0  0  0  0
  -24.6720  -31.0880   22.1500 N   0  0  0  0  0  0  0  0  0  0  0  0
  -23.5140  -32.1910   23.7730 O   0  0  0  0  0  0  0  0  0  0  0  0
  -22.7190  -29.5080   22.5650 C   0  0  0  0  0  0  0  0  0  0  0  0
  -21.3910  -29.3340   22.4370 N   0  0  0  0  0  0  0  0  0  0  0  0
  -23.3910  -28.8840   23.3910 O   0  0  0  0  0  0  0  0  0  0  0  0
  -20.9060  -29.8880   21.7440 H   0  0  0  0  0  0  0  0  0  0  0  0
  -18.0110  -28.1290   22.9410 C   0  0  0  0  0  0  0  0  0  0  0  0
  -20.5700  -28.3960   23.2080 C   0  0  0  0  0  3  0  0  0  0  0  0
  -20.6740  -26.9640   22.6310 C   0  0  0  0  0  2  0  0  0  0  0  0
  -19.5730  -26.6410   21.6170 C   0  0  0  0  0  2  0  0  0  0  0  0
  -18.1910  -26.7820   22.2620 C   0  0  0  0  0  2  0  0  0  0  0  0
  -19.1290  -28.8940   23.3700 C   0  0  0  0  0  0  0  0  0  0  0  0
  -18.9060  -30.1540   23.9670 C   0  0  0  0  0  3  0  0  0  0  0  0
  -17.6000  -30.6490   24.1380 C   0  0  0  0  0  3  0  0  0  0  0  0
  -16.4980  -29.8820   23.7240 C   0  0  0  0  0  3  0  0  0  0  0  0
  -16.7040  -28.6240   23.1300 C   0  0  0  0  0  3  0  0  0  0  0  0
  -25.8790  -32.5410   23.8700 C   0  0  0  0  0  3  0  0  0  0  0  0
  -26.3870  -31.7740   25.1530 C   0  0  1  0  0  0  0  0  0  0  0  0
  -25.2870  -31.5430   26.2170 C   0  0  0  0  0  1  0  0  0  0  0  0
  -26.9700  -30.3930   24.7750 C   0  0  0  0  0  1  0  0  0  0  0  0
  -27.5350  -32.5680   25.8180 C   0  0  0  0  0  1  0  0  0  0  0  0
  -25.5680  -33.9420   24.2040 N   0  0  0  0  0  0  0  0  0  0  0  0
  -25.8860  -34.9980   23.4420 C   0  0  0  0  0  0  0  0  0  0  0  0
  -26.5370  -34.8950   22.3990 O   0  0  0  0  0  0  0  0  0  0  0  0
  -24.9870  -34.0940   25.0140 H   0  0  0  0  0  0  0  0  0  0  0  0
  -24.1440  -36.7880   23.1280 C   0  0  0  0  0  1  0  0  0  0  0  0
  -25.4060  -36.3870   23.9100 C   0  0  0  0  0  3  0  0  0  0  0  0
  -27.5530  -37.2830   24.6940 C   0  0  0  0  0  1  0  0  0  0  0  0
  -26.4320  -37.4430   23.7710 N   0  0  0  0  0  0  0  0  0  0  0  0
  -26.0260  -38.3620   23.9200 H   0  0  0  0  0  0  0  0  0  0  0  0
  3  2  1  0
  5  2  1  0
  5  4  1  0
  6 18  1  0
  6  5  1  0
  7  3  1  0
  7  6  1  0
  7  8  1  0
  8  1  1  0
  8  4  1  0
  8  9  1  6
 10 18  1  0
 11 16  1  0
 12 13  1  0
 12 11  1  0
 14 13  1  0
 14 23  1  0
 14 15  1  0
 16 10  1  0
 16 15  1  0
 17 10  2  0
 18 19  1  0
 20 21  2  0
 21 40  1  0
 22 21  1  0
 22 25  1  0
 23 24  1  0
 23 20  1  0
 24 22  2  0
 25 26  1  0
 26 27  2  0
 28 31  1  0
 28 27  1  0
 29 28  2  0
 30 29  1  0
 30 25  2  0
 31 32  1  0
 32 33  1  0
 33 34  2  0
 35 34  1  0
 35 39  1  0
 36 35  2  0
 37 32  2  0
 37 36  1  0
 38 37  1  0
 40 41  1  0
 41 44  1  0
 41 43  1  0
 42 40  2  0
 45 46  1  0
 45 20  1  0
 47 45  1  0
 48  1  1  0
 48 51  1  0
 49 48  2  0
 51 50  1  0
 52 51  1  0
 53 64  2  0
 54 52  1  0
 54 59  1  0
 55 63  1  0
 55 65  1  0
 56 62  1  0
 56 58  1  0
 57 63  1  0
 58 57  1  0
 59 58  2  0
 60 54  2  0
 61 60  1  0
 61 56  2  0
 62 55  1  0
 63 53  1  0
 65 67  2  0
 66 65  1  0
 68 66  1  0
 69 78  2  0
 69 74  1  0
 70 66  1  0
 70 74  1  0
 71 70  1  0
 72 73  1  0
 72 71  1  0
 73 69  1  0
 74 75  2  0
 75 76  1  0
 77 76  2  0
 78 77  1  0
 79 53  1  0
 79 84  1  0
 79 80  1  0
 80 83  1  1
 80 81  1  0
 82 80  1  0
 84 87  1  0
 85 89  1  0
 85 84  1  0
 86 85  2  0
 89 88  1  0
 91 89  1  0
 91 92  1  0
 91 90  1  0
M  ISO  4  10 100  18 100  51 101  52 101
M  END
>  <TORSDO>  (44) 
F 19

>  <SCORE>  (44) 
-14.318

>  <name>  (44) 
43

>  <ligand_id>  (44) 
43

>  <original_smiles>  (44) 
[H]c1c([H])c([H])c2c(c1[H])C([H])([H])C([H])([H])C([H])([H])C2([H])N([H])C(=O)C1([H])N(C(=O)C([H])(N([H])C(=O)C([H])(N([H])C([H])([H])[H])C([H])([H])[H])C(C([H])([H])[H])(C([H])([H])[H])C([H])([H])[H])C([H])([H])c2c([H])c(OC([H])(C(=O)C([H])([H])[N+]3([H])C([H])([H])C4([H])C([H])([H])C([H])([H])C3([H])C4([H])N([H])C(=O)N3C([H])([H])C([H])([H])C([H])([H])C([H])(n4nc(-c5c([H])c([H])c(Oc6c([H])c([H])c(F)c([H])c6F)c([H])c5[H])c(C(=O)N([H])[H])c4N([H])[H])C3([H])[H])C([H])([H])[H])c([H])c([H])c2C1([H])[H]

>  <smiles>  (44) 
[H]c1c([H])c([H])c2c(c1[H])C([H])([H])C([H])([H])C([H])([H])C2([H])N([H])C(=O)C1([H])N(C(=O)C([H])(N([H])C(=O)C([H])(N([H])C([H])([H])[H])C([H])([H])[H])C(C([H])([H])[H])(C([H])([H])[H])C([H])([H])[H])C([H])([H])c2c([H])c(OC([H])(C(=O)C([H])([H])[N+]3([H])C([H])([H])C4([H])C([H])([H])C([H])([H])C3([H])C4([H])N([H])C(=O)N3C([H])([H])C([H])([H])C([H])([H])C([H])(n4nc(-c5c([H])c([H])c(Oc6c([H])c([H])c(F)c([H])c6F)c([H])c5[H])c(C(=O)N([H])[H])c4N([H])[H])C3([H])[H])C([H])([H])[H])c([H])c([H])c2C1([H])[H]

$$$$
44:0:0
     RDKit          3D

 89 97  0  0  1  0  0  0  0  0999 V2000
  -29.5970  -20.7510   18.9270 C   0  0  0  0  0  3  0  0  0  0  0  0
  -29.2710  -22.3430   21.1140 C   0  0  0  0  0  3  0  0  0  0  0  0
  -29.1690  -22.1700   18.8130 C   0  0  0  0  0  0  0  0  0  0  0  0
  -29.7010  -20.9200   21.2250 C   0  0  0  0  0  0  0  0  0  0  0  0
  -29.8910  -19.9790   20.1260 C   0  0  0  0  0  0  0  0  0  0  0  0
  -28.9750  -23.1120   19.9130 C   0  0  0  0  0  0  0  0  0  0  0  0
  -28.8720  -22.6700   17.4080 C   0  0  0  0  0  1  0  0  0  0  0  0
  -29.9890  -20.4120   22.6270 C   0  0  0  0  0  1  0  0  0  0  0  0
  -30.6560  -18.4160   20.1350 C   0  0  0  0  0  2  0  0  0  0  0  0
  -30.9890  -15.5670   20.2050 C   0  0  0  0  0  0  0  0  0  0  0  0
  -30.9710  -13.1080   19.4220 C   0  0  0  0  0  2  0  0  0  0  0  0
  -30.0500  -12.8550   18.2030 C   0  0  0  0  0  2  0  0  0  0  0  0
  -28.6050  -12.5890   18.6580 C   0  0  0  0  0  2  0  0  0  0  0  0
  -28.1430  -13.5890   19.7490 C   0  0  0  0  0  3  0  0  0  0  0  0
  -29.1940  -13.7920   20.8620 C   0  0  0  0  0  2  0  0  0  0  0  0
  -30.4200  -14.2690   20.2040 N   0  0  0  0  0  0  0  0  0  0  0  0
  -32.2060  -15.5720   19.9820 O   0  0  0  0  0  0  0  0  0  0  0  0
  -30.2350  -16.8300   20.2490 N   0  0  0  0  0  0  0  0  0  0  0  0
  -29.2440  -16.6860   20.3740 H   0  0  0  0  0  0  0  0  0  0  0  0
  -25.7890  -14.1370   20.5650 C   0  0  0  0  0  0  0  0  0  0  0  0
  -24.7310  -13.3540   20.9310 C   0  0  0  0  0  0  0  0  0  0  0  0
  -25.1930  -12.0030   20.8530 C   0  0  0  0  0  0  0  0  0  0  0  0
  -26.8240  -13.2660   20.2760 N   0  0  0  0  0  0  0  0  0  0  0  0
  -26.4790  -11.9740   20.5180 N   0  0  0  0  0  0  0  0  0  0  0  0
  -24.4650  -10.7380   21.0180 C   0  0  0  0  0  0  0  0  0  0  0  0
  -24.8660   -9.7700   21.9640 C   0  0  0  0  0  3  0  0  0  0  0  0
  -24.1330   -8.5720   22.1200 C   0  0  0  0  0  3  0  0  0  0  0  0
  -22.9850   -8.3340   21.3260 C   0  0  0  0  0  0  0  0  0  0  0  0
  -22.6040   -9.2910   20.3690 C   0  0  0  0  0  3  0  0  0  0  0  0
  -23.3380  -10.4790   20.2120 C   0  0  0  0  0  3  0  0  0  0  0  0
  -22.2280   -7.1890   21.3880 O   0  0  0  0  0  0  0  0  0  0  0  0
  -22.0520   -6.5060   22.5640 C   0  0  0  0  0  0  0  0  0  0  0  0
  -21.4570   -7.1090   23.6930 C   0  0  0  0  0  3  0  0  0  0  0  0
  -21.2310   -6.3490   24.8590 C   0  0  0  0  0  3  0  0  0  0  0  0
  -21.5930   -4.9900   24.8960 C   0  0  0  0  0  0  0  0  0  0  0  0
  -22.1820   -4.3860   23.7710 C   0  0  0  0  0  3  0  0  0  0  0  0
  -22.4080   -5.1430   22.6070 C   0  0  0  0  0  0  0  0  0  0  0  0
  -22.9570   -4.5510   21.5180 F   0  0  0  0  0  0  0  0  0  0  0  0
  -21.3700   -4.2580   26.0130 F   0  0  0  0  0  0  0  0  0  0  0  0
  -23.3400  -13.8280   21.2350 C   0  0  0  0  0  0  0  0  0  0  0  0
  -22.6280  -13.1180   22.1020 N   0  0  0  0  0  0  0  0  0  0  0  0
  -22.8960  -14.8620   20.7390 O   0  0  0  0  0  0  0  0  0  0  0  0
  -23.0020  -12.2790   22.5220 H   0  0  0  0  0  0  0  0  0  0  0  0
  -21.6970  -13.4170   22.3510 H   0  0  0  0  0  0  0  0  0  0  0  0
  -25.9520  -15.5120   20.4220 N   0  0  0  0  0  0  0  0  0  0  0  0
  -25.1890  -16.1640   20.5710 H   0  0  0  0  0  0  0  0  0  0  0  0
  -26.7870  -15.9580   20.0640 H   0  0  0  0  0  0  0  0  0  0  0  0
  -28.1640  -24.6470   19.8310 C   0  0  0  0  0  2  0  0  0  0  0  0
  -28.5350  -26.2100   20.0670 O   0  0  0  0  0  0  0  0  0  0  0  0
  -24.8140  -31.8730   23.3490 C   0  0  0  0  0  0  0  0  0  0  0  0
  -27.5210  -27.2950   20.0510 C   0  0  0  0  0  0  0  0  0  0  0  0
  -23.6840  -30.5870   21.5810 C   0  0  0  0  0  3  0  0  0  0  0  0
  -25.1940  -29.1190   20.0860 C   0  0  0  0  0  0  0  0  0  0  0  0
  -26.2500  -30.8490   21.5210 C   0  0  0  0  0  2  0  0  0  0  0  0
  -26.3590  -29.4960   20.7670 C   0  0  0  0  0  0  0  0  0  0  0  0
  -27.5180  -28.6050   20.7320 C   0  0  0  0  0  3  0  0  0  0  0  0
  -26.3250  -27.0690   19.3310 C   0  0  0  0  0  3  0  0  0  0  0  0
  -25.2000  -27.9250   19.3530 C   0  0  0  0  0  3  0  0  0  0  0  0
  -23.9590  -30.0120   20.1660 C   0  0  0  0  0  2  0  0  0  0  0  0
  -24.9360  -31.1230   22.2070 N   0  0  0  0  0  0  0  0  0  0  0  0
  -23.7070  -32.1120   23.8570 O   0  0  0  0  0  0  0  0  0  0  0  0
  -22.9790  -29.5130   22.4510 C   0  0  0  0  0  0  0  0  0  0  0  0
  -21.6570  -29.3380   22.2700 N   0  0  0  0  0  0  0  0  0  0  0  0
  -23.6280  -28.8420   23.2570 O   0  0  0  0  0  0  0  0  0  0  0  0
  -21.1860  -29.9310   21.6010 H   0  0  0  0  0  0  0  0  0  0  0  0
  -18.2780  -28.0540   22.5800 C   0  0  0  0  0  0  0  0  0  0  0  0
  -20.8240  -28.3360   22.9480 C   0  0  0  0  0  3  0  0  0  0  0  0
  -20.9680  -26.9500   22.2800 C   0  0  0  0  0  2  0  0  0  0  0  0
  -19.9040  -26.6820   21.2110 C   0  0  0  0  0  2  0  0  0  0  0  0
  -18.5000  -26.7600   21.8160 C   0  0  0  0  0  2  0  0  0  0  0  0
  -19.3700  -28.8020   23.0980 C   0  0  0  0  0  0  0  0  0  0  0  0
  -19.1070  -30.0130   23.7750 C   0  0  0  0  0  3  0  0  0  0  0  0
  -17.7880  -30.4780   23.9360 C   0  0  0  0  0  3  0  0  0  0  0  0
  -16.7110  -29.7260   23.4350 C   0  0  0  0  0  3  0  0  0  0  0  0
  -16.9580  -28.5150   22.7620 C   0  0  0  0  0  3  0  0  0  0  0  0
  -26.0590  -32.4800   24.0620 C   0  0  0  0  0  3  0  0  0  0  0  0
  -25.7360  -33.8690   24.4370 N   0  0  0  0  0  0  0  0  0  0  0  0
  -26.0710  -34.9520   23.7250 C   0  0  0  0  0  0  0  0  0  0  0  0
  -26.7500  -34.8890   22.6970 O   0  0  0  0  0  0  0  0  0  0  0  0
  -25.1360  -33.9920   25.2380 H   0  0  0  0  0  0  0  0  0  0  0  0
  -24.3290  -36.7490   23.4450 C   0  0  0  0  0  1  0  0  0  0  0  0
  -25.5780  -36.3230   24.2330 C   0  0  0  0  0  3  0  0  0  0  0  0
  -27.7050  -37.2030   25.0880 C   0  0  0  0  0  1  0  0  0  0  0  0
  -26.6010  -37.3890   24.1510 N   0  0  0  0  0  0  0  0  0  0  0  0
  -26.1860  -38.3000   24.3290 H   0  0  0  0  0  0  0  0  0  0  0  0
  -26.5030  -31.6630   25.3370 C   0  0  1  0  0  0  0  0  0  0  0  0
  -25.3540  -31.4000   26.3390 C   0  0  0  0  0  1  0  0  0  0  0  0
  -27.0940  -30.2930   24.9330 C   0  0  0  0  0  1  0  0  0  0  0  0
  -27.6280  -32.4210   26.0820 C   0  0  0  0  0  1  0  0  0  0  0  0
  1  5  1  0
  2  4  1  0
  3  1  2  0
  3  6  1  0
  4  8  1  0
  5  9  1  0
  5  4  2  0
  6  2  2  0
  7  3  1  0
  9 18  1  0
 10 18  1  0
 11 16  1  0
 12 13  1  0
 12 11  1  0
 14 13  1  0
 14 23  1  0
 14 15  1  0
 16 10  1  0
 16 15  1  0
 17 10  2  0
 18 19  1  0
 20 21  2  0
 21 40  1  0
 22 21  1  0
 22 25  1  0
 23 24  1  0
 23 20  1  0
 24 22  2  0
 25 26  1  0
 26 27  2  0
 28 31  1  0
 28 27  1  0
 29 28  2  0
 30 29  1  0
 30 25  2  0
 31 32  1  0
 32 37  2  0
 32 33  1  0
 33 34  2  0
 34 35  1  0
 35 39  1  0
 36 35  2  0
 37 36  1  0
 38 37  1  0
 40 41  1  0
 41 44  1  0
 41 43  1  0
 42 40  2  0
 45 20  1  0
 45 46  1  0
 47 45  1  0
 48  6  1  0
 48 49  1  0
 50 61  2  0
 51 49  1  0
 51 56  1  0
 52 60  1  0
 52 62  1  0
 53 59  1  0
 53 55  1  0
 54 60  1  0
 55 54  1  0
 56 55  2  0
 57 58  1  0
 57 51  2  0
 58 53  2  0
 59 52  1  0
 60 50  1  0
 62 64  2  0
 63 62  1  0
 65 63  1  0
 66 75  2  0
 66 71  1  0
 67 63  1  0
 67 71  1  0
 68 67  1  0
 69 70  1  0
 69 68  1  0
 70 66  1  0
 71 72  2  0
 72 73  1  0
 74 73  2  0
 75 74  1  0
 76 50  1  0
 76 77  1  0
 76 86  1  0
 77 80  1  0
 78 82  1  0
 78 77  1  0
 79 78  2  0
 82 81  1  0
 84 82  1  0
 84 85  1  0
 84 83  1  0
 86 89  1  1
 86 87  1  0
 88 86  1  0
M  ISO  4  10 100  18 100  48 101  49 101
M  END
>  <TORSDO>  (45) 
F 18

>  <SCORE>  (45) 
-14.451

>  <name>  (45) 
44

>  <ligand_id>  (45) 
44

>  <original_smiles>  (45) 
[H]c1c([H])c([H])c2c(c1[H])C([H])([H])C([H])([H])C([H])([H])C2([H])N([H])C(=O)C1([H])N(C(=O)C([H])(N([H])C(=O)C([H])(N([H])C([H])([H])[H])C([H])([H])[H])C(C([H])([H])[H])(C([H])([H])[H])C([H])([H])[H])C([H])([H])c2c([H])c(OC([H])([H])c3c([H])c(C([H])([H])[H])c(C([H])([H])N([H])C(=O)N4C([H])([H])C([H])([H])C([H])([H])C([H])(n5nc(-c6c([H])c([H])c(Oc7c([H])c([H])c(F)c([H])c7F)c([H])c6[H])c(C(=O)N([H])[H])c5N([H])[H])C4([H])[H])c([H])c3C([H])([H])[H])c([H])c([H])c2C1([H])[H]

>  <smiles>  (45) 
[H]c1c([H])c([H])c2c(c1[H])C([H])([H])C([H])([H])C([H])([H])C2([H])N([H])C(=O)C1([H])N(C(=O)C([H])(N([H])C(=O)C([H])(N([H])C([H])([H])[H])C([H])([H])[H])C(C([H])([H])[H])(C([H])([H])[H])C([H])([H])[H])C([H])([H])c2c([H])c(OC([H])([H])c3c([H])c(C([H])([H])[H])c(C([H])([H])N([H])C(=O)N4C([H])([H])C([H])([H])C([H])([H])C([H])(n5nc(-c6c([H])c([H])c(Oc7c([H])c([H])c(F)c([H])c7F)c([H])c6[H])c(C(=O)N([H])[H])c5N([H])[H])C4([H])[H])c([H])c3C([H])([H])[H])c([H])c([H])c2C1([H])[H]

$$$$
45:0:0
     RDKit          3D

 88 96  0  0  1  0  0  0  0  0999 V2000
  -29.3180  -19.9940   18.6980 C   0  0  0  0  0  3  0  0  0  0  0  0
  -28.7740  -22.4660   18.6780 C   0  0  0  0  0  3  0  0  0  0  0  0
  -28.8880  -21.2130   20.7300 C   0  0  0  0  0  3  0  0  0  0  0  0
  -29.1000  -21.2360   18.0270 C   0  0  0  0  0  0  0  0  0  0  0  0
  -29.2560  -19.8370   20.0980 C   0  0  0  0  0  0  0  0  0  0  0  0
  -28.6240  -22.6020   20.0750 C   0  0  0  0  0  0  0  0  0  0  0  0
  -29.2150  -21.2450   16.5150 C   0  0  0  0  0  1  0  0  0  0  0  0
  -29.7480  -18.2580   20.7410 C   0  0  0  0  0  2  0  0  0  0  0  0
  -30.3480  -15.3310   20.3170 C   0  0  0  0  0  0  0  0  0  0  0  0
  -30.3580  -12.8740   19.4190 C   0  0  0  0  0  2  0  0  0  0  0  0
  -29.4450  -12.6140   18.1930 C   0  0  0  0  0  2  0  0  0  0  0  0
  -27.9990  -12.3280   18.6340 C   0  0  0  0  0  2  0  0  0  0  0  0
  -27.5300  -13.3010   19.7440 C   0  0  0  0  0  3  0  0  0  0  0  0
  -28.5720  -13.4830   20.8660 C   0  0  0  0  0  2  0  0  0  0  0  0
  -29.7840  -14.0200   20.2200 N   0  0  0  0  0  0  0  0  0  0  0  0
  -31.5820  -15.3100   20.1950 O   0  0  0  0  0  0  0  0  0  0  0  0
  -29.5780  -16.6180   20.3520 N   0  0  0  0  0  0  0  0  0  0  0  0
  -28.5970  -16.4000   20.2610 H   0  0  0  0  0  0  0  0  0  0  0  0
  -25.1540  -13.8510   20.4790 C   0  0  0  0  0  0  0  0  0  0  0  0
  -24.0930  -13.0720   20.8430 C   0  0  0  0  0  0  0  0  0  0  0  0
  -24.5670  -11.7240   20.8280 C   0  0  0  0  0  0  0  0  0  0  0  0
  -26.2030  -12.9800   20.2500 N   0  0  0  0  0  0  0  0  0  0  0  0
  -25.8620  -11.6940   20.5300 N   0  0  0  0  0  0  0  0  0  0  0  0
  -23.8430  -10.4600   21.0180 C   0  0  0  0  0  0  0  0  0  0  0  0
  -24.2660   -9.5000   21.9630 C   0  0  0  0  0  3  0  0  0  0  0  0
  -23.5390   -8.3030   22.1430 C   0  0  0  0  0  3  0  0  0  0  0  0
  -22.3750   -8.0580   21.3770 C   0  0  0  0  0  0  0  0  0  0  0  0
  -21.9710   -9.0070   20.4210 C   0  0  0  0  0  3  0  0  0  0  0  0
  -22.6990  -10.1940   20.2400 C   0  0  0  0  0  3  0  0  0  0  0  0
  -21.6210   -6.9140   21.4640 O   0  0  0  0  0  0  0  0  0  0  0  0
  -21.5600   -6.1790   22.6220 C   0  0  0  0  0  0  0  0  0  0  0  0
  -21.1160   -6.7410   23.8380 C   0  0  0  0  0  3  0  0  0  0  0  0
  -21.0020   -5.9330   24.9870 C   0  0  0  0  0  3  0  0  0  0  0  0
  -21.3220   -4.5640   24.9200 C   0  0  0  0  0  0  0  0  0  0  0  0
  -21.7600   -4.0010   23.7090 C   0  0  0  0  0  3  0  0  0  0  0  0
  -21.8740   -4.8060   22.5620 C   0  0  0  0  0  0  0  0  0  0  0  0
  -22.2760   -4.2550   21.3910 F   0  0  0  0  0  0  0  0  0  0  0  0
  -21.2070   -3.7850   26.0210 F   0  0  0  0  0  0  0  0  0  0  0  0
  -22.6900  -13.5450   21.0890 C   0  0  0  0  0  0  0  0  0  0  0  0
  -21.9530  -12.8530   21.9490 N   0  0  0  0  0  0  0  0  0  0  0  0
  -22.2580  -14.5650   20.5530 O   0  0  0  0  0  0  0  0  0  0  0  0
  -22.3170  -12.0270   22.4020 H   0  0  0  0  0  0  0  0  0  0  0  0
  -21.0120  -13.1530   22.1570 H   0  0  0  0  0  0  0  0  0  0  0  0
  -25.3080  -15.2220   20.2930 N   0  0  0  0  0  0  0  0  0  0  0  0
  -24.5340  -15.8680   20.3940 H   0  0  0  0  0  0  0  0  0  0  0  0
  -26.1480  -15.6660   19.9440 H   0  0  0  0  0  0  0  0  0  0  0  0
  -28.0020  -24.1590   20.6520 C   0  0  0  0  0  2  0  0  0  0  0  0
  -28.2250  -25.7680   20.2640 O   0  0  0  0  0  0  0  0  0  0  0  0
  -24.6240  -31.8220   23.1960 C   0  0  0  0  0  0  0  0  0  0  0  0
  -27.2120  -26.8810   20.2670 C   0  0  0  0  0  0  0  0  0  0  0  0
  -23.4520  -30.4120   21.5560 C   0  0  0  0  0  3  0  0  0  0  0  0
  -24.9180  -28.7860   20.1730 C   0  0  0  0  0  0  0  0  0  0  0  0
  -26.0230  -30.6120   21.4420 C   0  0  0  0  0  2  0  0  0  0  0  0
  -26.1020  -29.1910   20.8030 C   0  0  0  0  0  0  0  0  0  0  0  0
  -27.2470  -28.2630   20.8170 C   0  0  0  0  0  3  0  0  0  0  0  0
  -25.9950  -26.6370   19.5930 C   0  0  0  0  0  3  0  0  0  0  0  0
  -24.8920  -27.5300   19.5450 C   0  0  0  0  0  3  0  0  0  0  0  0
  -23.7010  -29.7140   20.1910 C   0  0  0  0  0  2  0  0  0  0  0  0
  -24.7210  -30.9770   22.1180 N   0  0  0  0  0  0  0  0  0  0  0  0
  -23.5270  -32.1160   23.7000 O   0  0  0  0  0  0  0  0  0  0  0  0
  -22.7430  -29.4260   22.5220 C   0  0  0  0  0  0  0  0  0  0  0  0
  -21.4110  -29.2750   22.3940 N   0  0  0  0  0  0  0  0  0  0  0  0
  -23.3990  -28.7980   23.3560 O   0  0  0  0  0  0  0  0  0  0  0  0
  -20.9340  -29.8330   21.7000 H   0  0  0  0  0  0  0  0  0  0  0  0
  -18.0140  -28.1040   22.9090 C   0  0  0  0  0  0  0  0  0  0  0  0
  -20.5780  -28.3460   23.1650 C   0  0  0  0  0  3  0  0  0  0  0  0
  -20.6620  -26.9130   22.5880 C   0  0  0  0  0  2  0  0  0  0  0  0
  -19.5540  -26.6040   21.5770 C   0  0  0  0  0  2  0  0  0  0  0  0
  -18.1760  -26.7580   22.2250 C   0  0  0  0  0  2  0  0  0  0  0  0
  -19.1410  -28.8570   23.3370 C   0  0  0  0  0  0  0  0  0  0  0  0
  -18.9330  -30.1160   23.9410 C   0  0  0  0  0  3  0  0  0  0  0  0
  -17.6320  -30.6230   24.1190 C   0  0  0  0  0  3  0  0  0  0  0  0
  -16.5200  -29.8700   23.7050 C   0  0  0  0  0  3  0  0  0  0  0  0
  -16.7120  -28.6120   23.1070 C   0  0  0  0  0  3  0  0  0  0  0  0
  -25.8850  -32.4720   23.8420 C   0  0  0  0  0  3  0  0  0  0  0  0
  -25.5600  -33.8750   24.1620 N   0  0  0  0  0  0  0  0  0  0  0  0
  -25.9010  -34.9330   23.4150 C   0  0  0  0  0  0  0  0  0  0  0  0
  -26.5850  -34.8320   22.3920 O   0  0  0  0  0  0  0  0  0  0  0  0
  -24.9550  -34.0260   24.9550 H   0  0  0  0  0  0  0  0  0  0  0  0
  -24.1800  -36.7340   23.0490 C   0  0  0  0  0  1  0  0  0  0  0  0
  -25.4110  -36.3220   23.8710 C   0  0  0  0  0  3  0  0  0  0  0  0
  -27.5360  -37.2100   24.7290 C   0  0  0  0  0  1  0  0  0  0  0  0
  -26.4460  -37.3770   23.7710 N   0  0  0  0  0  0  0  0  0  0  0  0
  -26.0380  -38.2970   23.9110 H   0  0  0  0  0  0  0  0  0  0  0  0
  -26.3710  -31.7210   25.1430 C   0  0  1  0  0  0  0  0  0  0  0  0
  -25.2560  -31.5020   26.1930 C   0  0  0  0  0  1  0  0  0  0  0  0
  -26.9600  -30.3350   24.7940 C   0  0  0  0  0  1  0  0  0  0  0  0
  -27.5100  -32.5230   25.8150 C   0  0  0  0  0  1  0  0  0  0  0  0
  1  5  1  0
  2  6  2  0
  4  2  1  0
  4  1  2  0
  5  3  2  0
  5  8  1  0
  6 47  1  0
  6  3  1  0
  7  4  1  0
  9 17  1  0
 10 15  1  0
 11 12  1  0
 11 10  1  0
 13 12  1  0
 13 22  1  0
 13 14  1  0
 15  9  1  0
 15 14  1  0
 16  9  2  0
 17  8  1  0
 18 17  1  0
 19 20  2  0
 20 39  1  0
 21 20  1  0
 21 24  1  0
 22 19  1  0
 22 23  1  0
 23 21  2  0
 24 25  1  0
 25 26  2  0
 27 30  1  0
 27 26  1  0
 28 27  2  0
 29 28  1  0
 29 24  2  0
 30 31  1  0
 31 32  1  0
 32 33  2  0
 34 33  1  0
 34 38  1  0
 35 34  2  0
 36 31  2  0
 36 35  1  0
 37 36  1  0
 39 40  1  0
 40 43  1  0
 40 42  1  0
 41 39  2  0
 44 45  1  0
 44 19  1  0
 46 44  1  0
 48 50  1  0
 48 47  1  0
 49 60  2  0
 50 55  1  0
 51 59  1  0
 51 61  1  0
 52 58  1  0
 52 54  1  0
 53 59  1  0
 54 55  2  0
 54 53  1  0
 56 50  2  0
 57 56  1  0
 57 52  2  0
 58 51  1  0
 59 49  1  0
 61 63  2  0
 62 61  1  0
 64 62  1  0
 65 74  2  0
 65 70  1  0
 66 62  1  0
 66 70  1  0
 67 66  1  0
 68 69  1  0
 68 67  1  0
 69 65  1  0
 70 71  2  0
 71 72  1  0
 73 72  2  0
 74 73  1  0
 75 49  1  0
 75 76  1  0
 75 85  1  0
 76 79  1  0
 77 81  1  0
 77 76  1  0
 78 77  2  0
 81 80  1  0
 83 81  1  0
 83 84  1  0
 83 82  1  0
 85 88  1  1
 85 86  1  0
 87 85  1  0
M  ISO  4   9 100  17 100  47 101  48 101
M  END
>  <TORSDO>  (46) 
F 18

>  <SCORE>  (46) 
-16.464

>  <name>  (46) 
45

>  <ligand_id>  (46) 
45

>  <original_smiles>  (46) 
[H]c1c([H])c([H])c2c(c1[H])C([H])([H])C([H])([H])C([H])([H])C2([H])N([H])C(=O)C1([H])N(C(=O)C([H])(N([H])C(=O)C([H])(N([H])C([H])([H])[H])C([H])([H])[H])C(C([H])([H])[H])(C([H])([H])[H])C([H])([H])[H])C([H])([H])c2c([H])c(OC([H])([H])c3c([H])c(C([H])([H])[H])c([H])c(C([H])([H])N([H])C(=O)N4C([H])([H])C([H])([H])C([H])([H])C([H])(n5nc(-c6c([H])c([H])c(Oc7c([H])c([H])c(F)c([H])c7F)c([H])c6[H])c(C(=O)N([H])[H])c5N([H])[H])C4([H])[H])c3[H])c([H])c([H])c2C1([H])[H]

>  <smiles>  (46) 
[H]c1c([H])c([H])c2c(c1[H])C([H])([H])C([H])([H])C([H])([H])C2([H])N([H])C(=O)C1([H])N(C(=O)C([H])(N([H])C(=O)C([H])(N([H])C([H])([H])[H])C([H])([H])[H])C(C([H])([H])[H])(C([H])([H])[H])C([H])([H])[H])C([H])([H])c2c([H])c(OC([H])([H])c3c([H])c(C([H])([H])[H])c([H])c(C([H])([H])N([H])C(=O)N4C([H])([H])C([H])([H])C([H])([H])C([H])(n5nc(-c6c([H])c([H])c(Oc7c([H])c([H])c(F)c([H])c7F)c([H])c6[H])c(C(=O)N([H])[H])c5N([H])[H])C4([H])[H])c3[H])c([H])c([H])c2C1([H])[H]

$$$$
46:0:0
     RDKit          3D

 91 99  0  0  1  0  0  0  0  0999 V2000
  -28.5740  -21.8170   20.2360 C   0  0  0  0  0  3  0  0  0  0  0  0
  -27.4600  -21.5530   21.1720 N   0  0  0  0  0  4  0  0  0  0  0  0
  -27.7570  -21.6360   22.1280 H   0  0  0  0  0  0  0  0  0  0  0  0
  -27.1010  -20.6250   21.0310 H   0  0  0  0  0  0  0  0  0  0  0  0
  -26.7000  -22.1930   21.0230 H   0  0  0  0  0  0  0  0  0  0  0  0
  -29.6550  -20.5240   20.3050 C   0  0  0  0  0  2  0  0  0  0  0  0
  -29.2640  -18.9330   20.1050 C   0  0  0  0  0  0  0  0  0  0  0  0
  -28.0750  -18.7100   19.8640 O   0  0  0  0  0  0  0  0  0  0  0  0
  -30.6950  -14.9960   19.9580 C   0  0  0  0  0  0  0  0  0  0  0  0
  -30.4850  -12.6850   18.9420 C   0  0  0  0  0  2  0  0  0  0  0  0
  -29.4690  -12.6810   17.7770 C   0  0  0  0  0  2  0  0  0  0  0  0
  -28.0390  -12.4590   18.3060 C   0  0  0  0  0  2  0  0  0  0  0  0
  -27.7210  -13.3470   19.5370 C   0  0  0  0  0  3  0  0  0  0  0  0
  -28.8490  -13.3220   20.5860 C   0  0  0  0  0  2  0  0  0  0  0  0
  -30.0790  -13.7490   19.9040 N   0  0  0  0  0  0  0  0  0  0  0  0
  -31.8310  -15.0880   19.4830 O   0  0  0  0  0  0  0  0  0  0  0  0
  -30.8350  -17.5210   21.6870 C   0  0  0  0  0  2  0  0  0  0  0  0
  -29.8110  -16.3860   21.7960 C   0  0  0  0  0  2  0  0  0  0  0  0
  -30.3530  -17.7080   20.2530 C   0  0  0  0  0  3  0  0  0  0  0  0
  -29.9870  -16.1680   20.3520 N   0  0  0  0  0  0  0  0  0  0  0  0
  -25.4040  -13.8960   20.4740 C   0  0  0  0  0  0  0  0  0  0  0  0
  -24.3660  -13.1060   20.8860 C   0  0  0  0  0  0  0  0  0  0  0  0
  -24.8210  -11.7570   20.7620 C   0  0  0  0  0  0  0  0  0  0  0  0
  -26.4220  -13.0280   20.1170 N   0  0  0  0  0  0  0  0  0  0  0  0
  -26.0840  -11.7330   20.3550 N   0  0  0  0  0  0  0  0  0  0  0  0
  -24.1050  -10.4890   20.9520 C   0  0  0  0  0  0  0  0  0  0  0  0
  -24.5480   -9.5210   21.8810 C   0  0  0  0  0  3  0  0  0  0  0  0
  -23.8320   -8.3170   22.0580 C   0  0  0  0  0  3  0  0  0  0  0  0
  -22.6590   -8.0720   21.3060 C   0  0  0  0  0  0  0  0  0  0  0  0
  -22.2340   -9.0290   20.3660 C   0  0  0  0  0  3  0  0  0  0  0  0
  -22.9510  -10.2240   20.1870 C   0  0  0  0  0  3  0  0  0  0  0  0
  -21.9130   -6.9220   21.3930 O   0  0  0  0  0  0  0  0  0  0  0  0
  -21.7990   -6.2250   22.5680 C   0  0  0  0  0  0  0  0  0  0  0  0
  -21.2840   -6.8210   23.7400 C   0  0  0  0  0  3  0  0  0  0  0  0
  -21.1190   -6.0510   24.9090 C   0  0  0  0  0  3  0  0  0  0  0  0
  -21.4570   -4.6840   24.9050 C   0  0  0  0  0  0  0  0  0  0  0  0
  -21.9650   -4.0870   23.7370 C   0  0  0  0  0  3  0  0  0  0  0  0
  -22.1320   -4.8560   22.5720 C   0  0  0  0  0  0  0  0  0  0  0  0
  -22.6030   -4.2700   21.4440 F   0  0  0  0  0  0  0  0  0  0  0  0
  -21.2910   -3.9410   26.0250 F   0  0  0  0  0  0  0  0  0  0  0  0
  -22.9960  -13.5730   21.2810 C   0  0  0  0  0  0  0  0  0  0  0  0
  -22.3380  -12.8490   22.1800 N   0  0  0  0  0  0  0  0  0  0  0  0
  -22.5210  -14.6150   20.8310 O   0  0  0  0  0  0  0  0  0  0  0  0
  -22.7360  -12.0080   22.5680 H   0  0  0  0  0  0  0  0  0  0  0  0
  -21.4220  -13.1450   22.4880 H   0  0  0  0  0  0  0  0  0  0  0  0
  -25.5610  -15.2730   20.3500 N   0  0  0  0  0  0  0  0  0  0  0  0
  -24.8150  -15.9270   20.5570 H   0  0  0  0  0  0  0  0  0  0  0  0
  -26.4030  -15.7270   20.0130 H   0  0  0  0  0  0  0  0  0  0  0  0
  -29.0110  -23.4430   20.3700 C   0  0  0  0  0  3  0  0  0  0  0  0
  -27.9910  -24.7510   20.0970 C   0  0  0  0  0  3  0  0  0  0  0  0
  -28.2790  -26.2630   20.2840 O   0  0  0  0  0  0  0  0  0  0  0  0
  -24.6320  -31.8910   23.2920 C   0  0  0  0  0  0  0  0  0  0  0  0
  -27.2180  -27.2340   20.2170 C   0  0  0  0  0  0  0  0  0  0  0  0
  -23.4340  -30.5110   21.6390 C   0  0  0  0  0  3  0  0  0  0  0  0
  -24.8840  -28.9610   20.1960 C   0  0  0  0  0  0  0  0  0  0  0  0
  -25.9850  -30.7920   21.4720 C   0  0  0  0  0  2  0  0  0  0  0  0
  -26.0630  -29.4080   20.8070 C   0  0  0  0  0  0  0  0  0  0  0  0
  -27.2320  -28.5620   20.7990 C   0  0  0  0  0  3  0  0  0  0  0  0
  -26.0120  -26.8850   19.5670 C   0  0  0  0  0  3  0  0  0  0  0  0
  -24.8720  -27.7130   19.5590 C   0  0  0  0  0  3  0  0  0  0  0  0
  -23.6540  -29.8510   20.2530 C   0  0  0  0  0  2  0  0  0  0  0  0
  -24.7040  -31.0840   22.1900 N   0  0  0  0  0  0  0  0  0  0  0  0
  -23.5470  -32.1680   23.8250 O   0  0  0  0  0  0  0  0  0  0  0  0
  -22.7590  -29.4900   22.5900 C   0  0  0  0  0  0  0  0  0  0  0  0
  -21.4340  -29.3080   22.4540 N   0  0  0  0  0  0  0  0  0  0  0  0
  -23.4320  -28.8630   23.4130 O   0  0  0  0  0  0  0  0  0  0  0  0
  -20.9470  -29.8670   21.7680 H   0  0  0  0  0  0  0  0  0  0  0  0
  -18.0610  -28.0790   22.9340 C   0  0  0  0  0  0  0  0  0  0  0  0
  -20.6160  -28.3600   23.2140 C   0  0  0  0  0  3  0  0  0  0  0  0
  -20.7330  -26.9320   22.6310 C   0  0  0  0  0  2  0  0  0  0  0  0
  -19.6360  -26.6010   21.6140 C   0  0  0  0  0  2  0  0  0  0  0  0
  -18.2520  -26.7330   22.2560 C   0  0  0  0  0  2  0  0  0  0  0  0
  -19.1710  -28.8490   23.3700 C   0  0  0  0  0  0  0  0  0  0  0  0
  -18.9380  -30.1060   23.9700 C   0  0  0  0  0  3  0  0  0  0  0  0
  -17.6280  -30.5940   24.1330 C   0  0  0  0  0  3  0  0  0  0  0  0
  -16.5330  -29.8230   23.7090 C   0  0  0  0  0  3  0  0  0  0  0  0
  -16.7490  -28.5670   23.1150 C   0  0  0  0  0  3  0  0  0  0  0  0
  -25.9110  -32.5220   23.9240 C   0  0  0  0  0  3  0  0  0  0  0  0
  -25.6050  -33.9260   24.2430 N   0  0  0  0  0  0  0  0  0  0  0  0
  -25.9290  -34.9730   23.4730 C   0  0  0  0  0  0  0  0  0  0  0  0
  -26.5840  -34.8590   22.4330 O   0  0  0  0  0  0  0  0  0  0  0  0
  -25.0230  -34.0870   25.0510 H   0  0  0  0  0  0  0  0  0  0  0  0
  -24.1900  -36.7620   23.1420 C   0  0  0  0  0  1  0  0  0  0  0  0
  -25.4530  -36.3680   23.9250 C   0  0  0  0  0  3  0  0  0  0  0  0
  -27.6050  -37.2700   24.6910 C   0  0  0  0  0  1  0  0  0  0  0  0
  -26.4800  -37.4200   23.7710 N   0  0  0  0  0  0  0  0  0  0  0  0
  -26.0780  -38.3420   23.9110 H   0  0  0  0  0  0  0  0  0  0  0  0
  -26.4040  -31.7610   25.2150 C   0  0  1  0  0  0  0  0  0  0  0  0
  -25.2970  -31.5420   26.2720 C   0  0  0  0  0  1  0  0  0  0  0  0
  -26.9820  -30.3750   24.8470 C   0  0  0  0  0  1  0  0  0  0  0  0
  -27.5520  -32.5530   25.8850 C   0  0  0  0  0  1  0  0  0  0  0  0
  1  6  1  0
  1 49  1  0
  1  2  1  0
  2  3  1  0
  4  2  1  0
  5  2  1  0
  7  6  1  0
  8  7  2  0
  9 20  1  0
 10 15  1  0
 11 12  1  0
 11 10  1  0
 13 12  1  0
 13 24  1  0
 13 14  1  0
 15  9  1  0
 15 14  1  0
 16  9  2  0
 17 18  1  0
 19  7  1  0
 19 20  1  0
 19 17  1  0
 20 18  1  0
 21 22  2  0
 22 41  1  0
 23 22  1  0
 23 26  1  0
 24 25  1  0
 24 21  1  0
 25 23  2  0
 26 27  1  0
 27 28  2  0
 29 32  1  0
 29 28  1  0
 30 29  2  0
 31 30  1  0
 31 26  2  0
 32 33  1  0
 33 38  2  0
 33 34  1  0
 34 35  2  0
 36 35  1  0
 36 40  1  0
 37 36  2  0
 38 37  1  0
 39 38  1  0
 41 42  1  0
 42 45  1  0
 42 44  1  0
 43 41  2  0
 46 21  1  0
 46 47  1  0
 48 46  1  0
 50 51  1  0
 50 49  2  0
 52 63  2  0
 53 51  1  0
 53 58  1  0
 54 62  1  0
 54 64  1  0
 55 61  1  0
 55 57  1  0
 56 62  1  0
 57 56  1  0
 58 57  2  0
 59 53  2  0
 60 59  1  0
 60 55  2  0
 61 54  1  0
 62 52  1  0
 64 66  2  0
 65 64  1  0
 67 65  1  0
 68 77  2  0
 68 73  1  0
 69 65  1  0
 69 73  1  0
 70 69  1  0
 71 72  1  0
 71 70  1  0
 72 68  1  0
 73 74  2  0
 74 75  1  0
 76 75  2  0
 77 76  1  0
 78 52  1  0
 78 79  1  0
 78 88  1  0
 79 82  1  0
 80 84  1  0
 80 79  1  0
 81 80  2  0
 84 83  1  0
 86 87  1  0
 86 84  1  0
 86 85  1  0
 88 91  1  1
 88 89  1  0
 90 88  1  0
M  ISO  4   9 100  20 100  50 101  51 101
M  END
>  <TORSDO>  (47) 
F 21

>  <SCORE>  (47) 
-13.399

>  <name>  (47) 
46

>  <ligand_id>  (47) 
46

>  <original_smiles>  (47) 
[H]c1c([H])c([H])c2c(c1[H])C([H])([H])C([H])([H])C([H])([H])C2([H])N([H])C(=O)C1([H])N(C(=O)C([H])(N([H])C(=O)C([H])(N([H])C([H])([H])[H])C([H])([H])[H])C(C([H])([H])[H])(C([H])([H])[H])C([H])([H])[H])C([H])([H])c2c([H])c(OC([H])([H])C([H])([H])C([H])(C([H])([H])C(=O)C3([H])N(C(=O)N4C([H])([H])C([H])([H])C([H])([H])C([H])(n5nc(-c6c([H])c([H])c(Oc7c([H])c([H])c(F)c([H])c7F)c([H])c6[H])c(C(=O)N([H])[H])c5N([H])[H])C4([H])[H])C([H])([H])C3([H])[H])[N+]([H])([H])[H])c([H])c([H])c2C1([H])[H]

>  <smiles>  (47) 
[H]c1c([H])c([H])c2c(c1[H])C([H])([H])C([H])([H])C([H])([H])C2([H])N([H])C(=O)C1([H])N(C(=O)C([H])(N([H])C(=O)C([H])(N([H])C([H])([H])[H])C([H])([H])[H])C(C([H])([H])[H])(C([H])([H])[H])C([H])([H])[H])C([H])([H])c2c([H])c(OC([H])([H])C([H])([H])C([H])(C([H])([H])C(=O)C3([H])N(C(=O)N4C([H])([H])C([H])([H])C([H])([H])C([H])(n5nc(-c6c([H])c([H])c(Oc7c([H])c([H])c(F)c([H])c7F)c([H])c6[H])c(C(=O)N([H])[H])c5N([H])[H])C4([H])[H])C([H])([H])C3([H])[H])[N+]([H])([H])[H])c([H])c([H])c2C1([H])[H]

$$$$
47:0:0
     RDKit          3D

 91100  0  0  1  0  0  0  0  0999 V2000
  -29.1980  -21.2720   20.4470 N   0  0  0  0  0  4  0  0  0  0  0  0
  -30.1950  -21.4130   20.5300 H   0  0  0  0  0  0  0  0  0  0  0  0
  -28.8760  -21.2450   21.4000 H   0  0  0  0  0  0  0  0  0  0  0  0
  -30.8510  -17.9860   17.8110 C   0  0  0  0  0  2  0  0  0  0  0  0
  -31.6130  -19.6830   18.6550 C   0  0  0  0  0  2  0  0  0  0  0  0
  -29.0070  -19.7550   18.3560 C   0  0  0  0  0  2  0  0  0  0  0  0
  -30.3880  -19.4540   17.7490 C   0  0  0  0  0  3  0  0  0  0  0  0
  -31.2330  -18.3190   19.2660 C   0  0  0  0  0  3  0  0  0  0  0  0
  -30.0600  -18.2330   20.2790 C   0  0  0  0  0  3  0  0  0  0  0  0
  -29.0340  -19.6890   19.9120 C   0  0  0  0  0  3  0  0  0  0  0  0
  -30.4240  -15.2920   20.2480 C   0  0  0  0  0  0  0  0  0  0  0  0
  -30.3520  -12.8520   19.3710 C   0  0  0  0  0  2  0  0  0  0  0  0
  -29.4270  -12.6450   18.1480 C   0  0  0  0  0  2  0  0  0  0  0  0
  -27.9800  -12.3800   18.5980 C   0  0  0  0  0  2  0  0  0  0  0  0
  -27.5360  -13.3430   19.7290 C   0  0  0  0  0  3  0  0  0  0  0  0
  -28.5960  -13.5110   20.8390 C   0  0  0  0  0  2  0  0  0  0  0  0
  -29.8200  -14.0040   20.1860 N   0  0  0  0  0  0  0  0  0  0  0  0
  -31.6500  -15.2430   20.0790 O   0  0  0  0  0  0  0  0  0  0  0  0
  -29.7030  -16.5910   20.2930 N   0  0  0  0  0  0  0  0  0  0  0  0
  -28.7100  -16.4380   20.3730 H   0  0  0  0  0  0  0  0  0  0  0  0
  -25.1670  -13.8880   20.4930 C   0  0  0  0  0  0  0  0  0  0  0  0
  -24.1080  -13.1070   20.8670 C   0  0  0  0  0  0  0  0  0  0  0  0
  -24.5820  -11.7590   20.8380 C   0  0  0  0  0  0  0  0  0  0  0  0
  -26.2150  -13.0190   20.2500 N   0  0  0  0  0  0  0  0  0  0  0  0
  -25.8750  -11.7310   20.5270 N   0  0  0  0  0  0  0  0  0  0  0  0
  -23.8570  -10.4960   21.0320 C   0  0  0  0  0  0  0  0  0  0  0  0
  -24.2970   -9.5270   21.9610 C   0  0  0  0  0  3  0  0  0  0  0  0
  -23.5730   -8.3300   22.1440 C   0  0  0  0  0  3  0  0  0  0  0  0
  -22.3960   -8.0910   21.3940 C   0  0  0  0  0  0  0  0  0  0  0  0
  -21.9760   -9.0480   20.4550 C   0  0  0  0  0  3  0  0  0  0  0  0
  -22.7000  -10.2360   20.2700 C   0  0  0  0  0  3  0  0  0  0  0  0
  -21.6400   -6.9470   21.4890 O   0  0  0  0  0  0  0  0  0  0  0  0
  -21.6050   -6.1990   22.6390 C   0  0  0  0  0  0  0  0  0  0  0  0
  -21.1930   -6.7490   23.8720 C   0  0  0  0  0  3  0  0  0  0  0  0
  -21.1050   -5.9270   25.0150 C   0  0  0  0  0  3  0  0  0  0  0  0
  -21.4170   -4.5580   24.9220 C   0  0  0  0  0  0  0  0  0  0  0  0
  -21.8200   -4.0080   23.6930 C   0  0  0  0  0  3  0  0  0  0  0  0
  -21.9100   -4.8260   22.5530 C   0  0  0  0  0  0  0  0  0  0  0  0
  -22.2790   -4.2860   21.3660 F   0  0  0  0  0  0  0  0  0  0  0  0
  -21.3250   -3.7680   26.0170 F   0  0  0  0  0  0  0  0  0  0  0  0
  -22.7090  -13.5810   21.1300 C   0  0  0  0  0  0  0  0  0  0  0  0
  -21.9800  -12.8880   21.9980 N   0  0  0  0  0  0  0  0  0  0  0  0
  -22.2680  -14.6020   20.6020 O   0  0  0  0  0  0  0  0  0  0  0  0
  -22.3470  -12.0620   22.4450 H   0  0  0  0  0  0  0  0  0  0  0  0
  -21.0400  -13.1850   22.2150 H   0  0  0  0  0  0  0  0  0  0  0  0
  -25.3210  -15.2590   20.3020 N   0  0  0  0  0  0  0  0  0  0  0  0
  -24.5410  -15.9000   20.3840 H   0  0  0  0  0  0  0  0  0  0  0  0
  -26.1520  -15.6870   19.9120 H   0  0  0  0  0  0  0  0  0  0  0  0
  -28.6400  -22.7240   19.8140 C   0  0  0  0  0  2  0  0  0  0  0  0
  -28.2660  -24.3110   20.5940 C   0  0  0  0  0  2  0  0  0  0  0  0
  -28.2870  -25.9240   20.2050 O   0  0  0  0  0  0  0  0  0  0  0  0
  -24.6250  -31.8550   23.2190 C   0  0  0  0  0  0  0  0  0  0  0  0
  -27.2240  -26.9680   20.2490 C   0  0  0  0  0  0  0  0  0  0  0  0
  -23.4440  -30.4440   21.5830 C   0  0  0  0  0  3  0  0  0  0  0  0
  -24.9020  -28.8200   20.1960 C   0  0  0  0  0  0  0  0  0  0  0  0
  -26.0120  -30.6600   21.4480 C   0  0  0  0  0  2  0  0  0  0  0  0
  -26.0870  -29.2410   20.8110 C   0  0  0  0  0  0  0  0  0  0  0  0
  -27.2450  -28.3390   20.8050 C   0  0  0  0  0  3  0  0  0  0  0  0
  -26.0000  -26.6880   19.6010 C   0  0  0  0  0  3  0  0  0  0  0  0
  -24.8800  -27.5590   19.5740 C   0  0  0  0  0  3  0  0  0  0  0  0
  -23.6830  -29.7430   20.2170 C   0  0  0  0  0  2  0  0  0  0  0  0
  -24.7150  -31.0150   22.1360 N   0  0  0  0  0  0  0  0  0  0  0  0
  -23.5320  -32.1430   23.7340 O   0  0  0  0  0  0  0  0  0  0  0  0
  -22.7450  -29.4570   22.5570 C   0  0  0  0  0  0  0  0  0  0  0  0
  -21.4160  -29.2920   22.4300 N   0  0  0  0  0  0  0  0  0  0  0  0
  -23.4090  -28.8380   23.3910 O   0  0  0  0  0  0  0  0  0  0  0  0
  -20.9330  -29.8440   21.7350 H   0  0  0  0  0  0  0  0  0  0  0  0
  -18.0310  -28.0820   22.9380 C   0  0  0  0  0  0  0  0  0  0  0  0
  -20.5910  -28.3580   23.2050 C   0  0  0  0  0  3  0  0  0  0  0  0
  -20.6980  -26.9240   22.6400 C   0  0  0  0  0  2  0  0  0  0  0  0
  -19.5990  -26.5910   21.6260 C   0  0  0  0  0  2  0  0  0  0  0  0
  -18.2150  -26.7310   22.2670 C   0  0  0  0  0  2  0  0  0  0  0  0
  -19.1470  -28.8540   23.3630 C   0  0  0  0  0  0  0  0  0  0  0  0
  -18.9180  -30.1150   23.9530 C   0  0  0  0  0  3  0  0  0  0  0  0
  -17.6100  -30.6080   24.1210 C   0  0  0  0  0  3  0  0  0  0  0  0
  -16.5100  -29.8350   23.7060 C   0  0  0  0  0  3  0  0  0  0  0  0
  -16.7230  -28.5740   23.1210 C   0  0  0  0  0  3  0  0  0  0  0  0
  -25.8890  -32.5090   23.8550 C   0  0  0  0  0  3  0  0  0  0  0  0
  -26.3880  -31.7580   25.1520 C   0  0  1  0  0  0  0  0  0  0  0  0
  -25.2830  -31.5350   26.2110 C   0  0  0  0  0  1  0  0  0  0  0  0
  -26.9720  -30.3720   24.7980 C   0  0  0  0  0  1  0  0  0  0  0  0
  -27.5330  -32.5600   25.8130 C   0  0  0  0  0  1  0  0  0  0  0  0
  -25.5670  -33.9110   24.1760 N   0  0  0  0  0  0  0  0  0  0  0  0
  -25.9020  -34.9700   23.4260 C   0  0  0  0  0  0  0  0  0  0  0  0
  -26.5790  -34.8670   22.3980 O   0  0  0  0  0  0  0  0  0  0  0  0
  -24.9740  -34.0630   24.9800 H   0  0  0  0  0  0  0  0  0  0  0  0
  -24.1780  -36.7680   23.0610 C   0  0  0  0  0  1  0  0  0  0  0  0
  -25.4140  -36.3600   23.8800 C   0  0  0  0  0  3  0  0  0  0  0  0
  -27.5440  -37.2500   24.7220 C   0  0  0  0  0  1  0  0  0  0  0  0
  -26.4480  -37.4150   23.7720 N   0  0  0  0  0  0  0  0  0  0  0  0
  -26.0400  -38.3360   23.9110 H   0  0  0  0  0  0  0  0  0  0  0  0
  1  2  1  0
  1  3  1  0
  5  8  1  0
  6 10  1  0
  7  4  1  0
  7  6  1  0
  7  5  1  0
  8  4  1  0
  8  9  1  0
  9 19  1  0
 10  9  1  0
 10  1  1  0
 11 19  1  0
 12 17  1  0
 13 14  1  0
 13 12  1  0
 15 14  1  0
 15 24  1  0
 15 16  1  0
 17 11  1  0
 17 16  1  0
 18 11  2  0
 19 20  1  0
 21 22  2  0
 22 41  1  0
 23 22  1  0
 23 26  1  0
 24 21  1  0
 24 25  1  0
 25 23  2  0
 26 27  1  0
 27 28  2  0
 29 32  1  0
 29 28  1  0
 30 29  2  0
 31 30  1  0
 31 26  2  0
 32 33  1  0
 33 34  1  0
 34 35  2  0
 36 35  1  0
 36 40  1  0
 37 36  2  0
 38 33  2  0
 38 37  1  0
 39 38  1  0
 41 42  1  0
 42 45  1  0
 42 44  1  0
 43 41  2  0
 46 47  1  0
 46 21  1  0
 48 46  1  0
 49  1  1  0
 49 50  1  0
 51 53  1  0
 51 50  1  0
 52 63  2  0
 53 58  1  0
 54 62  1  0
 54 64  1  0
 55 61  1  0
 55 57  1  0
 56 62  1  0
 57 56  1  0
 58 57  2  0
 59 53  2  0
 60 59  1  0
 60 55  2  0
 61 54  1  0
 62 52  1  0
 64 66  2  0
 65 64  1  0
 67 65  1  0
 68 77  2  0
 68 73  1  0
 69 65  1  0
 69 73  1  0
 70 69  1  0
 71 72  1  0
 71 70  1  0
 72 68  1  0
 73 74  2  0
 74 75  1  0
 76 75  2  0
 77 76  1  0
 78 52  1  0
 78 83  1  0
 78 79  1  0
 79 82  1  1
 79 80  1  0
 81 79  1  0
 83 86  1  0
 84 88  1  0
 84 83  1  0
 85 84  2  0
 88 87  1  0
 90 88  1  0
 90 91  1  0
 90 89  1  0
M  ISO  4  11 100  19 100  50 101  51 101
M  END
>  <TORSDO>  (48) 
F 19

>  <SCORE>  (48) 
-16.707

>  <name>  (48) 
47

>  <ligand_id>  (48) 
47

>  <original_smiles>  (48) 
[H]c1c([H])c([H])c2c(c1[H])C([H])([H])C([H])([H])C([H])([H])C2([H])N([H])C(=O)C1([H])N(C(=O)C([H])(N([H])C(=O)C([H])(N([H])C([H])([H])[H])C([H])([H])[H])C(C([H])([H])[H])(C([H])([H])[H])C([H])([H])[H])C([H])([H])c2c([H])c(OC([H])([H])C([H])([H])[N+]([H])([H])C3([H])C([H])([H])C4([H])C([H])([H])C([H])(C4([H])[H])C3([H])N([H])C(=O)N3C([H])([H])C([H])([H])C([H])([H])C([H])(n4nc(-c5c([H])c([H])c(Oc6c([H])c([H])c(F)c([H])c6F)c([H])c5[H])c(C(=O)N([H])[H])c4N([H])[H])C3([H])[H])c([H])c([H])c2C1([H])[H]

>  <smiles>  (48) 
[H]c1c([H])c([H])c2c(c1[H])C([H])([H])C([H])([H])C([H])([H])C2([H])N([H])C(=O)C1([H])N(C(=O)C([H])(N([H])C(=O)C([H])(N([H])C([H])([H])[H])C([H])([H])[H])C(C([H])([H])[H])(C([H])([H])[H])C([H])([H])[H])C([H])([H])c2c([H])c(OC([H])([H])C([H])([H])[N+]([H])([H])C3([H])C([H])([H])C4([H])C([H])([H])C([H])(C4([H])[H])C3([H])N([H])C(=O)N3C([H])([H])C([H])([H])C([H])([H])C([H])(n4nc(-c5c([H])c([H])c(Oc6c([H])c([H])c(F)c([H])c6F)c([H])c5[H])c(C(=O)N([H])[H])c4N([H])[H])C3([H])[H])c([H])c([H])c2C1([H])[H]

$$$$
48:0:0
     RDKit          3D

 91100  0  0  1  0  0  0  0  0999 V2000
  -29.4740  -20.8980   21.5340 C   0  0  0  0  0  2  0  0  0  0  0  0
  -28.4030  -20.4220   19.4900 C   0  0  0  0  0  2  0  0  0  0  0  0
  -29.4950  -18.2450   20.7220 C   0  0  0  0  0  3  0  0  0  0  0  0
  -30.1400  -19.6340   20.9750 C   0  0  0  0  0  3  0  0  0  0  0  0
  -29.4850  -19.3580   19.6630 C   0  0  0  0  0  3  0  0  0  0  0  0
  -28.7040  -21.5430   20.4310 N   0  0  2  0  0  4  0  0  0  0  0  0
  -27.8200  -21.8550   20.8050 H   0  0  0  0  0  0  0  0  0  0  0  0
  -30.6770  -14.6280   20.3280 C   0  0  0  0  0  0  0  0  0  0  0  0
  -30.3450  -12.4110   19.2860 C   0  0  0  0  0  2  0  0  0  0  0  0
  -29.4140  -12.5680   18.0680 C   0  0  0  0  0  2  0  0  0  0  0  0
  -27.9440  -12.4260   18.5050 C   0  0  0  0  0  2  0  0  0  0  0  0
  -27.5970  -13.2970   19.7430 C   0  0  0  0  0  3  0  0  0  0  0  0
  -28.6620  -13.1700   20.8570 C   0  0  0  0  0  2  0  0  0  0  0  0
  -29.9720  -13.4570   20.2600 N   0  0  0  0  0  0  0  0  0  0  0  0
  -31.8540  -14.6450   19.9630 O   0  0  0  0  0  0  0  0  0  0  0  0
  -30.4490  -17.0700   20.4870 C   0  0  0  0  0  0  0  0  0  0  0  0
  -29.9860  -15.7820   20.6050 N   0  0  0  0  0  0  0  0  0  0  0  0
  -31.6160  -17.3330   20.1700 O   0  0  0  0  0  0  0  0  0  0  0  0
  -29.0190  -15.6720   20.8610 H   0  0  0  0  0  0  0  0  0  0  0  0
  -25.2100  -13.8910   20.4770 C   0  0  0  0  0  0  0  0  0  0  0  0
  -24.1470  -13.1170   20.8550 C   0  0  0  0  0  0  0  0  0  0  0  0
  -24.6110  -11.7660   20.8240 C   0  0  0  0  0  0  0  0  0  0  0  0
  -26.2550  -13.0130   20.2400 N   0  0  0  0  0  0  0  0  0  0  0  0
  -25.9000  -11.7290   20.5100 N   0  0  0  0  0  0  0  0  0  0  0  0
  -23.8870  -10.5030   21.0180 C   0  0  0  0  0  0  0  0  0  0  0  0
  -24.3230   -9.5360   21.9520 C   0  0  0  0  0  3  0  0  0  0  0  0
  -23.5990   -8.3390   22.1350 C   0  0  0  0  0  3  0  0  0  0  0  0
  -22.4230   -8.0990   21.3850 C   0  0  0  0  0  0  0  0  0  0  0  0
  -22.0050   -9.0530   20.4420 C   0  0  0  0  0  3  0  0  0  0  0  0
  -22.7300  -10.2430   20.2560 C   0  0  0  0  0  3  0  0  0  0  0  0
  -21.6690   -6.9540   21.4780 O   0  0  0  0  0  0  0  0  0  0  0  0
  -21.6260   -6.2130   22.6320 C   0  0  0  0  0  0  0  0  0  0  0  0
  -21.1980   -6.7670   23.8580 C   0  0  0  0  0  3  0  0  0  0  0  0
  -21.1010   -5.9510   25.0030 C   0  0  0  0  0  3  0  0  0  0  0  0
  -21.4220   -4.5840   24.9230 C   0  0  0  0  0  0  0  0  0  0  0  0
  -21.8430   -4.0290   23.7020 C   0  0  0  0  0  3  0  0  0  0  0  0
  -21.9410   -4.8400   22.5590 C   0  0  0  0  0  0  0  0  0  0  0  0
  -22.3260   -4.2960   21.3800 F   0  0  0  0  0  0  0  0  0  0  0  0
  -21.3220   -3.7980   26.0210 F   0  0  0  0  0  0  0  0  0  0  0  0
  -22.7500  -13.5920   21.1300 C   0  0  0  0  0  0  0  0  0  0  0  0
  -22.0240  -12.8950   21.9980 N   0  0  0  0  0  0  0  0  0  0  0  0
  -22.3100  -14.6170   20.6110 O   0  0  0  0  0  0  0  0  0  0  0  0
  -22.3940  -12.0670   22.4390 H   0  0  0  0  0  0  0  0  0  0  0  0
  -21.0880  -13.1950   22.2240 H   0  0  0  0  0  0  0  0  0  0  0  0
  -25.3710  -15.2610   20.2930 N   0  0  0  0  0  0  0  0  0  0  0  0
  -24.5970  -15.9090   20.3930 H   0  0  0  0  0  0  0  0  0  0  0  0
  -26.2050  -15.6960   19.9200 H   0  0  0  0  0  0  0  0  0  0  0  0
  -29.3430  -22.7480   19.7780 C   0  0  0  0  0  2  0  0  0  0  0  0
  -29.2270  -24.1580   20.4900 C   0  0  0  0  0  3  0  0  0  0  0  0
  -28.1720  -25.1650   19.9040 C   0  0  0  0  0  3  0  0  0  0  0  0
  -28.3310  -26.5880   20.2280 O   0  0  0  0  0  0  0  0  0  0  0  0
  -24.5890  -31.9110   23.2560 C   0  0  0  0  0  0  0  0  0  0  0  0
  -27.1990  -27.4050   20.1640 C   0  0  0  0  0  0  0  0  0  0  0  0
  -23.3800  -30.5170   21.6150 C   0  0  0  0  0  3  0  0  0  0  0  0
  -24.8260  -28.9860   20.1730 C   0  0  0  0  0  0  0  0  0  0  0  0
  -25.9140  -30.8520   21.4200 C   0  0  0  0  0  2  0  0  0  0  0  0
  -25.9930  -29.4800   20.7690 C   0  0  0  0  0  0  0  0  0  0  0  0
  -27.1820  -28.6990   20.7600 C   0  0  0  0  0  3  0  0  0  0  0  0
  -26.0120  -26.9650   19.5330 C   0  0  0  0  0  3  0  0  0  0  0  0
  -24.8350  -27.7320   19.5480 C   0  0  0  0  0  3  0  0  0  0  0  0
  -23.5870  -29.8530   20.2300 C   0  0  0  0  0  2  0  0  0  0  0  0
  -24.6470  -31.1090   22.1540 N   0  0  0  0  0  0  0  0  0  0  0  0
  -23.5080  -32.1830   23.7970 O   0  0  0  0  0  0  0  0  0  0  0  0
  -22.7270  -29.4920   22.5720 C   0  0  0  0  0  0  0  0  0  0  0  0
  -21.4010  -29.3140   22.4500 N   0  0  0  0  0  0  0  0  0  0  0  0
  -23.4120  -28.8610   23.3810 O   0  0  0  0  0  0  0  0  0  0  0  0
  -20.9080  -29.8760   21.7700 H   0  0  0  0  0  0  0  0  0  0  0  0
  -18.0260  -28.1160   22.9560 C   0  0  0  0  0  0  0  0  0  0  0  0
  -20.5850  -28.3740   23.2210 C   0  0  0  0  0  3  0  0  0  0  0  0
  -20.6860  -26.9440   22.6420 C   0  0  0  0  0  2  0  0  0  0  0  0
  -19.5810  -26.6240   21.6300 C   0  0  0  0  0  2  0  0  0  0  0  0
  -18.2010  -26.7680   22.2780 C   0  0  0  0  0  2  0  0  0  0  0  0
  -19.1460  -28.8770   23.3850 C   0  0  0  0  0  0  0  0  0  0  0  0
  -18.9290  -30.1390   23.9800 C   0  0  0  0  0  3  0  0  0  0  0  0
  -17.6250  -30.6410   24.1490 C   0  0  0  0  0  3  0  0  0  0  0  0
  -16.5200  -29.8770   23.7370 C   0  0  0  0  0  3  0  0  0  0  0  0
  -16.7210  -28.6160   23.1460 C   0  0  0  0  0  3  0  0  0  0  0  0
  -25.8750  -32.5410   23.8740 C   0  0  0  0  0  3  0  0  0  0  0  0
  -26.3890  -31.7750   25.1540 C   0  0  1  0  0  0  0  0  0  0  0  0
  -25.2950  -31.5450   26.2230 C   0  0  0  0  0  1  0  0  0  0  0  0
  -26.9680  -30.3930   24.7690 C   0  0  0  0  0  1  0  0  0  0  0  0
  -27.5410  -32.5680   25.8130 C   0  0  0  0  0  1  0  0  0  0  0  0
  -25.5700  -33.9420   24.1970 N   0  0  0  0  0  0  0  0  0  0  0  0
  -25.9050  -34.9890   23.4320 C   0  0  0  0  0  0  0  0  0  0  0  0
  -26.5750  -34.8780   22.4020 O   0  0  0  0  0  0  0  0  0  0  0  0
  -24.9760  -34.1020   24.9970 H   0  0  0  0  0  0  0  0  0  0  0  0
  -24.1870  -36.7870   23.0620 C   0  0  0  0  0  1  0  0  0  0  0  0
  -25.4220  -36.3820   23.8810 C   0  0  0  0  0  3  0  0  0  0  0  0
  -27.5560  -37.2610   24.7200 C   0  0  0  0  0  1  0  0  0  0  0  0
  -26.4600  -37.4290   23.7680 N   0  0  0  0  0  0  0  0  0  0  0  0
  -26.0570  -38.3530   23.9080 H   0  0  0  0  0  0  0  0  0  0  0  0
  2  6  1  0
  3 16  1  0
  3  4  1  0
  4  1  1  0
  5  2  1  0
  5  3  1  0
  5  4  1  0
  6  7  1  1
  6  1  1  0
  8 17  1  0
  9 14  1  0
 10 11  1  0
 10  9  1  0
 12 11  1  0
 12 23  1  0
 12 13  1  0
 14  8  1  0
 14 13  1  0
 15  8  2  0
 16 17  1  0
 17 19  1  0
 18 16  2  0
 20 21  2  0
 21 40  1  0
 22 21  1  0
 22 25  1  0
 23 20  1  0
 23 24  1  0
 24 22  2  0
 25 26  1  0
 26 27  2  0
 28 31  1  0
 28 27  1  0
 29 28  2  0
 30 29  1  0
 30 25  2  0
 31 32  1  0
 32 33  1  0
 33 34  2  0
 35 34  1  0
 35 39  1  0
 36 35  2  0
 37 32  2  0
 37 36  1  0
 38 37  1  0
 40 41  1  0
 41 44  1  0
 41 43  1  0
 42 40  2  0
 45 46  1  0
 45 20  1  0
 47 45  1  0
 48  6  1  0
 48 49  1  0
 50 51  1  0
 50 49  2  0
 52 63  2  0
 53 51  1  0
 53 58  1  0
 54 62  1  0
 54 64  1  0
 55 61  1  0
 55 57  1  0
 56 62  1  0
 57 56  1  0
 58 57  2  0
 59 60  1  0
 59 53  2  0
 60 55  2  0
 61 54  1  0
 62 52  1  0
 64 66  2  0
 65 64  1  0
 67 65  1  0
 68 77  2  0
 68 73  1  0
 69 65  1  0
 69 73  1  0
 70 69  1  0
 71 72  1  0
 71 70  1  0
 72 68  1  0
 73 74  2  0
 74 75  1  0
 76 75  2  0
 77 76  1  0
 78 52  1  0
 78 83  1  0
 78 79  1  0
 79 82  1  1
 79 80  1  0
 81 79  1  0
 83 86  1  0
 84 88  1  0
 84 83  1  0
 85 84  2  0
 88 87  1  0
 90 88  1  0
 90 91  1  0
 90 89  1  0
M  ISO  4   8 100  17 100  50 101  51 101
M  END
>  <TORSDO>  (49) 
F 19

>  <SCORE>  (49) 
-14.273

>  <name>  (49) 
48

>  <ligand_id>  (49) 
48

>  <original_smiles>  (49) 
[H]c1c([H])c([H])c2c(c1[H])C([H])([H])C([H])([H])C([H])([H])C2([H])N([H])C(=O)C1([H])N(C(=O)C([H])(N([H])C(=O)C([H])(N([H])C([H])([H])[H])C([H])([H])[H])C(C([H])([H])[H])(C([H])([H])[H])C([H])([H])[H])C([H])([H])c2c([H])c(OC([H])([H])C([H])([H])C([H])([H])[N+]3([H])C([H])([H])C4([H])C([H])(C(=O)N([H])C(=O)N5C([H])([H])C([H])([H])C([H])([H])C([H])(n6nc(-c7c([H])c([H])c(Oc8c([H])c([H])c(F)c([H])c8F)c([H])c7[H])c(C(=O)N([H])[H])c6N([H])[H])C5([H])[H])C4([H])C3([H])[H])c([H])c([H])c2C1([H])[H]

>  <smiles>  (49) 
[H]c1c([H])c([H])c2c(c1[H])C([H])([H])C([H])([H])C([H])([H])C2([H])N([H])C(=O)C1([H])N(C(=O)C([H])(N([H])C(=O)C([H])(N([H])C([H])([H])[H])C([H])([H])[H])C(C([H])([H])[H])(C([H])([H])[H])C([H])([H])[H])C([H])([H])c2c([H])c(OC([H])([H])C([H])([H])C([H])([H])[N+]3([H])C([H])([H])C4([H])C([H])(C(=O)N([H])C(=O)N5C([H])([H])C([H])([H])C([H])([H])C([H])(n6nc(-c7c([H])c([H])c(Oc8c([H])c([H])c(F)c([H])c8F)c([H])c7[H])c(C(=O)N([H])[H])c6N([H])[H])C5([H])[H])C4([H])C3([H])[H])c([H])c([H])c2C1([H])[H]

$$$$
49:0:0
     RDKit          3D

 90 98  0  0  1  0  0  0  0  0999 V2000
  -28.7410  -21.2170   19.3820 C   0  0  0  0  0  3  0  0  0  0  0  0
  -30.0370  -19.8630   21.4290 C   0  0  0  0  0  3  0  0  0  0  0  0
  -29.0150  -19.7850   19.2960 C   0  0  0  0  0  0  0  0  0  0  0  0
  -29.7840  -21.2840   21.5110 C   0  0  0  0  0  0  0  0  0  0  0  0
  -29.1500  -22.0560   20.4730 C   0  0  0  0  0  0  0  0  0  0  0  0
  -29.7100  -19.0380   20.3130 C   0  0  0  0  0  0  0  0  0  0  0  0
  -28.6190  -19.0660   18.0160 C   0  0  0  0  0  1  0  0  0  0  0  0
  -30.3130  -21.9920   22.7480 C   0  0  0  0  0  1  0  0  0  0  0  0
  -29.1580  -23.7010   20.5160 C   0  0  0  0  0  3  0  0  0  0  0  0
  -28.0550  -24.8080   20.0060 C   0  0  0  0  0  3  0  0  0  0  0  0
  -28.2790  -26.3090   20.2390 O   0  0  0  0  0  0  0  0  0  0  0  0
  -24.6290  -31.8870   23.2560 C   0  0  0  0  0  0  0  0  0  0  0  0
  -27.2070  -27.2480   20.1800 C   0  0  0  0  0  0  0  0  0  0  0  0
  -23.4230  -30.5020   21.6120 C   0  0  0  0  0  3  0  0  0  0  0  0
  -24.8690  -28.9480   20.1700 C   0  0  0  0  0  0  0  0  0  0  0  0
  -25.9710  -30.7870   21.4330 C   0  0  0  0  0  2  0  0  0  0  0  0
  -26.0440  -29.4030   20.7790 C   0  0  0  0  0  0  0  0  0  0  0  0
  -27.2150  -28.5660   20.7720 C   0  0  0  0  0  3  0  0  0  0  0  0
  -26.0090  -26.8830   19.5300 C   0  0  0  0  0  3  0  0  0  0  0  0
  -24.8610  -27.6990   19.5310 C   0  0  0  0  0  3  0  0  0  0  0  0
  -23.6390  -29.8360   20.2260 C   0  0  0  0  0  2  0  0  0  0  0  0
  -24.6940  -31.0800   22.1550 N   0  0  0  0  0  0  0  0  0  0  0  0
  -23.5460  -32.1670   23.7920 O   0  0  0  0  0  0  0  0  0  0  0  0
  -22.7540  -29.4830   22.5680 C   0  0  0  0  0  0  0  0  0  0  0  0
  -21.4280  -29.3060   22.4390 N   0  0  0  0  0  0  0  0  0  0  0  0
  -23.4300  -28.8570   23.3880 O   0  0  0  0  0  0  0  0  0  0  0  0
  -20.9400  -29.8630   21.7530 H   0  0  0  0  0  0  0  0  0  0  0  0
  -18.0520  -28.0980   22.9360 C   0  0  0  0  0  0  0  0  0  0  0  0
  -20.6090  -28.3640   23.2080 C   0  0  0  0  0  3  0  0  0  0  0  0
  -20.7160  -26.9340   22.6290 C   0  0  0  0  0  2  0  0  0  0  0  0
  -19.6170  -26.6120   21.6130 C   0  0  0  0  0  2  0  0  0  0  0  0
  -18.2330  -26.7500   22.2560 C   0  0  0  0  0  2  0  0  0  0  0  0
  -19.1680  -28.8610   23.3700 C   0  0  0  0  0  0  0  0  0  0  0  0
  -18.9450  -30.1200   23.9670 C   0  0  0  0  0  3  0  0  0  0  0  0
  -17.6390  -30.6170   24.1350 C   0  0  0  0  0  3  0  0  0  0  0  0
  -16.5370  -29.8500   23.7180 C   0  0  0  0  0  3  0  0  0  0  0  0
  -16.7440  -28.5930   23.1250 C   0  0  0  0  0  3  0  0  0  0  0  0
  -25.9090  -32.5220   23.8810 C   0  0  0  0  0  3  0  0  0  0  0  0
  -26.4180  -31.7520   25.1610 C   0  0  1  0  0  0  0  0  0  0  0  0
  -25.3200  -31.5170   26.2250 C   0  0  0  0  0  1  0  0  0  0  0  0
  -27.0010  -30.3730   24.7750 C   0  0  0  0  0  1  0  0  0  0  0  0
  -27.5690  -32.5430   25.8260 C   0  0  0  0  0  1  0  0  0  0  0  0
  -25.6010  -33.9200   24.2120 N   0  0  0  0  0  0  0  0  0  0  0  0
  -25.9190  -34.9760   23.4480 C   0  0  0  0  0  0  0  0  0  0  0  0
  -26.5740  -34.8690   22.4070 O   0  0  0  0  0  0  0  0  0  0  0  0
  -25.0200  -34.0750   25.0240 H   0  0  0  0  0  0  0  0  0  0  0  0
  -24.1800  -36.7640   23.1200 C   0  0  0  0  0  1  0  0  0  0  0  0
  -25.4360  -36.3650   23.9100 C   0  0  0  0  0  3  0  0  0  0  0  0
  -27.5820  -37.2610   24.7030 C   0  0  0  0  0  1  0  0  0  0  0  0
  -26.4640  -37.4200   23.7750 N   0  0  0  0  0  0  0  0  0  0  0  0
  -26.0580  -38.3390   23.9240 H   0  0  0  0  0  0  0  0  0  0  0  0
  -30.4080  -17.5670   20.1220 C   0  0  0  0  0  2  0  0  0  0  0  0
  -30.6030  -14.9290   20.1900 C   0  0  0  0  0  0  0  0  0  0  0  0
  -30.3870  -12.6340   19.1850 C   0  0  0  0  0  2  0  0  0  0  0  0
  -29.4140  -12.6740   17.9850 C   0  0  0  0  0  2  0  0  0  0  0  0
  -27.9630  -12.4750   18.4620 C   0  0  0  0  0  2  0  0  0  0  0  0
  -27.6140  -13.3590   19.6890 C   0  0  0  0  0  3  0  0  0  0  0  0
  -28.7070  -13.3120   20.7770 C   0  0  0  0  0  2  0  0  0  0  0  0
  -29.9660  -13.7000   20.1350 N   0  0  0  0  0  0  0  0  0  0  0  0
  -31.7910  -14.9750   19.8540 O   0  0  0  0  0  0  0  0  0  0  0  0
  -29.8860  -16.1270   20.3880 N   0  0  0  0  0  0  0  0  0  0  0  0
  -28.9120  -16.0390   20.6300 H   0  0  0  0  0  0  0  0  0  0  0  0
  -25.2500  -13.9270   20.4860 C   0  0  0  0  0  0  0  0  0  0  0  0
  -24.1980  -13.1450   20.8770 C   0  0  0  0  0  0  0  0  0  0  0  0
  -24.6650  -11.7970   20.8210 C   0  0  0  0  0  0  0  0  0  0  0  0
  -26.2890  -13.0550   20.2180 N   0  0  0  0  0  0  0  0  0  0  0  0
  -25.9480  -11.7670   20.4830 N   0  0  0  0  0  0  0  0  0  0  0  0
  -23.9460  -10.5290   21.0170 C   0  0  0  0  0  0  0  0  0  0  0  0
  -24.3940   -9.5590   21.9390 C   0  0  0  0  0  3  0  0  0  0  0  0
  -23.6750   -8.3570   22.1200 C   0  0  0  0  0  3  0  0  0  0  0  0
  -22.4930   -8.1180   21.3780 C   0  0  0  0  0  0  0  0  0  0  0  0
  -22.0640   -9.0780   20.4440 C   0  0  0  0  0  3  0  0  0  0  0  0
  -22.7850  -10.2710   20.2610 C   0  0  0  0  0  3  0  0  0  0  0  0
  -21.7430   -6.9720   21.4720 O   0  0  0  0  0  0  0  0  0  0  0  0
  -21.6990   -6.2320   22.6270 C   0  0  0  0  0  0  0  0  0  0  0  0
  -21.2520   -6.7830   23.8480 C   0  0  0  0  0  3  0  0  0  0  0  0
  -21.1560   -5.9690   24.9950 C   0  0  0  0  0  3  0  0  0  0  0  0
  -21.4970   -4.6050   24.9220 C   0  0  0  0  0  0  0  0  0  0  0  0
  -21.9390   -4.0530   23.7050 C   0  0  0  0  0  3  0  0  0  0  0  0
  -22.0350   -4.8650   22.5610 C   0  0  0  0  0  0  0  0  0  0  0  0
  -22.4400   -4.3230   21.3880 F   0  0  0  0  0  0  0  0  0  0  0  0
  -21.3990   -3.8220   26.0210 F   0  0  0  0  0  0  0  0  0  0  0  0
  -22.8070  -13.6140   21.1900 C   0  0  0  0  0  0  0  0  0  0  0  0
  -22.1040  -12.9100   22.0690 N   0  0  0  0  0  0  0  0  0  0  0  0
  -22.3560  -14.6440   20.6900 O   0  0  0  0  0  0  0  0  0  0  0  0
  -22.4850  -12.0780   22.4950 H   0  0  0  0  0  0  0  0  0  0  0  0
  -21.1730  -13.2100   22.3210 H   0  0  0  0  0  0  0  0  0  0  0  0
  -25.4040  -15.2990   20.3080 N   0  0  0  0  0  0  0  0  0  0  0  0
  -24.6290  -15.9440   20.4110 H   0  0  0  0  0  0  0  0  0  0  0  0
  -26.2310  -15.7300   19.9150 H   0  0  0  0  0  0  0  0  0  0  0  0
  1  5  1  0
  2  4  1  0
  3  1  2  0
  3  6  1  0
  4  8  1  0
  5  9  1  0
  5  4  2  0
  6  2  2  0
  7  3  1  0
 10 11  1  0
 10  9  2  0
 12 23  2  0
 13 11  1  0
 13 18  1  0
 14 22  1  0
 14 24  1  0
 15 21  1  0
 15 17  1  0
 16 22  1  0
 17 16  1  0
 18 17  2  0
 19 20  1  0
 19 13  2  0
 20 15  2  0
 21 14  1  0
 22 12  1  0
 24 26  2  0
 25 24  1  0
 27 25  1  0
 28 37  2  0
 28 33  1  0
 29 25  1  0
 29 33  1  0
 30 29  1  0
 31 32  1  0
 31 30  1  0
 32 28  1  0
 33 34  2  0
 34 35  1  0
 36 35  2  0
 37 36  1  0
 38 12  1  0
 38 43  1  0
 38 39  1  0
 39 42  1  1
 39 40  1  0
 41 39  1  0
 43 46  1  0
 44 48  1  0
 44 43  1  0
 45 44  2  0
 48 47  1  0
 50 48  1  0
 50 51  1  0
 50 49  1  0
 52  6  1  0
 52 61  1  0
 53 61  1  0
 54 59  1  0
 55 56  1  0
 55 54  1  0
 57 56  1  0
 57 66  1  0
 57 58  1  0
 59 53  1  0
 59 58  1  0
 60 53  2  0
 61 62  1  0
 63 64  2  0
 64 83  1  0
 65 64  1  0
 65 68  1  0
 66 67  1  0
 66 63  1  0
 67 65  2  0
 68 69  1  0
 69 70  2  0
 71 74  1  0
 71 70  1  0
 72 71  2  0
 73 72  1  0
 73 68  2  0
 74 75  1  0
 75 76  1  0
 76 77  2  0
 78 77  1  0
 78 82  1  0
 79 78  2  0
 80 75  2  0
 80 79  1  0
 81 80  1  0
 83 84  1  0
 84 87  1  0
 84 86  1  0
 85 83  2  0
 88 89  1  0
 88 63  1  0
 90 88  1  0
M  ISO  4  10 101  11 101  53 100  61 100
M  END
>  <TORSDO>  (50) 
F 19

>  <SCORE>  (50) 
-14.370

>  <name>  (50) 
49

>  <ligand_id>  (50) 
49

>  <original_smiles>  (50) 
[H]c1c([H])c([H])c2c(c1[H])C([H])([H])C([H])([H])C([H])([H])C2([H])N([H])C(=O)C1([H])N(C(=O)C([H])(N([H])C(=O)C([H])(N([H])C([H])([H])[H])C([H])([H])[H])C(C([H])([H])[H])(C([H])([H])[H])C([H])([H])[H])C([H])([H])c2c([H])c(OC([H])([H])C([H])([H])c3c([H])c(C([H])([H])[H])c(C([H])([H])N([H])C(=O)N4C([H])([H])C([H])([H])C([H])([H])C([H])(n5nc(-c6c([H])c([H])c(Oc7c([H])c([H])c(F)c([H])c7F)c([H])c6[H])c(C(=O)N([H])[H])c5N([H])[H])C4([H])[H])c([H])c3C([H])([H])[H])c([H])c([H])c2C1([H])[H]

>  <smiles>  (50) 
[H]c1c([H])c([H])c2c(c1[H])C([H])([H])C([H])([H])C([H])([H])C2([H])N([H])C(=O)C1([H])N(C(=O)C([H])(N([H])C(=O)C([H])(N([H])C([H])([H])[H])C([H])([H])[H])C(C([H])([H])[H])(C([H])([H])[H])C([H])([H])[H])C([H])([H])c2c([H])c(OC([H])([H])C([H])([H])c3c([H])c(C([H])([H])[H])c(C([H])([H])N([H])C(=O)N4C([H])([H])C([H])([H])C([H])([H])C([H])(n5nc(-c6c([H])c([H])c(Oc7c([H])c([H])c(F)c([H])c7F)c([H])c6[H])c(C(=O)N([H])[H])c5N([H])[H])C4([H])[H])c([H])c3C([H])([H])[H])c([H])c([H])c2C1([H])[H]

$$$$
50:0:0
     RDKit          3D

 94102  0  0  1  0  0  0  0  0999 V2000
  -32.1570  -19.9240   20.6780 C   0  0  0  0  0  2  0  0  0  0  0  0
  -31.2780  -21.0710   20.1640 C   0  0  0  0  0  2  0  0  0  0  0  0
  -31.2910  -19.2590   21.7620 C   0  0  0  0  0  3  0  0  0  0  0  0
  -29.9130  -19.2280   21.0380 C   0  0  0  0  0  3  0  0  0  0  0  0
  -29.8550  -20.6650   20.3310 N   0  0  1  0  0  4  0  0  0  0  0  0
  -29.4960  -20.4920   19.4020 H   0  0  0  0  0  0  0  0  0  0  0  0
  -31.3220  -20.0620   23.0850 C   0  0  0  0  0  0  0  0  0  0  0  0
  -32.5110  -20.4230   23.5680 N   0  0  0  0  0  0  0  0  0  0  0  0
  -30.2920  -20.3970   23.6650 O   0  0  0  0  0  0  0  0  0  0  0  0
  -33.3640  -20.1320   23.1070 H   0  0  0  0  0  0  0  0  0  0  0  0
  -32.5780  -21.0150   24.3850 H   0  0  0  0  0  0  0  0  0  0  0  0
  -29.9050  -17.7770   20.1550 C   0  0  0  0  0  2  0  0  0  0  0  0
  -30.5920  -15.1070   20.5030 C   0  0  0  0  0  0  0  0  0  0  0  0
  -30.4950  -12.7530   19.5730 C   0  0  0  0  0  2  0  0  0  0  0  0
  -29.5970  -12.7170   18.3180 C   0  0  0  0  0  2  0  0  0  0  0  0
  -28.1240  -12.4990   18.7040 C   0  0  0  0  0  2  0  0  0  0  0  0
  -27.6810  -13.4050   19.8810 C   0  0  0  0  0  3  0  0  0  0  0  0
  -28.7050  -13.4290   21.0370 C   0  0  0  0  0  2  0  0  0  0  0  0
  -30.0000  -13.8420   20.4730 N   0  0  0  0  0  0  0  0  0  0  0  0
  -31.7710  -15.1880   20.1550 O   0  0  0  0  0  0  0  0  0  0  0  0
  -29.8260  -16.2910   20.7200 N   0  0  0  0  0  0  0  0  0  0  0  0
  -28.9110  -16.0690   21.0840 H   0  0  0  0  0  0  0  0  0  0  0  0
  -25.2760  -13.9560   20.5610 C   0  0  0  0  0  0  0  0  0  0  0  0
  -24.2100  -13.1730   20.9100 C   0  0  0  0  0  0  0  0  0  0  0  0
  -24.6860  -11.8250   20.8870 C   0  0  0  0  0  0  0  0  0  0  0  0
  -26.3320  -13.0860   20.3410 N   0  0  0  0  0  0  0  0  0  0  0  0
  -25.9840  -11.7990   20.6050 N   0  0  0  0  0  0  0  0  0  0  0  0
  -23.9680  -10.5560   21.0680 C   0  0  0  0  0  0  0  0  0  0  0  0
  -24.3860   -9.5980   22.0170 C   0  0  0  0  0  3  0  0  0  0  0  0
  -23.6650   -8.3940   22.1820 C   0  0  0  0  0  3  0  0  0  0  0  0
  -22.5120   -8.1420   21.4010 C   0  0  0  0  0  0  0  0  0  0  0  0
  -22.1130   -9.0930   20.4450 C   0  0  0  0  0  3  0  0  0  0  0  0
  -22.8330  -10.2850   20.2770 C   0  0  0  0  0  3  0  0  0  0  0  0
  -21.7630   -6.9920   21.4760 O   0  0  0  0  0  0  0  0  0  0  0  0
  -21.6990   -6.2500   22.6270 C   0  0  0  0  0  0  0  0  0  0  0  0
  -21.2370   -6.7970   23.8450 C   0  0  0  0  0  3  0  0  0  0  0  0
  -21.1230   -5.9800   24.9860 C   0  0  0  0  0  3  0  0  0  0  0  0
  -21.4610   -4.6150   24.9140 C   0  0  0  0  0  0  0  0  0  0  0  0
  -21.9190   -4.0680   23.7030 C   0  0  0  0  0  3  0  0  0  0  0  0
  -22.0350   -4.8840   22.5630 C   0  0  0  0  0  0  0  0  0  0  0  0
  -22.4570   -4.3460   21.3920 F   0  0  0  0  0  0  0  0  0  0  0  0
  -21.3450   -3.8260   26.0080 F   0  0  0  0  0  0  0  0  0  0  0  0
  -22.8010  -13.6380   21.1440 C   0  0  0  0  0  0  0  0  0  0  0  0
  -22.0570  -12.9370   21.9920 N   0  0  0  0  0  0  0  0  0  0  0  0
  -22.3670  -14.6590   20.6130 O   0  0  0  0  0  0  0  0  0  0  0  0
  -22.4140  -12.1110   22.4470 H   0  0  0  0  0  0  0  0  0  0  0  0
  -21.1150  -13.2380   22.1900 H   0  0  0  0  0  0  0  0  0  0  0  0
  -25.4400  -15.3260   20.3920 N   0  0  0  0  0  0  0  0  0  0  0  0
  -24.7020  -15.9960   20.5830 H   0  0  0  0  0  0  0  0  0  0  0  0
  -26.2960  -15.7590   20.0690 H   0  0  0  0  0  0  0  0  0  0  0  0
  -28.9900  -21.8940   20.8690 C   0  0  0  0  0  2  0  0  0  0  0  0
  -29.2050  -23.5120   20.3870 C   0  0  0  0  0  3  0  0  0  0  0  0
  -28.1770  -24.8060   20.7320 C   0  0  0  0  0  3  0  0  0  0  0  0
  -28.3980  -26.3260   20.4530 O   0  0  0  0  0  0  0  0  0  0  0  0
  -24.6060  -31.9830   23.3040 C   0  0  0  0  0  0  0  0  0  0  0  0
  -27.3080  -27.2720   20.3880 C   0  0  0  0  0  0  0  0  0  0  0  0
  -23.4550  -30.5470   21.6670 C   0  0  0  0  0  3  0  0  0  0  0  0
  -24.9510  -28.9750   20.2860 C   0  0  0  0  0  0  0  0  0  0  0  0
  -26.0070  -30.8510   21.5330 C   0  0  0  0  0  2  0  0  0  0  0  0
  -26.1130  -29.4510   20.9060 C   0  0  0  0  0  0  0  0  0  0  0  0
  -27.2940  -28.6190   20.9310 C   0  0  0  0  0  3  0  0  0  0  0  0
  -26.1190  -26.8950   19.7270 C   0  0  0  0  0  3  0  0  0  0  0  0
  -24.9660  -27.7100   19.6790 C   0  0  0  0  0  3  0  0  0  0  0  0
  -23.7080  -29.8540   20.3010 C   0  0  0  0  0  2  0  0  0  0  0  0
  -24.7090  -31.1490   22.2240 N   0  0  0  0  0  0  0  0  0  0  0  0
  -23.5070  -32.2600   23.8080 O   0  0  0  0  0  0  0  0  0  0  0  0
  -22.7760  -29.5420   22.6300 C   0  0  0  0  0  0  0  0  0  0  0  0
  -21.4570  -29.3300   22.4680 N   0  0  0  0  0  0  0  0  0  0  0  0
  -23.4370  -28.9550   23.4900 O   0  0  0  0  0  0  0  0  0  0  0  0
  -20.9800  -29.8530   21.7470 H   0  0  0  0  0  0  0  0  0  0  0  0
  -18.0990  -28.0370   22.8810 C   0  0  0  0  0  0  0  0  0  0  0  0
  -20.6370  -28.3900   23.2370 C   0  0  0  0  0  3  0  0  0  0  0  0
  -20.8040  -26.9450   22.7100 C   0  0  0  0  0  2  0  0  0  0  0  0
  -19.7510  -26.5590   21.6640 C   0  0  0  0  0  2  0  0  0  0  0  0
  -18.3440  -26.6750   22.2540 C   0  0  0  0  0  2  0  0  0  0  0  0
  -19.1750  -28.8490   23.3290 C   0  0  0  0  0  0  0  0  0  0  0  0
  -18.8900  -30.1200   23.8750 C   0  0  0  0  0  3  0  0  0  0  0  0
  -17.5630  -30.5780   23.9770 C   0  0  0  0  0  3  0  0  0  0  0  0
  -16.5020  -29.7650   23.5440 C   0  0  0  0  0  3  0  0  0  0  0  0
  -16.7700  -28.4960   23.0020 C   0  0  0  0  0  3  0  0  0  0  0  0
  -25.8640  -32.6460   23.9420 C   0  0  0  0  0  3  0  0  0  0  0  0
  -25.5330  -34.0500   24.2320 N   0  0  0  0  0  0  0  0  0  0  0  0
  -25.8700  -35.0900   23.4550 C   0  0  0  0  0  0  0  0  0  0  0  0
  -26.5560  -34.9670   22.4380 O   0  0  0  0  0  0  0  0  0  0  0  0
  -24.9220  -34.2160   25.0170 H   0  0  0  0  0  0  0  0  0  0  0  0
  -24.1320  -36.8610   23.0350 C   0  0  0  0  0  1  0  0  0  0  0  0
  -25.3660  -36.4870   23.8720 C   0  0  0  0  0  3  0  0  0  0  0  0
  -27.4830  -37.4100   24.7070 C   0  0  0  0  0  1  0  0  0  0  0  0
  -26.3910  -37.5460   23.7470 N   0  0  0  0  0  0  0  0  0  0  0  0
  -25.9770  -38.4660   23.8680 H   0  0  0  0  0  0  0  0  0  0  0  0
  -26.3510  -31.9140   25.2530 C   0  0  1  0  0  0  0  0  0  0  0  0
  -25.2330  -31.6960   26.2990 C   0  0  0  0  0  1  0  0  0  0  0  0
  -26.9530  -30.5320   24.9160 C   0  0  0  0  0  1  0  0  0  0  0  0
  -27.4800  -32.7330   25.9210 C   0  0  0  0  0  1  0  0  0  0  0  0
  1  3  1  0
  2  5  1  0
  2  1  1  0
  3  7  1  0
  4 12  1  0
  4  3  1  0
  5 51  1  0
  5  4  1  0
  5  6  1  6
  7  8  1  0
  7  9  2  0
  8 11  1  0
 10  8  1  0
 12 21  1  0
 13 21  1  0
 14 19  1  0
 15 16  1  0
 15 14  1  0
 17 16  1  0
 17 26  1  0
 17 18  1  0
 19 13  1  0
 19 18  1  0
 20 13  2  0
 21 22  1  0
 23 24  2  0
 24 43  1  0
 25 24  1  0
 25 28  1  0
 26 23  1  0
 26 27  1  0
 27 25  2  0
 28 29  1  0
 29 30  2  0
 31 34  1  0
 31 30  1  0
 32 31  2  0
 33 32  1  0
 33 28  2  0
 34 35  1  0
 35 36  1  0
 36 37  2  0
 38 37  1  0
 38 42  1  0
 39 38  2  0
 40 35  2  0
 40 39  1  0
 41 40  1  0
 43 44  1  0
 44 47  1  0
 44 46  1  0
 45 43  2  0
 48 23  1  0
 48 49  1  0
 50 48  1  0
 52 53  2  0
 52 51  1  0
 54 53  1  0
 55 66  2  0
 56 54  1  0
 56 61  1  0
 57 65  1  0
 57 67  1  0
 58 64  1  0
 58 60  1  0
 59 65  1  0
 60 61  2  0
 60 59  1  0
 62 56  2  0
 63 62  1  0
 63 58  2  0
 64 57  1  0
 65 55  1  0
 67 69  2  0
 68 67  1  0
 70 68  1  0
 71 80  2  0
 71 76  1  0
 72 68  1  0
 72 76  1  0
 73 72  1  0
 74 75  1  0
 74 73  1  0
 75 71  1  0
 76 77  2  0
 77 78  1  0
 79 78  2  0
 80 79  1  0
 81 55  1  0
 81 82  1  0
 81 91  1  0
 82 85  1  0
 83 87  1  0
 83 82  1  0
 84 83  2  0
 87 86  1  0
 89 90  1  0
 89 87  1  0
 89 88  1  0
 91 94  1  1
 91 92  1  0
 93 91  1  0
M  ISO  4  13 100  21 100  53 101  54 101
M  END
>  <TORSDO>  (51) 
F 21

>  <SCORE>  (51) 
-14.956

>  <name>  (51) 
50

>  <ligand_id>  (51) 
50

>  <original_smiles>  (51) 
[H]c1c([H])c([H])c2c(c1[H])C([H])([H])C([H])([H])C([H])([H])C2([H])N([H])C(=O)C1([H])N(C(=O)C([H])(N([H])C(=O)C([H])(N([H])C([H])([H])[H])C([H])([H])[H])C(C([H])([H])[H])(C([H])([H])[H])C([H])([H])[H])C([H])([H])c2c([H])c(OC([H])([H])C([H])([H])C([H])([H])[N+]3([H])C([H])([H])C([H])([H])C([H])(C(=O)N([H])[H])C3([H])C([H])([H])N([H])C(=O)N3C([H])([H])C([H])([H])C([H])([H])C([H])(n4nc(-c5c([H])c([H])c(Oc6c([H])c([H])c(F)c([H])c6F)c([H])c5[H])c(C(=O)N([H])[H])c4N([H])[H])C3([H])[H])c([H])c([H])c2C1([H])[H]

>  <smiles>  (51) 
[H]c1c([H])c([H])c2c(c1[H])C([H])([H])C([H])([H])C([H])([H])C2([H])N([H])C(=O)C1([H])N(C(=O)C([H])(N([H])C(=O)C([H])(N([H])C([H])([H])[H])C([H])([H])[H])C(C([H])([H])[H])(C([H])([H])[H])C([H])([H])[H])C([H])([H])c2c([H])c(OC([H])([H])C([H])([H])C([H])([H])[N+]3([H])C([H])([H])C([H])([H])C([H])(C(=O)N([H])[H])C3([H])C([H])([H])N([H])C(=O)N3C([H])([H])C([H])([H])C([H])([H])C([H])(n4nc(-c5c([H])c([H])c(Oc6c([H])c([H])c(F)c([H])c6F)c([H])c5[H])c(C(=O)N([H])[H])c4N([H])[H])C3([H])[H])c([H])c([H])c2C1([H])[H]

$$$$
51:0:0
     RDKit          3D

 95104  0  0  1  0  0  0  0  0999 V2000
  -30.7310  -19.1540   21.4560 C   0  0  0  0  0  3  0  0  0  0  0  0
  -31.5830  -18.0960   20.9260 C   0  0  0  0  0  0  0  0  0  0  0  0
  -30.8190  -19.9610   22.5720 C   0  0  0  0  0  0  0  0  0  0  0  0
  -29.3380  -17.6460   20.1160 C   0  0  0  0  0  2  0  0  0  0  0  0
  -29.5960  -19.0970   20.4340 C   0  0  0  0  0  3  0  0  0  0  0  0
  -30.1920  -19.2250   18.9870 C   0  0  0  0  0  3  0  0  0  0  0  0
  -30.7950  -17.7750   19.7050 C   0  0  1  0  0  0  0  0  0  0  0  0
  -29.6830  -20.9390   22.8480 C   0  0  0  0  0  1  0  0  0  0  0  0
  -31.6890  -20.0680   23.4660 O   0  0  0  0  0  0  0  0  0  0  0  0
  -32.6210  -17.6340   21.4020 O   0  0  0  0  0  0  0  0  0  0  0  0
  -31.6880  -15.1520   19.3480 C   0  0  0  0  0  0  0  0  0  0  0  0
  -31.2120  -12.8050   18.5420 C   0  0  0  0  0  2  0  0  0  0  0  0
  -30.1570  -12.7930   17.4150 C   0  0  0  0  0  2  0  0  0  0  0  0
  -28.7410  -12.7210   18.0120 C   0  0  0  0  0  2  0  0  0  0  0  0
  -28.5360  -13.7470   19.1560 C   0  0  0  0  0  3  0  0  0  0  0  0
  -29.6980  -13.7500   20.1660 C   0  0  0  0  0  2  0  0  0  0  0  0
  -30.9230  -13.9920   19.3940 N   0  0  0  0  0  0  0  0  0  0  0  0
  -32.8760  -15.0140   19.0410 O   0  0  0  0  0  0  0  0  0  0  0  0
  -31.0990  -16.3970   19.0130 N   0  0  0  0  0  0  0  0  0  0  0  0
  -31.4380  -16.6160   18.0900 H   0  0  0  0  0  0  0  0  0  0  0  0
  -26.3650  -14.5890   20.2180 C   0  0  0  0  0  0  0  0  0  0  0  0
  -25.2470  -13.9430   20.6700 C   0  0  0  0  0  0  0  0  0  0  0  0
  -25.5030  -12.5470   20.4950 C   0  0  0  0  0  0  0  0  0  0  0  0
  -27.2360  -13.5960   19.8010 N   0  0  0  0  0  0  0  0  0  0  0  0
  -26.7320  -12.3550   20.0270 N   0  0  0  0  0  0  0  0  0  0  0  0
  -24.6200  -11.3890   20.6840 C   0  0  0  0  0  0  0  0  0  0  0  0
  -24.9790  -10.3180   21.5320 C   0  0  0  0  0  3  0  0  0  0  0  0
  -24.1040   -9.2260   21.7140 C   0  0  0  0  0  3  0  0  0  0  0  0
  -22.8550   -9.2000   21.0490 C   0  0  0  0  0  0  0  0  0  0  0  0
  -22.5100  -10.2590   20.1900 C   0  0  0  0  0  3  0  0  0  0  0  0
  -23.3850  -11.3430   20.0050 C   0  0  0  0  0  3  0  0  0  0  0  0
  -21.9490   -8.1710   21.1490 O   0  0  0  0  0  0  0  0  0  0  0  0
  -21.8520   -7.4040   22.2830 C   0  0  0  0  0  0  0  0  0  0  0  0
  -21.5190   -7.9640   23.5360 C   0  0  0  0  0  3  0  0  0  0  0  0
  -21.3620   -7.1300   24.6620 C   0  0  0  0  0  3  0  0  0  0  0  0
  -21.5310   -5.7380   24.5350 C   0  0  0  0  0  0  0  0  0  0  0  0
  -21.8580   -5.1790   23.2870 C   0  0  0  0  0  3  0  0  0  0  0  0
  -22.0170   -6.0090   22.1650 C   0  0  0  0  0  0  0  0  0  0  0  0
  -22.3110   -5.4620   20.9610 F   0  0  0  0  0  0  0  0  0  0  0  0
  -21.3740   -4.9360   25.6140 F   0  0  0  0  0  0  0  0  0  0  0  0
  -23.9790  -14.5900   21.1390 C   0  0  0  0  0  0  0  0  0  0  0  0
  -23.2600  -13.9380   22.0490 N   0  0  0  0  0  0  0  0  0  0  0  0
  -23.6420  -15.7030   20.7410 O   0  0  0  0  0  0  0  0  0  0  0  0
  -23.5500  -13.0390   22.4010 H   0  0  0  0  0  0  0  0  0  0  0  0
  -22.4060  -14.3490   22.3980 H   0  0  0  0  0  0  0  0  0  0  0  0
  -26.7050  -15.9320   20.1020 N   0  0  0  0  0  0  0  0  0  0  0  0
  -26.0750  -16.6840   20.3520 H   0  0  0  0  0  0  0  0  0  0  0  0
  -27.5820  -16.2620   19.7230 H   0  0  0  0  0  0  0  0  0  0  0  0
  -30.4950  -20.7680   19.1710 N   0  0  0  0  0  4  0  0  0  0  0  0
  -31.2510  -20.9870   18.5420 H   0  0  0  0  0  0  0  0  0  0  0  0
  -30.8770  -20.8190   20.1070 H   0  0  0  0  0  0  0  0  0  0  0  0
  -29.4070  -21.9080   19.0320 C   0  0  0  0  0  2  0  0  0  0  0  0
  -29.6860  -23.5290   19.3950 C   0  0  0  0  0  3  0  0  0  0  0  0
  -28.5130  -24.7280   19.3580 C   0  0  0  0  0  3  0  0  0  0  0  0
  -28.6770  -26.2490   19.6280 O   0  0  0  0  0  0  0  0  0  0  0  0
  -24.5900  -31.2960   23.0680 C   0  0  0  0  0  0  0  0  0  0  0  0
  -27.5410  -27.1320   19.6320 C   0  0  0  0  0  0  0  0  0  0  0  0
  -23.5000  -29.9310   21.3320 C   0  0  0  0  0  3  0  0  0  0  0  0
  -25.0630  -28.6350   19.7620 C   0  0  0  0  0  0  0  0  0  0  0  0
  -26.0100  -30.4650   21.1560 C   0  0  0  0  0  2  0  0  0  0  0  0
  -26.2050  -29.1450   20.3910 C   0  0  0  0  0  0  0  0  0  0  0  0
  -27.4440  -28.4100   20.3090 C   0  0  0  0  0  3  0  0  0  0  0  0
  -26.3600  -26.7250   18.9680 C   0  0  0  0  0  3  0  0  0  0  0  0
  -25.1490  -27.4400   19.0370 C   0  0  0  0  0  3  0  0  0  0  0  0
  -23.7570  -29.3980   19.8990 C   0  0  0  0  0  2  0  0  0  0  0  0
  -24.7200  -30.5820   21.9090 N   0  0  0  0  0  0  0  0  0  0  0  0
  -23.4910  -31.4280   23.6290 O   0  0  0  0  0  0  0  0  0  0  0  0
  -22.9440  -28.7820   22.2110 C   0  0  0  0  0  0  0  0  0  0  0  0
  -21.6600  -28.4310   22.0170 N   0  0  0  0  0  0  0  0  0  0  0  0
  -23.6690  -28.2120   23.0310 O   0  0  0  0  0  0  0  0  0  0  0  0
  -21.1250  -28.9510   21.3350 H   0  0  0  0  0  0  0  0  0  0  0  0
  -18.4910  -26.6900   22.2520 C   0  0  0  0  0  0  0  0  0  0  0  0
  -20.9520  -27.3470   22.7040 C   0  0  0  0  0  3  0  0  0  0  0  0
  -21.3190  -25.9720   22.1010 C   0  0  0  0  0  2  0  0  0  0  0  0
  -20.3520  -25.5140   21.0040 C   0  0  0  0  0  2  0  0  0  0  0  0
  -18.9260  -25.4130   21.5540 C   0  0  0  0  0  2  0  0  0  0  0  0
  -19.4410  -27.6060   22.7780 C   0  0  0  0  0  0  0  0  0  0  0  0
  -18.9840  -28.7930   23.3890 C   0  0  0  0  0  3  0  0  0  0  0  0
  -17.6070  -29.0710   23.4810 C   0  0  0  0  0  3  0  0  0  0  0  0
  -16.6700  -28.1550   22.9710 C   0  0  0  0  0  3  0  0  0  0  0  0
  -17.1130  -26.9670   22.3620 C   0  0  0  0  0  3  0  0  0  0  0  0
  -25.8110  -32.0010   23.7310 C   0  0  0  0  0  3  0  0  0  0  0  0
  -26.3340  -31.2500   25.0190 C   0  0  1  0  0  0  0  0  0  0  0  0
  -25.2290  -30.9450   26.0570 C   0  0  0  0  0  1  0  0  0  0  0  0
  -27.0000  -29.9080   24.6360 C   0  0  0  0  0  1  0  0  0  0  0  0
  -27.4210  -32.1010   25.7150 C   0  0  0  0  0  1  0  0  0  0  0  0
  -25.4040  -33.3740   24.0690 N   0  0  0  0  0  0  0  0  0  0  0  0
  -25.6860  -34.4580   23.3320 C   0  0  0  0  0  0  0  0  0  0  0  0
  -26.3840  -34.4090   22.3150 O   0  0  0  0  0  0  0  0  0  0  0  0
  -24.7820  -33.4800   24.8570 H   0  0  0  0  0  0  0  0  0  0  0  0
  -23.8520  -36.1440   22.9790 C   0  0  0  0  0  1  0  0  0  0  0  0
  -25.1080  -35.8090   23.7980 C   0  0  0  0  0  3  0  0  0  0  0  0
  -27.1670  -36.8280   24.6670 C   0  0  0  0  0  1  0  0  0  0  0  0
  -26.0740  -36.9270   23.7030 N   0  0  0  0  0  0  0  0  0  0  0  0
  -25.6060  -37.8180   23.8450 H   0  0  0  0  0  0  0  0  0  0  0  0
  1  3  1  0
  2 10  2  0
  2  1  1  0
  3  8  1  0
  3  9  2  0
  5  4  1  0
  5  1  1  0
  6 49  1  0
  6  7  1  0
  6  5  1  0
  7 19  1  6
  7  4  1  0
  7  2  1  0
 11 17  1  0
 12 17  1  0
 13 14  1  0
 13 12  1  0
 15 14  1  0
 15 24  1  0
 15 16  1  0
 17 16  1  0
 18 11  2  0
 19 11  1  0
 20 19  1  0
 21 22  2  0
 22 41  1  0
 23 22  1  0
 23 26  1  0
 24 25  1  0
 24 21  1  0
 25 23  2  0
 26 27  1  0
 27 28  2  0
 29 32  1  0
 29 28  1  0
 30 29  2  0
 31 30  1  0
 31 26  2  0
 32 33  1  0
 33 34  1  0
 34 35  2  0
 36 35  1  0
 36 40  1  0
 37 36  2  0
 38 33  2  0
 38 37  1  0
 39 38  1  0
 41 42  1  0
 42 45  1  0
 42 44  1  0
 43 41  2  0
 46 21  1  0
 46 47  1  0
 48 46  1  0
 49 51  1  0
 50 49  1  0
 52 49  1  0
 52 53  1  0
 54 53  2  0
 54 55  1  0
 55 57  1  0
 56 67  2  0
 57 62  1  0
 58 66  1  0
 58 68  1  0
 59 65  1  0
 59 61  1  0
 60 66  1  0
 61 60  1  0
 62 61  2  0
 63 64  1  0
 63 57  2  0
 64 59  2  0
 65 58  1  0
 66 56  1  0
 68 70  2  0
 69 68  1  0
 71 69  1  0
 72 81  2  0
 72 77  1  0
 73 69  1  0
 73 77  1  0
 74 73  1  0
 75 76  1  0
 75 74  1  0
 76 72  1  0
 77 78  2  0
 78 79  1  0
 80 79  2  0
 81 80  1  0
 82 56  1  0
 82 87  1  0
 82 83  1  0
 83 86  1  1
 83 84  1  0
 85 83  1  0
 87 90  1  0
 88 92  1  0
 88 87  1  0
 89 88  2  0
 92 91  1  0
 94 92  1  0
 94 95  1  0
 94 93  1  0
M  ISO  4  11 100  19 100  54 101  55 101
M  END
>  <TORSDO>  (52) 
F 20

>  <SCORE>  (52) 
-10.261

>  <name>  (52) 
51

>  <ligand_id>  (52) 
51

>  <original_smiles>  (52) 
[H]c1c([H])c([H])c2c(c1[H])C([H])([H])C([H])([H])C([H])([H])C2([H])N([H])C(=O)C1([H])N(C(=O)C([H])(N([H])C(=O)C([H])(N([H])C([H])([H])[H])C([H])([H])[H])C(C([H])([H])[H])(C([H])([H])[H])C([H])([H])[H])C([H])([H])c2c([H])c(OC([H])([H])C([H])([H])C([H])([H])[N+]([H])([H])C3([H])C4([H])C(=C([O-])C([H])([H])[H])C(=O)C3(N([H])C(=O)N3C([H])([H])C([H])([H])C([H])([H])C([H])(n5nc(-c6c([H])c([H])c(Oc7c([H])c([H])c(F)c([H])c7F)c([H])c6[H])c(C(=O)N([H])[H])c5N([H])[H])C3([H])[H])C4([H])[H])c([H])c([H])c2C1([H])[H]

>  <smiles>  (52) 
[H]c1c([H])c([H])c2c(c1[H])C([H])([H])C([H])([H])C([H])([H])C2([H])N([H])C(=O)C1([H])N(C(=O)C([H])(N([H])C(=O)C([H])(N([H])C([H])([H])[H])C([H])([H])[H])C(C([H])([H])[H])(C([H])([H])[H])C([H])([H])[H])C([H])([H])c2c([H])c(OC([H])([H])C([H])([H])C([H])([H])[N+]([H])([H])C3([H])C4([H])C(=C([O-])C([H])([H])[H])C(=O)C3(N([H])C(=O)N3C([H])([H])C([H])([H])C([H])([H])C([H])(n5nc(-c6c([H])c([H])c(Oc7c([H])c([H])c(F)c([H])c7F)c([H])c6[H])c(C(=O)N([H])[H])c5N([H])[H])C3([H])[H])C4([H])[H])c([H])c([H])c2C1([H])[H]

$$$$
52:0:0
     RDKit          3D

 94103  0  0  1  0  0  0  0  0999 V2000
  -30.3030  -21.8010   20.6050 C   0  0  0  0  0  3  0  0  0  0  0  0
  -28.3120  -21.2830   19.3990 C   0  0  0  0  0  3  0  0  0  0  0  0
  -30.0230  -23.2080   20.4900 C   0  0  0  0  0  3  0  0  0  0  0  0
  -28.0340  -22.6910   19.2840 C   0  0  0  0  0  3  0  0  0  0  0  0
  -29.4810  -20.7760   20.0380 C   0  0  0  0  0  0  0  0  0  0  0  0
  -28.8880  -23.7160   19.7970 C   0  0  0  0  0  0  0  0  0  0  0  0
  -30.8320  -14.8050   19.7850 C   0  0  0  0  0  0  0  0  0  0  0  0
  -30.4890  -12.5510   18.7670 C   0  0  0  0  0  2  0  0  0  0  0  0
  -29.4550  -12.6380   17.6260 C   0  0  0  0  0  2  0  0  0  0  0  0
  -28.0290  -12.4650   18.1810 C   0  0  0  0  0  2  0  0  0  0  0  0
  -27.7640  -13.3400   19.4370 C   0  0  0  0  0  3  0  0  0  0  0  0
  -28.9170  -13.2610   20.4590 C   0  0  0  0  0  2  0  0  0  0  0  0
  -30.1470  -13.6110   19.7450 N   0  0  0  0  0  0  0  0  0  0  0  0
  -32.0040  -14.8270   19.3950 O   0  0  0  0  0  0  0  0  0  0  0  0
  -29.6200  -18.3920   18.7770 C   0  0  0  0  0  2  0  0  0  0  0  0
  -30.3250  -16.9770   18.7320 C   0  0  0  0  0  2  0  0  0  0  0  0
  -30.1400  -16.8020   21.1510 C   0  0  0  0  0  2  0  0  0  0  0  0
  -29.9360  -19.2300   20.0440 C   0  0  0  0  0  3  0  0  0  0  0  0
  -29.4710  -18.2610   21.1860 C   0  0  0  0  0  3  0  0  0  0  0  0
  -30.1330  -16.0190   19.8730 N   0  0  0  0  0  0  0  0  0  0  0  0
  -25.4720  -13.9160   20.4250 C   0  0  0  0  0  0  0  0  0  0  0  0
  -24.4330  -13.1360   20.8540 C   0  0  0  0  0  0  0  0  0  0  0  0
  -24.8680  -11.7830   20.7120 C   0  0  0  0  0  0  0  0  0  0  0  0
  -26.4720  -13.0390   20.0440 N   0  0  0  0  0  0  0  0  0  0  0  0
  -26.1240  -11.7460   20.2800 N   0  0  0  0  0  0  0  0  0  0  0  0
  -24.1420  -10.5210   20.9060 C   0  0  0  0  0  0  0  0  0  0  0  0
  -24.5800   -9.5490   21.8330 C   0  0  0  0  0  3  0  0  0  0  0  0
  -23.8510   -8.3540   22.0140 C   0  0  0  0  0  3  0  0  0  0  0  0
  -22.6710   -8.1210   21.2700 C   0  0  0  0  0  0  0  0  0  0  0  0
  -22.2520   -9.0810   20.3310 C   0  0  0  0  0  3  0  0  0  0  0  0
  -22.9810  -10.2680   20.1460 C   0  0  0  0  0  3  0  0  0  0  0  0
  -21.9130   -6.9790   21.3610 O   0  0  0  0  0  0  0  0  0  0  0  0
  -21.7750   -6.3000   22.5460 C   0  0  0  0  0  0  0  0  0  0  0  0
  -21.2430   -6.9170   23.7000 C   0  0  0  0  0  3  0  0  0  0  0  0
  -21.0530   -6.1640   24.8760 C   0  0  0  0  0  3  0  0  0  0  0  0
  -21.3830   -4.7960   24.8980 C   0  0  0  0  0  0  0  0  0  0  0  0
  -21.9080   -4.1790   23.7490 C   0  0  0  0  0  3  0  0  0  0  0  0
  -22.0990   -4.9290   22.5760 C   0  0  0  0  0  0  0  0  0  0  0  0
  -22.5850   -4.3250   21.4630 F   0  0  0  0  0  0  0  0  0  0  0  0
  -21.1940   -4.0700   26.0250 F   0  0  0  0  0  0  0  0  0  0  0  0
  -23.0750  -13.6160   21.2800 C   0  0  0  0  0  0  0  0  0  0  0  0
  -22.4260  -12.8950   22.1870 N   0  0  0  0  0  0  0  0  0  0  0  0
  -22.6030  -14.6650   20.8420 O   0  0  0  0  0  0  0  0  0  0  0  0
  -22.8210  -12.0450   22.5600 H   0  0  0  0  0  0  0  0  0  0  0  0
  -21.5190  -13.1980   22.5120 H   0  0  0  0  0  0  0  0  0  0  0  0
  -25.6440  -15.2910   20.3010 N   0  0  0  0  0  0  0  0  0  0  0  0
  -24.9040  -15.9500   20.5150 H   0  0  0  0  0  0  0  0  0  0  0  0
  -26.4660  -15.7320   19.9080 H   0  0  0  0  0  0  0  0  0  0  0  0
  -29.6730  -18.8880   22.5040 N   0  0  0  0  0  4  0  0  0  0  0  0
  -30.6470  -19.0330   22.6960 H   0  0  0  0  0  0  0  0  0  0  0  0
  -29.2830  -18.3170   23.2340 H   0  0  0  0  0  0  0  0  0  0  0  0
  -29.2100  -19.7800   22.5300 H   0  0  0  0  0  0  0  0  0  0  0  0
  -28.7380  -25.2450   19.3330 C   0  0  0  0  0  2  0  0  0  0  0  0
  -28.5040  -26.4250   20.2310 O   0  0  0  0  0  0  0  0  0  0  0  0
  -24.5520  -31.7660   23.1540 C   0  0  0  0  0  0  0  0  0  0  0  0
  -27.3710  -27.2720   20.1200 C   0  0  0  0  0  0  0  0  0  0  0  0
  -23.4330  -30.3440   21.4780 C   0  0  0  0  0  3  0  0  0  0  0  0
  -24.9630  -28.8510   20.0690 C   0  0  0  0  0  0  0  0  0  0  0  0
  -25.9690  -30.7310   21.3590 C   0  0  0  0  0  2  0  0  0  0  0  0
  -26.1060  -29.3580   20.7000 C   0  0  0  0  0  0  0  0  0  0  0  0
  -27.3070  -28.5780   20.7200 C   0  0  0  0  0  3  0  0  0  0  0  0
  -26.1930  -26.8280   19.4760 C   0  0  0  0  0  3  0  0  0  0  0  0
  -25.0120  -27.5940   19.4480 C   0  0  0  0  0  3  0  0  0  0  0  0
  -23.7000  -29.6890   20.0970 C   0  0  0  0  0  2  0  0  0  0  0  0
  -24.6690  -30.9660   22.0530 N   0  0  0  0  0  0  0  0  0  0  0  0
  -23.4470  -32.0040   23.6650 O   0  0  0  0  0  0  0  0  0  0  0  0
  -22.7810  -29.2990   22.4160 C   0  0  0  0  0  0  0  0  0  0  0  0
  -21.4620  -29.0860   22.2640 N   0  0  0  0  0  0  0  0  0  0  0  0
  -23.4620  -28.6830   23.2400 O   0  0  0  0  0  0  0  0  0  0  0  0
  -20.9700  -29.6350   21.5730 H   0  0  0  0  0  0  0  0  0  0  0  0
  -18.1080  -27.8030   22.7110 C   0  0  0  0  0  0  0  0  0  0  0  0
  -20.6560  -28.1170   23.0110 C   0  0  0  0  0  3  0  0  0  0  0  0
  -20.7960  -26.6970   22.4130 C   0  0  0  0  0  2  0  0  0  0  0  0
  -19.7120  -26.3670   21.3820 C   0  0  0  0  0  2  0  0  0  0  0  0
  -18.3210  -26.4700   22.0140 C   0  0  0  0  0  2  0  0  0  0  0  0
  -19.2040  -28.5840   23.1650 C   0  0  0  0  0  0  0  0  0  0  0  0
  -18.9500  -29.8310   23.7760 C   0  0  0  0  0  3  0  0  0  0  0  0
  -17.6320  -30.2980   23.9380 C   0  0  0  0  0  3  0  0  0  0  0  0
  -16.5500  -29.5150   23.5010 C   0  0  0  0  0  3  0  0  0  0  0  0
  -16.7880  -28.2680   22.8940 C   0  0  0  0  0  3  0  0  0  0  0  0
  -25.7980  -32.4380   23.8100 C   0  0  0  0  0  3  0  0  0  0  0  0
  -26.3060  -31.6800   25.0990 C   0  0  1  0  0  0  0  0  0  0  0  0
  -25.1920  -31.3980   26.1350 C   0  0  0  0  0  1  0  0  0  0  0  0
  -26.9480  -30.3260   24.7210 C   0  0  0  0  0  1  0  0  0  0  0  0
  -27.4090  -32.5110   25.7950 C   0  0  0  0  0  1  0  0  0  0  0  0
  -25.4360  -33.8250   24.1380 N   0  0  0  0  0  0  0  0  0  0  0  0
  -25.7390  -34.8910   23.3850 C   0  0  0  0  0  0  0  0  0  0  0  0
  -26.4220  -34.8130   22.3610 O   0  0  0  0  0  0  0  0  0  0  0  0
  -24.8310  -33.9560   24.9360 H   0  0  0  0  0  0  0  0  0  0  0  0
  -23.9510  -36.6230   23.0180 C   0  0  0  0  0  1  0  0  0  0  0  0
  -25.1990  -36.2610   23.8410 C   0  0  0  0  0  3  0  0  0  0  0  0
  -27.2910  -37.2220   24.6930 C   0  0  0  0  0  1  0  0  0  0  0  0
  -26.1940  -37.3500   23.7390 N   0  0  0  0  0  0  0  0  0  0  0  0
  -25.7540  -38.2550   23.8810 H   0  0  0  0  0  0  0  0  0  0  0  0
  2  5  1  0
  3  1  1  0
  4  2  2  0
  4  6  1  0
  5  1  2  0
  6  3  2  0
  7 20  1  0
  8 13  1  0
  9 10  1  0
  9  8  1  0
 11 10  1  0
 11 24  1  0
 11 12  1  0
 13  7  1  0
 13 12  1  0
 14  7  2  0
 15 18  1  0
 16 15  1  0
 16 20  1  0
 17 19  1  0
 18  5  1  0
 18 19  1  0
 19 49  1  0
 20 17  1  0
 21 22  2  0
 22 41  1  0
 23 22  1  0
 23 26  1  0
 24 25  1  0
 24 21  1  0
 25 23  2  0
 26 27  1  0
 27 28  2  0
 29 32  1  0
 29 28  1  0
 30 29  2  0
 31 30  1  0
 31 26  2  0
 32 33  1  0
 33 38  2  0
 33 34  1  0
 34 35  2  0
 35 36  1  0
 36 40  1  0
 37 36  2  0
 38 37  1  0
 39 38  1  0
 41 42  1  0
 42 45  1  0
 42 44  1  0
 43 41  2  0
 46 21  1  0
 46 47  1  0
 48 46  1  0
 49 52  1  0
 49 50  1  0
 49 51  1  0
 53  6  1  0
 53 54  1  0
 55 66  2  0
 56 54  1  0
 56 61  1  0
 57 65  1  0
 57 67  1  0
 58 64  1  0
 58 60  1  0
 59 65  1  0
 60 61  2  0
 60 59  1  0
 62 56  2  0
 63 62  1  0
 63 58  2  0
 64 57  1  0
 65 55  1  0
 67 69  2  0
 68 67  1  0
 70 68  1  0
 71 80  2  0
 71 76  1  0
 72 68  1  0
 72 76  1  0
 73 72  1  0
 74 75  1  0
 74 73  1  0
 75 71  1  0
 76 77  2  0
 77 78  1  0
 79 78  2  0
 80 79  1  0
 81 55  1  0
 81 86  1  0
 81 82  1  0
 82 85  1  1
 82 83  1  0
 84 82  1  0
 86 89  1  0
 87 91  1  0
 87 86  1  0
 88 87  2  0
 91 90  1  0
 93 91  1  0
 93 94  1  0
 93 92  1  0
M  ISO  4   7 100  20 100  53 101  54 101
M  END
>  <TORSDO>  (53) 
F 18

>  <SCORE>  (53) 
-13.267

>  <name>  (53) 
52

>  <ligand_id>  (53) 
52

>  <original_smiles>  (53) 
[H]c1c([H])c([H])c2c(c1[H])C([H])([H])C([H])([H])C([H])([H])C2([H])N([H])C(=O)C1([H])N(C(=O)C([H])(N([H])C(=O)C([H])(N([H])C([H])([H])[H])C([H])([H])[H])C(C([H])([H])[H])(C([H])([H])[H])C([H])([H])[H])C([H])([H])c2c([H])c(OC([H])([H])c3c([H])c([H])c(C4([H])C([H])([H])C([H])([H])N(C(=O)N5C([H])([H])C([H])([H])C([H])([H])C([H])(n6nc(-c7c([H])c([H])c(Oc8c([H])c([H])c(F)c([H])c8F)c([H])c7[H])c(C(=O)N([H])[H])c6N([H])[H])C5([H])[H])C([H])([H])C4([H])[N+]([H])([H])[H])c([H])c3[H])c([H])c([H])c2C1([H])[H]

>  <smiles>  (53) 
[H]c1c([H])c([H])c2c(c1[H])C([H])([H])C([H])([H])C([H])([H])C2([H])N([H])C(=O)C1([H])N(C(=O)C([H])(N([H])C(=O)C([H])(N([H])C([H])([H])[H])C([H])([H])[H])C(C([H])([H])[H])(C([H])([H])[H])C([H])([H])[H])C([H])([H])c2c([H])c(OC([H])([H])c3c([H])c([H])c(C4([H])C([H])([H])C([H])([H])N(C(=O)N5C([H])([H])C([H])([H])C([H])([H])C([H])(n6nc(-c7c([H])c([H])c(Oc8c([H])c([H])c(F)c([H])c8F)c([H])c7[H])c(C(=O)N([H])[H])c6N([H])[H])C5([H])[H])C([H])([H])C4([H])[N+]([H])([H])[H])c([H])c3[H])c([H])c([H])c2C1([H])[H]

$$$$
53:0:0
     RDKit          3D

 88 98  0  0  1  0  0  0  0  0999 V2000
  -28.8570  -22.7720   19.7390 C   0  0  0  0  0  0  0  0  0  0  0  0
  -27.9340  -19.1250   19.6450 C   0  0  0  0  0  2  0  0  0  0  0  0
  -28.7220  -20.6580   21.4280 C   0  0  0  0  0  2  0  0  0  0  0  0
  -28.6170  -19.1230   21.0260 C   0  0  1  0  0  0  0  0  0  0  0  0
  -29.2460  -19.8730   19.3960 C   0  0  1  0  0  0  0  0  0  0  0  0
  -29.8310  -18.4450   20.2530 C   0  0  0  0  0  3  0  0  0  0  0  0
  -28.9790  -21.3170   20.1380 N   0  0  0  0  0  0  0  0  0  0  0  0
  -29.3130  -23.0060   18.6170 O   0  0  0  0  0  0  0  0  0  0  0  0
  -30.4370  -15.4750   19.8600 C   0  0  0  0  0  0  0  0  0  0  0  0
  -30.3950  -13.0250   18.9380 C   0  0  0  0  0  2  0  0  0  0  0  0
  -29.3970  -12.7750   17.7780 C   0  0  0  0  0  2  0  0  0  0  0  0
  -27.9880  -12.4720   18.3190 C   0  0  0  0  0  2  0  0  0  0  0  0
  -27.5980  -13.4260   19.4730 C   0  0  0  0  0  3  0  0  0  0  0  0
  -28.7190  -13.6030   20.5200 C   0  0  0  0  0  2  0  0  0  0  0  0
  -29.8780  -14.1580   19.7980 N   0  0  0  0  0  0  0  0  0  0  0  0
  -31.6550  -15.4640   19.6190 O   0  0  0  0  0  0  0  0  0  0  0  0
  -29.6630  -16.7600   19.9930 N   0  0  0  0  0  0  0  0  0  0  0  0
  -28.6850  -16.5140   20.0370 H   0  0  0  0  0  0  0  0  0  0  0  0
  -25.2970  -13.9580   20.4290 C   0  0  0  0  0  0  0  0  0  0  0  0
  -24.2620  -13.1700   20.8460 C   0  0  0  0  0  0  0  0  0  0  0  0
  -24.7180  -11.8210   20.7300 C   0  0  0  0  0  0  0  0  0  0  0  0
  -26.3140  -13.0900   20.0750 N   0  0  0  0  0  0  0  0  0  0  0  0
  -25.9830  -11.7950   20.3230 N   0  0  0  0  0  0  0  0  0  0  0  0
  -23.9980  -10.5550   20.9240 C   0  0  0  0  0  0  0  0  0  0  0  0
  -24.4600   -9.5720   21.8270 C   0  0  0  0  0  3  0  0  0  0  0  0
  -23.7380   -8.3730   22.0110 C   0  0  0  0  0  3  0  0  0  0  0  0
  -22.5390   -8.1490   21.2940 C   0  0  0  0  0  0  0  0  0  0  0  0
  -22.0950   -9.1220   20.3790 C   0  0  0  0  0  3  0  0  0  0  0  0
  -22.8180  -10.3110   20.1920 C   0  0  0  0  0  3  0  0  0  0  0  0
  -21.7830   -7.0050   21.3900 O   0  0  0  0  0  0  0  0  0  0  0  0
  -21.7360   -6.2700   22.5480 C   0  0  0  0  0  0  0  0  0  0  0  0
  -21.2930   -6.8280   23.7670 C   0  0  0  0  0  3  0  0  0  0  0  0
  -21.1930   -6.0180   24.9160 C   0  0  0  0  0  3  0  0  0  0  0  0
  -21.5250   -4.6520   24.8470 C   0  0  0  0  0  0  0  0  0  0  0  0
  -21.9610   -4.0940   23.6320 C   0  0  0  0  0  3  0  0  0  0  0  0
  -22.0630   -4.9010   22.4860 C   0  0  0  0  0  0  0  0  0  0  0  0
  -22.4630   -4.3520   21.3130 F   0  0  0  0  0  0  0  0  0  0  0  0
  -21.4220   -3.8730   25.9490 F   0  0  0  0  0  0  0  0  0  0  0  0
  -22.8900  -13.6420   21.2290 C   0  0  0  0  0  0  0  0  0  0  0  0
  -22.2210  -12.9200   22.1210 N   0  0  0  0  0  0  0  0  0  0  0  0
  -22.4240  -14.6860   20.7740 O   0  0  0  0  0  0  0  0  0  0  0  0
  -22.6140  -12.0770   22.5100 H   0  0  0  0  0  0  0  0  0  0  0  0
  -21.3030  -13.2170   22.4190 H   0  0  0  0  0  0  0  0  0  0  0  0
  -25.4510  -15.3340   20.2900 N   0  0  0  0  0  0  0  0  0  0  0  0
  -24.6900  -15.9790   20.4770 H   0  0  0  0  0  0  0  0  0  0  0  0
  -26.2550  -15.7840   19.8750 H   0  0  0  0  0  0  0  0  0  0  0  0
  -28.1250  -24.2290   20.4590 C   0  0  0  0  0  2  0  0  0  0  0  0
  -28.3290  -25.8670   20.1350 O   0  0  0  0  0  0  0  0  0  0  0  0
  -24.6690  -31.8630   23.1320 C   0  0  0  0  0  0  0  0  0  0  0  0
  -27.3040  -26.9740   20.1390 C   0  0  0  0  0  0  0  0  0  0  0  0
  -23.5090  -30.4590   21.4790 C   0  0  0  0  0  3  0  0  0  0  0  0
  -24.9900  -28.8650   20.0730 C   0  0  0  0  0  0  0  0  0  0  0  0
  -26.0780  -30.6860   21.3620 C   0  0  0  0  0  2  0  0  0  0  0  0
  -26.1720  -29.2720   20.7050 C   0  0  0  0  0  0  0  0  0  0  0  0
  -27.3240  -28.3520   20.7060 C   0  0  0  0  0  3  0  0  0  0  0  0
  -26.0860  -26.7300   19.4650 C   0  0  0  0  0  3  0  0  0  0  0  0
  -24.9760  -27.6150   19.4310 C   0  0  0  0  0  3  0  0  0  0  0  0
  -23.7630  -29.7790   20.1050 C   0  0  0  0  0  2  0  0  0  0  0  0
  -24.7730  -31.0310   22.0450 N   0  0  0  0  0  0  0  0  0  0  0  0
  -23.5690  -32.1410   23.6410 O   0  0  0  0  0  0  0  0  0  0  0  0
  -22.8110  -29.4560   22.4350 C   0  0  0  0  0  0  0  0  0  0  0  0
  -21.4810  -29.2980   22.3130 N   0  0  0  0  0  0  0  0  0  0  0  0
  -23.4760  -28.8200   23.2550 O   0  0  0  0  0  0  0  0  0  0  0  0
  -20.9950  -29.8630   21.6300 H   0  0  0  0  0  0  0  0  0  0  0  0
  -18.0930  -28.0970   22.8330 C   0  0  0  0  0  0  0  0  0  0  0  0
  -20.6580  -28.3510   23.0750 C   0  0  0  0  0  3  0  0  0  0  0  0
  -20.7470  -26.9280   22.4750 C   0  0  0  0  0  2  0  0  0  0  0  0
  -19.6350  -26.6270   21.4660 C   0  0  0  0  0  2  0  0  0  0  0  0
  -18.2590  -26.7630   22.1260 C   0  0  0  0  0  2  0  0  0  0  0  0
  -19.2200  -28.8500   23.2650 C   0  0  0  0  0  0  0  0  0  0  0  0
  -19.0080  -30.0970   23.8900 C   0  0  0  0  0  3  0  0  0  0  0  0
  -17.7050  -30.5940   24.0860 C   0  0  0  0  0  3  0  0  0  0  0  0
  -16.5950  -29.8400   23.6680 C   0  0  0  0  0  3  0  0  0  0  0  0
  -16.7900  -28.5930   23.0480 C   0  0  0  0  0  3  0  0  0  0  0  0
  -25.9230  -32.5220   23.7820 C   0  0  0  0  0  3  0  0  0  0  0  0
  -25.5820  -33.9160   24.1220 N   0  0  0  0  0  0  0  0  0  0  0  0
  -25.9040  -34.9880   23.3850 C   0  0  0  0  0  0  0  0  0  0  0  0
  -26.5810  -34.9080   22.3580 O   0  0  0  0  0  0  0  0  0  0  0  0
  -24.9790  -34.0490   24.9200 H   0  0  0  0  0  0  0  0  0  0  0  0
  -24.1530  -36.7690   23.0600 C   0  0  0  0  0  1  0  0  0  0  0  0
  -25.4000  -36.3660   23.8630 C   0  0  0  0  0  3  0  0  0  0  0  0
  -27.5200  -37.2740   24.7090 C   0  0  0  0  0  1  0  0  0  0  0  0
  -26.4180  -37.4340   23.7640 N   0  0  0  0  0  0  0  0  0  0  0  0
  -25.9990  -38.3480   23.9190 H   0  0  0  0  0  0  0  0  0  0  0  0
  -26.4230  -31.7590   25.0710 C   0  0  1  0  0  0  0  0  0  0  0  0
  -25.3130  -31.5130   26.1210 C   0  0  0  0  0  1  0  0  0  0  0  0
  -27.0280  -30.3860   24.7030 C   0  0  0  0  0  1  0  0  0  0  0  0
  -27.5530  -32.5670   25.7520 C   0  0  0  0  0  1  0  0  0  0  0  0
  1  7  1  0
  1 47  1  0
  4  2  1  6
  4  3  1  0
  5  2  1  1
  5  7  1  0
  5  6  1  0
  5  4  1  0
  6 17  1  0
  6  4  1  0
  7  3  1  0
  8  1  2  0
  9 17  1  0
 10 15  1  0
 11 12  1  0
 11 10  1  0
 13 12  1  0
 13 22  1  0
 13 14  1  0
 15  9  1  0
 15 14  1  0
 16  9  2  0
 17 18  1  0
 19 20  2  0
 20 39  1  0
 21 20  1  0
 21 24  1  0
 22 23  1  0
 22 19  1  0
 23 21  2  0
 24 25  1  0
 25 26  2  0
 27 30  1  0
 27 26  1  0
 28 27  2  0
 29 28  1  0
 29 24  2  0
 30 31  1  0
 31 32  1  0
 32 33  2  0
 34 33  1  0
 34 38  1  0
 35 34  2  0
 36 31  2  0
 36 35  1  0
 37 36  1  0
 39 40  1  0
 40 43  1  0
 40 42  1  0
 41 39  2  0
 44 19  1  0
 44 45  1  0
 46 44  1  0
 48 50  1  0
 48 47  1  0
 49 60  2  0
 50 55  1  0
 51 59  1  0
 51 61  1  0
 52 58  1  0
 52 54  1  0
 53 59  1  0
 54 55  2  0
 54 53  1  0
 56 50  2  0
 57 56  1  0
 57 52  2  0
 58 51  1  0
 59 49  1  0
 61 63  2  0
 62 61  1  0
 64 62  1  0
 65 74  2  0
 65 70  1  0
 66 62  1  0
 66 70  1  0
 67 66  1  0
 68 69  1  0
 68 67  1  0
 69 65  1  0
 70 71  2  0
 71 72  1  0
 73 72  2  0
 74 73  1  0
 75 49  1  0
 75 76  1  0
 75 85  1  0
 76 79  1  0
 77 81  1  0
 77 76  1  0
 78 77  2  0
 81 80  1  0
 83 81  1  0
 83 84  1  0
 83 82  1  0
 85 88  1  1
 85 86  1  0
 87 85  1  0
M  ISO  4   9 100  17 100  47 101  48 101
M  END
>  <TORSDO>  (54) 
F 17

>  <SCORE>  (54) 
-15.875

>  <name>  (54) 
53

>  <ligand_id>  (54) 
53

>  <original_smiles>  (54) 
[H]c1c([H])c([H])c2c(c1[H])C([H])([H])C([H])([H])C([H])([H])C2([H])N([H])C(=O)C1([H])N(C(=O)C([H])(N([H])C(=O)C([H])(N([H])C([H])([H])[H])C([H])([H])[H])C(C([H])([H])[H])(C([H])([H])[H])C([H])([H])[H])C([H])([H])c2c([H])c(OC([H])([H])C(=O)N3C([H])([H])C4([H])C([H])([H])C3([H])C4([H])N([H])C(=O)N3C([H])([H])C([H])([H])C([H])([H])C([H])(n4nc(-c5c([H])c([H])c(Oc6c([H])c([H])c(F)c([H])c6F)c([H])c5[H])c(C(=O)N([H])[H])c4N([H])[H])C3([H])[H])c([H])c([H])c2C1([H])[H]

>  <smiles>  (54) 
[H]c1c([H])c([H])c2c(c1[H])C([H])([H])C([H])([H])C([H])([H])C2([H])N([H])C(=O)C1([H])N(C(=O)C([H])(N([H])C(=O)C([H])(N([H])C([H])([H])[H])C([H])([H])[H])C(C([H])([H])[H])(C([H])([H])[H])C([H])([H])[H])C([H])([H])c2c([H])c(OC([H])([H])C(=O)N3C([H])([H])C4([H])C([H])([H])C3([H])C4([H])N([H])C(=O)N3C([H])([H])C([H])([H])C([H])([H])C([H])(n4nc(-c5c([H])c([H])c(Oc6c([H])c([H])c(F)c([H])c6F)c([H])c5[H])c(C(=O)N([H])[H])c4N([H])[H])C3([H])[H])c([H])c([H])c2C1([H])[H]

$$$$
54:0:0
     RDKit          3D

 89 96  0  0  1  0  0  0  0  0999 V2000
  -28.9260  -22.4510   20.1060 N   0  0  0  0  0  4  0  0  0  0  0  0
  -29.1420  -22.4010   19.1220 H   0  0  0  0  0  0  0  0  0  0  0  0
  -27.9390  -22.2610   20.1860 H   0  0  0  0  0  0  0  0  0  0  0  0
  -31.1180  -21.6170   21.0700 C   0  0  0  0  0  1  0  0  0  0  0  0
  -29.6340  -21.2840   20.8040 C   0  0  0  0  0  3  0  0  0  0  0  0
  -29.5150  -19.8560   20.0690 C   0  0  0  0  0  2  0  0  0  0  0  0
  -29.8540  -18.4810   20.8330 C   0  0  0  0  0  3  0  0  0  0  0  0
  -30.0020  -17.1570   19.9450 C   0  0  0  0  0  3  0  0  0  0  0  0
  -30.6380  -14.6680   20.3100 C   0  0  0  0  0  0  0  0  0  0  0  0
  -30.3730  -12.4270   19.2740 C   0  0  0  0  0  2  0  0  0  0  0  0
  -29.4230  -12.5750   18.0630 C   0  0  0  0  0  2  0  0  0  0  0  0
  -27.9540  -12.4320   18.5050 C   0  0  0  0  0  2  0  0  0  0  0  0
  -27.6180  -13.2870   19.7570 C   0  0  0  0  0  3  0  0  0  0  0  0
  -28.6900  -13.1340   20.8610 C   0  0  0  0  0  2  0  0  0  0  0  0
  -29.9930  -13.4570   20.2650 N   0  0  0  0  0  0  0  0  0  0  0  0
  -31.7960  -14.7840   19.9040 O   0  0  0  0  0  0  0  0  0  0  0  0
  -29.8740  -15.7820   20.5730 N   0  0  0  0  0  0  0  0  0  0  0  0
  -28.9620  -15.5670   20.9460 H   0  0  0  0  0  0  0  0  0  0  0  0
  -25.2310  -13.8910   20.4840 C   0  0  0  0  0  0  0  0  0  0  0  0
  -24.1640  -13.1210   20.8630 C   0  0  0  0  0  0  0  0  0  0  0  0
  -24.6220  -11.7680   20.8380 C   0  0  0  0  0  0  0  0  0  0  0  0
  -26.2720  -13.0070   20.2530 N   0  0  0  0  0  0  0  0  0  0  0  0
  -25.9120  -11.7250   20.5230 N   0  0  0  0  0  0  0  0  0  0  0  0
  -23.8900  -10.5100   21.0390 C   0  0  0  0  0  0  0  0  0  0  0  0
  -24.3320   -9.5340   21.9590 C   0  0  0  0  0  3  0  0  0  0  0  0
  -23.6000   -8.3420   22.1450 C   0  0  0  0  0  3  0  0  0  0  0  0
  -22.4100   -8.1170   21.4140 C   0  0  0  0  0  0  0  0  0  0  0  0
  -21.9860   -9.0810   20.4820 C   0  0  0  0  0  3  0  0  0  0  0  0
  -22.7190  -10.2640   20.2940 C   0  0  0  0  0  3  0  0  0  0  0  0
  -21.6470   -6.9800   21.5130 O   0  0  0  0  0  0  0  0  0  0  0  0
  -21.6300   -6.2230   22.6570 C   0  0  0  0  0  0  0  0  0  0  0  0
  -21.2630   -6.7690   23.9070 C   0  0  0  0  0  3  0  0  0  0  0  0
  -21.1920   -5.9400   25.0440 C   0  0  0  0  0  3  0  0  0  0  0  0
  -21.4760   -4.5650   24.9330 C   0  0  0  0  0  0  0  0  0  0  0  0
  -21.8380   -4.0200   23.6890 C   0  0  0  0  0  3  0  0  0  0  0  0
  -21.9110   -4.8450   22.5540 C   0  0  0  0  0  0  0  0  0  0  0  0
  -22.2380   -4.3100   21.3530 F   0  0  0  0  0  0  0  0  0  0  0  0
  -21.4020   -3.7660   26.0240 F   0  0  0  0  0  0  0  0  0  0  0  0
  -22.7710  -13.6040   21.1390 C   0  0  0  0  0  0  0  0  0  0  0  0
  -22.0460  -12.9170   22.0140 N   0  0  0  0  0  0  0  0  0  0  0  0
  -22.3300  -14.6270   20.6130 O   0  0  0  0  0  0  0  0  0  0  0  0
  -22.4130  -12.0870   22.4580 H   0  0  0  0  0  0  0  0  0  0  0  0
  -21.1120  -13.2230   22.2440 H   0  0  0  0  0  0  0  0  0  0  0  0
  -25.3940  -15.2610   20.2910 N   0  0  0  0  0  0  0  0  0  0  0  0
  -24.6240  -15.9140   20.3940 H   0  0  0  0  0  0  0  0  0  0  0  0
  -26.2340  -15.6930   19.9290 H   0  0  0  0  0  0  0  0  0  0  0  0
  -29.1530  -23.9000   20.5580 C   0  0  0  0  0  3  0  0  0  0  0  0
  -28.1230  -24.9940   20.0010 C   0  0  0  0  0  3  0  0  0  0  0  0
  -28.3160  -26.4490   20.2580 O   0  0  0  0  0  0  0  0  0  0  0  0
  -24.6030  -31.8780   23.2430 C   0  0  0  0  0  0  0  0  0  0  0  0
  -27.1990  -27.3060   20.1860 C   0  0  0  0  0  0  0  0  0  0  0  0
  -23.3900  -30.4780   21.6110 C   0  0  0  0  0  3  0  0  0  0  0  0
  -24.8340  -28.9260   20.1800 C   0  0  0  0  0  0  0  0  0  0  0  0
  -25.9290  -30.7890   21.4190 C   0  0  0  0  0  2  0  0  0  0  0  0
  -26.0040  -29.4110   20.7750 C   0  0  0  0  0  0  0  0  0  0  0  0
  -27.1880  -28.6110   20.7730 C   0  0  0  0  0  3  0  0  0  0  0  0
  -26.0070  -26.8870   19.5490 C   0  0  0  0  0  3  0  0  0  0  0  0
  -24.8380  -27.6710   19.5550 C   0  0  0  0  0  3  0  0  0  0  0  0
  -23.5960  -29.7980   20.2320 C   0  0  0  0  0  2  0  0  0  0  0  0
  -24.6590  -31.0680   22.1460 N   0  0  0  0  0  0  0  0  0  0  0  0
  -23.5220  -32.1600   23.7810 O   0  0  0  0  0  0  0  0  0  0  0  0
  -22.7280  -29.4640   22.5750 C   0  0  0  0  0  0  0  0  0  0  0  0
  -21.4020  -29.2870   22.4490 N   0  0  0  0  0  0  0  0  0  0  0  0
  -23.4080  -28.8390   23.3940 O   0  0  0  0  0  0  0  0  0  0  0  0
  -20.9160  -29.8440   21.7600 H   0  0  0  0  0  0  0  0  0  0  0  0
  -18.0240  -28.0870   22.9400 C   0  0  0  0  0  0  0  0  0  0  0  0
  -20.5800  -28.3540   23.2200 C   0  0  0  0  0  3  0  0  0  0  0  0
  -20.6900  -26.9190   22.6530 C   0  0  0  0  0  2  0  0  0  0  0  0
  -19.5930  -26.5880   21.6350 C   0  0  0  0  0  2  0  0  0  0  0  0
  -18.2080  -26.7340   22.2710 C   0  0  0  0  0  2  0  0  0  0  0  0
  -19.1400  -28.8550   23.3670 C   0  0  0  0  0  0  0  0  0  0  0  0
  -18.9150  -30.1230   23.9480 C   0  0  0  0  0  3  0  0  0  0  0  0
  -17.6100  -30.6210   24.1100 C   0  0  0  0  0  3  0  0  0  0  0  0
  -16.5090  -29.8500   23.6980 C   0  0  0  0  0  3  0  0  0  0  0  0
  -16.7170  -28.5860   23.1180 C   0  0  0  0  0  3  0  0  0  0  0  0
  -25.8890  -32.5060   23.8610 C   0  0  0  0  0  3  0  0  0  0  0  0
  -26.4080  -31.7310   25.1340 C   0  0  1  0  0  0  0  0  0  0  0  0
  -25.3180  -31.4980   26.2060 C   0  0  0  0  0  1  0  0  0  0  0  0
  -26.9860  -30.3520   24.7400 C   0  0  0  0  0  1  0  0  0  0  0  0
  -27.5630  -32.5220   25.7930 C   0  0  0  0  0  1  0  0  0  0  0  0
  -25.5880  -33.9060   24.1940 N   0  0  0  0  0  0  0  0  0  0  0  0
  -25.9190  -34.9570   23.4320 C   0  0  0  0  0  0  0  0  0  0  0  0
  -26.5800  -34.8520   22.3970 O   0  0  0  0  0  0  0  0  0  0  0  0
  -25.0050  -34.0640   25.0030 H   0  0  0  0  0  0  0  0  0  0  0  0
  -24.1870  -36.7520   23.0980 C   0  0  0  0  0  1  0  0  0  0  0  0
  -25.4390  -36.3480   23.8940 C   0  0  0  0  0  3  0  0  0  0  0  0
  -27.5850  -37.2300   24.6960 C   0  0  0  0  0  1  0  0  0  0  0  0
  -26.4710  -37.4000   23.7660 N   0  0  0  0  0  0  0  0  0  0  0  0
  -26.0680  -38.3200   23.9190 H   0  0  0  0  0  0  0  0  0  0  0  0
  1  3  1  0
  1 47  1  0
  1  5  1  0
  2  1  1  0
  5  4  1  0
  6  5  1  0
  6  7  1  0
  8 17  1  0
  8  7  2  0
  9 17  1  0
 10 15  1  0
 11 12  1  0
 11 10  1  0
 13 12  1  0
 13 22  1  0
 13 14  1  0
 15  9  1  0
 15 14  1  0
 16  9  2  0
 17 18  1  0
 19 20  2  0
 20 39  1  0
 21 20  1  0
 21 24  1  0
 22 19  1  0
 22 23  1  0
 23 21  2  0
 24 25  1  0
 25 26  2  0
 27 30  1  0
 27 26  1  0
 28 27  2  0
 29 28  1  0
 29 24  2  0
 30 31  1  0
 31 32  1  0
 32 33  2  0
 34 33  1  0
 34 38  1  0
 35 34  2  0
 36 31  2  0
 36 35  1  0
 37 36  1  0
 39 40  1  0
 40 43  1  0
 40 42  1  0
 41 39  2  0
 44 45  1  0
 44 19  1  0
 46 44  1  0
 48 49  1  0
 48 47  2  0
 50 61  2  0
 51 49  1  0
 51 56  1  0
 52 60  1  0
 52 62  1  0
 53 59  1  0
 53 55  1  0
 54 60  1  0
 55 54  1  0
 56 55  2  0
 57 58  1  0
 57 51  2  0
 58 53  2  0
 59 52  1  0
 60 50  1  0
 62 64  2  0
 63 62  1  0
 65 63  1  0
 66 75  2  0
 66 71  1  0
 67 63  1  0
 67 71  1  0
 68 67  1  0
 69 70  1  0
 69 68  1  0
 70 66  1  0
 71 72  2  0
 72 73  1  0
 74 73  2  0
 75 74  1  0
 76 50  1  0
 76 81  1  0
 76 77  1  0
 77 80  1  1
 77 78  1  0
 79 77  1  0
 81 84  1  0
 82 86  1  0
 82 81  1  0
 83 82  2  0
 86 85  1  0
 88 86  1  0
 88 89  1  0
 88 87  1  0
M  ISO  4   9 100  17 100  48 101  49 101
M  END
>  <TORSDO>  (55) 
F 22

>  <SCORE>  (55) 
-12.934

>  <name>  (55) 
54

>  <ligand_id>  (55) 
54

>  <original_smiles>  (55) 
[H]c1c([H])c([H])c2c(c1[H])C([H])([H])C([H])([H])C([H])([H])C2([H])N([H])C(=O)C1([H])N(C(=O)C([H])(N([H])C(=O)C([H])(N([H])C([H])([H])[H])C([H])([H])[H])C(C([H])([H])[H])(C([H])([H])[H])C([H])([H])[H])C([H])([H])c2c([H])c(OC([H])([H])C([H])([H])[N+]([H])([H])C([H])(C([H])([H])[H])C([H])([H])C([H])([H])C([H])([H])N([H])C(=O)N3C([H])([H])C([H])([H])C([H])([H])C([H])(n4nc(-c5c([H])c([H])c(Oc6c([H])c([H])c(F)c([H])c6F)c([H])c5[H])c(C(=O)N([H])[H])c4N([H])[H])C3([H])[H])c([H])c([H])c2C1([H])[H]

>  <smiles>  (55) 
[H]c1c([H])c([H])c2c(c1[H])C([H])([H])C([H])([H])C([H])([H])C2([H])N([H])C(=O)C1([H])N(C(=O)C([H])(N([H])C(=O)C([H])(N([H])C([H])([H])[H])C([H])([H])[H])C(C([H])([H])[H])(C([H])([H])[H])C([H])([H])[H])C([H])([H])c2c([H])c(OC([H])([H])C([H])([H])[N+]([H])([H])C([H])(C([H])([H])[H])C([H])([H])C([H])([H])C([H])([H])N([H])C(=O)N3C([H])([H])C([H])([H])C([H])([H])C([H])(n4nc(-c5c([H])c([H])c(Oc6c([H])c([H])c(F)c([H])c6F)c([H])c5[H])c(C(=O)N([H])[H])c4N([H])[H])C3([H])[H])c([H])c([H])c2C1([H])[H]

$$$$
55:0:0
     RDKit          3D

 93102  0  0  1  0  0  0  0  0999 V2000
  -30.7380  -14.9490   20.4680 C   0  0  0  0  0  0  0  0  0  0  0  0
  -30.4730  -12.6530   19.4560 C   0  0  0  0  0  2  0  0  0  0  0  0
  -29.5630  -12.6430   18.2090 C   0  0  0  0  0  2  0  0  0  0  0  0
  -28.0980  -12.4150   18.6280 C   0  0  0  0  0  2  0  0  0  0  0  0
  -27.6710  -13.3560   19.7800 C   0  0  0  0  0  3  0  0  0  0  0  0
  -28.7150  -13.4110   20.9240 C   0  0  0  0  0  2  0  0  0  0  0  0
  -30.0190  -13.7640   20.3380 N   0  0  0  0  0  0  0  0  0  0  0  0
  -31.9590  -14.9000   20.3010 O   0  0  0  0  0  0  0  0  0  0  0  0
  -31.8630  -19.5940   20.2880 C   0  0  0  0  0  2  0  0  0  0  0  0
  -30.0200  -18.2670   19.1520 C   0  0  0  0  0  2  0  0  0  0  0  0
  -30.6470  -17.4590   21.2970 C   0  0  0  0  0  2  0  0  0  0  0  0
  -31.5470  -21.0860   20.0060 C   0  0  0  0  0  2  0  0  0  0  0  0
  -29.6470  -20.1430   21.0310 C   0  0  0  0  0  2  0  0  0  0  0  0
  -29.4400  -16.8500   19.4160 C   0  0  0  0  0  3  0  0  0  0  0  0
  -30.5090  -18.8590   20.4850 C   0  0  1  0  0  0  0  0  0  0  0  0
  -30.1110  -16.2200   20.5800 N   0  0  0  0  0  0  0  0  0  0  0  0
  -30.4730  -21.4140   20.9510 N   0  0  2  0  0  4  0  0  0  0  0  0
  -30.9850  -21.3220   21.8170 H   0  0  0  0  0  0  0  0  0  0  0  0
  -25.2630  -13.9780   20.4670 C   0  0  0  0  0  0  0  0  0  0  0  0
  -24.1900  -13.2220   20.8240 C   0  0  0  0  0  0  0  0  0  0  0  0
  -24.6550  -11.8760   20.8320 C   0  0  0  0  0  0  0  0  0  0  0  0
  -26.3190  -13.0970   20.2630 N   0  0  0  0  0  0  0  0  0  0  0  0
  -25.9540  -11.8250   20.5570 N   0  0  0  0  0  0  0  0  0  0  0  0
  -23.9180  -10.6280   21.0220 C   0  0  0  0  0  0  0  0  0  0  0  0
  -24.3300   -9.6730   21.9750 C   0  0  0  0  0  3  0  0  0  0  0  0
  -23.5900   -8.4860   22.1560 C   0  0  0  0  0  3  0  0  0  0  0  0
  -22.4270   -8.2520   21.3830 C   0  0  0  0  0  0  0  0  0  0  0  0
  -22.0370   -9.1990   20.4210 C   0  0  0  0  0  3  0  0  0  0  0  0
  -22.7770  -10.3760   20.2360 C   0  0  0  0  0  3  0  0  0  0  0  0
  -21.6610   -7.1170   21.4740 O   0  0  0  0  0  0  0  0  0  0  0  0
  -21.6020   -6.3800   22.6280 C   0  0  0  0  0  0  0  0  0  0  0  0
  -21.1800   -6.9450   23.8510 C   0  0  0  0  0  3  0  0  0  0  0  0
  -21.0670   -6.1360   24.9990 C   0  0  0  0  0  3  0  0  0  0  0  0
  -21.3660   -4.7620   24.9240 C   0  0  0  0  0  0  0  0  0  0  0  0
  -21.7820   -4.1970   23.7060 C   0  0  0  0  0  3  0  0  0  0  0  0
  -21.8980   -5.0040   22.5610 C   0  0  0  0  0  0  0  0  0  0  0  0
  -22.2790   -4.4500   21.3830 F   0  0  0  0  0  0  0  0  0  0  0  0
  -21.2500   -3.9830   26.0230 F   0  0  0  0  0  0  0  0  0  0  0  0
  -22.7890  -13.7220   21.0340 C   0  0  0  0  0  0  0  0  0  0  0  0
  -22.0300  -13.0660   21.9000 N   0  0  0  0  0  0  0  0  0  0  0  0
  -22.3780  -14.7350   20.4670 O   0  0  0  0  0  0  0  0  0  0  0  0
  -22.3770  -12.2530   22.3870 H   0  0  0  0  0  0  0  0  0  0  0  0
  -21.0880  -13.3810   22.0810 H   0  0  0  0  0  0  0  0  0  0  0  0
  -25.3720  -15.3390   20.2730 N   0  0  0  0  0  0  0  0  0  0  0  0
  -24.5660  -15.9490   20.3460 H   0  0  0  0  0  0  0  0  0  0  0  0
  -26.1820  -15.8030   19.8810 H   0  0  0  0  0  0  0  0  0  0  0  0
  -27.3240  -18.0190   20.4900 C   0  0  0  0  0  1  0  0  0  0  0  0
  -27.1940  -16.8880   18.2380 C   0  0  0  0  0  1  0  0  0  0  0  0
  -27.9120  -16.9120   19.6030 C   0  0  0  0  0  3  0  0  0  0  0  0
  -30.0260  -22.9030   21.1330 C   0  0  0  0  0  2  0  0  0  0  0  0
  -28.8680  -23.6750   20.3060 C   0  0  0  0  0  2  0  0  0  0  0  0
  -28.9530  -25.2490   19.8370 C   0  0  0  0  0  2  0  0  0  0  0  0
  -28.6330  -26.5170   20.5830 O   0  0  0  0  0  0  0  0  0  0  0  0
  -24.6900  -31.9450   23.2910 C   0  0  0  0  0  0  0  0  0  0  0  0
  -27.4890  -27.3400   20.4040 C   0  0  0  0  0  0  0  0  0  0  0  0
  -23.5600  -30.4960   21.6380 C   0  0  0  0  0  3  0  0  0  0  0  0
  -25.0840  -28.9350   20.2800 C   0  0  0  0  0  0  0  0  0  0  0  0
  -26.1000  -30.8460   21.5260 C   0  0  0  0  0  2  0  0  0  0  0  0
  -26.2230  -29.4510   20.9090 C   0  0  0  0  0  0  0  0  0  0  0  0
  -27.4170  -28.6640   20.9620 C   0  0  0  0  0  3  0  0  0  0  0  0
  -26.3230  -26.8840   19.7470 C   0  0  0  0  0  3  0  0  0  0  0  0
  -25.1410  -27.6600   19.6870 C   0  0  0  0  0  3  0  0  0  0  0  0
  -23.8290  -29.7920   20.2790 C   0  0  0  0  0  2  0  0  0  0  0  0
  -24.8000  -31.1160   22.2090 N   0  0  0  0  0  0  0  0  0  0  0  0
  -23.5860  -32.2140   23.7880 O   0  0  0  0  0  0  0  0  0  0  0  0
  -22.8780  -29.4920   22.6000 C   0  0  0  0  0  0  0  0  0  0  0  0
  -21.5540  -29.3160   22.4580 N   0  0  0  0  0  0  0  0  0  0  0  0
  -23.5450  -28.8730   23.4350 O   0  0  0  0  0  0  0  0  0  0  0  0
  -21.0760  -29.8650   21.7570 H   0  0  0  0  0  0  0  0  0  0  0  0
  -18.1640  -28.1460   22.9480 C   0  0  0  0  0  0  0  0  0  0  0  0
  -20.7250  -28.3840   23.2250 C   0  0  0  0  0  3  0  0  0  0  0  0
  -20.8160  -26.9530   22.6450 C   0  0  0  0  0  2  0  0  0  0  0  0
  -19.7140  -26.6430   21.6280 C   0  0  0  0  0  2  0  0  0  0  0  0
  -18.3320  -26.7980   22.2670 C   0  0  0  0  0  2  0  0  0  0  0  0
  -19.2880  -28.8980   23.3820 C   0  0  0  0  0  0  0  0  0  0  0  0
  -19.0770  -30.1600   23.9800 C   0  0  0  0  0  3  0  0  0  0  0  0
  -17.7760  -30.6700   24.1440 C   0  0  0  0  0  3  0  0  0  0  0  0
  -16.6660  -29.9150   23.7240 C   0  0  0  0  0  3  0  0  0  0  0  0
  -16.8620  -28.6540   23.1320 C   0  0  0  0  0  3  0  0  0  0  0  0
  -25.9420  -32.6100   23.9420 C   0  0  0  0  0  3  0  0  0  0  0  0
  -26.4290  -31.8720   25.2480 C   0  0  1  0  0  0  0  0  0  0  0  0
  -25.3060  -31.6370   26.2860 C   0  0  0  0  0  1  0  0  0  0  0  0
  -27.0450  -30.4970   24.9020 C   0  0  0  0  0  1  0  0  0  0  0  0
  -27.5460  -32.6950   25.9300 C   0  0  0  0  0  1  0  0  0  0  0  0
  -25.5990  -34.0090   24.2370 N   0  0  0  0  0  0  0  0  0  0  0  0
  -25.9340  -35.0560   23.4700 C   0  0  0  0  0  0  0  0  0  0  0  0
  -26.6290  -34.9450   22.4560 O   0  0  0  0  0  0  0  0  0  0  0  0
  -24.9830  -34.1680   25.0210 H   0  0  0  0  0  0  0  0  0  0  0  0
  -24.1790  -36.8110   23.0550 C   0  0  0  0  0  1  0  0  0  0  0  0
  -25.4160  -36.4440   23.8920 C   0  0  0  0  0  3  0  0  0  0  0  0
  -27.5210  -37.3850   24.7350 C   0  0  0  0  0  1  0  0  0  0  0  0
  -26.4320  -37.5130   23.7720 N   0  0  0  0  0  0  0  0  0  0  0  0
  -26.0080  -38.4290   23.8930 H   0  0  0  0  0  0  0  0  0  0  0  0
  1 16  1  0
  2  7  1  0
  3  4  1  0
  3  2  1  0
  5  4  1  0
  5 22  1  0
  5  6  1  0
  7  1  1  0
  7  6  1  0
  8  1  2  0
 15  9  1  6
 10 14  1  0
 12  9  1  0
 12 17  1  0
 14 49  1  0
 14 16  1  0
 15 10  1  0
 15 13  1  0
 15 11  1  0
 16 11  1  0
 17 13  1  0
 17 50  1  0
 17 18  1  1
 19 20  2  0
 20 21  1  0
 20 39  1  0
 21 24  1  0
 22 19  1  0
 22 23  1  0
 23 21  2  0
 24 25  1  0
 25 26  2  0
 27 30  1  0
 27 26  1  0
 28 27  2  0
 29 28  1  0
 29 24  2  0
 30 31  1  0
 31 32  1  0
 32 33  2  0
 34 33  1  0
 34 38  1  0
 35 34  2  0
 36 31  2  0
 36 35  1  0
 37 36  1  0
 39 40  1  0
 40 43  1  0
 40 42  1  0
 41 39  2  0
 44 45  1  0
 44 19  1  0
 46 44  1  0
 48 49  1  0
 49 47  1  0
 51 50  1  0
 52 51  1  0
 52 53  1  0
 54 65  2  0
 55 53  1  0
 55 60  1  0
 56 64  1  0
 56 66  1  0
 57 59  1  0
 58 64  1  0
 59 60  2  0
 59 58  1  0
 61 55  2  0
 62 61  1  0
 62 57  2  0
 63 57  1  0
 63 56  1  0
 64 54  1  0
 66 68  2  0
 67 66  1  0
 69 67  1  0
 70 79  2  0
 70 75  1  0
 71 67  1  0
 71 75  1  0
 72 71  1  0
 73 74  1  0
 73 72  1  0
 74 70  1  0
 75 76  2  0
 76 77  1  0
 78 77  2  0
 79 78  1  0
 80 54  1  0
 80 85  1  0
 80 81  1  0
 81 84  1  1
 81 82  1  0
 83 81  1  0
 85 88  1  0
 86 90  1  0
 86 85  1  0
 87 86  2  0
 90 89  1  0
 92 90  1  0
 92 93  1  0
 92 91  1  0
M  ISO  4   1 100  16 100  52 101  53 101
M  END
>  <TORSDO>  (56) 
F 19

>  <SCORE>  (56) 
-13.455

>  <name>  (56) 
55

>  <ligand_id>  (56) 
55

>  <original_smiles>  (56) 
[H]c1c([H])c([H])c2c(c1[H])C([H])([H])C([H])([H])C([H])([H])C2([H])N([H])C(=O)C1([H])N(C(=O)C([H])(N([H])C(=O)C([H])(N([H])C([H])([H])[H])C([H])([H])[H])C(C([H])([H])[H])(C([H])([H])[H])C([H])([H])[H])C([H])([H])c2c([H])c(OC([H])([H])C([H])([H])C([H])([H])[N+]3([H])C([H])([H])C([H])([H])C4(C([H])([H])N(C(=O)N5C([H])([H])C([H])([H])C([H])([H])C([H])(n6nc(-c7c([H])c([H])c(Oc8c([H])c([H])c(F)c([H])c8F)c([H])c7[H])c(C(=O)N([H])[H])c6N([H])[H])C5([H])[H])C([H])(C([H])(C([H])([H])[H])C([H])([H])[H])C4([H])[H])C3([H])[H])c([H])c([H])c2C1([H])[H]

>  <smiles>  (56) 
[H]c1c([H])c([H])c2c(c1[H])C([H])([H])C([H])([H])C([H])([H])C2([H])N([H])C(=O)C1([H])N(C(=O)C([H])(N([H])C(=O)C([H])(N([H])C([H])([H])[H])C([H])([H])[H])C(C([H])([H])[H])(C([H])([H])[H])C([H])([H])[H])C([H])([H])c2c([H])c(OC([H])([H])C([H])([H])C([H])([H])[N+]3([H])C([H])([H])C([H])([H])C4(C([H])([H])N(C(=O)N5C([H])([H])C([H])([H])C([H])([H])C([H])(n6nc(-c7c([H])c([H])c(Oc8c([H])c([H])c(F)c([H])c8F)c([H])c7[H])c(C(=O)N([H])[H])c6N([H])[H])C5([H])[H])C([H])(C([H])(C([H])([H])[H])C([H])([H])[H])C4([H])[H])C3([H])[H])c([H])c([H])c2C1([H])[H]

$$$$
56:0:0
     RDKit          3D

 95102  0  0  1  0  0  0  0  0999 V2000
  -29.7800  -21.2200   22.3170 C   0  0  0  0  0  2  0  0  0  0  0  0
  -29.9890  -20.1090   21.2730 C   0  0  0  0  0  2  0  0  0  0  0  0
  -31.2250  -19.2360   21.5550 C   0  0  0  0  0  2  0  0  0  0  0  0
  -31.5710  -18.3920   20.3920 N   0  0  0  0  0  4  0  0  0  0  0  0
  -31.0400  -17.5380   20.4710 H   0  0  0  0  0  0  0  0  0  0  0  0
  -31.2910  -18.8420   19.5380 H   0  0  0  0  0  0  0  0  0  0  0  0
  -32.9940  -18.0020   20.3000 C   0  0  0  0  0  2  0  0  0  0  0  0
  -33.9310  -19.1600   19.8820 C   0  0  0  0  0  2  0  0  0  0  0  0
  -34.7870  -18.8820   18.6300 C   0  0  0  0  0  2  0  0  0  0  0  0
  -34.1720  -19.3290   17.2910 C   0  0  0  0  0  2  0  0  0  0  0  0
  -32.9050  -17.9630   15.7160 C   0  0  0  0  0  0  0  0  0  0  0  0
  -33.9780  -16.3330   14.2120 C   0  0  0  0  0  2  0  0  0  0  0  0
  -33.1800  -15.0270   14.0690 C   0  0  0  0  0  2  0  0  0  0  0  0
  -33.5640  -14.0360   15.1800 C   0  0  0  0  0  2  0  0  0  0  0  0
  -33.4970  -14.6790   16.5880 C   0  0  0  0  0  3  0  0  0  0  0  0
  -34.2460  -16.0300   16.6180 C   0  0  0  0  0  2  0  0  0  0  0  0
  -33.7320  -16.8990   15.5440 N   0  0  0  0  0  0  0  0  0  0  0  0
  -32.1680  -18.4030   14.8330 O   0  0  0  0  0  0  0  0  0  0  0  0
  -32.9690  -18.5870   16.9000 N   0  0  0  0  0  0  0  0  0  0  0  0
  -32.1490  -19.1670   17.0030 H   0  0  0  0  0  0  0  0  0  0  0  0
  -33.3710  -13.3080   18.7670 C   0  0  0  0  0  0  0  0  0  0  0  0
  -34.2430  -12.4200   19.3430 C   0  0  0  0  0  0  0  0  0  0  0  0
  -35.3810  -12.3720   18.4790 C   0  0  0  0  0  0  0  0  0  0  0  0
  -33.9950  -13.7620   17.6140 N   0  0  0  0  0  0  0  0  0  0  0  0
  -35.2350  -13.2270   17.4760 N   0  0  0  0  0  0  0  0  0  0  0  0
  -36.5760  -11.5200   18.5200 C   0  0  0  0  0  0  0  0  0  0  0  0
  -37.8760  -12.0710   18.4830 C   0  0  0  0  0  3  0  0  0  0  0  0
  -39.0100  -11.2320   18.5440 C   0  0  0  0  0  3  0  0  0  0  0  0
  -38.8520   -9.8300   18.6480 C   0  0  0  0  0  0  0  0  0  0  0  0
  -37.5540   -9.2860   18.6620 C   0  0  0  0  0  3  0  0  0  0  0  0
  -36.4270  -10.1210   18.5940 C   0  0  0  0  0  3  0  0  0  0  0  0
  -39.8950   -8.9360   18.6840 O   0  0  0  0  0  0  0  0  0  0  0  0
  -41.1250   -9.2850   19.1830 C   0  0  0  0  0  0  0  0  0  0  0  0
  -41.2760   -9.8140   20.4830 C   0  0  0  0  0  3  0  0  0  0  0  0
  -42.5650  -10.0960   20.9830 C   0  0  0  0  0  3  0  0  0  0  0  0
  -43.6990   -9.8400   20.1900 C   0  0  0  0  0  0  0  0  0  0  0  0
  -43.5500   -9.3050   18.8980 C   0  0  0  0  0  3  0  0  0  0  0  0
  -42.2660   -9.0270   18.3970 C   0  0  0  0  0  0  0  0  0  0  0  0
  -42.1280   -8.4920   17.1610 F   0  0  0  0  0  0  0  0  0  0  0  0
  -44.9380  -10.1000   20.6710 F   0  0  0  0  0  0  0  0  0  0  0  0
  -33.9970  -11.5880   20.5680 C   0  0  0  0  0  0  0  0  0  0  0  0
  -35.0460  -11.2780   21.3220 N   0  0  0  0  0  0  0  0  0  0  0  0
  -32.8600  -11.2450   20.8910 O   0  0  0  0  0  0  0  0  0  0  0  0
  -35.9780  -11.5740   21.0730 H   0  0  0  0  0  0  0  0  0  0  0  0
  -34.9170  -10.7340   22.1630 H   0  0  0  0  0  0  0  0  0  0  0  0
  -32.0970  -13.7520   19.1130 N   0  0  0  0  0  0  0  0  0  0  0  0
  -31.5210  -14.3090   18.4950 H   0  0  0  0  0  0  0  0  0  0  0  0
  -31.5770  -13.3450   19.8810 H   0  0  0  0  0  0  0  0  0  0  0  0
  -29.4970  -22.5930   21.6750 C   0  0  0  0  0  2  0  0  0  0  0  0
  -29.8720  -23.7100   22.5670 N   0  0  0  0  0  4  0  0  0  0  0  0
  -30.8020  -23.5460   22.9250 H   0  0  0  0  0  0  0  0  0  0  0  0
  -29.2370  -23.7100   23.3520 H   0  0  0  0  0  0  0  0  0  0  0  0
  -29.8160  -25.0450   21.9220 C   0  0  0  0  0  2  0  0  0  0  0  0
  -30.1000  -26.1920   22.9070 C   0  0  0  0  0  2  0  0  0  0  0  0
  -29.7080  -27.4120   22.2830 O   0  0  0  0  0  0  0  0  0  0  0  0
  -24.4610  -28.0790   27.0550 C   0  0  0  0  0  0  0  0  0  0  0  0
  -28.4300  -27.8220   22.5620 C   0  0  0  0  0  0  0  0  0  0  0  0
  -23.8740  -28.6330   24.7130 C   0  0  0  0  0  3  0  0  0  0  0  0
  -25.8370  -28.7880   23.0910 C   0  0  0  0  0  0  0  0  0  0  0  0
  -26.2730  -28.8840   25.5530 C   0  0  0  0  0  2  0  0  0  0  0  0
  -26.7320  -28.5710   24.1460 C   0  0  0  0  0  0  0  0  0  0  0  0
  -28.0280  -28.0810   23.8890 C   0  0  0  0  0  3  0  0  0  0  0  0
  -27.5230  -28.0360   21.5060 C   0  0  0  0  0  3  0  0  0  0  0  0
  -26.2220  -28.5110   21.7670 C   0  0  0  0  0  3  0  0  0  0  0  0
  -24.4720  -29.3260   23.4570 C   0  0  0  0  0  2  0  0  0  0  0  0
  -24.8720  -28.4920   25.8220 N   0  0  0  0  0  0  0  0  0  0  0  0
  -23.2660  -27.8540   27.2880 O   0  0  0  0  0  0  0  0  0  0  0  0
  -23.2490  -27.2870   24.2810 C   0  0  0  0  0  0  0  0  0  0  0  0
  -22.2780  -27.3490   23.3570 N   0  0  0  0  0  0  0  0  0  0  0  0
  -23.6560  -26.2210   24.7530 O   0  0  0  0  0  0  0  0  0  0  0  0
  -21.9990  -28.2610   23.0230 H   0  0  0  0  0  0  0  0  0  0  0  0
  -20.0640  -26.3580   20.6820 C   0  0  0  0  0  0  0  0  0  0  0  0
  -21.5730  -26.2090   22.7740 C   0  0  0  0  0  3  0  0  0  0  0  0
  -22.5250  -25.3560   21.9030 C   0  0  0  0  0  2  0  0  0  0  0  0
  -22.5100  -25.7570   20.4260 C   0  0  0  0  0  2  0  0  0  0  0  0
  -21.0980  -25.6220   19.8470 C   0  0  0  0  0  2  0  0  0  0  0  0
  -20.2950  -26.6470   22.0530 C   0  0  0  0  0  0  0  0  0  0  0  0
  -19.3170  -27.3650   22.7750 C   0  0  0  0  0  3  0  0  0  0  0  0
  -18.1270  -27.7870   22.1540 C   0  0  0  0  0  3  0  0  0  0  0  0
  -17.8960  -27.4850   20.8000 C   0  0  0  0  0  3  0  0  0  0  0  0
  -18.8610  -26.7690   20.0690 C   0  0  0  0  0  3  0  0  0  0  0  0
  -25.4680  -27.8910   28.2320 C   0  0  0  0  0  3  0  0  0  0  0  0
  -24.7050  -27.9730   29.4850 N   0  0  0  0  0  0  0  0  0  0  0  0
  -24.7580  -29.0020   30.3420 C   0  0  0  0  0  0  0  0  0  0  0  0
  -25.5230  -29.9590   30.1920 O   0  0  0  0  0  0  0  0  0  0  0  0
  -24.0250  -27.2470   29.6470 H   0  0  0  0  0  0  0  0  0  0  0  0
  -22.5930  -29.8570   31.2890 C   0  0  0  0  0  1  0  0  0  0  0  0
  -23.8140  -28.9620   31.5580 C   0  0  0  0  0  3  0  0  0  0  0  0
  -25.4560  -28.4140   33.2990 C   0  0  0  0  0  1  0  0  0  0  0  0
  -24.4620  -29.3730   32.8220 N   0  0  0  0  0  0  0  0  0  0  0  0
  -23.7720  -29.5040   33.5550 H   0  0  0  0  0  0  0  0  0  0  0  0
  -26.2700  -26.5340   28.1560 C   0  0  1  0  0  0  0  0  0  0  0  0
  -25.3660  -25.2860   28.0300 C   0  0  0  0  0  1  0  0  0  0  0  0
  -27.2400  -26.5420   26.9520 C   0  0  0  0  0  1  0  0  0  0  0  0
  -27.1390  -26.3640   29.4250 C   0  0  0  0  0  1  0  0  0  0  0  0
  2  3  1  0
  2  1  1  0
  4  5  1  0
  4  3  1  0
  6  4  1  0
  7  4  1  0
  8  7  1  0
  9  8  1  0
 10  9  1  0
 11 19  1  0
 12 17  1  0
 13 12  1  0
 13 14  1  0
 15 14  1  0
 15 16  1  0
 15 24  1  0
 17 11  1  0
 17 16  1  0
 18 11  2  0
 19 20  1  0
 19 10  1  0
 21 46  1  0
 21 22  2  0
 22 41  1  0
 23 26  1  0
 23 22  1  0
 24 21  1  0
 25 24  1  0
 25 23  2  0
 26 31  1  0
 27 26  2  0
 27 28  1  0
 28 29  2  0
 29 30  1  0
 29 32  1  0
 31 30  2  0
 32 33  1  0
 33 34  1  0
 34 35  2  0
 36 40  1  0
 36 35  1  0
 37 36  2  0
 38 37  1  0
 38 33  2  0
 39 38  1  0
 41 43  2  0
 41 42  1  0
 42 45  1  0
 44 42  1  0
 46 48  1  0
 47 46  1  0
 49  1  1  0
 49 50  1  0
 50 51  1  0
 50 52  1  0
 53 50  1  0
 53 54  1  0
 55 57  1  0
 55 54  1  0
 56 67  2  0
 57 62  1  0
 58 68  1  0
 58 66  1  0
 59 65  1  0
 59 61  1  0
 60 66  1  0
 61 60  1  0
 62 61  2  0
 63 64  1  0
 63 57  2  0
 64 59  2  0
 65 58  1  0
 66 56  1  0
 68 70  2  0
 69 68  1  0
 71 69  1  0
 72 77  1  0
 73 69  1  0
 74 73  1  0
 75 74  1  0
 76 75  1  0
 76 72  1  0
 77 73  1  0
 77 78  2  0
 79 78  1  0
 80 79  2  0
 81 72  2  0
 81 80  1  0
 82 56  1  0
 82 83  1  0
 83 86  1  0
 83 84  1  0
 84 88  1  0
 85 84  2  0
 88 87  1  0
 88 90  1  0
 90 89  1  0
 90 91  1  0
 92 82  1  0
 92 95  1  1
 93 92  1  0
 94 92  1  0
M  ISO  4  11 100  19 100  54 101  55 101
M  END
>  <TORSDO>  (57) 
F 27

>  <SCORE>  (57) 
-3.991

>  <name>  (57) 
56

>  <ligand_id>  (57) 
56

>  <original_smiles>  (57) 
[H]c1c([H])c([H])c2c(c1[H])C([H])([H])C([H])([H])C([H])([H])C2([H])N([H])C(=O)C1([H])N(C(=O)C([H])(N([H])C(=O)C([H])(N([H])C([H])([H])[H])C([H])([H])[H])C(C([H])([H])[H])(C([H])([H])[H])C([H])([H])[H])C([H])([H])c2c([H])c(OC([H])([H])C([H])([H])[N+]([H])([H])C([H])([H])C([H])([H])C([H])([H])C([H])([H])[N+]([H])([H])C([H])([H])C([H])([H])C([H])([H])C([H])([H])N([H])C(=O)N3C([H])([H])C([H])([H])C([H])([H])C([H])(n4nc(-c5c([H])c([H])c(Oc6c([H])c([H])c(F)c([H])c6F)c([H])c5[H])c(C(=O)N([H])[H])c4N([H])[H])C3([H])[H])c([H])c([H])c2C1([H])[H]

>  <smiles>  (57) 
[H]c1c([H])c([H])c2c(c1[H])C([H])([H])C([H])([H])C([H])([H])C2([H])N([H])C(=O)C1([H])N(C(=O)C([H])(N([H])C(=O)C([H])(N([H])C([H])([H])[H])C([H])([H])[H])C(C([H])([H])[H])(C([H])([H])[H])C([H])([H])[H])C([H])([H])c2c([H])c(OC([H])([H])C([H])([H])[N+]([H])([H])C([H])([H])C([H])([H])C([H])([H])C([H])([H])[N+]([H])([H])C([H])([H])C([H])([H])C([H])([H])C([H])([H])N([H])C(=O)N3C([H])([H])C([H])([H])C([H])([H])C([H])(n4nc(-c5c([H])c([H])c(Oc6c([H])c([H])c(F)c([H])c6F)c([H])c5[H])c(C(=O)N([H])[H])c4N([H])[H])C3([H])[H])c([H])c([H])c2C1([H])[H]

$$$$
57:0:0
     RDKit          3D

 89 98  0  0  1  0  0  0  0  0999 V2000
  -29.3310  -19.9500   20.5890 C   0  0  0  0  0  0  0  0  0  0  0  0
  -29.1680  -21.3370   20.0680 N   0  0  0  0  0  0  0  0  0  0  0  0
  -29.0000  -19.7930   21.7650 O   0  0  0  0  0  0  0  0  0  0  0  0
  -29.4140  -21.3760   19.0860 H   0  0  0  0  0  0  0  0  0  0  0  0
  -30.4640  -15.5320   20.1800 C   0  0  0  0  0  0  0  0  0  0  0  0
  -30.4730  -13.0600   19.3530 C   0  0  0  0  0  2  0  0  0  0  0  0
  -29.5530  -12.7830   18.1370 C   0  0  0  0  0  2  0  0  0  0  0  0
  -28.1110  -12.4870   18.5910 C   0  0  0  0  0  2  0  0  0  0  0  0
  -27.6350  -13.4570   19.6980 C   0  0  0  0  0  3  0  0  0  0  0  0
  -28.6920  -13.6900   20.8040 C   0  0  0  0  0  2  0  0  0  0  0  0
  -29.9040  -14.2130   20.1430 N   0  0  0  0  0  0  0  0  0  0  0  0
  -31.7020  -15.5100   20.1250 O   0  0  0  0  0  0  0  0  0  0  0  0
  -30.2000  -17.8760   17.2000 C   0  0  0  0  0  2  0  0  0  0  0  0
  -28.7480  -16.5810   18.8790 C   0  0  0  0  0  2  0  0  0  0  0  0
  -29.9760  -18.4910   19.8380 C   0  0  0  0  0  3  0  0  0  0  0  0
  -28.8600  -17.7210   17.8840 C   0  0  0  0  0  3  0  0  0  0  0  0
  -29.7870  -18.7670   18.3460 C   0  0  0  0  0  3  0  0  0  0  0  0
  -29.6940  -16.8170   20.0000 N   0  0  0  0  0  0  0  0  0  0  0  0
  -25.2660  -14.0170   20.4460 C   0  0  0  0  0  0  0  0  0  0  0  0
  -24.2070  -13.2360   20.8080 C   0  0  0  0  0  0  0  0  0  0  0  0
  -24.6860  -11.8910   20.7930 C   0  0  0  0  0  0  0  0  0  0  0  0
  -26.3170  -13.1440   20.2180 N   0  0  0  0  0  0  0  0  0  0  0  0
  -25.9800  -11.8610   20.4960 N   0  0  0  0  0  0  0  0  0  0  0  0
  -23.9710  -10.6250   20.9850 C   0  0  0  0  0  0  0  0  0  0  0  0
  -24.4070   -9.6680   21.9280 C   0  0  0  0  0  3  0  0  0  0  0  0
  -23.6890   -8.4670   22.1100 C   0  0  0  0  0  3  0  0  0  0  0  0
  -22.5240   -8.2150   21.3480 C   0  0  0  0  0  0  0  0  0  0  0  0
  -22.1090   -9.1610   20.3940 C   0  0  0  0  0  3  0  0  0  0  0  0
  -22.8270  -10.3530   20.2100 C   0  0  0  0  0  3  0  0  0  0  0  0
  -21.7780   -7.0650   21.4400 O   0  0  0  0  0  0  0  0  0  0  0  0
  -21.7290   -6.3310   22.5980 C   0  0  0  0  0  0  0  0  0  0  0  0
  -21.2810   -6.8890   23.8150 C   0  0  0  0  0  3  0  0  0  0  0  0
  -21.1810   -6.0800   24.9650 C   0  0  0  0  0  3  0  0  0  0  0  0
  -21.5170   -4.7150   24.8980 C   0  0  0  0  0  0  0  0  0  0  0  0
  -21.9590   -4.1570   23.6850 C   0  0  0  0  0  3  0  0  0  0  0  0
  -22.0610   -4.9630   22.5370 C   0  0  0  0  0  0  0  0  0  0  0  0
  -22.4670   -4.4160   21.3660 F   0  0  0  0  0  0  0  0  0  0  0  0
  -21.4130   -3.9360   25.9990 F   0  0  0  0  0  0  0  0  0  0  0  0
  -22.8030  -13.7050   21.0570 C   0  0  0  0  0  0  0  0  0  0  0  0
  -22.0730  -13.0150   21.9260 N   0  0  0  0  0  0  0  0  0  0  0  0
  -22.3630  -14.7190   20.5170 O   0  0  0  0  0  0  0  0  0  0  0  0
  -22.4440  -12.1950   22.3830 H   0  0  0  0  0  0  0  0  0  0  0  0
  -21.1310  -13.3110   22.1370 H   0  0  0  0  0  0  0  0  0  0  0  0
  -25.4160  -15.3890   20.2650 N   0  0  0  0  0  0  0  0  0  0  0  0
  -24.6450  -16.0380   20.3880 H   0  0  0  0  0  0  0  0  0  0  0  0
  -26.2810  -15.8460   20.0120 H   0  0  0  0  0  0  0  0  0  0  0  0
  -28.8680  -22.8820   20.6610 C   0  0  0  0  0  2  0  0  0  0  0  0
  -28.1590  -24.4050   19.9820 C   0  0  0  0  0  2  0  0  0  0  0  0
  -28.2220  -26.0170   20.3680 O   0  0  0  0  0  0  0  0  0  0  0  0
  -24.6120  -31.9790   23.2620 C   0  0  0  0  0  0  0  0  0  0  0  0
  -27.1950  -27.1000   20.2610 C   0  0  0  0  0  0  0  0  0  0  0  0
  -23.4220  -30.5690   21.6310 C   0  0  0  0  0  3  0  0  0  0  0  0
  -24.8780  -28.9650   20.2100 C   0  0  0  0  0  0  0  0  0  0  0  0
  -25.9860  -30.7920   21.4810 C   0  0  0  0  0  2  0  0  0  0  0  0
  -26.0630  -29.3800   20.8290 C   0  0  0  0  0  0  0  0  0  0  0  0
  -27.2110  -28.4670   20.8320 C   0  0  0  0  0  3  0  0  0  0  0  0
  -25.9810  -26.8390   19.5830 C   0  0  0  0  0  3  0  0  0  0  0  0
  -24.8630  -27.7150   19.5670 C   0  0  0  0  0  3  0  0  0  0  0  0
  -23.6520  -29.8780   20.2570 C   0  0  0  0  0  2  0  0  0  0  0  0
  -24.6950  -31.1410   22.1770 N   0  0  0  0  0  0  0  0  0  0  0  0
  -23.5220  -32.2660   23.7830 O   0  0  0  0  0  0  0  0  0  0  0  0
  -22.7330  -29.5760   22.6040 C   0  0  0  0  0  0  0  0  0  0  0  0
  -21.4060  -29.3970   22.4750 N   0  0  0  0  0  0  0  0  0  0  0  0
  -23.4010  -28.9670   23.4430 O   0  0  0  0  0  0  0  0  0  0  0  0
  -20.9190  -29.9400   21.7760 H   0  0  0  0  0  0  0  0  0  0  0  0
  -18.0370  -28.1390   22.9660 C   0  0  0  0  0  0  0  0  0  0  0  0
  -20.5900  -28.4570   23.2530 C   0  0  0  0  0  3  0  0  0  0  0  0
  -20.7230  -27.0180   22.7020 C   0  0  0  0  0  2  0  0  0  0  0  0
  -19.6370  -26.6590   21.6800 C   0  0  0  0  0  2  0  0  0  0  0  0
  -18.2460  -26.7860   22.3080 C   0  0  0  0  0  2  0  0  0  0  0  0
  -19.1370  -28.9300   23.3950 C   0  0  0  0  0  0  0  0  0  0  0  0
  -18.8860  -30.1930   23.9740 C   0  0  0  0  0  3  0  0  0  0  0  0
  -17.5680  -30.6670   24.1260 C   0  0  0  0  0  3  0  0  0  0  0  0
  -16.4840  -29.8740   23.7110 C   0  0  0  0  0  3  0  0  0  0  0  0
  -16.7190  -28.6130   23.1380 C   0  0  0  0  0  3  0  0  0  0  0  0
  -25.8810  -32.6310   23.8900 C   0  0  0  0  0  3  0  0  0  0  0  0
  -25.5620  -34.0360   24.2020 N   0  0  0  0  0  0  0  0  0  0  0  0
  -25.8970  -35.0870   23.4430 C   0  0  0  0  0  0  0  0  0  0  0  0
  -26.5700  -34.9770   22.4140 O   0  0  0  0  0  0  0  0  0  0  0  0
  -24.9640  -34.1950   25.0000 H   0  0  0  0  0  0  0  0  0  0  0  0
  -24.1720  -36.8870   23.0830 C   0  0  0  0  0  1  0  0  0  0  0  0
  -25.4140  -36.4820   23.8940 C   0  0  0  0  0  3  0  0  0  0  0  0
  -27.5490  -37.3750   24.7190 C   0  0  0  0  0  1  0  0  0  0  0  0
  -26.4480  -37.5340   23.7720 N   0  0  0  0  0  0  0  0  0  0  0  0
  -26.0420  -38.4560   23.9090 H   0  0  0  0  0  0  0  0  0  0  0  0
  -26.3800  -31.8870   25.1910 C   0  0  1  0  0  0  0  0  0  0  0  0
  -25.2730  -31.6750   26.2510 C   0  0  0  0  0  1  0  0  0  0  0  0
  -26.9660  -30.5000   24.8440 C   0  0  0  0  0  1  0  0  0  0  0  0
  -27.5230  -32.6950   25.8500 C   0  0  0  0  0  1  0  0  0  0  0  0
  1  3  2  0
  2  1  1  0
  2 47  1  0
  4  2  1  0
  6 11  1  0
  7  8  1  0
  7  6  1  0
  9  8  1  0
  9 22  1  0
  9 10  1  0
 11  5  1  0
 11 10  1  0
 12  5  2  0
 14 18  1  0
 15 18  1  0
 15  1  1  0
 16 13  1  0
 16 17  1  0
 16 14  1  0
 17 13  1  0
 17 15  1  0
 18  5  1  0
 19 20  2  0
 20 39  1  0
 21 20  1  0
 21 24  1  0
 22 19  1  0
 22 23  1  0
 23 21  2  0
 24 25  1  0
 25 26  2  0
 27 30  1  0
 27 26  1  0
 28 27  2  0
 29 28  1  0
 29 24  2  0
 30 31  1  0
 31 32  1  0
 32 33  2  0
 34 33  1  0
 34 38  1  0
 35 34  2  0
 36 31  2  0
 36 35  1  0
 37 36  1  0
 39 40  1  0
 40 43  1  0
 40 42  1  0
 41 39  2  0
 44 45  1  0
 44 19  1  0
 46 44  1  0
 48 49  1  0
 48 47  1  0
 50 61  2  0
 51 49  1  0
 51 56  1  0
 52 60  1  0
 52 62  1  0
 53 59  1  0
 53 55  1  0
 54 60  1  0
 55 56  2  0
 55 54  1  0
 57 51  2  0
 58 57  1  0
 58 53  2  0
 59 52  1  0
 60 50  1  0
 62 64  2  0
 63 62  1  0
 65 63  1  0
 66 75  2  0
 66 71  1  0
 67 63  1  0
 67 71  1  0
 68 67  1  0
 69 70  1  0
 69 68  1  0
 70 66  1  0
 71 72  2  0
 72 73  1  0
 74 73  2  0
 75 74  1  0
 76 50  1  0
 76 77  1  0
 76 86  1  0
 77 80  1  0
 78 82  1  0
 78 77  1  0
 79 78  2  0
 82 81  1  0
 84 82  1  0
 84 85  1  0
 84 83  1  0
 86 89  1  1
 86 87  1  0
 88 86  1  0
M  ISO  4   5 100  18 100  48 101  49 101
M  END
>  <TORSDO>  (58) 
F 18

>  <SCORE>  (58) 
-15.468

>  <name>  (58) 
57

>  <ligand_id>  (58) 
57

>  <original_smiles>  (58) 
[H]c1c([H])c([H])c2c(c1[H])C([H])([H])C([H])([H])C([H])([H])C2([H])N([H])C(=O)C1([H])N(C(=O)C([H])(N([H])C(=O)C([H])(N([H])C([H])([H])[H])C([H])([H])[H])C(C([H])([H])[H])(C([H])([H])[H])C([H])([H])[H])C([H])([H])c2c([H])c(OC([H])([H])C([H])([H])N([H])C(=O)C3([H])N(C(=O)N4C([H])([H])C([H])([H])C([H])([H])C([H])(n5nc(-c6c([H])c([H])c(Oc7c([H])c([H])c(F)c([H])c7F)c([H])c6[H])c(C(=O)N([H])[H])c5N([H])[H])C4([H])[H])C([H])([H])C4([H])C([H])([H])C34[H])c([H])c([H])c2C1([H])[H]

>  <smiles>  (58) 
[H]c1c([H])c([H])c2c(c1[H])C([H])([H])C([H])([H])C([H])([H])C2([H])N([H])C(=O)C1([H])N(C(=O)C([H])(N([H])C(=O)C([H])(N([H])C([H])([H])[H])C([H])([H])[H])C(C([H])([H])[H])(C([H])([H])[H])C([H])([H])[H])C([H])([H])c2c([H])c(OC([H])([H])C([H])([H])N([H])C(=O)C3([H])N(C(=O)N4C([H])([H])C([H])([H])C([H])([H])C([H])(n5nc(-c6c([H])c([H])c(Oc7c([H])c([H])c(F)c([H])c7F)c([H])c6[H])c(C(=O)N([H])[H])c5N([H])[H])C4([H])[H])C([H])([H])C4([H])C([H])([H])C34[H])c([H])c([H])c2C1([H])[H]

$$$$
58:0:0
     RDKit          3D

 92101  0  0  1  0  0  0  0  0999 V2000
  -28.0720  -19.1550   20.1290 C   0  0  0  0  0  2  0  0  0  0  0  0
  -27.8500  -20.4540   20.4540 C   0  0  0  0  0  3  0  0  0  0  0  0
  -28.5410  -20.7830   21.7940 C   0  0  0  0  0  2  0  0  0  0  0  0
  -30.0570  -20.8890   21.4210 C   0  0  0  0  0  2  0  0  0  0  0  0
  -29.5660  -18.8580   20.0060 C   0  0  0  0  0  3  0  0  0  0  0  0
  -30.0070  -20.4300   19.9310 C   0  0  0  0  0  3  0  0  0  0  0  0
  -28.8020  -21.2940   19.6840 N   0  0  1  0  0  4  0  0  0  0  0  0
  -29.1070  -21.6790   20.5720 H   0  0  0  0  0  0  0  0  0  0  0  0
  -30.0370  -17.5800   19.0940 C   0  0  0  0  0  2  0  0  0  0  0  0
  -30.7300  -15.0110   19.5310 C   0  0  0  0  0  0  0  0  0  0  0  0
  -30.5590  -12.6190   18.8240 C   0  0  0  0  0  2  0  0  0  0  0  0
  -29.5550  -12.5530   17.6490 C   0  0  0  0  0  2  0  0  0  0  0  0
  -28.1130  -12.4070   18.1790 C   0  0  0  0  0  2  0  0  0  0  0  0
  -27.7910  -13.3930   19.3300 C   0  0  0  0  0  3  0  0  0  0  0  0
  -28.9190  -13.4490   20.3890 C   0  0  0  0  0  2  0  0  0  0  0  0
  -30.1570  -13.7650   19.6710 N   0  0  0  0  0  0  0  0  0  0  0  0
  -31.8910  -15.1020   19.1260 O   0  0  0  0  0  0  0  0  0  0  0  0
  -29.9020  -16.1340   19.6530 N   0  0  0  0  0  0  0  0  0  0  0  0
  -29.0070  -15.9430   20.0620 H   0  0  0  0  0  0  0  0  0  0  0  0
  -25.4670  -14.0330   20.2150 C   0  0  0  0  0  0  0  0  0  0  0  0
  -24.4070  -13.2890   20.6500 C   0  0  0  0  0  0  0  0  0  0  0  0
  -24.8250  -11.9220   20.5700 C   0  0  0  0  0  0  0  0  0  0  0  0
  -26.4740  -13.1310   19.9080 N   0  0  0  0  0  0  0  0  0  0  0  0
  -26.0920  -11.8540   20.1760 N   0  0  0  0  0  0  0  0  0  0  0  0
  -24.0750  -10.6780   20.7870 C   0  0  0  0  0  0  0  0  0  0  0  0
  -24.5310   -9.6950   21.6920 C   0  0  0  0  0  3  0  0  0  0  0  0
  -23.7820   -8.5180   21.9050 C   0  0  0  0  0  3  0  0  0  0  0  0
  -22.5650   -8.3130   21.2140 C   0  0  0  0  0  0  0  0  0  0  0  0
  -22.1270   -9.2860   20.2970 C   0  0  0  0  0  3  0  0  0  0  0  0
  -22.8740  -10.4560   20.0820 C   0  0  0  0  0  3  0  0  0  0  0  0
  -21.7830   -7.1880   21.3410 O   0  0  0  0  0  0  0  0  0  0  0  0
  -21.7640   -6.4480   22.4960 C   0  0  0  0  0  0  0  0  0  0  0  0
  -21.3970   -7.0140   23.7360 C   0  0  0  0  0  3  0  0  0  0  0  0
  -21.3240   -6.2030   24.8860 C   0  0  0  0  0  3  0  0  0  0  0  0
  -21.6080   -4.8270   24.7980 C   0  0  0  0  0  0  0  0  0  0  0  0
  -21.9710   -4.2620   23.5620 C   0  0  0  0  0  3  0  0  0  0  0  0
  -22.0460   -5.0700   22.4150 C   0  0  0  0  0  0  0  0  0  0  0  0
  -22.3740   -4.5130   21.2230 F   0  0  0  0  0  0  0  0  0  0  0  0
  -21.5330   -4.0460   25.9010 F   0  0  0  0  0  0  0  0  0  0  0  0
  -23.0490  -13.7980   21.0340 C   0  0  0  0  0  0  0  0  0  0  0  0
  -22.3660  -13.1100   21.9390 N   0  0  0  0  0  0  0  0  0  0  0  0
  -22.5960  -14.8370   20.5460 O   0  0  0  0  0  0  0  0  0  0  0  0
  -22.7460  -12.2700   22.3470 H   0  0  0  0  0  0  0  0  0  0  0  0
  -21.4590  -13.4350   22.2430 H   0  0  0  0  0  0  0  0  0  0  0  0
  -25.6610  -15.4060   20.0410 N   0  0  0  0  0  0  0  0  0  0  0  0
  -24.9120  -16.0770   20.1650 H   0  0  0  0  0  0  0  0  0  0  0  0
  -26.4670  -15.7980   19.5760 H   0  0  0  0  0  0  0  0  0  0  0  0
  -28.8030  -22.8630   19.5480 C   0  0  0  0  0  2  0  0  0  0  0  0
  -28.7930  -23.0230   17.0050 C   0  0  0  0  0  1  0  0  0  0  0  0
  -28.1900  -23.6710   18.2910 C   0  0  0  0  0  3  0  0  0  0  0  0
  -28.4660  -25.2930   18.1650 C   0  0  0  0  0  2  0  0  0  0  0  0
  -28.1550  -26.4990   19.0000 O   0  0  0  0  0  0  0  0  0  0  0  0
  -24.6290  -31.5340   22.8000 C   0  0  0  0  0  0  0  0  0  0  0  0
  -27.0340  -27.3550   19.0030 C   0  0  0  0  0  0  0  0  0  0  0  0
  -23.3220  -30.2970   21.1210 C   0  0  0  0  0  3  0  0  0  0  0  0
  -24.6570  -28.9440   19.3970 C   0  0  0  0  0  0  0  0  0  0  0  0
  -25.8440  -30.6570   20.7820 C   0  0  0  0  0  2  0  0  0  0  0  0
  -25.8670  -29.3750   19.9470 C   0  0  0  0  0  0  0  0  0  0  0  0
  -27.0520  -28.5970   19.7290 C   0  0  0  0  0  3  0  0  0  0  0  0
  -25.8000  -26.9860   18.4290 C   0  0  0  0  0  3  0  0  0  0  0  0
  -24.6270  -27.7590   18.6340 C   0  0  0  0  0  3  0  0  0  0  0  0
  -23.4190  -29.7770   19.6620 C   0  0  0  0  0  2  0  0  0  0  0  0
  -24.6230  -30.8430   21.6240 N   0  0  0  0  0  0  0  0  0  0  0  0
  -23.5920  -31.7310   23.4430 O   0  0  0  0  0  0  0  0  0  0  0  0
  -22.7460  -29.1750   22.0160 C   0  0  0  0  0  0  0  0  0  0  0  0
  -21.4160  -28.9660   21.9610 N   0  0  0  0  0  0  0  0  0  0  0  0
  -23.4980  -28.4810   22.7090 O   0  0  0  0  0  0  0  0  0  0  0  0
  -20.8650  -29.5320   21.3320 H   0  0  0  0  0  0  0  0  0  0  0  0
  -18.1190  -27.6440   22.6140 C   0  0  0  0  0  0  0  0  0  0  0  0
  -20.6840  -27.9260   22.6880 C   0  0  0  0  0  3  0  0  0  0  0  0
  -20.7610  -26.5740   21.9300 C   0  0  0  0  0  2  0  0  0  0  0  0
  -19.5720  -26.3480   20.9930 C   0  0  0  0  0  2  0  0  0  0  0  0
  -18.2570  -26.3750   21.7740 C   0  0  0  0  0  2  0  0  0  0  0  0
  -19.2610  -28.3810   23.0210 C   0  0  0  0  0  0  0  0  0  0  0  0
  -19.0880  -29.5760   23.7510 C   0  0  0  0  0  3  0  0  0  0  0  0
  -17.8010  -30.0410   24.0770 C   0  0  0  0  0  3  0  0  0  0  0  0
  -16.6700  -29.3070   23.6780 C   0  0  0  0  0  3  0  0  0  0  0  0
  -16.8310  -28.1090   22.9640 C   0  0  0  0  0  3  0  0  0  0  0  0
  -25.9500  -32.1180   23.3920 C   0  0  0  0  0  3  0  0  0  0  0  0
  -26.5940  -31.1930   24.4950 C   0  0  1  0  0  0  0  0  0  0  0  0
  -25.6110  -30.7730   25.6140 C   0  0  0  0  0  1  0  0  0  0  0  0
  -27.1810  -29.9080   23.8700 C   0  0  0  0  0  1  0  0  0  0  0  0
  -27.7860  -31.9330   25.1450 C   0  0  0  0  0  1  0  0  0  0  0  0
  -25.6370  -33.4400   23.9500 N   0  0  0  0  0  0  0  0  0  0  0  0
  -25.9020  -34.6090   23.3470 C   0  0  0  0  0  0  0  0  0  0  0  0
  -26.5120  -34.6840   22.2760 O   0  0  0  0  0  0  0  0  0  0  0  0
  -25.0640  -33.4580   24.7810 H   0  0  0  0  0  0  0  0  0  0  0  0
  -24.1260  -36.3890   23.3760 C   0  0  0  0  0  1  0  0  0  0  0  0
  -25.4250  -35.8980   24.0380 C   0  0  0  0  0  3  0  0  0  0  0  0
  -27.5930  -36.7070   24.8600 C   0  0  0  0  0  1  0  0  0  0  0  0
  -26.4320  -36.9900   24.0180 N   0  0  0  0  0  0  0  0  0  0  0  0
  -26.0190  -37.8680   24.3250 H   0  0  0  0  0  0  0  0  0  0  0  0
  2  1  1  0
  2  3  1  0
  4  3  1  0
  5  9  1  0
  5  1  1  0
  6  5  1  0
  6  4  1  0
  7  6  1  0
  7  2  1  0
  7  8  1  1
  9 18  1  0
 10 18  1  0
 10 16  1  0
 11 16  1  0
 12 13  1  0
 12 11  1  0
 14 13  1  0
 14 23  1  0
 14 15  1  0
 16 15  1  0
 17 10  2  0
 18 19  1  0
 20 21  2  0
 21 40  1  0
 22 21  1  0
 22 25  1  0
 23 24  1  0
 23 20  1  0
 24 22  2  0
 25 26  1  0
 26 27  2  0
 28 31  1  0
 28 27  1  0
 29 28  2  0
 30 29  1  0
 30 25  2  0
 31 32  1  0
 32 33  1  0
 33 34  2  0
 35 34  1  0
 35 39  1  0
 36 35  2  0
 37 32  2  0
 37 36  1  0
 38 37  1  0
 40 41  1  0
 41 44  1  0
 41 43  1  0
 42 40  2  0
 45 46  1  0
 45 20  1  0
 47 45  1  0
 48  7  1  0
 50 49  1  0
 50 48  1  0
 51 50  1  0
 51 52  1  0
 52 54  1  0
 53 64  2  0
 54 59  1  0
 55 63  1  0
 55 65  1  0
 56 62  1  0
 56 58  1  0
 57 63  1  0
 58 57  1  0
 59 58  2  0
 60 61  1  0
 60 54  2  0
 61 56  2  0
 62 55  1  0
 63 53  1  0
 65 67  2  0
 66 65  1  0
 68 66  1  0
 69 78  2  0
 69 74  1  0
 70 66  1  0
 70 74  1  0
 71 70  1  0
 72 73  1  0
 72 71  1  0
 73 69  1  0
 74 75  2  0
 75 76  1  0
 77 76  2  0
 78 77  1  0
 79 53  1  0
 79 84  1  0
 79 80  1  0
 80 83  1  1
 80 81  1  0
 82 80  1  0
 84 87  1  0
 85 84  1  0
 85 89  1  0
 86 85  2  0
 89 88  1  0
 91 89  1  0
 91 92  1  0
 91 90  1  0
M  ISO  4  10 100  18 100  51 101  52 101
M  END
>  <TORSDO>  (59) 
F 20

>  <SCORE>  (59) 
-11.539

>  <name>  (59) 
58

>  <ligand_id>  (59) 
58

>  <original_smiles>  (59) 
[H]C1=C2C([H])([H])C([H])([H])C([H])(C1([H])C([H])([H])N([H])C(=O)N1C([H])([H])C([H])([H])C([H])([H])C([H])(n3nc(-c4c([H])c([H])c(Oc5c([H])c([H])c(F)c([H])c5F)c([H])c4[H])c(C(=O)N([H])[H])c3N([H])[H])C1([H])[H])[N+]2([H])C([H])([H])C([H])(C([H])([H])[H])C([H])([H])Oc1c([H])c([H])c2c(c1[H])C([H])([H])N(C(=O)C([H])(N([H])C(=O)C([H])(N([H])C([H])([H])[H])C([H])([H])[H])C(C([H])([H])[H])(C([H])([H])[H])C([H])([H])[H])C([H])(C(=O)N([H])C1([H])c3c([H])c([H])c([H])c([H])c3C([H])([H])C([H])([H])C1([H])[H])C2([H])[H]

>  <smiles>  (59) 
[H]C1=C2C([H])([H])C([H])([H])C([H])(C1([H])C([H])([H])N([H])C(=O)N1C([H])([H])C([H])([H])C([H])([H])C([H])(n3nc(-c4c([H])c([H])c(Oc5c([H])c([H])c(F)c([H])c5F)c([H])c4[H])c(C(=O)N([H])[H])c3N([H])[H])C1([H])[H])[N+]2([H])C([H])([H])C([H])(C([H])([H])[H])C([H])([H])Oc1c([H])c([H])c2c(c1[H])C([H])([H])N(C(=O)C([H])(N([H])C(=O)C([H])(N([H])C([H])([H])[H])C([H])([H])[H])C(C([H])([H])[H])(C([H])([H])[H])C([H])([H])[H])C([H])(C(=O)N([H])C1([H])c3c([H])c([H])c([H])c([H])c3C([H])([H])C([H])([H])C1([H])[H])C2([H])[H]

$$$$
59:0:0
     RDKit          3D

 90 97  0  0  1  0  0  0  0  0999 V2000
  -28.8970  -23.7420   19.9820 C   0  0  0  0  0  3  0  0  0  0  0  0
  -30.3400  -23.9720   20.2070 N   0  0  0  0  0  4  0  0  0  0  0  0
  -30.9040  -23.2640   19.7660 H   0  0  0  0  0  0  0  0  0  0  0  0
  -30.5700  -23.9970   21.1870 H   0  0  0  0  0  0  0  0  0  0  0  0
  -30.6140  -24.8500   19.8030 H   0  0  0  0  0  0  0  0  0  0  0  0
  -28.4870  -22.2470   20.4740 C   0  0  0  0  0  3  0  0  0  0  0  0
  -29.2920  -20.9610   19.9170 C   0  0  0  0  0  3  0  0  0  0  0  0
  -28.8330  -19.4770   20.2320 C   0  0  0  0  0  3  0  0  0  0  0  0
  -29.6020  -18.3270   20.1820 C   0  0  0  0  0  3  0  0  0  0  0  0
  -29.1510  -16.8100   20.2920 C   0  0  0  0  0  2  0  0  0  0  0  0
  -30.6660  -14.6830   20.4170 C   0  0  0  0  0  0  0  0  0  0  0  0
  -30.3840  -12.4530   19.3520 C   0  0  0  0  0  2  0  0  0  0  0  0
  -29.4630  -12.5970   18.1240 C   0  0  0  0  0  2  0  0  0  0  0  0
  -27.9880  -12.4330   18.5410 C   0  0  0  0  0  2  0  0  0  0  0  0
  -27.6240  -13.2810   19.7920 C   0  0  0  0  0  3  0  0  0  0  0  0
  -28.6800  -13.1710   20.9120 C   0  0  0  0  0  2  0  0  0  0  0  0
  -29.9820  -13.4950   20.3220 N   0  0  0  0  0  0  0  0  0  0  0  0
  -31.8310  -14.7690   20.0190 O   0  0  0  0  0  0  0  0  0  0  0  0
  -30.0750  -15.8070   20.9430 N   0  0  0  0  0  0  0  0  0  0  0  0
  -30.7890  -16.3190   21.4390 H   0  0  0  0  0  0  0  0  0  0  0  0
  -25.2250  -13.8510   20.4900 C   0  0  0  0  0  0  0  0  0  0  0  0
  -24.1610  -13.0700   20.8580 C   0  0  0  0  0  0  0  0  0  0  0  0
  -24.6370  -11.7220   20.8370 C   0  0  0  0  0  0  0  0  0  0  0  0
  -26.2780  -12.9800   20.2700 N   0  0  0  0  0  0  0  0  0  0  0  0
  -25.9300  -11.6930   20.5340 N   0  0  0  0  0  0  0  0  0  0  0  0
  -23.9130  -10.4560   21.0310 C   0  0  0  0  0  0  0  0  0  0  0  0
  -24.3490   -9.4930   21.9680 C   0  0  0  0  0  3  0  0  0  0  0  0
  -23.6260   -8.2930   22.1490 C   0  0  0  0  0  3  0  0  0  0  0  0
  -22.4530   -8.0490   21.3940 C   0  0  0  0  0  0  0  0  0  0  0  0
  -22.0390   -9.0010   20.4450 C   0  0  0  0  0  3  0  0  0  0  0  0
  -22.7630  -10.1920   20.2610 C   0  0  0  0  0  3  0  0  0  0  0  0
  -21.7050   -6.9010   21.4850 O   0  0  0  0  0  0  0  0  0  0  0  0
  -21.6610   -6.1550   22.6370 C   0  0  0  0  0  0  0  0  0  0  0  0
  -21.2380   -6.7080   23.8650 C   0  0  0  0  0  3  0  0  0  0  0  0
  -21.1460   -5.8910   25.0080 C   0  0  0  0  0  3  0  0  0  0  0  0
  -21.4650   -4.5220   24.9230 C   0  0  0  0  0  0  0  0  0  0  0  0
  -21.8780   -3.9700   23.6980 C   0  0  0  0  0  3  0  0  0  0  0  0
  -21.9750   -4.7840   22.5580 C   0  0  0  0  0  0  0  0  0  0  0  0
  -22.3550   -4.2410   21.3750 F   0  0  0  0  0  0  0  0  0  0  0  0
  -21.3700   -3.7350   26.0200 F   0  0  0  0  0  0  0  0  0  0  0  0
  -22.7590  -13.5380   21.1210 C   0  0  0  0  0  0  0  0  0  0  0  0
  -22.0350  -12.8370   21.9890 N   0  0  0  0  0  0  0  0  0  0  0  0
  -22.3160  -14.5600   20.6000 O   0  0  0  0  0  0  0  0  0  0  0  0
  -22.4050  -12.0080   22.4280 H   0  0  0  0  0  0  0  0  0  0  0  0
  -21.0960  -13.1320   22.2120 H   0  0  0  0  0  0  0  0  0  0  0  0
  -25.3800  -15.2200   20.3000 N   0  0  0  0  0  0  0  0  0  0  0  0
  -24.6150  -15.8750   20.4080 H   0  0  0  0  0  0  0  0  0  0  0  0
  -26.2370  -15.6620   19.9970 H   0  0  0  0  0  0  0  0  0  0  0  0
  -28.0510  -24.9950   20.5610 C   0  0  0  0  0  2  0  0  0  0  0  0
  -28.3030  -26.4200   20.1570 O   0  0  0  0  0  0  0  0  0  0  0  0
  -24.6110  -31.8710   23.2440 C   0  0  0  0  0  0  0  0  0  0  0  0
  -27.2050  -27.3080   20.1510 C   0  0  0  0  0  0  0  0  0  0  0  0
  -23.4010  -30.4820   21.6000 C   0  0  0  0  0  3  0  0  0  0  0  0
  -24.8470  -28.9410   20.1580 C   0  0  0  0  0  0  0  0  0  0  0  0
  -25.9410  -30.7950   21.4160 C   0  0  0  0  0  2  0  0  0  0  0  0
  -26.0210  -29.4170   20.7600 C   0  0  0  0  0  0  0  0  0  0  0  0
  -27.2040  -28.6130   20.7450 C   0  0  0  0  0  3  0  0  0  0  0  0
  -26.0140  -26.9060   19.5080 C   0  0  0  0  0  3  0  0  0  0  0  0
  -24.8490  -27.6920   19.5190 C   0  0  0  0  0  3  0  0  0  0  0  0
  -23.6170  -29.8200   20.2150 C   0  0  0  0  0  2  0  0  0  0  0  0
  -24.6700  -31.0680   22.1440 N   0  0  0  0  0  0  0  0  0  0  0  0
  -23.5290  -32.1500   23.7820 O   0  0  0  0  0  0  0  0  0  0  0  0
  -22.7390  -29.4620   22.5580 C   0  0  0  0  0  0  0  0  0  0  0  0
  -21.4140  -29.2830   22.4320 N   0  0  0  0  0  0  0  0  0  0  0  0
  -23.4180  -28.8420   23.3800 O   0  0  0  0  0  0  0  0  0  0  0  0
  -20.9250  -29.8430   21.7480 H   0  0  0  0  0  0  0  0  0  0  0  0
  -18.0400  -28.0670   22.9190 C   0  0  0  0  0  0  0  0  0  0  0  0
  -20.5960  -28.3410   23.1990 C   0  0  0  0  0  3  0  0  0  0  0  0
  -20.7070  -26.9090   22.6280 C   0  0  0  0  0  2  0  0  0  0  0  0
  -19.6100  -26.5790   21.6080 C   0  0  0  0  0  2  0  0  0  0  0  0
  -18.2260  -26.7180   22.2440 C   0  0  0  0  0  2  0  0  0  0  0  0
  -19.1540  -28.8360   23.3520 C   0  0  0  0  0  0  0  0  0  0  0  0
  -18.9250  -30.0960   23.9450 C   0  0  0  0  0  3  0  0  0  0  0  0
  -17.6170  -30.5920   24.1030 C   0  0  0  0  0  3  0  0  0  0  0  0
  -16.5180  -29.8220   23.6830 C   0  0  0  0  0  3  0  0  0  0  0  0
  -16.7300  -28.5590   23.1010 C   0  0  0  0  0  3  0  0  0  0  0  0
  -25.8960  -32.4990   23.8660 C   0  0  0  0  0  3  0  0  0  0  0  0
  -26.4170  -31.7200   25.1350 C   0  0  1  0  0  0  0  0  0  0  0  0
  -25.3280  -31.4860   26.2060 C   0  0  0  0  0  1  0  0  0  0  0  0
  -26.9940  -30.3430   24.7330 C   0  0  0  0  0  1  0  0  0  0  0  0
  -27.5700  -32.5090   25.7980 C   0  0  0  0  0  1  0  0  0  0  0  0
  -25.5910  -33.8970   24.2050 N   0  0  0  0  0  0  0  0  0  0  0  0
  -25.9160  -34.9550   23.4490 C   0  0  0  0  0  0  0  0  0  0  0  0
  -26.5770  -34.8560   22.4120 O   0  0  0  0  0  0  0  0  0  0  0  0
  -25.0100  -34.0480   25.0170 H   0  0  0  0  0  0  0  0  0  0  0  0
  -24.1890  -36.7490   23.1140 C   0  0  0  0  0  1  0  0  0  0  0  0
  -25.4310  -36.3380   23.9190 C   0  0  0  0  0  3  0  0  0  0  0  0
  -27.5660  -37.2170   24.7530 C   0  0  0  0  0  1  0  0  0  0  0  0
  -26.4620  -37.3920   23.8140 N   0  0  0  0  0  0  0  0  0  0  0  0
  -26.0530  -38.3090   23.9730 H   0  0  0  0  0  0  0  0  0  0  0  0
  1  2  1  0
  1  6  1  0
  1 49  1  0
  2  4  1  0
  3  2  1  0
  5  2  1  0
  7  8  1  0
  7  6  2  0
  9  8  2  0
  9 10  1  0
 10 19  1  0
 11 19  1  0
 12 17  1  0
 13 14  1  0
 13 12  1  0
 15 14  1  0
 15 24  1  0
 15 16  1  0
 17 11  1  0
 17 16  1  0
 18 11  2  0
 19 20  1  0
 21 22  2  0
 22 41  1  0
 23 22  1  0
 23 26  1  0
 24 21  1  0
 24 25  1  0
 25 23  2  0
 26 27  1  0
 27 28  2  0
 29 32  1  0
 29 28  1  0
 30 29  2  0
 31 30  1  0
 31 26  2  0
 32 33  1  0
 33 34  1  0
 34 35  2  0
 36 35  1  0
 36 40  1  0
 37 36  2  0
 38 33  2  0
 38 37  1  0
 39 38  1  0
 41 42  1  0
 42 45  1  0
 42 44  1  0
 43 41  2  0
 46 47  1  0
 46 21  1  0
 48 46  1  0
 50 49  1  0
 51 62  2  0
 52 50  1  0
 52 57  1  0
 53 61  1  0
 53 63  1  0
 54 60  1  0
 54 56  1  0
 55 61  1  0
 56 55  1  0
 57 56  2  0
 58 59  1  0
 58 52  2  0
 59 54  2  0
 60 53  1  0
 61 51  1  0
 63 65  2  0
 64 63  1  0
 66 64  1  0
 67 76  2  0
 67 72  1  0
 68 64  1  0
 68 72  1  0
 69 68  1  0
 70 71  1  0
 70 69  1  0
 71 67  1  0
 72 73  2  0
 73 74  1  0
 75 74  2  0
 76 75  1  0
 77 51  1  0
 77 82  1  0
 77 78  1  0
 78 81  1  1
 78 79  1  0
 80 78  1  0
 82 85  1  0
 83 87  1  0
 83 82  1  0
 84 83  2  0
 87 86  1  0
 89 87  1  0
 89 90  1  0
 89 88  1  0
M  ISO  4  11 100  19 100  49 101  50 101
M  END
>  <TORSDO>  (60) 
F 22

>  <SCORE>  (60) 
-13.150

>  <name>  (60) 
59

>  <ligand_id>  (60) 
59

>  <original_smiles>  (60) 
[H]C(=C([H])C([H])([H])C([H])([H])C([H])(C([H])([H])Oc1c([H])c([H])c2c(c1[H])C([H])([H])N(C(=O)C([H])(N([H])C(=O)C([H])(N([H])C([H])([H])[H])C([H])([H])[H])C(C([H])([H])[H])(C([H])([H])[H])C([H])([H])[H])C([H])(C(=O)N([H])C1([H])c3c([H])c([H])c([H])c([H])c3C([H])([H])C([H])([H])C1([H])[H])C2([H])[H])[N+]([H])([H])[H])C([H])([H])N([H])C(=O)N1C([H])([H])C([H])([H])C([H])([H])C([H])(n2nc(-c3c([H])c([H])c(Oc4c([H])c([H])c(F)c([H])c4F)c([H])c3[H])c(C(=O)N([H])[H])c2N([H])[H])C1([H])[H]

>  <smiles>  (60) 
[H]C(=C([H])C([H])([H])C([H])([H])C([H])(C([H])([H])Oc1c([H])c([H])c2c(c1[H])C([H])([H])N(C(=O)C([H])(N([H])C(=O)C([H])(N([H])C([H])([H])[H])C([H])([H])[H])C(C([H])([H])[H])(C([H])([H])[H])C([H])([H])[H])C([H])(C(=O)N([H])C1([H])c3c([H])c([H])c([H])c([H])c3C([H])([H])C([H])([H])C1([H])[H])C2([H])[H])[N+]([H])([H])[H])C([H])([H])N([H])C(=O)N1C([H])([H])C([H])([H])C([H])([H])C([H])(n2nc(-c3c([H])c([H])c(Oc4c([H])c([H])c(F)c([H])c4F)c([H])c3[H])c(C(=O)N([H])[H])c2N([H])[H])C1([H])[H]

$$$$
60:0:0
     RDKit          3D

 91 99  0  0  1  0  0  0  0  0999 V2000
  -28.9450  -22.4020   20.2060 N   0  0  0  0  0  4  0  0  0  0  0  0
  -28.1500  -22.2530   19.6040 H   0  0  0  0  0  0  0  0  0  0  0  0
  -28.6170  -22.2010   21.1390 H   0  0  0  0  0  0  0  0  0  0  0  0
  -30.4400  -21.3400   18.4340 C   0  0  0  0  0  1  0  0  0  0  0  0
  -29.9420  -21.2810   19.8910 C   0  0  0  0  0  3  0  0  0  0  0  0
  -29.3290  -19.8320   20.2480 C   0  0  0  0  0  0  0  0  0  0  0  0
  -28.3990  -19.7740   21.0590 O   0  0  0  0  0  0  0  0  0  0  0  0
  -29.8040  -18.4470   19.6000 C   0  0  0  0  0  2  0  0  0  0  0  0
  -30.8220  -14.7380   20.0380 C   0  0  0  0  0  0  0  0  0  0  0  0
  -30.5110  -12.5060   18.9470 C   0  0  0  0  0  2  0  0  0  0  0  0
  -29.5110  -12.6120   17.7730 C   0  0  0  0  0  2  0  0  0  0  0  0
  -28.0560  -12.4660   18.2610 C   0  0  0  0  0  2  0  0  0  0  0  0
  -27.7590  -13.3380   19.5110 C   0  0  0  0  0  3  0  0  0  0  0  0
  -28.8630  -13.1700   20.5720 C   0  0  0  0  0  2  0  0  0  0  0  0
  -30.1410  -13.5430   19.9420 N   0  0  0  0  0  0  0  0  0  0  0  0
  -31.9540  -14.8380   19.5530 O   0  0  0  0  0  0  0  0  0  0  0  0
  -30.4600  -17.2670   21.9540 C   0  0  0  0  0  2  0  0  0  0  0  0
  -29.5390  -16.0750   21.7490 C   0  0  0  0  0  2  0  0  0  0  0  0
  -30.6170  -17.3500   20.4390 C   0  0  0  0  0  3  0  0  0  0  0  0
  -30.1440  -15.8910   20.4220 N   0  0  0  0  0  0  0  0  0  0  0  0
  -25.4150  -13.9660   20.3510 C   0  0  0  0  0  0  0  0  0  0  0  0
  -24.3540  -13.2080   20.7640 C   0  0  0  0  0  0  0  0  0  0  0  0
  -24.7940  -11.8490   20.7070 C   0  0  0  0  0  0  0  0  0  0  0  0
  -26.4320  -13.0710   20.0600 N   0  0  0  0  0  0  0  0  0  0  0  0
  -26.0670  -11.7920   20.3330 N   0  0  0  0  0  0  0  0  0  0  0  0
  -24.0570  -10.5970   20.9240 C   0  0  0  0  0  0  0  0  0  0  0  0
  -24.4840   -9.6450   21.8770 C   0  0  0  0  0  3  0  0  0  0  0  0
  -23.7480   -8.4580   22.0800 C   0  0  0  0  0  3  0  0  0  0  0  0
  -22.5730   -8.2140   21.3300 C   0  0  0  0  0  0  0  0  0  0  0  0
  -22.1670   -9.1530   20.3660 C   0  0  0  0  0  3  0  0  0  0  0  0
  -22.9030  -10.3320   20.1620 C   0  0  0  0  0  3  0  0  0  0  0  0
  -21.8110   -7.0760   21.4390 O   0  0  0  0  0  0  0  0  0  0  0  0
  -21.7130   -6.3860   22.6210 C   0  0  0  0  0  0  0  0  0  0  0  0
  -21.2500   -7.0000   23.8060 C   0  0  0  0  0  3  0  0  0  0  0  0
  -21.0970   -6.2370   24.9800 C   0  0  0  0  0  3  0  0  0  0  0  0
  -21.3980   -4.8620   24.9710 C   0  0  0  0  0  0  0  0  0  0  0  0
  -21.8500   -4.2470   23.7910 C   0  0  0  0  0  3  0  0  0  0  0  0
  -22.0030   -5.0060   22.6180 C   0  0  0  0  0  0  0  0  0  0  0  0
  -22.4220   -4.4050   21.4790 F   0  0  0  0  0  0  0  0  0  0  0  0
  -21.2430   -4.1270   26.0980 F   0  0  0  0  0  0  0  0  0  0  0  0
  -22.9790  -13.7050   21.1010 C   0  0  0  0  0  0  0  0  0  0  0  0
  -22.2840  -13.0230   22.0060 N   0  0  0  0  0  0  0  0  0  0  0  0
  -22.5290  -14.7350   20.5990 O   0  0  0  0  0  0  0  0  0  0  0  0
  -22.6600  -12.1910   22.4360 H   0  0  0  0  0  0  0  0  0  0  0  0
  -21.3610  -13.3370   22.2670 H   0  0  0  0  0  0  0  0  0  0  0  0
  -25.5960  -15.3360   20.1800 N   0  0  0  0  0  0  0  0  0  0  0  0
  -24.8540  -16.0080   20.3440 H   0  0  0  0  0  0  0  0  0  0  0  0
  -26.4480  -15.7600   19.8390 H   0  0  0  0  0  0  0  0  0  0  0  0
  -29.3530  -23.8870   20.1400 C   0  0  0  0  0  3  0  0  0  0  0  0
  -28.1620  -24.9640   20.2040 C   0  0  0  0  0  3  0  0  0  0  0  0
  -28.3930  -26.4460   20.2310 O   0  0  0  0  0  0  0  0  0  0  0  0
  -24.6210  -31.8860   23.2390 C   0  0  0  0  0  0  0  0  0  0  0  0
  -27.2670  -27.3040   20.2020 C   0  0  0  0  0  0  0  0  0  0  0  0
  -23.4300  -30.4680   21.6090 C   0  0  0  0  0  3  0  0  0  0  0  0
  -24.8900  -28.9190   20.1960 C   0  0  0  0  0  0  0  0  0  0  0  0
  -25.9720  -30.7940   21.4300 C   0  0  0  0  0  2  0  0  0  0  0  0
  -26.0590  -29.4100   20.7910 C   0  0  0  0  0  0  0  0  0  0  0  0
  -27.2490  -28.6150   20.7840 C   0  0  0  0  0  3  0  0  0  0  0  0
  -26.0660  -26.8780   19.5840 C   0  0  0  0  0  3  0  0  0  0  0  0
  -24.8960  -27.6570   19.5870 C   0  0  0  0  0  3  0  0  0  0  0  0
  -23.6530  -29.7910   20.2330 C   0  0  0  0  0  2  0  0  0  0  0  0
  -24.6930  -31.0690   22.1480 N   0  0  0  0  0  0  0  0  0  0  0  0
  -23.5350  -32.1580   23.7700 O   0  0  0  0  0  0  0  0  0  0  0  0
  -22.7720  -29.4520   22.5730 C   0  0  0  0  0  0  0  0  0  0  0  0
  -21.4450  -29.2710   22.4500 N   0  0  0  0  0  0  0  0  0  0  0  0
  -23.4520  -28.8340   23.3940 O   0  0  0  0  0  0  0  0  0  0  0  0
  -20.9540  -29.8220   21.7610 H   0  0  0  0  0  0  0  0  0  0  0  0
  -18.0730  -28.0580   22.9550 C   0  0  0  0  0  0  0  0  0  0  0  0
  -20.6300  -28.3350   23.2270 C   0  0  0  0  0  3  0  0  0  0  0  0
  -20.7400  -26.8990   22.6610 C   0  0  0  0  0  2  0  0  0  0  0  0
  -19.6400  -26.5640   21.6480 C   0  0  0  0  0  2  0  0  0  0  0  0
  -18.2580  -26.7050   22.2890 C   0  0  0  0  0  2  0  0  0  0  0  0
  -19.1860  -28.8300   23.3810 C   0  0  0  0  0  0  0  0  0  0  0  0
  -18.9590  -30.0960   23.9640 C   0  0  0  0  0  3  0  0  0  0  0  0
  -17.6500  -30.5890   24.1250 C   0  0  0  0  0  3  0  0  0  0  0  0
  -16.5510  -29.8140   23.7170 C   0  0  0  0  0  3  0  0  0  0  0  0
  -16.7630  -28.5510   23.1370 C   0  0  0  0  0  3  0  0  0  0  0  0
  -25.8980  -32.5320   23.8570 C   0  0  0  0  0  3  0  0  0  0  0  0
  -25.5770  -33.9310   24.1800 N   0  0  0  0  0  0  0  0  0  0  0  0
  -25.9130  -34.9830   23.4230 C   0  0  0  0  0  0  0  0  0  0  0  0
  -26.5950  -34.8790   22.3990 O   0  0  0  0  0  0  0  0  0  0  0  0
  -24.9760  -34.0840   24.9740 H   0  0  0  0  0  0  0  0  0  0  0  0
  -24.1860  -36.7720   23.0390 C   0  0  0  0  0  1  0  0  0  0  0  0
  -25.4150  -36.3710   23.8710 C   0  0  0  0  0  3  0  0  0  0  0  0
  -27.5350  -37.2590   24.7350 C   0  0  0  0  0  1  0  0  0  0  0  0
  -26.4460  -37.4280   23.7750 N   0  0  0  0  0  0  0  0  0  0  0  0
  -26.0350  -38.3470   23.9190 H   0  0  0  0  0  0  0  0  0  0  0  0
  -26.4170  -31.7750   25.1420 C   0  0  1  0  0  0  0  0  0  0  0  0
  -25.3250  -31.5360   26.2120 C   0  0  0  0  0  1  0  0  0  0  0  0
  -27.0120  -30.3990   24.7640 C   0  0  0  0  0  1  0  0  0  0  0  0
  -27.5620  -32.5820   25.7990 C   0  0  0  0  0  1  0  0  0  0  0  0
  1  3  1  0
  2  1  1  0
  5  4  1  0
  5  1  1  0
  5  6  1  0
  6  7  2  0
  8  6  1  0
  9 20  1  0
 10 15  1  0
 11 12  1  0
 11 10  1  0
 13 12  1  0
 13 24  1  0
 13 14  1  0
 15  9  1  0
 15 14  1  0
 16  9  2  0
 18 17  1  0
 19  8  1  0
 19 17  1  0
 20 19  1  0
 20 18  1  0
 21 22  2  0
 22 41  1  0
 23 22  1  0
 23 26  1  0
 24 25  1  0
 24 21  1  0
 25 23  2  0
 26 27  1  0
 27 28  2  0
 29 32  1  0
 29 28  1  0
 30 29  2  0
 31 30  1  0
 31 26  2  0
 32 33  1  0
 33 34  1  0
 34 35  2  0
 36 35  1  0
 36 40  1  0
 37 36  2  0
 38 33  2  0
 38 37  1  0
 39 38  1  0
 41 42  1  0
 42 45  1  0
 42 44  1  0
 43 41  2  0
 46 47  1  0
 46 21  1  0
 48 46  1  0
 49 50  2  0
 49  1  1  0
 50 51  1  0
 52 63  2  0
 53 51  1  0
 53 58  1  0
 54 62  1  0
 54 64  1  0
 55 61  1  0
 55 57  1  0
 56 62  1  0
 57 56  1  0
 58 57  2  0
 59 60  1  0
 59 53  2  0
 60 55  2  0
 61 54  1  0
 62 52  1  0
 64 66  2  0
 65 64  1  0
 67 65  1  0
 68 77  2  0
 68 73  1  0
 69 65  1  0
 69 73  1  0
 70 69  1  0
 71 72  1  0
 71 70  1  0
 72 68  1  0
 73 74  2  0
 74 75  1  0
 76 75  2  0
 77 76  1  0
 78 52  1  0
 78 79  1  0
 78 88  1  0
 79 82  1  0
 80 84  1  0
 80 79  1  0
 81 80  2  0
 84 83  1  0
 86 84  1  0
 86 87  1  0
 86 85  1  0
 88 91  1  1
 88 89  1  0
 90 88  1  0
M  ISO  4   9 100  20 100  50 101  51 101
M  END
>  <TORSDO>  (61) 
F 21

>  <SCORE>  (61) 
-12.924

>  <name>  (61) 
60

>  <ligand_id>  (61) 
60

>  <original_smiles>  (61) 
[H]c1c([H])c([H])c2c(c1[H])C([H])([H])C([H])([H])C([H])([H])C2([H])N([H])C(=O)C1([H])N(C(=O)C([H])(N([H])C(=O)C([H])(N([H])C([H])([H])[H])C([H])([H])[H])C(C([H])([H])[H])(C([H])([H])[H])C([H])([H])[H])C([H])([H])c2c([H])c(OC([H])([H])C([H])([H])[N+]([H])([H])C([H])(C(=O)C([H])([H])C3([H])N(C(=O)N4C([H])([H])C([H])([H])C([H])([H])C([H])(n5nc(-c6c([H])c([H])c(Oc7c([H])c([H])c(F)c([H])c7F)c([H])c6[H])c(C(=O)N([H])[H])c5N([H])[H])C4([H])[H])C([H])([H])C3([H])[H])C([H])([H])[H])c([H])c([H])c2C1([H])[H]

>  <smiles>  (61) 
[H]c1c([H])c([H])c2c(c1[H])C([H])([H])C([H])([H])C([H])([H])C2([H])N([H])C(=O)C1([H])N(C(=O)C([H])(N([H])C(=O)C([H])(N([H])C([H])([H])[H])C([H])([H])[H])C(C([H])([H])[H])(C([H])([H])[H])C([H])([H])[H])C([H])([H])c2c([H])c(OC([H])([H])C([H])([H])[N+]([H])([H])C([H])(C(=O)C([H])([H])C3([H])N(C(=O)N4C([H])([H])C([H])([H])C([H])([H])C([H])(n5nc(-c6c([H])c([H])c(Oc7c([H])c([H])c(F)c([H])c7F)c([H])c6[H])c(C(=O)N([H])[H])c5N([H])[H])C4([H])[H])C([H])([H])C3([H])[H])C([H])([H])[H])c([H])c([H])c2C1([H])[H]

$$$$
61:0:0
     RDKit          3D

 93102  0  0  1  0  0  0  0  0999 V2000
  -30.5840  -20.1750   19.6580 C   0  0  0  0  0  3  0  0  0  0  0  0
  -31.7710  -21.4130   20.6980 C   0  0  0  0  0  2  0  0  0  0  0  0
  -30.5270  -21.7250   19.8260 C   0  0  0  0  0  3  0  0  0  0  0  0
  -32.0690  -20.1560   19.8260 C   0  0  0  0  0  3  0  0  0  0  0  0
  -31.0460  -18.0510   20.1050 C   0  0  0  0  0  3  0  0  0  0  0  0
  -29.9960  -19.1070   20.0040 N   0  0  0  0  0  2  0  0  0  0  0  0
  -32.2400  -18.8490   20.4730 N   0  0  0  0  0  4  0  0  0  0  0  0
  -32.2800  -18.9620   21.4710 H   0  0  0  0  0  0  0  0  0  0  0  0
  -33.0830  -18.3910   20.1660 H   0  0  0  0  0  0  0  0  0  0  0  0
  -30.0090  -17.2900   22.3640 C   0  0  0  0  0  1  0  0  0  0  0  0
  -30.8190  -16.8550   21.1290 C   0  0  0  0  0  3  0  0  0  0  0  0
  -30.9110  -14.5080   20.1060 C   0  0  0  0  0  0  0  0  0  0  0  0
  -30.5280  -12.3610   18.9240 C   0  0  0  0  0  2  0  0  0  0  0  0
  -29.5290  -12.5770   17.7690 C   0  0  0  0  0  2  0  0  0  0  0  0
  -28.0770  -12.4410   18.2690 C   0  0  0  0  0  2  0  0  0  0  0  0
  -27.8090  -13.2670   19.5570 C   0  0  0  0  0  3  0  0  0  0  0  0
  -28.9160  -13.0370   20.6080 C   0  0  0  0  0  2  0  0  0  0  0  0
  -30.2060  -13.3460   19.9700 N   0  0  0  0  0  0  0  0  0  0  0  0
  -32.0580  -14.6400   19.6730 O   0  0  0  0  0  0  0  0  0  0  0  0
  -30.2380  -15.5770   20.6120 N   0  0  0  0  0  0  0  0  0  0  0  0
  -29.2650  -15.4130   20.8210 H   0  0  0  0  0  0  0  0  0  0  0  0
  -25.4600  -13.9070   20.3850 C   0  0  0  0  0  0  0  0  0  0  0  0
  -24.3970  -13.1510   20.7960 C   0  0  0  0  0  0  0  0  0  0  0  0
  -24.8320  -11.7920   20.7380 C   0  0  0  0  0  0  0  0  0  0  0  0
  -26.4770  -13.0090   20.1010 N   0  0  0  0  0  0  0  0  0  0  0  0
  -26.1070  -11.7320   20.3730 N   0  0  0  0  0  0  0  0  0  0  0  0
  -24.0920  -10.5420   20.9520 C   0  0  0  0  0  0  0  0  0  0  0  0
  -24.5260   -9.5770   21.8880 C   0  0  0  0  0  3  0  0  0  0  0  0
  -23.7890   -8.3910   22.0900 C   0  0  0  0  0  3  0  0  0  0  0  0
  -22.6020   -8.1590   21.3550 C   0  0  0  0  0  0  0  0  0  0  0  0
  -22.1860   -9.1120   20.4080 C   0  0  0  0  0  3  0  0  0  0  0  0
  -22.9240  -10.2900   20.2050 C   0  0  0  0  0  3  0  0  0  0  0  0
  -21.8350   -7.0250   21.4650 O   0  0  0  0  0  0  0  0  0  0  0  0
  -21.7670   -6.3130   22.6350 C   0  0  0  0  0  0  0  0  0  0  0  0
  -21.3260   -6.8990   23.8420 C   0  0  0  0  0  3  0  0  0  0  0  0
  -21.2050   -6.1120   25.0040 C   0  0  0  0  0  3  0  0  0  0  0  0
  -21.5180   -4.7400   24.9620 C   0  0  0  0  0  0  0  0  0  0  0  0
  -21.9520   -4.1530   23.7610 C   0  0  0  0  0  3  0  0  0  0  0  0
  -22.0740   -4.9380   22.6000 C   0  0  0  0  0  0  0  0  0  0  0  0
  -22.4720   -4.3630   21.4400 F   0  0  0  0  0  0  0  0  0  0  0  0
  -21.3950   -3.9810   26.0770 F   0  0  0  0  0  0  0  0  0  0  0  0
  -23.0190  -13.6510   21.1290 C   0  0  0  0  0  0  0  0  0  0  0  0
  -22.3140  -12.9640   22.0220 N   0  0  0  0  0  0  0  0  0  0  0  0
  -22.5780  -14.6860   20.6310 O   0  0  0  0  0  0  0  0  0  0  0  0
  -22.6840  -12.1300   22.4520 H   0  0  0  0  0  0  0  0  0  0  0  0
  -21.3890  -13.2800   22.2790 H   0  0  0  0  0  0  0  0  0  0  0  0
  -25.6410  -15.2760   20.2060 N   0  0  0  0  0  0  0  0  0  0  0  0
  -24.8880  -15.9400   20.3430 H   0  0  0  0  0  0  0  0  0  0  0  0
  -26.4750  -15.7000   19.8180 H   0  0  0  0  0  0  0  0  0  0  0  0
  -29.3000  -22.5150   20.3790 C   0  0  0  0  0  2  0  0  0  0  0  0
  -29.5330  -24.0840   20.4720 C   0  0  0  0  0  3  0  0  0  0  0  0
  -28.2620  -25.0010   20.3780 C   0  0  0  0  0  3  0  0  0  0  0  0
  -28.4470  -26.4550   20.4770 O   0  0  0  0  0  0  0  0  0  0  0  0
  -24.6220  -31.8640   23.2940 C   0  0  0  0  0  0  0  0  0  0  0  0
  -27.3020  -27.2570   20.4020 C   0  0  0  0  0  0  0  0  0  0  0  0
  -23.4470  -30.4170   21.6740 C   0  0  0  0  0  3  0  0  0  0  0  0
  -24.9230  -28.8340   20.3200 C   0  0  0  0  0  0  0  0  0  0  0  0
  -25.9860  -30.7450   21.5200 C   0  0  0  0  0  2  0  0  0  0  0  0
  -26.0800  -29.3510   20.9160 C   0  0  0  0  0  0  0  0  0  0  0  0
  -27.2740  -28.5750   20.9450 C   0  0  0  0  0  3  0  0  0  0  0  0
  -26.1160  -26.7820   19.7920 C   0  0  0  0  0  3  0  0  0  0  0  0
  -24.9410  -27.5510   19.7520 C   0  0  0  0  0  3  0  0  0  0  0  0
  -23.6840  -29.7020   20.3190 C   0  0  0  0  0  2  0  0  0  0  0  0
  -24.7020  -31.0270   22.2190 N   0  0  0  0  0  0  0  0  0  0  0  0
  -23.5320  -32.1560   23.8040 O   0  0  0  0  0  0  0  0  0  0  0  0
  -22.7720  -29.4270   22.6510 C   0  0  0  0  0  0  0  0  0  0  0  0
  -21.4520  -29.2310   22.4970 N   0  0  0  0  0  0  0  0  0  0  0  0
  -23.4360  -28.8320   23.5050 O   0  0  0  0  0  0  0  0  0  0  0  0
  -20.9770  -29.7590   21.7780 H   0  0  0  0  0  0  0  0  0  0  0  0
  -18.0780  -28.0100   22.9320 C   0  0  0  0  0  0  0  0  0  0  0  0
  -20.6210  -28.3150   23.2780 C   0  0  0  0  0  3  0  0  0  0  0  0
  -20.7610  -26.8620   22.7690 C   0  0  0  0  0  2  0  0  0  0  0  0
  -19.6990  -26.4830   21.7310 C   0  0  0  0  0  2  0  0  0  0  0  0
  -18.2950  -26.6360   22.3220 C   0  0  0  0  0  2  0  0  0  0  0  0
  -19.1710  -28.8050   23.3670 C   0  0  0  0  0  0  0  0  0  0  0  0
  -18.9160  -30.0880   23.8960 C   0  0  0  0  0  3  0  0  0  0  0  0
  -17.6000  -30.5780   23.9960 C   0  0  0  0  0  3  0  0  0  0  0  0
  -16.5210  -29.7810   23.5800 C   0  0  0  0  0  3  0  0  0  0  0  0
  -16.7590  -28.4990   23.0520 C   0  0  0  0  0  3  0  0  0  0  0  0
  -25.8960  -32.5140   23.9180 C   0  0  0  0  0  3  0  0  0  0  0  0
  -26.4010  -31.7710   25.2160 C   0  0  1  0  0  0  0  0  0  0  0  0
  -25.2960  -31.5450   26.2740 C   0  0  0  0  0  1  0  0  0  0  0  0
  -27.0000  -30.3920   24.8580 C   0  0  0  0  0  1  0  0  0  0  0  0
  -27.5360  -32.5880   25.8790 C   0  0  0  0  0  1  0  0  0  0  0  0
  -25.5750  -33.9170   24.2160 N   0  0  0  0  0  0  0  0  0  0  0  0
  -25.9100  -34.9560   23.4390 C   0  0  0  0  0  0  0  0  0  0  0  0
  -26.5910  -34.8350   22.4170 O   0  0  0  0  0  0  0  0  0  0  0  0
  -24.9710  -34.0830   25.0080 H   0  0  0  0  0  0  0  0  0  0  0  0
  -24.1750  -36.7320   23.0330 C   0  0  0  0  0  1  0  0  0  0  0  0
  -25.4110  -36.3500   23.8630 C   0  0  0  0  0  3  0  0  0  0  0  0
  -27.5310  -37.2650   24.6980 C   0  0  0  0  0  1  0  0  0  0  0  0
  -26.4380  -37.4070   23.7400 N   0  0  0  0  0  0  0  0  0  0  0  0
  -26.0240  -38.3280   23.8650 H   0  0  0  0  0  0  0  0  0  0  0  0
  1  3  1  0
  1  4  1  0
  1  6  1  0
  3 50  1  0
  3  2  1  0
  4  7  1  0
  4  2  1  0
  5  7  1  0
  5 11  1  0
  6  5  1  0
  7  8  1  0
  9  7  1  0
 11 10  1  0
 12 20  1  0
 13 18  1  0
 14 15  1  0
 14 13  1  0
 16 15  1  0
 16 25  1  0
 16 17  1  0
 18 12  1  0
 18 17  1  0
 19 12  2  0
 20 21  1  0
 20 11  1  0
 22 23  2  0
 23 42  1  0
 24 23  1  0
 24 27  1  0
 25 26  1  0
 25 22  1  0
 26 24  2  0
 27 28  1  0
 28 29  2  0
 30 33  1  0
 30 29  1  0
 31 30  2  0
 32 31  1  0
 32 27  2  0
 33 34  1  0
 34 35  1  0
 35 36  2  0
 37 36  1  0
 37 41  1  0
 38 37  2  0
 39 34  2  0
 39 38  1  0
 40 39  1  0
 42 43  1  0
 43 46  1  0
 43 45  1  0
 44 42  2  0
 47 48  1  0
 47 22  1  0
 49 47  1  0
 50 51  1  0
 52 51  2  0
 52 53  1  0
 54 65  2  0
 55 53  1  0
 55 60  1  0
 56 64  1  0
 56 66  1  0
 57 59  1  0
 58 64  1  0
 59 60  2  0
 59 58  1  0
 61 55  2  0
 62 61  1  0
 62 57  2  0
 63 57  1  0
 63 56  1  0
 64 54  1  0
 66 68  2  0
 67 66  1  0
 69 67  1  0
 70 79  2  0
 70 75  1  0
 71 67  1  0
 71 75  1  0
 72 71  1  0
 73 74  1  0
 73 72  1  0
 74 70  1  0
 75 76  2  0
 76 77  1  0
 78 77  2  0
 79 78  1  0
 80 54  1  0
 80 85  1  0
 80 81  1  0
 81 84  1  1
 81 82  1  0
 83 81  1  0
 85 88  1  0
 86 90  1  0
 86 85  1  0
 87 86  2  0
 90 89  1  0
 92 90  1  0
 92 93  1  0
 92 91  1  0
M  ISO  4  12 100  20 100  52 101  53 101
M  END
>  <TORSDO>  (62) 
F 20

>  <SCORE>  (62) 
-13.412

>  <name>  (62) 
61

>  <ligand_id>  (62) 
61

>  <original_smiles>  (62) 
[H]c1c([H])c([H])c2c(c1[H])C([H])([H])C([H])([H])C([H])([H])C2([H])N([H])C(=O)C1([H])N(C(=O)C([H])(N([H])C(=O)C([H])(N([H])C([H])([H])[H])C([H])([H])[H])C(C([H])([H])[H])(C([H])([H])[H])C([H])([H])[H])C([H])([H])c2c([H])c(OC([H])([H])C([H])([H])C([H])([H])C3([H])C4=NC([H])(C([H])(N([H])C(=O)N5C([H])([H])C([H])([H])C([H])([H])C([H])(n6nc(-c7c([H])c([H])c(Oc8c([H])c([H])c(F)c([H])c8F)c([H])c7[H])c(C(=O)N([H])[H])c6N([H])[H])C5([H])[H])C([H])([H])[H])[N+]([H])([H])C4([H])C3([H])[H])c([H])c([H])c2C1([H])[H]

>  <smiles>  (62) 
[H]c1c([H])c([H])c2c(c1[H])C([H])([H])C([H])([H])C([H])([H])C2([H])N([H])C(=O)C1([H])N(C(=O)C([H])(N([H])C(=O)C([H])(N([H])C([H])([H])[H])C([H])([H])[H])C(C([H])([H])[H])(C([H])([H])[H])C([H])([H])[H])C([H])([H])c2c([H])c(OC([H])([H])C([H])([H])C([H])([H])C3([H])C4=NC([H])(C([H])(N([H])C(=O)N5C([H])([H])C([H])([H])C([H])([H])C([H])(n6nc(-c7c([H])c([H])c(Oc8c([H])c([H])c(F)c([H])c8F)c([H])c7[H])c(C(=O)N([H])[H])c6N([H])[H])C5([H])[H])C([H])([H])[H])[N+]([H])([H])C4([H])C3([H])[H])c([H])c([H])c2C1([H])[H]

$$$$
62:0:0
     RDKit          3D

 90 99  0  0  1  0  0  0  0  0999 V2000
  -27.3550  -22.3700   21.6540 C   0  0  0  0  0  2  0  0  0  0  0  0
  -28.0480  -20.2750   20.2530 C   0  0  0  0  0  2  0  0  0  0  0  0
  -27.9360  -20.9800   21.5740 C   0  0  0  0  0  3  0  0  0  0  0  0
  -28.8580  -22.1770   21.6140 C   0  0  0  0  0  3  0  0  0  0  0  0
  -29.3450  -20.8120   19.6430 C   0  0  0  0  0  3  0  0  0  0  0  0
  -29.5200  -22.2670   20.2860 N   0  0  1  0  0  4  0  0  0  0  0  0
  -30.5080  -22.3510   20.4790 H   0  0  0  0  0  0  0  0  0  0  0  0
  -30.4820  -19.5410   19.5550 C   0  0  0  0  0  2  0  0  0  0  0  0
  -30.7430  -18.1720   20.5260 C   0  0  0  0  0  2  0  0  0  0  0  0
  -31.3860  -15.4550   20.1890 C   0  0  0  0  0  0  0  0  0  0  0  0
  -31.2830  -13.0520   19.3660 C   0  0  0  0  0  2  0  0  0  0  0  0
  -30.3640  -12.9310   18.1270 C   0  0  0  0  0  2  0  0  0  0  0  0
  -28.8900  -12.7630   18.5470 C   0  0  0  0  0  2  0  0  0  0  0  0
  -28.4710  -13.7610   19.6570 C   0  0  0  0  0  3  0  0  0  0  0  0
  -29.5080  -13.8270   20.7960 C   0  0  0  0  0  2  0  0  0  0  0  0
  -30.7880  -14.1980   20.1770 N   0  0  0  0  0  0  0  0  0  0  0  0
  -32.6090  -15.5070   20.0270 O   0  0  0  0  0  0  0  0  0  0  0  0
  -30.5770  -16.6300   20.1750 N   0  0  0  0  0  0  0  0  0  0  0  0
  -29.6040  -16.3710   20.1170 H   0  0  0  0  0  0  0  0  0  0  0  0
  -26.1110  -14.4200   20.3940 C   0  0  0  0  0  0  0  0  0  0  0  0
  -25.0160  -13.6810   20.7450 C   0  0  0  0  0  0  0  0  0  0  0  0
  -25.4310  -12.3140   20.7000 C   0  0  0  0  0  0  0  0  0  0  0  0
  -27.1220  -13.5080   20.1470 N   0  0  0  0  0  0  0  0  0  0  0  0
  -26.7220  -12.2350   20.4000 N   0  0  0  0  0  0  0  0  0  0  0  0
  -24.6570  -11.0770   20.8660 C   0  0  0  0  0  0  0  0  0  0  0  0
  -24.9810  -10.1300   21.8620 C   0  0  0  0  0  3  0  0  0  0  0  0
  -24.2080   -8.9580   22.0130 C   0  0  0  0  0  3  0  0  0  0  0  0
  -23.0960   -8.7270   21.1680 C   0  0  0  0  0  0  0  0  0  0  0  0
  -22.7920   -9.6610   20.1630 C   0  0  0  0  0  3  0  0  0  0  0  0
  -23.5660  -10.8240   20.0100 C   0  0  0  0  0  3  0  0  0  0  0  0
  -22.3040   -7.6050   21.2250 O   0  0  0  0  0  0  0  0  0  0  0  0
  -22.0340   -6.9760   22.4140 C   0  0  0  0  0  0  0  0  0  0  0  0
  -21.4020   -7.6450   23.4850 C   0  0  0  0  0  3  0  0  0  0  0  0
  -21.0810   -6.9420   24.6630 C   0  0  0  0  0  3  0  0  0  0  0  0
  -21.3810   -5.5700   24.7690 C   0  0  0  0  0  0  0  0  0  0  0  0
  -22.0030   -4.9010   23.7010 C   0  0  0  0  0  3  0  0  0  0  0  0
  -22.3270   -5.6020   22.5260 C   0  0  0  0  0  0  0  0  0  0  0  0
  -22.9080   -4.9470   21.4920 F   0  0  0  0  0  0  0  0  0  0  0  0
  -21.0650   -4.8920   25.8970 F   0  0  0  0  0  0  0  0  0  0  0  0
  -23.6350  -14.2050   21.0090 C   0  0  0  0  0  0  0  0  0  0  0  0
  -22.8820  -13.5410   21.8780 N   0  0  0  0  0  0  0  0  0  0  0  0
  -23.2330  -15.2410   20.4790 O   0  0  0  0  0  0  0  0  0  0  0  0
  -23.2200  -12.7010   22.3260 H   0  0  0  0  0  0  0  0  0  0  0  0
  -21.9550  -13.8750   22.1000 H   0  0  0  0  0  0  0  0  0  0  0  0
  -26.3240  -15.7880   20.2350 N   0  0  0  0  0  0  0  0  0  0  0  0
  -25.5730  -16.4610   20.3480 H   0  0  0  0  0  0  0  0  0  0  0  0
  -27.1710  -16.2020   19.8710 H   0  0  0  0  0  0  0  0  0  0  0  0
  -29.1420  -23.6420   19.5530 C   0  0  0  0  0  2  0  0  0  0  0  0
  -28.6640  -25.0680   20.3510 C   0  0  0  0  0  2  0  0  0  0  0  0
  -28.6900  -26.5640   19.8990 O   0  0  0  0  0  0  0  0  0  0  0  0
  -24.7150  -31.8390   23.2540 C   0  0  0  0  0  0  0  0  0  0  0  0
  -27.5590  -27.4550   19.9750 C   0  0  0  0  0  0  0  0  0  0  0  0
  -23.6010  -30.4860   21.5210 C   0  0  0  0  0  3  0  0  0  0  0  0
  -25.1370  -29.0670   20.0270 C   0  0  0  0  0  0  0  0  0  0  0  0
  -26.1390  -30.8910   21.3970 C   0  0  0  0  0  2  0  0  0  0  0  0
  -26.2900  -29.5430   20.6680 C   0  0  0  0  0  0  0  0  0  0  0  0
  -27.5020  -28.7570   20.6180 C   0  0  0  0  0  3  0  0  0  0  0  0
  -26.3730  -27.0700   19.3160 C   0  0  0  0  0  3  0  0  0  0  0  0
  -25.1910  -27.8430   19.3380 C   0  0  0  0  0  3  0  0  0  0  0  0
  -23.8670  -29.8990   20.1090 C   0  0  0  0  0  2  0  0  0  0  0  0
  -24.8360  -31.0930   22.1140 N   0  0  0  0  0  0  0  0  0  0  0  0
  -23.6120  -32.0350   23.7860 O   0  0  0  0  0  0  0  0  0  0  0  0
  -22.9660  -29.3920   22.4150 C   0  0  0  0  0  0  0  0  0  0  0  0
  -21.6540  -29.1480   22.2490 N   0  0  0  0  0  0  0  0  0  0  0  0
  -23.6590  -28.7640   23.2210 O   0  0  0  0  0  0  0  0  0  0  0  0
  -21.1500  -29.7100   21.5790 H   0  0  0  0  0  0  0  0  0  0  0  0
  -18.3440  -27.7180   22.6040 C   0  0  0  0  0  0  0  0  0  0  0  0
  -20.8750  -28.1240   22.9500 C   0  0  0  0  0  3  0  0  0  0  0  0
  -21.0790  -26.7320   22.3080 C   0  0  0  0  0  2  0  0  0  0  0  0
  -20.0240  -26.3940   21.2510 C   0  0  0  0  0  2  0  0  0  0  0  0
  -18.6210  -26.4200   21.8650 C   0  0  0  0  0  2  0  0  0  0  0  0
  -19.4020  -28.5260   23.1000 C   0  0  0  0  0  0  0  0  0  0  0  0
  -19.0890  -29.7400   23.7510 C   0  0  0  0  0  3  0  0  0  0  0  0
  -17.7500  -30.1450   23.9120 C   0  0  0  0  0  3  0  0  0  0  0  0
  -16.7080  -29.3350   23.4310 C   0  0  0  0  0  3  0  0  0  0  0  0
  -17.0040  -28.1230   22.7830 C   0  0  0  0  0  3  0  0  0  0  0  0
  -25.9530  -32.4990   23.9340 C   0  0  0  0  0  3  0  0  0  0  0  0
  -26.4380  -31.7270   25.2230 C   0  0  1  0  0  0  0  0  0  0  0  0
  -25.3060  -31.4320   26.2360 C   0  0  0  0  0  1  0  0  0  0  0  0
  -27.0900  -30.3780   24.8430 C   0  0  0  0  0  1  0  0  0  0  0  0
  -27.5280  -32.5520   25.9470 C   0  0  0  0  0  1  0  0  0  0  0  0
  -25.5950  -33.8860   24.2720 N   0  0  0  0  0  0  0  0  0  0  0  0
  -25.9260  -34.9610   23.5450 C   0  0  0  0  0  0  0  0  0  0  0  0
  -26.6320  -34.8920   22.5350 O   0  0  0  0  0  0  0  0  0  0  0  0
  -24.9710  -34.0130   25.0550 H   0  0  0  0  0  0  0  0  0  0  0  0
  -24.1620  -36.7190   23.1740 C   0  0  0  0  0  1  0  0  0  0  0  0
  -25.3910  -36.3300   24.0110 C   0  0  0  0  0  3  0  0  0  0  0  0
  -27.4770  -37.2600   24.9160 C   0  0  0  0  0  1  0  0  0  0  0  0
  -26.3990  -37.4110   23.9420 N   0  0  0  0  0  0  0  0  0  0  0  0
  -25.9650  -38.3180   24.0890 H   0  0  0  0  0  0  0  0  0  0  0  0
  3  2  1  0
  3  4  1  0
  3  1  1  0
  4  1  1  0
  5  8  1  0
  5  2  1  0
  5  6  1  0
  6  7  1  1
  6  4  1  0
  8  9  1  0
 11 16  1  0
 12 13  1  0
 12 11  1  0
 14 13  1  0
 14 23  1  0
 14 15  1  0
 16 10  1  0
 16 15  1  0
 17 10  2  0
 18 10  1  0
 18  9  1  0
 19 18  1  0
 20 21  2  0
 21 40  1  0
 22 21  1  0
 22 25  1  0
 23 20  1  0
 23 24  1  0
 24 22  2  0
 25 26  1  0
 26 27  2  0
 28 31  1  0
 28 27  1  0
 29 28  2  0
 30 29  1  0
 30 25  2  0
 31 32  1  0
 32 37  2  0
 32 33  1  0
 33 34  2  0
 34 35  1  0
 35 39  1  0
 36 35  2  0
 37 36  1  0
 38 37  1  0
 40 41  1  0
 41 44  1  0
 41 43  1  0
 42 40  2  0
 45 46  1  0
 45 20  1  0
 47 45  1  0
 48  6  1  0
 48 49  1  0
 50 52  1  0
 50 49  1  0
 51 62  2  0
 52 57  1  0
 53 61  1  0
 53 63  1  0
 54 60  1  0
 54 56  1  0
 55 61  1  0
 56 55  1  0
 57 56  2  0
 58 59  1  0
 58 52  2  0
 59 54  2  0
 60 53  1  0
 61 51  1  0
 63 65  2  0
 64 63  1  0
 66 64  1  0
 67 76  2  0
 67 72  1  0
 68 64  1  0
 68 72  1  0
 69 68  1  0
 70 71  1  0
 70 69  1  0
 71 67  1  0
 72 73  2  0
 73 74  1  0
 75 74  2  0
 76 75  1  0
 77 51  1  0
 77 82  1  0
 77 78  1  0
 78 81  1  1
 78 79  1  0
 80 78  1  0
 82 85  1  0
 83 87  1  0
 83 82  1  0
 84 83  2  0
 87 86  1  0
 89 87  1  0
 89 90  1  0
 89 88  1  0
M  ISO  4  10 100  18 100  49 101  50 101
M  END
>  <TORSDO>  (63) 
F 20

>  <SCORE>  (63) 
-13.195

>  <name>  (63) 
62

>  <ligand_id>  (63) 
62

>  <original_smiles>  (63) 
[H]c1c([H])c([H])c2c(c1[H])C([H])([H])C([H])([H])C([H])([H])C2([H])N([H])C(=O)C1([H])N(C(=O)C([H])(N([H])C(=O)C([H])(N([H])C([H])([H])[H])C([H])([H])[H])C(C([H])([H])[H])(C([H])([H])[H])C([H])([H])[H])C([H])([H])c2c([H])c(OC([H])([H])C([H])([H])[N+]3([H])C([H])(C([H])([H])C([H])([H])N([H])C(=O)N4C([H])([H])C([H])([H])C([H])([H])C([H])(n5nc(-c6c([H])c([H])c(Oc7c([H])c([H])c(F)c([H])c7F)c([H])c6[H])c(C(=O)N([H])[H])c5N([H])[H])C4([H])[H])C([H])([H])C4([H])C([H])([H])C43[H])c([H])c([H])c2C1([H])[H]

>  <smiles>  (63) 
[H]c1c([H])c([H])c2c(c1[H])C([H])([H])C([H])([H])C([H])([H])C2([H])N([H])C(=O)C1([H])N(C(=O)C([H])(N([H])C(=O)C([H])(N([H])C([H])([H])[H])C([H])([H])[H])C(C([H])([H])[H])(C([H])([H])[H])C([H])([H])[H])C([H])([H])c2c([H])c(OC([H])([H])C([H])([H])[N+]3([H])C([H])(C([H])([H])C([H])([H])N([H])C(=O)N4C([H])([H])C([H])([H])C([H])([H])C([H])(n5nc(-c6c([H])c([H])c(Oc7c([H])c([H])c(F)c([H])c7F)c([H])c6[H])c(C(=O)N([H])[H])c5N([H])[H])C4([H])[H])C([H])([H])C4([H])C([H])([H])C43[H])c([H])c([H])c2C1([H])[H]

$$$$
63:0:0
     RDKit          3D

 92101  0  0  1  0  0  0  0  0999 V2000
  -28.4900  -22.6020   19.9450 C   0  0  0  0  0  3  0  0  0  0  0  0
  -31.3200  -20.7820   19.3010 C   0  0  0  0  0  2  0  0  0  0  0  0
  -30.2340  -19.8480   18.7260 C   0  0  0  0  0  2  0  0  0  0  0  0
  -30.7090  -21.4680   20.5440 C   0  0  0  0  0  2  0  0  0  0  0  0
  -29.2630  -19.6150   19.8980 C   0  0  0  0  0  3  0  0  0  0  0  0
  -29.2570  -21.1900   20.5120 N   0  0  2  0  0  4  0  0  0  0  0  0
  -28.9490  -21.0950   21.4690 H   0  0  0  0  0  0  0  0  0  0  0  0
  -30.4410  -15.3720   20.3440 C   0  0  0  0  0  0  0  0  0  0  0  0
  -30.4490  -12.9260   19.4300 C   0  0  0  0  0  2  0  0  0  0  0  0
  -29.5410  -12.6660   18.2020 C   0  0  0  0  0  2  0  0  0  0  0  0
  -28.0940  -12.3760   18.6390 C   0  0  0  0  0  2  0  0  0  0  0  0
  -27.6160  -13.3480   19.7470 C   0  0  0  0  0  3  0  0  0  0  0  0
  -28.6570  -13.5340   20.8700 C   0  0  0  0  0  2  0  0  0  0  0  0
  -29.8670  -14.0700   20.2230 N   0  0  0  0  0  0  0  0  0  0  0  0
  -31.6780  -15.3330   20.2680 O   0  0  0  0  0  0  0  0  0  0  0  0
  -29.9420  -18.1070   20.5550 C   0  0  0  0  0  0  0  0  0  0  0  0
  -29.6870  -16.6640   20.2690 N   0  0  0  0  0  0  0  0  0  0  0  0
  -30.8410  -18.3190   21.3730 O   0  0  0  0  0  0  0  0  0  0  0  0
  -28.7680  -16.5240   19.8800 H   0  0  0  0  0  0  0  0  0  0  0  0
  -25.2370  -13.8890   20.4780 C   0  0  0  0  0  0  0  0  0  0  0  0
  -24.1780  -13.1060   20.8380 C   0  0  0  0  0  0  0  0  0  0  0  0
  -24.6560  -11.7600   20.8230 C   0  0  0  0  0  0  0  0  0  0  0  0
  -26.2900  -13.0210   20.2520 N   0  0  0  0  0  0  0  0  0  0  0  0
  -25.9530  -11.7350   20.5300 N   0  0  0  0  0  0  0  0  0  0  0  0
  -23.9370  -10.4930   21.0090 C   0  0  0  0  0  0  0  0  0  0  0  0
  -24.3520   -9.5400   21.9650 C   0  0  0  0  0  3  0  0  0  0  0  0
  -23.6290   -8.3400   22.1390 C   0  0  0  0  0  3  0  0  0  0  0  0
  -22.4770   -8.0840   21.3590 C   0  0  0  0  0  0  0  0  0  0  0  0
  -22.0820   -9.0250   20.3920 C   0  0  0  0  0  3  0  0  0  0  0  0
  -22.8060  -10.2170   20.2160 C   0  0  0  0  0  3  0  0  0  0  0  0
  -21.7290   -6.9350   21.4420 O   0  0  0  0  0  0  0  0  0  0  0  0
  -21.6440   -6.2140   22.6060 C   0  0  0  0  0  0  0  0  0  0  0  0
  -21.1550   -6.7850   23.8010 C   0  0  0  0  0  3  0  0  0  0  0  0
  -21.0180   -5.9900   24.9570 C   0  0  0  0  0  3  0  0  0  0  0  0
  -21.3600   -4.6250   24.9170 C   0  0  0  0  0  0  0  0  0  0  0  0
  -21.8410   -4.0540   23.7260 C   0  0  0  0  0  3  0  0  0  0  0  0
  -21.9790   -4.8460   22.5730 C   0  0  0  0  0  0  0  0  0  0  0  0
  -22.4230   -4.2860   21.4220 F   0  0  0  0  0  0  0  0  0  0  0  0
  -21.2220   -3.8590   26.0250 F   0  0  0  0  0  0  0  0  0  0  0  0
  -22.7720  -13.5730   21.0780 C   0  0  0  0  0  0  0  0  0  0  0  0
  -22.0330  -12.8770   21.9330 N   0  0  0  0  0  0  0  0  0  0  0  0
  -22.3390  -14.5920   20.5410 O   0  0  0  0  0  0  0  0  0  0  0  0
  -22.3950  -12.0540   22.3910 H   0  0  0  0  0  0  0  0  0  0  0  0
  -21.0880  -13.1730   22.1360 H   0  0  0  0  0  0  0  0  0  0  0  0
  -25.3900  -15.2610   20.2930 N   0  0  0  0  0  0  0  0  0  0  0  0
  -24.6140  -15.9060   20.3880 H   0  0  0  0  0  0  0  0  0  0  0  0
  -26.2350  -15.7030   19.9580 H   0  0  0  0  0  0  0  0  0  0  0  0
  -28.0430  -22.2010   17.3460 C   0  0  0  0  0  2  0  0  0  0  0  0
  -27.8760  -23.6700   17.6180 C   0  0  0  0  0  2  0  0  0  0  0  0
  -28.8200  -22.8500   18.4750 C   0  0  0  0  0  3  0  0  0  0  0  0
  -28.2810  -24.2530   20.7040 C   0  0  0  0  0  2  0  0  0  0  0  0
  -28.2960  -25.8720   20.2810 O   0  0  0  0  0  0  0  0  0  0  0  0
  -24.6480  -31.8660   23.2460 C   0  0  0  0  0  0  0  0  0  0  0  0
  -27.2490  -26.9440   20.3100 C   0  0  0  0  0  0  0  0  0  0  0  0
  -23.4800  -30.4600   21.5980 C   0  0  0  0  0  3  0  0  0  0  0  0
  -24.9490  -28.8370   20.2160 C   0  0  0  0  0  0  0  0  0  0  0  0
  -26.0500  -30.6640   21.4900 C   0  0  0  0  0  2  0  0  0  0  0  0
  -26.1300  -29.2460   20.8480 C   0  0  0  0  0  0  0  0  0  0  0  0
  -27.2770  -28.3250   20.8610 C   0  0  0  0  0  3  0  0  0  0  0  0
  -26.0300  -26.6880   19.6430 C   0  0  0  0  0  3  0  0  0  0  0  0
  -24.9250  -27.5780   19.5950 C   0  0  0  0  0  3  0  0  0  0  0  0
  -23.7320  -29.7640   20.2320 C   0  0  0  0  0  2  0  0  0  0  0  0
  -24.7470  -31.0250   22.1650 N   0  0  0  0  0  0  0  0  0  0  0  0
  -23.5500  -32.1580   23.7470 O   0  0  0  0  0  0  0  0  0  0  0  0
  -22.7690  -29.4730   22.5590 C   0  0  0  0  0  0  0  0  0  0  0  0
  -21.4370  -29.3200   22.4250 N   0  0  0  0  0  0  0  0  0  0  0  0
  -23.4230  -28.8410   23.3930 O   0  0  0  0  0  0  0  0  0  0  0  0
  -20.9640  -29.8790   21.7300 H   0  0  0  0  0  0  0  0  0  0  0  0
  -18.0380  -28.1520   22.9250 C   0  0  0  0  0  0  0  0  0  0  0  0
  -20.6020  -28.3880   23.1910 C   0  0  0  0  0  3  0  0  0  0  0  0
  -20.6870  -26.9580   22.6060 C   0  0  0  0  0  2  0  0  0  0  0  0
  -19.5820  -26.6540   21.5900 C   0  0  0  0  0  2  0  0  0  0  0  0
  -18.2020  -26.8070   22.2360 C   0  0  0  0  0  2  0  0  0  0  0  0
  -19.1650  -28.9000   23.3590 C   0  0  0  0  0  0  0  0  0  0  0  0
  -18.9570  -30.1570   23.9680 C   0  0  0  0  0  3  0  0  0  0  0  0
  -17.6560  -30.6660   24.1440 C   0  0  0  0  0  3  0  0  0  0  0  0
  -16.5450  -29.9140   23.7240 C   0  0  0  0  0  3  0  0  0  0  0  0
  -16.7370  -28.6590   23.1220 C   0  0  0  0  0  3  0  0  0  0  0  0
  -25.9070  -32.5140   23.8970 C   0  0  0  0  0  3  0  0  0  0  0  0
  -26.3900  -31.7570   25.1960 C   0  0  1  0  0  0  0  0  0  0  0  0
  -25.2700  -31.5330   26.2400 C   0  0  0  0  0  1  0  0  0  0  0  0
  -26.9810  -30.3740   24.8430 C   0  0  0  0  0  1  0  0  0  0  0  0
  -27.5260  -32.5560   25.8770 C   0  0  0  0  0  1  0  0  0  0  0  0
  -25.5820  -33.9150   24.2210 N   0  0  0  0  0  0  0  0  0  0  0  0
  -25.9300  -34.9760   23.4800 C   0  0  0  0  0  0  0  0  0  0  0  0
  -26.6200  -34.8780   22.4630 O   0  0  0  0  0  0  0  0  0  0  0  0
  -24.9700  -34.0640   25.0100 H   0  0  0  0  0  0  0  0  0  0  0  0
  -24.2180  -36.7840   23.1060 C   0  0  0  0  0  1  0  0  0  0  0  0
  -25.4400  -36.3650   23.9390 C   0  0  0  0  0  3  0  0  0  0  0  0
  -27.5580  -37.2400   24.8250 C   0  0  0  0  0  1  0  0  0  0  0  0
  -26.4780  -37.4150   23.8570 N   0  0  0  0  0  0  0  0  0  0  0  0
  -26.0720  -38.3360   23.9970 H   0  0  0  0  0  0  0  0  0  0  0  0
  1  6  1  0
  1 51  1  0
  2  4  1  0
  3  2  1  0
  3  5  1  0
  5  6  1  0
  5 16  1  0
  6  4  1  0
  6  7  1  1
  9 14  1  0
 10 11  1  0
 10  9  1  0
 12 11  1  0
 12 23  1  0
 12 13  1  0
 14  8  1  0
 14 13  1  0
 15  8  2  0
 16 18  2  0
 17  8  1  0
 17 16  1  0
 19 17  1  0
 20 21  2  0
 21 40  1  0
 22 21  1  0
 22 25  1  0
 23 20  1  0
 23 24  1  0
 24 22  2  0
 25 26  1  0
 26 27  2  0
 28 31  1  0
 28 27  1  0
 29 28  2  0
 30 29  1  0
 30 25  2  0
 31 32  1  0
 32 33  1  0
 33 34  2  0
 35 34  1  0
 35 39  1  0
 36 35  2  0
 37 32  2  0
 37 36  1  0
 38 37  1  0
 40 41  1  0
 41 44  1  0
 41 43  1  0
 42 40  2  0
 45 46  1  0
 45 20  1  0
 47 45  1  0
 48 49  1  0
 48 50  1  0
 49 50  1  0
 50  1  1  0
 52 54  1  0
 52 51  1  0
 53 64  2  0
 54 59  1  0
 55 63  1  0
 55 65  1  0
 56 62  1  0
 56 58  1  0
 57 63  1  0
 58 59  2  0
 58 57  1  0
 60 54  2  0
 61 60  1  0
 61 56  2  0
 62 55  1  0
 63 53  1  0
 65 67  2  0
 66 65  1  0
 68 66  1  0
 69 78  2  0
 69 74  1  0
 70 66  1  0
 70 74  1  0
 71 70  1  0
 72 73  1  0
 72 71  1  0
 73 69  1  0
 74 75  2  0
 75 76  1  0
 77 76  2  0
 78 77  1  0
 79 53  1  0
 79 84  1  0
 79 80  1  0
 80 83  1  1
 80 81  1  0
 82 80  1  0
 84 87  1  0
 85 89  1  0
 85 84  1  0
 86 85  2  0
 89 88  1  0
 91 89  1  0
 91 92  1  0
 91 90  1  0
M  ISO  4   8 100  17 100  51 101  52 101
M  END
>  <TORSDO>  (64) 
F 19

>  <SCORE>  (64) 
-16.264

>  <name>  (64) 
63

>  <ligand_id>  (64) 
63

>  <original_smiles>  (64) 
[H]c1c([H])c([H])c2c(c1[H])C([H])([H])C([H])([H])C([H])([H])C2([H])N([H])C(=O)C1([H])N(C(=O)C([H])(N([H])C(=O)C([H])(N([H])C([H])([H])[H])C([H])([H])[H])C(C([H])([H])[H])(C([H])([H])[H])C([H])([H])[H])C([H])([H])c2c([H])c(OC([H])([H])C([H])(C3([H])C([H])([H])C3([H])[H])[N+]3([H])C([H])([H])C([H])([H])C([H])([H])C3([H])C(=O)N([H])C(=O)N3C([H])([H])C([H])([H])C([H])([H])C([H])(n4nc(-c5c([H])c([H])c(Oc6c([H])c([H])c(F)c([H])c6F)c([H])c5[H])c(C(=O)N([H])[H])c4N([H])[H])C3([H])[H])c([H])c([H])c2C1([H])[H]

>  <smiles>  (64) 
[H]c1c([H])c([H])c2c(c1[H])C([H])([H])C([H])([H])C([H])([H])C2([H])N([H])C(=O)C1([H])N(C(=O)C([H])(N([H])C(=O)C([H])(N([H])C([H])([H])[H])C([H])([H])[H])C(C([H])([H])[H])(C([H])([H])[H])C([H])([H])[H])C([H])([H])c2c([H])c(OC([H])([H])C([H])(C3([H])C([H])([H])C3([H])[H])[N+]3([H])C([H])([H])C([H])([H])C([H])([H])C3([H])C(=O)N([H])C(=O)N3C([H])([H])C([H])([H])C([H])([H])C([H])(n4nc(-c5c([H])c([H])c(Oc6c([H])c([H])c(F)c([H])c6F)c([H])c5[H])c(C(=O)N([H])[H])c4N([H])[H])C3([H])[H])c([H])c([H])c2C1([H])[H]

$$$$
64:0:0
     RDKit          3D

 92102  0  0  1  0  0  0  0  0999 V2000
  -29.1010  -22.7940   19.3290 C   0  0  0  0  0  0  0  0  0  0  0  0
  -29.5620  -21.6470   19.8930 N   0  0  0  0  0  0  0  0  0  0  0  0
  -28.4930  -22.7550   18.2580 O   0  0  0  0  0  0  0  0  0  0  0  0
  -30.0580  -21.7010   20.7720 H   0  0  0  0  0  0  0  0  0  0  0  0
  -29.3430  -24.1810   20.0010 C   0  0  0  0  0  2  0  0  0  0  0  0
  -28.1910  -25.2020   19.7200 C   0  0  0  0  0  2  0  0  0  0  0  0
  -28.3410  -26.5810   20.1660 O   0  0  0  0  0  0  0  0  0  0  0  0
  -24.5930  -31.8800   23.2330 C   0  0  0  0  0  0  0  0  0  0  0  0
  -27.1940  -27.3770   20.1380 C   0  0  0  0  0  0  0  0  0  0  0  0
  -23.3760  -30.4900   21.5920 C   0  0  0  0  0  3  0  0  0  0  0  0
  -24.8170  -28.9480   20.1610 C   0  0  0  0  0  0  0  0  0  0  0  0
  -25.9150  -30.8130   21.4030 C   0  0  0  0  0  2  0  0  0  0  0  0
  -25.9870  -29.4430   20.7520 C   0  0  0  0  0  0  0  0  0  0  0  0
  -27.1770  -28.6680   20.7380 C   0  0  0  0  0  3  0  0  0  0  0  0
  -25.9960  -26.9240   19.5300 C   0  0  0  0  0  3  0  0  0  0  0  0
  -24.8190  -27.6910   19.5460 C   0  0  0  0  0  3  0  0  0  0  0  0
  -23.5830  -29.8210   20.2080 C   0  0  0  0  0  2  0  0  0  0  0  0
  -24.6450  -31.0780   22.1320 N   0  0  0  0  0  0  0  0  0  0  0  0
  -23.5130  -32.1590   23.7750 O   0  0  0  0  0  0  0  0  0  0  0  0
  -22.7190  -29.4670   22.5500 C   0  0  0  0  0  0  0  0  0  0  0  0
  -21.3930  -29.2970   22.4310 N   0  0  0  0  0  0  0  0  0  0  0  0
  -23.4010  -28.8340   23.3610 O   0  0  0  0  0  0  0  0  0  0  0  0
  -20.9010  -29.8660   21.7550 H   0  0  0  0  0  0  0  0  0  0  0  0
  -18.0110  -28.1320   22.9470 C   0  0  0  0  0  0  0  0  0  0  0  0
  -20.5740  -28.3610   23.2020 C   0  0  0  0  0  3  0  0  0  0  0  0
  -20.6560  -26.9310   22.6210 C   0  0  0  0  0  2  0  0  0  0  0  0
  -19.5440  -26.6260   21.6120 C   0  0  0  0  0  2  0  0  0  0  0  0
  -18.1680  -26.7840   22.2640 C   0  0  0  0  0  2  0  0  0  0  0  0
  -19.1400  -28.8790   23.3750 C   0  0  0  0  0  0  0  0  0  0  0  0
  -18.9380  -30.1430   23.9690 C   0  0  0  0  0  3  0  0  0  0  0  0
  -17.6410  -30.6590   24.1440 C   0  0  0  0  0  3  0  0  0  0  0  0
  -16.5260  -29.9080   23.7370 C   0  0  0  0  0  3  0  0  0  0  0  0
  -16.7120  -28.6470   23.1440 C   0  0  0  0  0  3  0  0  0  0  0  0
  -25.8830  -32.5030   23.8520 C   0  0  0  0  0  3  0  0  0  0  0  0
  -26.4030  -31.7240   25.1210 C   0  0  1  0  0  0  0  0  0  0  0  0
  -25.3160  -31.4900   26.1960 C   0  0  0  0  0  1  0  0  0  0  0  0
  -26.9770  -30.3470   24.7190 C   0  0  0  0  0  1  0  0  0  0  0  0
  -27.5610  -32.5120   25.7790 C   0  0  0  0  0  1  0  0  0  0  0  0
  -25.5840  -33.9020   24.1890 N   0  0  0  0  0  0  0  0  0  0  0  0
  -25.9100  -34.9540   23.4270 C   0  0  0  0  0  0  0  0  0  0  0  0
  -26.5680  -34.8500   22.3890 O   0  0  0  0  0  0  0  0  0  0  0  0
  -25.0080  -34.0600   25.0020 H   0  0  0  0  0  0  0  0  0  0  0  0
  -24.1800  -36.7460   23.0920 C   0  0  0  0  0  1  0  0  0  0  0  0
  -25.4270  -36.3430   23.8920 C   0  0  0  0  0  3  0  0  0  0  0  0
  -27.5750  -37.2200   24.6990 C   0  0  0  0  0  1  0  0  0  0  0  0
  -26.4610  -37.3950   23.7710 N   0  0  0  0  0  0  0  0  0  0  0  0
  -26.0580  -38.3150   23.9270 H   0  0  0  0  0  0  0  0  0  0  0  0
  -29.3830  -20.3110   19.2660 C   0  0  0  0  0  2  0  0  0  0  0  0
  -28.6600  -17.3920   18.8660 C   0  0  0  0  0  2  0  0  0  0  0  0
  -28.0350  -17.6610   20.0020 C   0  0  0  0  0  2  0  0  0  0  0  0
  -30.0970  -17.7030   19.2130 C   0  0  2  0  0  0  0  0  0  0  0  0
  -29.1740  -18.1010   20.8910 C   0  0  1  0  0  0  0  0  0  0  0  0
  -30.0160  -19.0670   19.9860 C   0  0  0  0  0  3  0  0  0  0  0  0
  -30.3210  -17.0660   20.6200 C   0  0  0  0  0  3  0  0  0  0  0  0
  -30.6550  -14.5540   20.3440 C   0  0  0  0  0  0  0  0  0  0  0  0
  -30.3600  -12.3610   19.2470 C   0  0  0  0  0  2  0  0  0  0  0  0
  -29.4050  -12.5340   18.0480 C   0  0  0  0  0  2  0  0  0  0  0  0
  -27.9360  -12.3980   18.4920 C   0  0  0  0  0  2  0  0  0  0  0  0
  -27.6030  -13.2520   19.7470 C   0  0  0  0  0  3  0  0  0  0  0  0
  -28.6730  -13.0660   20.8480 C   0  0  0  0  0  2  0  0  0  0  0  0
  -29.9850  -13.3660   20.2560 N   0  0  0  0  0  0  0  0  0  0  0  0
  -31.8050  -14.6940   19.9200 O   0  0  0  0  0  0  0  0  0  0  0  0
  -29.9260  -15.6270   20.7320 N   0  0  0  0  0  0  0  0  0  0  0  0
  -28.9860  -15.4460   21.0460 H   0  0  0  0  0  0  0  0  0  0  0  0
  -25.2120  -13.8640   20.4720 C   0  0  0  0  0  0  0  0  0  0  0  0
  -24.1450  -13.0980   20.8550 C   0  0  0  0  0  0  0  0  0  0  0  0
  -24.6030  -11.7440   20.8280 C   0  0  0  0  0  0  0  0  0  0  0  0
  -26.2550  -12.9800   20.2390 N   0  0  0  0  0  0  0  0  0  0  0  0
  -25.8920  -11.7000   20.5110 N   0  0  0  0  0  0  0  0  0  0  0  0
  -23.8720  -10.4870   21.0260 C   0  0  0  0  0  0  0  0  0  0  0  0
  -24.3120   -9.5140   21.9520 C   0  0  0  0  0  3  0  0  0  0  0  0
  -23.5790   -8.3230   22.1390 C   0  0  0  0  0  3  0  0  0  0  0  0
  -22.3950   -8.0920   21.3990 C   0  0  0  0  0  0  0  0  0  0  0  0
  -21.9740   -9.0530   20.4630 C   0  0  0  0  0  3  0  0  0  0  0  0
  -22.7070  -10.2370   20.2740 C   0  0  0  0  0  3  0  0  0  0  0  0
  -21.6370   -6.9510   21.4940 O   0  0  0  0  0  0  0  0  0  0  0  0
  -21.6040   -6.2010   22.6420 C   0  0  0  0  0  0  0  0  0  0  0  0
  -21.2120   -6.7530   23.8810 C   0  0  0  0  0  3  0  0  0  0  0  0
  -21.1260   -5.9300   25.0230 C   0  0  0  0  0  3  0  0  0  0  0  0
  -21.4240   -4.5590   24.9270 C   0  0  0  0  0  0  0  0  0  0  0  0
  -21.8110   -4.0060   23.6940 C   0  0  0  0  0  3  0  0  0  0  0  0
  -21.8970   -4.8250   22.5540 C   0  0  0  0  0  0  0  0  0  0  0  0
  -22.2490   -4.2830   21.3620 F   0  0  0  0  0  0  0  0  0  0  0  0
  -21.3360   -3.7660   26.0220 F   0  0  0  0  0  0  0  0  0  0  0  0
  -22.7520  -13.5850   21.1350 C   0  0  0  0  0  0  0  0  0  0  0  0
  -22.0260  -12.8950   22.0090 N   0  0  0  0  0  0  0  0  0  0  0  0
  -22.3140  -14.6110   20.6150 O   0  0  0  0  0  0  0  0  0  0  0  0
  -22.3920  -12.0640   22.4500 H   0  0  0  0  0  0  0  0  0  0  0  0
  -21.0940  -13.2030   22.2450 H   0  0  0  0  0  0  0  0  0  0  0  0
  -25.3780  -15.2300   20.2780 N   0  0  0  0  0  0  0  0  0  0  0  0
  -24.6060  -15.8820   20.3700 H   0  0  0  0  0  0  0  0  0  0  0  0
  -26.2070  -15.6470   19.8740 H   0  0  0  0  0  0  0  0  0  0  0  0
  1  2  1  0
  1  5  1  0
  2  4  1  0
  3  1  2  0
  6  5  1  0
  6  7  1  0
  8 19  2  0
  9  7  1  0
  9 14  1  0
 10 18  1  0
 10 20  1  0
 11 17  1  0
 11 13  1  0
 12 18  1  0
 13 12  1  0
 14 13  2  0
 15 16  1  0
 15  9  2  0
 16 11  2  0
 17 10  1  0
 18  8  1  0
 20 22  2  0
 21 20  1  0
 23 21  1  0
 24 33  2  0
 24 29  1  0
 25 21  1  0
 25 29  1  0
 26 25  1  0
 27 28  1  0
 27 26  1  0
 28 24  1  0
 29 30  2  0
 30 31  1  0
 32 31  2  0
 33 32  1  0
 34  8  1  0
 34 39  1  0
 34 35  1  0
 35 38  1  1
 35 36  1  0
 37 35  1  0
 39 42  1  0
 40 44  1  0
 40 39  1  0
 41 40  2  0
 44 43  1  0
 46 44  1  0
 46 47  1  0
 46 45  1  0
 48  2  1  0
 49 50  1  0
 51 49  1  1
 51 53  1  0
 51 54  1  0
 51 52  1  0
 52 50  1  6
 53 48  1  0
 53 52  1  0
 54 63  1  0
 54 52  1  0
 55 63  1  0
 56 61  1  0
 57 58  1  0
 57 56  1  0
 59 58  1  0
 59 68  1  0
 59 60  1  0
 61 55  1  0
 61 60  1  0
 62 55  2  0
 63 64  1  0
 65 66  2  0
 66 85  1  0
 67 66  1  0
 67 70  1  0
 68 65  1  0
 68 69  1  0
 69 67  2  0
 70 71  1  0
 71 72  2  0
 73 76  1  0
 73 72  1  0
 74 73  2  0
 75 74  1  0
 75 70  2  0
 76 77  1  0
 77 78  1  0
 78 79  2  0
 80 79  1  0
 80 84  1  0
 81 80  2  0
 82 77  2  0
 82 81  1  0
 83 82  1  0
 85 86  1  0
 86 89  1  0
 86 88  1  0
 87 85  2  0
 90 91  1  0
 90 65  1  0
 92 90  1  0
M  ISO  4   6 101   7 101  55 100  63 100
M  END
>  <TORSDO>  (65) 
F 20

>  <SCORE>  (65) 
-13.958

>  <name>  (65) 
64

>  <ligand_id>  (65) 
64

>  <original_smiles>  (65) 
[H]C1=C([H])C2([H])C([H])(N([H])C(=O)N3C([H])([H])C([H])([H])C([H])([H])C([H])(n4nc(-c5c([H])c([H])c(Oc6c([H])c([H])c(F)c([H])c6F)c([H])c5[H])c(C(=O)N([H])[H])c4N([H])[H])C3([H])[H])C1([H])C2([H])C([H])([H])N([H])C(=O)C([H])([H])C([H])([H])Oc1c([H])c([H])c2c(c1[H])C([H])([H])N(C(=O)C([H])(N([H])C(=O)C([H])(N([H])C([H])([H])[H])C([H])([H])[H])C(C([H])([H])[H])(C([H])([H])[H])C([H])([H])[H])C([H])(C(=O)N([H])C1([H])c3c([H])c([H])c([H])c([H])c3C([H])([H])C([H])([H])C1([H])[H])C2([H])[H]

>  <smiles>  (65) 
[H]C1=C([H])C2([H])C([H])(N([H])C(=O)N3C([H])([H])C([H])([H])C([H])([H])C([H])(n4nc(-c5c([H])c([H])c(Oc6c([H])c([H])c(F)c([H])c6F)c([H])c5[H])c(C(=O)N([H])[H])c4N([H])[H])C3([H])[H])C1([H])C2([H])C([H])([H])N([H])C(=O)C([H])([H])C([H])([H])Oc1c([H])c([H])c2c(c1[H])C([H])([H])N(C(=O)C([H])(N([H])C(=O)C([H])(N([H])C([H])([H])[H])C([H])([H])[H])C(C([H])([H])[H])(C([H])([H])[H])C([H])([H])[H])C([H])(C(=O)N([H])C1([H])c3c([H])c([H])c([H])c([H])c3C([H])([H])C([H])([H])C1([H])[H])C2([H])[H]

$$$$
65:0:0
     RDKit          3D

 91 99  0  0  1  0  0  0  0  0999 V2000
  -31.7260  -19.3960   21.2540 C   0  0  0  0  0  3  0  0  0  0  0  0
  -31.3410  -18.0640   21.0300 C   0  0  0  0  0  3  0  0  0  0  0  0
  -29.5560  -20.3740   20.5220 C   0  0  0  0  0  0  0  0  0  0  0  0
  -30.8860  -20.5160   21.0360 C   0  0  0  0  0  0  0  0  0  0  0  0
  -29.1850  -18.9210   20.3150 C   0  0  0  0  0  0  0  0  0  0  0  0
  -30.0560  -17.7260   20.5700 C   0  0  0  0  0  0  0  0  0  0  0  0
  -31.5070  -21.8600   21.3870 C   0  0  0  0  0  1  0  0  0  0  0  0
  -27.7970  -18.6160   19.7720 C   0  0  0  0  0  1  0  0  0  0  0  0
  -30.5060  -15.0240   20.3350 C   0  0  0  0  0  0  0  0  0  0  0  0
  -30.3800  -12.6830   19.3610 C   0  0  0  0  0  2  0  0  0  0  0  0
  -29.4380  -12.6300   18.1380 C   0  0  0  0  0  2  0  0  0  0  0  0
  -27.9840  -12.3940   18.5860 C   0  0  0  0  0  2  0  0  0  0  0  0
  -27.5730  -13.3220   19.7570 C   0  0  0  0  0  3  0  0  0  0  0  0
  -28.6340  -13.3450   20.8790 C   0  0  0  0  0  2  0  0  0  0  0  0
  -29.8980  -13.7690   20.2610 N   0  0  0  0  0  0  0  0  0  0  0  0
  -31.7130  -15.0640   20.0720 O   0  0  0  0  0  0  0  0  0  0  0  0
  -29.7290  -16.2200   20.4570 N   0  0  0  0  0  0  0  0  0  0  0  0
  -28.7430  -16.0170   20.5040 H   0  0  0  0  0  0  0  0  0  0  0  0
  -25.1950  -13.8820   20.5120 C   0  0  0  0  0  0  0  0  0  0  0  0
  -24.1390  -13.0980   20.8880 C   0  0  0  0  0  0  0  0  0  0  0  0
  -24.6130  -11.7510   20.8520 C   0  0  0  0  0  0  0  0  0  0  0  0
  -26.2420  -13.0110   20.2640 N   0  0  0  0  0  0  0  0  0  0  0  0
  -25.9020  -11.7250   20.5350 N   0  0  0  0  0  0  0  0  0  0  0  0
  -23.8960  -10.4820   21.0400 C   0  0  0  0  0  0  0  0  0  0  0  0
  -24.3340   -9.5150   21.9720 C   0  0  0  0  0  3  0  0  0  0  0  0
  -23.6140   -8.3140   22.1480 C   0  0  0  0  0  3  0  0  0  0  0  0
  -22.4440   -8.0700   21.3920 C   0  0  0  0  0  0  0  0  0  0  0  0
  -22.0250   -9.0250   20.4480 C   0  0  0  0  0  3  0  0  0  0  0  0
  -22.7460  -10.2180   20.2700 C   0  0  0  0  0  3  0  0  0  0  0  0
  -21.6940   -6.9210   21.4790 O   0  0  0  0  0  0  0  0  0  0  0  0
  -21.6470   -6.1800   22.6330 C   0  0  0  0  0  0  0  0  0  0  0  0
  -21.1860   -6.7250   23.8500 C   0  0  0  0  0  3  0  0  0  0  0  0
  -21.0870   -5.9090   24.9950 C   0  0  0  0  0  3  0  0  0  0  0  0
  -21.4380   -4.5470   24.9220 C   0  0  0  0  0  0  0  0  0  0  0  0
  -21.8910   -4.0010   23.7080 C   0  0  0  0  0  3  0  0  0  0  0  0
  -21.9920   -4.8150   22.5660 C   0  0  0  0  0  0  0  0  0  0  0  0
  -22.4090   -4.2780   21.3940 F   0  0  0  0  0  0  0  0  0  0  0  0
  -21.3360   -3.7610   26.0190 F   0  0  0  0  0  0  0  0  0  0  0  0
  -22.7390  -13.5640   21.1610 C   0  0  0  0  0  0  0  0  0  0  0  0
  -22.0150  -12.8610   22.0250 N   0  0  0  0  0  0  0  0  0  0  0  0
  -22.2940  -14.5890   20.6450 O   0  0  0  0  0  0  0  0  0  0  0  0
  -22.3870  -12.0320   22.4640 H   0  0  0  0  0  0  0  0  0  0  0  0
  -21.0760  -13.1550   22.2500 H   0  0  0  0  0  0  0  0  0  0  0  0
  -25.3490  -15.2520   20.3330 N   0  0  0  0  0  0  0  0  0  0  0  0
  -24.5780  -15.9020   20.4450 H   0  0  0  0  0  0  0  0  0  0  0  0
  -26.1700  -15.6820   19.9320 H   0  0  0  0  0  0  0  0  0  0  0  0
  -28.6450  -21.7180   20.2090 C   0  0  0  0  0  0  0  0  0  0  0  0
  -27.5550  -21.5540   19.6590 O   0  0  0  0  0  0  0  0  0  0  0  0
  -28.9760  -23.3300   20.5090 C   0  0  0  0  0  3  0  0  0  0  0  0
  -27.9730  -24.6490   20.1520 C   0  0  0  0  0  3  0  0  0  0  0  0
  -28.2330  -26.1790   20.3870 O   0  0  0  0  0  0  0  0  0  0  0  0
  -24.6310  -31.9210   23.3040 C   0  0  0  0  0  0  0  0  0  0  0  0
  -27.1870  -27.1760   20.3000 C   0  0  0  0  0  0  0  0  0  0  0  0
  -23.4290  -30.5320   21.6620 C   0  0  0  0  0  3  0  0  0  0  0  0
  -24.8720  -28.9460   20.2420 C   0  0  0  0  0  0  0  0  0  0  0  0
  -25.9850  -30.7790   21.5070 C   0  0  0  0  0  2  0  0  0  0  0  0
  -26.0520  -29.3840   20.8580 C   0  0  0  0  0  0  0  0  0  0  0  0
  -27.2100  -28.5150   20.8680 C   0  0  0  0  0  3  0  0  0  0  0  0
  -25.9820  -26.8420   19.6430 C   0  0  0  0  0  3  0  0  0  0  0  0
  -24.8520  -27.6890   19.6170 C   0  0  0  0  0  3  0  0  0  0  0  0
  -23.6510  -29.8530   20.2830 C   0  0  0  0  0  2  0  0  0  0  0  0
  -24.7020  -31.0980   22.2140 N   0  0  0  0  0  0  0  0  0  0  0  0
  -23.5450  -32.2140   23.8270 O   0  0  0  0  0  0  0  0  0  0  0  0
  -22.7380  -29.5310   22.6210 C   0  0  0  0  0  0  0  0  0  0  0  0
  -21.4120  -29.3550   22.4770 N   0  0  0  0  0  0  0  0  0  0  0  0
  -23.3990  -28.9120   23.4600 O   0  0  0  0  0  0  0  0  0  0  0  0
  -20.9340  -29.9060   21.7780 H   0  0  0  0  0  0  0  0  0  0  0  0
  -18.0300  -28.1420   22.9340 C   0  0  0  0  0  0  0  0  0  0  0  0
  -20.5830  -28.4230   23.2450 C   0  0  0  0  0  3  0  0  0  0  0  0
  -20.7020  -26.9840   22.6920 C   0  0  0  0  0  2  0  0  0  0  0  0
  -19.6210  -26.6420   21.6610 C   0  0  0  0  0  2  0  0  0  0  0  0
  -18.2270  -26.7850   22.2780 C   0  0  0  0  0  2  0  0  0  0  0  0
  -19.1360  -28.9160   23.3750 C   0  0  0  0  0  0  0  0  0  0  0  0
  -18.8990  -30.1830   23.9510 C   0  0  0  0  0  3  0  0  0  0  0  0
  -17.5880  -30.6760   24.0910 C   0  0  0  0  0  3  0  0  0  0  0  0
  -16.4960  -29.8980   23.6680 C   0  0  0  0  0  3  0  0  0  0  0  0
  -16.7180  -28.6330   23.0950 C   0  0  0  0  0  3  0  0  0  0  0  0
  -25.9090  -32.5510   23.9350 C   0  0  0  0  0  3  0  0  0  0  0  0
  -26.4000  -31.7910   25.2300 C   0  0  1  0  0  0  0  0  0  0  0  0
  -25.2890  -31.5790   26.2860 C   0  0  0  0  0  1  0  0  0  0  0  0
  -26.9750  -30.4030   24.8710 C   0  0  0  0  0  1  0  0  0  0  0  0
  -27.5490  -32.5820   25.8980 C   0  0  0  0  0  1  0  0  0  0  0  0
  -25.6090  -33.9570   24.2490 N   0  0  0  0  0  0  0  0  0  0  0  0
  -25.9290  -35.0000   23.4720 C   0  0  0  0  0  0  0  0  0  0  0  0
  -26.5740  -34.8790   22.4270 O   0  0  0  0  0  0  0  0  0  0  0  0
  -25.0330  -34.1230   25.0610 H   0  0  0  0  0  0  0  0  0  0  0  0
  -24.1860  -36.7900   23.1550 C   0  0  0  0  0  1  0  0  0  0  0  0
  -25.4600  -36.3980   23.9230 C   0  0  0  0  0  3  0  0  0  0  0  0
  -27.6200  -37.3050   24.6560 C   0  0  0  0  0  1  0  0  0  0  0  0
  -26.4860  -37.4480   23.7480 N   0  0  0  0  0  0  0  0  0  0  0  0
  -26.0830  -38.3720   23.8870 H   0  0  0  0  0  0  0  0  0  0  0  0
  2  1  2  0
  3  4  2  0
  4  1  1  0
  4  7  1  0
  5  3  1  0
  5  6  2  0
  6  2  1  0
  8  5  1  0
  9 17  1  0
 10 15  1  0
 11 12  1  0
 11 10  1  0
 13 12  1  0
 13 22  1  0
 13 14  1  0
 15  9  1  0
 15 14  1  0
 16  9  2  0
 17 18  1  0
 17  6  1  0
 19 20  2  0
 20 39  1  0
 21 20  1  0
 21 24  1  0
 22 19  1  0
 22 23  1  0
 23 21  2  0
 24 25  1  0
 25 26  2  0
 27 30  1  0
 27 26  1  0
 28 27  2  0
 29 28  1  0
 29 24  2  0
 30 31  1  0
 31 32  1  0
 32 33  2  0
 34 33  1  0
 34 38  1  0
 35 34  2  0
 36 31  2  0
 36 35  1  0
 37 36  1  0
 39 40  1  0
 40 43  1  0
 40 42  1  0
 41 39  2  0
 44 45  1  0
 44 19  1  0
 46 44  1  0
 47 49  1  0
 47  3  1  0
 48 47  2  0
 50 51  1  0
 50 49  2  0
 52 63  2  0
 53 51  1  0
 53 58  1  0
 54 62  1  0
 54 64  1  0
 55 61  1  0
 55 57  1  0
 56 62  1  0
 57 58  2  0
 57 56  1  0
 59 53  2  0
 60 59  1  0
 60 55  2  0
 61 54  1  0
 62 52  1  0
 64 66  2  0
 65 64  1  0
 67 65  1  0
 68 77  2  0
 68 73  1  0
 69 65  1  0
 69 73  1  0
 70 69  1  0
 71 72  1  0
 71 70  1  0
 72 68  1  0
 73 74  2  0
 74 75  1  0
 76 75  2  0
 77 76  1  0
 78 52  1  0
 78 83  1  0
 78 79  1  0
 79 82  1  1
 79 80  1  0
 81 79  1  0
 83 86  1  0
 84 88  1  0
 84 83  1  0
 85 84  2  0
 88 87  1  0
 90 91  1  0
 90 88  1  0
 90 89  1  0
M  ISO  4   9 100  17 100  50 101  51 101
M  END
>  <TORSDO>  (66) 
F 19

>  <SCORE>  (66) 
-15.486

>  <name>  (66) 
65

>  <ligand_id>  (66) 
65

>  <original_smiles>  (66) 
[H]c1c([H])c([H])c2c(c1[H])C([H])([H])C([H])([H])C([H])([H])C2([H])N([H])C(=O)C1([H])N(C(=O)C([H])(N([H])C(=O)C([H])(N([H])C([H])([H])[H])C([H])([H])[H])C(C([H])([H])[H])(C([H])([H])[H])C([H])([H])[H])C([H])([H])c2c([H])c(OC([H])([H])C([H])([H])C(=O)c3c(C([H])([H])[H])c([H])c([H])c(N([H])C(=O)N4C([H])([H])C([H])([H])C([H])([H])C([H])(n5nc(-c6c([H])c([H])c(Oc7c([H])c([H])c(F)c([H])c7F)c([H])c6[H])c(C(=O)N([H])[H])c5N([H])[H])C4([H])[H])c3C([H])([H])[H])c([H])c([H])c2C1([H])[H]

>  <smiles>  (66) 
[H]c1c([H])c([H])c2c(c1[H])C([H])([H])C([H])([H])C([H])([H])C2([H])N([H])C(=O)C1([H])N(C(=O)C([H])(N([H])C(=O)C([H])(N([H])C([H])([H])[H])C([H])([H])[H])C(C([H])([H])[H])(C([H])([H])[H])C([H])([H])[H])C([H])([H])c2c([H])c(OC([H])([H])C([H])([H])C(=O)c3c(C([H])([H])[H])c([H])c([H])c(N([H])C(=O)N4C([H])([H])C([H])([H])C([H])([H])C([H])(n5nc(-c6c([H])c([H])c(Oc7c([H])c([H])c(F)c([H])c7F)c([H])c6[H])c(C(=O)N([H])[H])c5N([H])[H])C4([H])[H])c3C([H])([H])[H])c([H])c([H])c2C1([H])[H]

$$$$
66:0:0
     RDKit          3D

 92102  0  0  1  0  0  0  0  0999 V2000
  -28.7230  -21.0570   20.5050 C   0  0  0  0  0  3  0  0  0  0  0  0
  -29.2960  -18.4970   20.0630 C   0  0  0  0  0  0  0  0  0  0  0  0
  -29.6160  -19.8440   20.2020 N   0  0  0  0  0  0  0  0  0  0  0  0
  -28.1350  -18.1510   19.8400 O   0  0  0  0  0  0  0  0  0  0  0  0
  -30.6070  -20.0180   20.3230 H   0  0  0  0  0  0  0  0  0  0  0  0
  -30.5650  -14.7820   19.6920 C   0  0  0  0  0  0  0  0  0  0  0  0
  -30.1560  -12.5760   18.5660 C   0  0  0  0  0  2  0  0  0  0  0  0
  -29.0920  -12.7290   17.4570 C   0  0  0  0  0  2  0  0  0  0  0  0
  -27.6790  -12.5540   18.0400 C   0  0  0  0  0  2  0  0  0  0  0  0
  -27.4650  -13.3840   19.3340 C   0  0  0  0  0  3  0  0  0  0  0  0
  -28.6360  -13.2220   20.3240 C   0  0  0  0  0  2  0  0  0  0  0  0
  -29.8750  -13.5850   19.6190 N   0  0  0  0  0  0  0  0  0  0  0  0
  -31.5930  -14.9210   19.0240 O   0  0  0  0  0  0  0  0  0  0  0  0
  -31.7760  -16.3270   22.1200 C   0  0  0  0  0  2  0  0  0  0  0  0
  -29.8860  -16.8950   22.6710 C   0  0  0  0  0  2  0  0  0  0  0  0
  -30.4000  -17.3460   20.2850 C   0  0  0  0  0  3  0  0  0  0  0  0
  -30.9070  -17.5210   21.7130 C   0  0  1  0  0  0  0  0  0  0  0  0
  -30.3970  -15.6710   21.8900 C   0  0  2  0  0  0  0  0  0  0  0  0
  -30.0780  -15.8420   20.4520 N   0  0  0  0  0  0  0  0  0  0  0  0
  -25.1830  -13.9710   20.3470 C   0  0  0  0  0  0  0  0  0  0  0  0
  -24.1520  -13.1940   20.8020 C   0  0  0  0  0  0  0  0  0  0  0  0
  -24.5880  -11.8400   20.6670 C   0  0  0  0  0  0  0  0  0  0  0  0
  -26.1790  -13.0910   19.9590 N   0  0  0  0  0  0  0  0  0  0  0  0
  -25.8350  -11.8010   20.2130 N   0  0  0  0  0  0  0  0  0  0  0  0
  -23.8670  -10.5790   20.8900 C   0  0  0  0  0  0  0  0  0  0  0  0
  -24.3690   -9.5850   21.7580 C   0  0  0  0  0  3  0  0  0  0  0  0
  -23.6470   -8.3900   21.9710 C   0  0  0  0  0  3  0  0  0  0  0  0
  -22.4100   -8.1820   21.3170 C   0  0  0  0  0  0  0  0  0  0  0  0
  -21.9260   -9.1650   20.4360 C   0  0  0  0  0  3  0  0  0  0  0  0
  -22.6490  -10.3520   20.2210 C   0  0  0  0  0  3  0  0  0  0  0  0
  -21.6520   -7.0410   21.4420 O   0  0  0  0  0  0  0  0  0  0  0  0
  -21.6690   -6.2900   22.5890 C   0  0  0  0  0  0  0  0  0  0  0  0
  -21.3440   -6.8420   23.8480 C   0  0  0  0  0  3  0  0  0  0  0  0
  -21.3050   -6.0180   24.9900 C   0  0  0  0  0  3  0  0  0  0  0  0
  -21.5800   -4.6420   24.8760 C   0  0  0  0  0  0  0  0  0  0  0  0
  -21.8990   -4.0890   23.6230 C   0  0  0  0  0  3  0  0  0  0  0  0
  -21.9390   -4.9110   22.4820 C   0  0  0  0  0  0  0  0  0  0  0  0
  -22.2250   -4.3680   21.2740 F   0  0  0  0  0  0  0  0  0  0  0  0
  -21.5360   -3.8480   25.9710 F   0  0  0  0  0  0  0  0  0  0  0  0
  -22.8020  -13.6750   21.2490 C   0  0  0  0  0  0  0  0  0  0  0  0
  -22.1730  -12.9630   22.1760 N   0  0  0  0  0  0  0  0  0  0  0  0
  -22.3190  -14.7180   20.8110 O   0  0  0  0  0  0  0  0  0  0  0  0
  -22.5800  -12.1190   22.5510 H   0  0  0  0  0  0  0  0  0  0  0  0
  -21.2730  -13.2660   22.5170 H   0  0  0  0  0  0  0  0  0  0  0  0
  -25.3500  -15.3460   20.2120 N   0  0  0  0  0  0  0  0  0  0  0  0
  -24.6210  -16.0080   20.4570 H   0  0  0  0  0  0  0  0  0  0  0  0
  -26.1900  -15.7960   19.8670 H   0  0  0  0  0  0  0  0  0  0  0  0
  -29.0100  -22.5290   19.8730 C   0  0  0  0  0  3  0  0  0  0  0  0
  -28.3590  -23.8860   20.5130 C   0  0  0  0  0  2  0  0  0  0  0  0
  -28.1240  -25.0880   19.6190 N   0  0  0  0  0  0  0  0  0  0  0  0
  -27.2080  -25.0280   19.1870 H   0  0  0  0  0  0  0  0  0  0  0  0
  -28.1600  -26.4310   20.3570 O   0  0  0  0  0  0  0  0  0  0  0  0
  -24.5200  -31.9730   23.2610 C   0  0  0  0  0  0  0  0  0  0  0  0
  -27.0500  -27.3030   20.2450 C   0  0  0  0  0  0  0  0  0  0  0  0
  -23.2870  -30.5640   21.6540 C   0  0  0  0  0  3  0  0  0  0  0  0
  -24.7050  -28.9720   20.2300 C   0  0  0  0  0  0  0  0  0  0  0  0
  -25.8300  -30.8410   21.4430 C   0  0  0  0  0  2  0  0  0  0  0  0
  -25.8850  -29.4480   20.8120 C   0  0  0  0  0  0  0  0  0  0  0  0
  -27.0540  -28.6240   20.8110 C   0  0  0  0  0  3  0  0  0  0  0  0
  -25.8430  -26.8890   19.6340 C   0  0  0  0  0  3  0  0  0  0  0  0
  -24.6890  -27.7020   19.6320 C   0  0  0  0  0  3  0  0  0  0  0  0
  -23.4790  -29.8650   20.2810 C   0  0  0  0  0  2  0  0  0  0  0  0
  -24.5660  -31.1470   22.1740 N   0  0  0  0  0  0  0  0  0  0  0  0
  -23.4450  -32.2700   23.8020 O   0  0  0  0  0  0  0  0  0  0  0  0
  -22.6210  -29.5710   22.6380 C   0  0  0  0  0  0  0  0  0  0  0  0
  -21.2960  -29.3880   22.5130 N   0  0  0  0  0  0  0  0  0  0  0  0
  -23.2990  -28.9680   23.4750 O   0  0  0  0  0  0  0  0  0  0  0  0
  -20.8070  -29.9250   21.8090 H   0  0  0  0  0  0  0  0  0  0  0  0
  -17.9290  -28.1540   22.9970 C   0  0  0  0  0  0  0  0  0  0  0  0
  -20.4770  -28.4670   23.3040 C   0  0  0  0  0  3  0  0  0  0  0  0
  -20.6150  -27.0160   22.7860 C   0  0  0  0  0  2  0  0  0  0  0  0
  -19.5380  -26.6370   21.7650 C   0  0  0  0  0  2  0  0  0  0  0  0
  -18.1410  -26.7830   22.3760 C   0  0  0  0  0  2  0  0  0  0  0  0
  -19.0260  -28.9510   23.4180 C   0  0  0  0  0  0  0  0  0  0  0  0
  -18.7740  -30.2310   23.9570 C   0  0  0  0  0  3  0  0  0  0  0  0
  -17.4580  -30.7140   24.0810 C   0  0  0  0  0  3  0  0  0  0  0  0
  -16.3750  -29.9150   23.6750 C   0  0  0  0  0  3  0  0  0  0  0  0
  -16.6120  -28.6370   23.1380 C   0  0  0  0  0  3  0  0  0  0  0  0
  -25.8150  -32.6040   23.8610 C   0  0  0  0  0  3  0  0  0  0  0  0
  -26.3280  -31.8560   25.1530 C   0  0  1  0  0  0  0  0  0  0  0  0
  -25.2370  -31.6550   26.2310 C   0  0  0  0  0  1  0  0  0  0  0  0
  -26.8960  -30.4640   24.7910 C   0  0  0  0  0  1  0  0  0  0  0  0
  -27.4910  -32.6520   25.7930 C   0  0  0  0  0  1  0  0  0  0  0  0
  -25.5250  -34.0140   24.1640 N   0  0  0  0  0  0  0  0  0  0  0  0
  -25.8600  -35.0460   23.3790 C   0  0  0  0  0  0  0  0  0  0  0  0
  -26.5140  -34.9130   22.3420 O   0  0  0  0  0  0  0  0  0  0  0  0
  -24.9450  -34.1920   24.9700 H   0  0  0  0  0  0  0  0  0  0  0  0
  -24.1410  -36.8490   23.0240 C   0  0  0  0  0  1  0  0  0  0  0  0
  -25.3970  -36.4510   23.8150 C   0  0  0  0  0  3  0  0  0  0  0  0
  -27.5610  -37.3330   24.5710 C   0  0  0  0  0  1  0  0  0  0  0  0
  -26.4370  -37.4910   23.6510 N   0  0  0  0  0  0  0  0  0  0  0  0
  -26.0430  -38.4180   23.7880 H   0  0  0  0  0  0  0  0  0  0  0  0
  2  3  1  0
  3  5  1  0
  3  1  1  0
  4  2  2  0
  6 19  1  0
  7 12  1  0
  8  9  1  0
  8  7  1  0
 10  9  1  0
 10 23  1  0
 10 11  1  0
 12  6  1  0
 12 11  1  0
 13  6  2  0
 16  2  1  0
 16 19  1  0
 16 17  1  0
 17 18  1  0
 17 14  1  1
 17 15  1  0
 18 14  1  1
 18 15  1  0
 19 18  1  0
 20 21  2  0
 21 40  1  0
 22 21  1  0
 22 25  1  0
 23 24  1  0
 23 20  1  0
 24 22  2  0
 25 26  1  0
 26 27  2  0
 28 31  1  0
 28 27  1  0
 29 28  2  0
 30 29  1  0
 30 25  2  0
 31 32  1  0
 32 33  1  0
 33 34  2  0
 35 34  1  0
 35 39  1  0
 36 35  2  0
 37 32  2  0
 37 36  1  0
 38 37  1  0
 40 41  1  0
 41 44  1  0
 41 43  1  0
 42 40  2  0
 45 20  1  0
 45 46  1  0
 47 45  1  0
 48  1  2  0
 48 49  1  0
 50 52  1  0
 50 49  1  0
 51 50  1  0
 53 64  2  0
 54 52  1  0
 54 59  1  0
 55 63  1  0
 55 65  1  0
 56 62  1  0
 56 58  1  0
 57 63  1  0
 58 57  1  0
 59 58  2  0
 60 54  2  0
 61 60  1  0
 61 56  2  0
 62 55  1  0
 63 53  1  0
 65 67  2  0
 66 65  1  0
 68 66  1  0
 69 78  2  0
 69 74  1  0
 70 66  1  0
 70 74  1  0
 71 70  1  0
 72 73  1  0
 72 71  1  0
 73 69  1  0
 74 75  2  0
 75 76  1  0
 77 76  2  0
 78 77  1  0
 79 53  1  0
 79 84  1  0
 79 80  1  0
 80 83  1  1
 80 81  1  0
 82 80  1  0
 84 87  1  0
 85 89  1  0
 85 84  1  0
 86 85  2  0
 89 88  1  0
 91 92  1  0
 91 89  1  0
 91 90  1  0
M  ISO  4   6 100  19 100  50 101  52 101
M  END
>  <TORSDO>  (67) 
F 20

>  <SCORE>  (67) 
-11.414

>  <name>  (67) 
66

>  <ligand_id>  (67) 
66

>  <original_smiles>  (67) 
[H]c1c([H])c([H])c2c(c1[H])C([H])([H])C([H])([H])C([H])([H])C2([H])N([H])C(=O)C1([H])N(C(=O)C([H])(N([H])C(=O)C([H])(N([H])C([H])([H])[H])C([H])([H])[H])C(C([H])([H])[H])(C([H])([H])[H])C([H])([H])[H])C([H])([H])c2c([H])c(ON([H])C([H])([H])C([H])([H])C([H])([H])N([H])C(=O)C3([H])N(C(=O)N4C([H])([H])C([H])([H])C([H])([H])C([H])(n5nc(-c6c([H])c([H])c(Oc7c([H])c([H])c(F)c([H])c7F)c([H])c6[H])c(C(=O)N([H])[H])c5N([H])[H])C4([H])[H])C4([H])C([H])([H])C3([H])C4([H])[H])c([H])c([H])c2C1([H])[H]

>  <smiles>  (67) 
[H]c1c([H])c([H])c2c(c1[H])C([H])([H])C([H])([H])C([H])([H])C2([H])N([H])C(=O)C1([H])N(C(=O)C([H])(N([H])C(=O)C([H])(N([H])C([H])([H])[H])C([H])([H])[H])C(C([H])([H])[H])(C([H])([H])[H])C([H])([H])[H])C([H])([H])c2c([H])c(ON([H])C([H])([H])C([H])([H])C([H])([H])N([H])C(=O)C3([H])N(C(=O)N4C([H])([H])C([H])([H])C([H])([H])C([H])(n5nc(-c6c([H])c([H])c(Oc7c([H])c([H])c(F)c([H])c7F)c([H])c6[H])c(C(=O)N([H])[H])c5N([H])[H])C4([H])[H])C4([H])C([H])([H])C3([H])C4([H])[H])c([H])c([H])c2C1([H])[H]

$$$$
67:0:0
     RDKit          3D

 94102  0  0  1  0  0  0  0  0999 V2000
  -29.5430  -19.7560   19.9230 C   0  0  0  0  0  3  0  0  0  0  0  0
  -30.0170  -18.3900   17.7070 C   0  0  0  0  0  2  0  0  0  0  0  0
  -30.4270  -19.2710   16.5330 C   0  0  0  0  0  2  0  0  0  0  0  0
  -29.3170  -19.5820   18.3990 C   0  0  0  0  0  3  0  0  0  0  0  0
  -30.0460  -20.4970   17.3710 C   0  0  0  0  0  3  0  0  0  0  0  0
  -29.1980  -21.4490   16.6150 N   0  0  0  0  0  4  0  0  0  0  0  0
  -28.4260  -20.9900   16.1650 H   0  0  0  0  0  0  0  0  0  0  0  0
  -29.7400  -21.8950   15.8950 H   0  0  0  0  0  0  0  0  0  0  0  0
  -28.8310  -22.1750   17.1990 H   0  0  0  0  0  0  0  0  0  0  0  0
  -28.8230  -21.1610   20.4840 N   0  0  0  0  0  4  0  0  0  0  0  0
  -27.8350  -20.9990   20.3690 H   0  0  0  0  0  0  0  0  0  0  0  0
  -28.9620  -21.1240   21.4820 H   0  0  0  0  0  0  0  0  0  0  0  0
  -29.0670  -22.7780   20.1140 C   0  0  0  0  0  3  0  0  0  0  0  0
  -28.0390  -24.2380   20.3980 C   0  0  0  0  0  3  0  0  0  0  0  0
  -28.2530  -25.8790   20.3070 O   0  0  0  0  0  0  0  0  0  0  0  0
  -24.6240  -31.8580   23.2210 C   0  0  0  0  0  0  0  0  0  0  0  0
  -27.2170  -26.9530   20.2710 C   0  0  0  0  0  0  0  0  0  0  0  0
  -23.4420  -30.4410   21.5930 C   0  0  0  0  0  3  0  0  0  0  0  0
  -24.9020  -28.8190   20.2010 C   0  0  0  0  0  0  0  0  0  0  0  0
  -26.0100  -30.6540   21.4600 C   0  0  0  0  0  2  0  0  0  0  0  0
  -26.0870  -29.2380   20.8200 C   0  0  0  0  0  0  0  0  0  0  0  0
  -27.2380  -28.3270   20.8260 C   0  0  0  0  0  3  0  0  0  0  0  0
  -25.9980  -26.6850   19.6080 C   0  0  0  0  0  3  0  0  0  0  0  0
  -24.8810  -27.5610   19.5770 C   0  0  0  0  0  3  0  0  0  0  0  0
  -23.6810  -29.7380   20.2280 C   0  0  0  0  0  2  0  0  0  0  0  0
  -24.7130  -31.0140   22.1440 N   0  0  0  0  0  0  0  0  0  0  0  0
  -23.5310  -32.1540   23.7330 O   0  0  0  0  0  0  0  0  0  0  0  0
  -22.7450  -29.4560   22.5660 C   0  0  0  0  0  0  0  0  0  0  0  0
  -21.4150  -29.2900   22.4340 N   0  0  0  0  0  0  0  0  0  0  0  0
  -23.4050  -28.8410   23.4060 O   0  0  0  0  0  0  0  0  0  0  0  0
  -20.9360  -29.8390   21.7340 H   0  0  0  0  0  0  0  0  0  0  0  0
  -18.0290  -28.0900   22.9380 C   0  0  0  0  0  0  0  0  0  0  0  0
  -20.5880  -28.3600   23.2090 C   0  0  0  0  0  3  0  0  0  0  0  0
  -20.6910  -26.9230   22.6490 C   0  0  0  0  0  2  0  0  0  0  0  0
  -19.5930  -26.5900   21.6320 C   0  0  0  0  0  2  0  0  0  0  0  0
  -18.2090  -26.7370   22.2710 C   0  0  0  0  0  2  0  0  0  0  0  0
  -19.1450  -28.8600   23.3630 C   0  0  0  0  0  0  0  0  0  0  0  0
  -18.9190  -30.1240   23.9500 C   0  0  0  0  0  3  0  0  0  0  0  0
  -17.6130  -30.6190   24.1150 C   0  0  0  0  0  3  0  0  0  0  0  0
  -16.5110  -29.8470   23.7040 C   0  0  0  0  0  3  0  0  0  0  0  0
  -16.7210  -28.5840   23.1220 C   0  0  0  0  0  3  0  0  0  0  0  0
  -25.8910  -32.5100   23.8560 C   0  0  0  0  0  3  0  0  0  0  0  0
  -25.5660  -33.9120   24.1740 N   0  0  0  0  0  0  0  0  0  0  0  0
  -25.9050  -34.9690   23.4250 C   0  0  0  0  0  0  0  0  0  0  0  0
  -26.5850  -34.8660   22.4010 O   0  0  0  0  0  0  0  0  0  0  0  0
  -24.9600  -34.0640   24.9670 H   0  0  0  0  0  0  0  0  0  0  0  0
  -24.1830  -36.7710   23.0580 C   0  0  0  0  0  1  0  0  0  0  0  0
  -25.4150  -36.3590   23.8810 C   0  0  0  0  0  3  0  0  0  0  0  0
  -27.5390  -37.2460   24.7380 C   0  0  0  0  0  1  0  0  0  0  0  0
  -26.4500  -37.4120   23.7800 N   0  0  0  0  0  0  0  0  0  0  0  0
  -26.0410  -38.3320   23.9180 H   0  0  0  0  0  0  0  0  0  0  0  0
  -26.3880  -31.7590   25.1540 C   0  0  1  0  0  0  0  0  0  0  0  0
  -25.2810  -31.5410   26.2120 C   0  0  0  0  0  1  0  0  0  0  0  0
  -26.9780  -30.3740   24.8010 C   0  0  0  0  0  1  0  0  0  0  0  0
  -27.5290  -32.5660   25.8180 C   0  0  0  0  0  1  0  0  0  0  0  0
  -29.5990  -18.1430   20.7350 C   0  0  0  0  0  2  0  0  0  0  0  0
  -30.3970  -15.2790   20.2550 C   0  0  0  0  0  0  0  0  0  0  0  0
  -30.3660  -12.8550   19.3160 C   0  0  0  0  0  2  0  0  0  0  0  0
  -29.4220  -12.6590   18.1040 C   0  0  0  0  0  2  0  0  0  0  0  0
  -27.9770  -12.3880   18.5660 C   0  0  0  0  0  2  0  0  0  0  0  0
  -27.5440  -13.3330   19.7160 C   0  0  0  0  0  3  0  0  0  0  0  0
  -28.6150  -13.4630   20.8160 C   0  0  0  0  0  2  0  0  0  0  0  0
  -29.8270  -13.9820   20.1560 N   0  0  0  0  0  0  0  0  0  0  0  0
  -31.6300  -15.2830   20.1250 O   0  0  0  0  0  0  0  0  0  0  0  0
  -29.6040  -16.5270   20.2740 N   0  0  0  0  0  0  0  0  0  0  0  0
  -28.6460  -16.2540   20.1130 H   0  0  0  0  0  0  0  0  0  0  0  0
  -25.1800  -13.8860   20.5040 C   0  0  0  0  0  0  0  0  0  0  0  0
  -24.1250  -13.1060   20.8840 C   0  0  0  0  0  0  0  0  0  0  0  0
  -24.5960  -11.7570   20.8470 C   0  0  0  0  0  0  0  0  0  0  0  0
  -26.2240  -13.0130   20.2450 N   0  0  0  0  0  0  0  0  0  0  0  0
  -25.8850  -11.7270   20.5200 N   0  0  0  0  0  0  0  0  0  0  0  0
  -23.8760  -10.4920   21.0440 C   0  0  0  0  0  0  0  0  0  0  0  0
  -24.3110   -9.5300   21.9810 C   0  0  0  0  0  3  0  0  0  0  0  0
  -23.5860   -8.3320   22.1650 C   0  0  0  0  0  3  0  0  0  0  0  0
  -22.4120   -8.0890   21.4130 C   0  0  0  0  0  0  0  0  0  0  0  0
  -21.9970   -9.0410   20.4650 C   0  0  0  0  0  3  0  0  0  0  0  0
  -22.7210  -10.2300   20.2790 C   0  0  0  0  0  3  0  0  0  0  0  0
  -21.6600   -6.9430   21.5070 O   0  0  0  0  0  0  0  0  0  0  0  0
  -21.6130   -6.2070   22.6620 C   0  0  0  0  0  0  0  0  0  0  0  0
  -21.1780   -6.7650   23.8850 C   0  0  0  0  0  3  0  0  0  0  0  0
  -21.0740   -5.9530   25.0320 C   0  0  0  0  0  3  0  0  0  0  0  0
  -21.3980   -4.5850   24.9590 C   0  0  0  0  0  0  0  0  0  0  0  0
  -21.8290   -4.0270   23.7420 C   0  0  0  0  0  3  0  0  0  0  0  0
  -21.9320   -4.8350   22.5960 C   0  0  0  0  0  0  0  0  0  0  0  0
  -22.3250   -4.2870   21.4210 F   0  0  0  0  0  0  0  0  0  0  0  0
  -21.2930   -3.8040   26.0580 F   0  0  0  0  0  0  0  0  0  0  0  0
  -22.7280  -13.5800   21.1600 C   0  0  0  0  0  0  0  0  0  0  0  0
  -22.0010  -12.8840   22.0270 N   0  0  0  0  0  0  0  0  0  0  0  0
  -22.2880  -14.6060   20.6430 O   0  0  0  0  0  0  0  0  0  0  0  0
  -22.3690  -12.0550   22.4720 H   0  0  0  0  0  0  0  0  0  0  0  0
  -21.0650  -13.1870   22.2490 H   0  0  0  0  0  0  0  0  0  0  0  0
  -25.3340  -15.2580   20.3280 N   0  0  0  0  0  0  0  0  0  0  0  0
  -24.5590  -15.9030   20.4450 H   0  0  0  0  0  0  0  0  0  0  0  0
  -26.1650  -15.7010   19.9630 H   0  0  0  0  0  0  0  0  0  0  0  0
  1 10  1  0
  1 56  1  0
  2  4  1  0
  3  5  1  0
  3  2  1  0
  4  1  1  0
  5  6  1  0
  5  4  1  0
  6  9  1  0
  7  6  1  0
  8  6  1  0
 10 12  1  0
 11 10  1  0
 13 14  2  0
 13 10  1  0
 15 14  1  0
 16 27  2  0
 17 15  1  0
 17 22  1  0
 18 26  1  0
 18 28  1  0
 19 25  1  0
 19 21  1  0
 20 26  1  0
 21 22  2  0
 21 20  1  0
 23 17  2  0
 24 23  1  0
 24 19  2  0
 25 18  1  0
 26 16  1  0
 28 30  2  0
 29 28  1  0
 31 29  1  0
 32 41  2  0
 32 37  1  0
 33 29  1  0
 33 37  1  0
 34 33  1  0
 35 36  1  0
 35 34  1  0
 36 32  1  0
 37 38  2  0
 38 39  1  0
 40 39  2  0
 41 40  1  0
 42 16  1  0
 42 43  1  0
 42 52  1  0
 43 46  1  0
 44 48  1  0
 44 43  1  0
 45 44  2  0
 48 47  1  0
 50 48  1  0
 50 51  1  0
 50 49  1  0
 52 55  1  1
 52 53  1  0
 54 52  1  0
 57 65  1  0
 58 63  1  0
 59 60  1  0
 59 58  1  0
 61 60  1  0
 61 70  1  0
 61 62  1  0
 63 57  1  0
 63 62  1  0
 64 57  2  0
 65 56  1  0
 66 65  1  0
 67 68  2  0
 68 87  1  0
 69 68  1  0
 69 72  1  0
 70 67  1  0
 70 71  1  0
 71 69  2  0
 72 73  1  0
 73 74  2  0
 75 78  1  0
 75 74  1  0
 76 75  2  0
 77 76  1  0
 77 72  2  0
 78 79  1  0
 79 80  1  0
 80 81  2  0
 82 81  1  0
 82 86  1  0
 83 82  2  0
 84 79  2  0
 84 83  1  0
 85 84  1  0
 87 88  1  0
 88 91  1  0
 88 90  1  0
 89 87  2  0
 92 93  1  0
 92 67  1  0
 94 92  1  0
M  ISO  4  14 101  15 101  57 100  65 100
M  END
>  <TORSDO>  (68) 
F 22

>  <SCORE>  (68) 
-16.084

>  <name>  (68) 
67

>  <ligand_id>  (68) 
67

>  <original_smiles>  (68) 
[H]c1c([H])c([H])c2c(c1[H])C([H])([H])C([H])([H])C([H])([H])C2([H])N([H])C(=O)C1([H])N(C(=O)C([H])(N([H])C(=O)C([H])(N([H])C([H])([H])[H])C([H])([H])[H])C(C([H])([H])[H])(C([H])([H])[H])C([H])([H])[H])C([H])([H])c2c([H])c(OC([H])([H])C([H])([H])[N+]([H])([H])C([H])(C([H])([H])N([H])C(=O)N3C([H])([H])C([H])([H])C([H])([H])C([H])(n4nc(-c5c([H])c([H])c(Oc6c([H])c([H])c(F)c([H])c6F)c([H])c5[H])c(C(=O)N([H])[H])c4N([H])[H])C3([H])[H])C3([H])C([H])([H])C([H])([H])C3([H])[N+]([H])([H])[H])c([H])c([H])c2C1([H])[H]

>  <smiles>  (68) 
[H]c1c([H])c([H])c2c(c1[H])C([H])([H])C([H])([H])C([H])([H])C2([H])N([H])C(=O)C1([H])N(C(=O)C([H])(N([H])C(=O)C([H])(N([H])C([H])([H])[H])C([H])([H])[H])C(C([H])([H])[H])(C([H])([H])[H])C([H])([H])[H])C([H])([H])c2c([H])c(OC([H])([H])C([H])([H])[N+]([H])([H])C([H])(C([H])([H])N([H])C(=O)N3C([H])([H])C([H])([H])C([H])([H])C([H])(n4nc(-c5c([H])c([H])c(Oc6c([H])c([H])c(F)c([H])c6F)c([H])c5[H])c(C(=O)N([H])[H])c4N([H])[H])C3([H])[H])C3([H])C([H])([H])C([H])([H])C3([H])[N+]([H])([H])[H])c([H])c([H])c2C1([H])[H]

$$$$
68:0:0
     RDKit          3D

 92101  0  0  1  0  0  0  0  0999 V2000
  -27.9600  -20.0900   20.1030 C   0  0  0  0  0  3  0  0  0  0  0  0
  -28.5070  -18.7840   20.3080 C   0  0  0  0  0  3  0  0  0  0  0  0
  -30.6050  -19.8100   20.8860 C   0  0  0  0  0  3  0  0  0  0  0  0
  -28.7240  -21.2840   20.2630 C   0  0  0  0  0  0  0  0  0  0  0  0
  -30.0680  -21.1230   20.6830 C   0  0  0  0  0  0  0  0  0  0  0  0
  -29.8560  -18.6060   20.6980 C   0  0  0  0  0  0  0  0  0  0  0  0
  -28.1310  -22.6780   20.0130 C   0  0  0  0  0  0  0  0  0  0  0  0
  -30.9630  -22.3560   20.8930 C   0  0  0  0  0  2  0  0  0  0  0  0
  -30.2360  -23.7400   20.9360 C   0  0  0  0  0  2  0  0  0  0  0  0
  -29.1330  -23.8710   19.8690 C   0  0  0  0  0  3  0  0  0  0  0  0
  -26.9210  -22.8770   19.8800 O   0  0  0  0  0  0  0  0  0  0  0  0
  -30.5730  -17.2160   20.9370 C   0  0  0  0  0  2  0  0  0  0  0  0
  -30.6290  -14.7070   20.4460 C   0  0  0  0  0  0  0  0  0  0  0  0
  -30.3500  -12.4880   19.3510 C   0  0  0  0  0  2  0  0  0  0  0  0
  -29.4030  -12.6230   18.1410 C   0  0  0  0  0  2  0  0  0  0  0  0
  -27.9380  -12.4560   18.5850 C   0  0  0  0  0  2  0  0  0  0  0  0
  -27.5880  -13.3080   19.8350 C   0  0  0  0  0  3  0  0  0  0  0  0
  -28.6590  -13.1770   20.9400 C   0  0  0  0  0  2  0  0  0  0  0  0
  -29.9530  -13.5160   20.3380 N   0  0  0  0  0  0  0  0  0  0  0  0
  -31.8060  -14.7830   20.0890 O   0  0  0  0  0  0  0  0  0  0  0  0
  -29.9380  -15.8530   20.7780 N   0  0  0  0  0  0  0  0  0  0  0  0
  -28.9640  -15.7590   21.0180 H   0  0  0  0  0  0  0  0  0  0  0  0
  -25.2060  -13.8850   20.5930 C   0  0  0  0  0  0  0  0  0  0  0  0
  -24.1450  -13.1030   20.9610 C   0  0  0  0  0  0  0  0  0  0  0  0
  -24.6100  -11.7530   20.9030 C   0  0  0  0  0  0  0  0  0  0  0  0
  -26.2490  -13.0100   20.3340 N   0  0  0  0  0  0  0  0  0  0  0  0
  -25.8970  -11.7220   20.5810 N   0  0  0  0  0  0  0  0  0  0  0  0
  -23.8860  -10.4870   21.0770 C   0  0  0  0  0  0  0  0  0  0  0  0
  -24.3120   -9.5150   22.0080 C   0  0  0  0  0  3  0  0  0  0  0  0
  -23.5890   -8.3130   22.1710 C   0  0  0  0  0  3  0  0  0  0  0  0
  -22.4240   -8.0770   21.4020 C   0  0  0  0  0  0  0  0  0  0  0  0
  -22.0170   -9.0390   20.4600 C   0  0  0  0  0  3  0  0  0  0  0  0
  -22.7410  -10.2300   20.2960 C   0  0  0  0  0  3  0  0  0  0  0  0
  -21.6720   -6.9280   21.4740 O   0  0  0  0  0  0  0  0  0  0  0  0
  -21.5890   -6.1950   22.6310 C   0  0  0  0  0  0  0  0  0  0  0  0
  -21.0750   -6.7440   23.8270 C   0  0  0  0  0  3  0  0  0  0  0  0
  -20.9420   -5.9350   24.9730 C   0  0  0  0  0  3  0  0  0  0  0  0
  -21.3110   -4.5770   24.9240 C   0  0  0  0  0  0  0  0  0  0  0  0
  -21.8150   -4.0270   23.7330 C   0  0  0  0  0  3  0  0  0  0  0  0
  -21.9510   -4.8340   22.5880 C   0  0  0  0  0  0  0  0  0  0  0  0
  -22.4180   -4.2930   21.4370 F   0  0  0  0  0  0  0  0  0  0  0  0
  -21.1750   -3.7970   26.0220 F   0  0  0  0  0  0  0  0  0  0  0  0
  -22.7490  -13.5740   21.2520 C   0  0  0  0  0  0  0  0  0  0  0  0
  -22.0260  -12.8560   22.1030 N   0  0  0  0  0  0  0  0  0  0  0  0
  -22.3090  -14.6130   20.7610 O   0  0  0  0  0  0  0  0  0  0  0  0
  -22.3940  -12.0150   22.5220 H   0  0  0  0  0  0  0  0  0  0  0  0
  -21.0890  -13.1520   22.3390 H   0  0  0  0  0  0  0  0  0  0  0  0
  -25.3660  -15.2580   20.4350 N   0  0  0  0  0  0  0  0  0  0  0  0
  -24.5930  -15.9050   20.5550 H   0  0  0  0  0  0  0  0  0  0  0  0
  -26.1990  -15.7010   20.0730 H   0  0  0  0  0  0  0  0  0  0  0  0
  -28.6310  -25.3440   19.4390 C   0  0  0  0  0  2  0  0  0  0  0  0
  -28.4140  -26.5030   20.3410 O   0  0  0  0  0  0  0  0  0  0  0  0
  -24.6120  -31.9190   23.2420 C   0  0  0  0  0  0  0  0  0  0  0  0
  -27.2800  -27.3350   20.2450 C   0  0  0  0  0  0  0  0  0  0  0  0
  -23.4330  -30.4980   21.6040 C   0  0  0  0  0  3  0  0  0  0  0  0
  -24.9050  -28.9440   20.2070 C   0  0  0  0  0  0  0  0  0  0  0  0
  -25.9750  -30.8240   21.4470 C   0  0  0  0  0  2  0  0  0  0  0  0
  -26.0660  -29.4400   20.8120 C   0  0  0  0  0  0  0  0  0  0  0  0
  -27.2530  -28.6450   20.8240 C   0  0  0  0  0  3  0  0  0  0  0  0
  -26.0800  -26.8860   19.6440 C   0  0  0  0  0  3  0  0  0  0  0  0
  -24.9150  -27.6730   19.6190 C   0  0  0  0  0  3  0  0  0  0  0  0
  -23.6650  -29.8130   20.2330 C   0  0  0  0  0  2  0  0  0  0  0  0
  -24.6910  -31.0990   22.1540 N   0  0  0  0  0  0  0  0  0  0  0  0
  -23.5200  -32.1970   23.7610 O   0  0  0  0  0  0  0  0  0  0  0  0
  -22.7650  -29.4880   22.5660 C   0  0  0  0  0  0  0  0  0  0  0  0
  -21.4400  -29.3080   22.4310 N   0  0  0  0  0  0  0  0  0  0  0  0
  -23.4380  -28.8680   23.3930 O   0  0  0  0  0  0  0  0  0  0  0  0
  -20.9570  -29.8600   21.7360 H   0  0  0  0  0  0  0  0  0  0  0  0
  -18.0530  -28.1460   22.9460 C   0  0  0  0  0  0  0  0  0  0  0  0
  -20.6150  -28.3760   23.2020 C   0  0  0  0  0  3  0  0  0  0  0  0
  -20.6980  -26.9470   22.6210 C   0  0  0  0  0  2  0  0  0  0  0  0
  -19.5860  -26.6390   21.6130 C   0  0  0  0  0  2  0  0  0  0  0  0
  -18.2100  -26.7980   22.2660 C   0  0  0  0  0  2  0  0  0  0  0  0
  -19.1820  -28.8950   23.3720 C   0  0  0  0  0  0  0  0  0  0  0  0
  -18.9810  -30.1580   23.9710 C   0  0  0  0  0  3  0  0  0  0  0  0
  -17.6830  -30.6730   24.1460 C   0  0  0  0  0  3  0  0  0  0  0  0
  -16.5680  -29.9220   23.7360 C   0  0  0  0  0  3  0  0  0  0  0  0
  -16.7540  -28.6600   23.1420 C   0  0  0  0  0  3  0  0  0  0  0  0
  -25.8840  -32.5640   23.8720 C   0  0  0  0  0  3  0  0  0  0  0  0
  -25.5630  -33.9640   24.1830 N   0  0  0  0  0  0  0  0  0  0  0  0
  -25.8940  -35.0100   23.4140 C   0  0  0  0  0  0  0  0  0  0  0  0
  -26.5700  -34.8990   22.3880 O   0  0  0  0  0  0  0  0  0  0  0  0
  -24.9630  -34.1250   24.9790 H   0  0  0  0  0  0  0  0  0  0  0  0
  -24.1660  -36.7960   23.0190 C   0  0  0  0  0  1  0  0  0  0  0  0
  -25.3960  -36.4020   23.8530 C   0  0  0  0  0  3  0  0  0  0  0  0
  -27.5090  -37.3060   24.7180 C   0  0  0  0  0  1  0  0  0  0  0  0
  -26.4280  -37.4550   23.7460 N   0  0  0  0  0  0  0  0  0  0  0  0
  -26.0160  -38.3770   23.8700 H   0  0  0  0  0  0  0  0  0  0  0  0
  -26.3860  -31.8110   25.1650 C   0  0  1  0  0  0  0  0  0  0  0  0
  -25.2790  -31.5760   26.2190 C   0  0  0  0  0  1  0  0  0  0  0  0
  -26.9860  -30.4320   24.7990 C   0  0  0  0  0  1  0  0  0  0  0  0
  -27.5210  -32.6200   25.8350 C   0  0  0  0  0  1  0  0  0  0  0  0
  1  4  2  0
  1  2  1  0
  2  6  2  0
  4  5  1  0
  5  3  2  0
  5  8  1  0
  6  3  1  0
  6 12  1  0
  7  4  1  0
  8  9  1  0
 10 51  1  0
 10  7  1  0
 10  9  1  0
 11  7  2  0
 13 21  1  0
 14 19  1  0
 15 16  1  0
 15 14  1  0
 17 16  1  0
 17 26  1  0
 17 18  1  0
 19 13  1  0
 19 18  1  0
 20 13  2  0
 21 12  1  0
 21 22  1  0
 23 24  2  0
 24 43  1  0
 25 24  1  0
 25 28  1  0
 26 27  1  0
 26 23  1  0
 27 25  2  0
 28 29  1  0
 29 30  2  0
 31 34  1  0
 31 30  1  0
 32 31  2  0
 33 32  1  0
 33 28  2  0
 34 35  1  0
 35 36  1  0
 36 37  2  0
 38 37  1  0
 38 42  1  0
 39 38  2  0
 40 35  2  0
 40 39  1  0
 41 40  1  0
 43 44  1  0
 44 47  1  0
 44 46  1  0
 45 43  2  0
 48 49  1  0
 48 23  1  0
 50 48  1  0
 51 52  1  0
 53 64  2  0
 54 52  1  0
 54 59  1  0
 55 63  1  0
 55 65  1  0
 56 62  1  0
 56 58  1  0
 57 63  1  0
 58 59  2  0
 58 57  1  0
 60 54  2  0
 61 60  1  0
 61 56  2  0
 62 55  1  0
 63 53  1  0
 65 67  2  0
 66 65  1  0
 68 66  1  0
 69 78  2  0
 69 74  1  0
 70 66  1  0
 70 74  1  0
 71 70  1  0
 72 73  1  0
 72 71  1  0
 73 69  1  0
 74 75  2  0
 75 76  1  0
 77 76  2  0
 78 77  1  0
 79 53  1  0
 79 80  1  0
 79 89  1  0
 80 83  1  0
 81 85  1  0
 81 80  1  0
 82 81  2  0
 85 84  1  0
 87 85  1  0
 87 88  1  0
 87 86  1  0
 89 92  1  1
 89 90  1  0
 91 89  1  0
M  ISO  4  13 100  21 100  51 101  52 101
M  END
>  <TORSDO>  (69) 
F 18

>  <SCORE>  (69) 
-14.908

>  <name>  (69) 
68

>  <ligand_id>  (69) 
68

>  <original_smiles>  (69) 
[H]c1c([H])c([H])c2c(c1[H])C([H])([H])C([H])([H])C([H])([H])C2([H])N([H])C(=O)C1([H])N(C(=O)C([H])(N([H])C(=O)C([H])(N([H])C([H])([H])[H])C([H])([H])[H])C(C([H])([H])[H])(C([H])([H])[H])C([H])([H])[H])C([H])([H])c2c([H])c(OC([H])([H])C3([H])C(=O)c4c([H])c([H])c(C([H])([H])N([H])C(=O)N5C([H])([H])C([H])([H])C([H])([H])C([H])(n6nc(-c7c([H])c([H])c(Oc8c([H])c([H])c(F)c([H])c8F)c([H])c7[H])c(C(=O)N([H])[H])c6N([H])[H])C5([H])[H])c([H])c4C([H])([H])C3([H])[H])c([H])c([H])c2C1([H])[H]

>  <smiles>  (69) 
[H]c1c([H])c([H])c2c(c1[H])C([H])([H])C([H])([H])C([H])([H])C2([H])N([H])C(=O)C1([H])N(C(=O)C([H])(N([H])C(=O)C([H])(N([H])C([H])([H])[H])C([H])([H])[H])C(C([H])([H])[H])(C([H])([H])[H])C([H])([H])[H])C([H])([H])c2c([H])c(OC([H])([H])C3([H])C(=O)c4c([H])c([H])c(C([H])([H])N([H])C(=O)N5C([H])([H])C([H])([H])C([H])([H])C([H])(n6nc(-c7c([H])c([H])c(Oc8c([H])c([H])c(F)c([H])c8F)c([H])c7[H])c(C(=O)N([H])[H])c6N([H])[H])C5([H])[H])c([H])c4C([H])([H])C3([H])[H])c([H])c([H])c2C1([H])[H]

$$$$
69:0:0
     RDKit          3D

 93102  0  0  1  0  0  0  0  0999 V2000
  -29.4120  -22.4530   19.6920 C   0  0  0  0  0  2  0  0  0  0  0  0
  -28.6950  -23.7300   19.4730 N   0  0  0  0  0  4  0  0  0  0  0  0
  -28.1460  -23.9400   20.2930 H   0  0  0  0  0  0  0  0  0  0  0  0
  -28.0590  -23.6050   18.7010 H   0  0  0  0  0  0  0  0  0  0  0  0
  -29.5820  -24.8810   19.1770 C   0  0  0  0  0  2  0  0  0  0  0  0
  -28.7950  -26.1720   18.8920 C   0  0  0  0  0  2  0  0  0  0  0  0
  -28.3570  -26.7420   20.1260 O   0  0  0  0  0  0  0  0  0  0  0  0
  -24.5480  -31.8730   23.2360 C   0  0  0  0  0  0  0  0  0  0  0  0
  -27.1750  -27.4470   20.1210 C   0  0  0  0  0  0  0  0  0  0  0  0
  -23.3290  -30.4690   21.6040 C   0  0  0  0  0  3  0  0  0  0  0  0
  -24.7710  -28.9300   20.1720 C   0  0  0  0  0  0  0  0  0  0  0  0
  -25.8510  -30.8280   21.3880 C   0  0  0  0  0  2  0  0  0  0  0  0
  -25.9300  -29.4570   20.7530 C   0  0  0  0  0  0  0  0  0  0  0  0
  -27.1310  -28.7150   20.7380 C   0  0  0  0  0  3  0  0  0  0  0  0
  -25.9920  -26.9170   19.5590 C   0  0  0  0  0  3  0  0  0  0  0  0
  -24.7940  -27.6550   19.5810 C   0  0  0  0  0  3  0  0  0  0  0  0
  -23.5270  -29.7860   20.2240 C   0  0  0  0  0  2  0  0  0  0  0  0
  -24.5940  -31.0710   22.1350 N   0  0  0  0  0  0  0  0  0  0  0  0
  -23.4720  -32.1460   23.7840 O   0  0  0  0  0  0  0  0  0  0  0  0
  -22.6840  -29.4500   22.5700 C   0  0  0  0  0  0  0  0  0  0  0  0
  -21.3600  -29.2690   22.4520 N   0  0  0  0  0  0  0  0  0  0  0  0
  -23.3740  -28.8230   23.3810 O   0  0  0  0  0  0  0  0  0  0  0  0
  -20.8660  -29.8260   21.7700 H   0  0  0  0  0  0  0  0  0  0  0  0
  -17.9880  -28.0800   22.9670 C   0  0  0  0  0  0  0  0  0  0  0  0
  -20.5460  -28.3340   23.2290 C   0  0  0  0  0  3  0  0  0  0  0  0
  -20.6450  -26.9020   22.6550 C   0  0  0  0  0  2  0  0  0  0  0  0
  -19.5380  -26.5780   21.6460 C   0  0  0  0  0  2  0  0  0  0  0  0
  -18.1590  -26.7280   22.2950 C   0  0  0  0  0  2  0  0  0  0  0  0
  -19.1090  -28.8400   23.3910 C   0  0  0  0  0  0  0  0  0  0  0  0
  -18.8960  -30.1070   23.9780 C   0  0  0  0  0  3  0  0  0  0  0  0
  -17.5920  -30.6120   24.1460 C   0  0  0  0  0  3  0  0  0  0  0  0
  -16.4850  -29.8480   23.7390 C   0  0  0  0  0  3  0  0  0  0  0  0
  -16.6840  -28.5840   23.1560 C   0  0  0  0  0  3  0  0  0  0  0  0
  -25.8400  -32.5010   23.8460 C   0  0  0  0  0  3  0  0  0  0  0  0
  -25.5410  -33.9030   24.1660 N   0  0  0  0  0  0  0  0  0  0  0  0
  -25.8850  -34.9470   23.4000 C   0  0  0  0  0  0  0  0  0  0  0  0
  -26.5600  -34.8320   22.3740 O   0  0  0  0  0  0  0  0  0  0  0  0
  -24.9430  -34.0680   24.9620 H   0  0  0  0  0  0  0  0  0  0  0  0
  -24.1780  -36.7530   23.0130 C   0  0  0  0  0  1  0  0  0  0  0  0
  -25.4030  -36.3420   23.8440 C   0  0  0  0  0  3  0  0  0  0  0  0
  -27.5350  -37.2080   24.7010 C   0  0  0  0  0  1  0  0  0  0  0  0
  -26.4470  -37.3850   23.7430 N   0  0  0  0  0  0  0  0  0  0  0  0
  -26.0480  -38.3090   23.8840 H   0  0  0  0  0  0  0  0  0  0  0  0
  -26.3630  -31.7350   25.1230 C   0  0  1  0  0  0  0  0  0  0  0  0
  -25.2760  -31.5080   26.1990 C   0  0  0  0  0  1  0  0  0  0  0  0
  -26.9390  -30.3540   24.7320 C   0  0  0  0  0  1  0  0  0  0  0  0
  -27.5210  -32.5300   25.7730 C   0  0  0  0  0  1  0  0  0  0  0  0
  -28.4550  -21.2430   19.7250 C   0  0  0  0  0  2  0  0  0  0  0  0
  -28.3620  -18.6110   20.0070 C   0  0  0  0  0  2  0  0  0  0  0  0
  -31.2770  -18.9500   21.2840 C   0  0  0  0  0  2  0  0  0  0  0  0
  -29.3070  -18.1260   21.1120 C   0  0  0  0  0  3  0  0  0  0  0  0
  -29.8720  -19.5480   21.1990 C   0  0  0  0  0  3  0  0  0  0  0  0
  -29.1810  -19.9040   19.8680 C   0  0  0  0  0  3  0  0  0  0  0  0
  -30.7260  -17.5830   20.8540 C   0  0  0  0  0  3  0  0  0  0  0  0
  -31.2140  -16.3370   21.5970 C   0  0  0  0  0  2  0  0  0  0  0  0
  -30.9230  -14.3130   20.1760 C   0  0  0  0  0  0  0  0  0  0  0  0
  -30.4460  -12.2430   18.9200 C   0  0  0  0  0  2  0  0  0  0  0  0
  -29.4510  -12.5030   17.7740 C   0  0  0  0  0  2  0  0  0  0  0  0
  -28.0000  -12.3980   18.2760 C   0  0  0  0  0  2  0  0  0  0  0  0
  -27.7550  -13.2300   19.5630 C   0  0  0  0  0  3  0  0  0  0  0  0
  -28.8490  -12.9440   20.6150 C   0  0  0  0  0  2  0  0  0  0  0  0
  -30.1650  -13.2000   20.0000 N   0  0  0  0  0  0  0  0  0  0  0  0
  -31.9260  -14.5630   19.5010 O   0  0  0  0  0  0  0  0  0  0  0  0
  -30.5230  -15.1270   21.1600 N   0  0  0  0  0  0  0  0  0  0  0  0
  -29.7000  -14.8520   21.6750 H   0  0  0  0  0  0  0  0  0  0  0  0
  -25.4120  -13.9070   20.3940 C   0  0  0  0  0  0  0  0  0  0  0  0
  -24.3370  -13.1640   20.8020 C   0  0  0  0  0  0  0  0  0  0  0  0
  -24.7490  -11.7990   20.7280 C   0  0  0  0  0  0  0  0  0  0  0  0
  -26.4150  -12.9960   20.1000 N   0  0  0  0  0  0  0  0  0  0  0  0
  -26.0210  -11.7220   20.3560 N   0  0  0  0  0  0  0  0  0  0  0  0
  -23.9920  -10.5580   20.9350 C   0  0  0  0  0  0  0  0  0  0  0  0
  -24.4140   -9.5800   21.8630 C   0  0  0  0  0  3  0  0  0  0  0  0
  -23.6580   -8.4040   22.0570 C   0  0  0  0  0  3  0  0  0  0  0  0
  -22.4660   -8.1970   21.3230 C   0  0  0  0  0  0  0  0  0  0  0  0
  -22.0620   -9.1630   20.3850 C   0  0  0  0  0  3  0  0  0  0  0  0
  -22.8180  -10.3310   20.1880 C   0  0  0  0  0  3  0  0  0  0  0  0
  -21.6820   -7.0740   21.4260 O   0  0  0  0  0  0  0  0  0  0  0  0
  -21.6060   -6.3540   22.5920 C   0  0  0  0  0  0  0  0  0  0  0  0
  -21.1880   -6.9420   23.8050 C   0  0  0  0  0  3  0  0  0  0  0  0
  -21.0580   -6.1500   24.9630 C   0  0  0  0  0  3  0  0  0  0  0  0
  -21.3350   -4.7710   24.9090 C   0  0  0  0  0  0  0  0  0  0  0  0
  -21.7450   -4.1820   23.7000 C   0  0  0  0  0  3  0  0  0  0  0  0
  -21.8770   -4.9710   22.5440 C   0  0  0  0  0  0  0  0  0  0  0  0
  -22.2530   -4.3960   21.3760 F   0  0  0  0  0  0  0  0  0  0  0  0
  -21.2020   -4.0080   26.0190 F   0  0  0  0  0  0  0  0  0  0  0  0
  -22.9720  -13.6830   21.1520 C   0  0  0  0  0  0  0  0  0  0  0  0
  -22.2650  -12.9960   22.0430 N   0  0  0  0  0  0  0  0  0  0  0  0
  -22.5430  -14.7320   20.6720 O   0  0  0  0  0  0  0  0  0  0  0  0
  -22.6250  -12.1460   22.4520 H   0  0  0  0  0  0  0  0  0  0  0  0
  -21.3500  -13.3240   22.3190 H   0  0  0  0  0  0  0  0  0  0  0  0
  -25.6170  -15.2740   20.2290 N   0  0  0  0  0  0  0  0  0  0  0  0
  -24.8840  -15.9560   20.3920 H   0  0  0  0  0  0  0  0  0  0  0  0
  -26.4770  -15.6890   19.8910 H   0  0  0  0  0  0  0  0  0  0  0  0
  1 48  1  0
  2  1  1  0
  2  3  1  0
  4  2  1  0
  5  2  1  0
  6  5  1  0
  6  7  1  0
  8 19  2  0
  9  7  1  0
  9 14  1  0
 10 18  1  0
 10 20  1  0
 11 17  1  0
 11 13  1  0
 12 18  1  0
 13 12  1  0
 14 13  2  0
 15 16  1  0
 15  9  2  0
 16 11  2  0
 17 10  1  0
 18  8  1  0
 20 22  2  0
 21 20  1  0
 23 21  1  0
 24 33  2  0
 24 29  1  0
 25 21  1  0
 25 29  1  0
 26 25  1  0
 27 28  1  0
 27 26  1  0
 28 24  1  0
 29 30  2  0
 30 31  1  0
 32 31  2  0
 33 32  1  0
 34  8  1  0
 34 35  1  0
 34 44  1  0
 35 38  1  0
 36 40  1  0
 36 35  1  0
 37 36  2  0
 40 39  1  0
 42 40  1  0
 42 43  1  0
 42 41  1  0
 44 47  1  1
 44 45  1  0
 46 44  1  0
 51 49  1  0
 51 52  1  0
 52 50  1  0
 53 48  1  0
 53 49  1  0
 53 52  1  0
 54 51  1  0
 54 50  1  0
 54 55  1  0
 56 64  1  0
 57 62  1  0
 58 59  1  0
 58 57  1  0
 60 59  1  0
 60 69  1  0
 60 61  1  0
 62 56  1  0
 62 61  1  0
 63 56  2  0
 64 55  1  0
 64 65  1  0
 66 67  2  0
 67 86  1  0
 68 67  1  0
 68 71  1  0
 69 70  1  0
 69 66  1  0
 70 68  2  0
 71 72  1  0
 72 73  2  0
 74 77  1  0
 74 73  1  0
 75 74  2  0
 76 75  1  0
 76 71  2  0
 77 78  1  0
 78 79  1  0
 79 80  2  0
 81 80  1  0
 81 85  1  0
 82 81  2  0
 83 78  2  0
 83 82  1  0
 84 83  1  0
 86 87  1  0
 87 90  1  0
 87 89  1  0
 88 86  2  0
 91 92  1  0
 91 66  1  0
 93 91  1  0
M  ISO  4   6 101   7 101  56 100  64 100
M  END
>  <TORSDO>  (70) 
F 22

>  <SCORE>  (70) 
-12.933

>  <name>  (70) 
69

>  <ligand_id>  (70) 
69

>  <original_smiles>  (70) 
[H]c1c([H])c([H])c2c(c1[H])C([H])([H])C([H])([H])C([H])([H])C2([H])N([H])C(=O)C1([H])N(C(=O)C([H])(N([H])C(=O)C([H])(N([H])C([H])([H])[H])C([H])([H])[H])C(C([H])([H])[H])(C([H])([H])[H])C([H])([H])[H])C([H])([H])c2c([H])c(OC([H])([H])C([H])([H])[N+]([H])([H])C([H])([H])C([H])([H])C3([H])C([H])([H])C4([H])C([H])(C([H])([H])N([H])C(=O)N5C([H])([H])C([H])([H])C([H])([H])C([H])(n6nc(-c7c([H])c([H])c(Oc8c([H])c([H])c(F)c([H])c8F)c([H])c7[H])c(C(=O)N([H])[H])c6N([H])[H])C5([H])[H])C([H])([H])C34[H])c([H])c([H])c2C1([H])[H]

>  <smiles>  (70) 
[H]c1c([H])c([H])c2c(c1[H])C([H])([H])C([H])([H])C([H])([H])C2([H])N([H])C(=O)C1([H])N(C(=O)C([H])(N([H])C(=O)C([H])(N([H])C([H])([H])[H])C([H])([H])[H])C(C([H])([H])[H])(C([H])([H])[H])C([H])([H])[H])C([H])([H])c2c([H])c(OC([H])([H])C([H])([H])[N+]([H])([H])C([H])([H])C([H])([H])C3([H])C([H])([H])C4([H])C([H])(C([H])([H])N([H])C(=O)N5C([H])([H])C([H])([H])C([H])([H])C([H])(n6nc(-c7c([H])c([H])c(Oc8c([H])c([H])c(F)c([H])c8F)c([H])c7[H])c(C(=O)N([H])[H])c6N([H])[H])C5([H])[H])C([H])([H])C34[H])c([H])c([H])c2C1([H])[H]

$$$$
70:0:0
     RDKit          3D

 92102  0  0  1  0  0  0  0  0999 V2000
  -28.9070  -23.1980   20.4470 C   0  0  0  0  0  3  0  0  0  0  0  0
  -29.2990  -23.3100   21.8680 N   0  0  0  0  0  4  0  0  0  0  0  0
  -28.5130  -23.1840   22.4820 H   0  0  0  0  0  0  0  0  0  0  0  0
  -29.9930  -22.6130   22.0910 H   0  0  0  0  0  0  0  0  0  0  0  0
  -29.6950  -24.2170   22.0540 H   0  0  0  0  0  0  0  0  0  0  0  0
  -28.5830  -21.5330   20.0970 C   0  0  0  0  0  2  0  0  0  0  0  0
  -29.5180  -20.2260   20.5820 C   0  0  0  0  0  0  0  0  0  0  0  0
  -30.4520  -20.6060   21.2910 O   0  0  0  0  0  0  0  0  0  0  0  0
  -30.5440  -15.0600   20.2100 C   0  0  0  0  0  0  0  0  0  0  0  0
  -30.3470  -12.6940   19.2820 C   0  0  0  0  0  2  0  0  0  0  0  0
  -29.4020  -12.6020   18.0650 C   0  0  0  0  0  2  0  0  0  0  0  0
  -27.9540  -12.3820   18.5320 C   0  0  0  0  0  2  0  0  0  0  0  0
  -27.5590  -13.3280   19.6980 C   0  0  0  0  0  3  0  0  0  0  0  0
  -28.6360  -13.4120   20.8000 C   0  0  0  0  0  2  0  0  0  0  0  0
  -29.8770  -13.8290   20.1390 N   0  0  0  0  0  0  0  0  0  0  0  0
  -31.7500  -14.9860   19.9510 O   0  0  0  0  0  0  0  0  0  0  0  0
  -31.7940  -17.9110   20.3600 C   0  0  0  0  0  2  0  0  0  0  0  0
  -31.2580  -17.6470   21.7580 C   0  0  0  0  0  2  0  0  0  0  0  0
  -29.3100  -18.5560   20.2760 C   0  0  0  0  0  3  0  0  0  0  0  0
  -30.4690  -17.6650   19.6290 C   0  0  1  0  0  0  0  0  0  0  0  0
  -29.8070  -17.4310   21.3290 C   0  0  2  0  0  0  0  0  0  0  0  0
  -29.8910  -16.3650   20.2320 N   0  0  0  0  0  0  0  0  0  0  0  0
  -25.2050  -13.8930   20.5090 C   0  0  0  0  0  0  0  0  0  0  0  0
  -24.1470  -13.1150   20.8880 C   0  0  0  0  0  0  0  0  0  0  0  0
  -24.6090  -11.7630   20.8300 C   0  0  0  0  0  0  0  0  0  0  0  0
  -26.2390  -13.0180   20.2320 N   0  0  0  0  0  0  0  0  0  0  0  0
  -25.8930  -11.7290   20.4940 N   0  0  0  0  0  0  0  0  0  0  0  0
  -23.8810  -10.5000   21.0170 C   0  0  0  0  0  0  0  0  0  0  0  0
  -24.3110   -9.5300   21.9490 C   0  0  0  0  0  3  0  0  0  0  0  0
  -23.5810   -8.3350   22.1250 C   0  0  0  0  0  3  0  0  0  0  0  0
  -22.4080   -8.0990   21.3690 C   0  0  0  0  0  0  0  0  0  0  0  0
  -21.9980   -9.0580   20.4250 C   0  0  0  0  0  3  0  0  0  0  0  0
  -22.7280  -10.2450   20.2470 C   0  0  0  0  0  3  0  0  0  0  0  0
  -21.6510   -6.9560   21.4550 O   0  0  0  0  0  0  0  0  0  0  0  0
  -21.5800   -6.2250   22.6140 C   0  0  0  0  0  0  0  0  0  0  0  0
  -21.1210   -6.7890   23.8240 C   0  0  0  0  0  3  0  0  0  0  0  0
  -20.9980   -5.9840   24.9730 C   0  0  0  0  0  3  0  0  0  0  0  0
  -21.3230   -4.6160   24.9140 C   0  0  0  0  0  0  0  0  0  0  0  0
  -21.7760   -4.0520   23.7080 C   0  0  0  0  0  3  0  0  0  0  0  0
  -21.9000   -4.8530   22.5610 C   0  0  0  0  0  0  0  0  0  0  0  0
  -22.3160   -4.3000   21.3970 F   0  0  0  0  0  0  0  0  0  0  0  0
  -21.1980   -3.8410   26.0170 F   0  0  0  0  0  0  0  0  0  0  0  0
  -22.7580  -13.5930   21.1900 C   0  0  0  0  0  0  0  0  0  0  0  0
  -22.0440  -12.8890   22.0610 N   0  0  0  0  0  0  0  0  0  0  0  0
  -22.3150  -14.6250   20.6890 O   0  0  0  0  0  0  0  0  0  0  0  0
  -22.4170  -12.0520   22.4870 H   0  0  0  0  0  0  0  0  0  0  0  0
  -21.1110  -13.1900   22.3060 H   0  0  0  0  0  0  0  0  0  0  0  0
  -25.3710  -15.2660   20.3490 N   0  0  0  0  0  0  0  0  0  0  0  0
  -24.6150  -15.9260   20.4930 H   0  0  0  0  0  0  0  0  0  0  0  0
  -26.2270  -15.7060   20.0330 H   0  0  0  0  0  0  0  0  0  0  0  0
  -27.9290  -24.5620   20.0840 C   0  0  0  0  0  2  0  0  0  0  0  0
  -28.2080  -26.1060   20.3080 O   0  0  0  0  0  0  0  0  0  0  0  0
  -24.6350  -31.8950   23.2540 C   0  0  0  0  0  0  0  0  0  0  0  0
  -27.1760  -27.1280   20.2280 C   0  0  0  0  0  0  0  0  0  0  0  0
  -23.4290  -30.5060   21.6160 C   0  0  0  0  0  3  0  0  0  0  0  0
  -24.8680  -28.9210   20.1880 C   0  0  0  0  0  0  0  0  0  0  0  0
  -25.9880  -30.7470   21.4550 C   0  0  0  0  0  2  0  0  0  0  0  0
  -26.0530  -29.3500   20.8000 C   0  0  0  0  0  0  0  0  0  0  0  0
  -27.2070  -28.4710   20.8010 C   0  0  0  0  0  3  0  0  0  0  0  0
  -25.9680  -26.8160   19.5700 C   0  0  0  0  0  3  0  0  0  0  0  0
  -24.8420  -27.6690   19.5540 C   0  0  0  0  0  3  0  0  0  0  0  0
  -23.6480  -29.8290   20.2370 C   0  0  0  0  0  2  0  0  0  0  0  0
  -24.7050  -31.0720   22.1630 N   0  0  0  0  0  0  0  0  0  0  0  0
  -23.5490  -32.1860   23.7810 O   0  0  0  0  0  0  0  0  0  0  0  0
  -22.7430  -29.5040   22.5780 C   0  0  0  0  0  0  0  0  0  0  0  0
  -21.4130  -29.3410   22.4520 N   0  0  0  0  0  0  0  0  0  0  0  0
  -23.4100  -28.8750   23.4030 O   0  0  0  0  0  0  0  0  0  0  0  0
  -20.9310  -29.9000   21.7620 H   0  0  0  0  0  0  0  0  0  0  0  0
  -18.0260  -28.1570   22.9560 C   0  0  0  0  0  0  0  0  0  0  0  0
  -20.5860  -28.4090   23.2230 C   0  0  0  0  0  3  0  0  0  0  0  0
  -20.6810  -26.9760   22.6510 C   0  0  0  0  0  2  0  0  0  0  0  0
  -19.5780  -26.6560   21.6360 C   0  0  0  0  0  2  0  0  0  0  0  0
  -18.1970  -26.8070   22.2800 C   0  0  0  0  0  2  0  0  0  0  0  0
  -19.1480  -28.9160   23.3850 C   0  0  0  0  0  0  0  0  0  0  0  0
  -18.9320  -30.1780   23.9810 C   0  0  0  0  0  3  0  0  0  0  0  0
  -17.6280  -30.6820   24.1490 C   0  0  0  0  0  3  0  0  0  0  0  0
  -16.5220  -29.9210   23.7350 C   0  0  0  0  0  3  0  0  0  0  0  0
  -16.7210  -28.6600   23.1450 C   0  0  0  0  0  3  0  0  0  0  0  0
  -25.9140  -32.5270   23.8830 C   0  0  0  0  0  3  0  0  0  0  0  0
  -26.4210  -31.7560   25.1640 C   0  0  1  0  0  0  0  0  0  0  0  0
  -25.3200  -31.5270   26.2280 C   0  0  0  0  0  1  0  0  0  0  0  0
  -26.9980  -30.3740   24.7840 C   0  0  0  0  0  1  0  0  0  0  0  0
  -27.5720  -32.5460   25.8290 C   0  0  0  0  0  1  0  0  0  0  0  0
  -25.6060  -33.9270   24.2170 N   0  0  0  0  0  0  0  0  0  0  0  0
  -25.9230  -34.9830   23.4570 C   0  0  0  0  0  0  0  0  0  0  0  0
  -26.5700  -34.8820   22.4110 O   0  0  0  0  0  0  0  0  0  0  0  0
  -25.0280  -34.0780   25.0300 H   0  0  0  0  0  0  0  0  0  0  0  0
  -24.1760  -36.7730   23.1620 C   0  0  0  0  0  1  0  0  0  0  0  0
  -25.4480  -36.3730   23.9290 C   0  0  0  0  0  3  0  0  0  0  0  0
  -27.6050  -37.2720   24.6840 C   0  0  0  0  0  1  0  0  0  0  0  0
  -26.4720  -37.4290   23.7760 N   0  0  0  0  0  0  0  0  0  0  0  0
  -26.0670  -38.3490   23.9310 H   0  0  0  0  0  0  0  0  0  0  0  0
  1 51  1  0
  1  2  1  0
  2  5  1  0
  2  4  1  0
  2  3  1  0
  6  1  1  0
  6  7  1  0
  7  8  2  0
  9 22  1  0
 10 15  1  0
 11 12  1  0
 11 10  1  0
 13 12  1  0
 13 26  1  0
 13 14  1  0
 15  9  1  0
 15 14  1  0
 16  9  2  0
 17 18  1  0
 19  7  1  0
 19 21  1  0
 20 22  1  0
 20 19  1  0
 20 17  1  6
 20 21  1  0
 21 18  1  1
 22 21  1  0
 23 24  2  0
 24 43  1  0
 25 24  1  0
 25 28  1  0
 26 27  1  0
 26 23  1  0
 27 25  2  0
 28 29  1  0
 29 30  2  0
 31 34  1  0
 31 30  1  0
 32 31  2  0
 33 32  1  0
 33 28  2  0
 34 35  1  0
 35 36  1  0
 36 37  2  0
 38 37  1  0
 38 42  1  0
 39 38  2  0
 40 35  2  0
 40 39  1  0
 41 40  1  0
 43 44  1  0
 44 47  1  0
 44 46  1  0
 45 43  2  0
 48 49  1  0
 48 23  1  0
 50 48  1  0
 51 52  1  0
 53 64  2  0
 54 52  1  0
 54 59  1  0
 55 63  1  0
 55 65  1  0
 56 62  1  0
 56 58  1  0
 57 63  1  0
 58 59  2  0
 58 57  1  0
 60 54  2  0
 61 60  1  0
 61 56  2  0
 62 55  1  0
 63 53  1  0
 65 67  2  0
 66 65  1  0
 68 66  1  0
 69 78  2  0
 69 74  1  0
 70 66  1  0
 70 74  1  0
 71 70  1  0
 72 73  1  0
 72 71  1  0
 73 69  1  0
 74 75  2  0
 75 76  1  0
 77 76  2  0
 78 77  1  0
 79 53  1  0
 79 84  1  0
 79 80  1  0
 80 83  1  1
 80 81  1  0
 82 80  1  0
 84 87  1  0
 85 89  1  0
 85 84  1  0
 86 85  2  0
 89 88  1  0
 91 89  1  0
 91 92  1  0
 91 90  1  0
M  ISO  4   9 100  22 100  51 101  52 101
M  END
>  <TORSDO>  (71) 
F 20

>  <SCORE>  (71) 
-16.241

>  <name>  (71) 
70

>  <ligand_id>  (71) 
70

>  <original_smiles>  (71) 
[H]c1c([H])c([H])c2c(c1[H])C([H])([H])C([H])([H])C([H])([H])C2([H])N([H])C(=O)C1([H])N(C(=O)C([H])(N([H])C(=O)C([H])(N([H])C([H])([H])[H])C([H])([H])[H])C(C([H])([H])[H])(C([H])([H])[H])C([H])([H])[H])C([H])([H])c2c([H])c(OC([H])([H])C([H])(C([H])([H])C(=O)C3([H])C4([H])N(C(=O)N5C([H])([H])C([H])([H])C([H])([H])C([H])(n6nc(-c7c([H])c([H])c(Oc8c([H])c([H])c(F)c([H])c8F)c([H])c7[H])c(C(=O)N([H])[H])c6N([H])[H])C5([H])[H])C3([H])C([H])([H])C4([H])[H])[N+]([H])([H])[H])c([H])c([H])c2C1([H])[H]

>  <smiles>  (71) 
[H]c1c([H])c([H])c2c(c1[H])C([H])([H])C([H])([H])C([H])([H])C2([H])N([H])C(=O)C1([H])N(C(=O)C([H])(N([H])C(=O)C([H])(N([H])C([H])([H])[H])C([H])([H])[H])C(C([H])([H])[H])(C([H])([H])[H])C([H])([H])[H])C([H])([H])c2c([H])c(OC([H])([H])C([H])(C([H])([H])C(=O)C3([H])C4([H])N(C(=O)N5C([H])([H])C([H])([H])C([H])([H])C([H])(n6nc(-c7c([H])c([H])c(Oc8c([H])c([H])c(F)c([H])c8F)c([H])c7[H])c(C(=O)N([H])[H])c6N([H])[H])C5([H])[H])C3([H])C([H])([H])C4([H])[H])[N+]([H])([H])[H])c([H])c([H])c2C1([H])[H]

$$$$
71:0:0
     RDKit          3D

 94103  0  0  1  0  0  0  0  0999 V2000
  -29.2520  -20.3750   20.9010 C   0  0  0  0  0  2  0  0  0  0  0  0
  -31.1690  -17.7160   19.4640 C   0  0  0  0  0  0  0  0  0  0  0  0
  -30.7990  -18.8560   18.5340 C   0  0  0  0  0  2  0  0  0  0  0  0
  -29.9140  -16.8790   19.6280 C   0  0  0  0  0  3  0  0  0  0  0  0
  -29.2830  -18.9600   18.6370 C   0  0  0  0  0  3  0  0  0  0  0  0
  -28.7510  -17.9090   19.6120 C   0  0  0  0  0  3  0  0  0  0  0  0
  -28.5850  -19.4550   19.8550 C   0  0  0  0  0  3  0  0  0  0  0  0
  -32.2940  -17.5640   20.0170 N   0  0  0  0  0  0  0  0  0  0  0  0
  -32.9620  -18.2630   19.7170 H   0  0  0  0  0  0  0  0  0  0  0  0
  -30.6520  -14.5530   20.3540 C   0  0  0  0  0  0  0  0  0  0  0  0
  -30.3500  -12.3330   19.3500 C   0  0  0  0  0  2  0  0  0  0  0  0
  -29.4310  -12.5250   18.1260 C   0  0  0  0  0  2  0  0  0  0  0  0
  -27.9530  -12.4020   18.5470 C   0  0  0  0  0  2  0  0  0  0  0  0
  -27.6060  -13.2640   19.7890 C   0  0  0  0  0  3  0  0  0  0  0  0
  -28.6570  -13.1020   20.9140 C   0  0  0  0  0  2  0  0  0  0  0  0
  -29.9820  -13.3640   20.3390 N   0  0  0  0  0  0  0  0  0  0  0  0
  -31.8150  -14.6270   19.9720 O   0  0  0  0  0  0  0  0  0  0  0  0
  -29.8870  -15.6690   20.5150 N   0  0  0  0  0  0  0  0  0  0  0  0
  -28.9750  -15.4770   20.8980 H   0  0  0  0  0  0  0  0  0  0  0  0
  -25.2120  -13.8820   20.4950 C   0  0  0  0  0  0  0  0  0  0  0  0
  -24.1380  -13.1190   20.8640 C   0  0  0  0  0  0  0  0  0  0  0  0
  -24.5920  -11.7630   20.8470 C   0  0  0  0  0  0  0  0  0  0  0  0
  -26.2540  -12.9950   20.2710 N   0  0  0  0  0  0  0  0  0  0  0  0
  -25.8860  -11.7180   20.5470 N   0  0  0  0  0  0  0  0  0  0  0  0
  -23.8610  -10.5050   21.0450 C   0  0  0  0  0  0  0  0  0  0  0  0
  -24.2970   -9.5350   21.9750 C   0  0  0  0  0  3  0  0  0  0  0  0
  -23.5660   -8.3410   22.1590 C   0  0  0  0  0  3  0  0  0  0  0  0
  -22.3850   -8.1090   21.4140 C   0  0  0  0  0  0  0  0  0  0  0  0
  -21.9680   -9.0690   20.4770 C   0  0  0  0  0  3  0  0  0  0  0  0
  -22.6980  -10.2550   20.2890 C   0  0  0  0  0  3  0  0  0  0  0  0
  -21.6230   -6.9680   21.5070 O   0  0  0  0  0  0  0  0  0  0  0  0
  -21.5970   -6.2150   22.6520 C   0  0  0  0  0  0  0  0  0  0  0  0
  -21.2190   -6.7650   23.8960 C   0  0  0  0  0  3  0  0  0  0  0  0
  -21.1360   -5.9390   25.0360 C   0  0  0  0  0  3  0  0  0  0  0  0
  -21.4210   -4.5650   24.9310 C   0  0  0  0  0  0  0  0  0  0  0  0
  -21.7910   -4.0140   23.6930 C   0  0  0  0  0  3  0  0  0  0  0  0
  -21.8770   -4.8380   22.5560 C   0  0  0  0  0  0  0  0  0  0  0  0
  -22.2150   -4.2990   21.3590 F   0  0  0  0  0  0  0  0  0  0  0  0
  -21.3340   -3.7680   26.0230 F   0  0  0  0  0  0  0  0  0  0  0  0
  -22.7430  -13.6060   21.1230 C   0  0  0  0  0  0  0  0  0  0  0  0
  -22.0030  -12.9190   21.9890 N   0  0  0  0  0  0  0  0  0  0  0  0
  -22.3130  -14.6300   20.5940 O   0  0  0  0  0  0  0  0  0  0  0  0
  -22.3570  -12.0820   22.4270 H   0  0  0  0  0  0  0  0  0  0  0  0
  -21.0730  -13.2370   22.2180 H   0  0  0  0  0  0  0  0  0  0  0  0
  -25.3820  -15.2500   20.3040 N   0  0  0  0  0  0  0  0  0  0  0  0
  -24.6150  -15.9080   20.4030 H   0  0  0  0  0  0  0  0  0  0  0  0
  -26.2260  -15.6810   19.9510 H   0  0  0  0  0  0  0  0  0  0  0  0
  -29.2840  -21.8460   20.5650 N   0  0  0  0  0  4  0  0  0  0  0  0
  -29.7410  -21.9700   19.6770 H   0  0  0  0  0  0  0  0  0  0  0  0
  -29.8860  -22.2660   21.2560 H   0  0  0  0  0  0  0  0  0  0  0  0
  -28.0010  -22.6240   20.5780 C   0  0  0  0  0  2  0  0  0  0  0  0
  -28.0940  -24.1660   20.9370 C   0  0  0  0  0  3  0  0  0  0  0  0
  -28.4280  -25.2080   19.8120 C   0  0  0  0  0  3  0  0  0  0  0  0
  -28.3890  -26.6180   20.2110 O   0  0  0  0  0  0  0  0  0  0  0  0
  -24.5930  -31.8830   23.2320 C   0  0  0  0  0  0  0  0  0  0  0  0
  -27.2160  -27.3690   20.1760 C   0  0  0  0  0  0  0  0  0  0  0  0
  -23.3820  -30.4800   21.6010 C   0  0  0  0  0  3  0  0  0  0  0  0
  -24.8270  -28.9320   20.1700 C   0  0  0  0  0  0  0  0  0  0  0  0
  -25.9160  -30.8150   21.4020 C   0  0  0  0  0  2  0  0  0  0  0  0
  -25.9930  -29.4410   20.7560 C   0  0  0  0  0  0  0  0  0  0  0  0
  -27.1850  -28.6730   20.7470 C   0  0  0  0  0  3  0  0  0  0  0  0
  -26.0260  -26.8900   19.5840 C   0  0  0  0  0  3  0  0  0  0  0  0
  -24.8440  -27.6580   19.5750 C   0  0  0  0  0  3  0  0  0  0  0  0
  -23.5830  -29.7970   20.2220 C   0  0  0  0  0  2  0  0  0  0  0  0
  -24.6490  -31.0740   22.1350 N   0  0  0  0  0  0  0  0  0  0  0  0
  -23.5130  -32.1610   23.7730 O   0  0  0  0  0  0  0  0  0  0  0  0
  -22.7320  -29.4610   22.5650 C   0  0  0  0  0  0  0  0  0  0  0  0
  -21.4080  -29.2750   22.4350 N   0  0  0  0  0  0  0  0  0  0  0  0
  -23.4160  -28.8390   23.3830 O   0  0  0  0  0  0  0  0  0  0  0  0
  -20.9190  -29.8240   21.7420 H   0  0  0  0  0  0  0  0  0  0  0  0
  -18.0350  -28.0800   22.9480 C   0  0  0  0  0  0  0  0  0  0  0  0
  -20.5930  -28.3410   23.2110 C   0  0  0  0  0  3  0  0  0  0  0  0
  -20.6960  -26.9100   22.6380 C   0  0  0  0  0  2  0  0  0  0  0  0
  -19.5900  -26.5840   21.6270 C   0  0  0  0  0  2  0  0  0  0  0  0
  -18.2090  -26.7290   22.2730 C   0  0  0  0  0  2  0  0  0  0  0  0
  -19.1540  -28.8440   23.3730 C   0  0  0  0  0  0  0  0  0  0  0  0
  -18.9350  -30.1090   23.9600 C   0  0  0  0  0  3  0  0  0  0  0  0
  -17.6300  -30.6090   24.1250 C   0  0  0  0  0  3  0  0  0  0  0  0
  -16.5260  -29.8420   23.7160 C   0  0  0  0  0  3  0  0  0  0  0  0
  -16.7290  -28.5790   23.1320 C   0  0  0  0  0  3  0  0  0  0  0  0
  -25.8790  -32.5160   23.8470 C   0  0  0  0  0  3  0  0  0  0  0  0
  -25.5690  -33.9120   24.1810 N   0  0  0  0  0  0  0  0  0  0  0  0
  -25.8940  -34.9680   23.4220 C   0  0  0  0  0  0  0  0  0  0  0  0
  -26.5610  -34.8680   22.3900 O   0  0  0  0  0  0  0  0  0  0  0  0
  -24.9780  -34.0640   24.9850 H   0  0  0  0  0  0  0  0  0  0  0  0
  -24.1580  -36.7520   23.0720 C   0  0  0  0  0  1  0  0  0  0  0  0
  -25.4030  -36.3540   23.8810 C   0  0  0  0  0  3  0  0  0  0  0  0
  -27.5370  -37.2410   24.7060 C   0  0  0  0  0  1  0  0  0  0  0  0
  -26.4320  -37.4110   23.7660 N   0  0  0  0  0  0  0  0  0  0  0  0
  -26.0250  -38.3300   23.9150 H   0  0  0  0  0  0  0  0  0  0  0  0
  -26.4010  -31.7450   25.1210 C   0  0  1  0  0  0  0  0  0  0  0  0
  -25.3110  -31.5050   26.1930 C   0  0  0  0  0  1  0  0  0  0  0  0
  -26.9840  -30.3680   24.7300 C   0  0  0  0  0  1  0  0  0  0  0  0
  -27.5520  -32.5410   25.7780 C   0  0  0  0  0  1  0  0  0  0  0  0
  2  4  1  0
  2  8  2  0
  3  2  1  0
  4 18  1  0
  5  3  1  0
  5  6  1  0
  5  7  1  0
  6  4  1  0
  6  7  1  0
  7  1  1  0
  9  8  1  0
 10 18  1  0
 11 16  1  0
 12 13  1  0
 12 11  1  0
 13 14  1  0
 14 23  1  0
 14 15  1  0
 16 10  1  0
 16 15  1  0
 17 10  2  0
 18 19  1  0
 20 21  2  0
 21 40  1  0
 22 21  1  0
 22 25  1  0
 23 20  1  0
 23 24  1  0
 24 22  2  0
 25 26  1  0
 26 27  2  0
 28 31  1  0
 28 27  1  0
 29 28  2  0
 30 29  1  0
 30 25  2  0
 31 32  1  0
 32 33  1  0
 33 34  2  0
 35 34  1  0
 35 39  1  0
 36 35  2  0
 37 32  2  0
 37 36  1  0
 38 37  1  0
 40 41  1  0
 41 44  1  0
 41 43  1  0
 42 40  2  0
 45 46  1  0
 45 20  1  0
 47 45  1  0
 48 51  1  0
 48  1  1  0
 48 50  1  0
 49 48  1  0
 51 52  1  0
 53 54  1  0
 53 52  2  0
 55 66  2  0
 55 81  1  0
 56 54  1  0
 56 61  1  0
 57 65  1  0
 57 67  1  0
 58 64  1  0
 58 60  1  0
 59 65  1  0
 60 59  1  0
 61 60  2  0
 62 56  2  0
 63 62  1  0
 63 58  2  0
 64 57  1  0
 65 55  1  0
 67 69  2  0
 68 67  1  0
 68 72  1  0
 70 68  1  0
 71 80  2  0
 71 76  1  0
 72 76  1  0
 73 72  1  0
 74 75  1  0
 74 73  1  0
 75 71  1  0
 76 77  2  0
 77 78  1  0
 79 78  2  0
 80 79  1  0
 81 82  1  0
 81 91  1  0
 82 85  1  0
 83 87  1  0
 83 82  1  0
 84 83  2  0
 86 87  1  0
 89 87  1  0
 89 90  1  0
 89 88  1  0
 91 94  1  1
 91 92  1  0
 93 91  1  0
M  ISO  4  10 100  18 100  53 101  54 101
M  END
>  <TORSDO>  (72) 
F 21

>  <SCORE>  (72) 
-13.626

>  <name>  (72) 
71

>  <ligand_id>  (72) 
71

>  <original_smiles>  (72) 
[H]N=C1C([H])([H])C2([H])C([H])(C1([H])N([H])C(=O)N1C([H])([H])C([H])([H])C([H])([H])C([H])(n3nc(-c4c([H])c([H])c(Oc5c([H])c([H])c(F)c([H])c5F)c([H])c4[H])c(C(=O)N([H])[H])c3N([H])[H])C1([H])[H])C2([H])C([H])([H])[N+]([H])([H])C([H])([H])C([H])([H])C([H])([H])Oc1c([H])c([H])c2c(c1[H])C([H])([H])N(C(=O)C([H])(N([H])C(=O)C([H])(N([H])C([H])([H])[H])C([H])([H])[H])C(C([H])([H])[H])(C([H])([H])[H])C([H])([H])[H])C([H])(C(=O)N([H])C1([H])c3c([H])c([H])c([H])c([H])c3C([H])([H])C([H])([H])C1([H])[H])C2([H])[H]

>  <smiles>  (72) 
[H]N=C1C([H])([H])C2([H])C([H])(C1([H])N([H])C(=O)N1C([H])([H])C([H])([H])C([H])([H])C([H])(n3nc(-c4c([H])c([H])c(Oc5c([H])c([H])c(F)c([H])c5F)c([H])c4[H])c(C(=O)N([H])[H])c3N([H])[H])C1([H])[H])C2([H])C([H])([H])[N+]([H])([H])C([H])([H])C([H])([H])C([H])([H])Oc1c([H])c([H])c2c(c1[H])C([H])([H])N(C(=O)C([H])(N([H])C(=O)C([H])(N([H])C([H])([H])[H])C([H])([H])[H])C(C([H])([H])[H])(C([H])([H])[H])C([H])([H])[H])C([H])(C(=O)N([H])C1([H])c3c([H])c([H])c([H])c([H])c3C([H])([H])C([H])([H])C1([H])[H])C2([H])[H]

$$$$
72:0:0
     RDKit          3D

 97105  0  0  1  0  0  0  0  0999 V2000
  -29.5030  -20.6830   21.4730 C   0  0  0  0  0  2  0  0  0  0  0  0
  -30.1750  -20.7460   19.0000 C   0  0  0  0  0  2  0  0  0  0  0  0
  -28.5290  -21.8820   21.1420 C   0  0  0  0  0  2  0  0  0  0  0  0
  -29.0810  -21.8390   18.8390 C   0  0  0  0  0  2  0  0  0  0  0  0
  -30.2290  -19.8760   20.3150 C   0  0  1  0  0  0  0  0  0  0  0  0
  -28.9950  -22.7470   20.0170 N   0  0  1  0  0  4  0  0  0  0  0  0
  -29.9390  -23.0340   20.2300 H   0  0  0  0  0  0  0  0  0  0  0  0
  -31.7440  -19.7920   20.7020 C   0  0  0  0  0  2  0  0  0  0  0  0
  -32.6990  -19.2130   19.6280 C   0  0  0  0  0  2  0  0  0  0  0  0
  -34.1150  -18.9560   20.1780 C   0  0  0  0  0  2  0  0  0  0  0  0
  -35.0100  -18.3750   19.1640 N   0  0  0  0  0  4  0  0  0  0  0  0
  -34.6620  -17.4880   18.8450 H   0  0  0  0  0  0  0  0  0  0  0  0
  -35.9220  -18.2260   19.5580 H   0  0  0  0  0  0  0  0  0  0  0  0
  -35.1090  -18.9890   18.3760 H   0  0  0  0  0  0  0  0  0  0  0  0
  -29.6940  -18.3640   20.1150 C   0  0  0  0  0  3  0  0  0  0  0  0
  -30.2400  -17.1880   21.0530 C   0  0  0  0  0  3  0  0  0  0  0  0
  -30.6110  -14.7020   20.4120 C   0  0  0  0  0  0  0  0  0  0  0  0
  -30.4050  -12.4750   19.3270 C   0  0  0  0  0  2  0  0  0  0  0  0
  -29.4580  -12.5940   18.1140 C   0  0  0  0  0  2  0  0  0  0  0  0
  -27.9880  -12.4230   18.5480 C   0  0  0  0  0  2  0  0  0  0  0  0
  -27.6240  -13.2860   19.7860 C   0  0  0  0  0  3  0  0  0  0  0  0
  -28.6840  -13.1410   20.9000 C   0  0  0  0  0  2  0  0  0  0  0  0
  -29.9860  -13.4900   20.3130 N   0  0  0  0  0  0  0  0  0  0  0  0
  -31.7810  -14.8560   20.0490 O   0  0  0  0  0  0  0  0  0  0  0  0
  -29.8310  -15.7700   20.7660 N   0  0  0  0  0  0  0  0  0  0  0  0
  -28.8720  -15.5390   20.9780 H   0  0  0  0  0  0  0  0  0  0  0  0
  -25.2280  -13.8660   20.5060 C   0  0  0  0  0  0  0  0  0  0  0  0
  -24.1680  -13.0830   20.8770 C   0  0  0  0  0  0  0  0  0  0  0  0
  -24.6420  -11.7370   20.8490 C   0  0  0  0  0  0  0  0  0  0  0  0
  -26.2800  -12.9940   20.2730 N   0  0  0  0  0  0  0  0  0  0  0  0
  -25.9320  -11.7090   20.5410 N   0  0  0  0  0  0  0  0  0  0  0  0
  -23.9270  -10.4680   21.0400 C   0  0  0  0  0  0  0  0  0  0  0  0
  -24.3690   -9.5050   21.9740 C   0  0  0  0  0  3  0  0  0  0  0  0
  -23.6540   -8.3010   22.1530 C   0  0  0  0  0  3  0  0  0  0  0  0
  -22.4830   -8.0520   21.3970 C   0  0  0  0  0  0  0  0  0  0  0  0
  -22.0610   -9.0040   20.4530 C   0  0  0  0  0  3  0  0  0  0  0  0
  -22.7760  -10.1990   20.2730 C   0  0  0  0  0  3  0  0  0  0  0  0
  -21.7390   -6.9010   21.4860 O   0  0  0  0  0  0  0  0  0  0  0  0
  -21.6960   -6.1580   22.6390 C   0  0  0  0  0  0  0  0  0  0  0  0
  -21.2570   -6.7080   23.8630 C   0  0  0  0  0  3  0  0  0  0  0  0
  -21.1620   -5.8910   25.0070 C   0  0  0  0  0  3  0  0  0  0  0  0
  -21.4960   -4.5250   24.9280 C   0  0  0  0  0  0  0  0  0  0  0  0
  -21.9280   -3.9750   23.7090 C   0  0  0  0  0  3  0  0  0  0  0  0
  -22.0250   -4.7890   22.5660 C   0  0  0  0  0  0  0  0  0  0  0  0
  -22.4210   -4.2500   21.3890 F   0  0  0  0  0  0  0  0  0  0  0  0
  -21.3980   -3.7390   26.0250 F   0  0  0  0  0  0  0  0  0  0  0  0
  -22.7660  -13.5490   21.1470 C   0  0  0  0  0  0  0  0  0  0  0  0
  -22.0420  -12.8450   22.0100 N   0  0  0  0  0  0  0  0  0  0  0  0
  -22.3210  -14.5720   20.6280 O   0  0  0  0  0  0  0  0  0  0  0  0
  -22.4140  -12.0170   22.4500 H   0  0  0  0  0  0  0  0  0  0  0  0
  -21.1010  -13.1380   22.2330 H   0  0  0  0  0  0  0  0  0  0  0  0
  -25.3800  -15.2370   20.3250 N   0  0  0  0  0  0  0  0  0  0  0  0
  -24.6030  -15.8820   20.4280 H   0  0  0  0  0  0  0  0  0  0  0  0
  -26.2150  -15.6820   19.9680 H   0  0  0  0  0  0  0  0  0  0  0  0
  -28.2140  -24.0310   19.7230 C   0  0  0  0  0  2  0  0  0  0  0  0
  -28.3190  -25.2460   20.7370 C   0  0  0  0  0  2  0  0  0  0  0  0
  -28.3440  -26.6220   20.2050 O   0  0  0  0  0  0  0  0  0  0  0  0
  -24.5810  -31.9590   23.2540 C   0  0  0  0  0  0  0  0  0  0  0  0
  -27.1900  -27.4040   20.2280 C   0  0  0  0  0  0  0  0  0  0  0  0
  -23.3700  -30.5490   21.6250 C   0  0  0  0  0  3  0  0  0  0  0  0
  -24.8150  -28.9800   20.2140 C   0  0  0  0  0  0  0  0  0  0  0  0
  -25.9030  -30.8770   21.4240 C   0  0  0  0  0  2  0  0  0  0  0  0
  -25.9820  -29.4910   20.7950 C   0  0  0  0  0  0  0  0  0  0  0  0
  -27.1740  -28.7170   20.7850 C   0  0  0  0  0  3  0  0  0  0  0  0
  -26.0010  -26.9240   19.6410 C   0  0  0  0  0  3  0  0  0  0  0  0
  -24.8240  -27.7020   19.6290 C   0  0  0  0  0  3  0  0  0  0  0  0
  -23.5790  -29.8540   20.2520 C   0  0  0  0  0  2  0  0  0  0  0  0
  -24.6380  -31.1460   22.1580 N   0  0  0  0  0  0  0  0  0  0  0  0
  -23.5010  -32.2400   23.7920 O   0  0  0  0  0  0  0  0  0  0  0  0
  -22.7110  -29.5420   22.5960 C   0  0  0  0  0  0  0  0  0  0  0  0
  -21.3840  -29.3630   22.4700 N   0  0  0  0  0  0  0  0  0  0  0  0
  -23.3900  -28.9240   23.4200 O   0  0  0  0  0  0  0  0  0  0  0  0
  -20.8970  -29.9130   21.7770 H   0  0  0  0  0  0  0  0  0  0  0  0
  -18.0080  -28.1740   22.9760 C   0  0  0  0  0  0  0  0  0  0  0  0
  -20.5660  -28.4320   23.2480 C   0  0  0  0  0  3  0  0  0  0  0  0
  -20.6670  -26.9970   22.6840 C   0  0  0  0  0  2  0  0  0  0  0  0
  -19.5670  -26.6670   21.6700 C   0  0  0  0  0  2  0  0  0  0  0  0
  -18.1840  -26.8180   22.3110 C   0  0  0  0  0  2  0  0  0  0  0  0
  -19.1260  -28.9380   23.4010 C   0  0  0  0  0  0  0  0  0  0  0  0
  -18.9080  -30.2060   23.9810 C   0  0  0  0  0  3  0  0  0  0  0  0
  -17.6030  -30.7100   24.1410 C   0  0  0  0  0  3  0  0  0  0  0  0
  -16.4990  -29.9420   23.7330 C   0  0  0  0  0  3  0  0  0  0  0  0
  -16.7020  -28.6760   23.1560 C   0  0  0  0  0  3  0  0  0  0  0  0
  -25.8680  -32.5920   23.8690 C   0  0  0  0  0  3  0  0  0  0  0  0
  -26.3870  -31.8270   25.1480 C   0  0  1  0  0  0  0  0  0  0  0  0
  -25.2960  -31.5950   26.2200 C   0  0  0  0  0  1  0  0  0  0  0  0
  -26.9670  -30.4470   24.7600 C   0  0  0  0  0  1  0  0  0  0  0  0
  -27.5390  -32.6230   25.8030 C   0  0  0  0  0  1  0  0  0  0  0  0
  -25.5630  -33.9930   24.1930 N   0  0  0  0  0  0  0  0  0  0  0  0
  -25.9010  -35.0420   23.4310 C   0  0  0  0  0  0  0  0  0  0  0  0
  -26.5720  -34.9310   22.4010 O   0  0  0  0  0  0  0  0  0  0  0  0
  -24.9680  -34.1530   24.9930 H   0  0  0  0  0  0  0  0  0  0  0  0
  -24.1850  -36.8420   23.0610 C   0  0  0  0  0  1  0  0  0  0  0  0
  -25.4180  -36.4340   23.8820 C   0  0  0  0  0  3  0  0  0  0  0  0
  -27.5500  -37.3090   24.7270 C   0  0  0  0  0  1  0  0  0  0  0  0
  -26.4570  -37.4810   23.7740 N   0  0  0  0  0  0  0  0  0  0  0  0
  -26.0540  -38.4040   23.9150 H   0  0  0  0  0  0  0  0  0  0  0  0
  2  5  1  0
  3  1  1  0
  4  2  1  0
  4  6  1  0
  5 15  1  0
  5  8  1  1
  5  1  1  0
  6  7  1  1
  6  3  1  0
  9 10  1  0
  9  8  1  0
 11 13  1  0
 11 10  1  0
 12 11  1  0
 14 11  1  0
 15 16  2  0
 17 25  1  0
 18 23  1  0
 19 20  1  0
 19 18  1  0
 21 20  1  0
 21 30  1  0
 21 22  1  0
 23 17  1  0
 23 22  1  0
 24 17  2  0
 25 26  1  0
 25 16  1  0
 27 28  2  0
 28 47  1  0
 29 28  1  0
 29 32  1  0
 30 27  1  0
 30 31  1  0
 31 29  2  0
 32 33  1  0
 33 34  2  0
 35 38  1  0
 35 34  1  0
 36 35  2  0
 37 36  1  0
 37 32  2  0
 38 39  1  0
 39 40  1  0
 40 41  2  0
 42 41  1  0
 42 46  1  0
 43 42  2  0
 44 39  2  0
 44 43  1  0
 45 44  1  0
 47 48  1  0
 48 51  1  0
 48 50  1  0
 49 47  2  0
 52 53  1  0
 52 27  1  0
 54 52  1  0
 55  6  1  0
 55 56  1  0
 57 59  1  0
 57 56  1  0
 58 69  2  0
 59 64  1  0
 60 68  1  0
 60 70  1  0
 61 67  1  0
 61 63  1  0
 62 68  1  0
 63 62  1  0
 64 63  2  0
 65 59  2  0
 66 65  1  0
 66 61  2  0
 67 60  1  0
 68 58  1  0
 70 72  2  0
 71 70  1  0
 73 71  1  0
 74 83  2  0
 74 79  1  0
 75 71  1  0
 75 79  1  0
 76 75  1  0
 77 78  1  0
 77 76  1  0
 78 74  1  0
 79 80  2  0
 80 81  1  0
 82 81  2  0
 83 82  1  0
 84 58  1  0
 84 89  1  0
 84 85  1  0
 85 88  1  1
 85 86  1  0
 87 85  1  0
 89 92  1  0
 90 94  1  0
 90 89  1  0
 91 90  2  0
 94 93  1  0
 96 94  1  0
 96 97  1  0
 96 95  1  0
M  ISO  4  17 100  25 100  56 101  57 101
M  END
>  <TORSDO>  (73) 
F 24

>  <SCORE>  (73) 
-12.815

>  <name>  (73) 
72

>  <ligand_id>  (73) 
72

>  <original_smiles>  (73) 
[H]c1c([H])c([H])c2c(c1[H])C([H])([H])C([H])([H])C([H])([H])C2([H])N([H])C(=O)C1([H])N(C(=O)C([H])(N([H])C(=O)C([H])(N([H])C([H])([H])[H])C([H])([H])[H])C(C([H])([H])[H])(C([H])([H])[H])C([H])([H])[H])C([H])([H])c2c([H])c(OC([H])([H])C([H])([H])[N+]3([H])C([H])([H])C([H])([H])C(C([H])([H])C([H])([H])N([H])C(=O)N4C([H])([H])C([H])([H])C([H])([H])C([H])(n5nc(-c6c([H])c([H])c(Oc7c([H])c([H])c(F)c([H])c7F)c([H])c6[H])c(C(=O)N([H])[H])c5N([H])[H])C4([H])[H])(C([H])([H])C([H])([H])C([H])([H])[N+]([H])([H])[H])C([H])([H])C3([H])[H])c([H])c([H])c2C1([H])[H]

>  <smiles>  (73) 
[H]c1c([H])c([H])c2c(c1[H])C([H])([H])C([H])([H])C([H])([H])C2([H])N([H])C(=O)C1([H])N(C(=O)C([H])(N([H])C(=O)C([H])(N([H])C([H])([H])[H])C([H])([H])[H])C(C([H])([H])[H])(C([H])([H])[H])C([H])([H])[H])C([H])([H])c2c([H])c(OC([H])([H])C([H])([H])[N+]3([H])C([H])([H])C([H])([H])C(C([H])([H])C([H])([H])N([H])C(=O)N4C([H])([H])C([H])([H])C([H])([H])C([H])(n5nc(-c6c([H])c([H])c(Oc7c([H])c([H])c(F)c([H])c7F)c([H])c6[H])c(C(=O)N([H])[H])c5N([H])[H])C4([H])[H])(C([H])([H])C([H])([H])C([H])([H])[N+]([H])([H])[H])C([H])([H])C3([H])[H])c([H])c([H])c2C1([H])[H]

$$$$
73:0:0
     RDKit          3D

 88 97  0  0  1  0  0  0  0  0999 V2000
  -29.4500  -19.0520   21.4890 C   0  0  0  0  0  2  0  0  0  0  0  0
  -29.6680  -21.6400   18.8390 C   0  0  0  0  0  2  0  0  0  0  0  0
  -29.2220  -20.6160   21.6560 C   0  0  0  0  0  2  0  0  0  0  0  0
  -29.8520  -18.7010   20.0280 C   0  0  0  0  0  3  0  0  0  0  0  0
  -29.0800  -20.1960   19.3640 C   0  0  0  0  0  3  0  0  0  0  0  0
  -29.0170  -22.6660   19.9270 C   0  0  0  0  0  3  0  0  0  0  0  0
  -28.5770  -21.2000   20.4360 N   0  0  2  0  0  4  0  0  0  0  0  0
  -27.5730  -21.1410   20.5110 H   0  0  0  0  0  0  0  0  0  0  0  0
  -30.4910  -15.6960   19.7080 C   0  0  0  0  0  0  0  0  0  0  0  0
  -30.4710  -13.1900   18.8950 C   0  0  0  0  0  2  0  0  0  0  0  0
  -29.4720  -12.8350   17.7600 C   0  0  0  0  0  2  0  0  0  0  0  0
  -28.0760  -12.5370   18.3290 C   0  0  0  0  0  2  0  0  0  0  0  0
  -27.6720  -13.5580   19.4190 C   0  0  0  0  0  3  0  0  0  0  0  0
  -28.7940  -13.8220   20.4460 C   0  0  0  0  0  2  0  0  0  0  0  0
  -29.9360  -14.3670   19.6880 N   0  0  0  0  0  0  0  0  0  0  0  0
  -31.7130  -15.6680   19.4920 O   0  0  0  0  0  0  0  0  0  0  0  0
  -29.7160  -17.0010   19.7650 N   0  0  0  0  0  0  0  0  0  0  0  0
  -28.7370  -16.7570   19.7510 H   0  0  0  0  0  0  0  0  0  0  0  0
  -25.3880  -14.1170   20.3950 C   0  0  0  0  0  0  0  0  0  0  0  0
  -24.3470  -13.3430   20.8220 C   0  0  0  0  0  0  0  0  0  0  0  0
  -24.7860  -11.9880   20.7070 C   0  0  0  0  0  0  0  0  0  0  0  0
  -26.3940  -13.2360   20.0380 N   0  0  0  0  0  0  0  0  0  0  0  0
  -26.0490  -11.9470   20.2900 N   0  0  0  0  0  0  0  0  0  0  0  0
  -24.0530  -10.7310   20.9060 C   0  0  0  0  0  0  0  0  0  0  0  0
  -24.4880   -9.7620   21.8360 C   0  0  0  0  0  3  0  0  0  0  0  0
  -23.7530   -8.5710   22.0300 C   0  0  0  0  0  3  0  0  0  0  0  0
  -22.5650   -8.3450   21.2930 C   0  0  0  0  0  0  0  0  0  0  0  0
  -22.1470   -9.3030   20.3530 C   0  0  0  0  0  3  0  0  0  0  0  0
  -22.8840  -10.4840   20.1600 C   0  0  0  0  0  3  0  0  0  0  0  0
  -21.7980   -7.2090   21.3960 O   0  0  0  0  0  0  0  0  0  0  0  0
  -21.6950   -6.5170   22.5740 C   0  0  0  0  0  0  0  0  0  0  0  0
  -21.1330   -7.0950   23.7330 C   0  0  0  0  0  3  0  0  0  0  0  0
  -20.9830   -6.3250   24.9020 C   0  0  0  0  0  3  0  0  0  0  0  0
  -21.3830   -4.9750   24.9120 C   0  0  0  0  0  0  0  0  0  0  0  0
  -21.9370   -4.3950   23.7580 C   0  0  0  0  0  3  0  0  0  0  0  0
  -22.0890   -5.1630   22.5890 C   0  0  0  0  0  0  0  0  0  0  0  0
  -22.6040   -4.5930   21.4750 F   0  0  0  0  0  0  0  0  0  0  0  0
  -21.2310   -4.2320   26.0340 F   0  0  0  0  0  0  0  0  0  0  0  0
  -22.9850  -13.8330   21.2120 C   0  0  0  0  0  0  0  0  0  0  0  0
  -22.3100  -13.1250   22.1110 N   0  0  0  0  0  0  0  0  0  0  0  0
  -22.5290  -14.8820   20.7560 O   0  0  0  0  0  0  0  0  0  0  0  0
  -22.6890  -12.2770   22.5040 H   0  0  0  0  0  0  0  0  0  0  0  0
  -21.4010  -13.4420   22.4130 H   0  0  0  0  0  0  0  0  0  0  0  0
  -25.5560  -15.4910   20.2480 N   0  0  0  0  0  0  0  0  0  0  0  0
  -24.7960  -16.1410   20.4260 H   0  0  0  0  0  0  0  0  0  0  0  0
  -26.3510  -15.9260   19.8030 H   0  0  0  0  0  0  0  0  0  0  0  0
  -28.0020  -24.2390   19.7800 C   0  0  0  0  0  2  0  0  0  0  0  0
  -28.1890  -25.9290   19.9230 O   0  0  0  0  0  0  0  0  0  0  0  0
  -24.6300  -31.8720   23.1550 C   0  0  0  0  0  0  0  0  0  0  0  0
  -27.1700  -27.0580   19.9170 C   0  0  0  0  0  0  0  0  0  0  0  0
  -23.4180  -30.5220   21.4970 C   0  0  0  0  0  3  0  0  0  0  0  0
  -24.8510  -28.9700   19.9820 C   0  0  0  0  0  0  0  0  0  0  0  0
  -25.9830  -30.7420   21.3030 C   0  0  0  0  0  2  0  0  0  0  0  0
  -26.0510  -29.3500   20.5950 C   0  0  0  0  0  0  0  0  0  0  0  0
  -27.2000  -28.4200   20.5330 C   0  0  0  0  0  3  0  0  0  0  0  0
  -25.9310  -26.8550   19.2630 C   0  0  0  0  0  3  0  0  0  0  0  0
  -24.8240  -27.7480   19.2900 C   0  0  0  0  0  3  0  0  0  0  0  0
  -23.6250  -29.8870   20.0930 C   0  0  0  0  0  2  0  0  0  0  0  0
  -24.7020  -31.0750   22.0370 N   0  0  0  0  0  0  0  0  0  0  0  0
  -23.5480  -32.1310   23.7090 O   0  0  0  0  0  0  0  0  0  0  0  0
  -22.7500  -29.4890   22.4420 C   0  0  0  0  0  0  0  0  0  0  0  0
  -21.4300  -29.2660   22.2980 N   0  0  0  0  0  0  0  0  0  0  0  0
  -23.4310  -28.8870   23.2760 O   0  0  0  0  0  0  0  0  0  0  0  0
  -20.9320  -29.8060   21.6030 H   0  0  0  0  0  0  0  0  0  0  0  0
  -18.1050  -27.8750   22.7370 C   0  0  0  0  0  0  0  0  0  0  0  0
  -20.6420  -28.2810   23.0470 C   0  0  0  0  0  3  0  0  0  0  0  0
  -20.8330  -26.8620   22.4640 C   0  0  0  0  0  2  0  0  0  0  0  0
  -19.7700  -26.4870   21.4270 C   0  0  0  0  0  2  0  0  0  0  0  0
  -18.3710  -26.5470   22.0490 C   0  0  0  0  0  2  0  0  0  0  0  0
  -19.1730  -28.6970   23.1910 C   0  0  0  0  0  0  0  0  0  0  0  0
  -18.8720  -29.9360   23.7970 C   0  0  0  0  0  3  0  0  0  0  0  0
  -17.5380  -30.3560   23.9520 C   0  0  0  0  0  3  0  0  0  0  0  0
  -16.4860  -29.5340   23.5130 C   0  0  0  0  0  3  0  0  0  0  0  0
  -16.7700  -28.2950   22.9110 C   0  0  0  0  0  3  0  0  0  0  0  0
  -25.9030  -32.5130   23.7870 C   0  0  0  0  0  3  0  0  0  0  0  0
  -25.5920  -33.9170   24.1190 N   0  0  0  0  0  0  0  0  0  0  0  0
  -25.8930  -34.9760   23.3540 C   0  0  0  0  0  0  0  0  0  0  0  0
  -26.5240  -34.8740   22.2980 O   0  0  0  0  0  0  0  0  0  0  0  0
  -25.0280  -34.0690   24.9430 H   0  0  0  0  0  0  0  0  0  0  0  0
  -24.1400  -36.7680   23.0910 C   0  0  0  0  0  1  0  0  0  0  0  0
  -25.4260  -36.3670   23.8330 C   0  0  0  0  0  3  0  0  0  0  0  0
  -27.5850  -37.2870   24.5600 C   0  0  0  0  0  1  0  0  0  0  0  0
  -26.4450  -37.4250   23.6580 N   0  0  0  0  0  0  0  0  0  0  0  0
  -26.0390  -38.3470   23.7990 H   0  0  0  0  0  0  0  0  0  0  0  0
  -26.4030  -31.7530   25.0780 C   0  0  1  0  0  0  0  0  0  0  0  0
  -25.2970  -31.5310   26.1380 C   0  0  0  0  0  1  0  0  0  0  0  0
  -26.9860  -30.3690   24.7160 C   0  0  0  0  0  1  0  0  0  0  0  0
  -27.5460  -32.5530   25.7450 C   0  0  0  0  0  1  0  0  0  0  0  0
  1  3  1  0
  2  6  1  0
  4 17  1  0
  4  1  1  0
  5  2  1  0
  5  4  1  0
  5  7  1  0
  6 47  1  0
  6  7  1  0
  7  8  1  1
  7  3  1  0
  9 17  1  0
 10 15  1  0
 11 12  1  0
 11 10  1  0
 13 12  1  0
 13 22  1  0
 13 14  1  0
 15  9  1  0
 15 14  1  0
 16  9  2  0
 18 17  1  0
 19 20  2  0
 20 39  1  0
 21 20  1  0
 21 24  1  0
 22 23  1  0
 22 19  1  0
 23 21  2  0
 24 25  1  0
 25 26  2  0
 27 30  1  0
 27 26  1  0
 28 27  2  0
 29 28  1  0
 29 24  2  0
 30 31  1  0
 31 36  2  0
 31 32  1  0
 32 33  2  0
 33 34  1  0
 34 38  1  0
 35 34  2  0
 36 35  1  0
 37 36  1  0
 39 40  1  0
 40 43  1  0
 40 42  1  0
 41 39  2  0
 44 19  1  0
 44 45  1  0
 46 44  1  0
 47 48  1  0
 49 60  2  0
 50 48  1  0
 50 55  1  0
 51 59  1  0
 51 61  1  0
 52 58  1  0
 52 54  1  0
 53 59  1  0
 54 53  1  0
 55 54  2  0
 56 57  1  0
 56 50  2  0
 57 52  2  0
 58 51  1  0
 59 49  1  0
 61 63  2  0
 62 61  1  0
 64 62  1  0
 65 74  2  0
 65 70  1  0
 66 62  1  0
 66 70  1  0
 67 66  1  0
 68 69  1  0
 68 67  1  0
 69 65  1  0
 70 71  2  0
 71 72  1  0
 73 72  2  0
 74 73  1  0
 75 49  1  0
 75 76  1  0
 75 85  1  0
 76 79  1  0
 77 81  1  0
 77 76  1  0
 78 77  2  0
 81 80  1  0
 83 84  1  0
 83 81  1  0
 83 82  1  0
 85 88  1  1
 85 86  1  0
 87 85  1  0
M  ISO  4   9 100  17 100  47 101  48 101
M  END
>  <TORSDO>  (74) 
F 17

>  <SCORE>  (74) 
-15.368

>  <name>  (74) 
73

>  <ligand_id>  (74) 
73

>  <original_smiles>  (74) 
[H]c1c([H])c([H])c2c(c1[H])C([H])([H])C([H])([H])C([H])([H])C2([H])N([H])C(=O)C1([H])N(C(=O)C([H])(N([H])C(=O)C([H])(N([H])C([H])([H])[H])C([H])([H])[H])C(C([H])([H])[H])(C([H])([H])[H])C([H])([H])[H])C([H])([H])c2c([H])c(OC([H])([H])C3([H])C([H])([H])C4([H])C([H])(N([H])C(=O)N5C([H])([H])C([H])([H])C([H])([H])C([H])(n6nc(-c7c([H])c([H])c(Oc8c([H])c([H])c(F)c([H])c8F)c([H])c7[H])c(C(=O)N([H])[H])c6N([H])[H])C5([H])[H])C([H])([H])C([H])([H])[N+]34[H])c([H])c([H])c2C1([H])[H]

>  <smiles>  (74) 
[H]c1c([H])c([H])c2c(c1[H])C([H])([H])C([H])([H])C([H])([H])C2([H])N([H])C(=O)C1([H])N(C(=O)C([H])(N([H])C(=O)C([H])(N([H])C([H])([H])[H])C([H])([H])[H])C(C([H])([H])[H])(C([H])([H])[H])C([H])([H])[H])C([H])([H])c2c([H])c(OC([H])([H])C3([H])C([H])([H])C4([H])C([H])(N([H])C(=O)N5C([H])([H])C([H])([H])C([H])([H])C([H])(n6nc(-c7c([H])c([H])c(Oc8c([H])c([H])c(F)c([H])c8F)c([H])c7[H])c(C(=O)N([H])[H])c6N([H])[H])C5([H])[H])C([H])([H])C([H])([H])[N+]34[H])c([H])c([H])c2C1([H])[H]

$$$$
74:0:0
     RDKit          3D

 94103  0  0  1  0  0  0  0  0999 V2000
  -30.7270  -14.8520   20.3730 C   0  0  0  0  0  0  0  0  0  0  0  0
  -30.4320  -12.5620   19.3810 C   0  0  0  0  0  2  0  0  0  0  0  0
  -29.5280  -12.6000   18.1330 C   0  0  0  0  0  2  0  0  0  0  0  0
  -28.0540  -12.4450   18.5470 C   0  0  0  0  0  2  0  0  0  0  0  0
  -27.6690  -13.3610   19.7400 C   0  0  0  0  0  3  0  0  0  0  0  0
  -28.7120  -13.3320   20.8770 C   0  0  0  0  0  2  0  0  0  0  0  0
  -30.0030  -13.6760   20.2740 N   0  0  0  0  0  0  0  0  0  0  0  0
  -31.9230  -14.7880   20.0730 O   0  0  0  0  0  0  0  0  0  0  0  0
  -29.3480  -16.8010   21.4830 C   0  0  0  0  0  2  0  0  0  0  0  0
  -30.7260  -17.3170   19.6850 C   0  0  0  0  0  3  0  0  0  0  0  0
  -29.7520  -18.3440   21.7110 C   0  0  0  0  0  3  0  0  0  0  0  0
  -30.8240  -18.5540   20.6590 C   0  0  0  0  0  3  0  0  0  0  0  0
  -29.9410  -19.7740   21.0300 C   0  0  0  0  0  3  0  0  0  0  0  0
  -30.1380  -16.1380   20.4030 N   0  0  0  0  0  0  0  0  0  0  0  0
  -25.2850  -13.9740   20.4290 C   0  0  0  0  0  0  0  0  0  0  0  0
  -24.2080  -13.2150   20.7930 C   0  0  0  0  0  0  0  0  0  0  0  0
  -24.6580  -11.8570   20.7910 C   0  0  0  0  0  0  0  0  0  0  0  0
  -26.3230  -13.0830   20.2220 N   0  0  0  0  0  0  0  0  0  0  0  0
  -25.9540  -11.8060   20.5070 N   0  0  0  0  0  0  0  0  0  0  0  0
  -23.9170  -10.6060   20.9880 C   0  0  0  0  0  0  0  0  0  0  0  0
  -24.3250   -9.6460   21.9410 C   0  0  0  0  0  3  0  0  0  0  0  0
  -23.5830   -8.4590   22.1260 C   0  0  0  0  0  3  0  0  0  0  0  0
  -22.4170   -8.2250   21.3570 C   0  0  0  0  0  0  0  0  0  0  0  0
  -22.0290   -9.1720   20.3940 C   0  0  0  0  0  3  0  0  0  0  0  0
  -22.7720  -10.3490   20.2070 C   0  0  0  0  0  3  0  0  0  0  0  0
  -21.6470   -7.0910   21.4510 O   0  0  0  0  0  0  0  0  0  0  0  0
  -21.5740   -6.3640   22.6120 C   0  0  0  0  0  0  0  0  0  0  0  0
  -21.1430   -6.9410   23.8270 C   0  0  0  0  0  3  0  0  0  0  0  0
  -21.0160   -6.1410   24.9800 C   0  0  0  0  0  3  0  0  0  0  0  0
  -21.3110   -4.7650   24.9190 C   0  0  0  0  0  0  0  0  0  0  0  0
  -21.7340   -4.1880   23.7090 C   0  0  0  0  0  3  0  0  0  0  0  0
  -21.8620   -4.9860   22.5580 C   0  0  0  0  0  0  0  0  0  0  0  0
  -22.2510   -4.4210   21.3900 F   0  0  0  0  0  0  0  0  0  0  0  0
  -21.1810   -3.9940   26.0240 F   0  0  0  0  0  0  0  0  0  0  0  0
  -22.8100  -13.7070   21.0340 C   0  0  0  0  0  0  0  0  0  0  0  0
  -22.0630  -13.0310   21.8970 N   0  0  0  0  0  0  0  0  0  0  0  0
  -22.3920  -14.7290   20.4910 O   0  0  0  0  0  0  0  0  0  0  0  0
  -22.4180  -12.2030   22.3550 H   0  0  0  0  0  0  0  0  0  0  0  0
  -21.1240  -13.3420   22.1050 H   0  0  0  0  0  0  0  0  0  0  0  0
  -25.4680  -15.3400   20.2320 N   0  0  0  0  0  0  0  0  0  0  0  0
  -24.7070  -16.0070   20.2950 H   0  0  0  0  0  0  0  0  0  0  0  0
  -26.3280  -15.7500   19.8870 H   0  0  0  0  0  0  0  0  0  0  0  0
  -29.8960  -17.6230   18.4230 C   0  0  0  0  0  0  0  0  0  0  0  0
  -30.4780  -18.3170   17.4550 N   0  0  0  0  0  0  0  0  0  0  0  0
  -28.7310  -17.2440   18.3100 O   0  0  0  0  0  0  0  0  0  0  0  0
  -31.4300  -18.6400   17.5570 H   0  0  0  0  0  0  0  0  0  0  0  0
  -29.9720  -18.5370   16.6090 H   0  0  0  0  0  0  0  0  0  0  0  0
  -29.1010  -20.8350   20.1430 C   0  0  0  0  0  2  0  0  0  0  0  0
  -28.8610  -23.5570   20.1350 C   0  0  0  0  0  0  0  0  0  0  0  0
  -28.7330  -22.2600   20.6660 N   0  0  0  0  0  0  0  0  0  0  0  0
  -29.5310  -23.7270   19.1140 O   0  0  0  0  0  0  0  0  0  0  0  0
  -28.1880  -22.2340   21.5210 H   0  0  0  0  0  0  0  0  0  0  0  0
  -28.1190  -24.8600   20.7840 C   0  0  0  0  0  2  0  0  0  0  0  0
  -28.4240  -26.2930   20.3210 O   0  0  0  0  0  0  0  0  0  0  0  0
  -24.6720  -31.8740   23.2420 C   0  0  0  0  0  0  0  0  0  0  0  0
  -27.3570  -27.2370   20.2670 C   0  0  0  0  0  0  0  0  0  0  0  0
  -23.5170  -30.4600   21.5860 C   0  0  0  0  0  3  0  0  0  0  0  0
  -25.0070  -28.9100   20.1890 C   0  0  0  0  0  0  0  0  0  0  0  0
  -26.0640  -30.7770   21.4560 C   0  0  0  0  0  2  0  0  0  0  0  0
  -26.1690  -29.3880   20.8130 C   0  0  0  0  0  0  0  0  0  0  0  0
  -27.3490  -28.5650   20.8360 C   0  0  0  0  0  3  0  0  0  0  0  0
  -26.1790  -26.8490   19.5990 C   0  0  0  0  0  3  0  0  0  0  0  0
  -25.0210  -27.6510   19.5700 C   0  0  0  0  0  3  0  0  0  0  0  0
  -23.7680  -29.7860   20.2110 C   0  0  0  0  0  2  0  0  0  0  0  0
  -24.7690  -31.0570   22.1510 N   0  0  0  0  0  0  0  0  0  0  0  0
  -23.5760  -32.1460   23.7550 O   0  0  0  0  0  0  0  0  0  0  0  0
  -22.8450  -29.4400   22.5380 C   0  0  0  0  0  0  0  0  0  0  0  0
  -21.5170  -29.2760   22.4200 N   0  0  0  0  0  0  0  0  0  0  0  0
  -23.5200  -28.8010   23.3520 O   0  0  0  0  0  0  0  0  0  0  0  0
  -21.0310  -29.8480   21.7430 H   0  0  0  0  0  0  0  0  0  0  0  0
  -18.1290  -28.1070   22.9380 C   0  0  0  0  0  0  0  0  0  0  0  0
  -20.6930  -28.3370   23.1850 C   0  0  0  0  0  3  0  0  0  0  0  0
  -20.7700  -26.9110   22.5870 C   0  0  0  0  0  2  0  0  0  0  0  0
  -19.6540  -26.6170   21.5800 C   0  0  0  0  0  2  0  0  0  0  0  0
  -18.2790  -26.7670   22.2400 C   0  0  0  0  0  2  0  0  0  0  0  0
  -19.2610  -28.8510   23.3670 C   0  0  0  0  0  0  0  0  0  0  0  0
  -19.0610  -30.1050   23.9820 C   0  0  0  0  0  3  0  0  0  0  0  0
  -17.7640  -30.6170   24.1710 C   0  0  0  0  0  3  0  0  0  0  0  0
  -16.6460  -29.8710   23.7580 C   0  0  0  0  0  3  0  0  0  0  0  0
  -16.8300  -28.6190   23.1450 C   0  0  0  0  0  3  0  0  0  0  0  0
  -25.9360  -32.5250   23.8850 C   0  0  0  0  0  3  0  0  0  0  0  0
  -26.4270  -31.7760   25.1850 C   0  0  1  0  0  0  0  0  0  0  0  0
  -25.3120  -31.5490   26.2320 C   0  0  0  0  0  1  0  0  0  0  0  0
  -27.0250  -30.3950   24.8300 C   0  0  0  0  0  1  0  0  0  0  0  0
  -27.5600  -32.5850   25.8600 C   0  0  0  0  0  1  0  0  0  0  0  0
  -25.6080  -33.9260   24.1930 N   0  0  0  0  0  0  0  0  0  0  0  0
  -25.9440  -34.9750   23.4310 C   0  0  0  0  0  0  0  0  0  0  0  0
  -26.6300  -34.8670   22.4110 O   0  0  0  0  0  0  0  0  0  0  0  0
  -24.9930  -34.0840   24.9800 H   0  0  0  0  0  0  0  0  0  0  0  0
  -24.2070  -36.7520   23.0340 C   0  0  0  0  0  1  0  0  0  0  0  0
  -25.4390  -36.3640   23.8670 C   0  0  0  0  0  3  0  0  0  0  0  0
  -27.5560  -37.2750   24.7160 C   0  0  0  0  0  1  0  0  0  0  0  0
  -26.4660  -37.4230   23.7550 N   0  0  0  0  0  0  0  0  0  0  0  0
  -26.0500  -38.3430   23.8880 H   0  0  0  0  0  0  0  0  0  0  0  0
  1 14  1  0
  2  7  1  0
  3  4  1  0
  3  2  1  0
  5  4  1  0
  5 18  1  0
  5  6  1  0
  7  1  1  0
  7  6  1  0
  8  1  2  0
 10 43  1  0
 10 14  1  0
 10 12  1  0
 11  9  1  0
 12 13  1  0
 12 11  1  0
 13 11  1  0
 14  9  1  0
 15 16  2  0
 16 35  1  0
 17 16  1  0
 17 20  1  0
 18 15  1  0
 18 19  1  0
 19 17  2  0
 20 21  1  0
 21 22  2  0
 23 26  1  0
 23 22  1  0
 24 23  2  0
 25 24  1  0
 25 20  2  0
 26 27  1  0
 27 28  1  0
 28 29  2  0
 30 29  1  0
 30 34  1  0
 31 30  2  0
 32 27  2  0
 32 31  1  0
 33 32  1  0
 35 36  1  0
 36 39  1  0
 36 38  1  0
 37 35  2  0
 40 41  1  0
 40 15  1  0
 42 40  1  0
 44 46  1  0
 44 43  1  0
 45 43  2  0
 47 44  1  0
 48 50  1  0
 48 13  1  0
 49 50  1  0
 49 53  1  0
 50 52  1  0
 51 49  2  0
 54 53  1  0
 55 66  2  0
 55 81  1  0
 56 54  1  0
 56 61  1  0
 57 65  1  0
 57 67  1  0
 58 64  1  0
 58 60  1  0
 59 65  1  0
 60 61  2  0
 60 59  1  0
 62 56  2  0
 63 62  1  0
 63 58  2  0
 64 57  1  0
 65 55  1  0
 67 69  2  0
 68 67  1  0
 68 72  1  0
 70 68  1  0
 71 80  2  0
 71 76  1  0
 72 76  1  0
 73 72  1  0
 74 75  1  0
 74 73  1  0
 75 71  1  0
 76 77  2  0
 77 78  1  0
 79 78  2  0
 80 79  1  0
 81 86  1  0
 81 82  1  0
 82 85  1  1
 82 83  1  0
 84 82  1  0
 86 89  1  0
 87 91  1  0
 87 86  1  0
 88 87  2  0
 90 91  1  0
 93 91  1  0
 93 94  1  0
 93 92  1  0
M  ISO  4   1 100  14 100  53 101  54 101
M  END
>  <TORSDO>  (75) 
F 19

>  <SCORE>  (75) 
-13.689

>  <name>  (75) 
74

>  <ligand_id>  (75) 
74

>  <original_smiles>  (75) 
[H]c1c([H])c([H])c2c(c1[H])C([H])([H])C([H])([H])C([H])([H])C2([H])N([H])C(=O)C1([H])N(C(=O)C([H])(N([H])C(=O)C([H])(N([H])C([H])([H])[H])C([H])([H])[H])C(C([H])([H])[H])(C([H])([H])[H])C([H])([H])[H])C([H])([H])c2c([H])c(OC([H])([H])C(=O)N([H])C([H])([H])C3([H])C4([H])C([H])([H])N(C(=O)N5C([H])([H])C([H])([H])C([H])([H])C([H])(n6nc(-c7c([H])c([H])c(Oc8c([H])c([H])c(F)c([H])c8F)c([H])c7[H])c(C(=O)N([H])[H])c6N([H])[H])C5([H])[H])C([H])(C(=O)N([H])[H])C34[H])c([H])c([H])c2C1([H])[H]

>  <smiles>  (75) 
[H]c1c([H])c([H])c2c(c1[H])C([H])([H])C([H])([H])C([H])([H])C2([H])N([H])C(=O)C1([H])N(C(=O)C([H])(N([H])C(=O)C([H])(N([H])C([H])([H])[H])C([H])([H])[H])C(C([H])([H])[H])(C([H])([H])[H])C([H])([H])[H])C([H])([H])c2c([H])c(OC([H])([H])C(=O)N([H])C([H])([H])C3([H])C4([H])C([H])([H])N(C(=O)N5C([H])([H])C([H])([H])C([H])([H])C([H])(n6nc(-c7c([H])c([H])c(Oc8c([H])c([H])c(F)c([H])c8F)c([H])c7[H])c(C(=O)N([H])[H])c6N([H])[H])C5([H])[H])C([H])(C(=O)N([H])[H])C34[H])c([H])c([H])c2C1([H])[H]

$$$$
75:0:0
     RDKit          3D

 97105  0  0  1  0  0  0  0  0999 V2000
  -27.3700  -18.9130   20.1320 C   0  0  0  0  0  2  0  0  0  0  0  0
  -27.3040  -19.6070   18.7570 C   0  0  0  0  0  3  0  0  0  0  0  0
  -28.4150  -17.7740   20.0460 C   0  0  0  0  0  3  0  0  0  0  0  0
  -28.9320  -17.8430   18.5970 C   0  0  0  0  0  3  0  0  0  0  0  0
  -28.7120  -19.3840   18.1270 C   0  0  0  0  0  3  0  0  0  0  0  0
  -26.1400  -19.1070   17.8700 C   0  0  0  0  0  1  0  0  0  0  0  0
  -30.0380  -16.7580   18.1990 C   0  0  0  0  0  2  0  0  0  0  0  0
  -30.7680  -14.3570   19.0000 C   0  0  0  0  0  0  0  0  0  0  0  0
  -30.7440  -11.8720   18.8760 C   0  0  0  0  0  2  0  0  0  0  0  0
  -29.7320  -11.4380   17.7970 C   0  0  0  0  0  2  0  0  0  0  0  0
  -28.3210  -11.3120   18.4020 C   0  0  0  0  0  2  0  0  0  0  0  0
  -27.9220  -12.5460   19.2500 C   0  0  0  0  0  3  0  0  0  0  0  0
  -29.0470  -12.9530   20.2280 C   0  0  0  0  0  2  0  0  0  0  0  0
  -30.2690  -13.1530   19.4390 N   0  0  0  0  0  0  0  0  0  0  0  0
  -31.9040  -14.4370   18.5280 O   0  0  0  0  0  0  0  0  0  0  0  0
  -29.8840  -15.4070   18.8850 N   0  0  0  0  0  0  0  0  0  0  0  0
  -28.9650  -15.1980   19.2460 H   0  0  0  0  0  0  0  0  0  0  0  0
  -25.7420  -13.2870   20.3850 C   0  0  0  0  0  0  0  0  0  0  0  0
  -24.6760  -12.5880   20.8760 C   0  0  0  0  0  0  0  0  0  0  0  0
  -24.9930  -11.2050   20.6930 C   0  0  0  0  0  0  0  0  0  0  0  0
  -26.6480  -12.3430   19.9310 N   0  0  0  0  0  0  0  0  0  0  0  0
  -26.2120  -11.0810   20.1790 N   0  0  0  0  0  0  0  0  0  0  0  0
  -24.1860  -10.0000   20.9180 C   0  0  0  0  0  0  0  0  0  0  0  0
  -24.4960   -9.0820   21.9470 C   0  0  0  0  0  3  0  0  0  0  0  0
  -23.6920   -7.9410   22.1570 C   0  0  0  0  0  3  0  0  0  0  0  0
  -22.5620   -7.7110   21.3370 C   0  0  0  0  0  0  0  0  0  0  0  0
  -22.2690   -8.6150   20.3010 C   0  0  0  0  0  3  0  0  0  0  0  0
  -23.0750   -9.7450   20.0910 C   0  0  0  0  0  3  0  0  0  0  0  0
  -21.7350   -6.6190   21.4530 O   0  0  0  0  0  0  0  0  0  0  0  0
  -21.3510   -6.1350   22.6760 C   0  0  0  0  0  0  0  0  0  0  0  0
  -20.6220   -6.9200   23.5970 C   0  0  0  0  0  3  0  0  0  0  0  0
  -20.1910   -6.3570   24.8140 C   0  0  0  0  0  3  0  0  0  0  0  0
  -20.4720   -5.0090   25.1080 C   0  0  0  0  0  0  0  0  0  0  0  0
  -21.1980   -4.2270   24.1920 C   0  0  0  0  0  3  0  0  0  0  0  0
  -21.6300   -4.7850   22.9780 C   0  0  0  0  0  0  0  0  0  0  0  0
  -22.3080   -4.0200   22.0890 F   0  0  0  0  0  0  0  0  0  0  0  0
  -20.0510   -4.4670   26.2740 F   0  0  0  0  0  0  0  0  0  0  0  0
  -23.3870  -13.1600   21.3940 C   0  0  0  0  0  0  0  0  0  0  0  0
  -22.7540  -12.4800   22.3420 N   0  0  0  0  0  0  0  0  0  0  0  0
  -22.9620  -14.2450   20.9950 O   0  0  0  0  0  0  0  0  0  0  0  0
  -23.1130  -11.5980   22.6780 H   0  0  0  0  0  0  0  0  0  0  0  0
  -21.8960  -12.8420   22.7340 H   0  0  0  0  0  0  0  0  0  0  0  0
  -26.0060  -14.6500   20.2590 N   0  0  0  0  0  0  0  0  0  0  0  0
  -25.3050  -15.3460   20.4850 H   0  0  0  0  0  0  0  0  0  0  0  0
  -26.7450  -15.0110   19.6730 H   0  0  0  0  0  0  0  0  0  0  0  0
  -29.5270  -17.8830   21.1200 C   0  0  0  0  0  2  0  0  0  0  0  0
  -29.0550  -17.4980   22.4610 N   0  0  0  0  0  4  0  0  0  0  0  0
  -28.3160  -18.1010   22.7730 H   0  0  0  0  0  0  0  0  0  0  0  0
  -29.8080  -17.5680   23.1270 H   0  0  0  0  0  0  0  0  0  0  0  0
  -28.7270  -16.5480   22.4630 H   0  0  0  0  0  0  0  0  0  0  0  0
  -29.6830  -20.6530   18.4310 C   0  0  0  0  0  2  0  0  0  0  0  0
  -29.0080  -21.9120   19.0020 N   0  0  0  0  0  4  0  0  0  0  0  0
  -28.8650  -21.7230   19.9860 H   0  0  0  0  0  0  0  0  0  0  0  0
  -28.0890  -21.9460   18.5870 H   0  0  0  0  0  0  0  0  0  0  0  0
  -29.5830  -23.3270   18.9000 C   0  0  0  0  0  2  0  0  0  0  0  0
  -28.5630  -24.4580   19.4280 C   0  0  0  0  0  2  0  0  0  0  0  0
  -28.8420  -25.9240   19.3330 O   0  0  0  0  0  0  0  0  0  0  0  0
  -25.0010  -30.7470   23.1100 C   0  0  0  0  0  0  0  0  0  0  0  0
  -27.7280  -26.7880   19.3890 C   0  0  0  0  0  0  0  0  0  0  0  0
  -23.8450  -29.6210   21.2450 C   0  0  0  0  0  3  0  0  0  0  0  0
  -25.3450  -28.3670   19.5960 C   0  0  0  0  0  0  0  0  0  0  0  0
  -26.3830  -30.0040   21.1600 C   0  0  0  0  0  2  0  0  0  0  0  0
  -26.4960  -28.7530   20.2960 C   0  0  0  0  0  0  0  0  0  0  0  0
  -27.6910  -27.9770   20.1860 C   0  0  0  0  0  3  0  0  0  0  0  0
  -26.5600  -26.4870   18.6490 C   0  0  0  0  0  3  0  0  0  0  0  0
  -25.3800  -27.2430   18.7630 C   0  0  0  0  0  3  0  0  0  0  0  0
  -24.0950  -29.2030   19.7740 C   0  0  0  0  0  2  0  0  0  0  0  0
  -25.0940  -30.1340   21.8970 N   0  0  0  0  0  0  0  0  0  0  0  0
  -23.9030  -30.9170   23.6640 O   0  0  0  0  0  0  0  0  0  0  0  0
  -23.1920  -28.4430   22.0080 C   0  0  0  0  0  0  0  0  0  0  0  0
  -21.8810  -28.2380   21.7850 N   0  0  0  0  0  0  0  0  0  0  0  0
  -23.8630  -27.7270   22.7550 O   0  0  0  0  0  0  0  0  0  0  0  0
  -21.4080  -28.8590   21.1470 H   0  0  0  0  0  0  0  0  0  0  0  0
  -18.5390  -26.8570   21.9380 C   0  0  0  0  0  0  0  0  0  0  0  0
  -21.0670  -27.1710   22.3690 C   0  0  0  0  0  3  0  0  0  0  0  0
  -21.2570  -25.8410   21.6010 C   0  0  0  0  0  2  0  0  0  0  0  0
  -20.2190  -25.6260   20.4920 C   0  0  0  0  0  2  0  0  0  0  0  0
  -18.8080  -25.6250   21.0870 C   0  0  0  0  0  2  0  0  0  0  0  0
  -19.6010  -27.5930   22.5260 C   0  0  0  0  0  0  0  0  0  0  0  0
  -19.3020  -28.7510   23.2740 C   0  0  0  0  0  3  0  0  0  0  0  0
  -17.9700  -29.1710   23.4440 C   0  0  0  0  0  3  0  0  0  0  0  0
  -16.9200  -28.4310   22.8760 C   0  0  0  0  0  3  0  0  0  0  0  0
  -17.2040  -27.2750   22.1290 C   0  0  0  0  0  3  0  0  0  0  0  0
  -26.2630  -31.2860   23.8510 C   0  0  0  0  0  3  0  0  0  0  0  0
  -25.9540  -32.6440   24.3210 N   0  0  0  0  0  0  0  0  0  0  0  0
  -26.2950  -33.7710   23.6810 C   0  0  0  0  0  0  0  0  0  0  0  0
  -26.9740  -33.7720   22.6500 O   0  0  0  0  0  0  0  0  0  0  0  0
  -25.3520  -32.7140   25.1290 H   0  0  0  0  0  0  0  0  0  0  0  0
  -24.5660  -35.5880   23.5180 C   0  0  0  0  0  1  0  0  0  0  0  0
  -25.8090  -35.1050   24.2810 C   0  0  0  0  0  3  0  0  0  0  0  0
  -27.9400  -35.9030   25.2030 C   0  0  0  0  0  1  0  0  0  0  0  0
  -26.8420  -36.1620   24.2750 N   0  0  0  0  0  0  0  0  0  0  0  0
  -26.4360  -37.0620   24.5100 H   0  0  0  0  0  0  0  0  0  0  0  0
  -26.7170  -30.3710   25.0520 C   0  0  1  0  0  0  0  0  0  0  0  0
  -25.5750  -30.0400   26.0410 C   0  0  0  0  0  1  0  0  0  0  0  0
  -27.2940  -29.0330   24.5340 C   0  0  0  0  0  1  0  0  0  0  0  0
  -27.8550  -31.0660   25.8350 C   0  0  0  0  0  1  0  0  0  0  0  0
  2  6  1  0
  2  1  1  0
  3  1  1  0
  3 46  1  0
  4  7  1  0
  4  3  1  0
  5 51  1  0
  5  4  1  0
  5  2  1  0
  7 16  1  0
  8 14  1  0
  9 14  1  0
 10 11  1  0
 10  9  1  0
 12 11  1  0
 12 21  1  0
 12 13  1  0
 14 13  1  0
 15  8  2  0
 16  8  1  0
 16 17  1  0
 18 19  2  0
 19 38  1  0
 20 19  1  0
 20 23  1  0
 21 22  1  0
 21 18  1  0
 22 20  2  0
 23 24  1  0
 24 25  2  0
 26 29  1  0
 26 25  1  0
 27 26  2  0
 28 27  1  0
 28 23  2  0
 29 30  1  0
 30 35  2  0
 30 31  1  0
 31 32  2  0
 32 33  1  0
 33 37  1  0
 34 33  2  0
 35 34  1  0
 36 35  1  0
 38 39  1  0
 39 41  1  0
 39 42  1  0
 40 38  2  0
 43 18  1  0
 43 44  1  0
 45 43  1  0
 46 47  1  0
 47 50  1  0
 47 48  1  0
 47 49  1  0
 51 52  1  0
 52 53  1  0
 54 52  1  0
 55 52  1  0
 55 56  1  0
 57 59  1  0
 57 56  1  0
 58 69  2  0
 59 64  1  0
 60 68  1  0
 60 70  1  0
 61 67  1  0
 61 63  1  0
 62 68  1  0
 63 62  1  0
 64 63  2  0
 65 66  1  0
 65 59  2  0
 66 61  2  0
 67 60  1  0
 68 58  1  0
 70 72  2  0
 71 70  1  0
 73 71  1  0
 74 83  2  0
 74 79  1  0
 75 71  1  0
 75 79  1  0
 76 75  1  0
 77 78  1  0
 77 76  1  0
 78 74  1  0
 79 80  2  0
 80 81  1  0
 82 81  2  0
 83 82  1  0
 84 58  1  0
 84 85  1  0
 84 94  1  0
 85 88  1  0
 86 90  1  0
 86 85  1  0
 87 86  2  0
 90 89  1  0
 92 90  1  0
 92 93  1  0
 92 91  1  0
 94 97  1  1
 94 95  1  0
 96 94  1  0
M  ISO  4   8 100  16 100  56 101  57 101
M  END
>  <TORSDO>  (76) 
F 23

>  <SCORE>  (76) 
-6.580

>  <name>  (76) 
75

>  <ligand_id>  (76) 
75

>  <original_smiles>  (76) 
[H]c1c([H])c([H])c2c(c1[H])C([H])([H])C([H])([H])C([H])([H])C2([H])N([H])C(=O)C1([H])N(C(=O)C([H])(N([H])C(=O)C([H])(N([H])C([H])([H])[H])C([H])([H])[H])C(C([H])([H])[H])(C([H])([H])[H])C([H])([H])[H])C([H])([H])c2c([H])c(OC([H])([H])C([H])([H])[N+]([H])([H])C([H])([H])C3([H])C([H])(C([H])([H])[H])C([H])([H])C([H])(C([H])([H])[N+]([H])([H])[H])C3([H])C([H])([H])N([H])C(=O)N3C([H])([H])C([H])([H])C([H])([H])C([H])(n4nc(-c5c([H])c([H])c(Oc6c([H])c([H])c(F)c([H])c6F)c([H])c5[H])c(C(=O)N([H])[H])c4N([H])[H])C3([H])[H])c([H])c([H])c2C1([H])[H]

>  <smiles>  (76) 
[H]c1c([H])c([H])c2c(c1[H])C([H])([H])C([H])([H])C([H])([H])C2([H])N([H])C(=O)C1([H])N(C(=O)C([H])(N([H])C(=O)C([H])(N([H])C([H])([H])[H])C([H])([H])[H])C(C([H])([H])[H])(C([H])([H])[H])C([H])([H])[H])C([H])([H])c2c([H])c(OC([H])([H])C([H])([H])[N+]([H])([H])C([H])([H])C3([H])C([H])(C([H])([H])[H])C([H])([H])C([H])(C([H])([H])[N+]([H])([H])[H])C3([H])C([H])([H])N([H])C(=O)N3C([H])([H])C([H])([H])C([H])([H])C([H])(n4nc(-c5c([H])c([H])c(Oc6c([H])c([H])c(F)c([H])c6F)c([H])c5[H])c(C(=O)N([H])[H])c4N([H])[H])C3([H])[H])c([H])c([H])c2C1([H])[H]

$$$$
76:0:0
     RDKit          3D

 89 98  0  0  1  0  0  0  0  0999 V2000
  -30.9500  -21.6790   21.2440 C   0  0  0  0  0  2  0  0  0  0  0  0
  -29.8490  -20.6800   21.5770 C   0  0  0  0  0  3  0  0  0  0  0  0
  -29.5670  -22.2330   21.5450 C   0  0  0  0  0  3  0  0  0  0  0  0
  -29.0710  -19.8600   20.5040 C   0  0  0  0  0  3  0  0  0  0  0  0
  -28.5260  -22.5920   20.4690 C   0  0  0  0  0  3  0  0  0  0  0  0
  -28.6640  -21.1880   19.6600 N   0  0  0  0  0  4  0  0  0  0  0  0
  -27.8090  -21.0040   19.1590 H   0  0  0  0  0  0  0  0  0  0  0  0
  -29.3750  -21.3180   18.9580 H   0  0  0  0  0  0  0  0  0  0  0  0
  -29.7770  -18.2840   19.9070 C   0  0  0  0  0  2  0  0  0  0  0  0
  -30.4300  -15.3790   20.1630 C   0  0  0  0  0  0  0  0  0  0  0  0
  -30.4020  -12.9250   19.2920 C   0  0  0  0  0  2  0  0  0  0  0  0
  -29.4720  -12.7130   18.0700 C   0  0  0  0  0  2  0  0  0  0  0  0
  -28.0340  -12.4230   18.5290 C   0  0  0  0  0  2  0  0  0  0  0  0
  -27.5880  -13.3880   19.6560 C   0  0  0  0  0  3  0  0  0  0  0  0
  -28.6460  -13.5470   20.7730 C   0  0  0  0  0  2  0  0  0  0  0  0
  -29.8690  -14.0630   20.1380 N   0  0  0  0  0  0  0  0  0  0  0  0
  -31.6260  -15.3820   19.8390 O   0  0  0  0  0  0  0  0  0  0  0  0
  -29.6790  -16.6560   20.3530 N   0  0  0  0  0  0  0  0  0  0  0  0
  -28.7570  -16.4470   20.7080 H   0  0  0  0  0  0  0  0  0  0  0  0
  -25.2220  -13.9350   20.4290 C   0  0  0  0  0  0  0  0  0  0  0  0
  -24.1680  -13.1530   20.8140 C   0  0  0  0  0  0  0  0  0  0  0  0
  -24.6430  -11.8060   20.7830 C   0  0  0  0  0  0  0  0  0  0  0  0
  -26.2660  -13.0650   20.1790 N   0  0  0  0  0  0  0  0  0  0  0  0
  -25.9310  -11.7780   20.4590 N   0  0  0  0  0  0  0  0  0  0  0  0
  -23.9230  -10.5410   20.9850 C   0  0  0  0  0  0  0  0  0  0  0  0
  -24.3680   -9.5780   21.9180 C   0  0  0  0  0  3  0  0  0  0  0  0
  -23.6460   -8.3800   22.1090 C   0  0  0  0  0  3  0  0  0  0  0  0
  -22.4650   -8.1370   21.3690 C   0  0  0  0  0  0  0  0  0  0  0  0
  -22.0400   -9.0880   20.4240 C   0  0  0  0  0  3  0  0  0  0  0  0
  -22.7630  -10.2770   20.2310 C   0  0  0  0  0  3  0  0  0  0  0  0
  -21.7140   -6.9900   21.4700 O   0  0  0  0  0  0  0  0  0  0  0  0
  -21.6810   -6.2500   22.6250 C   0  0  0  0  0  0  0  0  0  0  0  0
  -21.2670   -6.8060   23.8550 C   0  0  0  0  0  3  0  0  0  0  0  0
  -21.1810   -5.9930   25.0030 C   0  0  0  0  0  3  0  0  0  0  0  0
  -21.5000   -4.6240   24.9200 C   0  0  0  0  0  0  0  0  0  0  0  0
  -21.9060   -4.0670   23.6950 C   0  0  0  0  0  3  0  0  0  0  0  0
  -21.9940   -4.8780   22.5500 C   0  0  0  0  0  0  0  0  0  0  0  0
  -22.3660   -4.3320   21.3670 F   0  0  0  0  0  0  0  0  0  0  0  0
  -21.4110   -3.8400   26.0200 F   0  0  0  0  0  0  0  0  0  0  0  0
  -22.7720  -13.6250   21.0910 C   0  0  0  0  0  0  0  0  0  0  0  0
  -22.0530  -12.9330   21.9660 N   0  0  0  0  0  0  0  0  0  0  0  0
  -22.3280  -14.6460   20.5670 O   0  0  0  0  0  0  0  0  0  0  0  0
  -22.4250  -12.1090   22.4150 H   0  0  0  0  0  0  0  0  0  0  0  0
  -21.1150  -13.2340   22.1910 H   0  0  0  0  0  0  0  0  0  0  0  0
  -25.3730  -15.3060   20.2400 N   0  0  0  0  0  0  0  0  0  0  0  0
  -24.5930  -15.9450   20.3400 H   0  0  0  0  0  0  0  0  0  0  0  0
  -26.1960  -15.7440   19.8470 H   0  0  0  0  0  0  0  0  0  0  0  0
  -28.2120  -24.2850   19.8450 C   0  0  0  0  0  2  0  0  0  0  0  0
  -28.2250  -25.8750   20.3460 O   0  0  0  0  0  0  0  0  0  0  0  0
  -24.6390  -31.8760   23.2100 C   0  0  0  0  0  0  0  0  0  0  0  0
  -27.2150  -26.9780   20.2170 C   0  0  0  0  0  0  0  0  0  0  0  0
  -23.4540  -30.4730   21.5690 C   0  0  0  0  0  3  0  0  0  0  0  0
  -24.9130  -28.8680   20.1510 C   0  0  0  0  0  0  0  0  0  0  0  0
  -26.0210  -30.6840   21.4350 C   0  0  0  0  0  2  0  0  0  0  0  0
  -26.0960  -29.2710   20.7820 C   0  0  0  0  0  0  0  0  0  0  0  0
  -27.2350  -28.3450   20.7960 C   0  0  0  0  0  3  0  0  0  0  0  0
  -26.0060  -26.7370   19.5250 C   0  0  0  0  0  3  0  0  0  0  0  0
  -24.8940  -27.6220   19.5010 C   0  0  0  0  0  3  0  0  0  0  0  0
  -23.6900  -29.7860   20.1960 C   0  0  0  0  0  2  0  0  0  0  0  0
  -24.7260  -31.0390   22.1250 N   0  0  0  0  0  0  0  0  0  0  0  0
  -23.5470  -32.1670   23.7230 O   0  0  0  0  0  0  0  0  0  0  0  0
  -22.7580  -29.4790   22.5360 C   0  0  0  0  0  0  0  0  0  0  0  0
  -21.4250  -29.3220   22.4150 N   0  0  0  0  0  0  0  0  0  0  0  0
  -23.4210  -28.8500   23.3630 O   0  0  0  0  0  0  0  0  0  0  0  0
  -20.9410  -29.8820   21.7270 H   0  0  0  0  0  0  0  0  0  0  0  0
  -18.0360  -28.1350   22.9360 C   0  0  0  0  0  0  0  0  0  0  0  0
  -20.6000  -28.3860   23.1870 C   0  0  0  0  0  3  0  0  0  0  0  0
  -20.6910  -26.9570   22.6060 C   0  0  0  0  0  2  0  0  0  0  0  0
  -19.5820  -26.6440   21.5960 C   0  0  0  0  0  2  0  0  0  0  0  0
  -18.2040  -26.7900   22.2490 C   0  0  0  0  0  2  0  0  0  0  0  0
  -19.1620  -28.8900   23.3620 C   0  0  0  0  0  0  0  0  0  0  0  0
  -18.9500  -30.1480   23.9690 C   0  0  0  0  0  3  0  0  0  0  0  0
  -17.6470  -30.6490   24.1540 C   0  0  0  0  0  3  0  0  0  0  0  0
  -16.5380  -29.8910   23.7400 C   0  0  0  0  0  3  0  0  0  0  0  0
  -16.7330  -28.6350   23.1380 C   0  0  0  0  0  3  0  0  0  0  0  0
  -25.9050  -32.5220   23.8480 C   0  0  0  0  0  3  0  0  0  0  0  0
  -25.5840  -33.9230   24.1730 N   0  0  0  0  0  0  0  0  0  0  0  0
  -25.9170  -34.9830   23.4230 C   0  0  0  0  0  0  0  0  0  0  0  0
  -26.5870  -34.8820   22.3930 O   0  0  0  0  0  0  0  0  0  0  0  0
  -24.9860  -34.0730   24.9720 H   0  0  0  0  0  0  0  0  0  0  0  0
  -24.1860  -36.7820   23.0890 C   0  0  0  0  0  1  0  0  0  0  0  0
  -25.4330  -36.3710   23.8880 C   0  0  0  0  0  3  0  0  0  0  0  0
  -27.5720  -37.2610   24.7060 C   0  0  0  0  0  1  0  0  0  0  0  0
  -26.4640  -37.4270   23.7690 N   0  0  0  0  0  0  0  0  0  0  0  0
  -26.0580  -38.3470   23.9190 H   0  0  0  0  0  0  0  0  0  0  0  0
  -26.4000  -31.7640   25.1410 C   0  0  1  0  0  0  0  0  0  0  0  0
  -25.2910  -31.5440   26.1970 C   0  0  0  0  0  1  0  0  0  0  0  0
  -26.9850  -30.3790   24.7830 C   0  0  0  0  0  1  0  0  0  0  0  0
  -27.5430  -32.5630   25.8110 C   0  0  0  0  0  1  0  0  0  0  0  0
  2  1  1  0
  3  1  1  0
  3  2  1  0
  4  9  1  0
  4  2  1  0
  5 48  1  0
  5  3  1  0
  6  5  1  0
  6  4  1  0
  7  6  1  0
  8  6  1  0
  9 18  1  0
 10 18  1  0
 11 16  1  0
 12 13  1  0
 12 11  1  0
 14 13  1  0
 14 23  1  0
 14 15  1  0
 16 10  1  0
 16 15  1  0
 17 10  2  0
 18 19  1  0
 20 21  2  0
 21 40  1  0
 22 21  1  0
 22 25  1  0
 23 20  1  0
 23 24  1  0
 24 22  2  0
 25 26  1  0
 26 27  2  0
 28 31  1  0
 28 27  1  0
 29 28  2  0
 30 29  1  0
 30 25  2  0
 31 32  1  0
 32 33  1  0
 33 34  2  0
 35 34  1  0
 35 39  1  0
 36 35  2  0
 37 32  2  0
 37 36  1  0
 38 37  1  0
 40 41  1  0
 41 44  1  0
 41 43  1  0
 42 40  2  0
 45 46  1  0
 45 20  1  0
 47 45  1  0
 48 49  1  0
 50 61  2  0
 51 49  1  0
 51 56  1  0
 52 60  1  0
 52 62  1  0
 53 59  1  0
 53 55  1  0
 54 60  1  0
 55 56  2  0
 55 54  1  0
 57 51  2  0
 58 57  1  0
 58 53  2  0
 59 52  1  0
 60 50  1  0
 62 64  2  0
 63 62  1  0
 65 63  1  0
 66 75  2  0
 66 71  1  0
 67 63  1  0
 67 71  1  0
 68 67  1  0
 69 70  1  0
 69 68  1  0
 70 66  1  0
 71 72  2  0
 72 73  1  0
 74 73  2  0
 75 74  1  0
 76 50  1  0
 76 77  1  0
 76 86  1  0
 77 80  1  0
 78 82  1  0
 78 77  1  0
 79 78  2  0
 82 81  1  0
 84 82  1  0
 84 85  1  0
 84 83  1  0
 86 89  1  1
 86 87  1  0
 88 86  1  0
M  ISO  4  10 100  18 100  48 101  49 101
M  END
>  <TORSDO>  (77) 
F 18

>  <SCORE>  (77) 
-16.695

>  <name>  (77) 
76

>  <ligand_id>  (77) 
76

>  <original_smiles>  (77) 
[H]c1c([H])c([H])c2c(c1[H])C([H])([H])C([H])([H])C([H])([H])C2([H])N([H])C(=O)C1([H])N(C(=O)C([H])(N([H])C(=O)C([H])(N([H])C([H])([H])[H])C([H])([H])[H])C(C([H])([H])[H])(C([H])([H])[H])C([H])([H])[H])C([H])([H])c2c([H])c(OC([H])([H])C3([H])C4([H])C([H])([H])C4([H])C([H])(C([H])([H])N([H])C(=O)N4C([H])([H])C([H])([H])C([H])([H])C([H])(n5nc(-c6c([H])c([H])c(Oc7c([H])c([H])c(F)c([H])c7F)c([H])c6[H])c(C(=O)N([H])[H])c5N([H])[H])C4([H])[H])[N+]3([H])[H])c([H])c([H])c2C1([H])[H]

>  <smiles>  (77) 
[H]c1c([H])c([H])c2c(c1[H])C([H])([H])C([H])([H])C([H])([H])C2([H])N([H])C(=O)C1([H])N(C(=O)C([H])(N([H])C(=O)C([H])(N([H])C([H])([H])[H])C([H])([H])[H])C(C([H])([H])[H])(C([H])([H])[H])C([H])([H])[H])C([H])([H])c2c([H])c(OC([H])([H])C3([H])C4([H])C([H])([H])C4([H])C([H])(C([H])([H])N([H])C(=O)N4C([H])([H])C([H])([H])C([H])([H])C([H])(n5nc(-c6c([H])c([H])c(Oc7c([H])c([H])c(F)c([H])c7F)c([H])c6[H])c(C(=O)N([H])[H])c5N([H])[H])C4([H])[H])[N+]3([H])[H])c([H])c([H])c2C1([H])[H]

$$$$
77:0:0
     RDKit          3D

 91100  0  0  1  0  0  0  0  0999 V2000
  -28.9950  -20.7590   20.7460 C   0  0  0  0  0  0  0  0  0  0  0  0
  -27.8450  -20.5750   20.3460 O   0  0  0  0  0  0  0  0  0  0  0  0
  -29.9200  -19.4180   21.0830 C   0  0  0  0  0  2  0  0  0  0  0  0
  -30.8800  -15.3590   21.1450 C   0  0  0  0  0  0  0  0  0  0  0  0
  -30.8730  -12.9830   20.2460 C   0  0  0  0  0  2  0  0  0  0  0  0
  -30.0870  -12.8260   18.9280 C   0  0  0  0  0  2  0  0  0  0  0  0
  -28.5750  -12.6660   19.1880 C   0  0  0  0  0  2  0  0  0  0  0  0
  -28.0260  -13.6040   20.3000 C   0  0  0  0  0  3  0  0  0  0  0  0
  -28.9620  -13.6800   21.5210 C   0  0  0  0  0  2  0  0  0  0  0  0
  -30.2670  -14.1110   21.0080 N   0  0  0  0  0  0  0  0  0  0  0  0
  -32.1160  -15.3460   21.1610 O   0  0  0  0  0  0  0  0  0  0  0  0
  -30.3910  -16.6280   19.1260 C   0  0  0  0  0  2  0  0  0  0  0  0
  -29.5400  -17.7800   18.7050 C   0  0  0  0  0  3  0  0  0  0  0  0
  -28.3750  -17.8020   19.7460 C   0  0  0  0  0  3  0  0  0  0  0  0
  -29.3870  -17.8130   20.8980 C   0  0  0  0  0  3  0  0  0  0  0  0
  -28.1920  -17.8750   18.2110 C   0  0  2  0  0  0  0  0  0  0  0  0
  -27.5650  -16.7120   17.4540 C   0  0  0  0  0  1  0  0  0  0  0  0
  -27.7440  -19.1750   17.5710 C   0  0  0  0  0  1  0  0  0  0  0  0
  -30.2780  -16.5310   20.5760 N   0  0  0  0  0  0  0  0  0  0  0  0
  -25.5710  -14.1250   20.8060 C   0  0  0  0  0  0  0  0  0  0  0  0
  -24.4960  -13.3260   21.0750 C   0  0  0  0  0  0  0  0  0  0  0  0
  -24.9960  -11.9890   21.1000 C   0  0  0  0  0  0  0  0  0  0  0  0
  -26.6550  -13.2760   20.6740 N   0  0  0  0  0  0  0  0  0  0  0  0
  -26.3120  -11.9860   20.9250 N   0  0  0  0  0  0  0  0  0  0  0  0
  -24.2810  -10.7110   21.2160 C   0  0  0  0  0  0  0  0  0  0  0  0
  -24.6530   -9.7460   22.1780 C   0  0  0  0  0  3  0  0  0  0  0  0
  -23.9400   -8.5330   22.2880 C   0  0  0  0  0  3  0  0  0  0  0  0
  -22.8380   -8.2770   21.4360 C   0  0  0  0  0  0  0  0  0  0  0  0
  -22.4870   -9.2310   20.4660 C   0  0  0  0  0  3  0  0  0  0  0  0
  -23.2020  -10.4350   20.3530 C   0  0  0  0  0  3  0  0  0  0  0  0
  -22.1010   -7.1180   21.4570 O   0  0  0  0  0  0  0  0  0  0  0  0
  -21.9660   -6.3700   22.5990 C   0  0  0  0  0  0  0  0  0  0  0  0
  -21.4100   -6.9090   23.7800 C   0  0  0  0  0  3  0  0  0  0  0  0
  -21.2260   -6.0880   24.9090 C   0  0  0  0  0  3  0  0  0  0  0  0
  -21.5810   -4.7270   24.8580 C   0  0  0  0  0  0  0  0  0  0  0  0
  -22.1290   -4.1870   23.6800 C   0  0  0  0  0  3  0  0  0  0  0  0
  -22.3190   -5.0060   22.5540 C   0  0  0  0  0  0  0  0  0  0  0  0
  -22.8270   -4.4760   21.4150 F   0  0  0  0  0  0  0  0  0  0  0  0
  -21.3970   -3.9350   25.9390 F   0  0  0  0  0  0  0  0  0  0  0  0
  -23.0690  -13.7720   21.1930 C   0  0  0  0  0  0  0  0  0  0  0  0
  -22.2690  -13.0810   21.9990 N   0  0  0  0  0  0  0  0  0  0  0  0
  -22.6630  -14.7700   20.6000 O   0  0  0  0  0  0  0  0  0  0  0  0
  -22.5990  -12.2760   22.5120 H   0  0  0  0  0  0  0  0  0  0  0  0
  -21.3060  -13.3650   22.1020 H   0  0  0  0  0  0  0  0  0  0  0  0
  -25.7020  -15.4990   20.6360 N   0  0  0  0  0  0  0  0  0  0  0  0
  -24.9000  -16.1210   20.6550 H   0  0  0  0  0  0  0  0  0  0  0  0
  -26.5550  -15.9660   20.3650 H   0  0  0  0  0  0  0  0  0  0  0  0
  -29.4090  -22.3330   20.9830 C   0  0  0  0  0  2  0  0  0  0  0  0
  -28.7790  -23.6750   20.1810 C   0  0  0  0  0  2  0  0  0  0  0  0
  -28.4750  -25.1700   20.8810 C   0  0  0  0  0  2  0  0  0  0  0  0
  -28.4400  -26.5820   20.2580 O   0  0  0  0  0  0  0  0  0  0  0  0
  -24.5090  -32.0200   23.3220 C   0  0  0  0  0  0  0  0  0  0  0  0
  -27.3040  -27.4530   20.2990 C   0  0  0  0  0  0  0  0  0  0  0  0
  -23.3790  -30.5920   21.6590 C   0  0  0  0  0  3  0  0  0  0  0  0
  -24.9000  -29.0740   20.2530 C   0  0  0  0  0  0  0  0  0  0  0  0
  -25.9180  -30.9630   21.5190 C   0  0  0  0  0  2  0  0  0  0  0  0
  -26.0540  -29.5770   20.8680 C   0  0  0  0  0  0  0  0  0  0  0  0
  -27.2600  -28.7860   20.8640 C   0  0  0  0  0  3  0  0  0  0  0  0
  -26.1180  -27.0240   19.6740 C   0  0  0  0  0  3  0  0  0  0  0  0
  -24.9430  -27.8100   19.6400 C   0  0  0  0  0  3  0  0  0  0  0  0
  -23.6390  -29.9250   20.2810 C   0  0  0  0  0  2  0  0  0  0  0  0
  -24.6200  -31.2140   22.2230 N   0  0  0  0  0  0  0  0  0  0  0  0
  -23.4070  -32.2600   23.8400 O   0  0  0  0  0  0  0  0  0  0  0  0
  -22.7270  -29.5560   22.6080 C   0  0  0  0  0  0  0  0  0  0  0  0
  -21.4150  -29.3120   22.4390 N   0  0  0  0  0  0  0  0  0  0  0  0
  -23.4040  -28.9730   23.4580 O   0  0  0  0  0  0  0  0  0  0  0  0
  -20.9220  -29.8390   21.7310 H   0  0  0  0  0  0  0  0  0  0  0  0
  -18.0940  -27.9210   22.8240 C   0  0  0  0  0  0  0  0  0  0  0  0
  -20.6200  -28.3370   23.1890 C   0  0  0  0  0  3  0  0  0  0  0  0
  -20.8280  -26.9060   22.6400 C   0  0  0  0  0  2  0  0  0  0  0  0
  -19.7890  -26.5070   21.5860 C   0  0  0  0  0  2  0  0  0  0  0  0
  -18.3760  -26.5780   22.1730 C   0  0  0  0  0  2  0  0  0  0  0  0
  -19.1470  -28.7530   23.2880 C   0  0  0  0  0  0  0  0  0  0  0  0
  -18.8290  -30.0060   23.8560 C   0  0  0  0  0  3  0  0  0  0  0  0
  -17.4920  -30.4290   23.9660 C   0  0  0  0  0  3  0  0  0  0  0  0
  -16.4520  -29.5960   23.5180 C   0  0  0  0  0  3  0  0  0  0  0  0
  -16.7530  -28.3430   22.9530 C   0  0  0  0  0  3  0  0  0  0  0  0
  -25.7540  -32.6970   23.9710 C   0  0  0  0  0  3  0  0  0  0  0  0
  -26.2500  -31.9620   25.2780 C   0  0  1  0  0  0  0  0  0  0  0  0
  -25.1310  -31.7140   26.3160 C   0  0  0  0  0  1  0  0  0  0  0  0
  -26.8820  -30.5950   24.9320 C   0  0  0  0  0  1  0  0  0  0  0  0
  -27.3530  -32.8020   25.9660 C   0  0  0  0  0  1  0  0  0  0  0  0
  -25.4000  -34.0930   24.2720 N   0  0  0  0  0  0  0  0  0  0  0  0
  -25.7390  -35.1480   23.5180 C   0  0  0  0  0  0  0  0  0  0  0  0
  -26.4520  -35.0500   22.5160 O   0  0  0  0  0  0  0  0  0  0  0  0
  -24.7700  -34.2410   25.0460 H   0  0  0  0  0  0  0  0  0  0  0  0
  -23.9910  -36.9080   23.0840 C   0  0  0  0  0  1  0  0  0  0  0  0
  -25.2080  -36.5310   23.9450 C   0  0  0  0  0  3  0  0  0  0  0  0
  -27.2890  -37.4710   24.8500 C   0  0  0  0  0  1  0  0  0  0  0  0
  -26.2220  -37.6050   23.8620 N   0  0  0  0  0  0  0  0  0  0  0  0
  -25.7910  -38.5180   23.9810 H   0  0  0  0  0  0  0  0  0  0  0  0
  1 48  1  0
  1  3  1  0
  2  1  2  0
  4 11  2  0
  5 10  1  0
  6  7  1  0
  6  5  1  0
  8  7  1  0
  8 23  1  0
  8  9  1  0
 10  4  1  0
 10  9  1  0
 12 19  1  0
 13 12  1  0
 13 14  1  0
 14 16  1  0
 14 15  1  0
 15  3  1  0
 16 13  1  0
 16 17  1  6
 18 16  1  0
 19 15  1  0
 19  4  1  0
 20 21  2  0
 21 22  1  0
 21 40  1  0
 22 25  1  0
 23 20  1  0
 23 24  1  0
 24 22  2  0
 25 26  1  0
 26 27  2  0
 28 31  1  0
 28 27  1  0
 29 28  2  0
 30 29  1  0
 30 25  2  0
 31 32  1  0
 32 33  1  0
 33 34  2  0
 35 34  1  0
 35 39  1  0
 36 35  2  0
 37 32  2  0
 37 36  1  0
 38 37  1  0
 40 41  1  0
 41 44  1  0
 41 43  1  0
 42 40  2  0
 45 46  1  0
 45 20  1  0
 47 45  1  0
 49 50  1  0
 49 48  1  0
 51 53  1  0
 51 50  1  0
 52 63  2  0
 53 58  1  0
 54 62  1  0
 54 64  1  0
 55 61  1  0
 55 57  1  0
 56 62  1  0
 57 56  1  0
 58 57  2  0
 59 53  2  0
 60 59  1  0
 60 55  2  0
 61 54  1  0
 62 52  1  0
 64 66  2  0
 65 64  1  0
 67 65  1  0
 68 77  2  0
 68 73  1  0
 69 65  1  0
 69 73  1  0
 70 69  1  0
 71 72  1  0
 71 70  1  0
 72 68  1  0
 73 74  2  0
 74 75  1  0
 76 75  2  0
 77 76  1  0
 78 52  1  0
 78 83  1  0
 78 79  1  0
 79 82  1  1
 79 80  1  0
 81 79  1  0
 83 86  1  0
 84 88  1  0
 84 83  1  0
 85 84  2  0
 88 87  1  0
 90 88  1  0
 90 91  1  0
 90 89  1  0
M  ISO  4   4 100  19 100  50 101  51 101
M  END
>  <TORSDO>  (78) 
F 20

>  <SCORE>  (78) 
-11.113

>  <name>  (78) 
77

>  <ligand_id>  (78) 
77

>  <original_smiles>  (78) 
[H]c1c([H])c([H])c2c(c1[H])C([H])([H])C([H])([H])C([H])([H])C2([H])N([H])C(=O)C1([H])N(C(=O)C([H])(N([H])C(=O)C([H])(N([H])C([H])([H])[H])C([H])([H])[H])C(C([H])([H])[H])(C([H])([H])[H])C([H])([H])[H])C([H])([H])c2c([H])c(OC([H])([H])C([H])([H])C([H])([H])C(=O)C([H])([H])C3([H])N(C(=O)N4C([H])([H])C([H])([H])C([H])([H])C([H])(n5nc(-c6c([H])c([H])c(Oc7c([H])c([H])c(F)c([H])c7F)c([H])c6[H])c(C(=O)N([H])[H])c5N([H])[H])C4([H])[H])C([H])([H])C4([H])C3([H])C4(C([H])([H])[H])C([H])([H])[H])c([H])c([H])c2C1([H])[H]

>  <smiles>  (78) 
[H]c1c([H])c([H])c2c(c1[H])C([H])([H])C([H])([H])C([H])([H])C2([H])N([H])C(=O)C1([H])N(C(=O)C([H])(N([H])C(=O)C([H])(N([H])C([H])([H])[H])C([H])([H])[H])C(C([H])([H])[H])(C([H])([H])[H])C([H])([H])[H])C([H])([H])c2c([H])c(OC([H])([H])C([H])([H])C([H])([H])C(=O)C([H])([H])C3([H])N(C(=O)N4C([H])([H])C([H])([H])C([H])([H])C([H])(n5nc(-c6c([H])c([H])c(Oc7c([H])c([H])c(F)c([H])c7F)c([H])c6[H])c(C(=O)N([H])[H])c5N([H])[H])C4([H])[H])C([H])([H])C4([H])C3([H])C4(C([H])([H])[H])C([H])([H])[H])c([H])c([H])c2C1([H])[H]

$$$$
78:0:0
     RDKit          3D

 90 99  0  0  1  0  0  0  0  0999 V2000
  -31.1070  -21.6420   21.5910 C   0  0  0  0  0  2  0  0  0  0  0  0
  -29.8860  -20.9380   22.2730 C   0  0  0  0  0  2  0  0  0  0  0  0
  -30.7960  -20.2650   19.4970 C   0  0  0  0  0  2  0  0  0  0  0  0
  -30.0140  -19.2780   20.4270 C   0  0  0  0  0  3  0  0  0  0  0  0
  -30.6540  -21.7180   20.1100 C   0  0  0  0  0  3  0  0  0  0  0  0
  -29.0540  -20.5210   21.0340 C   0  0  0  0  0  3  0  0  0  0  0  0
  -29.2190  -21.9130   20.3410 N   0  0  2  0  0  4  0  0  0  0  0  0
  -29.5200  -22.1560   21.2750 H   0  0  0  0  0  0  0  0  0  0  0  0
  -29.7050  -17.7320   19.7800 C   0  0  0  0  0  2  0  0  0  0  0  0
  -30.5210  -15.0880   20.1700 C   0  0  0  0  0  0  0  0  0  0  0  0
  -30.3810  -12.7360   19.2260 C   0  0  0  0  0  2  0  0  0  0  0  0
  -29.4280  -12.7100   18.0080 C   0  0  0  0  0  2  0  0  0  0  0  0
  -27.9730  -12.4930   18.4590 C   0  0  0  0  0  2  0  0  0  0  0  0
  -27.5880  -13.3930   19.6620 C   0  0  0  0  0  3  0  0  0  0  0  0
  -28.6670  -13.3980   20.7690 C   0  0  0  0  0  2  0  0  0  0  0  0
  -29.9320  -13.8190   20.1520 N   0  0  0  0  0  0  0  0  0  0  0  0
  -31.6890  -15.1620   19.7760 O   0  0  0  0  0  0  0  0  0  0  0  0
  -29.7600  -16.2720   20.4260 N   0  0  0  0  0  0  0  0  0  0  0  0
  -28.8870  -16.0380   20.8780 H   0  0  0  0  0  0  0  0  0  0  0  0
  -25.2110  -13.9410   20.4310 C   0  0  0  0  0  0  0  0  0  0  0  0
  -24.1610  -13.1550   20.8140 C   0  0  0  0  0  0  0  0  0  0  0  0
  -24.6390  -11.8090   20.7780 C   0  0  0  0  0  0  0  0  0  0  0  0
  -26.2630  -13.0760   20.1780 N   0  0  0  0  0  0  0  0  0  0  0  0
  -25.9270  -11.7880   20.4540 N   0  0  0  0  0  0  0  0  0  0  0  0
  -23.9270  -10.5390   20.9770 C   0  0  0  0  0  0  0  0  0  0  0  0
  -24.3740   -9.5800   21.9110 C   0  0  0  0  0  3  0  0  0  0  0  0
  -23.6590   -8.3770   22.0990 C   0  0  0  0  0  3  0  0  0  0  0  0
  -22.4820   -8.1250   21.3530 C   0  0  0  0  0  0  0  0  0  0  0  0
  -22.0540   -9.0760   20.4100 C   0  0  0  0  0  3  0  0  0  0  0  0
  -22.7690  -10.2700   20.2200 C   0  0  0  0  0  3  0  0  0  0  0  0
  -21.7380   -6.9740   21.4500 O   0  0  0  0  0  0  0  0  0  0  0  0
  -21.7010   -6.2370   22.6080 C   0  0  0  0  0  0  0  0  0  0  0  0
  -21.2720   -6.7940   23.8320 C   0  0  0  0  0  3  0  0  0  0  0  0
  -21.1820   -5.9830   24.9810 C   0  0  0  0  0  3  0  0  0  0  0  0
  -21.5110   -4.6160   24.9060 C   0  0  0  0  0  0  0  0  0  0  0  0
  -21.9320   -4.0590   23.6850 C   0  0  0  0  0  3  0  0  0  0  0  0
  -22.0240   -4.8680   22.5390 C   0  0  0  0  0  0  0  0  0  0  0  0
  -22.4110   -4.3200   21.3610 F   0  0  0  0  0  0  0  0  0  0  0  0
  -21.4180   -3.8350   26.0070 F   0  0  0  0  0  0  0  0  0  0  0  0
  -22.7630  -13.6200   21.1010 C   0  0  0  0  0  0  0  0  0  0  0  0
  -22.0490  -12.9180   21.9740 N   0  0  0  0  0  0  0  0  0  0  0  0
  -22.3120  -14.6410   20.5840 O   0  0  0  0  0  0  0  0  0  0  0  0
  -22.4260  -12.0920   22.4160 H   0  0  0  0  0  0  0  0  0  0  0  0
  -21.1120  -13.2160   22.2070 H   0  0  0  0  0  0  0  0  0  0  0  0
  -25.3520  -15.3150   20.2530 N   0  0  0  0  0  0  0  0  0  0  0  0
  -24.5640  -15.9450   20.3590 H   0  0  0  0  0  0  0  0  0  0  0  0
  -26.1800  -15.7750   19.9010 H   0  0  0  0  0  0  0  0  0  0  0  0
  -28.5250  -23.3350   20.6940 C   0  0  0  0  0  2  0  0  0  0  0  0
  -28.4870  -24.7830   19.8000 C   0  0  0  0  0  2  0  0  0  0  0  0
  -28.3550  -26.2740   20.3110 O   0  0  0  0  0  0  0  0  0  0  0  0
  -24.6280  -31.9280   23.2430 C   0  0  0  0  0  0  0  0  0  0  0  0
  -27.2550  -27.2140   20.2060 C   0  0  0  0  0  0  0  0  0  0  0  0
  -23.4360  -30.5180   21.6060 C   0  0  0  0  0  3  0  0  0  0  0  0
  -24.8980  -28.9470   20.1770 C   0  0  0  0  0  0  0  0  0  0  0  0
  -25.9860  -30.8010   21.4390 C   0  0  0  0  0  2  0  0  0  0  0  0
  -26.0710  -29.4060   20.7840 C   0  0  0  0  0  0  0  0  0  0  0  0
  -27.2440  -28.5560   20.7790 C   0  0  0  0  0  3  0  0  0  0  0  0
  -26.0490  -26.8560   19.5630 C   0  0  0  0  0  3  0  0  0  0  0  0
  -24.9010  -27.6870   19.5520 C   0  0  0  0  0  3  0  0  0  0  0  0
  -23.6610  -29.8350   20.2290 C   0  0  0  0  0  2  0  0  0  0  0  0
  -24.7020  -31.1050   22.1500 N   0  0  0  0  0  0  0  0  0  0  0  0
  -23.5410  -32.2060   23.7710 O   0  0  0  0  0  0  0  0  0  0  0  0
  -22.7620  -29.5140   22.5730 C   0  0  0  0  0  0  0  0  0  0  0  0
  -21.4350  -29.3310   22.4440 N   0  0  0  0  0  0  0  0  0  0  0  0
  -23.4370  -28.9000   23.4040 O   0  0  0  0  0  0  0  0  0  0  0  0
  -20.9480  -29.8710   21.7420 H   0  0  0  0  0  0  0  0  0  0  0  0
  -18.0670  -28.0930   22.9400 C   0  0  0  0  0  0  0  0  0  0  0  0
  -20.6200  -28.3910   23.2200 C   0  0  0  0  0  3  0  0  0  0  0  0
  -20.7420  -26.9550   22.6580 C   0  0  0  0  0  2  0  0  0  0  0  0
  -19.6520  -26.6110   21.6370 C   0  0  0  0  0  2  0  0  0  0  0  0
  -18.2660  -26.7430   22.2730 C   0  0  0  0  0  2  0  0  0  0  0  0
  -19.1720  -28.8740   23.3710 C   0  0  0  0  0  0  0  0  0  0  0  0
  -18.9320  -30.1350   23.9580 C   0  0  0  0  0  3  0  0  0  0  0  0
  -17.6200  -30.6190   24.1120 C   0  0  0  0  0  3  0  0  0  0  0  0
  -16.5280  -29.8340   23.7000 C   0  0  0  0  0  3  0  0  0  0  0  0
  -16.7530  -28.5720   23.1210 C   0  0  0  0  0  3  0  0  0  0  0  0
  -25.9020  -32.5740   23.8680 C   0  0  0  0  0  3  0  0  0  0  0  0
  -26.4180  -31.8160   25.1530 C   0  0  1  0  0  0  0  0  0  0  0  0
  -25.3230  -31.5840   26.2200 C   0  0  0  0  0  1  0  0  0  0  0  0
  -27.0060  -30.4360   24.7790 C   0  0  0  0  0  1  0  0  0  0  0  0
  -27.5640  -32.6180   25.8130 C   0  0  0  0  0  1  0  0  0  0  0  0
  -25.5820  -33.9730   24.1930 N   0  0  0  0  0  0  0  0  0  0  0  0
  -25.9050  -35.0290   23.4340 C   0  0  0  0  0  0  0  0  0  0  0  0
  -26.5690  -34.9270   22.3990 O   0  0  0  0  0  0  0  0  0  0  0  0
  -24.9890  -34.1260   24.9950 H   0  0  0  0  0  0  0  0  0  0  0  0
  -24.1610  -36.8120   23.0980 C   0  0  0  0  0  1  0  0  0  0  0  0
  -25.4150  -36.4160   23.8940 C   0  0  0  0  0  3  0  0  0  0  0  0
  -27.5520  -37.3170   24.7000 C   0  0  0  0  0  1  0  0  0  0  0  0
  -26.4390  -37.4760   23.7680 N   0  0  0  0  0  0  0  0  0  0  0  0
  -26.0290  -38.3930   23.9210 H   0  0  0  0  0  0  0  0  0  0  0  0
  1  2  1  0
  3  4  1  0
  4  9  1  0
  4  6  1  0
  5  3  1  0
  5  7  1  0
  5  1  1  0
  6  2  1  0
  7 48  1  0
  7  6  1  0
  7  8  1  6
  9 18  1  0
 10 18  1  0
 11 16  1  0
 12 13  1  0
 12 11  1  0
 14 13  1  0
 14 23  1  0
 14 15  1  0
 16 10  1  0
 16 15  1  0
 17 10  2  0
 18 19  1  0
 20 21  2  0
 21 40  1  0
 22 21  1  0
 22 25  1  0
 23 20  1  0
 23 24  1  0
 24 22  2  0
 25 26  1  0
 26 27  2  0
 28 31  1  0
 28 27  1  0
 29 28  2  0
 30 29  1  0
 30 25  2  0
 31 32  1  0
 32 33  1  0
 33 34  2  0
 35 34  1  0
 35 39  1  0
 36 35  2  0
 37 32  2  0
 37 36  1  0
 38 37  1  0
 40 41  1  0
 41 44  1  0
 41 43  1  0
 42 40  2  0
 45 46  1  0
 45 20  1  0
 47 45  1  0
 49 50  1  0
 49 48  1  0
 51 62  2  0
 52 50  1  0
 52 57  1  0
 53 61  1  0
 53 63  1  0
 54 60  1  0
 54 56  1  0
 55 61  1  0
 56 55  1  0
 57 56  2  0
 58 52  2  0
 59 58  1  0
 59 54  2  0
 60 53  1  0
 61 51  1  0
 63 65  2  0
 64 63  1  0
 66 64  1  0
 67 76  2  0
 67 72  1  0
 68 64  1  0
 68 72  1  0
 69 68  1  0
 70 71  1  0
 70 69  1  0
 71 67  1  0
 72 73  2  0
 73 74  1  0
 75 74  2  0
 76 75  1  0
 77 51  1  0
 77 82  1  0
 77 78  1  0
 78 81  1  1
 78 79  1  0
 80 78  1  0
 82 85  1  0
 83 87  1  0
 83 82  1  0
 84 83  2  0
 87 86  1  0
 89 87  1  0
 89 90  1  0
 89 88  1  0
M  ISO  4  10 100  18 100  49 101  50 101
M  END
>  <TORSDO>  (79) 
F 19

>  <SCORE>  (79) 
-15.709

>  <name>  (79) 
78

>  <ligand_id>  (79) 
78

>  <original_smiles>  (79) 
[H]c1c([H])c([H])c2c(c1[H])C([H])([H])C([H])([H])C([H])([H])C2([H])N([H])C(=O)C1([H])N(C(=O)C([H])(N([H])C(=O)C([H])(N([H])C([H])([H])[H])C([H])([H])[H])C(C([H])([H])[H])(C([H])([H])[H])C([H])([H])[H])C([H])([H])c2c([H])c(OC([H])([H])C([H])([H])[N+]3([H])C4([H])C([H])([H])C([H])([H])C3([H])C([H])(C([H])([H])N([H])C(=O)N3C([H])([H])C([H])([H])C([H])([H])C([H])(n5nc(-c6c([H])c([H])c(Oc7c([H])c([H])c(F)c([H])c7F)c([H])c6[H])c(C(=O)N([H])[H])c5N([H])[H])C3([H])[H])C4([H])[H])c([H])c([H])c2C1([H])[H]

>  <smiles>  (79) 
[H]c1c([H])c([H])c2c(c1[H])C([H])([H])C([H])([H])C([H])([H])C2([H])N([H])C(=O)C1([H])N(C(=O)C([H])(N([H])C(=O)C([H])(N([H])C([H])([H])[H])C([H])([H])[H])C(C([H])([H])[H])(C([H])([H])[H])C([H])([H])[H])C([H])([H])c2c([H])c(OC([H])([H])C([H])([H])[N+]3([H])C4([H])C([H])([H])C([H])([H])C3([H])C([H])(C([H])([H])N([H])C(=O)N3C([H])([H])C([H])([H])C([H])([H])C([H])(n5nc(-c6c([H])c([H])c(Oc7c([H])c([H])c(F)c([H])c7F)c([H])c6[H])c(C(=O)N([H])[H])c5N([H])[H])C3([H])[H])C4([H])[H])c([H])c([H])c2C1([H])[H]

$$$$
80:0:0
     RDKit          3D

 93103  0  0  1  0  0  0  0  0999 V2000
  -30.3250  -20.5340   18.9380 C   0  0  0  0  0  2  0  0  0  0  0  0
  -30.5900  -19.2820   21.2050 C   0  0  0  0  0  3  0  0  0  0  0  0
  -29.9150  -18.3520   20.1600 C   0  0  0  0  0  3  0  0  0  0  0  0
  -30.4410  -20.7140   20.4750 C   0  0  1  0  0  0  0  0  0  0  0  0
  -29.1270  -19.7620   19.5140 C   0  0  2  0  0  0  0  0  0  0  0  0
  -29.0240  -21.1970   20.3500 N   0  0  2  0  0  4  0  0  0  0  0  0
  -28.5340  -21.0800   21.2250 H   0  0  0  0  0  0  0  0  0  0  0  0
  -30.4080  -15.4080   20.1670 C   0  0  0  0  0  0  0  0  0  0  0  0
  -30.3800  -12.9650   19.2810 C   0  0  0  0  0  2  0  0  0  0  0  0
  -29.4470  -12.7460   18.0650 C   0  0  0  0  0  2  0  0  0  0  0  0
  -28.0080  -12.4530   18.5180 C   0  0  0  0  0  2  0  0  0  0  0  0
  -27.5560  -13.4090   19.6490 C   0  0  0  0  0  3  0  0  0  0  0  0
  -28.6130  -13.5870   20.7590 C   0  0  0  0  0  2  0  0  0  0  0  0
  -29.8370  -14.1010   20.1150 N   0  0  0  0  0  0  0  0  0  0  0  0
  -31.6260  -15.4020   19.9340 O   0  0  0  0  0  0  0  0  0  0  0  0
  -29.6510  -16.6870   20.2680 N   0  0  0  0  0  0  0  0  0  0  0  0
  -28.6730  -16.4920   20.4100 H   0  0  0  0  0  0  0  0  0  0  0  0
  -25.1890  -13.9360   20.4410 C   0  0  0  0  0  0  0  0  0  0  0  0
  -24.1410  -13.1440   20.8200 C   0  0  0  0  0  0  0  0  0  0  0  0
  -24.6240  -11.8000   20.7800 C   0  0  0  0  0  0  0  0  0  0  0  0
  -26.2380  -13.0730   20.1770 N   0  0  0  0  0  0  0  0  0  0  0  0
  -25.9120  -11.7820   20.4520 N   0  0  0  0  0  0  0  0  0  0  0  0
  -23.9130  -10.5280   20.9710 C   0  0  0  0  0  0  0  0  0  0  0  0
  -24.3440   -9.5740   21.9190 C   0  0  0  0  0  3  0  0  0  0  0  0
  -23.6280   -8.3720   22.1030 C   0  0  0  0  0  3  0  0  0  0  0  0
  -22.4660   -8.1110   21.3350 C   0  0  0  0  0  0  0  0  0  0  0  0
  -22.0540   -9.0550   20.3730 C   0  0  0  0  0  3  0  0  0  0  0  0
  -22.7720  -10.2500   20.1900 C   0  0  0  0  0  3  0  0  0  0  0  0
  -21.7260   -6.9590   21.4220 O   0  0  0  0  0  0  0  0  0  0  0  0
  -21.6590   -6.2320   22.5860 C   0  0  0  0  0  0  0  0  0  0  0  0
  -21.1730   -6.7900   23.7890 C   0  0  0  0  0  3  0  0  0  0  0  0
  -21.0610   -5.9880   24.9430 C   0  0  0  0  0  3  0  0  0  0  0  0
  -21.4180   -4.6290   24.8920 C   0  0  0  0  0  0  0  0  0  0  0  0
  -21.8970   -4.0680   23.6940 C   0  0  0  0  0  3  0  0  0  0  0  0
  -22.0130   -4.8680   22.5440 C   0  0  0  0  0  0  0  0  0  0  0  0
  -22.4540   -4.3190   21.3870 F   0  0  0  0  0  0  0  0  0  0  0  0
  -21.3010   -3.8570   25.9970 F   0  0  0  0  0  0  0  0  0  0  0  0
  -22.7400  -13.6030   21.1020 C   0  0  0  0  0  0  0  0  0  0  0  0
  -22.0220  -12.8920   21.9630 N   0  0  0  0  0  0  0  0  0  0  0  0
  -22.2900  -14.6270   20.5880 O   0  0  0  0  0  0  0  0  0  0  0  0
  -22.3990  -12.0670   22.4070 H   0  0  0  0  0  0  0  0  0  0  0  0
  -21.0760  -13.1770   22.1760 H   0  0  0  0  0  0  0  0  0  0  0  0
  -25.3320  -15.3100   20.2670 N   0  0  0  0  0  0  0  0  0  0  0  0
  -24.5590  -15.9550   20.3910 H   0  0  0  0  0  0  0  0  0  0  0  0
  -26.1530  -15.7580   19.8820 H   0  0  0  0  0  0  0  0  0  0  0  0
  -32.0490  -18.9000   21.5330 C   0  0  0  0  0  0  0  0  0  0  0  0
  -33.0430  -19.6740   21.1010 N   0  0  0  0  0  0  0  0  0  0  0  0
  -32.2900  -17.9040   22.2130 O   0  0  0  0  0  0  0  0  0  0  0  0
  -32.8590  -20.4860   20.5290 H   0  0  0  0  0  0  0  0  0  0  0  0
  -34.0010  -19.4440   21.3240 H   0  0  0  0  0  0  0  0  0  0  0  0
  -28.8410  -22.8020   19.8020 C   0  0  0  0  0  2  0  0  0  0  0  0
  -27.9970  -24.2920   20.3980 C   0  0  0  0  0  2  0  0  0  0  0  0
  -28.1760  -25.9370   20.1710 O   0  0  0  0  0  0  0  0  0  0  0  0
  -24.6440  -31.9360   23.2010 C   0  0  0  0  0  0  0  0  0  0  0  0
  -27.1490  -27.0280   20.1740 C   0  0  0  0  0  0  0  0  0  0  0  0
  -23.4270  -30.5450   21.5760 C   0  0  0  0  0  3  0  0  0  0  0  0
  -24.8540  -28.9260   20.1470 C   0  0  0  0  0  0  0  0  0  0  0  0
  -25.9930  -30.7440   21.4020 C   0  0  0  0  0  2  0  0  0  0  0  0
  -26.0500  -29.3270   20.7550 C   0  0  0  0  0  0  0  0  0  0  0  0
  -27.1900  -28.3990   20.7440 C   0  0  0  0  0  3  0  0  0  0  0  0
  -25.9220  -26.7820   19.5190 C   0  0  0  0  0  3  0  0  0  0  0  0
  -24.8150  -27.6730   19.5090 C   0  0  0  0  0  3  0  0  0  0  0  0
  -23.6400  -29.8550   20.2000 C   0  0  0  0  0  2  0  0  0  0  0  0
  -24.7120  -31.1010   22.1140 N   0  0  0  0  0  0  0  0  0  0  0  0
  -23.5590  -32.2310   23.7310 O   0  0  0  0  0  0  0  0  0  0  0  0
  -22.7370  -29.5530   22.5500 C   0  0  0  0  0  0  0  0  0  0  0  0
  -21.4050  -29.3950   22.4380 N   0  0  0  0  0  0  0  0  0  0  0  0
  -23.4080  -28.9260   23.3740 O   0  0  0  0  0  0  0  0  0  0  0  0
  -20.9160  -29.9560   21.7540 H   0  0  0  0  0  0  0  0  0  0  0  0
  -18.0240  -28.1910   22.9670 C   0  0  0  0  0  0  0  0  0  0  0  0
  -20.5850  -28.4580   23.2130 C   0  0  0  0  0  3  0  0  0  0  0  0
  -20.6810  -27.0250   22.6410 C   0  0  0  0  0  2  0  0  0  0  0  0
  -19.5730  -26.7000   21.6340 C   0  0  0  0  0  2  0  0  0  0  0  0
  -18.1970  -26.8430   22.2890 C   0  0  0  0  0  2  0  0  0  0  0  0
  -19.1440  -28.9570   23.3860 C   0  0  0  0  0  0  0  0  0  0  0  0
  -18.9240  -30.2170   23.9850 C   0  0  0  0  0  3  0  0  0  0  0  0
  -17.6180  -30.7110   24.1660 C   0  0  0  0  0  3  0  0  0  0  0  0
  -16.5140  -29.9420   23.7600 C   0  0  0  0  0  3  0  0  0  0  0  0
  -16.7180  -28.6860   23.1660 C   0  0  0  0  0  3  0  0  0  0  0  0
  -25.9220  -32.5730   23.8250 C   0  0  0  0  0  3  0  0  0  0  0  0
  -26.4290  -31.8100   25.1110 C   0  0  1  0  0  0  0  0  0  0  0  0
  -25.3340  -31.5870   26.1820 C   0  0  0  0  0  1  0  0  0  0  0  0
  -27.0030  -30.4230   24.7380 C   0  0  0  0  0  1  0  0  0  0  0  0
  -27.5830  -32.6000   25.7680 C   0  0  0  0  0  1  0  0  0  0  0  0
  -25.6120  -33.9750   24.1580 N   0  0  0  0  0  0  0  0  0  0  0  0
  -25.9530  -35.0350   23.4130 C   0  0  0  0  0  0  0  0  0  0  0  0
  -26.6210  -34.9350   22.3800 O   0  0  0  0  0  0  0  0  0  0  0  0
  -25.0160  -34.1280   24.9590 H   0  0  0  0  0  0  0  0  0  0  0  0
  -24.2490  -36.8620   23.0700 C   0  0  0  0  0  1  0  0  0  0  0  0
  -25.4810  -36.4290   23.8820 C   0  0  0  0  0  3  0  0  0  0  0  0
  -27.6200  -37.2870   24.7360 C   0  0  0  0  0  1  0  0  0  0  0  0
  -26.5280  -37.4710   23.7830 N   0  0  0  0  0  0  0  0  0  0  0  0
  -26.1310  -38.3950   23.9290 H   0  0  0  0  0  0  0  0  0  0  0  0
  2 46  1  0
  3 16  1  0
  3  2  1  0
  4  1  1  6
  4  2  1  0
  5  1  1  1
  5  3  1  0
  5  6  1  0
  5  4  1  0
  6  4  1  0
  6  7  1  1
  8 16  1  0
  9 14  1  0
 10 11  1  0
 10  9  1  0
 12 11  1  0
 12 21  1  0
 12 13  1  0
 14  8  1  0
 14 13  1  0
 15  8  2  0
 16 17  1  0
 18 19  2  0
 19 38  1  0
 20 19  1  0
 20 23  1  0
 21 18  1  0
 21 22  1  0
 22 20  2  0
 23 24  1  0
 24 25  2  0
 26 29  1  0
 26 25  1  0
 27 26  2  0
 28 27  1  0
 28 23  2  0
 29 30  1  0
 30 31  1  0
 31 32  2  0
 33 32  1  0
 33 37  1  0
 34 33  2  0
 35 30  2  0
 35 34  1  0
 36 35  1  0
 38 39  1  0
 39 42  1  0
 39 41  1  0
 40 38  2  0
 43 44  1  0
 43 18  1  0
 45 43  1  0
 46 48  2  0
 47 50  1  0
 47 46  1  0
 49 47  1  0
 51  6  1  0
 51 52  1  0
 53 55  1  0
 53 52  1  0
 54 65  2  0
 55 60  1  0
 56 64  1  0
 56 66  1  0
 57 63  1  0
 57 59  1  0
 58 64  1  0
 59 58  1  0
 60 59  2  0
 61 55  2  0
 62 61  1  0
 62 57  2  0
 63 56  1  0
 64 54  1  0
 66 68  2  0
 67 66  1  0
 69 67  1  0
 70 79  2  0
 70 75  1  0
 71 67  1  0
 71 75  1  0
 72 71  1  0
 73 74  1  0
 73 72  1  0
 74 70  1  0
 75 76  2  0
 76 77  1  0
 78 77  2  0
 79 78  1  0
 80 54  1  0
 80 85  1  0
 80 81  1  0
 81 84  1  1
 81 82  1  0
 83 81  1  0
 85 88  1  0
 86 90  1  0
 86 85  1  0
 87 86  2  0
 90 89  1  0
 92 90  1  0
 92 93  1  0
 92 91  1  0
M  ISO  4   8 100  16 100  52 101  53 101
M  END
>  <TORSDO>  (80) 
F 19

>  <SCORE>  (80) 
-15.716

>  <name>  (80) 
80

>  <ligand_id>  (80) 
80

>  <original_smiles>  (80) 
[H]c1c([H])c([H])c2c(c1[H])C([H])([H])C([H])([H])C([H])([H])C2([H])N([H])C(=O)C1([H])N(C(=O)C([H])(N([H])C(=O)C([H])(N([H])C([H])([H])[H])C([H])([H])[H])C(C([H])([H])[H])(C([H])([H])[H])C([H])([H])[H])C([H])([H])c2c([H])c(OC([H])([H])C([H])([H])[N+]3([H])C4([H])C([H])([H])C3([H])C([H])(N([H])C(=O)N3C([H])([H])C([H])([H])C([H])([H])C([H])(n5nc(-c6c([H])c([H])c(Oc7c([H])c([H])c(F)c([H])c7F)c([H])c6[H])c(C(=O)N([H])[H])c5N([H])[H])C3([H])[H])C4([H])C(=O)N([H])[H])c([H])c([H])c2C1([H])[H]

>  <smiles>  (80) 
[H]c1c([H])c([H])c2c(c1[H])C([H])([H])C([H])([H])C([H])([H])C2([H])N([H])C(=O)C1([H])N(C(=O)C([H])(N([H])C(=O)C([H])(N([H])C([H])([H])[H])C([H])([H])[H])C(C([H])([H])[H])(C([H])([H])[H])C([H])([H])[H])C([H])([H])c2c([H])c(OC([H])([H])C([H])([H])[N+]3([H])C4([H])C([H])([H])C3([H])C([H])(N([H])C(=O)N3C([H])([H])C([H])([H])C([H])([H])C([H])(n5nc(-c6c([H])c([H])c(Oc7c([H])c([H])c(F)c([H])c7F)c([H])c6[H])c(C(=O)N([H])[H])c5N([H])[H])C3([H])[H])C4([H])C(=O)N([H])[H])c([H])c([H])c2C1([H])[H]

$$$$
81:0:0
     RDKit          3D

 94102  0  0  1  0  0  0  0  0999 V2000
  -29.9920  -20.0940   20.7870 C   0  0  0  0  0  0  0  0  0  0  0  0
  -30.1750  -18.6910   20.0190 C   0  0  0  0  0  0  0  0  0  0  0  0
  -31.3950  -19.0280   22.6620 C   0  0  0  0  0  2  0  0  0  0  0  0
  -31.3130  -17.5870   22.1330 C   0  0  0  0  0  2  0  0  0  0  0  0
  -30.1130  -19.8190   22.3180 C   0  0  0  0  0  3  0  0  0  0  0  0
  -31.0610  -17.4620   20.6030 C   0  0  0  0  0  3  0  0  0  0  0  0
  -29.6880  -21.2680   20.2210 N   0  0  0  0  0  0  0  0  0  0  0  0
  -29.6660  -18.5600   18.8970 O   0  0  0  0  0  0  0  0  0  0  0  0
  -31.2750  -14.8920   19.9710 C   0  0  0  0  0  0  0  0  0  0  0  0
  -30.9750  -12.5610   19.0940 C   0  0  0  0  0  2  0  0  0  0  0  0
  -30.0100  -12.5290   17.8880 C   0  0  0  0  0  2  0  0  0  0  0  0
  -28.5470  -12.4260   18.3600 C   0  0  0  0  0  2  0  0  0  0  0  0
  -28.2150  -13.4410   19.4850 C   0  0  0  0  0  3  0  0  0  0  0  0
  -29.2900  -13.4320   20.5990 C   0  0  0  0  0  2  0  0  0  0  0  0
  -30.5890  -13.6970   19.9620 N   0  0  0  0  0  0  0  0  0  0  0  0
  -32.4320  -14.9520   19.5510 O   0  0  0  0  0  0  0  0  0  0  0  0
  -30.5820  -16.0370   20.3180 N   0  0  0  0  0  0  0  0  0  0  0  0
  -29.6140  -15.8710   20.5470 H   0  0  0  0  0  0  0  0  0  0  0  0
  -25.9090  -14.1830   20.3350 C   0  0  0  0  0  0  0  0  0  0  0  0
  -24.8050  -13.4800   20.7320 C   0  0  0  0  0  0  0  0  0  0  0  0
  -25.1650  -12.0990   20.6450 C   0  0  0  0  0  0  0  0  0  0  0  0
  -26.8750  -13.2380   20.0240 N   0  0  0  0  0  0  0  0  0  0  0  0
  -26.4330  -11.9780   20.2740 N   0  0  0  0  0  0  0  0  0  0  0  0
  -24.3590  -10.8870   20.8350 C   0  0  0  0  0  0  0  0  0  0  0  0
  -24.7490   -9.8720   21.7370 C   0  0  0  0  0  3  0  0  0  0  0  0
  -23.9470   -8.7260   21.9180 C   0  0  0  0  0  3  0  0  0  0  0  0
  -22.7420   -8.5800   21.1930 C   0  0  0  0  0  0  0  0  0  0  0  0
  -22.3680   -9.5810   20.2800 C   0  0  0  0  0  3  0  0  0  0  0  0
  -23.1680  -10.7200   20.0980 C   0  0  0  0  0  3  0  0  0  0  0  0
  -21.9120   -7.4900   21.2830 O   0  0  0  0  0  0  0  0  0  0  0  0
  -21.8280   -6.7450   22.4320 C   0  0  0  0  0  0  0  0  0  0  0  0
  -21.4280   -7.3140   23.6620 C   0  0  0  0  0  3  0  0  0  0  0  0
  -21.2890   -6.4960   24.8010 C   0  0  0  0  0  3  0  0  0  0  0  0
  -21.5370   -5.1120   24.7120 C   0  0  0  0  0  0  0  0  0  0  0  0
  -21.9290   -4.5460   23.4860 C   0  0  0  0  0  3  0  0  0  0  0  0
  -22.0700   -5.3610   22.3510 C   0  0  0  0  0  0  0  0  0  0  0  0
  -22.4280   -4.8060   21.1670 F   0  0  0  0  0  0  0  0  0  0  0  0
  -21.3960   -4.3270   25.8040 F   0  0  0  0  0  0  0  0  0  0  0  0
  -23.4600  -14.0490   21.0830 C   0  0  0  0  0  0  0  0  0  0  0  0
  -22.7360  -13.3870   21.9760 N   0  0  0  0  0  0  0  0  0  0  0  0
  -23.0720  -15.1140   20.6030 O   0  0  0  0  0  0  0  0  0  0  0  0
  -23.0700  -12.5260   22.3810 H   0  0  0  0  0  0  0  0  0  0  0  0
  -21.8340  -13.7460   22.2580 H   0  0  0  0  0  0  0  0  0  0  0  0
  -26.1750  -15.5420   20.1860 N   0  0  0  0  0  0  0  0  0  0  0  0
  -25.4680  -16.2520   20.3390 H   0  0  0  0  0  0  0  0  0  0  0  0
  -27.0340  -15.9040   19.7960 H   0  0  0  0  0  0  0  0  0  0  0  0
  -29.9480  -20.9820   23.2130 N   0  0  0  0  0  4  0  0  0  0  0  0
  -30.7930  -21.5190   23.2870 H   0  0  0  0  0  0  0  0  0  0  0  0
  -29.6770  -20.6780   24.1310 H   0  0  0  0  0  0  0  0  0  0  0  0
  -29.2090  -21.5680   22.8640 H   0  0  0  0  0  0  0  0  0  0  0  0
  -29.3800  -22.6020   20.8920 C   0  0  0  0  0  3  0  0  0  0  0  0
  -29.2950  -23.9560   20.0190 C   0  0  0  0  0  3  0  0  0  0  0  0
  -28.5000  -25.1900   20.6940 C   0  0  0  0  0  2  0  0  0  0  0  0
  -28.6970  -26.6250   20.3090 O   0  0  0  0  0  0  0  0  0  0  0  0
  -24.7350  -31.9230   23.3000 C   0  0  0  0  0  0  0  0  0  0  0  0
  -27.5610  -27.4590   20.2740 C   0  0  0  0  0  0  0  0  0  0  0  0
  -23.6170  -30.4930   21.6260 C   0  0  0  0  0  3  0  0  0  0  0  0
  -25.1480  -29.0030   20.2170 C   0  0  0  0  0  0  0  0  0  0  0  0
  -26.1450  -30.8970   21.5000 C   0  0  0  0  0  2  0  0  0  0  0  0
  -26.2890  -29.5250   20.8420 C   0  0  0  0  0  0  0  0  0  0  0  0
  -27.4980  -28.7650   20.8600 C   0  0  0  0  0  3  0  0  0  0  0  0
  -26.4060  -27.0050   19.6040 C   0  0  0  0  0  3  0  0  0  0  0  0
  -25.2100  -27.7490   19.5860 C   0  0  0  0  0  3  0  0  0  0  0  0
  -23.8800  -29.8370   20.2430 C   0  0  0  0  0  2  0  0  0  0  0  0
  -24.8490  -31.1210   22.2020 N   0  0  0  0  0  0  0  0  0  0  0  0
  -23.6340  -32.1610   23.8140 O   0  0  0  0  0  0  0  0  0  0  0  0
  -22.9690  -29.4470   22.5660 C   0  0  0  0  0  0  0  0  0  0  0  0
  -21.6590  -29.2060   22.3930 N   0  0  0  0  0  0  0  0  0  0  0  0
  -23.6470  -28.8580   23.4110 O   0  0  0  0  0  0  0  0  0  0  0  0
  -21.1730  -29.7290   21.6800 H   0  0  0  0  0  0  0  0  0  0  0  0
  -18.3240  -27.8510   22.7880 C   0  0  0  0  0  0  0  0  0  0  0  0
  -20.8570  -28.2420   23.1530 C   0  0  0  0  0  3  0  0  0  0  0  0
  -21.0430  -26.8060   22.6190 C   0  0  0  0  0  2  0  0  0  0  0  0
  -20.0100  -26.4210   21.5550 C   0  0  0  0  0  2  0  0  0  0  0  0
  -18.5950  -26.5040   22.1390 C   0  0  0  0  0  2  0  0  0  0  0  0
  -19.3900  -28.6760   23.2430 C   0  0  0  0  0  0  0  0  0  0  0  0
  -19.0870  -29.9330   23.8100 C   0  0  0  0  0  3  0  0  0  0  0  0
  -17.7540  -30.3640   23.9320 C   0  0  0  0  0  3  0  0  0  0  0  0
  -16.7030  -29.5390   23.4920 C   0  0  0  0  0  3  0  0  0  0  0  0
  -16.9900  -28.2870   22.9220 C   0  0  0  0  0  3  0  0  0  0  0  0
  -25.9850  -32.5960   23.9480 C   0  0  0  0  0  3  0  0  0  0  0  0
  -26.4840  -31.8510   25.2480 C   0  0  1  0  0  0  0  0  0  0  0  0
  -25.3610  -31.5810   26.2790 C   0  0  0  0  0  1  0  0  0  0  0  0
  -27.1350  -30.4960   24.8910 C   0  0  0  0  0  1  0  0  0  0  0  0
  -27.5770  -32.6940   25.9420 C   0  0  0  0  0  1  0  0  0  0  0  0
  -25.6320  -33.9890   24.2500 N   0  0  0  0  0  0  0  0  0  0  0  0
  -25.9480  -35.0390   23.4800 C   0  0  0  0  0  0  0  0  0  0  0  0
  -26.6340  -34.9360   22.4600 O   0  0  0  0  0  0  0  0  0  0  0  0
  -25.0290  -34.1410   25.0450 H   0  0  0  0  0  0  0  0  0  0  0  0
  -24.1710  -36.7730   23.0810 C   0  0  0  0  0  1  0  0  0  0  0  0
  -25.4190  -36.4200   23.9070 C   0  0  0  0  0  3  0  0  0  0  0  0
  -27.5190  -37.3930   24.7290 C   0  0  0  0  0  1  0  0  0  0  0  0
  -26.4200  -37.5010   23.7740 N   0  0  0  0  0  0  0  0  0  0  0  0
  -25.9860  -38.4110   23.8950 H   0  0  0  0  0  0  0  0  0  0  0  0
  1  5  1  0
  2  6  1  0
  2  1  1  0
  4  3  1  0
  5  3  1  0
  5 47  1  0
  6 17  1  0
  6  4  1  0
  7  1  2  0
  7 51  1  0
  8  2  2  0
  9 17  1  0
 10 15  1  0
 11 12  1  0
 11 10  1  0
 13 12  1  0
 13 22  1  0
 13 14  1  0
 15  9  1  0
 15 14  1  0
 16  9  2  0
 17 18  1  0
 19 20  2  0
 20 39  1  0
 21 20  1  0
 21 24  1  0
 22 23  1  0
 22 19  1  0
 23 21  2  0
 24 25  1  0
 25 26  2  0
 27 30  1  0
 27 26  1  0
 28 27  2  0
 29 28  1  0
 29 24  2  0
 30 31  1  0
 31 32  1  0
 32 33  2  0
 34 33  1  0
 34 38  1  0
 35 34  2  0
 36 31  2  0
 36 35  1  0
 37 36  1  0
 39 40  1  0
 40 43  1  0
 40 42  1  0
 41 39  2  0
 44 19  1  0
 44 45  1  0
 46 44  1  0
 47 48  1  0
 47 49  1  0
 50 47  1  0
 52 53  1  0
 52 51  2  0
 54 53  1  0
 55 66  2  0
 56 54  1  0
 56 61  1  0
 57 65  1  0
 57 67  1  0
 58 64  1  0
 58 60  1  0
 59 65  1  0
 60 61  2  0
 60 59  1  0
 62 56  2  0
 63 62  1  0
 63 58  2  0
 64 57  1  0
 65 55  1  0
 67 69  2  0
 68 67  1  0
 70 68  1  0
 71 80  2  0
 71 76  1  0
 72 68  1  0
 72 76  1  0
 73 72  1  0
 74 75  1  0
 74 73  1  0
 75 71  1  0
 76 77  2  0
 77 78  1  0
 79 78  2  0
 80 79  1  0
 81 55  1  0
 81 86  1  0
 81 82  1  0
 82 85  1  1
 82 83  1  0
 84 82  1  0
 86 89  1  0
 87 91  1  0
 87 86  1  0
 88 87  2  0
 91 90  1  0
 93 94  1  0
 93 91  1  0
 93 92  1  0
M  ISO  4   9 100  17 100  53 101  54 101
M  END
>  <TORSDO>  (81) 
F 20

>  <SCORE>  (81) 
-12.994

>  <name>  (81) 
81

>  <ligand_id>  (81) 
81

>  <original_smiles>  (81) 
[H]c1c([H])c([H])c2c(c1[H])C([H])([H])C([H])([H])C([H])([H])C2([H])N([H])C(=O)C1([H])N(C(=O)C([H])(N([H])C(=O)C([H])(N([H])C([H])([H])[H])C([H])([H])[H])C(C([H])([H])[H])(C([H])([H])[H])C([H])([H])[H])C([H])([H])c2c([H])c(OC([H])([H])C([H])([H])C([H])([H])N=C3C(=O)C([H])(N([H])C(=O)N4C([H])([H])C([H])([H])C([H])([H])C([H])(n5nc(-c6c([H])c([H])c(Oc7c([H])c([H])c(F)c([H])c7F)c([H])c6[H])c(C(=O)N([H])[H])c5N([H])[H])C4([H])[H])C([H])([H])C([H])([H])C3([H])[N+]([H])([H])[H])c([H])c([H])c2C1([H])[H]

>  <smiles>  (81) 
[H]c1c([H])c([H])c2c(c1[H])C([H])([H])C([H])([H])C([H])([H])C2([H])N([H])C(=O)C1([H])N(C(=O)C([H])(N([H])C(=O)C([H])(N([H])C([H])([H])[H])C([H])([H])[H])C(C([H])([H])[H])(C([H])([H])[H])C([H])([H])[H])C([H])([H])c2c([H])c(OC([H])([H])C([H])([H])C([H])([H])N=C3C(=O)C([H])(N([H])C(=O)N4C([H])([H])C([H])([H])C([H])([H])C([H])(n5nc(-c6c([H])c([H])c(Oc7c([H])c([H])c(F)c([H])c7F)c([H])c6[H])c(C(=O)N([H])[H])c5N([H])[H])C4([H])[H])C([H])([H])C([H])([H])C3([H])[N+]([H])([H])[H])c([H])c([H])c2C1([H])[H]

$$$$
82:0:0
     RDKit          3D

 93101  0  0  1  0  0  0  0  0999 V2000
  -27.4590  -20.6300   19.5030 C   0  0  0  0  0  1  0  0  0  0  0  0
  -28.8750  -21.0770   19.9130 C   0  0  0  0  0  3  0  0  0  0  0  0
  -31.9170  -18.9770   21.2530 C   0  0  0  0  0  3  0  0  0  0  0  0
  -31.4910  -17.6400   21.1660 C   0  0  0  0  0  3  0  0  0  0  0  0
  -29.3390  -18.4350   20.3840 C   0  0  0  0  0  3  0  0  0  0  0  0
  -31.0890  -20.0600   20.8800 C   0  0  0  0  0  0  0  0  0  0  0  0
  -29.7510  -19.8380   20.4490 C   0  0  0  0  0  0  0  0  0  0  0  0
  -30.2010  -17.3070   20.7040 C   0  0  0  0  0  0  0  0  0  0  0  0
  -31.7110  -21.4480   20.9230 C   0  0  0  0  0  1  0  0  0  0  0  0
  -30.5740  -14.7370   20.4020 C   0  0  0  0  0  0  0  0  0  0  0  0
  -30.3530  -12.4750   19.3660 C   0  0  0  0  0  2  0  0  0  0  0  0
  -29.4160  -12.5600   18.1420 C   0  0  0  0  0  2  0  0  0  0  0  0
  -27.9470  -12.3890   18.5740 C   0  0  0  0  0  2  0  0  0  0  0  0
  -27.5760  -13.2780   19.7910 C   0  0  0  0  0  3  0  0  0  0  0  0
  -28.6320  -13.1810   20.9130 C   0  0  0  0  0  2  0  0  0  0  0  0
  -29.9300  -13.5250   20.3200 N   0  0  0  0  0  0  0  0  0  0  0  0
  -31.7640  -14.8130   20.0760 O   0  0  0  0  0  0  0  0  0  0  0  0
  -29.8100  -15.8770   20.6150 N   0  0  0  0  0  0  0  0  0  0  0  0
  -28.8200  -15.6960   20.6900 H   0  0  0  0  0  0  0  0  0  0  0  0
  -25.1920  -13.8760   20.5210 C   0  0  0  0  0  0  0  0  0  0  0  0
  -24.1230  -13.1040   20.8890 C   0  0  0  0  0  0  0  0  0  0  0  0
  -24.5820  -11.7510   20.8560 C   0  0  0  0  0  0  0  0  0  0  0  0
  -26.2320  -12.9930   20.2810 N   0  0  0  0  0  0  0  0  0  0  0  0
  -25.8720  -11.7110   20.5470 N   0  0  0  0  0  0  0  0  0  0  0  0
  -23.8530  -10.4900   21.0410 C   0  0  0  0  0  0  0  0  0  0  0  0
  -24.2790   -9.5210   21.9750 C   0  0  0  0  0  3  0  0  0  0  0  0
  -23.5500   -8.3250   22.1490 C   0  0  0  0  0  3  0  0  0  0  0  0
  -22.3800   -8.0900   21.3890 C   0  0  0  0  0  0  0  0  0  0  0  0
  -21.9730   -9.0490   20.4430 C   0  0  0  0  0  3  0  0  0  0  0  0
  -22.7030  -10.2350   20.2670 C   0  0  0  0  0  3  0  0  0  0  0  0
  -21.6230   -6.9470   21.4720 O   0  0  0  0  0  0  0  0  0  0  0  0
  -21.5610   -6.2070   22.6250 C   0  0  0  0  0  0  0  0  0  0  0  0
  -21.1130   -6.7610   23.8440 C   0  0  0  0  0  3  0  0  0  0  0  0
  -20.9990   -5.9460   24.9870 C   0  0  0  0  0  3  0  0  0  0  0  0
  -21.3260   -4.5790   24.9140 C   0  0  0  0  0  0  0  0  0  0  0  0
  -21.7680   -4.0240   23.7000 C   0  0  0  0  0  3  0  0  0  0  0  0
  -21.8820   -4.8360   22.5580 C   0  0  0  0  0  0  0  0  0  0  0  0
  -22.2890   -4.2920   21.3860 F   0  0  0  0  0  0  0  0  0  0  0  0
  -21.2090   -3.7940   26.0100 F   0  0  0  0  0  0  0  0  0  0  0  0
  -22.7270  -13.5850   21.1580 C   0  0  0  0  0  0  0  0  0  0  0  0
  -21.9930  -12.8850   22.0160 N   0  0  0  0  0  0  0  0  0  0  0  0
  -22.2950  -14.6150   20.6420 O   0  0  0  0  0  0  0  0  0  0  0  0
  -22.3560  -12.0520   22.4550 H   0  0  0  0  0  0  0  0  0  0  0  0
  -21.0560  -13.1890   22.2410 H   0  0  0  0  0  0  0  0  0  0  0  0
  -25.3580  -15.2460   20.3450 N   0  0  0  0  0  0  0  0  0  0  0  0
  -24.5860  -15.8950   20.4490 H   0  0  0  0  0  0  0  0  0  0  0  0
  -26.1940  -15.6840   19.9820 H   0  0  0  0  0  0  0  0  0  0  0  0
  -28.7840  -22.3850   20.7180 N   0  0  0  0  0  4  0  0  0  0  0  0
  -28.0410  -22.2670   21.3900 H   0  0  0  0  0  0  0  0  0  0  0  0
  -29.6360  -22.4530   21.2530 H   0  0  0  0  0  0  0  0  0  0  0  0
  -28.5950  -23.7300   19.9750 C   0  0  0  0  0  3  0  0  0  0  0  0
  -28.2060  -25.0550   20.8200 C   0  0  0  0  0  3  0  0  0  0  0  0
  -28.3440  -26.4430   20.2620 O   0  0  0  0  0  0  0  0  0  0  0  0
  -24.6010  -31.8980   23.2480 C   0  0  0  0  0  0  0  0  0  0  0  0
  -27.2290  -27.3010   20.2490 C   0  0  0  0  0  0  0  0  0  0  0  0
  -23.4080  -30.4900   21.6080 C   0  0  0  0  0  3  0  0  0  0  0  0
  -24.8680  -28.9250   20.2030 C   0  0  0  0  0  0  0  0  0  0  0  0
  -25.9480  -30.8070   21.4370 C   0  0  0  0  0  2  0  0  0  0  0  0
  -26.0340  -29.4200   20.7990 C   0  0  0  0  0  0  0  0  0  0  0  0
  -27.2210  -28.6230   20.8050 C   0  0  0  0  0  3  0  0  0  0  0  0
  -26.0420  -26.8610   19.6300 C   0  0  0  0  0  3  0  0  0  0  0  0
  -24.8760  -27.6530   19.6050 C   0  0  0  0  0  3  0  0  0  0  0  0
  -23.6320  -29.8030   20.2340 C   0  0  0  0  0  2  0  0  0  0  0  0
  -24.6710  -31.0830   22.1540 N   0  0  0  0  0  0  0  0  0  0  0  0
  -23.5140  -32.1780   23.7750 O   0  0  0  0  0  0  0  0  0  0  0  0
  -22.7380  -29.4800   22.5720 C   0  0  0  0  0  0  0  0  0  0  0  0
  -21.4110  -29.3110   22.4450 N   0  0  0  0  0  0  0  0  0  0  0  0
  -23.4120  -28.8530   23.3920 O   0  0  0  0  0  0  0  0  0  0  0  0
  -20.9250  -29.8690   21.7560 H   0  0  0  0  0  0  0  0  0  0  0  0
  -18.0240  -28.1450   22.9590 C   0  0  0  0  0  0  0  0  0  0  0  0
  -20.5860  -28.3780   23.2160 C   0  0  0  0  0  3  0  0  0  0  0  0
  -20.6710  -26.9480   22.6350 C   0  0  0  0  0  2  0  0  0  0  0  0
  -19.5610  -26.6390   21.6250 C   0  0  0  0  0  2  0  0  0  0  0  0
  -18.1840  -26.7960   22.2780 C   0  0  0  0  0  2  0  0  0  0  0  0
  -19.1530  -28.8940   23.3860 C   0  0  0  0  0  0  0  0  0  0  0  0
  -18.9490  -30.1550   23.9850 C   0  0  0  0  0  3  0  0  0  0  0  0
  -17.6510  -30.6690   24.1610 C   0  0  0  0  0  3  0  0  0  0  0  0
  -16.5370  -29.9170   23.7510 C   0  0  0  0  0  3  0  0  0  0  0  0
  -16.7240  -28.6570   23.1560 C   0  0  0  0  0  3  0  0  0  0  0  0
  -25.8780  -32.5360   23.8760 C   0  0  0  0  0  3  0  0  0  0  0  0
  -26.3860  -31.7730   25.1610 C   0  0  1  0  0  0  0  0  0  0  0  0
  -25.2850  -31.5430   26.2240 C   0  0  0  0  0  1  0  0  0  0  0  0
  -26.9700  -30.3920   24.7840 C   0  0  0  0  0  1  0  0  0  0  0  0
  -27.5310  -32.5710   25.8260 C   0  0  0  0  0  1  0  0  0  0  0  0
  -25.5650  -33.9360   24.1970 N   0  0  0  0  0  0  0  0  0  0  0  0
  -25.8970  -34.9850   23.4340 C   0  0  0  0  0  0  0  0  0  0  0  0
  -26.5680  -34.8770   22.4040 O   0  0  0  0  0  0  0  0  0  0  0  0
  -24.9690  -34.0940   24.9960 H   0  0  0  0  0  0  0  0  0  0  0  0
  -24.1710  -36.7780   23.0670 C   0  0  0  0  0  1  0  0  0  0  0  0
  -25.4090  -36.3760   23.8840 C   0  0  0  0  0  3  0  0  0  0  0  0
  -27.5400  -37.2660   24.7180 C   0  0  0  0  0  1  0  0  0  0  0  0
  -26.4420  -37.4290   23.7690 N   0  0  0  0  0  0  0  0  0  0  0  0
  -26.0350  -38.3500   23.9110 H   0  0  0  0  0  0  0  0  0  0  0  0
  2  1  1  0
  2  7  1  0
  2 48  1  0
  4  3  1  0
  5  7  2  0
  5  8  1  0
  6  9  1  0
  6  3  2  0
  7  6  1  0
  8  4  2  0
 10 18  1  0
 11 16  1  0
 12 13  1  0
 12 11  1  0
 14 13  1  0
 14 23  1  0
 14 15  1  0
 16 10  1  0
 16 15  1  0
 17 10  2  0
 18 19  1  0
 18  8  1  0
 20 21  2  0
 21 40  1  0
 22 21  1  0
 22 25  1  0
 23 20  1  0
 23 24  1  0
 24 22  2  0
 25 26  1  0
 26 27  2  0
 28 31  1  0
 28 27  1  0
 29 28  2  0
 30 29  1  0
 30 25  2  0
 31 32  1  0
 32 33  1  0
 33 34  2  0
 35 34  1  0
 35 39  1  0
 36 35  2  0
 37 32  2  0
 37 36  1  0
 38 37  1  0
 40 41  1  0
 41 44  1  0
 41 43  1  0
 42 40  2  0
 45 46  1  0
 45 20  1  0
 47 45  1  0
 48 50  1  0
 48 49  1  0
 51 48  1  0
 51 52  2  0
 53 52  1  0
 54 65  2  0
 55 53  1  0
 55 60  1  0
 56 64  1  0
 56 66  1  0
 57 63  1  0
 57 59  1  0
 58 64  1  0
 59 60  2  0
 59 58  1  0
 61 55  2  0
 62 61  1  0
 62 57  2  0
 63 56  1  0
 64 54  1  0
 66 68  2  0
 67 66  1  0
 69 67  1  0
 70 79  2  0
 70 75  1  0
 71 67  1  0
 71 75  1  0
 72 71  1  0
 73 74  1  0
 73 72  1  0
 74 70  1  0
 75 76  2  0
 76 77  1  0
 78 77  2  0
 79 78  1  0
 80 54  1  0
 80 85  1  0
 80 81  1  0
 81 84  1  1
 81 82  1  0
 83 81  1  0
 85 88  1  0
 86 90  1  0
 86 85  1  0
 87 86  2  0
 90 89  1  0
 92 90  1  0
 92 93  1  0
 92 91  1  0
M  ISO  4  10 100  18 100  52 101  53 101
M  END
>  <TORSDO>  (82) 
F 20

>  <SCORE>  (82) 
-13.997

>  <name>  (82) 
82

>  <ligand_id>  (82) 
82

>  <original_smiles>  (82) 
[H]c1c([H])c([H])c2c(c1[H])C([H])([H])C([H])([H])C([H])([H])C2([H])N([H])C(=O)C1([H])N(C(=O)C([H])(N([H])C(=O)C([H])(N([H])C([H])([H])[H])C([H])([H])[H])C(C([H])([H])[H])(C([H])([H])[H])C([H])([H])[H])C([H])([H])c2c([H])c(OC([H])([H])C([H])([H])[N+]([H])([H])C([H])(c3c([H])c(N([H])C(=O)N4C([H])([H])C([H])([H])C([H])([H])C([H])(n5nc(-c6c([H])c([H])c(Oc7c([H])c([H])c(F)c([H])c7F)c([H])c6[H])c(C(=O)N([H])[H])c5N([H])[H])C4([H])[H])c([H])c([H])c3C([H])([H])[H])C([H])([H])[H])c([H])c([H])c2C1([H])[H]

>  <smiles>  (82) 
[H]c1c([H])c([H])c2c(c1[H])C([H])([H])C([H])([H])C([H])([H])C2([H])N([H])C(=O)C1([H])N(C(=O)C([H])(N([H])C(=O)C([H])(N([H])C([H])([H])[H])C([H])([H])[H])C(C([H])([H])[H])(C([H])([H])[H])C([H])([H])[H])C([H])([H])c2c([H])c(OC([H])([H])C([H])([H])[N+]([H])([H])C([H])(c3c([H])c(N([H])C(=O)N4C([H])([H])C([H])([H])C([H])([H])C([H])(n5nc(-c6c([H])c([H])c(Oc7c([H])c([H])c(F)c([H])c7F)c([H])c6[H])c(C(=O)N([H])[H])c5N([H])[H])C4([H])[H])c([H])c([H])c3C([H])([H])[H])C([H])([H])[H])c([H])c([H])c2C1([H])[H]

$$$$
83:0:0
     RDKit          3D

 91 99  0  0  1  0  0  0  0  0999 V2000
  -29.3930  -19.0840   21.4440 C   0  0  0  0  0  2  0  0  0  0  0  0
  -31.1600  -19.6220   19.8510 C   0  0  0  0  0  2  0  0  0  0  0  0
  -28.6580  -20.4040   21.0430 C   0  0  0  0  0  2  0  0  0  0  0  0
  -30.2170  -18.4730   20.2880 C   0  0  0  0  0  3  0  0  0  0  0  0
  -30.4370  -20.9360   19.4260 C   0  0  0  0  0  3  0  0  0  0  0  0
  -31.4860  -21.9620   18.9590 C   0  0  0  0  0  1  0  0  0  0  0  0
  -29.5440  -21.4920   20.4980 N   0  0  1  0  0  4  0  0  0  0  0  0
  -30.1230  -21.7810   21.2730 H   0  0  0  0  0  0  0  0  0  0  0  0
  -31.0350  -17.1780   20.6640 C   0  0  0  0  0  2  0  0  0  0  0  0
  -30.9560  -14.7330   20.0630 C   0  0  0  0  0  0  0  0  0  0  0  0
  -30.5440  -12.5730   18.9340 C   0  0  0  0  0  2  0  0  0  0  0  0
  -29.5640  -12.7700   17.7610 C   0  0  0  0  0  2  0  0  0  0  0  0
  -28.1100  -12.6390   18.2510 C   0  0  0  0  0  2  0  0  0  0  0  0
  -27.8260  -13.4820   19.5240 C   0  0  0  0  0  3  0  0  0  0  0  0
  -28.9290  -13.3000   20.5920 C   0  0  0  0  0  2  0  0  0  0  0  0
  -30.2220  -13.5850   19.9580 N   0  0  0  0  0  0  0  0  0  0  0  0
  -32.0850  -14.8130   19.5770 O   0  0  0  0  0  0  0  0  0  0  0  0
  -30.3630  -15.8460   20.5740 N   0  0  0  0  0  0  0  0  0  0  0  0
  -29.4240  -15.7590   20.9340 H   0  0  0  0  0  0  0  0  0  0  0  0
  -25.4690  -14.0940   20.3460 C   0  0  0  0  0  0  0  0  0  0  0  0
  -24.4100  -13.3280   20.7510 C   0  0  0  0  0  0  0  0  0  0  0  0
  -24.8560  -11.9720   20.6860 C   0  0  0  0  0  0  0  0  0  0  0  0
  -26.4950  -13.2070   20.0610 N   0  0  0  0  0  0  0  0  0  0  0  0
  -26.1320  -11.9240   20.3240 N   0  0  0  0  0  0  0  0  0  0  0  0
  -24.1230  -10.7150   20.8920 C   0  0  0  0  0  0  0  0  0  0  0  0
  -24.5450   -9.7630   21.8450 C   0  0  0  0  0  3  0  0  0  0  0  0
  -23.8160   -8.5690   22.0390 C   0  0  0  0  0  3  0  0  0  0  0  0
  -22.6490   -8.3210   21.2780 C   0  0  0  0  0  0  0  0  0  0  0  0
  -22.2450   -9.2610   20.3130 C   0  0  0  0  0  3  0  0  0  0  0  0
  -22.9750  -10.4460   20.1190 C   0  0  0  0  0  3  0  0  0  0  0  0
  -21.8910   -7.1790   21.3800 O   0  0  0  0  0  0  0  0  0  0  0  0
  -21.7840   -6.4870   22.5590 C   0  0  0  0  0  0  0  0  0  0  0  0
  -21.2240   -7.0710   23.7170 C   0  0  0  0  0  3  0  0  0  0  0  0
  -21.0710   -6.3020   24.8890 C   0  0  0  0  0  3  0  0  0  0  0  0
  -21.4680   -4.9520   24.9010 C   0  0  0  0  0  0  0  0  0  0  0  0
  -22.0220   -4.3680   23.7490 C   0  0  0  0  0  3  0  0  0  0  0  0
  -22.1760   -5.1340   22.5800 C   0  0  0  0  0  0  0  0  0  0  0  0
  -22.6900   -4.5600   21.4650 F   0  0  0  0  0  0  0  0  0  0  0  0
  -21.3140   -4.2120   26.0240 F   0  0  0  0  0  0  0  0  0  0  0  0
  -23.0300  -13.8160   21.0840 C   0  0  0  0  0  0  0  0  0  0  0  0
  -22.3310  -13.1220   21.9750 N   0  0  0  0  0  0  0  0  0  0  0  0
  -22.5820  -14.8490   20.5900 O   0  0  0  0  0  0  0  0  0  0  0  0
  -22.7060  -12.2880   22.4000 H   0  0  0  0  0  0  0  0  0  0  0  0
  -21.4040  -13.4300   22.2360 H   0  0  0  0  0  0  0  0  0  0  0  0
  -25.6410  -15.4640   20.1750 N   0  0  0  0  0  0  0  0  0  0  0  0
  -24.8840  -16.1250   20.3180 H   0  0  0  0  0  0  0  0  0  0  0  0
  -26.4770  -15.8940   19.8030 H   0  0  0  0  0  0  0  0  0  0  0  0
  -28.7440  -22.7070   20.0560 C   0  0  0  0  0  2  0  0  0  0  0  0
  -29.2590  -24.1590   20.4280 C   0  0  0  0  0  2  0  0  0  0  0  0
  -28.3770  -25.2890   19.7790 C   0  0  0  0  0  2  0  0  0  0  0  0
  -28.5520  -26.7060   20.1360 O   0  0  0  0  0  0  0  0  0  0  0  0
  -24.5400  -31.7710   23.2470 C   0  0  0  0  0  0  0  0  0  0  0  0
  -27.4090  -27.5110   20.0480 C   0  0  0  0  0  0  0  0  0  0  0  0
  -23.4290  -30.3960   21.5250 C   0  0  0  0  0  3  0  0  0  0  0  0
  -24.9720  -28.9920   20.0560 C   0  0  0  0  0  0  0  0  0  0  0  0
  -25.9490  -30.8500   21.4020 C   0  0  0  0  0  2  0  0  0  0  0  0
  -26.1050  -29.5120   20.6960 C   0  0  0  0  0  0  0  0  0  0  0  0
  -27.3280  -28.7840   20.6850 C   0  0  0  0  0  3  0  0  0  0  0  0
  -26.2620  -27.0580   19.3550 C   0  0  0  0  0  3  0  0  0  0  0  0
  -25.0520  -27.7690   19.3780 C   0  0  0  0  0  3  0  0  0  0  0  0
  -23.6940  -29.7950   20.1190 C   0  0  0  0  0  2  0  0  0  0  0  0
  -24.6560  -31.0210   22.1160 N   0  0  0  0  0  0  0  0  0  0  0  0
  -23.4360  -31.9730   23.7740 O   0  0  0  0  0  0  0  0  0  0  0  0
  -22.7990  -29.3070   22.4240 C   0  0  0  0  0  0  0  0  0  0  0  0
  -21.4880  -29.0630   22.2500 N   0  0  0  0  0  0  0  0  0  0  0  0
  -23.4890  -28.6850   23.2370 O   0  0  0  0  0  0  0  0  0  0  0  0
  -20.9880  -29.6180   21.5690 H   0  0  0  0  0  0  0  0  0  0  0  0
  -18.1580  -27.7130   22.6420 C   0  0  0  0  0  0  0  0  0  0  0  0
  -20.7000  -28.0560   22.9620 C   0  0  0  0  0  3  0  0  0  0  0  0
  -20.8670  -26.6610   22.3160 C   0  0  0  0  0  2  0  0  0  0  0  0
  -19.7910  -26.3480   21.2720 C   0  0  0  0  0  2  0  0  0  0  0  0
  -18.3960  -26.4080   21.9020 C   0  0  0  0  0  2  0  0  0  0  0  0
  -19.2400  -28.4950   23.1260 C   0  0  0  0  0  0  0  0  0  0  0  0
  -18.9640  -29.7190   23.7730 C   0  0  0  0  0  3  0  0  0  0  0  0
  -17.6390  -30.1590   23.9450 C   0  0  0  0  0  3  0  0  0  0  0  0
  -16.5710  -29.3720   23.4810 C   0  0  0  0  0  3  0  0  0  0  0  0
  -16.8310  -28.1510   22.8340 C   0  0  0  0  0  3  0  0  0  0  0  0
  -25.7820  -32.4320   23.9200 C   0  0  0  0  0  3  0  0  0  0  0  0
  -26.2500  -31.6850   25.2290 C   0  0  1  0  0  0  0  0  0  0  0  0
  -25.1100  -31.4330   26.2420 C   0  0  0  0  0  1  0  0  0  0  0  0
  -26.8840  -30.3180   24.8850 C   0  0  0  0  0  1  0  0  0  0  0  0
  -27.3450  -32.5130   25.9420 C   0  0  0  0  0  1  0  0  0  0  0  0
  -25.4360  -33.8290   24.2170 N   0  0  0  0  0  0  0  0  0  0  0  0
  -25.7570  -34.8740   23.4420 C   0  0  0  0  0  0  0  0  0  0  0  0
  -26.4470  -34.7670   22.4250 O   0  0  0  0  0  0  0  0  0  0  0  0
  -24.8290  -33.9860   25.0070 H   0  0  0  0  0  0  0  0  0  0  0  0
  -23.9850  -36.6130   23.0320 C   0  0  0  0  0  1  0  0  0  0  0  0
  -25.2280  -36.2590   23.8640 C   0  0  0  0  0  3  0  0  0  0  0  0
  -27.3170  -37.2320   24.7140 C   0  0  0  0  0  1  0  0  0  0  0  0
  -26.2340  -37.3370   23.7400 N   0  0  0  0  0  0  0  0  0  0  0  0
  -25.7980  -38.2490   23.8470 H   0  0  0  0  0  0  0  0  0  0  0  0
  2  4  1  0
  3  1  1  0
  4  9  1  0
  4  1  1  0
  5  6  1  0
  5  2  1  0
  5  7  1  0
  7  3  1  0
  7  8  1  1
 10 18  1  0
 11 16  1  0
 12 13  1  0
 12 11  1  0
 14 13  1  0
 14 23  1  0
 14 15  1  0
 16 10  1  0
 16 15  1  0
 17 10  2  0
 18  9  1  0
 18 19  1  0
 20 21  2  0
 21 40  1  0
 22 21  1  0
 22 25  1  0
 23 24  1  0
 23 20  1  0
 24 22  2  0
 25 26  1  0
 26 27  2  0
 28 31  1  0
 28 27  1  0
 29 28  2  0
 30 29  1  0
 30 25  2  0
 31 32  1  0
 32 37  2  0
 32 33  1  0
 33 34  2  0
 34 35  1  0
 35 39  1  0
 36 35  2  0
 37 36  1  0
 38 37  1  0
 40 41  1  0
 41 44  1  0
 41 43  1  0
 42 40  2  0
 45 46  1  0
 45 20  1  0
 47 45  1  0
 48 49  1  0
 48  7  1  0
 50 51  1  0
 50 49  1  0
 52 63  2  0
 53 51  1  0
 53 58  1  0
 54 62  1  0
 54 64  1  0
 55 61  1  0
 55 57  1  0
 56 62  1  0
 57 56  1  0
 58 57  2  0
 59 60  1  0
 59 53  2  0
 60 55  2  0
 61 54  1  0
 62 52  1  0
 64 66  2  0
 65 64  1  0
 67 65  1  0
 68 77  2  0
 68 73  1  0
 69 65  1  0
 69 73  1  0
 70 69  1  0
 71 72  1  0
 71 70  1  0
 72 68  1  0
 73 74  2  0
 74 75  1  0
 76 75  2  0
 77 76  1  0
 78 52  1  0
 78 83  1  0
 78 79  1  0
 79 82  1  1
 79 80  1  0
 81 79  1  0
 83 86  1  0
 84 88  1  0
 84 83  1  0
 85 84  2  0
 88 87  1  0
 90 91  1  0
 90 88  1  0
 90 89  1  0
M  ISO  4  10 100  18 100  50 101  51 101
M  END
>  <TORSDO>  (83) 
F 20

>  <SCORE>  (83) 
-12.822

>  <name>  (83) 
83

>  <ligand_id>  (83) 
83

>  <original_smiles>  (83) 
[H]c1c([H])c([H])c2c(c1[H])C([H])([H])C([H])([H])C([H])([H])C2([H])N([H])C(=O)C1([H])N(C(=O)C([H])(N([H])C(=O)C([H])(N([H])C([H])([H])[H])C([H])([H])[H])C(C([H])([H])[H])(C([H])([H])[H])C([H])([H])[H])C([H])([H])c2c([H])c(OC([H])([H])C([H])([H])C([H])([H])[N+]3([H])C([H])([H])C([H])([H])C([H])(C([H])([H])N([H])C(=O)N4C([H])([H])C([H])([H])C([H])([H])C([H])(n5nc(-c6c([H])c([H])c(Oc7c([H])c([H])c(F)c([H])c7F)c([H])c6[H])c(C(=O)N([H])[H])c5N([H])[H])C4([H])[H])C([H])([H])C3([H])C([H])([H])[H])c([H])c([H])c2C1([H])[H]

>  <smiles>  (83) 
[H]c1c([H])c([H])c2c(c1[H])C([H])([H])C([H])([H])C([H])([H])C2([H])N([H])C(=O)C1([H])N(C(=O)C([H])(N([H])C(=O)C([H])(N([H])C([H])([H])[H])C([H])([H])[H])C(C([H])([H])[H])(C([H])([H])[H])C([H])([H])[H])C([H])([H])c2c([H])c(OC([H])([H])C([H])([H])C([H])([H])[N+]3([H])C([H])([H])C([H])([H])C([H])(C([H])([H])N([H])C(=O)N4C([H])([H])C([H])([H])C([H])([H])C([H])(n5nc(-c6c([H])c([H])c(Oc7c([H])c([H])c(F)c([H])c7F)c([H])c6[H])c(C(=O)N([H])[H])c5N([H])[H])C4([H])[H])C([H])([H])C3([H])C([H])([H])[H])c([H])c([H])c2C1([H])[H]

$$$$
84:0:0
     RDKit          3D

 92101  0  0  1  0  0  0  0  0999 V2000
  -29.1160  -21.1970   17.7800 C   0  0  0  0  0  3  0  0  0  0  0  0
  -29.4440  -19.9290   18.3480 C   0  0  0  0  0  3  0  0  0  0  0  0
  -28.9510  -22.4160   18.5050 C   0  0  0  0  0  3  0  0  0  0  0  0
  -29.4590  -21.1040   20.4520 C   0  0  0  0  0  3  0  0  0  0  0  0
  -29.6620  -19.7370   19.7280 C   0  0  0  0  0  0  0  0  0  0  0  0
  -29.0900  -22.5130   19.9070 C   0  0  0  0  0  0  0  0  0  0  0  0
  -30.6510  -15.1750   19.5190 C   0  0  0  0  0  0  0  0  0  0  0  0
  -30.4250  -12.7780   18.4790 C   0  0  0  0  0  2  0  0  0  0  0  0
  -29.3110  -12.6250   17.4080 C   0  0  0  0  0  2  0  0  0  0  0  0
  -27.9430  -12.3510   18.0590 C   0  0  0  0  0  2  0  0  0  0  0  0
  -27.7070  -13.2510   19.2920 C   0  0  0  0  0  3  0  0  0  0  0  0
  -28.9260  -13.2970   20.2320 C   0  0  0  0  0  2  0  0  0  0  0  0
  -30.0420  -13.8760   19.4540 N   0  0  0  0  0  0  0  0  0  0  0  0
  -31.7920  -15.1650   19.0310 O   0  0  0  0  0  0  0  0  0  0  0  0
  -29.9870  -16.3890   21.4620 C   0  0  0  0  0  2  0  0  0  0  0  0
  -30.1940  -18.1390   20.2750 C   0  0  0  0  0  3  0  0  0  0  0  0
  -29.3800  -17.7730   21.5010 C   0  0  0  0  0  3  0  0  0  0  0  0
  -29.9930  -16.4540   19.9800 N   0  0  0  0  0  0  0  0  0  0  0  0
  -25.5260  -13.8270   20.4760 C   0  0  0  0  0  0  0  0  0  0  0  0
  -24.5040  -13.0590   20.9610 C   0  0  0  0  0  0  0  0  0  0  0  0
  -24.8980  -11.7000   20.7540 C   0  0  0  0  0  0  0  0  0  0  0  0
  -26.4700  -12.9390   19.9940 N   0  0  0  0  0  0  0  0  0  0  0  0
  -26.1180  -11.6480   20.2290 N   0  0  0  0  0  0  0  0  0  0  0  0
  -24.1550  -10.4520   20.9730 C   0  0  0  0  0  0  0  0  0  0  0  0
  -24.6320   -9.4510   21.8470 C   0  0  0  0  0  3  0  0  0  0  0  0
  -23.8880   -8.2700   22.0570 C   0  0  0  0  0  3  0  0  0  0  0  0
  -22.6530   -8.0800   21.3910 C   0  0  0  0  0  0  0  0  0  0  0  0
  -22.1950   -9.0690   20.5030 C   0  0  0  0  0  3  0  0  0  0  0  0
  -22.9390  -10.2430   20.2920 C   0  0  0  0  0  3  0  0  0  0  0  0
  -21.8760   -6.9550   21.5130 O   0  0  0  0  0  0  0  0  0  0  0  0
  -21.8130   -6.2460   22.6870 C   0  0  0  0  0  0  0  0  0  0  0  0
  -21.3970   -6.8440   23.8960 C   0  0  0  0  0  3  0  0  0  0  0  0
  -21.2810   -6.0630   25.0630 C   0  0  0  0  0  3  0  0  0  0  0  0
  -21.5700   -4.6850   25.0220 C   0  0  0  0  0  0  0  0  0  0  0  0
  -21.9780   -4.0870   23.8160 C   0  0  0  0  0  3  0  0  0  0  0  0
  -22.0970   -4.8650   22.6520 C   0  0  0  0  0  0  0  0  0  0  0  0
  -22.4710   -4.2800   21.4880 F   0  0  0  0  0  0  0  0  0  0  0  0
  -21.4510   -3.9340   26.1400 F   0  0  0  0  0  0  0  0  0  0  0  0
  -23.1930  -13.5590   21.4900 C   0  0  0  0  0  0  0  0  0  0  0  0
  -22.5980  -12.8360   22.4330 N   0  0  0  0  0  0  0  0  0  0  0  0
  -22.7120  -14.6240   21.1040 O   0  0  0  0  0  0  0  0  0  0  0  0
  -23.0070  -11.9740   22.7640 H   0  0  0  0  0  0  0  0  0  0  0  0
  -21.7230  -13.1470   22.8290 H   0  0  0  0  0  0  0  0  0  0  0  0
  -25.7230  -15.2020   20.3740 N   0  0  0  0  0  0  0  0  0  0  0  0
  -25.0170  -15.8730   20.6570 H   0  0  0  0  0  0  0  0  0  0  0  0
  -26.5200  -15.6320   19.9210 H   0  0  0  0  0  0  0  0  0  0  0  0
  -29.6040  -18.5520   22.7370 N   0  0  0  0  0  4  0  0  0  0  0  0
  -30.5820  -18.6660   22.9390 H   0  0  0  0  0  0  0  0  0  0  0  0
  -29.1780  -18.0940   23.5220 H   0  0  0  0  0  0  0  0  0  0  0  0
  -29.1900  -19.4620   22.6630 H   0  0  0  0  0  0  0  0  0  0  0  0
  -28.6180  -24.0430   20.6610 C   0  0  0  0  0  2  0  0  0  0  0  0
  -28.7910  -25.6640   20.3140 O   0  0  0  0  0  0  0  0  0  0  0  0
  -24.8180  -31.5400   23.1130 C   0  0  0  0  0  0  0  0  0  0  0  0
  -27.7320  -26.7300   20.2810 C   0  0  0  0  0  0  0  0  0  0  0  0
  -23.7770  -30.0940   21.4160 C   0  0  0  0  0  3  0  0  0  0  0  0
  -25.3670  -28.5350   20.0940 C   0  0  0  0  0  0  0  0  0  0  0  0
  -26.3390  -30.4000   21.4180 C   0  0  0  0  0  2  0  0  0  0  0  0
  -26.5050  -28.9850   20.7780 C   0  0  0  0  0  0  0  0  0  0  0  0
  -27.6840  -28.1070   20.8380 C   0  0  0  0  0  3  0  0  0  0  0  0
  -26.5570  -26.4370   19.5520 C   0  0  0  0  0  3  0  0  0  0  0  0
  -25.4210  -27.2830   19.4610 C   0  0  0  0  0  3  0  0  0  0  0  0
  -24.1150  -29.4120   20.0610 C   0  0  0  0  0  2  0  0  0  0  0  0
  -24.9960  -30.7070   22.0360 N   0  0  0  0  0  0  0  0  0  0  0  0
  -23.6900  -31.7880   23.5690 O   0  0  0  0  0  0  0  0  0  0  0  0
  -23.0650  -29.0760   22.3460 C   0  0  0  0  0  0  0  0  0  0  0  0
  -21.7410  -28.8970   22.1790 N   0  0  0  0  0  0  0  0  0  0  0  0
  -23.7110  -28.4460   23.1860 O   0  0  0  0  0  0  0  0  0  0  0  0
  -21.2720  -29.4560   21.4790 H   0  0  0  0  0  0  0  0  0  0  0  0
  -18.3540  -27.6590   22.5960 C   0  0  0  0  0  0  0  0  0  0  0  0
  -20.9080  -27.9360   22.9110 C   0  0  0  0  0  3  0  0  0  0  0  0
  -21.0280  -26.5200   22.3020 C   0  0  0  0  0  2  0  0  0  0  0  0
  -19.9470  -26.2170   21.2600 C   0  0  0  0  0  2  0  0  0  0  0  0
  -18.5530  -26.3320   21.8830 C   0  0  0  0  0  2  0  0  0  0  0  0
  -19.4600  -28.4200   23.0640 C   0  0  0  0  0  0  0  0  0  0  0  0
  -19.2180  -29.6590   23.6940 C   0  0  0  0  0  3  0  0  0  0  0  0
  -17.9060  -30.1420   23.8550 C   0  0  0  0  0  3  0  0  0  0  0  0
  -16.8160  -29.3800   23.4010 C   0  0  0  0  0  3  0  0  0  0  0  0
  -17.0410  -28.1400   22.7780 C   0  0  0  0  0  3  0  0  0  0  0  0
  -26.0220  -32.2350   23.8170 C   0  0  0  0  0  3  0  0  0  0  0  0
  -26.4780  -31.4970   25.1350 C   0  0  1  0  0  0  0  0  0  0  0  0
  -25.3250  -31.2330   26.1330 C   0  0  0  0  0  1  0  0  0  0  0  0
  -27.1310  -30.1350   24.8070 C   0  0  0  0  0  1  0  0  0  0  0  0
  -27.5580  -32.3360   25.8600 C   0  0  0  0  0  1  0  0  0  0  0  0
  -25.6300  -33.6230   24.1250 N   0  0  0  0  0  0  0  0  0  0  0  0
  -25.9480  -34.6940   23.3860 C   0  0  0  0  0  0  0  0  0  0  0  0
  -26.6630  -34.6210   22.3840 O   0  0  0  0  0  0  0  0  0  0  0  0
  -24.9940  -33.7480   24.8990 H   0  0  0  0  0  0  0  0  0  0  0  0
  -24.1560  -36.4150   22.9760 C   0  0  0  0  0  1  0  0  0  0  0  0
  -25.3870  -36.0620   23.8260 C   0  0  0  0  0  3  0  0  0  0  0  0
  -27.4520  -37.0430   24.7230 C   0  0  0  0  0  1  0  0  0  0  0  0
  -26.3760  -37.1590   23.7430 N   0  0  0  0  0  0  0  0  0  0  0  0
  -25.9240  -38.0610   23.8730 H   0  0  0  0  0  0  0  0  0  0  0  0
  1  2  2  0
  1  3  1  0
  2  5  1  0
  3  6  2  0
  5  4  2  0
  6  4  1  0
  6 51  1  0
  7 18  1  0
  8 13  1  0
  9 10  1  0
  9  8  1  0
 11 10  1  0
 11 22  1  0
 11 12  1  0
 13  7  1  0
 13 12  1  0
 14  7  2  0
 15 17  1  0
 16  5  1  0
 16 17  1  0
 17 47  1  0
 18 16  1  0
 18 15  1  0
 19 20  2  0
 20 39  1  0
 21 20  1  0
 21 24  1  0
 22 23  1  0
 22 19  1  0
 23 21  2  0
 24 25  1  0
 25 26  2  0
 27 30  1  0
 27 26  1  0
 28 27  2  0
 29 28  1  0
 29 24  2  0
 30 31  1  0
 31 32  1  0
 32 33  2  0
 34 33  1  0
 34 38  1  0
 35 34  2  0
 36 31  2  0
 36 35  1  0
 37 36  1  0
 39 40  1  0
 40 42  1  0
 40 43  1  0
 41 39  2  0
 44 19  1  0
 44 45  1  0
 46 44  1  0
 47 48  1  0
 47 49  1  0
 50 47  1  0
 52 51  1  0
 53 64  2  0
 54 52  1  0
 54 59  1  0
 55 63  1  0
 55 65  1  0
 56 58  1  0
 57 63  1  0
 58 59  2  0
 58 57  1  0
 60 54  2  0
 61 60  1  0
 61 56  2  0
 62 56  1  0
 62 55  1  0
 63 53  1  0
 65 67  2  0
 66 65  1  0
 68 66  1  0
 69 78  2  0
 69 74  1  0
 70 66  1  0
 70 74  1  0
 71 70  1  0
 72 73  1  0
 72 71  1  0
 73 69  1  0
 74 75  2  0
 75 76  1  0
 77 76  2  0
 78 77  1  0
 79 53  1  0
 79 84  1  0
 79 80  1  0
 80 83  1  1
 80 81  1  0
 82 80  1  0
 84 87  1  0
 85 89  1  0
 85 84  1  0
 86 85  2  0
 89 88  1  0
 91 89  1  0
 91 92  1  0
 91 90  1  0
M  ISO  4   7 100  18 100  51 101  52 101
M  END
>  <TORSDO>  (84) 
F 18

>  <SCORE>  (84) 
-12.856

>  <name>  (84) 
84

>  <ligand_id>  (84) 
84

>  <original_smiles>  (84) 
[H]c1c([H])c([H])c2c(c1[H])C([H])([H])C([H])([H])C([H])([H])C2([H])N([H])C(=O)C1([H])N(C(=O)C([H])(N([H])C(=O)C([H])(N([H])C([H])([H])[H])C([H])([H])[H])C(C([H])([H])[H])(C([H])([H])[H])C([H])([H])[H])C([H])([H])c2c([H])c(OC([H])([H])c3c([H])c([H])c([H])c(C4([H])N(C(=O)N5C([H])([H])C([H])([H])C([H])([H])C([H])(n6nc(-c7c([H])c([H])c(Oc8c([H])c([H])c(F)c([H])c8F)c([H])c7[H])c(C(=O)N([H])[H])c6N([H])[H])C5([H])[H])C([H])([H])C4([H])[N+]([H])([H])[H])c3[H])c([H])c([H])c2C1([H])[H]

>  <smiles>  (84) 
[H]c1c([H])c([H])c2c(c1[H])C([H])([H])C([H])([H])C([H])([H])C2([H])N([H])C(=O)C1([H])N(C(=O)C([H])(N([H])C(=O)C([H])(N([H])C([H])([H])[H])C([H])([H])[H])C(C([H])([H])[H])(C([H])([H])[H])C([H])([H])[H])C([H])([H])c2c([H])c(OC([H])([H])c3c([H])c([H])c([H])c(C4([H])N(C(=O)N5C([H])([H])C([H])([H])C([H])([H])C([H])(n6nc(-c7c([H])c([H])c(Oc8c([H])c([H])c(F)c([H])c8F)c([H])c7[H])c(C(=O)N([H])[H])c6N([H])[H])C5([H])[H])C([H])([H])C4([H])[N+]([H])([H])[H])c3[H])c([H])c([H])c2C1([H])[H]

$$$$
85:0:0
     RDKit          3D

 90100  0  0  1  0  0  0  0  0999 V2000
  -29.6370  -19.2120   20.8350 C   0  0  0  0  0  0  0  0  0  0  0  0
  -28.9840  -20.4110   20.4020 N   0  0  0  0  0  0  0  0  0  0  0  0
  -30.4710  -19.2960   21.7370 O   0  0  0  0  0  0  0  0  0  0  0  0
  -28.3450  -20.2470   19.6340 H   0  0  0  0  0  0  0  0  0  0  0  0
  -30.7290  -15.1890   20.8110 C   0  0  0  0  0  0  0  0  0  0  0  0
  -30.6720  -12.8030   19.9320 C   0  0  0  0  0  2  0  0  0  0  0  0
  -29.8420  -12.6410   18.6430 C   0  0  0  0  0  2  0  0  0  0  0  0
  -28.3540  -12.4210   18.9790 C   0  0  0  0  0  2  0  0  0  0  0  0
  -27.8350  -13.3910   20.0740 C   0  0  0  0  0  3  0  0  0  0  0  0
  -28.8080  -13.5290   21.2610 C   0  0  0  0  0  2  0  0  0  0  0  0
  -30.0900  -13.9530   20.6840 N   0  0  0  0  0  0  0  0  0  0  0  0
  -31.9630  -15.1250   20.8540 O   0  0  0  0  0  0  0  0  0  0  0  0
  -29.2520  -16.5850   17.9640 C   0  0  0  0  0  2  0  0  0  0  0  0
  -30.8210  -17.8610   18.2950 C   0  0  0  0  0  2  0  0  0  0  0  0
  -29.3200  -17.6710   20.2670 C   0  0  0  0  0  3  0  0  0  0  0  0
  -29.3570  -17.8960   18.7510 C   0  0  1  0  0  0  0  0  0  0  0  0
  -30.5790  -16.4020   18.7140 C   0  0  2  0  0  0  0  0  0  0  0  0
  -30.2260  -16.3570   20.1480 N   0  0  0  0  0  0  0  0  0  0  0  0
  -25.4040  -13.9460   20.6280 C   0  0  0  0  0  0  0  0  0  0  0  0
  -24.3240  -13.1620   20.9270 C   0  0  0  0  0  0  0  0  0  0  0  0
  -24.8100  -11.8180   20.9640 C   0  0  0  0  0  0  0  0  0  0  0  0
  -26.4740  -13.0800   20.4890 N   0  0  0  0  0  0  0  0  0  0  0  0
  -26.1240  -11.7970   20.7600 N   0  0  0  0  0  0  0  0  0  0  0  0
  -24.0900  -10.5490   21.1210 C   0  0  0  0  0  0  0  0  0  0  0  0
  -24.4650   -9.6040   22.1010 C   0  0  0  0  0  3  0  0  0  0  0  0
  -23.7420   -8.3980   22.2460 C   0  0  0  0  0  3  0  0  0  0  0  0
  -22.6320   -8.1320   21.4110 C   0  0  0  0  0  0  0  0  0  0  0  0
  -22.2780   -9.0660   20.4210 C   0  0  0  0  0  3  0  0  0  0  0  0
  -23.0010  -10.2620   20.2740 C   0  0  0  0  0  3  0  0  0  0  0  0
  -21.8870   -6.9790   21.4640 O   0  0  0  0  0  0  0  0  0  0  0  0
  -21.7660   -6.2530   22.6220 C   0  0  0  0  0  0  0  0  0  0  0  0
  -21.2370   -6.8170   23.8030 C   0  0  0  0  0  3  0  0  0  0  0  0
  -21.0660   -6.0150   24.9500 C   0  0  0  0  0  3  0  0  0  0  0  0
  -21.4130   -4.6520   24.9150 C   0  0  0  0  0  0  0  0  0  0  0  0
  -21.9330   -4.0870   23.7380 C   0  0  0  0  0  3  0  0  0  0  0  0
  -22.1070   -4.8860   22.5930 C   0  0  0  0  0  0  0  0  0  0  0  0
  -22.5900   -4.3310   21.4550 F   0  0  0  0  0  0  0  0  0  0  0  0
  -21.2410   -3.8790   26.0140 F   0  0  0  0  0  0  0  0  0  0  0  0
  -22.9030  -13.6220   21.0680 C   0  0  0  0  0  0  0  0  0  0  0  0
  -22.1160  -12.9400   21.8910 N   0  0  0  0  0  0  0  0  0  0  0  0
  -22.4970  -14.6250   20.4830 O   0  0  0  0  0  0  0  0  0  0  0  0
  -22.4560  -12.1330   22.3930 H   0  0  0  0  0  0  0  0  0  0  0  0
  -21.1580  -13.2320   22.0240 H   0  0  0  0  0  0  0  0  0  0  0  0
  -25.5610  -15.3160   20.4370 N   0  0  0  0  0  0  0  0  0  0  0  0
  -24.7780  -15.9590   20.4840 H   0  0  0  0  0  0  0  0  0  0  0  0
  -26.4300  -15.7640   20.1820 H   0  0  0  0  0  0  0  0  0  0  0  0
  -28.8910  -21.8940   20.9760 C   0  0  0  0  0  3  0  0  0  0  0  0
  -28.5890  -23.3370   20.1220 C   0  0  0  0  0  3  0  0  0  0  0  0
  -28.0970  -24.8180   20.7990 C   0  0  0  0  0  2  0  0  0  0  0  0
  -28.2310  -26.2910   20.2840 O   0  0  0  0  0  0  0  0  0  0  0  0
  -24.5670  -31.9980   23.2650 C   0  0  0  0  0  0  0  0  0  0  0  0
  -27.1550  -27.2510   20.2940 C   0  0  0  0  0  0  0  0  0  0  0  0
  -23.3670  -30.5750   21.6490 C   0  0  0  0  0  3  0  0  0  0  0  0
  -24.8150  -28.9810   20.2450 C   0  0  0  0  0  0  0  0  0  0  0  0
  -25.9180  -30.8520   21.4680 C   0  0  0  0  0  2  0  0  0  0  0  0
  -25.9970  -29.4480   20.8380 C   0  0  0  0  0  0  0  0  0  0  0  0
  -27.1700  -28.6010   20.8360 C   0  0  0  0  0  3  0  0  0  0  0  0
  -25.9450  -26.8800   19.6730 C   0  0  0  0  0  3  0  0  0  0  0  0
  -24.8020  -27.7110   19.6470 C   0  0  0  0  0  3  0  0  0  0  0  0
  -23.5850  -29.8750   20.2810 C   0  0  0  0  0  2  0  0  0  0  0  0
  -24.6380  -31.1650   22.1820 N   0  0  0  0  0  0  0  0  0  0  0  0
  -23.4820  -32.2840   23.7940 O   0  0  0  0  0  0  0  0  0  0  0  0
  -22.6970  -29.5800   22.6290 C   0  0  0  0  0  0  0  0  0  0  0  0
  -21.3740  -29.3790   22.4910 N   0  0  0  0  0  0  0  0  0  0  0  0
  -23.3700  -28.9870   23.4760 O   0  0  0  0  0  0  0  0  0  0  0  0
  -20.8860  -29.9070   21.7810 H   0  0  0  0  0  0  0  0  0  0  0  0
  -18.0150  -28.1080   22.9670 C   0  0  0  0  0  0  0  0  0  0  0  0
  -20.5610  -28.4440   23.2740 C   0  0  0  0  0  3  0  0  0  0  0  0
  -20.7090  -27.0000   22.7440 C   0  0  0  0  0  2  0  0  0  0  0  0
  -19.6350  -26.6190   21.7200 C   0  0  0  0  0  2  0  0  0  0  0  0
  -18.2390  -26.7460   22.3330 C   0  0  0  0  0  2  0  0  0  0  0  0
  -19.1040  -28.9120   23.3940 C   0  0  0  0  0  0  0  0  0  0  0  0
  -18.8400  -30.1840   23.9470 C   0  0  0  0  0  3  0  0  0  0  0  0
  -17.5180  -30.6530   24.0760 C   0  0  0  0  0  3  0  0  0  0  0  0
  -16.4430  -29.8460   23.6650 C   0  0  0  0  0  3  0  0  0  0  0  0
  -16.6920  -28.5760   23.1160 C   0  0  0  0  0  3  0  0  0  0  0  0
  -25.8440  -32.6470   23.8800 C   0  0  0  0  0  3  0  0  0  0  0  0
  -26.3550  -31.9040   25.1760 C   0  0  1  0  0  0  0  0  0  0  0  0
  -25.2570  -31.6880   26.2440 C   0  0  0  0  0  1  0  0  0  0  0  0
  -26.9400  -30.5190   24.8200 C   0  0  0  0  0  1  0  0  0  0  0  0
  -27.5030  -32.7120   25.8240 C   0  0  0  0  0  1  0  0  0  0  0  0
  -25.5310  -34.0530   24.1870 N   0  0  0  0  0  0  0  0  0  0  0  0
  -25.8780  -35.0980   23.4230 C   0  0  0  0  0  0  0  0  0  0  0  0
  -26.5600  -34.9800   22.4020 O   0  0  0  0  0  0  0  0  0  0  0  0
  -24.9240  -34.2180   24.9770 H   0  0  0  0  0  0  0  0  0  0  0  0
  -24.1730  -36.9050   23.0160 C   0  0  0  0  0  1  0  0  0  0  0  0
  -25.3910  -36.4950   23.8590 C   0  0  0  0  0  3  0  0  0  0  0  0
  -27.5100  -37.3730   24.7360 C   0  0  0  0  0  1  0  0  0  0  0  0
  -26.4350  -37.5390   23.7630 N   0  0  0  0  0  0  0  0  0  0  0  0
  -26.0330  -38.4640   23.8880 H   0  0  0  0  0  0  0  0  0  0  0  0
  1  3  2  0
  2  1  1  0
  2 47  1  0
  4  2  1  0
  5 12  2  0
  6 11  1  0
  7  8  1  0
  7  6  1  0
  9  8  1  0
  9 22  1  0
  9 10  1  0
 11  5  1  0
 11 10  1  0
 17 14  1  6
 16 14  1  1
 15  1  1  0
 16 13  1  0
 16 15  1  0
 17 13  1  0
 17 16  1  0
 17 18  1  0
 18 15  1  0
 18  5  1  0
 19 20  2  0
 20 21  1  0
 20 39  1  0
 21 24  1  0
 22 19  1  0
 22 23  1  0
 23 21  2  0
 24 25  1  0
 25 26  2  0
 27 30  1  0
 27 26  1  0
 28 27  2  0
 29 28  1  0
 29 24  2  0
 30 31  1  0
 31 32  1  0
 32 33  2  0
 34 33  1  0
 34 38  1  0
 35 34  2  0
 36 31  2  0
 36 35  1  0
 37 36  1  0
 39 40  1  0
 40 43  1  0
 40 42  1  0
 41 39  2  0
 44 45  1  0
 44 19  1  0
 46 44  1  0
 48 49  1  0
 48 47  2  0
 50 52  1  0
 50 49  1  0
 51 62  2  0
 52 57  1  0
 53 61  1  0
 53 63  1  0
 54 60  1  0
 54 56  1  0
 55 61  1  0
 56 55  1  0
 57 56  2  0
 58 52  2  0
 59 58  1  0
 59 54  2  0
 60 53  1  0
 61 51  1  0
 63 65  2  0
 64 63  1  0
 66 64  1  0
 67 76  2  0
 67 72  1  0
 68 64  1  0
 68 72  1  0
 69 68  1  0
 70 71  1  0
 70 69  1  0
 71 67  1  0
 72 73  2  0
 73 74  1  0
 75 74  2  0
 76 75  1  0
 77 51  1  0
 77 82  1  0
 77 78  1  0
 78 81  1  1
 78 79  1  0
 80 78  1  0
 82 85  1  0
 83 87  1  0
 83 82  1  0
 84 83  2  0
 87 86  1  0
 89 87  1  0
 89 90  1  0
 89 88  1  0
M  ISO  4   5 100  18 100  49 101  50 101
M  END
>  <TORSDO>  (85) 
F 19

>  <SCORE>  (85) 
-14.272

>  <name>  (85) 
85

>  <ligand_id>  (85) 
85

>  <original_smiles>  (85) 
[H]c1c([H])c([H])c2c(c1[H])C([H])([H])C([H])([H])C([H])([H])C2([H])N([H])C(=O)C1([H])N(C(=O)C([H])(N([H])C(=O)C([H])(N([H])C([H])([H])[H])C([H])([H])[H])C(C([H])([H])[H])(C([H])([H])[H])C([H])([H])[H])C([H])([H])c2c([H])c(OC([H])([H])C([H])([H])C([H])([H])N([H])C(=O)C3([H])N(C(=O)N4C([H])([H])C([H])([H])C([H])([H])C([H])(n5nc(-c6c([H])c([H])c(Oc7c([H])c([H])c(F)c([H])c7F)c([H])c6[H])c(C(=O)N([H])[H])c5N([H])[H])C4([H])[H])C4([H])C([H])([H])C3([H])C4([H])[H])c([H])c([H])c2C1([H])[H]

>  <smiles>  (85) 
[H]c1c([H])c([H])c2c(c1[H])C([H])([H])C([H])([H])C([H])([H])C2([H])N([H])C(=O)C1([H])N(C(=O)C([H])(N([H])C(=O)C([H])(N([H])C([H])([H])[H])C([H])([H])[H])C(C([H])([H])[H])(C([H])([H])[H])C([H])([H])[H])C([H])([H])c2c([H])c(OC([H])([H])C([H])([H])C([H])([H])N([H])C(=O)C3([H])N(C(=O)N4C([H])([H])C([H])([H])C([H])([H])C([H])(n5nc(-c6c([H])c([H])c(Oc7c([H])c([H])c(F)c([H])c7F)c([H])c6[H])c(C(=O)N([H])[H])c5N([H])[H])C4([H])[H])C4([H])C([H])([H])C3([H])C4([H])[H])c([H])c([H])c2C1([H])[H]

$$$$
86:0:0
     RDKit          3D

 91 99  0  0  1  0  0  0  0  0999 V2000
  -29.8580  -19.9370   21.2630 C   0  0  0  0  0  3  0  0  0  0  0  0
  -30.0180  -18.5000   21.4100 C   0  0  0  0  0  3  0  0  0  0  0  0
  -29.2500  -18.1830   19.2030 C   0  0  0  0  0  3  0  0  0  0  0  0
  -29.3750  -20.5860   20.0770 C   0  0  0  0  0  0  0  0  0  0  0  0
  -29.0750  -19.6170   19.0470 C   0  0  0  0  0  0  0  0  0  0  0  0
  -29.7480  -17.5400   20.3780 C   0  0  0  0  0  0  0  0  0  0  0  0
  -30.5280  -14.9360   20.2490 C   0  0  0  0  0  0  0  0  0  0  0  0
  -30.3930  -12.6220   19.2470 C   0  0  0  0  0  2  0  0  0  0  0  0
  -29.4430  -12.6620   18.0280 C   0  0  0  0  0  2  0  0  0  0  0  0
  -27.9790  -12.4630   18.4670 C   0  0  0  0  0  2  0  0  0  0  0  0
  -27.6050  -13.3400   19.6900 C   0  0  0  0  0  3  0  0  0  0  0  0
  -28.6730  -13.2690   20.8030 C   0  0  0  0  0  2  0  0  0  0  0  0
  -29.9530  -13.6730   20.2030 N   0  0  0  0  0  0  0  0  0  0  0  0
  -31.7020  -15.0620   19.8830 O   0  0  0  0  0  0  0  0  0  0  0  0
  -29.7160  -16.0360   20.5840 N   0  0  0  0  0  0  0  0  0  0  0  0
  -28.8250  -15.7140   20.9330 H   0  0  0  0  0  0  0  0  0  0  0  0
  -25.2200  -13.9180   20.4260 C   0  0  0  0  0  0  0  0  0  0  0  0
  -24.1610  -13.1400   20.8070 C   0  0  0  0  0  0  0  0  0  0  0  0
  -24.6320  -11.7910   20.7820 C   0  0  0  0  0  0  0  0  0  0  0  0
  -26.2670  -13.0420   20.1890 N   0  0  0  0  0  0  0  0  0  0  0  0
  -25.9220  -11.7590   20.4670 N   0  0  0  0  0  0  0  0  0  0  0  0
  -23.9130  -10.5260   20.9820 C   0  0  0  0  0  0  0  0  0  0  0  0
  -24.3480   -9.5710   21.9280 C   0  0  0  0  0  3  0  0  0  0  0  0
  -23.6270   -8.3710   22.1170 C   0  0  0  0  0  3  0  0  0  0  0  0
  -22.4590   -8.1180   21.3600 C   0  0  0  0  0  0  0  0  0  0  0  0
  -22.0440   -9.0610   20.4040 C   0  0  0  0  0  3  0  0  0  0  0  0
  -22.7640  -10.2520   20.2130 C   0  0  0  0  0  3  0  0  0  0  0  0
  -21.7110   -6.9690   21.4570 O   0  0  0  0  0  0  0  0  0  0  0  0
  -21.6570   -6.2420   22.6190 C   0  0  0  0  0  0  0  0  0  0  0  0
  -21.2070   -6.8080   23.8320 C   0  0  0  0  0  3  0  0  0  0  0  0
  -21.1010   -6.0070   24.9850 C   0  0  0  0  0  3  0  0  0  0  0  0
  -21.4340   -4.6400   24.9280 C   0  0  0  0  0  0  0  0  0  0  0  0
  -21.8760   -4.0740   23.7200 C   0  0  0  0  0  3  0  0  0  0  0  0
  -21.9850   -4.8720   22.5670 C   0  0  0  0  0  0  0  0  0  0  0  0
  -22.3900   -4.3160   21.4010 F   0  0  0  0  0  0  0  0  0  0  0  0
  -21.3250   -3.8680   26.0350 F   0  0  0  0  0  0  0  0  0  0  0  0
  -22.7630  -13.6110   21.0800 C   0  0  0  0  0  0  0  0  0  0  0  0
  -22.0410  -12.9120   21.9490 N   0  0  0  0  0  0  0  0  0  0  0  0
  -22.3180  -14.6320   20.5590 O   0  0  0  0  0  0  0  0  0  0  0  0
  -22.4140  -12.0850   22.3910 H   0  0  0  0  0  0  0  0  0  0  0  0
  -21.1030  -13.2070   22.1750 H   0  0  0  0  0  0  0  0  0  0  0  0
  -25.3770  -15.2880   20.2370 N   0  0  0  0  0  0  0  0  0  0  0  0
  -24.6070  -15.9410   20.3380 H   0  0  0  0  0  0  0  0  0  0  0  0
  -26.2130  -15.7220   19.8690 H   0  0  0  0  0  0  0  0  0  0  0  0
  -29.7200  -20.3450   16.7050 C   0  0  0  0  0  1  0  0  0  0  0  0
  -28.5710  -20.0790   17.6880 C   0  0  0  0  0  2  0  0  0  0  0  0
  -29.4240  -22.2150   19.8210 C   0  0  0  0  0  2  0  0  0  0  0  0
  -27.1340  -22.9860   20.8150 C   0  0  0  0  0  1  0  0  0  0  0  0
  -28.5560  -23.4620   20.5000 C   0  0  0  0  0  3  0  0  0  0  0  0
  -28.4770  -24.9490   19.7380 C   0  0  0  0  0  2  0  0  0  0  0  0
  -28.3390  -26.3510   20.3550 O   0  0  0  0  0  0  0  0  0  0  0  0
  -24.6180  -31.9230   23.2720 C   0  0  0  0  0  0  0  0  0  0  0  0
  -27.2310  -27.2520   20.2440 C   0  0  0  0  0  0  0  0  0  0  0  0
  -23.4240  -30.5190   21.6340 C   0  0  0  0  0  3  0  0  0  0  0  0
  -24.8770  -28.9450   20.2130 C   0  0  0  0  0  0  0  0  0  0  0  0
  -25.9720  -30.8010   21.4700 C   0  0  0  0  0  2  0  0  0  0  0  0
  -26.0490  -29.4130   20.8190 C   0  0  0  0  0  0  0  0  0  0  0  0
  -27.2220  -28.5790   20.8210 C   0  0  0  0  0  3  0  0  0  0  0  0
  -26.0310  -26.8640   19.6100 C   0  0  0  0  0  3  0  0  0  0  0  0
  -24.8770  -27.6830   19.5970 C   0  0  0  0  0  3  0  0  0  0  0  0
  -23.6430  -29.8330   20.2580 C   0  0  0  0  0  2  0  0  0  0  0  0
  -24.6910  -31.1020   22.1800 N   0  0  0  0  0  0  0  0  0  0  0  0
  -23.5320  -32.2080   23.7990 O   0  0  0  0  0  0  0  0  0  0  0  0
  -22.7480  -29.5140   22.6000 C   0  0  0  0  0  0  0  0  0  0  0  0
  -21.4210  -29.3400   22.4660 N   0  0  0  0  0  0  0  0  0  0  0  0
  -23.4180  -28.8950   23.4310 O   0  0  0  0  0  0  0  0  0  0  0  0
  -20.9390  -29.8920   21.7710 H   0  0  0  0  0  0  0  0  0  0  0  0
  -18.0410  -28.1350   22.9590 C   0  0  0  0  0  0  0  0  0  0  0  0
  -20.5980  -28.4050   23.2380 C   0  0  0  0  0  3  0  0  0  0  0  0
  -20.7070  -26.9710   22.6710 C   0  0  0  0  0  2  0  0  0  0  0  0
  -19.6120  -26.6400   21.6520 C   0  0  0  0  0  2  0  0  0  0  0  0
  -18.2260  -26.7820   22.2880 C   0  0  0  0  0  2  0  0  0  0  0  0
  -19.1560  -28.9030   23.3890 C   0  0  0  0  0  0  0  0  0  0  0  0
  -18.9300  -30.1660   23.9770 C   0  0  0  0  0  3  0  0  0  0  0  0
  -17.6240  -30.6630   24.1380 C   0  0  0  0  0  3  0  0  0  0  0  0
  -16.5230  -29.8930   23.7230 C   0  0  0  0  0  3  0  0  0  0  0  0
  -16.7330  -28.6300   23.1400 C   0  0  0  0  0  3  0  0  0  0  0  0
  -25.8970  -32.5590   23.9000 C   0  0  0  0  0  3  0  0  0  0  0  0
  -26.3980  -31.8030   25.1930 C   0  0  1  0  0  0  0  0  0  0  0  0
  -25.2920  -31.5820   26.2520 C   0  0  0  0  0  1  0  0  0  0  0  0
  -26.9800  -30.4180   24.8300 C   0  0  0  0  0  1  0  0  0  0  0  0
  -27.5490  -32.6010   25.8530 C   0  0  0  0  0  1  0  0  0  0  0  0
  -25.5890  -33.9640   24.2160 N   0  0  0  0  0  0  0  0  0  0  0  0
  -25.9300  -35.0110   23.4500 C   0  0  0  0  0  0  0  0  0  0  0  0
  -26.6020  -34.8950   22.4230 O   0  0  0  0  0  0  0  0  0  0  0  0
  -24.9940  -34.1290   25.0140 H   0  0  0  0  0  0  0  0  0  0  0  0
  -24.2120  -36.8100   23.0780 C   0  0  0  0  0  1  0  0  0  0  0  0
  -25.4490  -36.4070   23.8960 C   0  0  0  0  0  3  0  0  0  0  0  0
  -27.5830  -37.2890   24.7290 C   0  0  0  0  0  1  0  0  0  0  0  0
  -26.4880  -37.4540   23.7770 N   0  0  0  0  0  0  0  0  0  0  0  0
  -26.0860  -38.3770   23.9140 H   0  0  0  0  0  0  0  0  0  0  0  0
  1  2  1  0
  3  6  1  0
  4  1  2  0
  5  3  2  0
  5  4  1  0
  6 15  1  0
  6  2  2  0
  7 15  1  0
  8 13  1  0
  9 10  1  0
  9  8  1  0
 11 10  1  0
 11 20  1  0
 11 12  1  0
 13  7  1  0
 13 12  1  0
 14  7  2  0
 15 16  1  0
 17 18  2  0
 18 37  1  0
 19 18  1  0
 19 22  1  0
 20 17  1  0
 20 21  1  0
 21 19  2  0
 22 23  1  0
 23 24  2  0
 25 28  1  0
 25 24  1  0
 26 25  2  0
 27 26  1  0
 27 22  2  0
 28 29  1  0
 29 30  1  0
 30 31  2  0
 32 31  1  0
 32 36  1  0
 33 32  2  0
 34 29  2  0
 34 33  1  0
 35 34  1  0
 37 38  1  0
 38 41  1  0
 38 40  1  0
 39 37  2  0
 42 43  1  0
 42 17  1  0
 44 42  1  0
 45 46  1  0
 46  5  1  0
 47  4  1  0
 47 49  1  0
 49 48  1  0
 50 51  1  0
 50 49  1  0
 52 63  2  0
 53 51  1  0
 53 58  1  0
 54 62  1  0
 54 64  1  0
 55 61  1  0
 55 57  1  0
 56 62  1  0
 57 58  2  0
 57 56  1  0
 59 53  2  0
 60 59  1  0
 60 55  2  0
 61 54  1  0
 62 52  1  0
 64 66  2  0
 65 64  1  0
 67 65  1  0
 68 77  2  0
 68 73  1  0
 69 65  1  0
 69 73  1  0
 70 69  1  0
 71 72  1  0
 71 70  1  0
 72 68  1  0
 73 74  2  0
 74 75  1  0
 76 75  2  0
 77 76  1  0
 78 52  1  0
 78 83  1  0
 78 79  1  0
 79 82  1  1
 79 80  1  0
 81 79  1  0
 83 86  1  0
 84 88  1  0
 84 83  1  0
 85 84  2  0
 88 87  1  0
 90 88  1  0
 90 91  1  0
 90 89  1  0
M  ISO  4   7 100  15 100  50 101  51 101
M  END
>  <TORSDO>  (86) 
F 20

>  <SCORE>  (86) 
-13.799

>  <name>  (86) 
86

>  <ligand_id>  (86) 
86

>  <original_smiles>  (86) 
[H]c1c([H])c([H])c2c(c1[H])C([H])([H])C([H])([H])C([H])([H])C2([H])N([H])C(=O)C1([H])N(C(=O)C([H])(N([H])C(=O)C([H])(N([H])C([H])([H])[H])C([H])([H])[H])C(C([H])([H])[H])(C([H])([H])[H])C([H])([H])[H])C([H])([H])c2c([H])c(OC([H])([H])C([H])(C([H])([H])[H])C([H])([H])c3c([H])c([H])c(N([H])C(=O)N4C([H])([H])C([H])([H])C([H])([H])C([H])(n5nc(-c6c([H])c([H])c(Oc7c([H])c([H])c(F)c([H])c7F)c([H])c6[H])c(C(=O)N([H])[H])c5N([H])[H])C4([H])[H])c([H])c3C([H])([H])C([H])([H])[H])c([H])c([H])c2C1([H])[H]

>  <smiles>  (86) 
[H]c1c([H])c([H])c2c(c1[H])C([H])([H])C([H])([H])C([H])([H])C2([H])N([H])C(=O)C1([H])N(C(=O)C([H])(N([H])C(=O)C([H])(N([H])C([H])([H])[H])C([H])([H])[H])C(C([H])([H])[H])(C([H])([H])[H])C([H])([H])[H])C([H])([H])c2c([H])c(OC([H])([H])C([H])(C([H])([H])[H])C([H])([H])c3c([H])c([H])c(N([H])C(=O)N4C([H])([H])C([H])([H])C([H])([H])C([H])(n5nc(-c6c([H])c([H])c(Oc7c([H])c([H])c(F)c([H])c7F)c([H])c6[H])c(C(=O)N([H])[H])c5N([H])[H])C4([H])[H])c([H])c3C([H])([H])C([H])([H])[H])c([H])c([H])c2C1([H])[H]

$$$$
87:0:0
     RDKit          3D

 93102  0  0  1  0  0  0  0  0999 V2000
  -29.4190  -21.1860   20.8000 C   0  0  0  0  0  2  0  0  0  0  0  0
  -29.4140  -18.4120   21.0230 C   0  0  0  0  0  2  0  0  0  0  0  0
  -31.5030  -18.6680   19.0720 C   0  0  0  0  0  2  0  0  0  0  0  0
  -29.6160  -17.1000   20.1310 C   0  0  0  0  0  3  0  0  0  0  0  0
  -30.5300  -17.4850   18.9400 C   0  0  0  0  0  3  0  0  0  0  0  0
  -30.2220  -19.5020   18.8950 C   0  0  0  0  0  3  0  0  0  0  0  0
  -29.2810  -19.7320   20.1170 C   0  0  2  0  0  0  0  0  0  0  0  0
  -29.6870  -18.3670   18.1430 O   0  0  0  0  0  0  0  0  0  0  0  0
  -28.0320  -19.7230   19.6410 F   0  0  0  0  0  0  0  0  0  0  0  0
  -30.5900  -14.6680   20.3920 C   0  0  0  0  0  0  0  0  0  0  0  0
  -30.3770  -12.4200   19.3600 C   0  0  0  0  0  2  0  0  0  0  0  0
  -29.4440  -12.5520   18.1330 C   0  0  0  0  0  2  0  0  0  0  0  0
  -27.9700  -12.3940   18.5570 C   0  0  0  0  0  2  0  0  0  0  0  0
  -27.6030  -13.2670   19.7870 C   0  0  0  0  0  3  0  0  0  0  0  0
  -28.6530  -13.1180   20.9130 C   0  0  0  0  0  2  0  0  0  0  0  0
  -29.9740  -13.4450   20.3470 N   0  0  0  0  0  0  0  0  0  0  0  0
  -31.7270  -14.8250   19.9380 O   0  0  0  0  0  0  0  0  0  0  0  0
  -29.8120  -15.7350   20.7620 N   0  0  0  0  0  0  0  0  0  0  0  0
  -29.0020  -15.4240   21.2790 H   0  0  0  0  0  0  0  0  0  0  0  0
  -25.2070  -13.8770   20.4990 C   0  0  0  0  0  0  0  0  0  0  0  0
  -24.1370  -13.1110   20.8700 C   0  0  0  0  0  0  0  0  0  0  0  0
  -24.5940  -11.7570   20.8500 C   0  0  0  0  0  0  0  0  0  0  0  0
  -26.2510  -12.9920   20.2680 N   0  0  0  0  0  0  0  0  0  0  0  0
  -25.8850  -11.7120   20.5390 N   0  0  0  0  0  0  0  0  0  0  0  0
  -23.8630  -10.4980   21.0460 C   0  0  0  0  0  0  0  0  0  0  0  0
  -24.3020   -9.5250   21.9700 C   0  0  0  0  0  3  0  0  0  0  0  0
  -23.5680   -8.3340   22.1560 C   0  0  0  0  0  3  0  0  0  0  0  0
  -22.3840   -8.1050   21.4170 C   0  0  0  0  0  0  0  0  0  0  0  0
  -21.9640   -9.0690   20.4810 C   0  0  0  0  0  3  0  0  0  0  0  0
  -22.6990  -10.2500   20.2940 C   0  0  0  0  0  3  0  0  0  0  0  0
  -21.6250   -6.9630   21.5080 O   0  0  0  0  0  0  0  0  0  0  0  0
  -21.5950   -6.2100   22.6530 C   0  0  0  0  0  0  0  0  0  0  0  0
  -21.2100   -6.7580   23.8960 C   0  0  0  0  0  3  0  0  0  0  0  0
  -21.1250   -5.9320   25.0340 C   0  0  0  0  0  3  0  0  0  0  0  0
  -21.4190   -4.5590   24.9310 C   0  0  0  0  0  0  0  0  0  0  0  0
  -21.8000   -4.0110   23.6950 C   0  0  0  0  0  3  0  0  0  0  0  0
  -21.8850   -4.8350   22.5580 C   0  0  0  0  0  0  0  0  0  0  0  0
  -22.2310   -4.2990   21.3640 F   0  0  0  0  0  0  0  0  0  0  0  0
  -21.3320   -3.7620   26.0220 F   0  0  0  0  0  0  0  0  0  0  0  0
  -22.7420  -13.6000   21.1390 C   0  0  0  0  0  0  0  0  0  0  0  0
  -22.0080  -12.9170   22.0110 N   0  0  0  0  0  0  0  0  0  0  0  0
  -22.3100  -14.6230   20.6100 O   0  0  0  0  0  0  0  0  0  0  0  0
  -22.3700  -12.0930   22.4650 H   0  0  0  0  0  0  0  0  0  0  0  0
  -21.0740  -13.2320   22.2340 H   0  0  0  0  0  0  0  0  0  0  0  0
  -25.3720  -15.2450   20.3140 N   0  0  0  0  0  0  0  0  0  0  0  0
  -24.5910  -15.8880   20.3980 H   0  0  0  0  0  0  0  0  0  0  0  0
  -26.2110  -15.6840   19.9550 H   0  0  0  0  0  0  0  0  0  0  0  0
  -28.7970  -22.3780   20.0660 N   0  0  0  0  0  4  0  0  0  0  0  0
  -27.8050  -22.1990   20.0510 H   0  0  0  0  0  0  0  0  0  0  0  0
  -29.1010  -22.3400   19.1060 H   0  0  0  0  0  0  0  0  0  0  0  0
  -29.0350  -23.8100   20.5720 C   0  0  0  0  0  3  0  0  0  0  0  0
  -28.0860  -24.9640   19.9730 C   0  0  0  0  0  3  0  0  0  0  0  0
  -28.2900  -26.4180   20.2760 O   0  0  0  0  0  0  0  0  0  0  0  0
  -24.5950  -31.8900   23.2380 C   0  0  0  0  0  0  0  0  0  0  0  0
  -27.1880  -27.3000   20.1910 C   0  0  0  0  0  0  0  0  0  0  0  0
  -23.3880  -30.4970   21.5980 C   0  0  0  0  0  3  0  0  0  0  0  0
  -24.8370  -28.9460   20.1680 C   0  0  0  0  0  0  0  0  0  0  0  0
  -25.9320  -30.8020   21.4170 C   0  0  0  0  0  2  0  0  0  0  0  0
  -26.0070  -29.4210   20.7720 C   0  0  0  0  0  0  0  0  0  0  0  0
  -27.1850  -28.6090   20.7780 C   0  0  0  0  0  3  0  0  0  0  0  0
  -26.0010  -26.9010   19.5360 C   0  0  0  0  0  3  0  0  0  0  0  0
  -24.8370  -27.6910   19.5400 C   0  0  0  0  0  3  0  0  0  0  0  0
  -23.6010  -29.8230   20.2160 C   0  0  0  0  0  2  0  0  0  0  0  0
  -24.6580  -31.0790   22.1430 N   0  0  0  0  0  0  0  0  0  0  0  0
  -23.5110  -32.1750   23.7700 O   0  0  0  0  0  0  0  0  0  0  0  0
  -22.7170  -29.4830   22.5550 C   0  0  0  0  0  0  0  0  0  0  0  0
  -21.3900  -29.3120   22.4320 N   0  0  0  0  0  0  0  0  0  0  0  0
  -23.3940  -28.8500   23.3730 O   0  0  0  0  0  0  0  0  0  0  0  0
  -20.9000  -29.8720   21.7460 H   0  0  0  0  0  0  0  0  0  0  0  0
  -18.0080  -28.1410   22.9440 C   0  0  0  0  0  0  0  0  0  0  0  0
  -20.5680  -28.3790   23.2050 C   0  0  0  0  0  3  0  0  0  0  0  0
  -20.6590  -26.9480   22.6280 C   0  0  0  0  0  2  0  0  0  0  0  0
  -19.5520  -26.6360   21.6160 C   0  0  0  0  0  2  0  0  0  0  0  0
  -18.1730  -26.7920   22.2630 C   0  0  0  0  0  2  0  0  0  0  0  0
  -19.1340  -28.8930   23.3730 C   0  0  0  0  0  0  0  0  0  0  0  0
  -18.9270  -30.1570   23.9700 C   0  0  0  0  0  3  0  0  0  0  0  0
  -17.6270  -30.6690   24.1380 C   0  0  0  0  0  3  0  0  0  0  0  0
  -16.5160  -29.9140   23.7260 C   0  0  0  0  0  3  0  0  0  0  0  0
  -16.7070  -28.6510   23.1370 C   0  0  0  0  0  3  0  0  0  0  0  0
  -25.8800  -32.5210   23.8600 C   0  0  0  0  0  3  0  0  0  0  0  0
  -26.3970  -31.7440   25.1330 C   0  0  1  0  0  0  0  0  0  0  0  0
  -25.3070  -31.5050   26.2030 C   0  0  0  0  0  1  0  0  0  0  0  0
  -26.9740  -30.3660   24.7350 C   0  0  0  0  0  1  0  0  0  0  0  0
  -27.5510  -32.5320   25.7930 C   0  0  0  0  0  1  0  0  0  0  0  0
  -25.5730  -33.9180   24.1970 N   0  0  0  0  0  0  0  0  0  0  0  0
  -25.8960  -34.9720   23.4340 C   0  0  0  0  0  0  0  0  0  0  0  0
  -26.5500  -34.8690   22.3950 O   0  0  0  0  0  0  0  0  0  0  0  0
  -24.9910  -34.0710   25.0080 H   0  0  0  0  0  0  0  0  0  0  0  0
  -24.1560  -36.7590   23.1110 C   0  0  0  0  0  1  0  0  0  0  0  0
  -25.4130  -36.3590   23.9010 C   0  0  0  0  0  3  0  0  0  0  0  0
  -27.5600  -37.2470   24.6910 C   0  0  0  0  0  1  0  0  0  0  0  0
  -26.4410  -37.4140   23.7690 N   0  0  0  0  0  0  0  0  0  0  0  0
  -26.0350  -38.3320   23.9260 H   0  0  0  0  0  0  0  0  0  0  0  0
  4 18  1  0
  4  2  1  0
  5  3  1  0
  5  4  1  0
  6  3  1  0
  6  7  1  0
  7  9  1  6
  7  1  1  0
  7  2  1  0
  8  6  1  0
  8  5  1  0
 10 18  1  0
 11 16  1  0
 12 13  1  0
 12 11  1  0
 14 13  1  0
 14 23  1  0
 14 15  1  0
 16 10  1  0
 16 15  1  0
 17 10  2  0
 18 19  1  0
 20 21  2  0
 21 40  1  0
 22 21  1  0
 22 25  1  0
 23 20  1  0
 23 24  1  0
 24 22  2  0
 25 26  1  0
 26 27  2  0
 28 31  1  0
 28 27  1  0
 29 28  2  0
 30 29  1  0
 30 25  2  0
 31 32  1  0
 32 33  1  0
 33 34  2  0
 35 34  1  0
 35 39  1  0
 36 35  2  0
 37 32  2  0
 37 36  1  0
 38 37  1  0
 40 41  1  0
 41 44  1  0
 41 43  1  0
 42 40  2  0
 45 46  1  0
 45 20  1  0
 47 45  1  0
 48 51  1  0
 48  1  1  0
 49 48  1  0
 50 48  1  0
 52 53  1  0
 52 51  2  0
 54 65  2  0
 55 53  1  0
 55 60  1  0
 56 64  1  0
 56 66  1  0
 57 63  1  0
 57 59  1  0
 58 64  1  0
 59 60  2  0
 59 58  1  0
 61 62  1  0
 61 55  2  0
 62 57  2  0
 63 56  1  0
 64 54  1  0
 66 68  2  0
 67 66  1  0
 69 67  1  0
 70 79  2  0
 70 75  1  0
 71 67  1  0
 71 75  1  0
 72 71  1  0
 73 74  1  0
 73 72  1  0
 74 70  1  0
 75 76  2  0
 76 77  1  0
 78 77  2  0
 79 78  1  0
 80 54  1  0
 80 85  1  0
 80 81  1  0
 81 84  1  1
 81 82  1  0
 83 81  1  0
 85 88  1  0
 86 90  1  0
 86 85  1  0
 87 86  2  0
 90 89  1  0
 92 90  1  0
 92 93  1  0
 92 91  1  0
M  ISO  4  10 100  18 100  52 101  53 101
M  END
>  <TORSDO>  (87) 
F 20

>  <SCORE>  (87) 
-13.895

>  <name>  (87) 
87

>  <ligand_id>  (87) 
87

>  <original_smiles>  (87) 
[H]c1c([H])c([H])c2c(c1[H])C([H])([H])C([H])([H])C([H])([H])C2([H])N([H])C(=O)C1([H])N(C(=O)C([H])(N([H])C(=O)C([H])(N([H])C([H])([H])[H])C([H])([H])[H])C(C([H])([H])[H])(C([H])([H])[H])C([H])([H])[H])C([H])([H])c2c([H])c(OC([H])([H])C([H])([H])[N+]([H])([H])C([H])([H])C3(F)C([H])([H])C([H])(N([H])C(=O)N4C([H])([H])C([H])([H])C([H])([H])C([H])(n5nc(-c6c([H])c([H])c(Oc7c([H])c([H])c(F)c([H])c7F)c([H])c6[H])c(C(=O)N([H])[H])c5N([H])[H])C4([H])[H])C4([H])OC3([H])C4([H])[H])c([H])c([H])c2C1([H])[H]

>  <smiles>  (87) 
[H]c1c([H])c([H])c2c(c1[H])C([H])([H])C([H])([H])C([H])([H])C2([H])N([H])C(=O)C1([H])N(C(=O)C([H])(N([H])C(=O)C([H])(N([H])C([H])([H])[H])C([H])([H])[H])C(C([H])([H])[H])(C([H])([H])[H])C([H])([H])[H])C([H])([H])c2c([H])c(OC([H])([H])C([H])([H])[N+]([H])([H])C([H])([H])C3(F)C([H])([H])C([H])(N([H])C(=O)N4C([H])([H])C([H])([H])C([H])([H])C([H])(n5nc(-c6c([H])c([H])c(Oc7c([H])c([H])c(F)c([H])c7F)c([H])c6[H])c(C(=O)N([H])[H])c5N([H])[H])C4([H])[H])C4([H])OC3([H])C4([H])[H])c([H])c([H])c2C1([H])[H]

$$$$
88:0:0
     RDKit          3D

 95104  0  0  1  0  0  0  0  0999 V2000
  -30.1390  -22.6850   19.9990 C   0  0  0  0  0  3  0  0  0  0  0  0
  -29.9940  -22.5300   22.4150 C   0  0  0  0  0  3  0  0  0  0  0  0
  -29.5430  -23.9720   20.0390 C   0  0  0  0  0  3  0  0  0  0  0  0
  -29.3970  -23.8140   22.4520 C   0  0  0  0  0  3  0  0  0  0  0  0
  -30.3810  -21.9480   21.1860 C   0  0  0  0  0  0  0  0  0  0  0  0
  -29.1700  -24.5560   21.2700 C   0  0  0  0  0  0  0  0  0  0  0  0
  -31.1280  -20.5960   21.1500 C   0  0  0  0  0  2  0  0  0  0  0  0
  -30.2430  -19.3900   21.1840 N   0  0  0  0  0  4  0  0  0  0  0  0
  -29.5380  -19.5530   20.4840 H   0  0  0  0  0  0  0  0  0  0  0  0
  -29.7660  -19.3900   22.0700 H   0  0  0  0  0  0  0  0  0  0  0  0
  -31.8250  -18.0330   19.7660 C   0  0  0  0  0  1  0  0  0  0  0  0
  -31.5660  -17.5490   22.2160 C   0  0  0  0  0  1  0  0  0  0  0  0
  -30.8180  -18.0110   20.9480 C   0  0  1  0  0  0  0  0  0  0  0  0
  -30.5650  -14.6190   20.3380 C   0  0  0  0  0  0  0  0  0  0  0  0
  -30.2950  -12.4230   19.2710 C   0  0  0  0  0  2  0  0  0  0  0  0
  -29.3310  -12.6000   18.0780 C   0  0  0  0  0  2  0  0  0  0  0  0
  -27.8530  -12.5070   18.5200 C   0  0  0  0  0  2  0  0  0  0  0  0
  -27.5270  -13.3080   19.8100 C   0  0  0  0  0  3  0  0  0  0  0  0
  -28.6140  -13.1170   20.8920 C   0  0  0  0  0  2  0  0  0  0  0  0
  -29.9220  -13.4190   20.2850 N   0  0  0  0  0  0  0  0  0  0  0  0
  -31.7710  -14.7400   20.1190 O   0  0  0  0  0  0  0  0  0  0  0  0
  -28.7450  -17.3340   19.4300 C   0  0  0  0  0  2  0  0  0  0  0  0
  -29.4440  -16.1500   18.7890 C   0  0  0  0  0  2  0  0  0  0  0  0
  -29.5840  -17.0730   20.6800 C   0  0  0  0  0  3  0  0  0  0  0  0
  -29.7300  -15.6740   20.1510 N   0  0  0  0  0  0  0  0  0  0  0  0
  -25.1340  -13.8940   20.5420 C   0  0  0  0  0  0  0  0  0  0  0  0
  -24.0720  -13.1130   20.9150 C   0  0  0  0  0  0  0  0  0  0  0  0
  -24.5450  -11.7650   20.8800 C   0  0  0  0  0  0  0  0  0  0  0  0
  -26.1840  -13.0190   20.3070 N   0  0  0  0  0  0  0  0  0  0  0  0
  -25.8340  -11.7350   20.5670 N   0  0  0  0  0  0  0  0  0  0  0  0
  -23.8290  -10.4960   21.0690 C   0  0  0  0  0  0  0  0  0  0  0  0
  -24.2730   -9.5270   21.9960 C   0  0  0  0  0  3  0  0  0  0  0  0
  -23.5540   -8.3250   22.1730 C   0  0  0  0  0  3  0  0  0  0  0  0
  -22.3800   -8.0820   21.4210 C   0  0  0  0  0  0  0  0  0  0  0  0
  -21.9570   -9.0390   20.4810 C   0  0  0  0  0  3  0  0  0  0  0  0
  -22.6760  -10.2340   20.3030 C   0  0  0  0  0  3  0  0  0  0  0  0
  -21.6320   -6.9330   21.5090 O   0  0  0  0  0  0  0  0  0  0  0  0
  -21.5970   -6.1830   22.6570 C   0  0  0  0  0  0  0  0  0  0  0  0
  -21.1740   -6.7290   23.8890 C   0  0  0  0  0  3  0  0  0  0  0  0
  -21.0930   -5.9080   25.0320 C   0  0  0  0  0  3  0  0  0  0  0  0
  -21.4170   -4.5410   24.9420 C   0  0  0  0  0  0  0  0  0  0  0  0
  -21.8290   -3.9940   23.7150 C   0  0  0  0  0  3  0  0  0  0  0  0
  -21.9180   -4.8130   22.5750 C   0  0  0  0  0  0  0  0  0  0  0  0
  -22.2980   -4.2770   21.3910 F   0  0  0  0  0  0  0  0  0  0  0  0
  -21.3260   -3.7510   26.0370 F   0  0  0  0  0  0  0  0  0  0  0  0
  -22.6740  -13.5810   21.1970 C   0  0  0  0  0  0  0  0  0  0  0  0
  -21.9550  -12.8710   22.0610 N   0  0  0  0  0  0  0  0  0  0  0  0
  -22.2260  -14.6080   20.6880 O   0  0  0  0  0  0  0  0  0  0  0  0
  -22.3340  -12.0420   22.4940 H   0  0  0  0  0  0  0  0  0  0  0  0
  -21.0160  -13.1610   22.2920 H   0  0  0  0  0  0  0  0  0  0  0  0
  -25.2890  -15.2660   20.3670 N   0  0  0  0  0  0  0  0  0  0  0  0
  -24.5280  -15.9250   20.4840 H   0  0  0  0  0  0  0  0  0  0  0  0
  -26.1560  -15.7060   20.0850 H   0  0  0  0  0  0  0  0  0  0  0  0
  -28.5020  -25.9400   21.3760 C   0  0  0  0  0  2  0  0  0  0  0  0
  -28.3720  -26.6930   20.1560 O   0  0  0  0  0  0  0  0  0  0  0  0
  -24.5510  -31.9000   23.2060 C   0  0  0  0  0  0  0  0  0  0  0  0
  -27.2390  -27.4810   20.1310 C   0  0  0  0  0  0  0  0  0  0  0  0
  -23.3580  -30.4880   21.5610 C   0  0  0  0  0  3  0  0  0  0  0  0
  -24.8320  -28.9670   20.1300 C   0  0  0  0  0  0  0  0  0  0  0  0
  -25.8800  -30.8730   21.3610 C   0  0  0  0  0  2  0  0  0  0  0  0
  -25.9830  -29.5020   20.7230 C   0  0  0  0  0  0  0  0  0  0  0  0
  -27.1930  -28.7660   20.7240 C   0  0  0  0  0  3  0  0  0  0  0  0
  -26.0780  -26.9650   19.5240 C   0  0  0  0  0  3  0  0  0  0  0  0
  -24.8740  -27.6980   19.5260 C   0  0  0  0  0  3  0  0  0  0  0  0
  -23.5750  -29.8100   20.1810 C   0  0  0  0  0  2  0  0  0  0  0  0
  -24.6150  -31.1010   22.1020 N   0  0  0  0  0  0  0  0  0  0  0  0
  -23.4670  -32.1620   23.7460 O   0  0  0  0  0  0  0  0  0  0  0  0
  -22.7150  -29.4620   22.5210 C   0  0  0  0  0  0  0  0  0  0  0  0
  -21.3890  -29.2820   22.4050 N   0  0  0  0  0  0  0  0  0  0  0  0
  -23.4050  -28.8300   23.3260 O   0  0  0  0  0  0  0  0  0  0  0  0
  -20.8950  -29.8400   21.7230 H   0  0  0  0  0  0  0  0  0  0  0  0
  -18.0170  -28.0960   22.9290 C   0  0  0  0  0  0  0  0  0  0  0  0
  -20.5780  -28.3390   23.1750 C   0  0  0  0  0  3  0  0  0  0  0  0
  -20.6680  -26.9140   22.5810 C   0  0  0  0  0  2  0  0  0  0  0  0
  -19.5510  -26.6080   21.5780 C   0  0  0  0  0  2  0  0  0  0  0  0
  -18.1780  -26.7530   22.2380 C   0  0  0  0  0  2  0  0  0  0  0  0
  -19.1440  -28.8490   23.3540 C   0  0  0  0  0  0  0  0  0  0  0  0
  -18.9380  -30.1070   23.9600 C   0  0  0  0  0  3  0  0  0  0  0  0
  -17.6380  -30.6130   24.1460 C   0  0  0  0  0  3  0  0  0  0  0  0
  -16.5250  -29.8570   23.7390 C   0  0  0  0  0  3  0  0  0  0  0  0
  -16.7150  -28.6010   23.1360 C   0  0  0  0  0  3  0  0  0  0  0  0
  -25.8320  -32.5400   23.8270 C   0  0  0  0  0  3  0  0  0  0  0  0
  -26.3600  -31.7670   25.0960 C   0  0  1  0  0  0  0  0  0  0  0  0
  -25.2720  -31.5120   26.1650 C   0  0  0  0  0  1  0  0  0  0  0  0
  -26.9560  -30.3980   24.6900 C   0  0  0  0  0  1  0  0  0  0  0  0
  -27.5070  -32.5670   25.7580 C   0  0  0  0  0  1  0  0  0  0  0  0
  -25.5130  -33.9350   24.1610 N   0  0  0  0  0  0  0  0  0  0  0  0
  -25.8430  -34.9910   23.4080 C   0  0  0  0  0  0  0  0  0  0  0  0
  -26.5200  -34.8950   22.3790 O   0  0  0  0  0  0  0  0  0  0  0  0
  -24.9130  -34.0820   24.9590 H   0  0  0  0  0  0  0  0  0  0  0  0
  -24.1100  -36.7750   23.0410 C   0  0  0  0  0  1  0  0  0  0  0  0
  -25.3430  -36.3730   23.8670 C   0  0  0  0  0  3  0  0  0  0  0  0
  -27.4650  -37.2600   24.7260 C   0  0  0  0  0  1  0  0  0  0  0  0
  -26.3710  -37.4330   23.7740 N   0  0  0  0  0  0  0  0  0  0  0  0
  -25.9580  -38.3490   23.9280 H   0  0  0  0  0  0  0  0  0  0  0  0
  1  3  2  0
  1  5  1  0
  2  4  1  0
  3  6  1  0
  5  2  2  0
  6 54  1  0
  6  4  2  0
  7  8  1  0
  7  5  1  0
  8 10  1  0
  9  8  1  0
 13 11  1  6
 13  8  1  0
 13 12  1  0
 15 20  1  0
 16 17  1  0
 16 15  1  0
 18 17  1  0
 18 29  1  0
 18 19  1  0
 20 14  1  0
 20 19  1  0
 21 14  2  0
 22 24  1  0
 23 22  1  0
 23 25  1  0
 24 13  1  0
 25 14  1  0
 25 24  1  0
 26 27  2  0
 27 46  1  0
 28 27  1  0
 28 31  1  0
 29 26  1  0
 29 30  1  0
 30 28  2  0
 31 32  1  0
 32 33  2  0
 34 37  1  0
 34 33  1  0
 35 34  2  0
 36 35  1  0
 36 31  2  0
 37 38  1  0
 38 39  1  0
 39 40  2  0
 41 40  1  0
 41 45  1  0
 42 41  2  0
 43 38  2  0
 43 42  1  0
 44 43  1  0
 46 47  1  0
 47 50  1  0
 47 49  1  0
 48 46  2  0
 51 52  1  0
 51 26  1  0
 53 51  1  0
 55 54  1  0
 56 67  2  0
 57 55  1  0
 57 62  1  0
 58 66  1  0
 58 68  1  0
 59 65  1  0
 59 61  1  0
 60 66  1  0
 61 62  2  0
 61 60  1  0
 63 64  1  0
 63 57  2  0
 64 59  2  0
 65 58  1  0
 66 56  1  0
 68 70  2  0
 69 68  1  0
 71 69  1  0
 72 81  2  0
 72 77  1  0
 73 69  1  0
 73 77  1  0
 74 73  1  0
 75 76  1  0
 75 74  1  0
 76 72  1  0
 77 78  2  0
 78 79  1  0
 80 79  2  0
 81 80  1  0
 82 56  1  0
 82 87  1  0
 82 83  1  0
 83 86  1  1
 83 84  1  0
 85 83  1  0
 87 90  1  0
 88 92  1  0
 88 87  1  0
 89 88  2  0
 92 91  1  0
 94 92  1  0
 94 95  1  0
 94 93  1  0
M  ISO  4  14 100  25 100  54 101  55 101
M  END
>  <TORSDO>  (88) 
F 20

>  <SCORE>  (88) 
-13.765

>  <name>  (88) 
88

>  <ligand_id>  (88) 
88

>  <original_smiles>  (88) 
[H]c1c([H])c([H])c2c(c1[H])C([H])([H])C([H])([H])C([H])([H])C2([H])N([H])C(=O)C1([H])N(C(=O)C([H])(N([H])C(=O)C([H])(N([H])C([H])([H])[H])C([H])([H])[H])C(C([H])([H])[H])(C([H])([H])[H])C([H])([H])[H])C([H])([H])c2c([H])c(OC([H])([H])c3c([H])c([H])c(C([H])([H])[N+]([H])([H])C(C([H])([H])[H])(C([H])([H])[H])C4([H])N(C(=O)N5C([H])([H])C([H])([H])C([H])([H])C([H])(n6nc(-c7c([H])c([H])c(Oc8c([H])c([H])c(F)c([H])c8F)c([H])c7[H])c(C(=O)N([H])[H])c6N([H])[H])C5([H])[H])C([H])([H])C4([H])[H])c([H])c3[H])c([H])c([H])c2C1([H])[H]

>  <smiles>  (88) 
[H]c1c([H])c([H])c2c(c1[H])C([H])([H])C([H])([H])C([H])([H])C2([H])N([H])C(=O)C1([H])N(C(=O)C([H])(N([H])C(=O)C([H])(N([H])C([H])([H])[H])C([H])([H])[H])C(C([H])([H])[H])(C([H])([H])[H])C([H])([H])[H])C([H])([H])c2c([H])c(OC([H])([H])c3c([H])c([H])c(C([H])([H])[N+]([H])([H])C(C([H])([H])[H])(C([H])([H])[H])C4([H])N(C(=O)N5C([H])([H])C([H])([H])C([H])([H])C([H])(n6nc(-c7c([H])c([H])c(Oc8c([H])c([H])c(F)c([H])c8F)c([H])c7[H])c(C(=O)N([H])[H])c6N([H])[H])C5([H])[H])C([H])([H])C4([H])[H])c([H])c3[H])c([H])c([H])c2C1([H])[H]

$$$$
89:0:0
     RDKit          3D

 92100  0  0  1  0  0  0  0  0999 V2000
  -27.9360  -20.4000   19.4810 C   0  0  0  0  0  2  0  0  0  0  0  0
  -29.7270  -20.0670   20.9930 C   0  0  0  0  0  2  0  0  0  0  0  0
  -28.4470  -18.9250   19.3440 C   0  0  0  0  0  3  0  0  0  0  0  0
  -29.2550  -18.5840   20.6230 C   0  0  0  0  0  3  0  0  0  0  0  0
  -27.3080  -17.9420   19.0430 C   0  0  0  0  0  1  0  0  0  0  0  0
  -28.7030  -21.0910   20.5480 N   0  0  1  0  0  4  0  0  0  0  0  0
  -28.0750  -21.1760   21.3340 H   0  0  0  0  0  0  0  0  0  0  0  0
  -31.2100  -17.4710   21.8550 C   0  0  0  0  0  1  0  0  0  0  0  0
  -31.3000  -17.6700   19.3520 C   0  0  0  0  0  1  0  0  0  0  0  0
  -30.3710  -17.3750   20.5580 C   0  0  2  0  0  0  0  0  0  0  0  0
  -30.6080  -14.7320   20.2680 C   0  0  0  0  0  0  0  0  0  0  0  0
  -30.3430  -12.4710   19.2440 C   0  0  0  0  0  2  0  0  0  0  0  0
  -29.3970  -12.5630   18.0290 C   0  0  0  0  0  2  0  0  0  0  0  0
  -27.9350  -12.3810   18.4810 C   0  0  0  0  0  2  0  0  0  0  0  0
  -27.5770  -13.2710   19.7030 C   0  0  0  0  0  3  0  0  0  0  0  0
  -28.6500  -13.2000   20.8090 C   0  0  0  0  0  2  0  0  0  0  0  0
  -29.9350  -13.5360   20.1900 N   0  0  0  0  0  0  0  0  0  0  0  0
  -31.8050  -14.7580   19.9770 O   0  0  0  0  0  0  0  0  0  0  0  0
  -29.8890  -15.9100   20.4750 N   0  0  0  0  0  0  0  0  0  0  0  0
  -28.9000  -15.7730   20.6040 H   0  0  0  0  0  0  0  0  0  0  0  0
  -25.2080  -13.8600   20.4800 C   0  0  0  0  0  0  0  0  0  0  0  0
  -24.1470  -13.0860   20.8670 C   0  0  0  0  0  0  0  0  0  0  0  0
  -24.6080  -11.7340   20.8210 C   0  0  0  0  0  0  0  0  0  0  0  0
  -26.2440  -12.9810   20.2190 N   0  0  0  0  0  0  0  0  0  0  0  0
  -25.8940  -11.6970   20.4910 N   0  0  0  0  0  0  0  0  0  0  0  0
  -23.8850  -10.4730   21.0160 C   0  0  0  0  0  0  0  0  0  0  0  0
  -24.3300   -9.5030   21.9430 C   0  0  0  0  0  3  0  0  0  0  0  0
  -23.6050   -8.3080   22.1290 C   0  0  0  0  0  3  0  0  0  0  0  0
  -22.4210   -8.0710   21.3910 C   0  0  0  0  0  0  0  0  0  0  0  0
  -21.9950   -9.0290   20.4550 C   0  0  0  0  0  3  0  0  0  0  0  0
  -22.7200  -10.2170   20.2650 C   0  0  0  0  0  3  0  0  0  0  0  0
  -21.6660   -6.9250   21.4860 O   0  0  0  0  0  0  0  0  0  0  0  0
  -21.6270   -6.1830   22.6380 C   0  0  0  0  0  0  0  0  0  0  0  0
  -21.2050   -6.7330   23.8670 C   0  0  0  0  0  3  0  0  0  0  0  0
  -21.1130   -5.9150   25.0110 C   0  0  0  0  0  3  0  0  0  0  0  0
  -21.4370   -4.5470   24.9260 C   0  0  0  0  0  0  0  0  0  0  0  0
  -21.8510   -3.9950   23.7010 C   0  0  0  0  0  3  0  0  0  0  0  0
  -21.9440   -4.8110   22.5600 C   0  0  0  0  0  0  0  0  0  0  0  0
  -22.3230   -4.2700   21.3770 F   0  0  0  0  0  0  0  0  0  0  0  0
  -21.3440   -3.7590   26.0230 F   0  0  0  0  0  0  0  0  0  0  0  0
  -22.7560  -13.5650   21.1580 C   0  0  0  0  0  0  0  0  0  0  0  0
  -22.0380  -12.8670   22.0320 N   0  0  0  0  0  0  0  0  0  0  0  0
  -22.3130  -14.5910   20.6470 O   0  0  0  0  0  0  0  0  0  0  0  0
  -22.4130  -12.0400   22.4720 H   0  0  0  0  0  0  0  0  0  0  0  0
  -21.1020  -13.1660   22.2610 H   0  0  0  0  0  0  0  0  0  0  0  0
  -25.3680  -15.2300   20.3030 N   0  0  0  0  0  0  0  0  0  0  0  0
  -24.5930  -15.8770   20.4120 H   0  0  0  0  0  0  0  0  0  0  0  0
  -26.1950  -15.6660   19.9190 H   0  0  0  0  0  0  0  0  0  0  0  0
  -29.1820  -22.5170   20.2160 C   0  0  0  0  0  3  0  0  0  0  0  0
  -28.1820  -23.7770   20.3950 C   0  0  0  0  0  3  0  0  0  0  0  0
  -28.5700  -25.1720   19.6900 C   0  0  0  0  0  2  0  0  0  0  0  0
  -28.3950  -26.5140   20.3070 O   0  0  0  0  0  0  0  0  0  0  0  0
  -24.6100  -31.8780   23.2360 C   0  0  0  0  0  0  0  0  0  0  0  0
  -27.2470  -27.3170   20.2050 C   0  0  0  0  0  0  0  0  0  0  0  0
  -23.4070  -30.4730   21.5950 C   0  0  0  0  0  3  0  0  0  0  0  0
  -24.8680  -28.9150   20.1720 C   0  0  0  0  0  0  0  0  0  0  0  0
  -25.9430  -30.7990   21.4120 C   0  0  0  0  0  2  0  0  0  0  0  0
  -26.0270  -29.4160   20.7730 C   0  0  0  0  0  0  0  0  0  0  0  0
  -27.2140  -28.6240   20.7850 C   0  0  0  0  0  3  0  0  0  0  0  0
  -26.0670  -26.8650   19.5780 C   0  0  0  0  0  3  0  0  0  0  0  0
  -24.8900  -27.6450   19.5670 C   0  0  0  0  0  3  0  0  0  0  0  0
  -23.6230  -29.7830   20.2190 C   0  0  0  0  0  2  0  0  0  0  0  0
  -24.6720  -31.0690   22.1390 N   0  0  0  0  0  0  0  0  0  0  0  0
  -23.5280  -32.1540   23.7730 O   0  0  0  0  0  0  0  0  0  0  0  0
  -22.7470  -29.4610   22.5610 C   0  0  0  0  0  0  0  0  0  0  0  0
  -21.4200  -29.2890   22.4380 N   0  0  0  0  0  0  0  0  0  0  0  0
  -23.4270  -28.8340   23.3770 O   0  0  0  0  0  0  0  0  0  0  0  0
  -20.9280  -29.8470   21.7560 H   0  0  0  0  0  0  0  0  0  0  0  0
  -18.0420  -28.1090   22.9470 C   0  0  0  0  0  0  0  0  0  0  0  0
  -20.6010  -28.3530   23.2090 C   0  0  0  0  0  3  0  0  0  0  0  0
  -20.6930  -26.9230   22.6270 C   0  0  0  0  0  2  0  0  0  0  0  0
  -19.5860  -26.6100   21.6160 C   0  0  0  0  0  2  0  0  0  0  0  0
  -18.2080  -26.7610   22.2650 C   0  0  0  0  0  2  0  0  0  0  0  0
  -19.1660  -28.8620   23.3750 C   0  0  0  0  0  0  0  0  0  0  0  0
  -18.9590  -30.1250   23.9720 C   0  0  0  0  0  3  0  0  0  0  0  0
  -17.6570  -30.6350   24.1430 C   0  0  0  0  0  3  0  0  0  0  0  0
  -16.5470  -29.8770   23.7330 C   0  0  0  0  0  3  0  0  0  0  0  0
  -16.7390  -28.6170   23.1410 C   0  0  0  0  0  3  0  0  0  0  0  0
  -25.8930  -32.5130   23.8580 C   0  0  0  0  0  3  0  0  0  0  0  0
  -26.4050  -31.7470   25.1390 C   0  0  1  0  0  0  0  0  0  0  0  0
  -25.3100  -31.5220   26.2080 C   0  0  0  0  0  1  0  0  0  0  0  0
  -26.9860  -30.3650   24.7580 C   0  0  0  0  0  1  0  0  0  0  0  0
  -27.5520  -32.5430   25.8040 C   0  0  0  0  0  1  0  0  0  0  0  0
  -25.5830  -33.9120   24.1830 N   0  0  0  0  0  0  0  0  0  0  0  0
  -25.9130  -34.9650   23.4230 C   0  0  0  0  0  0  0  0  0  0  0  0
  -26.5810  -34.8610   22.3920 O   0  0  0  0  0  0  0  0  0  0  0  0
  -24.9850  -34.0660   24.9820 H   0  0  0  0  0  0  0  0  0  0  0  0
  -24.1800  -36.7560   23.0760 C   0  0  0  0  0  1  0  0  0  0  0  0
  -25.4260  -36.3530   23.8810 C   0  0  0  0  0  3  0  0  0  0  0  0
  -27.5620  -37.2450   24.7010 C   0  0  0  0  0  1  0  0  0  0  0  0
  -26.4540  -37.4090   23.7630 N   0  0  0  0  0  0  0  0  0  0  0  0
  -26.0440  -38.3270   23.9150 H   0  0  0  0  0  0  0  0  0  0  0  0
  1  6  1  0
  3  5  1  0
  3  1  1  0
  3  4  1  0
  4 10  1  0
  4  2  1  0
  6  2  1  0
  6  7  1  1
 10  9  1  6
 10  8  1  0
 11 19  1  0
 12 17  1  0
 13 14  1  0
 13 12  1  0
 15 14  1  0
 15 24  1  0
 15 16  1  0
 17 11  1  0
 17 16  1  0
 18 11  2  0
 19 10  1  0
 19 20  1  0
 21 22  2  0
 22 41  1  0
 23 22  1  0
 23 26  1  0
 24 21  1  0
 24 25  1  0
 25 23  2  0
 26 27  1  0
 27 28  2  0
 29 32  1  0
 29 28  1  0
 30 29  2  0
 31 30  1  0
 31 26  2  0
 32 33  1  0
 33 34  1  0
 34 35  2  0
 36 35  1  0
 36 40  1  0
 37 36  2  0
 38 33  2  0
 38 37  1  0
 39 38  1  0
 41 42  1  0
 42 45  1  0
 42 44  1  0
 43 41  2  0
 46 47  1  0
 46 21  1  0
 48 46  1  0
 49 50  2  0
 49  6  1  0
 51 52  1  0
 51 50  1  0
 53 64  2  0
 54 52  1  0
 54 59  1  0
 55 63  1  0
 55 65  1  0
 56 62  1  0
 56 58  1  0
 57 63  1  0
 58 59  2  0
 58 57  1  0
 60 54  2  0
 61 60  1  0
 61 56  2  0
 62 55  1  0
 63 53  1  0
 65 67  2  0
 66 65  1  0
 68 66  1  0
 69 78  2  0
 69 74  1  0
 70 66  1  0
 70 74  1  0
 71 70  1  0
 72 73  1  0
 72 71  1  0
 73 69  1  0
 74 75  2  0
 75 76  1  0
 77 76  2  0
 78 77  1  0
 79 53  1  0
 79 84  1  0
 79 80  1  0
 80 83  1  1
 80 81  1  0
 82 80  1  0
 84 87  1  0
 85 89  1  0
 85 84  1  0
 86 85  2  0
 89 88  1  0
 91 89  1  0
 91 92  1  0
 91 90  1  0
M  ISO  4  11 100  19 100  51 101  52 101
M  END
>  <TORSDO>  (89) 
F 20

>  <SCORE>  (89) 
-13.976

>  <name>  (89) 
89

>  <ligand_id>  (89) 
89

>  <original_smiles>  (89) 
[H]c1c([H])c([H])c2c(c1[H])C([H])([H])C([H])([H])C([H])([H])C2([H])N([H])C(=O)C1([H])N(C(=O)C([H])(N([H])C(=O)C([H])(N([H])C([H])([H])[H])C([H])([H])[H])C(C([H])([H])[H])(C([H])([H])[H])C([H])([H])[H])C([H])([H])c2c([H])c(OC([H])([H])C([H])([H])C([H])([H])[N+]3([H])C([H])([H])C([H])(C([H])([H])[H])C([H])(C(N([H])C(=O)N4C([H])([H])C([H])([H])C([H])([H])C([H])(n5nc(-c6c([H])c([H])c(Oc7c([H])c([H])c(F)c([H])c7F)c([H])c6[H])c(C(=O)N([H])[H])c5N([H])[H])C4([H])[H])(C([H])([H])[H])C([H])([H])[H])C3([H])[H])c([H])c([H])c2C1([H])[H]

>  <smiles>  (89) 
[H]c1c([H])c([H])c2c(c1[H])C([H])([H])C([H])([H])C([H])([H])C2([H])N([H])C(=O)C1([H])N(C(=O)C([H])(N([H])C(=O)C([H])(N([H])C([H])([H])[H])C([H])([H])[H])C(C([H])([H])[H])(C([H])([H])[H])C([H])([H])[H])C([H])([H])c2c([H])c(OC([H])([H])C([H])([H])C([H])([H])[N+]3([H])C([H])([H])C([H])(C([H])([H])[H])C([H])(C(N([H])C(=O)N4C([H])([H])C([H])([H])C([H])([H])C([H])(n5nc(-c6c([H])c([H])c(Oc7c([H])c([H])c(F)c([H])c7F)c([H])c6[H])c(C(=O)N([H])[H])c5N([H])[H])C4([H])[H])(C([H])([H])[H])C([H])([H])[H])C3([H])[H])c([H])c([H])c2C1([H])[H]

$$$$
90:0:0
     RDKit          3D

 89 97  0  0  1  0  0  0  0  0999 V2000
  -29.2640  -19.7870   20.2610 C   0  0  0  0  0  0  0  0  0  0  0  0
  -29.4760  -21.0550   19.7610 N   0  0  0  0  0  0  0  0  0  0  0  0
  -28.4930  -19.6340   21.2100 O   0  0  0  0  0  0  0  0  0  0  0  0
  -30.1540  -21.1080   19.0100 H   0  0  0  0  0  0  0  0  0  0  0  0
  -29.8540  -18.4740   19.5650 C   0  0  0  0  0  2  0  0  0  0  0  0
  -30.8930  -14.7560   19.9930 C   0  0  0  0  0  0  0  0  0  0  0  0
  -30.5440  -12.5230   18.9260 C   0  0  0  0  0  2  0  0  0  0  0  0
  -29.5250  -12.6350   17.7740 C   0  0  0  0  0  2  0  0  0  0  0  0
  -28.0890  -12.4530   18.3060 C   0  0  0  0  0  2  0  0  0  0  0  0
  -27.8100  -13.3240   19.5600 C   0  0  0  0  0  3  0  0  0  0  0  0
  -28.9440  -13.2000   20.5950 C   0  0  0  0  0  2  0  0  0  0  0  0
  -30.2030  -13.5640   19.9220 N   0  0  0  0  0  0  0  0  0  0  0  0
  -32.0110  -14.8470   19.4790 O   0  0  0  0  0  0  0  0  0  0  0  0
  -30.7450  -17.3020   21.8710 C   0  0  0  0  0  2  0  0  0  0  0  0
  -29.7970  -16.1150   21.7850 C   0  0  0  0  0  2  0  0  0  0  0  0
  -30.7240  -17.3680   20.3480 C   0  0  0  0  0  3  0  0  0  0  0  0
  -30.2370  -15.9130   20.3980 N   0  0  0  0  0  0  0  0  0  0  0  0
  -25.4980  -13.9150   20.5120 C   0  0  0  0  0  0  0  0  0  0  0  0
  -24.4480  -13.1380   20.9230 C   0  0  0  0  0  0  0  0  0  0  0  0
  -24.8820  -11.7840   20.7850 C   0  0  0  0  0  0  0  0  0  0  0  0
  -26.5020  -13.0330   20.1430 N   0  0  0  0  0  0  0  0  0  0  0  0
  -26.1420  -11.7440   20.3680 N   0  0  0  0  0  0  0  0  0  0  0  0
  -24.1480  -10.5240   20.9680 C   0  0  0  0  0  0  0  0  0  0  0  0
  -24.5780   -9.5460   21.8920 C   0  0  0  0  0  3  0  0  0  0  0  0
  -23.8450   -8.3520   22.0660 C   0  0  0  0  0  3  0  0  0  0  0  0
  -22.6680   -8.1260   21.3120 C   0  0  0  0  0  0  0  0  0  0  0  0
  -22.2550   -9.0940   20.3780 C   0  0  0  0  0  3  0  0  0  0  0  0
  -22.9900  -10.2780   20.2040 C   0  0  0  0  0  3  0  0  0  0  0  0
  -21.9090   -6.9840   21.3940 O   0  0  0  0  0  0  0  0  0  0  0  0
  -21.7750   -6.2900   22.5700 C   0  0  0  0  0  0  0  0  0  0  0  0
  -21.2210   -6.8830   23.7250 C   0  0  0  0  0  3  0  0  0  0  0  0
  -21.0340   -6.1140   24.8900 C   0  0  0  0  0  3  0  0  0  0  0  0
  -21.3940   -4.7540   24.9020 C   0  0  0  0  0  0  0  0  0  0  0  0
  -21.9430   -4.1600   23.7520 C   0  0  0  0  0  3  0  0  0  0  0  0
  -22.1300   -4.9270   22.5880 C   0  0  0  0  0  0  0  0  0  0  0  0
  -22.6370   -4.3440   21.4750 F   0  0  0  0  0  0  0  0  0  0  0  0
  -21.2090   -4.0120   26.0190 F   0  0  0  0  0  0  0  0  0  0  0  0
  -23.0880  -13.6220   21.3330 C   0  0  0  0  0  0  0  0  0  0  0  0
  -22.4210  -12.8980   22.2250 N   0  0  0  0  0  0  0  0  0  0  0  0
  -22.6270  -14.6760   20.8960 O   0  0  0  0  0  0  0  0  0  0  0  0
  -22.8090  -12.0470   22.6000 H   0  0  0  0  0  0  0  0  0  0  0  0
  -21.5110  -13.2040   22.5380 H   0  0  0  0  0  0  0  0  0  0  0  0
  -25.6780  -15.2910   20.3970 N   0  0  0  0  0  0  0  0  0  0  0  0
  -24.9440  -15.9560   20.6150 H   0  0  0  0  0  0  0  0  0  0  0  0
  -26.5210  -15.7300   20.0490 H   0  0  0  0  0  0  0  0  0  0  0  0
  -28.5590  -22.2680   19.8890 C   0  0  0  0  0  2  0  0  0  0  0  0
  -29.1210  -23.7610   20.1320 C   0  0  0  0  0  3  0  0  0  0  0  0
  -28.0830  -24.9650   19.8700 C   0  0  0  0  0  3  0  0  0  0  0  0
  -28.3620  -26.4210   20.1010 O   0  0  0  0  0  0  0  0  0  0  0  0
  -24.6990  -31.9120   23.1470 C   0  0  0  0  0  0  0  0  0  0  0  0
  -27.2640  -27.3150   20.0620 C   0  0  0  0  0  0  0  0  0  0  0  0
  -23.4790  -30.5120   21.5280 C   0  0  0  0  0  3  0  0  0  0  0  0
  -24.9090  -28.9610   20.0870 C   0  0  0  0  0  0  0  0  0  0  0  0
  -26.0210  -30.8170   21.3170 C   0  0  0  0  0  2  0  0  0  0  0  0
  -26.0910  -29.4360   20.6690 C   0  0  0  0  0  0  0  0  0  0  0  0
  -27.2720  -28.6260   20.6470 C   0  0  0  0  0  3  0  0  0  0  0  0
  -26.0530  -26.9100   19.4510 C   0  0  0  0  0  3  0  0  0  0  0  0
  -24.8930  -27.7050   19.4710 C   0  0  0  0  0  3  0  0  0  0  0  0
  -23.6780  -29.8430   20.1450 C   0  0  0  0  0  2  0  0  0  0  0  0
  -24.7530  -31.0990   22.0530 N   0  0  0  0  0  0  0  0  0  0  0  0
  -23.6210  -32.1920   23.6910 O   0  0  0  0  0  0  0  0  0  0  0  0
  -22.8270  -29.4930   22.4950 C   0  0  0  0  0  0  0  0  0  0  0  0
  -21.5020  -29.3020   22.3750 N   0  0  0  0  0  0  0  0  0  0  0  0
  -23.5130  -28.8800   23.3190 O   0  0  0  0  0  0  0  0  0  0  0  0
  -21.0060  -29.8520   21.6880 H   0  0  0  0  0  0  0  0  0  0  0  0
  -18.1370  -28.0830   22.9050 C   0  0  0  0  0  0  0  0  0  0  0  0
  -20.6950  -28.3630   23.1550 C   0  0  0  0  0  3  0  0  0  0  0  0
  -20.8020  -26.9280   22.5910 C   0  0  0  0  0  2  0  0  0  0  0  0
  -19.6950  -26.5900   21.5860 C   0  0  0  0  0  2  0  0  0  0  0  0
  -18.3170  -26.7300   22.2390 C   0  0  0  0  0  2  0  0  0  0  0  0
  -19.2520  -28.8570   23.3220 C   0  0  0  0  0  0  0  0  0  0  0  0
  -19.0290  -30.1200   23.9090 C   0  0  0  0  0  3  0  0  0  0  0  0
  -17.7230  -30.6140   24.0820 C   0  0  0  0  0  3  0  0  0  0  0  0
  -16.6210  -29.8400   23.6790 C   0  0  0  0  0  3  0  0  0  0  0  0
  -16.8290  -28.5770   23.0980 C   0  0  0  0  0  3  0  0  0  0  0  0
  -25.9860  -32.5510   23.7510 C   0  0  0  0  0  3  0  0  0  0  0  0
  -26.5480  -31.7560   24.9940 C   0  0  1  0  0  0  0  0  0  0  0  0
  -25.4800  -31.4450   26.0680 C   0  0  0  0  0  1  0  0  0  0  0  0
  -27.1740  -30.4140   24.5490 C   0  0  0  0  0  1  0  0  0  0  0  0
  -27.6790  -32.5690   25.6660 C   0  0  0  0  0  1  0  0  0  0  0  0
  -25.6610  -33.9350   24.1270 N   0  0  0  0  0  0  0  0  0  0  0  0
  -25.9530  -35.0140   23.3880 C   0  0  0  0  0  0  0  0  0  0  0  0
  -26.5940  -34.9500   22.3360 O   0  0  0  0  0  0  0  0  0  0  0  0
  -25.0850  -34.0570   24.9470 H   0  0  0  0  0  0  0  0  0  0  0  0
  -24.1940  -36.7920   23.1280 C   0  0  0  0  0  1  0  0  0  0  0  0
  -25.4570  -36.3800   23.8990 C   0  0  0  0  0  3  0  0  0  0  0  0
  -27.5920  -37.2720   24.7210 C   0  0  0  0  0  1  0  0  0  0  0  0
  -26.4730  -37.4510   23.7990 N   0  0  0  0  0  0  0  0  0  0  0  0
  -26.0570  -38.3600   23.9800 H   0  0  0  0  0  0  0  0  0  0  0  0
  1  3  2  0
  2 46  1  0
  2  1  1  0
  4  2  1  0
  5  1  1  0
  6 17  1  0
  7 12  1  0
  8  9  1  0
  8  7  1  0
 10  9  1  0
 10 21  1  0
 10 11  1  0
 12  6  1  0
 12 11  1  0
 13  6  2  0
 15 14  1  0
 16  5  1  0
 16 17  1  0
 16 14  1  0
 17 15  1  0
 18 19  2  0
 19 38  1  0
 20 19  1  0
 20 23  1  0
 21 22  1  0
 21 18  1  0
 22 20  2  0
 23 24  1  0
 24 25  2  0
 26 29  1  0
 26 25  1  0
 27 26  2  0
 28 27  1  0
 28 23  2  0
 29 30  1  0
 30 35  2  0
 30 31  1  0
 31 32  2  0
 32 33  1  0
 33 37  1  0
 34 33  2  0
 35 34  1  0
 36 35  1  0
 38 39  1  0
 39 42  1  0
 39 41  1  0
 40 38  2  0
 43 18  1  0
 43 44  1  0
 45 43  1  0
 46 47  1  0
 48 49  1  0
 48 47  2  0
 50 61  2  0
 51 49  1  0
 51 56  1  0
 52 60  1  0
 52 62  1  0
 53 59  1  0
 53 55  1  0
 54 60  1  0
 55 54  1  0
 56 55  2  0
 57 58  1  0
 57 51  2  0
 58 53  2  0
 59 52  1  0
 60 50  1  0
 62 64  2  0
 63 62  1  0
 65 63  1  0
 66 75  2  0
 66 71  1  0
 67 63  1  0
 67 71  1  0
 68 67  1  0
 69 70  1  0
 69 68  1  0
 70 66  1  0
 71 72  2  0
 72 73  1  0
 74 73  2  0
 75 74  1  0
 76 50  1  0
 76 81  1  0
 76 77  1  0
 77 80  1  1
 77 78  1  0
 79 77  1  0
 81 84  1  0
 82 86  1  0
 82 81  1  0
 83 82  2  0
 86 85  1  0
 88 86  1  0
 88 89  1  0
 88 87  1  0
M  ISO  4   6 100  17 100  48 101  49 101
M  END
>  <TORSDO>  (90) 
F 20

>  <SCORE>  (90) 
-13.023

>  <name>  (90) 
90

>  <ligand_id>  (90) 
90

>  <original_smiles>  (90) 
[H]c1c([H])c([H])c2c(c1[H])C([H])([H])C([H])([H])C([H])([H])C2([H])N([H])C(=O)C1([H])N(C(=O)C([H])(N([H])C(=O)C([H])(N([H])C([H])([H])[H])C([H])([H])[H])C(C([H])([H])[H])(C([H])([H])[H])C([H])([H])[H])C([H])([H])c2c([H])c(OC([H])([H])C([H])([H])C([H])([H])N([H])C(=O)C([H])([H])C3([H])N(C(=O)N4C([H])([H])C([H])([H])C([H])([H])C([H])(n5nc(-c6c([H])c([H])c(Oc7c([H])c([H])c(F)c([H])c7F)c([H])c6[H])c(C(=O)N([H])[H])c5N([H])[H])C4([H])[H])C([H])([H])C3([H])[H])c([H])c([H])c2C1([H])[H]

>  <smiles>  (90) 
[H]c1c([H])c([H])c2c(c1[H])C([H])([H])C([H])([H])C([H])([H])C2([H])N([H])C(=O)C1([H])N(C(=O)C([H])(N([H])C(=O)C([H])(N([H])C([H])([H])[H])C([H])([H])[H])C(C([H])([H])[H])(C([H])([H])[H])C([H])([H])[H])C([H])([H])c2c([H])c(OC([H])([H])C([H])([H])C([H])([H])N([H])C(=O)C([H])([H])C3([H])N(C(=O)N4C([H])([H])C([H])([H])C([H])([H])C([H])(n5nc(-c6c([H])c([H])c(Oc7c([H])c([H])c(F)c([H])c7F)c([H])c6[H])c(C(=O)N([H])[H])c5N([H])[H])C4([H])[H])C([H])([H])C3([H])[H])c([H])c([H])c2C1([H])[H]

$$$$
91:0:0
     RDKit          3D

 91100  0  0  1  0  0  0  0  0999 V2000
  -30.6560  -15.2580   20.2110 C   0  0  0  0  0  0  0  0  0  0  0  0
  -30.5610  -12.7970   19.4650 C   0  0  0  0  0  2  0  0  0  0  0  0
  -29.6500  -12.5360   18.2410 C   0  0  0  0  0  2  0  0  0  0  0  0
  -28.1950  -12.2840   18.6840 C   0  0  0  0  0  2  0  0  0  0  0  0
  -27.7150  -13.3240   19.7200 C   0  0  0  0  0  3  0  0  0  0  0  0
  -28.7630  -13.5670   20.8420 C   0  0  0  0  0  2  0  0  0  0  0  0
  -30.0230  -13.9880   20.1960 N   0  0  0  0  0  0  0  0  0  0  0  0
  -31.8920  -15.2110   20.2060 O   0  0  0  0  0  0  0  0  0  0  0  0
  -27.1530  -18.5950   19.4710 C   0  0  0  0  0  2  0  0  0  0  0  0
  -27.7440  -18.8740   20.8590 C   0  0  0  0  0  2  0  0  0  0  0  0
  -28.6460  -16.4000   19.3360 C   0  0  0  0  0  2  0  0  0  0  0  0
  -30.6270  -19.2790   19.2700 C   0  0  0  0  0  2  0  0  0  0  0  0
  -27.8550  -17.5220   18.6120 C   0  0  0  0  0  3  0  0  0  0  0  0
  -30.3010  -18.0900   20.3170 C   0  0  0  0  0  3  0  0  0  0  0  0
  -29.2380  -19.1510   20.8870 C   0  0  0  0  0  3  0  0  0  0  0  0
  -28.4030  -17.9920   17.2490 C   0  0  0  0  0  1  0  0  0  0  0  0
  -29.9520  -16.5360   20.0090 N   0  0  0  0  0  0  0  0  0  0  0  0
  -29.6750  -20.2570   19.9450 N   0  0  1  0  0  4  0  0  0  0  0  0
  -28.9540  -19.9250   19.3220 H   0  0  0  0  0  0  0  0  0  0  0  0
  -25.3480  -14.0190   20.3960 C   0  0  0  0  0  0  0  0  0  0  0  0
  -24.2520  -13.2910   20.7520 C   0  0  0  0  0  0  0  0  0  0  0  0
  -24.6800  -11.9290   20.7770 C   0  0  0  0  0  0  0  0  0  0  0  0
  -26.3710  -13.0970   20.2160 N   0  0  0  0  0  0  0  0  0  0  0  0
  -25.9770  -11.8390   20.5120 N   0  0  0  0  0  0  0  0  0  0  0  0
  -23.9150  -10.6980   20.9730 C   0  0  0  0  0  0  0  0  0  0  0  0
  -24.3060   -9.7380   21.9320 C   0  0  0  0  0  3  0  0  0  0  0  0
  -23.5450   -8.5660   22.1160 C   0  0  0  0  0  3  0  0  0  0  0  0
  -22.3800   -8.3490   21.3430 C   0  0  0  0  0  0  0  0  0  0  0  0
  -22.0090   -9.2980   20.3740 C   0  0  0  0  0  3  0  0  0  0  0  0
  -22.7700  -10.4620   20.1870 C   0  0  0  0  0  3  0  0  0  0  0  0
  -21.5910   -7.2290   21.4390 O   0  0  0  0  0  0  0  0  0  0  0  0
  -21.5190   -6.4990   22.5960 C   0  0  0  0  0  0  0  0  0  0  0  0
  -21.1080   -7.0770   23.8170 C   0  0  0  0  0  3  0  0  0  0  0  0
  -20.9830   -6.2750   24.9700 C   0  0  0  0  0  3  0  0  0  0  0  0
  -21.2570   -4.8970   24.9020 C   0  0  0  0  0  0  0  0  0  0  0  0
  -21.6600   -4.3170   23.6860 C   0  0  0  0  0  3  0  0  0  0  0  0
  -21.7890   -5.1170   22.5370 C   0  0  0  0  0  0  0  0  0  0  0  0
  -22.1590   -4.5510   21.3620 F   0  0  0  0  0  0  0  0  0  0  0  0
  -21.1280   -4.1240   26.0060 F   0  0  0  0  0  0  0  0  0  0  0  0
  -22.8620  -13.8190   20.9560 C   0  0  0  0  0  0  0  0  0  0  0  0
  -22.0960  -13.1890   21.8380 N   0  0  0  0  0  0  0  0  0  0  0  0
  -22.4650  -14.8250   20.3680 O   0  0  0  0  0  0  0  0  0  0  0  0
  -22.4320  -12.3760   22.3320 H   0  0  0  0  0  0  0  0  0  0  0  0
  -21.1610  -13.5230   22.0230 H   0  0  0  0  0  0  0  0  0  0  0  0
  -25.5370  -15.3790   20.1810 N   0  0  0  0  0  0  0  0  0  0  0  0
  -24.7670  -16.0360   20.2410 H   0  0  0  0  0  0  0  0  0  0  0  0
  -26.3970  -15.7990   19.8600 H   0  0  0  0  0  0  0  0  0  0  0  0
  -28.9910  -21.6670   19.5130 C   0  0  0  0  0  2  0  0  0  0  0  0
  -29.3110  -23.2990   19.9320 C   0  0  0  0  0  3  0  0  0  0  0  0
  -28.2840  -24.6390   19.5740 C   0  0  0  0  0  3  0  0  0  0  0  0
  -28.4150  -26.1840   19.8920 O   0  0  0  0  0  0  0  0  0  0  0  0
  -24.4530  -31.6320   23.0000 C   0  0  0  0  0  0  0  0  0  0  0  0
  -27.3100  -27.1350   19.8320 C   0  0  0  0  0  0  0  0  0  0  0  0
  -23.3540  -30.2640   21.2700 C   0  0  0  0  0  3  0  0  0  0  0  0
  -24.9040  -28.8050   19.8160 C   0  0  0  0  0  0  0  0  0  0  0  0
  -25.9010  -30.6270   21.1900 C   0  0  0  0  0  2  0  0  0  0  0  0
  -26.0490  -29.2670   20.4770 C   0  0  0  0  0  0  0  0  0  0  0  0
  -27.2480  -28.4500   20.4670 C   0  0  0  0  0  3  0  0  0  0  0  0
  -26.1310  -26.7850   19.1360 C   0  0  0  0  0  3  0  0  0  0  0  0
  -24.9600  -27.5810   19.1300 C   0  0  0  0  0  3  0  0  0  0  0  0
  -23.6390  -29.6520   19.8720 C   0  0  0  0  0  2  0  0  0  0  0  0
  -24.5880  -30.8620   21.8770 N   0  0  0  0  0  0  0  0  0  0  0  0
  -23.3430  -31.8520   23.5100 O   0  0  0  0  0  0  0  0  0  0  0  0
  -22.6870  -29.1940   22.1710 C   0  0  0  0  0  0  0  0  0  0  0  0
  -21.3530  -29.0510   22.0720 N   0  0  0  0  0  0  0  0  0  0  0  0
  -23.3730  -28.4970   22.9220 O   0  0  0  0  0  0  0  0  0  0  0  0
  -20.8560  -29.6620   21.4390 H   0  0  0  0  0  0  0  0  0  0  0  0
  -17.9630  -27.9140   22.6580 C   0  0  0  0  0  0  0  0  0  0  0  0
  -20.5410  -28.0640   22.7890 C   0  0  0  0  0  3  0  0  0  0  0  0
  -20.5510  -26.6980   22.0630 C   0  0  0  0  0  2  0  0  0  0  0  0
  -19.3810  -26.5240   21.0900 C   0  0  0  0  0  2  0  0  0  0  0  0
  -18.0460  -26.6420   21.8300 C   0  0  0  0  0  2  0  0  0  0  0  0
  -19.1330  -28.5900   23.0950 C   0  0  0  0  0  0  0  0  0  0  0  0
  -18.9960  -29.7840   23.8340 C   0  0  0  0  0  3  0  0  0  0  0  0
  -17.7240  -30.3020   24.1400 C   0  0  0  0  0  3  0  0  0  0  0  0
  -16.5690  -29.6220   23.7170 C   0  0  0  0  0  3  0  0  0  0  0  0
  -16.6900  -28.4300   22.9830 C   0  0  0  0  0  3  0  0  0  0  0  0
  -25.6870  -32.2910   23.6910 C   0  0  0  0  0  3  0  0  0  0  0  0
  -25.3120  -33.6630   24.0700 N   0  0  0  0  0  0  0  0  0  0  0  0
  -25.6180  -34.7620   23.3680 C   0  0  0  0  0  0  0  0  0  0  0  0
  -26.3100  -34.7300   22.3470 O   0  0  0  0  0  0  0  0  0  0  0  0
  -24.6960  -33.7570   24.8640 H   0  0  0  0  0  0  0  0  0  0  0  0
  -23.8280  -36.5050   23.0670 C   0  0  0  0  0  1  0  0  0  0  0  0
  -25.0720  -36.1110   23.8780 C   0  0  0  0  0  3  0  0  0  0  0  0
  -27.1550  -37.0450   24.7840 C   0  0  0  0  0  1  0  0  0  0  0  0
  -26.0650  -37.2070   23.8240 N   0  0  0  0  0  0  0  0  0  0  0  0
  -25.6210  -38.1050   23.9980 H   0  0  0  0  0  0  0  0  0  0  0  0
  -26.1870  -31.4900   24.9560 C   0  0  1  0  0  0  0  0  0  0  0  0
  -25.0720  -31.1870   25.9840 C   0  0  0  0  0  1  0  0  0  0  0  0
  -26.8170  -30.1420   24.5410 C   0  0  0  0  0  1  0  0  0  0  0  0
  -27.2970  -32.2920   25.6760 C   0  0  0  0  0  1  0  0  0  0  0  0
  2  7  1  0
  3  4  1  0
  3  2  1  0
  5  4  1  0
  5 23  1  0
  5  6  1  0
  7  1  1  0
  7  6  1  0
  8  1  2  0
  9 10  1  0
 11 17  1  0
 12 18  1  0
 13 16  1  0
 13 11  1  0
 13  9  1  0
 14 12  1  0
 14 15  1  0
 15 10  1  0
 17  1  1  0
 17 14  1  0
 18 15  1  0
 18 19  1  6
 20 21  2  0
 21 22  1  0
 21 40  1  0
 22 25  1  0
 23 20  1  0
 23 24  1  0
 24 22  2  0
 25 26  1  0
 26 27  2  0
 28 31  1  0
 28 27  1  0
 29 28  2  0
 30 29  1  0
 30 25  2  0
 31 32  1  0
 32 33  1  0
 33 34  2  0
 35 34  1  0
 35 39  1  0
 36 35  2  0
 37 32  2  0
 37 36  1  0
 38 37  1  0
 40 41  1  0
 41 44  1  0
 41 43  1  0
 42 40  2  0
 45 46  1  0
 45 20  1  0
 47 45  1  0
 48 49  1  0
 48 18  1  0
 50 51  1  0
 50 49  2  0
 52 63  2  0
 53 51  1  0
 53 58  1  0
 54 62  1  0
 54 64  1  0
 55 61  1  0
 55 57  1  0
 56 62  1  0
 57 56  1  0
 58 57  2  0
 59 53  2  0
 60 59  1  0
 60 55  2  0
 61 54  1  0
 62 52  1  0
 64 66  2  0
 65 64  1  0
 67 65  1  0
 68 77  2  0
 68 73  1  0
 69 65  1  0
 69 73  1  0
 70 69  1  0
 71 72  1  0
 71 70  1  0
 72 68  1  0
 73 74  2  0
 74 75  1  0
 76 75  2  0
 77 76  1  0
 78 52  1  0
 78 79  1  0
 78 88  1  0
 79 82  1  0
 80 84  1  0
 80 79  1  0
 81 80  2  0
 84 83  1  0
 86 84  1  0
 86 87  1  0
 86 85  1  0
 88 91  1  1
 88 89  1  0
 90 88  1  0
M  ISO  4   1 100  17 100  50 101  51 101
M  END
>  <TORSDO>  (91) 
F 18

>  <SCORE>  (91) 
-14.581

>  <name>  (91) 
91

>  <ligand_id>  (91) 
91

>  <original_smiles>  (91) 
[H]c1c([H])c([H])c2c(c1[H])C([H])([H])C([H])([H])C([H])([H])C2([H])N([H])C(=O)C1([H])N(C(=O)C([H])(N([H])C(=O)C([H])(N([H])C([H])([H])[H])C([H])([H])[H])C(C([H])([H])[H])(C([H])([H])[H])C([H])([H])[H])C([H])([H])c2c([H])c(OC([H])([H])C([H])([H])C([H])([H])[N+]3([H])C([H])([H])C4([H])N(C(=O)N5C([H])([H])C([H])([H])C([H])([H])C([H])(n6nc(-c7c([H])c([H])c(Oc8c([H])c([H])c(F)c([H])c8F)c([H])c7[H])c(C(=O)N([H])[H])c6N([H])[H])C5([H])[H])C([H])([H])C([H])(C([H])([H])[H])C([H])([H])C([H])([H])C43[H])c([H])c([H])c2C1([H])[H]

>  <smiles>  (91) 
[H]c1c([H])c([H])c2c(c1[H])C([H])([H])C([H])([H])C([H])([H])C2([H])N([H])C(=O)C1([H])N(C(=O)C([H])(N([H])C(=O)C([H])(N([H])C([H])([H])[H])C([H])([H])[H])C(C([H])([H])[H])(C([H])([H])[H])C([H])([H])[H])C([H])([H])c2c([H])c(OC([H])([H])C([H])([H])C([H])([H])[N+]3([H])C([H])([H])C4([H])N(C(=O)N5C([H])([H])C([H])([H])C([H])([H])C([H])(n6nc(-c7c([H])c([H])c(Oc8c([H])c([H])c(F)c([H])c8F)c([H])c7[H])c(C(=O)N([H])[H])c6N([H])[H])C5([H])[H])C([H])([H])C([H])(C([H])([H])[H])C([H])([H])C([H])([H])C43[H])c([H])c([H])c2C1([H])[H]

$$$$
92:0:0
     RDKit          3D

 90 90  0  0  1  0  0  0  0  0999 V2000
  -28.9890  -18.6630   19.5950 C   0  0  0  0  0  0  0  0  0  0  0  0
  -28.5030  -20.1040   19.1930 N   0  0  0  0  0  0  0  0  0  0  0  0
  -29.6380  -18.7350   20.6400 O   0  0  0  0  0  0  0  0  0  0  0  0
  -27.9850  -20.0550   18.3150 H   0  0  0  0  0  0  0  0  0  0  0  0
  -31.2030  -14.5990   21.1800 C   0  0  0  0  0  0  0  0  0  0  0  0
  -31.3030  -13.3350   19.2480 C   0  0  0  0  0 15  0  0  0  0  0  0
  -29.7940  -13.6920   17.5370 C   0  0  0  0  0 15  0  0  0  0  0  0
  -27.6650  -13.8910   18.4170 C   0  0  0  0  0 15  0  0  0  0  0  0
  -27.2180  -13.6390   20.6010 C   0  0  0  0  0  1  0  0  0  0  0  0
  -28.9190  -13.2960   22.0380 C   0  0  0  0  0 15  0  0  0  0  0  0
  -30.7290  -13.3950   21.1300 N   0  0  0  0  0  1  0  0  0  0  0  0
  -32.3760  -14.9140   21.1120 O   0  0  0  0  0  0  0  0  0  0  0  0
  -28.9670  -12.3210   20.0370 C   0  0  0  0  0  3  0  0  0  0  0  0
  -29.2100  -12.4880   19.2680 C   0  0  0  0  0  3  0  0  0  0  0  0
  -28.1300  -16.0910   20.0370 C   0  0  0  0  0  2  0  0  0  0  0  0
  -28.8780  -16.8280   19.0610 C   0  0  0  0  0  3  0  0  0  0  0  0
  -29.1490  -14.7580   20.2330 C   0  0  0  0  0  3  0  0  0  0  0  0
  -29.6440  -15.0770   19.3710 C   0  0  0  0  0  2  0  0  0  0  0  0
  -30.3440  -15.3490   20.5540 N   0  0  0  0  0  2  0  0  0  0  0  0
  -24.9300  -13.8270   20.7910 C   0  0  0  0  0  0  0  0  0  0  0  0
  -23.9610  -12.9760   21.1070 C   0  0  0  0  0  0  0  0  0  0  0  0
  -24.5220  -11.6610   21.0460 C   0  0  0  0  0  0  0  0  0  0  0  0
  -26.0220  -13.0360   20.7570 N   0  0  0  0  0  0  0  0  0  0  0  0
  -25.8230  -11.7070   20.8340 N   0  0  0  0  0  0  0  0  0  0  0  0
  -23.8560  -10.3810   21.1520 C   0  0  0  0  0  0  0  0  0  0  0  0
  -24.3000   -9.3700   22.0320 C   0  0  0  0  0  3  0  0  0  0  0  0
  -23.5660   -8.1730   22.1360 C   0  0  0  0  0  3  0  0  0  0  0  0
  -22.3910   -7.9950   21.3650 C   0  0  0  0  0  0  0  0  0  0  0  0
  -21.9830   -8.9940   20.4680 C   0  0  0  0  0  3  0  0  0  0  0  0
  -22.7160  -10.1810   20.3590 C   0  0  0  0  0  3  0  0  0  0  0  0
  -21.6240   -6.8600   21.3850 O   0  0  0  0  0  0  0  0  0  0  0  0
  -21.5760   -6.0560   22.4900 C   0  0  0  0  0  0  0  0  0  0  0  0
  -21.1850   -6.5440   23.7560 C   0  0  0  0  0  3  0  0  0  0  0  0
  -21.0860   -5.6610   24.8480 C   0  0  0  0  0  3  0  0  0  0  0  0
  -21.3660   -4.2930   24.6740 C   0  0  0  0  0  0  0  0  0  0  0  0
  -21.7520   -3.8050   23.4140 C   0  0  0  0  0  3  0  0  0  0  0  0
  -21.8540   -4.6850   22.3220 C   0  0  0  0  0  0  0  0  0  0  0  0
  -22.2100   -4.2120   21.1040 F   0  0  0  0  0  0  0  0  0  0  0  0
  -21.2540   -3.4410   25.7200 F   0  0  0  0  0  0  0  0  0  0  0  0
  -22.5850  -13.4310   21.3850 C   0  0  0  0  0  0  0  0  0  0  0  0
  -21.9040  -12.7250   22.2700 N   0  0  0  0  0  0  0  0  0  0  0  0
  -22.1600  -14.4780   20.8960 O   0  0  0  0  0  0  0  0  0  0  0  0
  -22.2990  -11.8900   22.6750 H   0  0  0  0  0  0  0  0  0  0  0  0
  -20.9730  -13.0110   22.5400 H   0  0  0  0  0  0  0  0  0  0  0  0
  -24.9480  -15.2110   20.5790 N   0  0  0  0  0  0  0  0  0  0  0  0
  -24.0270  -15.6290   20.4500 H   0  0  0  0  0  0  0  0  0  0  0  0
  -25.6680  -15.6620   20.0360 H   0  0  0  0  0  0  0  0  0  0  0  0
  -28.6650  -21.8410   19.6940 C   0  0  0  0  0  1  0  0  0  0  0  0
  -27.8760  -23.6380   19.4980 C   0  0  0  0  0  1  0  0  0  0  0  0
  -28.0980  -25.3660   19.8760 O   0  0  0  0  0  0  0  0  0  0  0  0
  -24.5520  -31.6720   22.9600 C   0  0  0  0  0  0  0  0  0  0  0  0
  -27.1440  -26.5990   19.9070 C   0  0  0  0  0  0  0  0  0  0  0  0
  -23.3940  -30.2330   21.3420 C   0  0  0  0  0  3  0  0  0  0  0  0
  -24.8590  -28.6030   19.9360 C   0  0  0  0  0  0  0  0  0  0  0  0
  -25.9720  -30.4070   21.2230 C   0  0  0  0  0  2  0  0  0  0  0  0
  -26.0530  -28.9710   20.5650 C   0  0  0  0  0  0  0  0  0  0  0  0
  -27.1860  -27.9890   20.5310 C   0  0  0  0  0  3  0  0  0  0  0  0
  -25.9030  -26.4440   19.2620 C   0  0  0  0  0  3  0  0  0  0  0  0
  -24.8150  -27.3610   19.2790 C   0  0  0  0  0  3  0  0  0  0  0  0
  -23.6470  -29.5390   19.9750 C   0  0  0  0  0  2  0  0  0  0  0  0
  -24.6630  -30.8060   21.8920 N   0  0  0  0  0  0  0  0  0  0  0  0
  -23.4510  -31.9540   23.4590 O   0  0  0  0  0  0  0  0  0  0  0  0
  -22.6940  -29.2500   22.3160 C   0  0  0  0  0  0  0  0  0  0  0  0
  -21.3610  -29.0910   22.2110 N   0  0  0  0  0  0  0  0  0  0  0  0
  -23.3590  -28.6300   23.1470 O   0  0  0  0  0  0  0  0  0  0  0  0
  -20.8640  -29.6470   21.5310 H   0  0  0  0  0  0  0  0  0  0  0  0
  -17.9880  -27.8470   22.7580 C   0  0  0  0  0  0  0  0  0  0  0  0
  -20.5500  -28.1500   22.9950 C   0  0  0  0  0  3  0  0  0  0  0  0
  -20.6580  -26.7140   22.4300 C   0  0  0  0  0  2  0  0  0  0  0  0
  -19.5520  -26.3730   21.4250 C   0  0  0  0  0  2  0  0  0  0  0  0
  -18.1750  -26.5000   22.0830 C   0  0  0  0  0  2  0  0  0  0  0  0
  -19.1000  -28.6280   23.1730 C   0  0  0  0  0  0  0  0  0  0  0  0
  -18.8670  -29.8850   23.7730 C   0  0  0  0  0  3  0  0  0  0  0  0
  -17.5540  -30.3630   23.9580 C   0  0  0  0  0  3  0  0  0  0  0  0
  -16.4580  -29.5800   23.5550 C   0  0  0  0  0  3  0  0  0  0  0  0
  -16.6760  -28.3240   22.9630 C   0  0  0  0  0  3  0  0  0  0  0  0
  -25.7980  -32.3570   23.5970 C   0  0  0  0  0  3  0  0  0  0  0  0
  -25.4210  -33.7330   23.9830 N   0  0  0  0  0  0  0  0  0  0  0  0
  -25.7320  -34.8400   23.2950 C   0  0  0  0  0  0  0  0  0  0  0  0
  -26.4210  -34.8130   22.2720 O   0  0  0  0  0  0  0  0  0  0  0  0
  -24.8090  -33.8240   24.7790 H   0  0  0  0  0  0  0  0  0  0  0  0
  -23.9550  -36.6070   23.0170 C   0  0  0  0  0  1  0  0  0  0  0  0
  -25.1990  -36.1930   23.8190 C   0  0  0  0  0  3  0  0  0  0  0  0
  -27.3000  -37.0990   24.7160 C   0  0  0  0  0  1  0  0  0  0  0  0
  -26.1980  -37.2830   23.7740 N   0  0  0  0  0  0  0  0  0  0  0  0
  -25.7630  -38.1800   23.9700 H   0  0  0  0  0  0  0  0  0  0  0  0
  -26.3480  -31.5850   24.8600 C   0  0  1  0  0  0  0  0  0  0  0  0
  -25.2740  -31.2980   25.9380 C   0  0  0  0  0  1  0  0  0  0  0  0
  -26.9700  -30.2290   24.4570 C   0  0  0  0  0  1  0  0  0  0  0  0
  -27.4820  -32.4020   25.5240 C   0  0  0  0  0  1  0  0  0  0  0  0
  1  3  2  0
  2  1  1  0
  2 48  1  0
  4  2  1  0
  9 23  1  0
 11  5  1  0
 12  5  2  0
 14 13  3  0
 15 17  1  0
 16 18  1  0
 16  1  1  0
 16 15  1  0
 17 19  1  0
 18 17  1  0
 19  5  1  0
 20 21  2  0
 21 40  1  0
 22 21  1  0
 22 25  1  0
 23 20  1  0
 23 24  1  0
 24 22  2  0
 25 26  1  0
 26 27  2  0
 28 31  1  0
 28 27  1  0
 29 28  2  0
 30 29  1  0
 30 25  2  0
 31 32  1  0
 32 33  1  0
 33 34  2  0
 35 34  1  0
 35 39  1  0
 36 35  2  0
 37 32  2  0
 37 36  1  0
 38 37  1  0
 40 41  1  0
 41 44  1  0
 41 43  1  0
 42 40  2  0
 45 20  1  0
 46 45  1  0
 47 45  1  0
 49 50  1  0
 50 52  1  0
 51 62  2  0
 52 57  1  0
 53 61  1  0
 53 63  1  0
 54 60  1  0
 54 56  1  0
 55 61  1  0
 56 55  1  0
 57 56  2  0
 58 59  1  0
 58 52  2  0
 59 54  2  0
 60 53  1  0
 61 51  1  0
 63 65  2  0
 64 63  1  0
 66 64  1  0
 67 76  2  0
 67 72  1  0
 68 64  1  0
 68 72  1  0
 69 68  1  0
 70 71  1  0
 70 69  1  0
 71 67  1  0
 72 73  2  0
 73 74  1  0
 75 74  2  0
 76 75  1  0
 77 51  1  0
 77 78  1  0
 77 87  1  0
 78 81  1  0
 79 83  1  0
 79 78  1  0
 80 79  2  0
 83 82  1  0
 85 83  1  0
 85 86  1  0
 85 84  1  0
 87 90  1  1
 87 88  1  0
 89 87  1  0
M  ISO  4   5 100  19 100  49 101  50 101
M  END
>  <TORSDO>  (92) 
F 18

>  <SCORE>  (92) 
-14.503

>  <name>  (92) 
92

>  <ligand_id>  (92) 
92

>  <original_smiles>  (92) 
[H]c1c([H])c([H])c2c(c1[H])C([H])([H])C([H])([H])C([H])([H])C2([H])N([H])C(=O)C1([H])N(C(=O)C([H])(N([H])C(=O)C([H])(N([H])C([H])([H])[H])C([H])([H])[H])C(C([H])([H])[H])(C([H])([H])[H])C([H])([H])[H])C([H])([H])c2c([H])c(OC([H])([H])C([H])([H])N([H])C(=O)C3([H])C([H])([H])C4([H])N(C(=O)N5C([H])([H])C([H])([H])C([H])([H])C([H])(n6nc(-c7c([H])c([H])c(Oc8c([H])c([H])c(F)c([H])c8F)c([H])c7[H])c(C(=O)N([H])[H])c6N([H])[H])C5([H])[H])C3([H])C([H])([H])C4([H])[H])c([H])c([H])c2C1([H])[H]

>  <smiles>  (92) 
[H]c1c([H])c([H])c2c(c1[H])C([H])([H])C([H])([H])C([H])([H])C2([H])N([H])C(=O)C1([H])N(C(=O)C([H])(N([H])C(=O)C([H])(N([H])C([H])([H])[H])C([H])([H])[H])C(C([H])([H])[H])(C([H])([H])[H])C([H])([H])[H])C([H])([H])c2c([H])c(OC([H])([H])C([H])([H])N([H])C(=O)C3([H])C([H])([H])C4([H])N(C(=O)N5C([H])([H])C([H])([H])C([H])([H])C([H])(n6nc(-c7c([H])c([H])c(Oc8c([H])c([H])c(F)c([H])c8F)c([H])c7[H])c(C(=O)N([H])[H])c6N([H])[H])C5([H])[H])C3([H])C([H])([H])C4([H])[H])c([H])c([H])c2C1([H])[H]

$$$$
93:0:0
     RDKit          3D

 89 97  0  0  1  0  0  0  0  0999 V2000
  -27.9760  -21.4720   20.6890 C   0  0  0  0  0  3  0  0  0  0  0  0
  -27.7030  -20.1320   21.0550 C   0  0  0  0  0  3  0  0  0  0  0  0
  -29.8390  -20.6290   19.4040 C   0  0  0  0  0  3  0  0  0  0  0  0
  -29.0810  -21.8220   19.8910 C   0  0  0  0  0  0  0  0  0  0  0  0
  -28.4900  -19.0260   20.6390 C   0  0  0  0  0  0  0  0  0  0  0  0
  -29.5710  -19.1930   19.7310 C   0  0  0  0  0  0  0  0  0  0  0  0
  -28.2000  -17.6760   21.2800 C   0  0  0  0  0  1  0  0  0  0  0  0
  -29.4110  -23.4420   19.6690 C   0  0  0  0  0  3  0  0  0  0  0  0
  -28.3910  -24.7680   19.9880 C   0  0  0  0  0  3  0  0  0  0  0  0
  -28.6860  -26.3110   19.8410 O   0  0  0  0  0  0  0  0  0  0  0  0
  -25.1000  -31.7650   23.3340 C   0  0  0  0  0  0  0  0  0  0  0  0
  -27.6450  -27.3170   19.8880 C   0  0  0  0  0  0  0  0  0  0  0  0
  -23.8920  -30.5330   21.5770 C   0  0  0  0  0  3  0  0  0  0  0  0
  -25.3340  -29.0910   20.0050 C   0  0  0  0  0  0  0  0  0  0  0  0
  -26.4500  -30.7940   21.4370 C   0  0  0  0  0  2  0  0  0  0  0  0
  -26.5160  -29.4680   20.6570 C   0  0  0  0  0  0  0  0  0  0  0  0
  -27.6730  -28.6020   20.5790 C   0  0  0  0  0  3  0  0  0  0  0  0
  -26.4420  -27.0600   19.1960 C   0  0  0  0  0  3  0  0  0  0  0  0
  -25.3140  -27.9080   19.2560 C   0  0  0  0  0  3  0  0  0  0  0  0
  -24.1080  -29.9880   20.1400 C   0  0  0  0  0  2  0  0  0  0  0  0
  -25.1660  -31.0500   22.1700 N   0  0  0  0  0  0  0  0  0  0  0  0
  -24.0160  -32.0020   23.8900 O   0  0  0  0  0  0  0  0  0  0  0  0
  -23.2120  -29.4410   22.4410 C   0  0  0  0  0  0  0  0  0  0  0  0
  -21.8850  -29.2800   22.2970 N   0  0  0  0  0  0  0  0  0  0  0  0
  -23.8830  -28.7420   23.2060 O   0  0  0  0  0  0  0  0  0  0  0  0
  -21.4000  -29.8870   21.6480 H   0  0  0  0  0  0  0  0  0  0  0  0
  -18.4950  -28.0830   22.7330 C   0  0  0  0  0  0  0  0  0  0  0  0
  -21.0630  -28.2790   22.9820 C   0  0  0  0  0  3  0  0  0  0  0  0
  -21.1320  -26.9150   22.2570 C   0  0  0  0  0  2  0  0  0  0  0  0
  -20.0080  -26.7160   21.2350 C   0  0  0  0  0  2  0  0  0  0  0  0
  -18.6390  -26.8130   21.9130 C   0  0  0  0  0  2  0  0  0  0  0  0
  -19.6320  -28.7810   23.2220 C   0  0  0  0  0  0  0  0  0  0  0  0
  -19.4400  -29.9740   23.9520 C   0  0  0  0  0  3  0  0  0  0  0  0
  -18.1460  -30.4710   24.1910 C   0  0  0  0  0  3  0  0  0  0  0  0
  -17.0240  -29.7700   23.7180 C   0  0  0  0  0  3  0  0  0  0  0  0
  -17.1990  -28.5760   22.9970 C   0  0  0  0  0  3  0  0  0  0  0  0
  -26.3810  -32.3350   24.0120 C   0  0  0  0  0  3  0  0  0  0  0  0
  -26.8820  -31.4570   25.2240 C   0  0  1  0  0  0  0  0  0  0  0  0
  -25.7730  -31.1280   26.2510 C   0  0  0  0  0  1  0  0  0  0  0  0
  -27.4730  -30.1180   24.7260 C   0  0  0  0  0  1  0  0  0  0  0  0
  -28.0260  -32.1900   25.9640 C   0  0  0  0  0  1  0  0  0  0  0  0
  -26.0780  -33.7040   24.4620 N   0  0  0  0  0  0  0  0  0  0  0  0
  -26.3890  -34.8160   23.7870 C   0  0  0  0  0  0  0  0  0  0  0  0
  -27.0290  -34.8010   22.7320 O   0  0  0  0  0  0  0  0  0  0  0  0
  -25.5060  -33.7900   25.2900 H   0  0  0  0  0  0  0  0  0  0  0  0
  -24.6390  -36.6180   23.6530 C   0  0  0  0  0  1  0  0  0  0  0  0
  -25.9180  -36.1630   24.3730 C   0  0  0  0  0  3  0  0  0  0  0  0
  -28.0780  -37.0020   25.1830 C   0  0  0  0  0  1  0  0  0  0  0  0
  -26.9400  -37.2290   24.2970 N   0  0  0  0  0  0  0  0  0  0  0  0
  -26.5350  -38.1330   24.5300 H   0  0  0  0  0  0  0  0  0  0  0  0
  -30.4680  -17.8800   19.2490 C   0  0  0  0  0  2  0  0  0  0  0  0
  -31.0590  -15.1940   19.4220 C   0  0  0  0  0  0  0  0  0  0  0  0
  -31.0340  -12.7620   18.6990 C   0  0  0  0  0  2  0  0  0  0  0  0
  -30.0000  -12.5300   17.5720 C   0  0  0  0  0  2  0  0  0  0  0  0
  -28.6020  -12.2590   18.1620 C   0  0  0  0  0  2  0  0  0  0  0  0
  -28.2290  -13.2640   19.2830 C   0  0  0  0  0  3  0  0  0  0  0  0
  -29.3740  -13.4610   20.2970 C   0  0  0  0  0  2  0  0  0  0  0  0
  -30.5510  -13.8980   19.5360 N   0  0  0  0  0  0  0  0  0  0  0  0
  -32.2190  -15.3060   19.0180 O   0  0  0  0  0  0  0  0  0  0  0  0
  -30.2270  -16.3410   19.5530 N   0  0  0  0  0  0  0  0  0  0  0  0
  -29.2810  -16.1240   19.8220 H   0  0  0  0  0  0  0  0  0  0  0  0
  -25.9770  -13.7640   20.3950 C   0  0  0  0  0  0  0  0  0  0  0  0
  -24.9690  -12.9550   20.8400 C   0  0  0  0  0  0  0  0  0  0  0  0
  -25.4180  -11.6160   20.6310 C   0  0  0  0  0  0  0  0  0  0  0  0
  -26.9710  -12.9180   19.9330 N   0  0  0  0  0  0  0  0  0  0  0  0
  -26.6510  -11.6140   20.1410 N   0  0  0  0  0  0  0  0  0  0  0  0
  -24.7180  -10.3380   20.8080 C   0  0  0  0  0  0  0  0  0  0  0  0
  -25.1270   -9.3950   21.7770 C   0  0  0  0  0  3  0  0  0  0  0  0
  -24.4160   -8.1850   21.9420 C   0  0  0  0  0  3  0  0  0  0  0  0
  -23.2830   -7.9100   21.1390 C   0  0  0  0  0  0  0  0  0  0  0  0
  -22.8980   -8.8410   20.1590 C   0  0  0  0  0  3  0  0  0  0  0  0
  -23.6100  -10.0410   19.9920 C   0  0  0  0  0  3  0  0  0  0  0  0
  -22.5550   -6.7460   21.2070 O   0  0  0  0  0  0  0  0  0  0  0  0
  -22.2580   -6.1540   22.4090 C   0  0  0  0  0  0  0  0  0  0  0  0
  -21.5530   -6.8370   23.4250 C   0  0  0  0  0  3  0  0  0  0  0  0
  -21.2080   -6.1670   24.6170 C   0  0  0  0  0  3  0  0  0  0  0  0
  -21.5610   -4.8150   24.7910 C   0  0  0  0  0  0  0  0  0  0  0  0
  -22.2620   -4.1330   23.7810 C   0  0  0  0  0  3  0  0  0  0  0  0
  -22.6060   -4.8010   22.5930 C   0  0  0  0  0  0  0  0  0  0  0  0
  -23.2630   -4.1330   21.6110 F   0  0  0  0  0  0  0  0  0  0  0  0
  -21.2270   -4.1680   25.9350 F   0  0  0  0  0  0  0  0  0  0  0  0
  -23.6240  -13.4020   21.3350 C   0  0  0  0  0  0  0  0  0  0  0  0
  -23.0320  -12.6540   22.2620 N   0  0  0  0  0  0  0  0  0  0  0  0
  -23.1090  -14.4490   20.9390 O   0  0  0  0  0  0  0  0  0  0  0  0
  -23.4600  -11.8100   22.6130 H   0  0  0  0  0  0  0  0  0  0  0  0
  -22.1350  -12.9350   22.6310 H   0  0  0  0  0  0  0  0  0  0  0  0
  -26.1210  -15.1470   20.3170 N   0  0  0  0  0  0  0  0  0  0  0  0
  -25.3840  -15.7780   20.6100 H   0  0  0  0  0  0  0  0  0  0  0  0
  -26.8830  -15.6260   19.8570 H   0  0  0  0  0  0  0  0  0  0  0  0
  1  2  1  0
  3  6  2  0
  3  4  1  0
  4  1  2  0
  5  2  2  0
  5  7  1  0
  6  5  1  0
  8  4  1  0
  8  9  2  0
 10 12  1  0
 10  9  1  0
 11 22  2  0
 12 17  1  0
 13 21  1  0
 13 23  1  0
 14 20  1  0
 14 16  1  0
 15 21  1  0
 16 15  1  0
 17 16  2  0
 18 19  1  0
 18 12  2  0
 19 14  2  0
 20 13  1  0
 21 11  1  0
 23 25  2  0
 24 23  1  0
 26 24  1  0
 27 36  2  0
 27 32  1  0
 28 24  1  0
 28 32  1  0
 29 28  1  0
 30 31  1  0
 30 29  1  0
 31 27  1  0
 32 33  2  0
 33 34  1  0
 35 34  2  0
 36 35  1  0
 37 11  1  0
 37 42  1  0
 37 38  1  0
 38 41  1  1
 38 39  1  0
 40 38  1  0
 42 45  1  0
 43 47  1  0
 43 42  1  0
 44 43  2  0
 47 46  1  0
 49 47  1  0
 49 50  1  0
 49 48  1  0
 51 60  1  0
 51  6  1  0
 52 58  1  0
 52 60  1  0
 53 58  1  0
 54 55  1  0
 54 53  1  0
 56 55  1  0
 56 65  1  0
 56 57  1  0
 58 57  1  0
 59 52  2  0
 60 61  1  0
 62 63  2  0
 63 82  1  0
 64 67  1  0
 64 63  1  0
 65 66  1  0
 65 62  1  0
 66 64  2  0
 67 68  1  0
 68 69  2  0
 70 73  1  0
 70 69  1  0
 71 70  2  0
 72 71  1  0
 72 67  2  0
 73 74  1  0
 74 79  2  0
 74 75  1  0
 75 76  2  0
 76 77  1  0
 77 81  1  0
 78 77  2  0
 79 78  1  0
 80 79  1  0
 82 83  1  0
 83 85  1  0
 83 86  1  0
 84 82  2  0
 87 62  1  0
 87 88  1  0
 89 87  1  0
M  ISO  4   9 101  10 101  52 100  60 100
M  END
>  <TORSDO>  (93) 
F 19

>  <SCORE>  (93) 
-10.101

>  <name>  (93) 
93

>  <ligand_id>  (93) 
93

>  <original_smiles>  (93) 
[H]c1c([H])c([H])c2c(c1[H])C([H])([H])C([H])([H])C([H])([H])C2([H])N([H])C(=O)C1([H])N(C(=O)C([H])(N([H])C(=O)C([H])(N([H])C([H])([H])[H])C([H])([H])[H])C(C([H])([H])[H])(C([H])([H])[H])C([H])([H])[H])C([H])([H])c2c([H])c(OC([H])([H])C([H])([H])c3c([H])c([H])c(C([H])([H])[H])c(C([H])([H])N([H])C(=O)N4C([H])([H])C([H])([H])C([H])([H])C([H])(n5nc(-c6c([H])c([H])c(Oc7c([H])c([H])c(F)c([H])c7F)c([H])c6[H])c(C(=O)N([H])[H])c5N([H])[H])C4([H])[H])c3[H])c([H])c([H])c2C1([H])[H]

>  <smiles>  (93) 
[H]c1c([H])c([H])c2c(c1[H])C([H])([H])C([H])([H])C([H])([H])C2([H])N([H])C(=O)C1([H])N(C(=O)C([H])(N([H])C(=O)C([H])(N([H])C([H])([H])[H])C([H])([H])[H])C(C([H])([H])[H])(C([H])([H])[H])C([H])([H])[H])C([H])([H])c2c([H])c(OC([H])([H])C([H])([H])c3c([H])c([H])c(C([H])([H])[H])c(C([H])([H])N([H])C(=O)N4C([H])([H])C([H])([H])C([H])([H])C([H])(n5nc(-c6c([H])c([H])c(Oc7c([H])c([H])c(F)c([H])c7F)c([H])c6[H])c(C(=O)N([H])[H])c5N([H])[H])C4([H])[H])c3[H])c([H])c([H])c2C1([H])[H]

$$$$
94:0:0
     RDKit          3D

 85 94  0  0  1  0  0  0  0  0999 V2000
  -30.6050  -19.7750   20.5530 C   0  0  0  0  0  2  0  0  0  0  0  0
  -29.7020  -21.0040   21.0490 C   0  0  0  0  0  3  0  0  0  0  0  0
  -28.5190  -20.2370   20.4020 C   0  0  0  0  0  3  0  0  0  0  0  0
  -28.5760  -22.0480   20.5520 C   0  0  0  0  0  3  0  0  0  0  0  0
  -29.5290  -18.8020   19.9780 C   0  0  0  0  0  3  0  0  0  0  0  0
  -30.2560  -15.6800   20.1990 C   0  0  0  0  0  0  0  0  0  0  0  0
  -30.3200  -13.1310   19.3930 C   0  0  0  0  0  2  0  0  0  0  0  0
  -29.4170  -12.7560   18.1820 C   0  0  0  0  0  2  0  0  0  0  0  0
  -27.9920  -12.4190   18.6420 C   0  0  0  0  0  2  0  0  0  0  0  0
  -27.5040  -13.4150   19.7180 C   0  0  0  0  0  3  0  0  0  0  0  0
  -28.5440  -13.7070   20.8260 C   0  0  0  0  0  2  0  0  0  0  0  0
  -29.7250  -14.3140   20.1700 N   0  0  0  0  0  0  0  0  0  0  0  0
  -31.4730  -15.6120   19.9390 O   0  0  0  0  0  0  0  0  0  0  0  0
  -29.5110  -17.0470   20.3340 N   0  0  0  0  0  0  0  0  0  0  0  0
  -28.5720  -16.8090   20.6220 H   0  0  0  0  0  0  0  0  0  0  0  0
  -25.1510  -13.9550   20.5030 C   0  0  0  0  0  0  0  0  0  0  0  0
  -24.0910  -13.1800   20.8770 C   0  0  0  0  0  0  0  0  0  0  0  0
  -24.5540  -11.8280   20.8360 C   0  0  0  0  0  0  0  0  0  0  0  0
  -26.1880  -13.0810   20.2450 N   0  0  0  0  0  0  0  0  0  0  0  0
  -25.8450  -11.7920   20.5130 N   0  0  0  0  0  0  0  0  0  0  0  0
  -23.8220  -10.5680   21.0260 C   0  0  0  0  0  0  0  0  0  0  0  0
  -24.2550   -9.5910   21.9490 C   0  0  0  0  0  3  0  0  0  0  0  0
  -23.5170   -8.4010   22.1300 C   0  0  0  0  0  3  0  0  0  0  0  0
  -22.3340   -8.1790   21.3880 C   0  0  0  0  0  0  0  0  0  0  0  0
  -21.9180   -9.1440   20.4540 C   0  0  0  0  0  3  0  0  0  0  0  0
  -22.6560  -10.3260   20.2720 C   0  0  0  0  0  3  0  0  0  0  0  0
  -21.5670   -7.0410   21.4790 O   0  0  0  0  0  0  0  0  0  0  0  0
  -21.5280   -6.2890   22.6270 C   0  0  0  0  0  0  0  0  0  0  0  0
  -21.1230   -6.8370   23.8630 C   0  0  0  0  0  3  0  0  0  0  0  0
  -21.0300   -6.0120   25.0020 C   0  0  0  0  0  3  0  0  0  0  0  0
  -21.3330   -4.6420   24.9060 C   0  0  0  0  0  0  0  0  0  0  0  0
  -21.7310   -4.0930   23.6740 C   0  0  0  0  0  3  0  0  0  0  0  0
  -21.8250   -4.9140   22.5380 C   0  0  0  0  0  0  0  0  0  0  0  0
  -22.1890   -4.3760   21.3490 F   0  0  0  0  0  0  0  0  0  0  0  0
  -21.2370   -3.8470   25.9990 F   0  0  0  0  0  0  0  0  0  0  0  0
  -22.6980  -13.6620   21.1540 C   0  0  0  0  0  0  0  0  0  0  0  0
  -21.9720  -12.9710   22.0240 N   0  0  0  0  0  0  0  0  0  0  0  0
  -22.2640  -14.6900   20.6340 O   0  0  0  0  0  0  0  0  0  0  0  0
  -22.3380  -12.1410   22.4660 H   0  0  0  0  0  0  0  0  0  0  0  0
  -21.0360  -13.2770   22.2520 H   0  0  0  0  0  0  0  0  0  0  0  0
  -25.3140  -15.3270   20.3270 N   0  0  0  0  0  0  0  0  0  0  0  0
  -24.5440  -15.9790   20.4390 H   0  0  0  0  0  0  0  0  0  0  0  0
  -26.1470  -15.7600   19.9520 H   0  0  0  0  0  0  0  0  0  0  0  0
  -28.2090  -23.8340   19.9350 C   0  0  0  0  0  2  0  0  0  0  0  0
  -28.1890  -25.5490   20.3700 O   0  0  0  0  0  0  0  0  0  0  0  0
  -24.6380  -31.8340   23.2000 C   0  0  0  0  0  0  0  0  0  0  0  0
  -27.2130  -26.7560   20.2450 C   0  0  0  0  0  0  0  0  0  0  0  0
  -23.4650  -30.4190   21.5660 C   0  0  0  0  0  3  0  0  0  0  0  0
  -24.9300  -28.7730   20.1640 C   0  0  0  0  0  0  0  0  0  0  0  0
  -26.0430  -30.5770   21.4560 C   0  0  0  0  0  2  0  0  0  0  0  0
  -26.1180  -29.1400   20.8060 C   0  0  0  0  0  0  0  0  0  0  0  0
  -27.2390  -28.1580   20.8190 C   0  0  0  0  0  3  0  0  0  0  0  0
  -25.9940  -26.6010   19.5350 C   0  0  0  0  0  3  0  0  0  0  0  0
  -24.9070  -27.5300   19.5050 C   0  0  0  0  0  3  0  0  0  0  0  0
  -23.7140  -29.7150   20.1990 C   0  0  0  0  0  2  0  0  0  0  0  0
  -24.7380  -30.9770   22.1260 N   0  0  0  0  0  0  0  0  0  0  0  0
  -23.5410  -32.1310   23.7050 O   0  0  0  0  0  0  0  0  0  0  0  0
  -22.7510  -29.4440   22.5410 C   0  0  0  0  0  0  0  0  0  0  0  0
  -21.4180  -29.2890   22.4180 N   0  0  0  0  0  0  0  0  0  0  0  0
  -23.4080  -28.8240   23.3790 O   0  0  0  0  0  0  0  0  0  0  0  0
  -20.9370  -29.8410   21.7220 H   0  0  0  0  0  0  0  0  0  0  0  0
  -18.0310  -28.0810   22.9440 C   0  0  0  0  0  0  0  0  0  0  0  0
  -20.5920  -28.3550   23.1950 C   0  0  0  0  0  3  0  0  0  0  0  0
  -20.6930  -26.9210   22.6250 C   0  0  0  0  0  2  0  0  0  0  0  0
  -19.5890  -26.5950   21.6140 C   0  0  0  0  0  2  0  0  0  0  0  0
  -18.2090  -26.7340   22.2630 C   0  0  0  0  0  2  0  0  0  0  0  0
  -19.1500  -28.8490   23.3670 C   0  0  0  0  0  0  0  0  0  0  0  0
  -18.9250  -30.1060   23.9700 C   0  0  0  0  0  3  0  0  0  0  0  0
  -17.6180  -30.5960   24.1500 C   0  0  0  0  0  3  0  0  0  0  0  0
  -16.5160  -29.8270   23.7390 C   0  0  0  0  0  3  0  0  0  0  0  0
  -16.7230  -28.5710   23.1430 C   0  0  0  0  0  3  0  0  0  0  0  0
  -25.8940  -32.4970   23.8420 C   0  0  0  0  0  3  0  0  0  0  0  0
  -25.5620  -33.8980   24.1660 N   0  0  0  0  0  0  0  0  0  0  0  0
  -25.8870  -34.9620   23.4190 C   0  0  0  0  0  0  0  0  0  0  0  0
  -26.5550  -34.8670   22.3860 O   0  0  0  0  0  0  0  0  0  0  0  0
  -24.9650  -34.0440   24.9670 H   0  0  0  0  0  0  0  0  0  0  0  0
  -24.1430  -36.7530   23.0970 C   0  0  0  0  0  1  0  0  0  0  0  0
  -25.3990  -36.3500   23.8870 C   0  0  0  0  0  3  0  0  0  0  0  0
  -27.5370  -37.2570   24.6890 C   0  0  0  0  0  1  0  0  0  0  0  0
  -26.4220  -37.4120   23.7590 N   0  0  0  0  0  0  0  0  0  0  0  0
  -26.0100  -38.3300   23.9060 H   0  0  0  0  0  0  0  0  0  0  0  0
  -26.3870  -31.7520   25.1450 C   0  0  1  0  0  0  0  0  0  0  0  0
  -25.2750  -31.5340   26.2000 C   0  0  0  0  0  1  0  0  0  0  0  0
  -26.9790  -30.3670   24.8040 C   0  0  0  0  0  1  0  0  0  0  0  0
  -27.5250  -32.5610   25.8130 C   0  0  0  0  0  1  0  0  0  0  0  0
  2  1  1  0
  3  4  1  0
  3  2  1  0
  4  2  1  0
  5 14  1  0
  5  3  1  0
  5  1  1  0
  6 14  1  0
  7 12  1  0
  8  9  1  0
  8  7  1  0
  9 10  1  0
 10 19  1  0
 10 11  1  0
 12  6  1  0
 12 11  1  0
 13  6  2  0
 14 15  1  0
 16 17  2  0
 17 36  1  0
 18 17  1  0
 18 21  1  0
 19 16  1  0
 19 20  1  0
 20 18  2  0
 21 22  1  0
 22 23  2  0
 24 27  1  0
 24 23  1  0
 25 24  2  0
 26 25  1  0
 26 21  2  0
 27 28  1  0
 28 29  1  0
 29 30  2  0
 31 30  1  0
 31 35  1  0
 32 31  2  0
 33 28  2  0
 33 32  1  0
 34 33  1  0
 36 37  1  0
 37 40  1  0
 37 39  1  0
 38 36  2  0
 41 42  1  0
 41 16  1  0
 43 41  1  0
 44 45  1  0
 44  4  1  0
 46 57  2  0
 46 72  1  0
 47 45  1  0
 47 52  1  0
 48 56  1  0
 48 58  1  0
 49 55  1  0
 49 51  1  0
 50 56  1  0
 51 52  2  0
 51 50  1  0
 53 47  2  0
 54 53  1  0
 54 49  2  0
 55 48  1  0
 56 46  1  0
 58 60  2  0
 59 58  1  0
 59 63  1  0
 61 59  1  0
 62 71  2  0
 62 67  1  0
 63 67  1  0
 64 63  1  0
 65 66  1  0
 65 64  1  0
 66 62  1  0
 67 68  2  0
 68 69  1  0
 70 69  2  0
 71 70  1  0
 72 73  1  0
 72 82  1  0
 73 76  1  0
 74 78  1  0
 74 73  1  0
 75 74  2  0
 77 78  1  0
 80 78  1  0
 80 81  1  0
 80 79  1  0
 82 85  1  1
 82 83  1  0
 84 82  1  0
M  ISO  4   6 100  14 100  44 101  45 101
M  END
>  <TORSDO>  (94) 
F 17

>  <SCORE>  (94) 
-16.487

>  <name>  (94) 
94

>  <ligand_id>  (94) 
94

>  <original_smiles>  (94) 
[H]c1c([H])c([H])c2c(c1[H])C([H])([H])C([H])([H])C([H])([H])C2([H])N([H])C(=O)C1([H])N(C(=O)C([H])(N([H])C(=O)C([H])(N([H])C([H])([H])[H])C([H])([H])[H])C(C([H])([H])[H])(C([H])([H])[H])C([H])([H])[H])C([H])([H])c2c([H])c(OC([H])([H])C3([H])C4([H])C([H])([H])C([H])(N([H])C(=O)N5C([H])([H])C([H])([H])C([H])([H])C([H])(n6nc(-c7c([H])c([H])c(Oc8c([H])c([H])c(F)c([H])c8F)c([H])c7[H])c(C(=O)N([H])[H])c6N([H])[H])C5([H])[H])C34[H])c([H])c([H])c2C1([H])[H]

>  <smiles>  (94) 
[H]c1c([H])c([H])c2c(c1[H])C([H])([H])C([H])([H])C([H])([H])C2([H])N([H])C(=O)C1([H])N(C(=O)C([H])(N([H])C(=O)C([H])(N([H])C([H])([H])[H])C([H])([H])[H])C(C([H])([H])[H])(C([H])([H])[H])C([H])([H])[H])C([H])([H])c2c([H])c(OC([H])([H])C3([H])C4([H])C([H])([H])C([H])(N([H])C(=O)N5C([H])([H])C([H])([H])C([H])([H])C([H])(n6nc(-c7c([H])c([H])c(Oc8c([H])c([H])c(F)c([H])c8F)c([H])c7[H])c(C(=O)N([H])[H])c6N([H])[H])C5([H])[H])C34[H])c([H])c([H])c2C1([H])[H]

$$$$
95:0:0
     RDKit          3D

 95104  0  0  1  0  0  0  0  0999 V2000
  -28.4720  -19.8950   21.4990 C   0  0  0  0  0  2  0  0  0  0  0  0
  -29.5170  -20.8790   19.5050 C   0  0  0  0  0  2  0  0  0  0  0  0
  -27.8170  -22.4920   21.8030 C   0  0  0  0  0  2  0  0  0  0  0  0
  -27.6700  -21.1400   21.0980 C   0  0  0  0  0  3  0  0  0  0  0  0
  -28.3550  -21.7830   19.9080 C   0  0  0  0  0  3  0  0  0  0  0  0
  -29.8280  -19.9950   20.7470 C   0  0  0  0  0  3  0  0  0  0  0  0
  -28.7500  -22.9240   20.7600 N   0  0  1  0  0  4  0  0  0  0  0  0
  -29.6870  -22.8200   21.1160 H   0  0  0  0  0  0  0  0  0  0  0  0
  -31.7600  -18.9110   19.6690 C   0  0  0  0  0  1  0  0  0  0  0  0
  -30.5280  -18.6920   20.4760 N   0  0  1  0  0  4  0  0  0  0  0  0
  -29.9180  -18.1180   19.9130 H   0  0  0  0  0  0  0  0  0  0  0  0
  -30.8000  -17.9290   21.7350 C   0  0  0  0  0  2  0  0  0  0  0  0
  -31.6020  -16.6040   21.5950 C   0  0  0  0  0  2  0  0  0  0  0  0
  -31.2780  -14.6320   20.0810 C   0  0  0  0  0  0  0  0  0  0  0  0
  -30.8890  -12.4510   18.9830 C   0  0  0  0  0  2  0  0  0  0  0  0
  -29.8940  -12.5560   17.8120 C   0  0  0  0  0  2  0  0  0  0  0  0
  -28.4430  -12.4420   18.3130 C   0  0  0  0  0  2  0  0  0  0  0  0
  -28.1550  -13.3890   19.5060 C   0  0  0  0  0  3  0  0  0  0  0  0
  -29.2400  -13.2350   20.5920 C   0  0  0  0  0  2  0  0  0  0  0  0
  -30.5540  -13.4880   19.9710 N   0  0  0  0  0  0  0  0  0  0  0  0
  -32.2880  -14.8640   19.4110 O   0  0  0  0  0  0  0  0  0  0  0  0
  -30.8420  -15.4910   21.0170 N   0  0  0  0  0  0  0  0  0  0  0  0
  -30.0120  -15.2020   21.5130 H   0  0  0  0  0  0  0  0  0  0  0  0
  -25.8360  -14.1030   20.3750 C   0  0  0  0  0  0  0  0  0  0  0  0
  -24.7480  -13.3750   20.7710 C   0  0  0  0  0  0  0  0  0  0  0  0
  -25.1280  -12.0010   20.6600 C   0  0  0  0  0  0  0  0  0  0  0  0
  -26.8150  -13.1750   20.0500 N   0  0  0  0  0  0  0  0  0  0  0  0
  -26.3930  -11.9050   20.2730 N   0  0  0  0  0  0  0  0  0  0  0  0
  -24.3430  -10.7750   20.8410 C   0  0  0  0  0  0  0  0  0  0  0  0
  -24.7270   -9.7860   21.7720 C   0  0  0  0  0  3  0  0  0  0  0  0
  -23.9490   -8.6210   21.9410 C   0  0  0  0  0  3  0  0  0  0  0  0
  -22.7720   -8.4390   21.1790 C   0  0  0  0  0  0  0  0  0  0  0  0
  -22.4060   -9.4150   20.2350 C   0  0  0  0  0  3  0  0  0  0  0  0
  -23.1850  -10.5720   20.0640 C   0  0  0  0  0  3  0  0  0  0  0  0
  -21.9660   -7.3290   21.2580 O   0  0  0  0  0  0  0  0  0  0  0  0
  -21.8170   -6.6290   22.4280 C   0  0  0  0  0  0  0  0  0  0  0  0
  -21.3210   -7.2380   23.6030 C   0  0  0  0  0  3  0  0  0  0  0  0
  -21.1200   -6.4640   24.7640 C   0  0  0  0  0  3  0  0  0  0  0  0
  -21.4020   -5.0840   24.7510 C   0  0  0  0  0  0  0  0  0  0  0  0
  -21.8900   -4.4770   23.5800 C   0  0  0  0  0  3  0  0  0  0  0  0
  -22.0930   -5.2470   22.4220 C   0  0  0  0  0  0  0  0  0  0  0  0
  -22.5440   -4.6520   21.2910 F   0  0  0  0  0  0  0  0  0  0  0  0
  -21.2000   -4.3410   25.8630 F   0  0  0  0  0  0  0  0  0  0  0  0
  -23.3970  -13.9140   21.1410 C   0  0  0  0  0  0  0  0  0  0  0  0
  -22.6850  -13.2300   22.0300 N   0  0  0  0  0  0  0  0  0  0  0  0
  -22.9850  -14.9770   20.6780 O   0  0  0  0  0  0  0  0  0  0  0  0
  -23.0340  -12.3680   22.4240 H   0  0  0  0  0  0  0  0  0  0  0  0
  -21.7790  -13.5700   22.3180 H   0  0  0  0  0  0  0  0  0  0  0  0
  -26.0740  -15.4680   20.2460 N   0  0  0  0  0  0  0  0  0  0  0  0
  -25.3540  -16.1590   20.4260 H   0  0  0  0  0  0  0  0  0  0  0  0
  -26.9330  -15.8690   19.8930 H   0  0  0  0  0  0  0  0  0  0  0  0
  -28.5420  -24.3030   20.2370 C   0  0  0  0  0  2  0  0  0  0  0  0
  -29.8080  -24.9020   19.5730 C   0  0  0  0  0  2  0  0  0  0  0  0
  -29.8170  -26.4530   19.4760 C   0  0  0  0  0  2  0  0  0  0  0  0
  -28.9900  -26.9210   18.4120 O   0  0  0  0  0  0  0  0  0  0  0  0
  -24.7850  -30.7950   22.7830 C   0  0  0  0  0  0  0  0  0  0  0  0
  -27.7730  -27.4770   18.7310 C   0  0  0  0  0  0  0  0  0  0  0  0
  -23.6670  -29.5860   20.9380 C   0  0  0  0  0  3  0  0  0  0  0  0
  -25.2120  -28.5880   19.1700 C   0  0  0  0  0  0  0  0  0  0  0  0
  -26.1080  -30.3240   20.7260 C   0  0  0  0  0  2  0  0  0  0  0  0
  -26.3320  -29.1330   19.8180 C   0  0  0  0  0  0  0  0  0  0  0  0
  -27.6180  -28.5760   19.6110 C   0  0  0  0  0  3  0  0  0  0  0  0
  -26.6410  -26.9540   18.0780 C   0  0  0  0  0  3  0  0  0  0  0  0
  -25.3610  -27.4900   18.3090 C   0  0  0  0  0  3  0  0  0  0  0  0
  -23.8730  -29.2350   19.4430 C   0  0  0  0  0  2  0  0  0  0  0  0
  -24.8710  -30.2440   21.5390 N   0  0  0  0  0  0  0  0  0  0  0  0
  -23.7140  -30.8020   23.4070 O   0  0  0  0  0  0  0  0  0  0  0  0
  -23.2270  -28.3110   21.6900 C   0  0  0  0  0  0  0  0  0  0  0  0
  -21.9470  -27.9360   21.5340 N   0  0  0  0  0  0  0  0  0  0  0  0
  -24.0310  -27.6660   22.3700 O   0  0  0  0  0  0  0  0  0  0  0  0
  -21.3500  -28.5180   20.9650 H   0  0  0  0  0  0  0  0  0  0  0  0
  -18.8540  -26.0840   21.7610 C   0  0  0  0  0  0  0  0  0  0  0  0
  -21.3240  -26.7510   22.1200 C   0  0  0  0  0  3  0  0  0  0  0  0
  -21.6760  -25.4790   21.3130 C   0  0  0  0  0  2  0  0  0  0  0  0
  -20.6390  -25.1400   20.2380 C   0  0  0  0  0  2  0  0  0  0  0  0
  -19.2620  -24.9230   20.8710 C   0  0  0  0  0  2  0  0  0  0  0  0
  -19.8200  -26.9500   22.3360 C   0  0  0  0  0  0  0  0  0  0  0  0
  -19.3840  -28.0330   23.1270 C   0  0  0  0  0  3  0  0  0  0  0  0
  -18.0100  -28.2540   23.3520 C   0  0  0  0  0  3  0  0  0  0  0  0
  -17.0590  -27.3820   22.7950 C   0  0  0  0  0  3  0  0  0  0  0  0
  -17.4810  -26.2990   22.0050 C   0  0  0  0  0  3  0  0  0  0  0  0
  -26.0160  -31.4650   23.4680 C   0  0  0  0  0  3  0  0  0  0  0  0
  -25.5640  -32.7510   24.0150 N   0  0  0  0  0  0  0  0  0  0  0  0
  -25.7710  -33.9380   23.4310 C   0  0  0  0  0  0  0  0  0  0  0  0
  -26.4340  -34.0710   22.3990 O   0  0  0  0  0  0  0  0  0  0  0  0
  -24.9580  -32.7160   24.8210 H   0  0  0  0  0  0  0  0  0  0  0  0
  -23.8570  -35.5710   23.3650 C   0  0  0  0  0  1  0  0  0  0  0  0
  -25.1450  -35.1750   24.1030 C   0  0  0  0  0  3  0  0  0  0  0  0
  -27.1840  -36.1400   25.0720 C   0  0  0  0  0  1  0  0  0  0  0  0
  -26.0580  -36.3340   24.1630 N   0  0  0  0  0  0  0  0  0  0  0  0
  -25.5580  -37.1690   24.4550 H   0  0  0  0  0  0  0  0  0  0  0  0
  -26.6710  -30.5750   24.5940 C   0  0  1  0  0  0  0  0  0  0  0  0
  -25.6590  -30.0500   25.6390 C   0  0  0  0  0  1  0  0  0  0  0  0
  -27.3940  -29.3500   23.9830 C   0  0  0  0  0  1  0  0  0  0  0  0
  -27.7550  -31.3900   25.3380 C   0  0  0  0  0  1  0  0  0  0  0  0
  2  6  1  0
  4  1  1  0
  4  3  1  0
  5  2  1  0
  5  7  1  0
  5  4  1  0
  6 10  1  0
  6  1  1  0
  7  8  1  1
  7  3  1  0
  9 10  1  0
 10 12  1  0
 10 11  1  6
 13 12  1  0
 14 22  1  0
 15 20  1  0
 16 17  1  0
 16 15  1  0
 18 17  1  0
 18 27  1  0
 18 19  1  0
 20 14  1  0
 20 19  1  0
 21 14  2  0
 22 23  1  0
 22 13  1  0
 24 25  2  0
 25 44  1  0
 26 25  1  0
 26 29  1  0
 27 28  1  0
 27 24  1  0
 28 26  2  0
 29 30  1  0
 30 31  2  0
 32 35  1  0
 32 31  1  0
 33 32  2  0
 34 33  1  0
 34 29  2  0
 35 36  1  0
 36 37  1  0
 37 38  2  0
 39 38  1  0
 39 43  1  0
 40 39  2  0
 41 36  2  0
 41 40  1  0
 42 41  1  0
 44 45  1  0
 45 48  1  0
 45 47  1  0
 46 44  2  0
 49 24  1  0
 49 50  1  0
 51 49  1  0
 52  7  1  0
 53 52  1  0
 54 53  1  0
 55 57  1  0
 55 54  1  0
 56 67  2  0
 57 62  1  0
 58 66  1  0
 58 68  1  0
 59 65  1  0
 59 61  1  0
 60 66  1  0
 61 60  1  0
 62 61  2  0
 63 64  1  0
 63 57  2  0
 64 59  2  0
 65 58  1  0
 66 56  1  0
 68 70  2  0
 69 68  1  0
 71 69  1  0
 72 81  2  0
 72 77  1  0
 73 69  1  0
 73 77  1  0
 74 73  1  0
 75 76  1  0
 75 74  1  0
 76 72  1  0
 77 78  2  0
 78 79  1  0
 80 79  2  0
 81 80  1  0
 82 56  1  0
 82 83  1  0
 82 92  1  0
 83 86  1  0
 84 83  1  0
 84 88  1  0
 85 84  2  0
 88 87  1  0
 88 90  1  0
 90 91  1  0
 90 89  1  0
 92 95  1  1
 92 93  1  0
 94 92  1  0
M  ISO  4  14 100  22 100  54 101  55 101
M  END
>  <TORSDO>  (95) 
F 22

>  <SCORE>  (95) 
-8.411

>  <name>  (95) 
95

>  <ligand_id>  (95) 
95

>  <original_smiles>  (95) 
[H]c1c([H])c([H])c2c(c1[H])C([H])([H])C([H])([H])C([H])([H])C2([H])N([H])C(=O)C1([H])N(C(=O)C([H])(N([H])C(=O)C([H])(N([H])C([H])([H])[H])C([H])([H])[H])C(C([H])([H])[H])(C([H])([H])[H])C([H])([H])[H])C([H])([H])c2c([H])c(OC([H])([H])C([H])([H])C([H])([H])[N+]3([H])C([H])([H])C4([H])C([H])([H])C([H])([N+]([H])(C([H])([H])[H])C([H])([H])C([H])([H])N([H])C(=O)N5C([H])([H])C([H])([H])C([H])([H])C([H])(n6nc(-c7c([H])c([H])c(Oc8c([H])c([H])c(F)c([H])c8F)c([H])c7[H])c(C(=O)N([H])[H])c6N([H])[H])C5([H])[H])C([H])([H])C43[H])c([H])c([H])c2C1([H])[H]

>  <smiles>  (95) 
[H]c1c([H])c([H])c2c(c1[H])C([H])([H])C([H])([H])C([H])([H])C2([H])N([H])C(=O)C1([H])N(C(=O)C([H])(N([H])C(=O)C([H])(N([H])C([H])([H])[H])C([H])([H])[H])C(C([H])([H])[H])(C([H])([H])[H])C([H])([H])[H])C([H])([H])c2c([H])c(OC([H])([H])C([H])([H])C([H])([H])[N+]3([H])C([H])([H])C4([H])C([H])([H])C([H])([N+]([H])(C([H])([H])[H])C([H])([H])C([H])([H])N([H])C(=O)N5C([H])([H])C([H])([H])C([H])([H])C([H])(n6nc(-c7c([H])c([H])c(Oc8c([H])c([H])c(F)c([H])c8F)c([H])c7[H])c(C(=O)N([H])[H])c6N([H])[H])C5([H])[H])C([H])([H])C43[H])c([H])c([H])c2C1([H])[H]

$$$$
96:0:0
     RDKit          3D

 90 99  0  0  1  0  0  0  0  0999 V2000
  -31.1390  -20.8610   19.4660 C   0  0  0  0  0  2  0  0  0  0  0  0
  -31.1300  -20.8990   21.0030 C   0  0  0  0  0  2  0  0  0  0  0  0
  -29.3950  -19.0130   19.0860 C   0  0  0  0  0  2  0  0  0  0  0  0
  -29.3860  -19.0520   21.4320 C   0  0  0  0  0  2  0  0  0  0  0  0
  -29.9530  -18.0660   20.2790 C   0  0  0  0  0  3  0  0  0  0  0  0
  -29.6480  -20.6620   19.1320 C   0  0  0  0  0  3  0  0  0  0  0  0
  -29.6380  -20.6920   21.3300 C   0  0  0  0  0  3  0  0  0  0  0  0
  -28.9430  -21.5010   20.2180 N   0  0  1  0  0  4  0  0  0  0  0  0
  -27.9540  -21.2960   20.2250 H   0  0  0  0  0  0  0  0  0  0  0  0
  -30.4880  -15.2180   20.1640 C   0  0  0  0  0  0  0  0  0  0  0  0
  -30.4080  -12.8220   19.2380 C   0  0  0  0  0  2  0  0  0  0  0  0
  -29.4500  -12.6900   18.0290 C   0  0  0  0  0  2  0  0  0  0  0  0
  -28.0070  -12.4370   18.5010 C   0  0  0  0  0  2  0  0  0  0  0  0
  -27.6000  -13.3710   19.6700 C   0  0  0  0  0  3  0  0  0  0  0  0
  -28.6800  -13.4560   20.7680 C   0  0  0  0  0  2  0  0  0  0  0  0
  -29.9110  -13.9320   20.1180 N   0  0  0  0  0  0  0  0  0  0  0  0
  -31.6910  -15.2550   19.8840 O   0  0  0  0  0  0  0  0  0  0  0  0
  -29.7130  -16.4430   20.3240 N   0  0  0  0  0  0  0  0  0  0  0  0
  -28.7460  -16.2140   20.5060 H   0  0  0  0  0  0  0  0  0  0  0  0
  -25.2430  -13.9130   20.4880 C   0  0  0  0  0  0  0  0  0  0  0  0
  -24.1940  -13.1260   20.8730 C   0  0  0  0  0  0  0  0  0  0  0  0
  -24.6650  -11.7790   20.8090 C   0  0  0  0  0  0  0  0  0  0  0  0
  -26.2830  -13.0470   20.2050 N   0  0  0  0  0  0  0  0  0  0  0  0
  -25.9490  -11.7550   20.4640 N   0  0  0  0  0  0  0  0  0  0  0  0
  -23.9490  -10.5100   20.9960 C   0  0  0  0  0  0  0  0  0  0  0  0
  -24.3820   -9.5460   21.9330 C   0  0  0  0  0  3  0  0  0  0  0  0
  -23.6630   -8.3450   22.1090 C   0  0  0  0  0  3  0  0  0  0  0  0
  -22.4960   -8.0980   21.3480 C   0  0  0  0  0  0  0  0  0  0  0  0
  -22.0820   -9.0500   20.4000 C   0  0  0  0  0  3  0  0  0  0  0  0
  -22.8010  -10.2430   20.2220 C   0  0  0  0  0  3  0  0  0  0  0  0
  -21.7480   -6.9480   21.4340 O   0  0  0  0  0  0  0  0  0  0  0  0
  -21.6660   -6.2280   22.5980 C   0  0  0  0  0  0  0  0  0  0  0  0
  -21.1560   -6.7910   23.7890 C   0  0  0  0  0  3  0  0  0  0  0  0
  -21.0250   -5.9950   24.9440 C   0  0  0  0  0  3  0  0  0  0  0  0
  -21.3940   -4.6360   24.9090 C   0  0  0  0  0  0  0  0  0  0  0  0
  -21.8940   -4.0720   23.7230 C   0  0  0  0  0  3  0  0  0  0  0  0
  -22.0280   -4.8660   22.5700 C   0  0  0  0  0  0  0  0  0  0  0  0
  -22.4910   -4.3130   21.4240 F   0  0  0  0  0  0  0  0  0  0  0  0
  -21.2590   -3.8680   26.0160 F   0  0  0  0  0  0  0  0  0  0  0  0
  -22.8010  -13.5920   21.1830 C   0  0  0  0  0  0  0  0  0  0  0  0
  -22.0970  -12.8830   22.0570 N   0  0  0  0  0  0  0  0  0  0  0  0
  -22.3470  -14.6220   20.6860 O   0  0  0  0  0  0  0  0  0  0  0  0
  -22.4770  -12.0480   22.4790 H   0  0  0  0  0  0  0  0  0  0  0  0
  -21.1650  -13.1780   22.3080 H   0  0  0  0  0  0  0  0  0  0  0  0
  -25.3910  -15.2870   20.3280 N   0  0  0  0  0  0  0  0  0  0  0  0
  -24.6160  -15.9280   20.4620 H   0  0  0  0  0  0  0  0  0  0  0  0
  -26.2130  -15.7380   19.9480 H   0  0  0  0  0  0  0  0  0  0  0  0
  -29.1420  -23.1460   20.2460 C   0  0  0  0  0  3  0  0  0  0  0  0
  -28.0190  -24.4750   20.0370 C   0  0  0  0  0  3  0  0  0  0  0  0
  -28.2380  -26.0690   20.1960 O   0  0  0  0  0  0  0  0  0  0  0  0
  -24.6300  -31.8740   23.2310 C   0  0  0  0  0  0  0  0  0  0  0  0
  -27.1940  -27.1060   20.1490 C   0  0  0  0  0  0  0  0  0  0  0  0
  -23.4310  -30.4980   21.5760 C   0  0  0  0  0  3  0  0  0  0  0  0
  -24.8770  -28.9230   20.1320 C   0  0  0  0  0  0  0  0  0  0  0  0
  -25.9910  -30.7380   21.4190 C   0  0  0  0  0  2  0  0  0  0  0  0
  -26.0630  -29.3430   20.7470 C   0  0  0  0  0  0  0  0  0  0  0  0
  -27.2200  -28.4560   20.7310 C   0  0  0  0  0  3  0  0  0  0  0  0
  -25.9760  -26.8130   19.4950 C   0  0  0  0  0  3  0  0  0  0  0  0
  -24.8530  -27.6760   19.4870 C   0  0  0  0  0  3  0  0  0  0  0  0
  -23.6540  -29.8330   20.1910 C   0  0  0  0  0  2  0  0  0  0  0  0
  -24.7050  -31.0610   22.1290 N   0  0  0  0  0  0  0  0  0  0  0  0
  -23.5420  -32.1530   23.7620 O   0  0  0  0  0  0  0  0  0  0  0  0
  -22.7430  -29.4860   22.5300 C   0  0  0  0  0  0  0  0  0  0  0  0
  -21.4140  -29.3200   22.4030 N   0  0  0  0  0  0  0  0  0  0  0  0
  -23.4120  -28.8530   23.3500 O   0  0  0  0  0  0  0  0  0  0  0  0
  -20.9280  -29.8820   21.7180 H   0  0  0  0  0  0  0  0  0  0  0  0
  -18.0300  -28.1180   22.9080 C   0  0  0  0  0  0  0  0  0  0  0  0
  -20.5920  -28.3740   23.1640 C   0  0  0  0  0  3  0  0  0  0  0  0
  -20.6890  -26.9500   22.5700 C   0  0  0  0  0  2  0  0  0  0  0  0
  -19.5810  -26.6440   21.5560 C   0  0  0  0  0  2  0  0  0  0  0  0
  -18.2020  -26.7800   22.2080 C   0  0  0  0  0  2  0  0  0  0  0  0
  -19.1520  -28.8740   23.3420 C   0  0  0  0  0  0  0  0  0  0  0  0
  -18.9340  -30.1250   23.9590 C   0  0  0  0  0  3  0  0  0  0  0  0
  -17.6300  -30.6220   24.1430 C   0  0  0  0  0  3  0  0  0  0  0  0
  -16.5230  -29.8630   23.7220 C   0  0  0  0  0  3  0  0  0  0  0  0
  -16.7240  -28.6130   23.1110 C   0  0  0  0  0  3  0  0  0  0  0  0
  -25.9040  -32.5050   23.8690 C   0  0  0  0  0  3  0  0  0  0  0  0
  -25.5940  -33.9040   24.2100 N   0  0  0  0  0  0  0  0  0  0  0  0
  -25.8940  -34.9630   23.4460 C   0  0  0  0  0  0  0  0  0  0  0  0
  -26.5250  -34.8660   22.3900 O   0  0  0  0  0  0  0  0  0  0  0  0
  -25.0320  -34.0530   25.0350 H   0  0  0  0  0  0  0  0  0  0  0  0
  -24.1270  -36.7380   23.1900 C   0  0  0  0  0  1  0  0  0  0  0  0
  -25.4190  -36.3490   23.9280 C   0  0  0  0  0  3  0  0  0  0  0  0
  -27.5830  -37.2680   24.6360 C   0  0  0  0  0  1  0  0  0  0  0  0
  -26.4310  -37.4150   23.7510 N   0  0  0  0  0  0  0  0  0  0  0  0
  -26.0210  -38.3310   23.9140 H   0  0  0  0  0  0  0  0  0  0  0  0
  -26.4050  -31.7320   25.1510 C   0  0  1  0  0  0  0  0  0  0  0  0
  -25.3000  -31.4990   26.2080 C   0  0  0  0  0  1  0  0  0  0  0  0
  -26.9870  -30.3520   24.7680 C   0  0  0  0  0  1  0  0  0  0  0  0
  -27.5530  -32.5200   25.8240 C   0  0  0  0  0  1  0  0  0  0  0  0
  1  2  1  0
  3  5  1  0
  5 18  1  0
  5  4  1  0
  6  3  1  0
  6  1  1  0
  6  8  1  0
  7  2  1  0
  7  4  1  0
  8  9  1  1
  8 48  1  0
  8  7  1  0
 10 18  1  0
 11 16  1  0
 12 13  1  0
 12 11  1  0
 14 13  1  0
 14 23  1  0
 14 15  1  0
 16 10  1  0
 16 15  1  0
 17 10  2  0
 18 19  1  0
 20 21  2  0
 21 40  1  0
 22 21  1  0
 22 25  1  0
 23 24  1  0
 23 20  1  0
 24 22  2  0
 25 26  1  0
 26 27  2  0
 28 31  1  0
 28 27  1  0
 29 28  2  0
 30 29  1  0
 30 25  2  0
 31 32  1  0
 32 33  1  0
 33 34  2  0
 35 34  1  0
 35 39  1  0
 36 35  2  0
 37 32  2  0
 37 36  1  0
 38 37  1  0
 40 41  1  0
 41 44  1  0
 41 43  1  0
 42 40  2  0
 45 46  1  0
 45 20  1  0
 47 45  1  0
 49 50  1  0
 49 48  2  0
 51 62  2  0
 52 50  1  0
 52 57  1  0
 53 61  1  0
 53 63  1  0
 54 60  1  0
 54 56  1  0
 55 61  1  0
 56 55  1  0
 57 56  2  0
 58 52  2  0
 59 58  1  0
 59 54  2  0
 60 53  1  0
 61 51  1  0
 63 65  2  0
 64 63  1  0
 66 64  1  0
 67 76  2  0
 67 72  1  0
 68 64  1  0
 68 72  1  0
 69 68  1  0
 70 71  1  0
 70 69  1  0
 71 67  1  0
 72 73  2  0
 73 74  1  0
 75 74  2  0
 76 75  1  0
 77 51  1  0
 77 78  1  0
 77 87  1  0
 78 81  1  0
 79 83  1  0
 79 78  1  0
 80 79  2  0
 83 82  1  0
 85 86  1  0
 85 83  1  0
 85 84  1  0
 87 90  1  1
 87 88  1  0
 89 87  1  0
M  ISO  4  10 100  18 100  49 101  50 101
M  END
>  <TORSDO>  (96) 
F 18

>  <SCORE>  (96) 
-15.001

>  <name>  (96) 
96

>  <ligand_id>  (96) 
96

>  <original_smiles>  (96) 
[H]c1c([H])c([H])c2c(c1[H])C([H])([H])C([H])([H])C([H])([H])C2([H])N([H])C(=O)C1([H])N(C(=O)C([H])(N([H])C(=O)C([H])(N([H])C([H])([H])[H])C([H])([H])[H])C(C([H])([H])[H])(C([H])([H])[H])C([H])([H])[H])C([H])([H])c2c([H])c(OC([H])([H])C([H])([H])[N+]3([H])C4([H])C([H])([H])C([H])([H])C3([H])C([H])([H])C([H])(N([H])C(=O)N3C([H])([H])C([H])([H])C([H])([H])C([H])(n5nc(-c6c([H])c([H])c(Oc7c([H])c([H])c(F)c([H])c7F)c([H])c6[H])c(C(=O)N([H])[H])c5N([H])[H])C3([H])[H])C4([H])[H])c([H])c([H])c2C1([H])[H]

>  <smiles>  (96) 
[H]c1c([H])c([H])c2c(c1[H])C([H])([H])C([H])([H])C([H])([H])C2([H])N([H])C(=O)C1([H])N(C(=O)C([H])(N([H])C(=O)C([H])(N([H])C([H])([H])[H])C([H])([H])[H])C(C([H])([H])[H])(C([H])([H])[H])C([H])([H])[H])C([H])([H])c2c([H])c(OC([H])([H])C([H])([H])[N+]3([H])C4([H])C([H])([H])C([H])([H])C3([H])C([H])([H])C([H])(N([H])C(=O)N3C([H])([H])C([H])([H])C([H])([H])C([H])(n5nc(-c6c([H])c([H])c(Oc7c([H])c([H])c(F)c([H])c7F)c([H])c6[H])c(C(=O)N([H])[H])c5N([H])[H])C3([H])[H])C4([H])[H])c([H])c([H])c2C1([H])[H]

$$$$
97:0:0
     RDKit          3D

 94103  0  0  1  0  0  0  0  0999 V2000
  -29.0760  -22.0380   19.6690 C   0  0  0  0  0  2  0  0  0  0  0  0
  -29.3430  -23.5030   19.7690 N   0  0  0  0  0  4  0  0  0  0  0  0
  -30.2190  -23.6900   19.3040 H   0  0  0  0  0  0  0  0  0  0  0  0
  -29.4790  -23.7400   20.7410 H   0  0  0  0  0  0  0  0  0  0  0  0
  -27.7590  -23.9200   17.8410 C   0  0  0  0  0  1  0  0  0  0  0  0
  -28.2880  -24.4110   19.2110 C   0  0  0  0  0  3  0  0  0  0  0  0
  -28.7780  -25.8880   19.0820 C   0  0  0  0  0  2  0  0  0  0  0  0
  -28.4580  -26.7430   20.1870 O   0  0  0  0  0  0  0  0  0  0  0  0
  -24.5890  -31.8920   23.2310 C   0  0  0  0  0  0  0  0  0  0  0  0
  -27.2660  -27.4460   20.1640 C   0  0  0  0  0  0  0  0  0  0  0  0
  -23.3940  -30.4770   21.5930 C   0  0  0  0  0  3  0  0  0  0  0  0
  -24.8580  -28.9380   20.1790 C   0  0  0  0  0  0  0  0  0  0  0  0
  -25.9200  -30.8400   21.4050 C   0  0  0  0  0  2  0  0  0  0  0  0
  -26.0100  -29.4650   20.7750 C   0  0  0  0  0  0  0  0  0  0  0  0
  -27.2110  -28.7190   20.7780 C   0  0  0  0  0  3  0  0  0  0  0  0
  -26.0890  -26.9320   19.5700 C   0  0  0  0  0  3  0  0  0  0  0  0
  -24.8910  -27.6670   19.5810 C   0  0  0  0  0  3  0  0  0  0  0  0
  -23.6120  -29.7930   20.2160 C   0  0  0  0  0  2  0  0  0  0  0  0
  -24.6520  -31.0850   22.1340 N   0  0  0  0  0  0  0  0  0  0  0  0
  -23.5050  -32.1610   23.7670 O   0  0  0  0  0  0  0  0  0  0  0  0
  -22.7440  -29.4570   22.5540 C   0  0  0  0  0  0  0  0  0  0  0  0
  -21.4210  -29.2680   22.4220 N   0  0  0  0  0  0  0  0  0  0  0  0
  -23.4280  -28.8380   23.3740 O   0  0  0  0  0  0  0  0  0  0  0  0
  -20.9310  -29.8190   21.7310 H   0  0  0  0  0  0  0  0  0  0  0  0
  -18.0480  -28.0710   22.9180 C   0  0  0  0  0  0  0  0  0  0  0  0
  -20.6030  -28.3310   23.1940 C   0  0  0  0  0  3  0  0  0  0  0  0
  -20.7100  -26.9000   22.6200 C   0  0  0  0  0  2  0  0  0  0  0  0
  -19.6100  -26.5740   21.6050 C   0  0  0  0  0  2  0  0  0  0  0  0
  -18.2270  -26.7200   22.2460 C   0  0  0  0  0  2  0  0  0  0  0  0
  -19.1650  -28.8350   23.3490 C   0  0  0  0  0  0  0  0  0  0  0  0
  -18.9450  -30.1000   23.9350 C   0  0  0  0  0  3  0  0  0  0  0  0
  -17.6390  -30.6020   24.0950 C   0  0  0  0  0  3  0  0  0  0  0  0
  -16.5360  -29.8350   23.6820 C   0  0  0  0  0  3  0  0  0  0  0  0
  -16.7410  -28.5720   23.0990 C   0  0  0  0  0  3  0  0  0  0  0  0
  -25.8710  -32.5310   23.8520 C   0  0  0  0  0  3  0  0  0  0  0  0
  -25.5540  -33.9260   24.1810 N   0  0  0  0  0  0  0  0  0  0  0  0
  -25.8790  -34.9790   23.4200 C   0  0  0  0  0  0  0  0  0  0  0  0
  -26.5490  -34.8790   22.3880 O   0  0  0  0  0  0  0  0  0  0  0  0
  -24.9590  -34.0790   24.9820 H   0  0  0  0  0  0  0  0  0  0  0  0
  -24.1420  -36.7620   23.0570 C   0  0  0  0  0  1  0  0  0  0  0  0
  -25.3810  -36.3650   23.8750 C   0  0  0  0  0  3  0  0  0  0  0  0
  -27.5060  -37.2620   24.7180 C   0  0  0  0  0  1  0  0  0  0  0  0
  -26.4080  -37.4240   23.7680 N   0  0  0  0  0  0  0  0  0  0  0  0
  -25.9960  -38.3420   23.9140 H   0  0  0  0  0  0  0  0  0  0  0  0
  -26.3950  -31.7630   25.1260 C   0  0  1  0  0  0  0  0  0  0  0  0
  -25.3060  -31.5140   26.1940 C   0  0  0  0  0  1  0  0  0  0  0  0
  -26.9920  -30.3930   24.7300 C   0  0  0  0  0  1  0  0  0  0  0  0
  -27.5390  -32.5670   25.7880 C   0  0  0  0  0  1  0  0  0  0  0  0
  -30.1660  -21.1520   20.3160 C   0  0  0  0  0  2  0  0  0  0  0  0
  -30.7440  -18.8900   19.2220 C   0  0  0  0  0  2  0  0  0  0  0  0
  -29.9930  -19.6660   20.0060 C   0  0  0  0  0  3  0  0  0  0  0  0
  -28.6610  -17.8570   19.3810 C   0  0  0  0  0  2  0  0  0  0  0  0
  -29.5380  -17.7580   21.5530 C   0  0  0  0  0  2  0  0  0  0  0  0
  -30.1460  -17.4950   19.2350 C   0  0  0  0  0  3  0  0  0  0  0  0
  -28.8950  -18.7840   20.5780 C   0  0  0  0  0  3  0  0  0  0  0  0
  -30.4300  -16.8650   20.6280 C   0  0  0  0  0  3  0  0  0  0  0  0
  -30.7430  -14.4340   20.1080 C   0  0  0  0  0  0  0  0  0  0  0  0
  -30.3650  -12.3070   18.9270 C   0  0  0  0  0  2  0  0  0  0  0  0
  -29.3610  -12.5610   17.7840 C   0  0  0  0  0  2  0  0  0  0  0  0
  -27.9110  -12.4240   18.2910 C   0  0  0  0  0  2  0  0  0  0  0  0
  -27.6540  -13.2300   19.5930 C   0  0  0  0  0  3  0  0  0  0  0  0
  -28.7660  -12.9640   20.6330 C   0  0  0  0  0  2  0  0  0  0  0  0
  -30.0610  -13.2640   20.0010 N   0  0  0  0  0  0  0  0  0  0  0  0
  -31.8390  -14.6260   19.5760 O   0  0  0  0  0  0  0  0  0  0  0  0
  -30.0620  -15.4420   20.6820 N   0  0  0  0  0  0  0  0  0  0  0  0
  -29.1700  -15.2070   21.0890 H   0  0  0  0  0  0  0  0  0  0  0  0
  -25.3030  -13.8470   20.4450 C   0  0  0  0  0  0  0  0  0  0  0  0
  -24.2490  -13.0770   20.8570 C   0  0  0  0  0  0  0  0  0  0  0  0
  -24.6910  -11.7220   20.7700 C   0  0  0  0  0  0  0  0  0  0  0  0
  -26.3250  -12.9600   20.1380 N   0  0  0  0  0  0  0  0  0  0  0  0
  -25.9620  -11.6770   20.3880 N   0  0  0  0  0  0  0  0  0  0  0  0
  -23.9620  -10.4630   20.9710 C   0  0  0  0  0  0  0  0  0  0  0  0
  -24.4110   -9.4900   21.8920 C   0  0  0  0  0  3  0  0  0  0  0  0
  -23.6840   -8.2950   22.0810 C   0  0  0  0  0  3  0  0  0  0  0  0
  -22.4940   -8.0640   21.3480 C   0  0  0  0  0  0  0  0  0  0  0  0
  -22.0660   -9.0250   20.4160 C   0  0  0  0  0  3  0  0  0  0  0  0
  -22.7940  -10.2130   20.2250 C   0  0  0  0  0  3  0  0  0  0  0  0
  -21.7370   -6.9220   21.4480 O   0  0  0  0  0  0  0  0  0  0  0  0
  -21.6710   -6.2000   22.6130 C   0  0  0  0  0  0  0  0  0  0  0  0
  -21.2150   -6.7740   23.8190 C   0  0  0  0  0  3  0  0  0  0  0  0
  -21.0980   -5.9790   24.9770 C   0  0  0  0  0  3  0  0  0  0  0  0
  -21.4260   -4.6100   24.9280 C   0  0  0  0  0  0  0  0  0  0  0  0
  -21.8750   -4.0360   23.7250 C   0  0  0  0  0  3  0  0  0  0  0  0
  -21.9940   -4.8290   22.5710 C   0  0  0  0  0  0  0  0  0  0  0  0
  -22.4070   -4.2650   21.4100 F   0  0  0  0  0  0  0  0  0  0  0  0
  -21.3060   -3.8440   26.0380 F   0  0  0  0  0  0  0  0  0  0  0  0
  -22.8730  -13.5630   21.2170 C   0  0  0  0  0  0  0  0  0  0  0  0
  -22.1870  -12.8540   22.1070 N   0  0  0  0  0  0  0  0  0  0  0  0
  -22.4180  -14.6040   20.7450 O   0  0  0  0  0  0  0  0  0  0  0  0
  -22.5680  -12.0120   22.5130 H   0  0  0  0  0  0  0  0  0  0  0  0
  -21.2660  -13.1610   22.3880 H   0  0  0  0  0  0  0  0  0  0  0  0
  -25.4730  -15.2190   20.2870 N   0  0  0  0  0  0  0  0  0  0  0  0
  -24.7180  -15.8780   20.4400 H   0  0  0  0  0  0  0  0  0  0  0  0
  -26.3030  -15.6500   19.9010 H   0  0  0  0  0  0  0  0  0  0  0  0
  1  2  1  0
  1 49  1  0
  2  4  1  0
  3  2  1  0
  6  5  1  0
  6  2  1  0
  7  6  1  0
  7  8  1  0
  9 20  2  0
 10  8  1  0
 10 15  1  0
 11 19  1  0
 11 21  1  0
 12 18  1  0
 12 14  1  0
 13 19  1  0
 14 15  2  0
 14 13  1  0
 16 17  1  0
 16 10  2  0
 17 12  2  0
 18 11  1  0
 19  9  1  0
 21 23  2  0
 22 21  1  0
 24 22  1  0
 25 34  2  0
 25 30  1  0
 26 22  1  0
 26 30  1  0
 27 26  1  0
 28 29  1  0
 28 27  1  0
 29 25  1  0
 30 31  2  0
 31 32  1  0
 33 32  2  0
 34 33  1  0
 35  9  1  0
 35 36  1  0
 35 45  1  0
 36 39  1  0
 37 41  1  0
 37 36  1  0
 38 37  2  0
 41 40  1  0
 43 41  1  0
 43 44  1  0
 43 42  1  0
 45 48  1  1
 45 46  1  0
 47 45  1  0
 50 51  1  0
 51 49  1  0
 51 55  1  0
 54 50  1  0
 54 52  1  0
 54 56  1  0
 55 52  1  0
 55 53  1  0
 56 65  1  0
 56 53  1  0
 57 65  1  0
 58 63  1  0
 59 60  1  0
 59 58  1  0
 61 60  1  0
 61 70  1  0
 61 62  1  0
 63 57  1  0
 63 62  1  0
 64 57  2  0
 65 66  1  0
 67 68  2  0
 68 87  1  0
 69 68  1  0
 69 72  1  0
 70 71  1  0
 70 67  1  0
 71 69  2  0
 72 73  1  0
 73 74  2  0
 75 78  1  0
 75 74  1  0
 76 75  2  0
 77 76  1  0
 77 72  2  0
 78 79  1  0
 79 80  1  0
 80 81  2  0
 82 81  1  0
 82 86  1  0
 83 82  2  0
 84 79  2  0
 84 83  1  0
 85 84  1  0
 87 88  1  0
 88 91  1  0
 88 90  1  0
 89 87  2  0
 92 93  1  0
 92 67  1  0
 94 92  1  0
M  ISO  4   7 101   8 101  57 100  65 100
M  END
>  <TORSDO>  (97) 
F 21

>  <SCORE>  (97) 
-13.246

>  <name>  (97) 
97

>  <ligand_id>  (97) 
97

>  <original_smiles>  (97) 
[H]C1=C(C([H])([H])C([H])([H])[N+]([H])([H])C([H])(C([H])([H])[H])C([H])([H])Oc2c([H])c([H])c3c(c2[H])C([H])([H])N(C(=O)C([H])(N([H])C(=O)C([H])(N([H])C([H])([H])[H])C([H])([H])[H])C(C([H])([H])[H])(C([H])([H])[H])C([H])([H])[H])C([H])(C(=O)N([H])C2([H])c4c([H])c([H])c([H])c([H])c4C([H])([H])C([H])([H])C2([H])[H])C3([H])[H])C2([H])C([H])([H])C1([H])C([H])(N([H])C(=O)N1C([H])([H])C([H])([H])C([H])([H])C([H])(n3nc(-c4c([H])c([H])c(Oc5c([H])c([H])c(F)c([H])c5F)c([H])c4[H])c(C(=O)N([H])[H])c3N([H])[H])C1([H])[H])C2([H])[H]

>  <smiles>  (97) 
[H]C1=C(C([H])([H])C([H])([H])[N+]([H])([H])C([H])(C([H])([H])[H])C([H])([H])Oc2c([H])c([H])c3c(c2[H])C([H])([H])N(C(=O)C([H])(N([H])C(=O)C([H])(N([H])C([H])([H])[H])C([H])([H])[H])C(C([H])([H])[H])(C([H])([H])[H])C([H])([H])[H])C([H])(C(=O)N([H])C2([H])c4c([H])c([H])c([H])c([H])c4C([H])([H])C([H])([H])C2([H])[H])C3([H])[H])C2([H])C([H])([H])C1([H])C([H])(N([H])C(=O)N1C([H])([H])C([H])([H])C([H])([H])C([H])(n3nc(-c4c([H])c([H])c(Oc5c([H])c([H])c(F)c([H])c5F)c([H])c4[H])c(C(=O)N([H])[H])c3N([H])[H])C1([H])[H])C2([H])[H]

$$$$
98:0:0
     RDKit          3D

 93102  0  0  1  0  0  0  0  0999 V2000
  -28.7400  -22.6880   20.3190 C   0  0  0  0  0  0  0  0  0  0  0  0
  -29.3070  -19.8330   19.5490 C   0  0  0  0  0  0  0  0  0  0  0  0
  -29.5500  -21.2840   19.8140 N   0  0  0  0  0  4  0  0  0  0  0  0
  -28.1460  -19.5540   19.2510 O   0  0  0  0  0  0  0  0  0  0  0  0
  -30.5460  -21.4270   19.9210 H   0  0  0  0  0  0  0  0  0  0  0  0
  -30.7820  -15.4510   19.3390 C   0  0  0  0  0  0  0  0  0  0  0  0
  -30.5970  -12.9930   18.4790 C   0  0  0  0  0  2  0  0  0  0  0  0
  -29.5120  -12.7940   17.3920 C   0  0  0  0  0  2  0  0  0  0  0  0
  -28.1420  -12.5250   18.0380 C   0  0  0  0  0  2  0  0  0  0  0  0
  -27.8640  -13.4910   19.2170 C   0  0  0  0  0  3  0  0  0  0  0  0
  -29.0660  -13.6460   20.1780 C   0  0  0  0  0  2  0  0  0  0  0  0
  -30.1980  -14.1450   19.3780 N   0  0  0  0  0  0  0  0  0  0  0  0
  -31.8900  -15.4450   18.7830 O   0  0  0  0  0  0  0  0  0  0  0  0
  -29.3960  -17.7910   22.0610 C   0  0  0  0  0  2  0  0  0  0  0  0
  -30.3410  -18.4080   19.6790 C   0  0  0  0  0  3  0  0  0  0  0  0
  -30.4990  -18.3350   21.1920 C   0  0  0  0  0  3  0  0  0  0  0  0
  -30.2560  -16.8510   21.2420 C   0  0  0  0  0  3  0  0  0  0  0  0
  -30.1680  -16.7260   19.8140 N   0  0  0  0  0  0  0  0  0  0  0  0
  -25.7000  -14.0620   20.4350 C   0  0  0  0  0  0  0  0  0  0  0  0
  -24.6660  -13.2970   20.8960 C   0  0  0  0  0  0  0  0  0  0  0  0
  -25.0280  -11.9400   20.6360 C   0  0  0  0  0  0  0  0  0  0  0  0
  -26.6250  -13.1750   19.9170 N   0  0  0  0  0  0  0  0  0  0  0  0
  -26.2450  -11.8830   20.1010 N   0  0  0  0  0  0  0  0  0  0  0  0
  -24.2610  -10.6990   20.8130 C   0  0  0  0  0  0  0  0  0  0  0  0
  -24.7110   -9.6650   21.6630 C   0  0  0  0  0  3  0  0  0  0  0  0
  -23.9420   -8.4930   21.8360 C   0  0  0  0  0  3  0  0  0  0  0  0
  -22.7090   -8.3460   21.1580 C   0  0  0  0  0  0  0  0  0  0  0  0
  -22.2760   -9.3680   20.2960 C   0  0  0  0  0  3  0  0  0  0  0  0
  -23.0440  -10.5320   20.1210 C   0  0  0  0  0  3  0  0  0  0  0  0
  -21.9080   -7.2330   21.2430 O   0  0  0  0  0  0  0  0  0  0  0  0
  -21.8030   -6.5090   22.4030 C   0  0  0  0  0  0  0  0  0  0  0  0
  -21.3730   -7.0950   23.6120 C   0  0  0  0  0  3  0  0  0  0  0  0
  -21.2150   -6.2990   24.7640 C   0  0  0  0  0  3  0  0  0  0  0  0
  -21.4770   -4.9160   24.7060 C   0  0  0  0  0  0  0  0  0  0  0  0
  -21.9000   -4.3300   23.5010 C   0  0  0  0  0  3  0  0  0  0  0  0
  -22.0600   -5.1240   22.3520 C   0  0  0  0  0  0  0  0  0  0  0  0
  -22.4490   -4.5490   21.1870 F   0  0  0  0  0  0  0  0  0  0  0  0
  -21.3170   -4.1500   25.8100 F   0  0  0  0  0  0  0  0  0  0  0  0
  -23.3690  -13.8050   21.4560 C   0  0  0  0  0  0  0  0  0  0  0  0
  -22.7690  -13.0640   22.3810 N   0  0  0  0  0  0  0  0  0  0  0  0
  -22.9070  -14.8900   21.1090 O   0  0  0  0  0  0  0  0  0  0  0  0
  -23.1590  -12.1840   22.6810 H   0  0  0  0  0  0  0  0  0  0  0  0
  -21.9030  -13.3830   22.7940 H   0  0  0  0  0  0  0  0  0  0  0  0
  -25.9240  -15.4340   20.3870 N   0  0  0  0  0  0  0  0  0  0  0  0
  -25.2400  -16.1090   20.7130 H   0  0  0  0  0  0  0  0  0  0  0  0
  -26.7470  -15.8690   19.9880 H   0  0  0  0  0  0  0  0  0  0  0  0
  -27.3530  -22.2870   20.8630 C   0  0  0  0  0  2  0  0  0  0  0  0
  -26.4600  -21.7950   19.8060 N   0  0  0  0  0  4  0  0  0  0  0  0
  -26.3130  -22.4860   19.0920 H   0  0  0  0  0  0  0  0  0  0  0  0
  -25.5740  -21.5180   20.1870 H   0  0  0  0  0  0  0  0  0  0  0  0
  -26.9020  -20.9820   19.3840 H   0  0  0  0  0  0  0  0  0  0  0  0
  -28.5870  -24.4040   19.7300 C   0  0  0  0  0  2  0  0  0  0  0  0
  -28.3450  -25.9140   20.3910 O   0  0  0  0  0  0  0  0  0  0  0  0
  -24.5430  -31.7930   23.1930 C   0  0  0  0  0  0  0  0  0  0  0  0
  -27.2980  -26.9710   20.2380 C   0  0  0  0  0  0  0  0  0  0  0  0
  -23.4240  -30.3680   21.5240 C   0  0  0  0  0  3  0  0  0  0  0  0
  -24.9480  -28.7960   20.1350 C   0  0  0  0  0  0  0  0  0  0  0  0
  -25.9870  -30.6390   21.4420 C   0  0  0  0  0  2  0  0  0  0  0  0
  -26.1070  -29.2310   20.7890 C   0  0  0  0  0  0  0  0  0  0  0  0
  -27.2690  -28.3360   20.8190 C   0  0  0  0  0  3  0  0  0  0  0  0
  -26.1090  -26.6930   19.5250 C   0  0  0  0  0  3  0  0  0  0  0  0
  -24.9750  -27.5490   19.4860 C   0  0  0  0  0  3  0  0  0  0  0  0
  -23.7040  -29.6860   20.1540 C   0  0  0  0  0  2  0  0  0  0  0  0
  -24.6710  -30.9620   22.1070 N   0  0  0  0  0  0  0  0  0  0  0  0
  -23.4350  -32.0550   23.6880 O   0  0  0  0  0  0  0  0  0  0  0  0
  -22.7310  -29.3580   22.4750 C   0  0  0  0  0  0  0  0  0  0  0  0
  -21.4080  -29.1620   22.3190 N   0  0  0  0  0  0  0  0  0  0  0  0
  -23.3910  -28.7480   23.3190 O   0  0  0  0  0  0  0  0  0  0  0  0
  -20.9270  -29.7040   21.6160 H   0  0  0  0  0  0  0  0  0  0  0  0
  -18.0460  -27.8620   22.7400 C   0  0  0  0  0  0  0  0  0  0  0  0
  -20.5900  -28.2040   23.0710 C   0  0  0  0  0  3  0  0  0  0  0  0
  -20.7480  -26.7720   22.5070 C   0  0  0  0  0  2  0  0  0  0  0  0
  -19.6850  -26.4140   21.4650 C   0  0  0  0  0  2  0  0  0  0  0  0
  -18.2820  -26.5170   22.0710 C   0  0  0  0  0  2  0  0  0  0  0  0
  -19.1290  -28.6590   23.1960 C   0  0  0  0  0  0  0  0  0  0  0  0
  -18.8540  -29.9120   23.7860 C   0  0  0  0  0  3  0  0  0  0  0  0
  -17.5300  -30.3700   23.9210 C   0  0  0  0  0  3  0  0  0  0  0  0
  -16.4610  -29.5700   23.4810 C   0  0  0  0  0  3  0  0  0  0  0  0
  -16.7200  -28.3170   22.8970 C   0  0  0  0  0  3  0  0  0  0  0  0
  -25.7830  -32.4680   23.8550 C   0  0  0  0  0  3  0  0  0  0  0  0
  -26.2410  -31.7520   25.1850 C   0  0  1  0  0  0  0  0  0  0  0  0
  -25.0950  -31.5310   26.2020 C   0  0  0  0  0  1  0  0  0  0  0  0
  -26.8670  -30.3720   24.8830 C   0  0  0  0  0  1  0  0  0  0  0  0
  -27.3410  -32.5880   25.8810 C   0  0  0  0  0  1  0  0  0  0  0  0
  -25.4410  -33.8750   24.1330 N   0  0  0  0  0  0  0  0  0  0  0  0
  -25.7740  -34.9150   23.3580 C   0  0  0  0  0  0  0  0  0  0  0  0
  -26.4640  -34.7920   22.3420 O   0  0  0  0  0  0  0  0  0  0  0  0
  -24.8280  -34.0410   24.9180 H   0  0  0  0  0  0  0  0  0  0  0  0
  -24.0230  -36.6770   22.9410 C   0  0  0  0  0  1  0  0  0  0  0  0
  -25.2650  -36.3110   23.7700 C   0  0  0  0  0  3  0  0  0  0  0  0
  -27.3780  -37.2570   24.5900 C   0  0  0  0  0  1  0  0  0  0  0  0
  -26.2820  -37.3770   23.6320 N   0  0  0  0  0  0  0  0  0  0  0  0
  -25.8600  -38.2940   23.7490 H   0  0  0  0  0  0  0  0  0  0  0  0
  1 47  1  0
  2  3  1  0
  3  5  1  0
  3  1  2  0
  4  2  2  0
  6 12  1  0
  6 18  1  0
  7 12  1  0
  8  9  1  0
  8  7  1  0
 10  9  1  0
 10 22  1  0
 10 11  1  0
 12 11  1  0
 13  6  2  0
 15  2  1  0
 15 18  1  0
 15 16  1  0
 16 17  1  0
 16 14  1  0
 17 14  1  0
 18 17  1  0
 19 20  2  0
 20 39  1  0
 21 24  1  0
 21 20  1  0
 22 23  1  0
 22 19  1  0
 23 21  2  0
 24 25  1  0
 25 26  2  0
 27 30  1  0
 27 26  1  0
 28 27  2  0
 29 28  1  0
 29 24  2  0
 30 31  1  0
 31 32  1  0
 32 33  2  0
 34 33  1  0
 34 38  1  0
 35 34  2  0
 36 31  2  0
 36 35  1  0
 37 36  1  0
 39 40  1  0
 40 42  1  0
 40 43  1  0
 41 39  2  0
 44 19  1  0
 44 45  1  0
 46 44  1  0
 48 50  1  0
 48 47  1  0
 49 48  1  0
 51 48  1  0
 52  1  1  0
 52 53  1  0
 54 65  2  0
 55 53  1  0
 55 60  1  0
 56 64  1  0
 56 66  1  0
 57 63  1  0
 57 59  1  0
 58 64  1  0
 59 60  2  0
 59 58  1  0
 61 55  2  0
 62 61  1  0
 62 57  2  0
 63 56  1  0
 64 54  1  0
 66 68  2  0
 67 66  1  0
 69 67  1  0
 70 79  2  0
 70 75  1  0
 71 67  1  0
 71 75  1  0
 72 71  1  0
 73 74  1  0
 73 72  1  0
 74 70  1  0
 75 76  2  0
 76 77  1  0
 78 77  2  0
 79 78  1  0
 80 54  1  0
 80 85  1  0
 80 81  1  0
 81 84  1  1
 81 82  1  0
 83 81  1  0
 85 88  1  0
 86 90  1  0
 86 85  1  0
 87 86  2  0
 90 89  1  0
 92 93  1  0
 92 90  1  0
 92 91  1  0
M  ISO  4   6 100  18 100  52 101  53 101
M  END
>  <TORSDO>  (98) 
F 20

>  <SCORE>  (98) 
-13.654

>  <name>  (98) 
98

>  <ligand_id>  (98) 
98

>  <original_smiles>  (98) 
[H]c1c([H])c([H])c2c(c1[H])C([H])([H])C([H])([H])C([H])([H])C2([H])N([H])C(=O)C1([H])N(C(=O)C([H])(N([H])C(=O)C([H])(N([H])C([H])([H])[H])C([H])([H])[H])C(C([H])([H])[H])(C([H])([H])[H])C([H])([H])[H])C([H])([H])c2c([H])c(OC([H])([H])C([H])(N([H])C(=O)C3([H])N(C(=O)N4C([H])([H])C([H])([H])C([H])([H])C([H])(n5nc(-c6c([H])c([H])c(Oc7c([H])c([H])c(F)c([H])c7F)c([H])c6[H])c(C(=O)N([H])[H])c5N([H])[H])C4([H])[H])C4([H])C([H])([H])C34[H])C([H])([H])[N+]([H])([H])[H])c([H])c([H])c2C1([H])[H]

>  <smiles>  (98) 
[H]c1c([H])c([H])c2c(c1[H])C([H])([H])C([H])([H])C([H])([H])C2([H])N([H])C(=O)C1([H])N(C(=O)C([H])(N([H])C(=O)C([H])(N([H])C([H])([H])[H])C([H])([H])[H])C(C([H])([H])[H])(C([H])([H])[H])C([H])([H])[H])C([H])([H])c2c([H])c(OC([H])([H])C([H])(N([H])C(=O)C3([H])N(C(=O)N4C([H])([H])C([H])([H])C([H])([H])C([H])(n5nc(-c6c([H])c([H])c(Oc7c([H])c([H])c(F)c([H])c7F)c([H])c6[H])c(C(=O)N([H])[H])c5N([H])[H])C4([H])[H])C4([H])C([H])([H])C34[H])C([H])([H])[N+]([H])([H])[H])c([H])c([H])c2C1([H])[H]

$$$$
