0:0:0
     RDKit          3D

 95104  0  0  1  0  0  0  0  0999 V2000
  -29.5490  -20.2890   20.0310 C   0  0  0  0  0  0  0  0  0  0  0  0
  -29.1830  -22.6550   20.9080 C   0  0  0  0  0  2  0  0  0  0  0  0
  -27.8400  -21.8100   19.1770 C   0  0  0  0  0  2  0  0  0  0  0  0
  -28.7410  -23.9130   20.0570 C   0  0  0  0  0  3  0  0  0  0  0  0
  -27.5220  -23.3120   19.3560 C   0  0  0  0  0  3  0  0  0  0  0  0
  -28.7280  -21.3740   20.2720 N   0  0  0  0  0  0  0  0  0  0  0  0
  -30.3180  -20.3150   19.0640 O   0  0  0  0  0  0  0  0  0  0  0  0
  -30.6750  -14.7480   20.2220 C   0  0  0  0  0  0  0  0  0  0  0  0
  -30.3910  -12.5210   19.0970 C   0  0  0  0  0  2  0  0  0  0  0  0
  -29.4180  -12.5910   17.9000 C   0  0  0  0  0  2  0  0  0  0  0  0
  -27.9710  -12.3740   18.3820 C   0  0  0  0  0  2  0  0  0  0  0  0
  -27.6260  -13.2720   19.5900 C   0  0  0  0  0  3  0  0  0  0  0  0
  -28.7120  -13.1980   20.6910 C   0  0  0  0  0  2  0  0  0  0  0  0
  -29.9920  -13.5610   20.0780 N   0  0  0  0  0  0  0  0  0  0  0  0
  -31.8250  -14.8270   19.7660 O   0  0  0  0  0  0  0  0  0  0  0  0
  -28.5950  -17.8510   20.2510 C   0  0  0  0  0  2  0  0  0  0  0  0
  -30.9170  -18.2820   21.0450 C   0  0  0  0  0  2  0  0  0  0  0  0
  -28.7370  -16.4010   20.8450 C   0  0  0  0  0  2  0  0  0  0  0  0
  -30.9030  -16.8360   21.6590 C   0  0  0  0  0  2  0  0  0  0  0  0
  -29.5070  -18.9500   20.8820 C   0  0  0  0  0  3  0  0  0  0  0  0
  -30.1150  -15.8470   20.8840 N   0  0  0  0  0  0  0  0  0  0  0  0
  -25.2930  -13.8900   20.4580 C   0  0  0  0  0  0  0  0  0  0  0  0
  -24.2400  -13.1180   20.8680 C   0  0  0  0  0  0  0  0  0  0  0  0
  -24.6900  -11.7660   20.7860 C   0  0  0  0  0  0  0  0  0  0  0  0
  -26.3070  -13.0020   20.1440 N   0  0  0  0  0  0  0  0  0  0  0  0
  -25.9600  -11.7190   20.4120 N   0  0  0  0  0  0  0  0  0  0  0  0
  -23.9660  -10.5060   20.9810 C   0  0  0  0  0  0  0  0  0  0  0  0
  -24.4110   -9.5440   21.9120 C   0  0  0  0  0  3  0  0  0  0  0  0
  -23.6970   -8.3420   22.0940 C   0  0  0  0  0  3  0  0  0  0  0  0
  -22.5240   -8.0940   21.3420 C   0  0  0  0  0  0  0  0  0  0  0  0
  -22.0980   -9.0480   20.4020 C   0  0  0  0  0  3  0  0  0  0  0  0
  -22.8130  -10.2430   20.2190 C   0  0  0  0  0  3  0  0  0  0  0  0
  -21.7790   -6.9440   21.4320 O   0  0  0  0  0  0  0  0  0  0  0  0
  -21.6960   -6.2290   22.6000 C   0  0  0  0  0  0  0  0  0  0  0  0
  -21.1800   -6.7930   23.7850 C   0  0  0  0  0  3  0  0  0  0  0  0
  -21.0470   -6.0000   24.9420 C   0  0  0  0  0  3  0  0  0  0  0  0
  -21.4240   -4.6440   24.9140 C   0  0  0  0  0  0  0  0  0  0  0  0
  -21.9340   -4.0800   23.7310 C   0  0  0  0  0  3  0  0  0  0  0  0
  -22.0670   -4.8710   22.5750 C   0  0  0  0  0  0  0  0  0  0  0  0
  -22.5370   -4.3160   21.4310 F   0  0  0  0  0  0  0  0  0  0  0  0
  -21.2950   -3.8770   26.0220 F   0  0  0  0  0  0  0  0  0  0  0  0
  -22.8610  -13.5990   21.2090 C   0  0  0  0  0  0  0  0  0  0  0  0
  -22.1580  -12.8800   22.0790 N   0  0  0  0  0  0  0  0  0  0  0  0
  -22.4150  -14.6460   20.7430 O   0  0  0  0  0  0  0  0  0  0  0  0
  -22.5300  -12.0300   22.4760 H   0  0  0  0  0  0  0  0  0  0  0  0
  -21.2400  -13.1950   22.3560 H   0  0  0  0  0  0  0  0  0  0  0  0
  -25.4500  -15.2620   20.3060 N   0  0  0  0  0  0  0  0  0  0  0  0
  -24.6990  -15.9100   20.5090 H   0  0  0  0  0  0  0  0  0  0  0  0
  -26.2770  -15.7230   19.9520 H   0  0  0  0  0  0  0  0  0  0  0  0
  -27.1600  -23.9560   18.0780 N   0  0  0  0  0  4  0  0  0  0  0  0
  -26.9520  -24.9300   18.2120 H   0  0  0  0  0  0  0  0  0  0  0  0
  -26.3520  -23.5100   17.6790 H   0  0  0  0  0  0  0  0  0  0  0  0
  -27.9080  -23.8910   17.4070 H   0  0  0  0  0  0  0  0  0  0  0  0
  -28.4910  -25.2750   20.8660 C   0  0  0  0  0  2  0  0  0  0  0  0
  -28.4560  -26.5920   20.2020 O   0  0  0  0  0  0  0  0  0  0  0  0
  -24.5950  -31.9060   23.2510 C   0  0  0  0  0  0  0  0  0  0  0  0
  -27.3000  -27.3730   20.2660 C   0  0  0  0  0  0  0  0  0  0  0  0
  -23.4220  -30.4850   21.6050 C   0  0  0  0  0  3  0  0  0  0  0  0
  -24.9030  -28.9270   20.2270 C   0  0  0  0  0  0  0  0  0  0  0  0
  -25.9550  -30.8380   21.4350 C   0  0  0  0  0  2  0  0  0  0  0  0
  -26.0590  -29.4510   20.8160 C   0  0  0  0  0  0  0  0  0  0  0  0
  -27.2660  -28.6890   20.8180 C   0  0  0  0  0  3  0  0  0  0  0  0
  -26.1100  -26.8820   19.6900 C   0  0  0  0  0  3  0  0  0  0  0  0
  -24.9270  -27.6440   19.6570 C   0  0  0  0  0  3  0  0  0  0  0  0
  -23.6570  -29.7910   20.2380 C   0  0  0  0  0  2  0  0  0  0  0  0
  -24.6760  -31.0950   22.1550 N   0  0  0  0  0  0  0  0  0  0  0  0
  -23.5030  -32.1750   23.7720 O   0  0  0  0  0  0  0  0  0  0  0  0
  -22.7580  -29.4720   22.5700 C   0  0  0  0  0  0  0  0  0  0  0  0
  -21.4340  -29.2880   22.4320 N   0  0  0  0  0  0  0  0  0  0  0  0
  -23.4330  -28.8540   23.3980 O   0  0  0  0  0  0  0  0  0  0  0  0
  -20.9480  -29.8470   21.7430 H   0  0  0  0  0  0  0  0  0  0  0  0
  -18.0510  -28.1080   22.9380 C   0  0  0  0  0  0  0  0  0  0  0  0
  -20.6110  -28.3490   23.1980 C   0  0  0  0  0  3  0  0  0  0  0  0
  -20.7020  -26.9210   22.6140 C   0  0  0  0  0  2  0  0  0  0  0  0
  -19.5920  -26.6100   21.6030 C   0  0  0  0  0  2  0  0  0  0  0  0
  -18.2150  -26.7610   22.2540 C   0  0  0  0  0  2  0  0  0  0  0  0
  -19.1780  -28.8600   23.3680 C   0  0  0  0  0  0  0  0  0  0  0  0
  -18.9690  -30.1210   23.9690 C   0  0  0  0  0  3  0  0  0  0  0  0
  -17.6680  -30.6290   24.1460 C   0  0  0  0  0  3  0  0  0  0  0  0
  -16.5580  -29.8750   23.7280 C   0  0  0  0  0  3  0  0  0  0  0  0
  -16.7500  -28.6150   23.1310 C   0  0  0  0  0  3  0  0  0  0  0  0
  -25.8660  -32.5510   23.8870 C   0  0  0  0  0  3  0  0  0  0  0  0
  -26.3630  -31.8030   25.1840 C   0  0  1  0  0  0  0  0  0  0  0  0
  -25.2540  -31.5750   26.2370 C   0  0  0  0  0  1  0  0  0  0  0  0
  -26.9600  -30.4240   24.8170 C   0  0  0  0  0  1  0  0  0  0  0  0
  -27.4930  -32.6170   25.8590 C   0  0  0  0  0  1  0  0  0  0  0  0
  -25.5450  -33.9530   24.1910 N   0  0  0  0  0  0  0  0  0  0  0  0
  -25.8900  -34.9990   23.4280 C   0  0  0  0  0  0  0  0  0  0  0  0
  -26.5830  -34.8840   22.4120 O   0  0  0  0  0  0  0  0  0  0  0  0
  -24.9420  -34.1170   24.9830 H   0  0  0  0  0  0  0  0  0  0  0  0
  -24.1810  -36.7940   22.9940 C   0  0  0  0  0  1  0  0  0  0  0  0
  -25.3880  -36.3900   23.8560 C   0  0  0  0  0  3  0  0  0  0  0  0
  -27.4850  -37.2820   24.7700 C   0  0  0  0  0  1  0  0  0  0  0  0
  -26.4250  -37.4420   23.7790 N   0  0  0  0  0  0  0  0  0  0  0  0
  -26.0140  -38.3640   23.9010 H   0  0  0  0  0  0  0  0  0  0  0  0
  1  6  1  0
  3  5  1  0
  3  6  1  0
  4 54  1  0
  4  2  1  0
  5 50  1  0
  5  4  1  0
  6  2  1  0
  7  1  2  0
  8 21  1  0
  9 14  1  0
 10 11  1  0
 10  9  1  0
 12 11  1  0
 12 25  1  0
 12 13  1  0
 14  8  1  0
 14 13  1  0
 15  8  2  0
 16 18  1  0
 16 20  1  0
 17 19  1  0
 18 21  1  0
 20  1  1  0
 20 17  1  0
 21 19  1  0
 22 23  2  0
 23 42  1  0
 24 23  1  0
 24 27  1  0
 25 26  1  0
 25 22  1  0
 26 24  2  0
 27 28  1  0
 28 29  2  0
 30 33  1  0
 30 29  1  0
 31 30  2  0
 32 31  1  0
 32 27  2  0
 33 34  1  0
 34 35  1  0
 35 36  2  0
 37 36  1  0
 37 41  1  0
 38 37  2  0
 39 34  2  0
 39 38  1  0
 40 39  1  0
 42 43  1  0
 43 46  1  0
 43 45  1  0
 44 42  2  0
 47 22  1  0
 47 48  1  0
 49 47  1  0
 50 51  1  0
 52 50  1  0
 53 50  1  0
 55 57  1  0
 55 54  1  0
 56 67  2  0
 57 62  1  0
 58 66  1  0
 58 68  1  0
 59 65  1  0
 59 61  1  0
 60 66  1  0
 61 62  2  0
 61 60  1  0
 63 57  2  0
 64 63  1  0
 64 59  2  0
 65 58  1  0
 66 56  1  0
 68 70  2  0
 69 68  1  0
 71 69  1  0
 72 81  2  0
 72 77  1  0
 73 69  1  0
 73 77  1  0
 74 73  1  0
 75 76  1  0
 75 74  1  0
 76 72  1  0
 77 78  2  0
 78 79  1  0
 80 79  2  0
 81 80  1  0
 82 56  1  0
 82 87  1  0
 82 83  1  0
 83 86  1  1
 83 84  1  0
 85 83  1  0
 87 90  1  0
 88 92  1  0
 88 87  1  0
 89 88  2  0
 92 91  1  0
 94 92  1  0
 94 95  1  0
 94 93  1  0
M  ISO  4   8 100  21 100  54 101  55 101
M  END
>  <TORSDO>  (1) 
F 18

>  <SCORE>  (1) 
-15.176

>  <name>  (1) 
0

>  <ligand_id>  (1) 
0

>  <original_smiles>  (1) 
[H]c1c([H])c([H])c2c(c1[H])C([H])([H])C([H])([H])C([H])([H])C2([H])N([H])C(=O)C1([H])N(C(=O)C([H])(N([H])C(=O)C([H])(N([H])C([H])([H])[H])C([H])([H])[H])C(C([H])([H])[H])(C([H])([H])[H])C([H])([H])[H])C([H])([H])c2c([H])c(OC([H])([H])C3([H])C([H])([H])N(C(=O)C4([H])C([H])([H])C([H])([H])N(C(=O)N5C([H])([H])C([H])([H])C([H])([H])C([H])(n6nc(-c7c([H])c([H])c(Oc8c([H])c([H])c(F)c([H])c8F)c([H])c7[H])c(C(=O)N([H])[H])c6N([H])[H])C5([H])[H])C([H])([H])C4([H])[H])C([H])([H])C3([H])[N+]([H])([H])[H])c([H])c([H])c2C1([H])[H]

>  <smiles>  (1) 
[H]c1c([H])c([H])c2c(c1[H])C([H])([H])C([H])([H])C([H])([H])C2([H])N([H])C(=O)C1([H])N(C(=O)C([H])(N([H])C(=O)C([H])(N([H])C([H])([H])[H])C([H])([H])[H])C(C([H])([H])[H])(C([H])([H])[H])C([H])([H])[H])C([H])([H])c2c([H])c(OC([H])([H])C3([H])C([H])([H])N(C(=O)C4([H])C([H])([H])C([H])([H])N(C(=O)N5C([H])([H])C([H])([H])C([H])([H])C([H])(n6nc(-c7c([H])c([H])c(Oc8c([H])c([H])c(F)c([H])c8F)c([H])c7[H])c(C(=O)N([H])[H])c6N([H])[H])C5([H])[H])C([H])([H])C4([H])[H])C([H])([H])C3([H])[N+]([H])([H])[H])c([H])c([H])c2C1([H])[H]

$$$$
1:0:0
     RDKit          3D

 93101  0  0  1  0  0  0  0  0999 V2000
  -30.8790  -19.3340   19.3130 C   0  0  0  0  0  2  0  0  0  0  0  0
  -30.3930  -20.8240   19.1360 C   0  0  0  0  0  2  0  0  0  0  0  0
  -29.9880  -20.7480   21.5690 C   0  0  0  0  0  2  0  0  0  0  0  0
  -29.9260  -18.4970   20.2140 C   0  0  0  0  0  3  0  0  0  0  0  0
  -29.8900  -19.1690   21.6290 C   0  0  0  0  0  3  0  0  0  0  0  0
  -30.9390  -18.6020   22.6020 C   0  0  0  0  0  1  0  0  0  0  0  0
  -29.5160  -21.2760   20.2560 N   0  0  1  0  0  4  0  0  0  0  0  0
  -28.7280  -20.6630   20.1100 H   0  0  0  0  0  0  0  0  0  0  0  0
  -30.0020  -16.5450   18.5610 C   0  0  0  0  0  1  0  0  0  0  0  0
  -29.8730  -16.8980   20.0620 C   0  0  0  0  0  3  0  0  0  0  0  0
  -31.3520  -14.8540   20.5890 C   0  0  0  0  0  0  0  0  0  0  0  0
  -31.0690  -12.5860   19.6200 C   0  0  0  0  0  2  0  0  0  0  0  0
  -30.1930  -12.6280   18.3520 C   0  0  0  0  0  2  0  0  0  0  0  0
  -28.6990  -12.5290   18.7220 C   0  0  0  0  0  2  0  0  0  0  0  0
  -28.2910  -13.4700   19.8900 C   0  0  0  0  0  3  0  0  0  0  0  0
  -29.3030  -13.4220   21.0570 C   0  0  0  0  0  2  0  0  0  0  0  0
  -30.6360  -13.6890   20.5020 N   0  0  0  0  0  0  0  0  0  0  0  0
  -32.5410  -14.8950   20.2770 O   0  0  0  0  0  0  0  0  0  0  0  0
  -30.7350  -16.0260   20.9280 N   0  0  0  0  0  0  0  0  0  0  0  0
  -31.3880  -16.6070   21.4320 H   0  0  0  0  0  0  0  0  0  0  0  0
  -25.9030  -14.1250   20.5700 C   0  0  0  0  0  0  0  0  0  0  0  0
  -24.8020  -13.3770   20.8840 C   0  0  0  0  0  0  0  0  0  0  0  0
  -25.2200  -12.0130   20.8210 C   0  0  0  0  0  0  0  0  0  0  0  0
  -26.9250  -13.2160   20.3350 N   0  0  0  0  0  0  0  0  0  0  0  0
  -26.5170  -11.9390   20.5480 N   0  0  0  0  0  0  0  0  0  0  0  0
  -24.4450  -10.7710   20.9440 C   0  0  0  0  0  0  0  0  0  0  0  0
  -24.7870   -9.7790   21.8890 C   0  0  0  0  0  3  0  0  0  0  0  0
  -24.0160   -8.6030   22.0020 C   0  0  0  0  0  3  0  0  0  0  0  0
  -22.8890   -8.4100   21.1670 C   0  0  0  0  0  0  0  0  0  0  0  0
  -22.5680   -9.3880   20.2110 C   0  0  0  0  0  3  0  0  0  0  0  0
  -23.3410  -10.5560   20.0950 C   0  0  0  0  0  3  0  0  0  0  0  0
  -22.0970   -7.2880   21.1900 O   0  0  0  0  0  0  0  0  0  0  0  0
  -21.8840   -6.5790   22.3450 C   0  0  0  0  0  0  0  0  0  0  0  0
  -21.2670   -7.1620   23.4730 C   0  0  0  0  0  3  0  0  0  0  0  0
  -21.0040   -6.3790   24.6150 C   0  0  0  0  0  3  0  0  0  0  0  0
  -21.3500   -5.0140   24.6290 C   0  0  0  0  0  0  0  0  0  0  0  0
  -21.9600   -4.4310   23.5040 C   0  0  0  0  0  3  0  0  0  0  0  0
  -22.2230   -5.2110   22.3650 C   0  0  0  0  0  0  0  0  0  0  0  0
  -22.7920   -4.6390   21.2770 F   0  0  0  0  0  0  0  0  0  0  0  0
  -21.0890   -4.2600   25.7220 F   0  0  0  0  0  0  0  0  0  0  0  0
  -23.4140  -13.8940   21.1310 C   0  0  0  0  0  0  0  0  0  0  0  0
  -22.6360  -13.1940   21.9510 N   0  0  0  0  0  0  0  0  0  0  0  0
  -23.0280  -14.9520   20.6350 O   0  0  0  0  0  0  0  0  0  0  0  0
  -22.9620  -12.3390   22.3760 H   0  0  0  0  0  0  0  0  0  0  0  0
  -21.7020  -13.5180   22.1560 H   0  0  0  0  0  0  0  0  0  0  0  0
  -26.1140  -15.4930   20.4390 N   0  0  0  0  0  0  0  0  0  0  0  0
  -25.3630  -16.1660   20.5430 H   0  0  0  0  0  0  0  0  0  0  0  0
  -26.9810  -15.9110   20.1270 H   0  0  0  0  0  0  0  0  0  0  0  0
  -27.4760  -22.5170   20.9950 C   0  0  0  0  0  1  0  0  0  0  0  0
  -28.7720  -22.6040   20.1540 C   0  0  0  0  0  3  0  0  0  0  0  0
  -29.5130  -24.0100   20.3410 C   0  0  0  0  0  2  0  0  0  0  0  0
  -28.5670  -25.2440   19.9930 C   0  0  0  0  0  2  0  0  0  0  0  0
  -28.8180  -26.6720   20.3020 O   0  0  0  0  0  0  0  0  0  0  0  0
  -24.7500  -31.7710   23.3670 C   0  0  0  0  0  0  0  0  0  0  0  0
  -27.6900  -27.5100   20.2030 C   0  0  0  0  0  0  0  0  0  0  0  0
  -23.6820  -30.4130   21.6050 C   0  0  0  0  0  3  0  0  0  0  0  0
  -25.2620  -29.0210   20.1630 C   0  0  0  0  0  0  0  0  0  0  0  0
  -26.2100  -30.8530   21.5550 C   0  0  0  0  0  2  0  0  0  0  0  0
  -26.3800  -29.5190   20.8420 C   0  0  0  0  0  0  0  0  0  0  0  0
  -27.5980  -28.7760   20.8590 C   0  0  0  0  0  3  0  0  0  0  0  0
  -26.5500  -27.0870   19.4730 C   0  0  0  0  0  3  0  0  0  0  0  0
  -25.3490  -27.8080   19.4710 C   0  0  0  0  0  3  0  0  0  0  0  0
  -23.9850  -29.8310   20.2010 C   0  0  0  0  0  2  0  0  0  0  0  0
  -24.8960  -31.0260   22.2340 N   0  0  0  0  0  0  0  0  0  0  0  0
  -23.6340  -31.9710   23.8660 O   0  0  0  0  0  0  0  0  0  0  0  0
  -23.0300  -29.3130   22.4780 C   0  0  0  0  0  0  0  0  0  0  0  0
  -21.7190  -29.0850   22.2850 N   0  0  0  0  0  0  0  0  0  0  0  0
  -23.7040  -28.6720   23.2900 O   0  0  0  0  0  0  0  0  0  0  0  0
  -21.2340  -29.6590   21.6100 H   0  0  0  0  0  0  0  0  0  0  0  0
  -18.3710  -27.7600   22.6130 C   0  0  0  0  0  0  0  0  0  0  0  0
  -20.9120  -28.0750   22.9710 C   0  0  0  0  0  3  0  0  0  0  0  0
  -21.0730  -26.6880   22.3070 C   0  0  0  0  0  2  0  0  0  0  0  0
  -20.0090  -26.4000   21.2440 C   0  0  0  0  0  2  0  0  0  0  0  0
  -18.6070  -26.4630   21.8570 C   0  0  0  0  0  2  0  0  0  0  0  0
  -19.4530  -28.5240   23.1230 C   0  0  0  0  0  0  0  0  0  0  0  0
  -19.1810  -29.7390   23.7880 C   0  0  0  0  0  3  0  0  0  0  0  0
  -17.8560  -30.1900   23.9500 C   0  0  0  0  0  3  0  0  0  0  0  0
  -16.7880  -29.4210   23.4570 C   0  0  0  0  0  3  0  0  0  0  0  0
  -17.0460  -28.2070   22.7950 C   0  0  0  0  0  3  0  0  0  0  0  0
  -25.9760  -32.4250   24.0760 C   0  0  0  0  0  3  0  0  0  0  0  0
  -26.4000  -31.6750   25.3990 C   0  0  1  0  0  0  0  0  0  0  0  0
  -25.2260  -31.4280   26.3760 C   0  0  0  0  0  1  0  0  0  0  0  0
  -27.0360  -30.3040   25.0720 C   0  0  0  0  0  1  0  0  0  0  0  0
  -27.4780  -32.4960   26.1430 C   0  0  0  0  0  1  0  0  0  0  0  0
  -25.6280  -33.8240   24.3620 N   0  0  0  0  0  0  0  0  0  0  0  0
  -25.9500  -34.8620   23.5800 C   0  0  0  0  0  0  0  0  0  0  0  0
  -26.6420  -34.7470   22.5640 O   0  0  0  0  0  0  0  0  0  0  0  0
  -25.0170  -33.9870   25.1490 H   0  0  0  0  0  0  0  0  0  0  0  0
  -24.1630  -36.5860   23.1710 C   0  0  0  0  0  1  0  0  0  0  0  0
  -25.4210  -36.2520   23.9890 C   0  0  0  0  0  3  0  0  0  0  0  0
  -27.5210  -37.2440   24.7870 C   0  0  0  0  0  1  0  0  0  0  0  0
  -26.4200  -37.3310   23.8310 N   0  0  0  0  0  0  0  0  0  0  0  0
  -25.9820  -38.2430   23.9330 H   0  0  0  0  0  0  0  0  0  0  0  0
  1  4  1  0
  2  1  1  0
  2  7  1  0
  3  5  1  0
  4 10  1  0
  4  5  1  0
  5  6  1  0
  7  3  1  0
  7  8  1  6
 10  9  1  0
 10 19  1  0
 11 19  1  0
 12 17  1  0
 13 14  1  0
 13 12  1  0
 15 14  1  0
 15 24  1  0
 15 16  1  0
 17 11  1  0
 17 16  1  0
 18 11  2  0
 19 20  1  0
 21 22  2  0
 22 41  1  0
 23 22  1  0
 23 26  1  0
 24 25  1  0
 24 21  1  0
 25 23  2  0
 26 27  1  0
 27 28  2  0
 29 32  1  0
 29 28  1  0
 30 29  2  0
 31 30  1  0
 31 26  2  0
 32 33  1  0
 33 38  2  0
 33 34  1  0
 34 35  2  0
 35 36  1  0
 36 40  1  0
 37 36  2  0
 38 37  1  0
 39 38  1  0
 41 42  1  0
 42 45  1  0
 42 44  1  0
 43 41  2  0
 46 47  1  0
 46 21  1  0
 48 46  1  0
 50  7  1  0
 50 51  1  0
 50 49  1  0
 52 53  1  0
 52 51  1  0
 54 65  2  0
 55 53  1  0
 55 60  1  0
 56 64  1  0
 56 66  1  0
 57 63  1  0
 57 59  1  0
 58 64  1  0
 59 60  2  0
 59 58  1  0
 61 55  2  0
 62 61  1  0
 62 57  2  0
 63 56  1  0
 64 54  1  0
 66 68  2  0
 67 66  1  0
 69 67  1  0
 70 79  2  0
 70 75  1  0
 71 67  1  0
 71 75  1  0
 72 71  1  0
 73 74  1  0
 73 72  1  0
 74 70  1  0
 75 76  2  0
 76 77  1  0
 78 77  2  0
 79 78  1  0
 80 54  1  0
 80 85  1  0
 80 81  1  0
 81 84  1  1
 81 82  1  0
 83 81  1  0
 85 88  1  0
 86 90  1  0
 86 85  1  0
 87 86  2  0
 90 89  1  0
 92 93  1  0
 92 90  1  0
 92 91  1  0
M  ISO  4  11 100  19 100  52 101  53 101
M  END
>  <TORSDO>  (2) 
F 20

>  <SCORE>  (2) 
-12.384

>  <name>  (2) 
1

>  <ligand_id>  (2) 
1

>  <original_smiles>  (2) 
[H]c1c([H])c([H])c2c(c1[H])C([H])([H])C([H])([H])C([H])([H])C2([H])N([H])C(=O)C1([H])N(C(=O)C([H])(N([H])C(=O)C([H])(N([H])C([H])([H])[H])C([H])([H])[H])C(C([H])([H])[H])(C([H])([H])[H])C([H])([H])[H])C([H])([H])c2c([H])c(OC([H])([H])C([H])([H])C([H])(C([H])([H])[H])[N+]3([H])C([H])([H])C([H])([H])C([H])(C([H])(N([H])C(=O)N4C([H])([H])C([H])([H])C([H])([H])C([H])(n5nc(-c6c([H])c([H])c(Oc7c([H])c([H])c(F)c([H])c7F)c([H])c6[H])c(C(=O)N([H])[H])c5N([H])[H])C4([H])[H])C([H])([H])[H])C([H])(C([H])([H])[H])C3([H])[H])c([H])c([H])c2C1([H])[H]

>  <smiles>  (2) 
[H]c1c([H])c([H])c2c(c1[H])C([H])([H])C([H])([H])C([H])([H])C2([H])N([H])C(=O)C1([H])N(C(=O)C([H])(N([H])C(=O)C([H])(N([H])C([H])([H])[H])C([H])([H])[H])C(C([H])([H])[H])(C([H])([H])[H])C([H])([H])[H])C([H])([H])c2c([H])c(OC([H])([H])C([H])([H])C([H])(C([H])([H])[H])[N+]3([H])C([H])([H])C([H])([H])C([H])(C([H])(N([H])C(=O)N4C([H])([H])C([H])([H])C([H])([H])C([H])(n5nc(-c6c([H])c([H])c(Oc7c([H])c([H])c(F)c([H])c7F)c([H])c6[H])c(C(=O)N([H])[H])c5N([H])[H])C4([H])[H])C([H])([H])[H])C([H])(C([H])([H])[H])C3([H])[H])c([H])c([H])c2C1([H])[H]

$$$$
2:0:0
     RDKit          3D

 89 98  0  0  1  0  0  0  0  0999 V2000
  -30.4810  -15.2850   20.3560 C   0  0  0  0  0  0  0  0  0  0  0  0
  -30.3850  -12.8340   19.5180 C   0  0  0  0  0  2  0  0  0  0  0  0
  -29.4930  -12.6180   18.2730 C   0  0  0  0  0  2  0  0  0  0  0  0
  -28.0380  -12.3640   18.6970 C   0  0  0  0  0  2  0  0  0  0  0  0
  -27.5760  -13.3490   19.8000 C   0  0  0  0  0  3  0  0  0  0  0  0
  -28.6060  -13.5330   20.9370 C   0  0  0  0  0  2  0  0  0  0  0  0
  -29.8500  -14.0080   20.3110 N   0  0  0  0  0  0  0  0  0  0  0  0
  -31.6950  -15.1920   20.1100 O   0  0  0  0  0  0  0  0  0  0  0  0
  -31.2580  -20.0850   20.5210 C   0  0  0  0  0  0  0  0  0  0  0  0
  -30.7180  -17.5940   21.4770 C   0  0  0  0  0  2  0  0  0  0  0  0
  -29.1730  -17.8390   19.8820 C   0  0  0  0  0  2  0  0  0  0  0  0
  -30.3520  -19.1630   21.3570 C   0  0  0  0  0  3  0  0  0  0  0  0
  -29.0460  -19.3960   20.6250 C   0  0  0  0  0  3  0  0  0  0  0  0
  -29.1250  -21.0550   19.9810 C   0  0  0  0  0  3  0  0  0  0  0  0
  -30.5830  -21.0410   19.8490 N   0  0  0  0  0  0  0  0  0  0  0  0
  -29.9000  -16.6340   20.6530 N   0  0  0  0  0  0  0  0  0  0  0  0
  -32.4800  -19.9550   20.4800 O   0  0  0  0  0  0  0  0  0  0  0  0
  -31.0580  -21.7050   19.2520 H   0  0  0  0  0  0  0  0  0  0  0  0
  -25.2020  -13.9190   20.5200 C   0  0  0  0  0  0  0  0  0  0  0  0
  -24.1320  -13.1500   20.8770 C   0  0  0  0  0  0  0  0  0  0  0  0
  -24.5940  -11.7970   20.8660 C   0  0  0  0  0  0  0  0  0  0  0  0
  -26.2440  -13.0390   20.2970 N   0  0  0  0  0  0  0  0  0  0  0  0
  -25.8900  -11.7560   20.5750 N   0  0  0  0  0  0  0  0  0  0  0  0
  -23.8580  -10.5390   21.0550 C   0  0  0  0  0  0  0  0  0  0  0  0
  -24.2810   -9.5670   21.9890 C   0  0  0  0  0  3  0  0  0  0  0  0
  -23.5420   -8.3780   22.1680 C   0  0  0  0  0  3  0  0  0  0  0  0
  -22.3670   -8.1510   21.4130 C   0  0  0  0  0  0  0  0  0  0  0  0
  -21.9640   -9.1100   20.4670 C   0  0  0  0  0  3  0  0  0  0  0  0
  -22.7030  -10.2920   20.2870 C   0  0  0  0  0  3  0  0  0  0  0  0
  -21.6010   -7.0130   21.5010 O   0  0  0  0  0  0  0  0  0  0  0  0
  -21.5540   -6.2640   22.6500 C   0  0  0  0  0  0  0  0  0  0  0  0
  -21.1640   -6.8210   23.8870 C   0  0  0  0  0  3  0  0  0  0  0  0
  -21.0620   -6.0000   25.0280 C   0  0  0  0  0  3  0  0  0  0  0  0
  -21.3400   -4.6240   24.9320 C   0  0  0  0  0  0  0  0  0  0  0  0
  -21.7230   -4.0660   23.6990 C   0  0  0  0  0  3  0  0  0  0  0  0
  -21.8270   -4.8840   22.5610 C   0  0  0  0  0  0  0  0  0  0  0  0
  -22.1750   -4.3380   21.3710 F   0  0  0  0  0  0  0  0  0  0  0  0
  -21.2360   -3.8330   26.0270 F   0  0  0  0  0  0  0  0  0  0  0  0
  -22.7340  -13.6340   21.1180 C   0  0  0  0  0  0  0  0  0  0  0  0
  -21.9890  -12.9550   21.9830 N   0  0  0  0  0  0  0  0  0  0  0  0
  -22.3090  -14.6550   20.5750 O   0  0  0  0  0  0  0  0  0  0  0  0
  -22.3460  -12.1320   22.4440 H   0  0  0  0  0  0  0  0  0  0  0  0
  -21.0490  -13.2630   22.1860 H   0  0  0  0  0  0  0  0  0  0  0  0
  -25.3740  -15.2890   20.3370 N   0  0  0  0  0  0  0  0  0  0  0  0
  -24.6120  -15.9490   20.4430 H   0  0  0  0  0  0  0  0  0  0  0  0
  -26.2390  -15.7250   20.0430 H   0  0  0  0  0  0  0  0  0  0  0  0
  -28.6630  -22.6950   20.5970 C   0  0  0  0  0  2  0  0  0  0  0  0
  -28.2580  -24.2890   19.8450 C   0  0  0  0  0  2  0  0  0  0  0  0
  -28.2760  -25.8830   20.2880 O   0  0  0  0  0  0  0  0  0  0  0  0
  -24.6760  -31.8420   23.1540 C   0  0  0  0  0  0  0  0  0  0  0  0
  -27.2580  -26.9670   20.1600 C   0  0  0  0  0  0  0  0  0  0  0  0
  -23.4890  -30.4320   21.5220 C   0  0  0  0  0  3  0  0  0  0  0  0
  -24.9480  -28.8320   20.1010 C   0  0  0  0  0  0  0  0  0  0  0  0
  -26.0530  -30.6580   21.3760 C   0  0  0  0  0  2  0  0  0  0  0  0
  -26.1300  -29.2460   20.7250 C   0  0  0  0  0  0  0  0  0  0  0  0
  -27.2750  -28.3320   20.7340 C   0  0  0  0  0  3  0  0  0  0  0  0
  -26.0490  -26.7080   19.4740 C   0  0  0  0  0  3  0  0  0  0  0  0
  -24.9320  -27.5850   19.4550 C   0  0  0  0  0  3  0  0  0  0  0  0
  -23.7220  -29.7440   20.1470 C   0  0  0  0  0  2  0  0  0  0  0  0
  -24.7600  -31.0050   22.0700 N   0  0  0  0  0  0  0  0  0  0  0  0
  -23.5840  -32.1280   23.6740 O   0  0  0  0  0  0  0  0  0  0  0  0
  -22.8020  -29.4370   22.4910 C   0  0  0  0  0  0  0  0  0  0  0  0
  -21.4690  -29.2810   22.3830 N   0  0  0  0  0  0  0  0  0  0  0  0
  -23.4730  -28.8050   23.3110 O   0  0  0  0  0  0  0  0  0  0  0  0
  -20.9810  -29.8410   21.6990 H   0  0  0  0  0  0  0  0  0  0  0  0
  -18.0850  -28.0940   22.9310 C   0  0  0  0  0  0  0  0  0  0  0  0
  -20.6500  -28.3460   23.1620 C   0  0  0  0  0  3  0  0  0  0  0  0
  -20.7350  -26.9150   22.5800 C   0  0  0  0  0  2  0  0  0  0  0  0
  -19.6180  -26.6030   21.5790 C   0  0  0  0  0  2  0  0  0  0  0  0
  -18.2460  -26.7490   22.2430 C   0  0  0  0  0  2  0  0  0  0  0  0
  -19.2130  -28.8500   23.3480 C   0  0  0  0  0  0  0  0  0  0  0  0
  -19.0050  -30.1070   23.9570 C   0  0  0  0  0  3  0  0  0  0  0  0
  -17.7040  -30.6090   24.1500 C   0  0  0  0  0  3  0  0  0  0  0  0
  -16.5920  -29.8500   23.7460 C   0  0  0  0  0  3  0  0  0  0  0  0
  -16.7830  -28.5950   23.1430 C   0  0  0  0  0  3  0  0  0  0  0  0
  -25.9440  -32.4950   23.7850 C   0  0  0  0  0  3  0  0  0  0  0  0
  -25.6080  -33.8860   24.1400 N   0  0  0  0  0  0  0  0  0  0  0  0
  -25.9180  -34.9620   23.4060 C   0  0  0  0  0  0  0  0  0  0  0  0
  -26.5780  -34.8910   22.3660 O   0  0  0  0  0  0  0  0  0  0  0  0
  -25.0160  -34.0120   24.9490 H   0  0  0  0  0  0  0  0  0  0  0  0
  -24.1570  -36.7430   23.1220 C   0  0  0  0  0  1  0  0  0  0  0  0
  -25.4180  -36.3360   23.9010 C   0  0  0  0  0  3  0  0  0  0  0  0
  -27.5550  -37.2400   24.7100 C   0  0  0  0  0  1  0  0  0  0  0  0
  -26.4340  -37.4080   23.7900 N   0  0  0  0  0  0  0  0  0  0  0  0
  -26.0170  -38.3190   23.9610 H   0  0  0  0  0  0  0  0  0  0  0  0
  -26.4700  -31.7230   25.0580 C   0  0  1  0  0  0  0  0  0  0  0  0
  -25.3830  -31.4710   26.1290 C   0  0  0  0  0  1  0  0  0  0  0  0
  -27.0640  -30.3510   24.6650 C   0  0  0  0  0  1  0  0  0  0  0  0
  -27.6160  -32.5240   25.7200 C   0  0  0  0  0  1  0  0  0  0  0  0
  1 16  1  0
  2  7  1  0
  3  4  1  0
  3  2  1  0
  5  4  1  0
  5 22  1  0
  5  6  1  0
  7  1  1  0
  7  6  1  0
  8  1  2  0
  9 12  1  0
 11 16  1  0
 12 10  1  0
 13 11  1  0
 13 12  1  0
 14 47  1  0
 14 13  1  0
 15 14  1  0
 15  9  1  0
 16 10  1  0
 17  9  2  0
 18 15  1  0
 19 20  2  0
 20 39  1  0
 21 20  1  0
 21 24  1  0
 22 19  1  0
 22 23  1  0
 23 21  2  0
 24 25  1  0
 25 26  2  0
 27 30  1  0
 27 26  1  0
 28 27  2  0
 29 28  1  0
 29 24  2  0
 30 31  1  0
 31 32  1  0
 32 33  2  0
 34 33  1  0
 34 38  1  0
 35 34  2  0
 36 31  2  0
 36 35  1  0
 37 36  1  0
 39 40  1  0
 40 43  1  0
 40 42  1  0
 41 39  2  0
 44 45  1  0
 44 19  1  0
 46 44  1  0
 48 49  1  0
 48 47  1  0
 50 61  2  0
 51 49  1  0
 51 56  1  0
 52 60  1  0
 52 62  1  0
 53 59  1  0
 53 55  1  0
 54 60  1  0
 55 56  2  0
 55 54  1  0
 57 51  2  0
 58 57  1  0
 58 53  2  0
 59 52  1  0
 60 50  1  0
 62 64  2  0
 63 62  1  0
 65 63  1  0
 66 75  2  0
 66 71  1  0
 67 63  1  0
 67 71  1  0
 68 67  1  0
 69 70  1  0
 69 68  1  0
 70 66  1  0
 71 72  2  0
 72 73  1  0
 74 73  2  0
 75 74  1  0
 76 50  1  0
 76 77  1  0
 76 86  1  0
 77 80  1  0
 78 82  1  0
 78 77  1  0
 79 78  2  0
 82 81  1  0
 84 82  1  0
 84 85  1  0
 84 83  1  0
 86 89  1  1
 86 87  1  0
 88 86  1  0
M  ISO  4   1 100  16 100  48 101  49 101
M  END
>  <TORSDO>  (3) 
F 17

>  <SCORE>  (3) 
-16.687

>  <name>  (3) 
2

>  <ligand_id>  (3) 
2

>  <original_smiles>  (3) 
[H]c1c([H])c([H])c2c(c1[H])C([H])([H])C([H])([H])C([H])([H])C2([H])N([H])C(=O)C1([H])N(C(=O)C([H])(N([H])C(=O)C([H])(N([H])C([H])([H])[H])C([H])([H])[H])C(C([H])([H])[H])(C([H])([H])[H])C([H])([H])[H])C([H])([H])c2c([H])c(OC([H])([H])C([H])([H])C3([H])N([H])C(=O)C4([H])C([H])([H])N(C(=O)N5C([H])([H])C([H])([H])C([H])([H])C([H])(n6nc(-c7c([H])c([H])c(Oc8c([H])c([H])c(F)c([H])c8F)c([H])c7[H])c(C(=O)N([H])[H])c6N([H])[H])C5([H])[H])C([H])([H])C43[H])c([H])c([H])c2C1([H])[H]

>  <smiles>  (3) 
[H]c1c([H])c([H])c2c(c1[H])C([H])([H])C([H])([H])C([H])([H])C2([H])N([H])C(=O)C1([H])N(C(=O)C([H])(N([H])C(=O)C([H])(N([H])C([H])([H])[H])C([H])([H])[H])C(C([H])([H])[H])(C([H])([H])[H])C([H])([H])[H])C([H])([H])c2c([H])c(OC([H])([H])C([H])([H])C3([H])N([H])C(=O)C4([H])C([H])([H])N(C(=O)N5C([H])([H])C([H])([H])C([H])([H])C([H])(n6nc(-c7c([H])c([H])c(Oc8c([H])c([H])c(F)c([H])c8F)c([H])c7[H])c(C(=O)N([H])[H])c6N([H])[H])C5([H])[H])C([H])([H])C43[H])c([H])c([H])c2C1([H])[H]

$$$$
3:0:0
     RDKit          3D

 89 99  0  0  1  0  0  0  0  0999 V2000
  -29.5810  -18.9340   19.0940 C   0  0  0  0  0  0  0  0  0  0  0  0
  -29.5820  -18.9260   21.4380 C   0  0  0  0  0  2  0  0  0  0  0  0
  -30.1550  -17.9850   20.2560 C   0  0  0  0  0  3  0  0  0  0  0  0
  -29.8660  -20.5360   19.2910 C   0  0  2  0  0  0  0  0  0  0  0  0
  -28.9660  -21.5510   20.2050 C   0  0  0  0  0  3  0  0  0  0  0  0
  -29.7240  -20.5620   21.2530 C   0  0  1  0  0  0  0  0  0  0  0  0
  -28.9710  -18.4390   18.1440 O   0  0  0  0  0  0  0  0  0  0  0  0
  -30.8530  -20.6340   20.3550 O   0  0  0  0  0  0  0  0  0  0  0  0
  -30.6410  -15.1910   20.1020 C   0  0  0  0  0  0  0  0  0  0  0  0
  -30.5460  -12.8030   19.1960 C   0  0  0  0  0  2  0  0  0  0  0  0
  -29.5770  -12.6900   17.9950 C   0  0  0  0  0  2  0  0  0  0  0  0
  -28.1350  -12.4510   18.4780 C   0  0  0  0  0  2  0  0  0  0  0  0
  -27.7430  -13.3900   19.6470 C   0  0  0  0  0  3  0  0  0  0  0  0
  -28.8330  -13.4610   20.7380 C   0  0  0  0  0  2  0  0  0  0  0  0
  -30.0640  -13.9120   20.0780 N   0  0  0  0  0  0  0  0  0  0  0  0
  -31.8370  -15.2460   19.7940 O   0  0  0  0  0  0  0  0  0  0  0  0
  -29.8650  -16.3920   20.2930 N   0  0  0  0  0  0  0  0  0  0  0  0
  -28.8930  -16.1850   20.4640 H   0  0  0  0  0  0  0  0  0  0  0  0
  -25.4000  -13.9460   20.5010 C   0  0  0  0  0  0  0  0  0  0  0  0
  -24.3500  -13.1630   20.8920 C   0  0  0  0  0  0  0  0  0  0  0  0
  -24.8100  -11.8120   20.8080 C   0  0  0  0  0  0  0  0  0  0  0  0
  -26.4290  -13.0730   20.1940 N   0  0  0  0  0  0  0  0  0  0  0  0
  -26.0880  -11.7820   20.4460 N   0  0  0  0  0  0  0  0  0  0  0  0
  -24.0860  -10.5460   20.9920 C   0  0  0  0  0  0  0  0  0  0  0  0
  -24.5160   -9.5790   21.9270 C   0  0  0  0  0  3  0  0  0  0  0  0
  -23.7910   -8.3790   22.0990 C   0  0  0  0  0  3  0  0  0  0  0  0
  -22.6220   -8.1400   21.3390 C   0  0  0  0  0  0  0  0  0  0  0  0
  -22.2120   -9.0970   20.3930 C   0  0  0  0  0  3  0  0  0  0  0  0
  -22.9390  -10.2870   20.2180 C   0  0  0  0  0  3  0  0  0  0  0  0
  -21.8690   -6.9940   21.4200 O   0  0  0  0  0  0  0  0  0  0  0  0
  -21.7640   -6.2850   22.5900 C   0  0  0  0  0  0  0  0  0  0  0  0
  -21.2000   -6.8490   23.7550 C   0  0  0  0  0  3  0  0  0  0  0  0
  -21.0460   -6.0630   24.9140 C   0  0  0  0  0  3  0  0  0  0  0  0
  -21.4470   -4.7130   24.9090 C   0  0  0  0  0  0  0  0  0  0  0  0
  -22.0040   -4.1490   23.7480 C   0  0  0  0  0  3  0  0  0  0  0  0
  -22.1590   -4.9310   22.5920 C   0  0  0  0  0  0  0  0  0  0  0  0
  -22.6760   -4.3770   21.4690 F   0  0  0  0  0  0  0  0  0  0  0  0
  -21.2930   -3.9560   26.0210 F   0  0  0  0  0  0  0  0  0  0  0  0
  -22.9640  -13.6350   21.2260 C   0  0  0  0  0  0  0  0  0  0  0  0
  -22.2700  -12.9250   22.1080 N   0  0  0  0  0  0  0  0  0  0  0  0
  -22.5100  -14.6690   20.7400 O   0  0  0  0  0  0  0  0  0  0  0  0
  -22.6520  -12.0900   22.5230 H   0  0  0  0  0  0  0  0  0  0  0  0
  -21.3430  -13.2240   22.3730 H   0  0  0  0  0  0  0  0  0  0  0  0
  -25.5550  -15.3210   20.3500 N   0  0  0  0  0  0  0  0  0  0  0  0
  -24.7860  -15.9640   20.4970 H   0  0  0  0  0  0  0  0  0  0  0  0
  -26.3670  -15.7650   19.9430 H   0  0  0  0  0  0  0  0  0  0  0  0
  -29.1990  -23.2780   20.2580 C   0  0  0  0  0  3  0  0  0  0  0  0
  -28.1020  -24.6020   20.0790 C   0  0  0  0  0  3  0  0  0  0  0  0
  -28.3480  -26.1640   20.2800 O   0  0  0  0  0  0  0  0  0  0  0  0
  -24.7150  -31.8870   23.3430 C   0  0  0  0  0  0  0  0  0  0  0  0
  -27.3050  -27.1850   20.2300 C   0  0  0  0  0  0  0  0  0  0  0  0
  -23.5290  -30.5320   21.6620 C   0  0  0  0  0  3  0  0  0  0  0  0
  -24.9880  -28.9790   20.2130 C   0  0  0  0  0  0  0  0  0  0  0  0
  -26.0890  -30.7800   21.5300 C   0  0  0  0  0  2  0  0  0  0  0  0
  -26.1660  -29.3970   20.8440 C   0  0  0  0  0  0  0  0  0  0  0  0
  -27.3240  -28.5200   20.8300 C   0  0  0  0  0  3  0  0  0  0  0  0
  -26.0980  -26.8850   19.5630 C   0  0  0  0  0  3  0  0  0  0  0  0
  -24.9700  -27.7390   19.5550 C   0  0  0  0  0  3  0  0  0  0  0  0
  -23.7630  -29.8840   20.2700 C   0  0  0  0  0  2  0  0  0  0  0  0
  -24.7980  -31.0890   22.2330 N   0  0  0  0  0  0  0  0  0  0  0  0
  -23.6240  -32.1630   23.8650 O   0  0  0  0  0  0  0  0  0  0  0  0
  -22.8360  -29.5080   22.5960 C   0  0  0  0  0  0  0  0  0  0  0  0
  -21.5130  -29.3250   22.4370 N   0  0  0  0  0  0  0  0  0  0  0  0
  -23.4930  -28.8800   23.4300 O   0  0  0  0  0  0  0  0  0  0  0  0
  -21.0370  -29.8830   21.7430 H   0  0  0  0  0  0  0  0  0  0  0  0
  -18.1360  -28.0680   22.8430 C   0  0  0  0  0  0  0  0  0  0  0  0
  -20.6840  -28.3670   23.1780 C   0  0  0  0  0  3  0  0  0  0  0  0
  -20.8210  -26.9430   22.5910 C   0  0  0  0  0  2  0  0  0  0  0  0
  -19.7520  -26.6140   21.5460 C   0  0  0  0  0  2  0  0  0  0  0  0
  -18.3520  -26.7300   22.1550 C   0  0  0  0  0  2  0  0  0  0  0  0
  -19.2320  -28.8440   23.3080 C   0  0  0  0  0  0  0  0  0  0  0  0
  -18.9760  -30.0940   23.9120 C   0  0  0  0  0  3  0  0  0  0  0  0
  -17.6590  -30.5690   24.0540 C   0  0  0  0  0  3  0  0  0  0  0  0
  -16.5780  -29.7920   23.6040 C   0  0  0  0  0  3  0  0  0  0  0  0
  -16.8170  -28.5420   23.0040 C   0  0  0  0  0  3  0  0  0  0  0  0
  -25.9850  -32.5090   23.9970 C   0  0  0  0  0  3  0  0  0  0  0  0
  -25.6930  -33.9200   24.2970 N   0  0  0  0  0  0  0  0  0  0  0  0
  -26.0150  -34.9550   23.5090 C   0  0  0  0  0  0  0  0  0  0  0  0
  -26.6550  -34.8210   22.4630 O   0  0  0  0  0  0  0  0  0  0  0  0
  -25.1200  -34.0990   25.1100 H   0  0  0  0  0  0  0  0  0  0  0  0
  -24.2750  -36.7480   23.1920 C   0  0  0  0  0  1  0  0  0  0  0  0
  -25.5570  -36.3610   23.9480 C   0  0  0  0  0  3  0  0  0  0  0  0
  -27.7250  -37.2760   24.6510 C   0  0  0  0  0  1  0  0  0  0  0  0
  -26.5840  -37.4050   23.7480 N   0  0  0  0  0  0  0  0  0  0  0  0
  -26.1860  -38.3320   23.8730 H   0  0  0  0  0  0  0  0  0  0  0  0
  -26.4400  -31.7550   25.3080 C   0  0  1  0  0  0  0  0  0  0  0  0
  -25.3050  -31.5620   26.3410 C   0  0  0  0  0  1  0  0  0  0  0  0
  -27.0090  -30.3580   24.9710 C   0  0  0  0  0  1  0  0  0  0  0  0
  -27.5820  -32.5400   25.9950 C   0  0  0  0  0  1  0  0  0  0  0  0
  1  3  1  0
  3 17  1  0
  3  2  1  0
  4  1  1  0
  4  5  1  0
  4  8  1  6
  4  6  1  0
  5 47  1  0
  5  6  1  0
  6  2  1  1
  7  1  2  0
  8  6  1  0
  9 17  1  0
 10 15  1  0
 11 12  1  0
 11 10  1  0
 13 12  1  0
 13 22  1  0
 13 14  1  0
 15  9  1  0
 15 14  1  0
 16  9  2  0
 17 18  1  0
 19 20  2  0
 20 39  1  0
 21 20  1  0
 21 24  1  0
 22 23  1  0
 22 19  1  0
 23 21  2  0
 24 25  1  0
 25 26  2  0
 27 30  1  0
 27 26  1  0
 28 27  2  0
 29 28  1  0
 29 24  2  0
 30 31  1  0
 31 36  2  0
 31 32  1  0
 32 33  2  0
 34 33  1  0
 34 38  1  0
 35 34  2  0
 36 35  1  0
 37 36  1  0
 39 40  1  0
 40 43  1  0
 40 42  1  0
 41 39  2  0
 44 45  1  0
 44 19  1  0
 46 44  1  0
 48 47  2  0
 48 49  1  0
 50 61  2  0
 51 49  1  0
 51 56  1  0
 52 60  1  0
 52 62  1  0
 53 59  1  0
 53 55  1  0
 54 60  1  0
 55 54  1  0
 56 55  2  0
 57 51  2  0
 58 57  1  0
 58 53  2  0
 59 52  1  0
 60 50  1  0
 62 64  2  0
 63 62  1  0
 65 63  1  0
 66 75  2  0
 66 71  1  0
 67 63  1  0
 67 71  1  0
 68 67  1  0
 69 70  1  0
 69 68  1  0
 70 66  1  0
 71 72  2  0
 72 73  1  0
 74 73  2  0
 75 74  1  0
 76 50  1  0
 76 77  1  0
 76 86  1  0
 77 80  1  0
 78 82  1  0
 78 77  1  0
 79 78  2  0
 82 81  1  0
 84 85  1  0
 84 82  1  0
 84 83  1  0
 86 89  1  1
 86 87  1  0
 88 86  1  0
M  ISO  4   9 100  17 100  48 101  49 101
M  END
>  <TORSDO>  (4) 
F 18

>  <SCORE>  (4) 
-15.202

>  <name>  (4) 
3

>  <ligand_id>  (4) 
3

>  <original_smiles>  (4) 
[H]c1c([H])c([H])c2c(c1[H])C([H])([H])C([H])([H])C([H])([H])C2([H])N([H])C(=O)C1([H])N(C(=O)C([H])(N([H])C(=O)C([H])(N([H])C([H])([H])[H])C([H])([H])[H])C(C([H])([H])[H])(C([H])([H])[H])C([H])([H])[H])C([H])([H])c2c([H])c(OC([H])([H])C([H])([H])C3([H])C4([H])OC3([H])C([H])([H])C([H])(N([H])C(=O)N3C([H])([H])C([H])([H])C([H])([H])C([H])(n5nc(-c6c([H])c([H])c(Oc7c([H])c([H])c(F)c([H])c7F)c([H])c6[H])c(C(=O)N([H])[H])c5N([H])[H])C3([H])[H])C4=O)c([H])c([H])c2C1([H])[H]

>  <smiles>  (4) 
[H]c1c([H])c([H])c2c(c1[H])C([H])([H])C([H])([H])C([H])([H])C2([H])N([H])C(=O)C1([H])N(C(=O)C([H])(N([H])C(=O)C([H])(N([H])C([H])([H])[H])C([H])([H])[H])C(C([H])([H])[H])(C([H])([H])[H])C([H])([H])[H])C([H])([H])c2c([H])c(OC([H])([H])C([H])([H])C3([H])C4([H])OC3([H])C([H])([H])C([H])(N([H])C(=O)N3C([H])([H])C([H])([H])C([H])([H])C([H])(n5nc(-c6c([H])c([H])c(Oc7c([H])c([H])c(F)c([H])c7F)c([H])c6[H])c(C(=O)N([H])[H])c5N([H])[H])C3([H])[H])C4=O)c([H])c([H])c2C1([H])[H]

$$$$
4:0:0
     RDKit          3D

 92101  0  0  1  0  0  0  0  0999 V2000
  -30.4710  -15.3260   20.3300 C   0  0  0  0  0  0  0  0  0  0  0  0
  -30.4650  -12.8550   19.4990 C   0  0  0  0  0  2  0  0  0  0  0  0
  -29.5900  -12.5610   18.2550 C   0  0  0  0  0  2  0  0  0  0  0  0
  -28.1370  -12.2700   18.6700 C   0  0  0  0  0  2  0  0  0  0  0  0
  -27.6320  -13.2660   19.7430 C   0  0  0  0  0  3  0  0  0  0  0  0
  -28.6470  -13.4950   20.8840 C   0  0  0  0  0  2  0  0  0  0  0  0
  -29.8680  -14.0290   20.2480 N   0  0  0  0  0  0  0  0  0  0  0  0
  -31.7050  -15.2310   20.2330 O   0  0  0  0  0  0  0  0  0  0  0  0
  -28.3630  -16.9760   20.0630 C   0  0  0  0  0  2  0  0  0  0  0  0
  -28.8620  -21.0600   20.4900 C   0  0  0  0  0  3  0  0  0  0  0  0
  -28.3250  -19.7330   19.7660 C   0  0  0  0  0  3  0  0  0  0  0  0
  -29.7800  -19.6920   19.9720 C   0  0  0  0  0  3  0  0  0  0  0  0
  -27.7090  -18.4320   20.4180 C   0  0  0  0  0  3  0  0  0  0  0  0
  -30.3590  -18.2000   20.6110 C   0  0  0  0  0  3  0  0  0  0  0  0
  -31.8930  -18.2400   20.5200 C   0  0  0  0  0  1  0  0  0  0  0  0
  -29.8130  -16.6910   20.3430 N   0  0  0  0  0  0  0  0  0  0  0  0
  -25.2330  -13.8030   20.4120 C   0  0  0  0  0  0  0  0  0  0  0  0
  -24.1760  -13.0220   20.7820 C   0  0  0  0  0  0  0  0  0  0  0  0
  -24.6620  -11.6780   20.8000 C   0  0  0  0  0  0  0  0  0  0  0  0
  -26.2980  -12.9410   20.2280 N   0  0  0  0  0  0  0  0  0  0  0  0
  -25.9640  -11.6570   20.5290 N   0  0  0  0  0  0  0  0  0  0  0  0
  -23.9450  -10.4110   20.9920 C   0  0  0  0  0  0  0  0  0  0  0  0
  -24.3660   -9.4620   21.9500 C   0  0  0  0  0  3  0  0  0  0  0  0
  -23.6450   -8.2620   22.1330 C   0  0  0  0  0  3  0  0  0  0  0  0
  -22.4910   -8.0010   21.3570 C   0  0  0  0  0  0  0  0  0  0  0  0
  -22.0900   -8.9380   20.3890 C   0  0  0  0  0  3  0  0  0  0  0  0
  -22.8120  -10.1290   20.2050 C   0  0  0  0  0  3  0  0  0  0  0  0
  -21.7440   -6.8510   21.4480 O   0  0  0  0  0  0  0  0  0  0  0  0
  -21.6840   -6.1230   22.6100 C   0  0  0  0  0  0  0  0  0  0  0  0
  -21.2480   -6.6930   23.8250 C   0  0  0  0  0  3  0  0  0  0  0  0
  -21.1350   -5.8910   24.9780 C   0  0  0  0  0  3  0  0  0  0  0  0
  -21.4500   -4.5200   24.9200 C   0  0  0  0  0  0  0  0  0  0  0  0
  -21.8800   -3.9490   23.7080 C   0  0  0  0  0  3  0  0  0  0  0  0
  -21.9940   -4.7480   22.5570 C   0  0  0  0  0  0  0  0  0  0  0  0
  -22.3890   -4.1880   21.3880 F   0  0  0  0  0  0  0  0  0  0  0  0
  -21.3350   -3.7500   26.0250 F   0  0  0  0  0  0  0  0  0  0  0  0
  -22.7650  -13.4860   20.9850 C   0  0  0  0  0  0  0  0  0  0  0  0
  -22.0140  -12.8130   21.8480 N   0  0  0  0  0  0  0  0  0  0  0  0
  -22.3390  -14.4880   20.4090 O   0  0  0  0  0  0  0  0  0  0  0  0
  -22.3720  -12.0080   22.3390 H   0  0  0  0  0  0  0  0  0  0  0  0
  -21.0650  -13.1120   22.0240 H   0  0  0  0  0  0  0  0  0  0  0  0
  -25.3600  -15.1660   20.1550 N   0  0  0  0  0  0  0  0  0  0  0  0
  -24.4380  -15.5610   19.9930 H   0  0  0  0  0  0  0  0  0  0  0  0
  -25.9590  -15.3120   19.3540 H   0  0  0  0  0  0  0  0  0  0  0  0
  -26.2600  -18.4010   20.1510 N   0  0  0  0  0  4  0  0  0  0  0  0
  -26.0690  -18.3320   19.1670 H   0  0  0  0  0  0  0  0  0  0  0  0
  -25.8270  -19.2400   20.4960 H   0  0  0  0  0  0  0  0  0  0  0  0
  -25.8320  -17.6180   20.6190 H   0  0  0  0  0  0  0  0  0  0  0  0
  -28.8310  -22.7210   19.8720 C   0  0  0  0  0  0  0  0  0  0  0  0
  -29.6450  -22.9100   18.9630 O   0  0  0  0  0  0  0  0  0  0  0  0
  -27.8790  -24.1580   20.2610 C   0  0  0  0  0  2  0  0  0  0  0  0
  -28.1710  -25.7760   19.9940 O   0  0  0  0  0  0  0  0  0  0  0  0
  -24.6760  -31.7910   23.0530 C   0  0  0  0  0  0  0  0  0  0  0  0
  -27.1670  -26.8900   19.9990 C   0  0  0  0  0  0  0  0  0  0  0  0
  -23.4560  -30.4040   21.4280 C   0  0  0  0  0  3  0  0  0  0  0  0
  -24.8800  -28.7930   19.9870 C   0  0  0  0  0  0  0  0  0  0  0  0
  -26.0230  -30.6010   21.2480 C   0  0  0  0  0  2  0  0  0  0  0  0
  -26.0800  -29.1890   20.5900 C   0  0  0  0  0  0  0  0  0  0  0  0
  -27.2210  -28.2620   20.5650 C   0  0  0  0  0  3  0  0  0  0  0  0
  -25.9350  -26.6520   19.3510 C   0  0  0  0  0  3  0  0  0  0  0  0
  -24.8330  -27.5450   19.3460 C   0  0  0  0  0  3  0  0  0  0  0  0
  -23.6660  -29.7200   20.0490 C   0  0  0  0  0  2  0  0  0  0  0  0
  -24.7420  -30.9600   21.9630 N   0  0  0  0  0  0  0  0  0  0  0  0
  -23.5950  -32.0830   23.5890 O   0  0  0  0  0  0  0  0  0  0  0  0
  -22.7690  -29.4090   22.4000 C   0  0  0  0  0  0  0  0  0  0  0  0
  -21.4330  -29.2630   22.3060 N   0  0  0  0  0  0  0  0  0  0  0  0
  -23.4440  -28.7680   23.2100 O   0  0  0  0  0  0  0  0  0  0  0  0
  -20.9410  -29.8300   21.6310 H   0  0  0  0  0  0  0  0  0  0  0  0
  -18.0470  -28.1000   22.8970 C   0  0  0  0  0  0  0  0  0  0  0  0
  -20.6180  -28.3280   23.0900 C   0  0  0  0  0  3  0  0  0  0  0  0
  -20.6810  -26.9010   22.4960 C   0  0  0  0  0  2  0  0  0  0  0  0
  -19.5450  -26.6070   21.5090 C   0  0  0  0  0  2  0  0  0  0  0  0
  -18.1850  -26.7600   22.1960 C   0  0  0  0  0  2  0  0  0  0  0  0
  -19.1880  -28.8430   23.3040 C   0  0  0  0  0  0  0  0  0  0  0  0
  -19.0000  -30.0970   23.9250 C   0  0  0  0  0  3  0  0  0  0  0  0
  -17.7060  -30.6090   24.1400 C   0  0  0  0  0  3  0  0  0  0  0  0
  -16.5810  -29.8630   23.7480 C   0  0  0  0  0  3  0  0  0  0  0  0
  -16.7530  -28.6100   23.1330 C   0  0  0  0  0  3  0  0  0  0  0  0
  -25.9570  -32.4290   23.6720 C   0  0  0  0  0  3  0  0  0  0  0  0
  -26.5050  -31.6320   24.9190 C   0  0  1  0  0  0  0  0  0  0  0  0
  -25.4380  -31.3630   26.0060 C   0  0  0  0  0  1  0  0  0  0  0  0
  -27.0870  -30.2650   24.4900 C   0  0  0  0  0  1  0  0  0  0  0  0
  -27.6670  -32.4160   25.5740 C   0  0  0  0  0  1  0  0  0  0  0  0
  -25.6310  -33.8130   24.0600 N   0  0  0  0  0  0  0  0  0  0  0  0
  -25.9340  -34.9040   23.3430 C   0  0  0  0  0  0  0  0  0  0  0  0
  -26.5780  -34.8510   22.2920 O   0  0  0  0  0  0  0  0  0  0  0  0
  -25.0540  -33.9250   24.8800 H   0  0  0  0  0  0  0  0  0  0  0  0
  -24.1830  -36.7000   23.1180 C   0  0  0  0  0  1  0  0  0  0  0  0
  -25.4500  -36.2700   23.8730 C   0  0  0  0  0  3  0  0  0  0  0  0
  -27.5990  -37.1450   24.6800 C   0  0  0  0  0  1  0  0  0  0  0  0
  -26.4720  -37.3360   23.7730 N   0  0  0  0  0  0  0  0  0  0  0  0
  -26.0610  -38.2470   23.9620 H   0  0  0  0  0  0  0  0  0  0  0  0
  1 16  1  0
  2  7  1  0
  3  4  1  0
  3  2  1  0
  5  4  1  0
  5 20  1  0
  5  6  1  0
  7  1  1  0
  7  6  1  0
  8  1  2  0
  9 16  1  0
  9 13  1  0
 10 49  1  0
 11 12  1  0
 11 13  1  0
 11 10  1  0
 12 10  1  0
 12 14  1  0
 15 14  1  0
 16 14  1  0
 17 18  2  0
 18 19  1  0
 18 37  1  0
 19 22  1  0
 20 17  1  0
 20 21  1  0
 21 19  2  0
 22 23  1  0
 23 24  2  0
 25 28  1  0
 25 24  1  0
 26 25  2  0
 27 26  1  0
 27 22  2  0
 28 29  1  0
 29 30  1  0
 30 31  2  0
 32 31  1  0
 32 36  1  0
 33 32  2  0
 34 29  2  0
 34 33  1  0
 35 34  1  0
 37 38  1  0
 38 41  1  0
 38 40  1  0
 39 37  2  0
 42 17  1  0
 43 42  1  0
 44 42  1  0
 45 13  1  0
 45 47  1  0
 45 48  1  0
 46 45  1  0
 49 51  1  0
 50 49  2  0
 52 54  1  0
 52 51  1  0
 53 64  2  0
 53 79  1  0
 54 59  1  0
 55 63  1  0
 55 65  1  0
 56 62  1  0
 56 58  1  0
 57 63  1  0
 58 57  1  0
 59 58  2  0
 60 54  2  0
 61 60  1  0
 61 56  2  0
 62 55  1  0
 63 53  1  0
 65 67  2  0
 66 65  1  0
 66 70  1  0
 68 66  1  0
 69 78  2  0
 69 74  1  0
 70 74  1  0
 71 70  1  0
 72 73  1  0
 72 71  1  0
 73 69  1  0
 74 75  2  0
 75 76  1  0
 77 76  2  0
 78 77  1  0
 79 84  1  0
 79 80  1  0
 80 83  1  1
 80 81  1  0
 82 80  1  0
 84 87  1  0
 85 89  1  0
 85 84  1  0
 86 85  2  0
 88 89  1  0
 91 89  1  0
 91 92  1  0
 91 90  1  0
M  ISO  4   1 100  16 100  51 101  52 101
M  END
>  <TORSDO>  (5) 
F 18

>  <SCORE>  (5) 
-16.234

>  <name>  (5) 
4

>  <ligand_id>  (5) 
4

>  <original_smiles>  (5) 
[H]c1c([H])c([H])c2c(c1[H])C([H])([H])C([H])([H])C([H])([H])C2([H])N([H])C(=O)C1([H])N(C(=O)C([H])(N([H])C(=O)C([H])(N([H])C([H])([H])[H])C([H])([H])[H])C(C([H])([H])[H])(C([H])([H])[H])C([H])([H])[H])C([H])([H])c2c([H])c(OC([H])([H])C(=O)C3([H])C4([H])C([H])(C([H])([H])[H])N(C(=O)N5C([H])([H])C([H])([H])C([H])([H])C([H])(n6nc(-c7c([H])c([H])c(Oc8c([H])c([H])c(F)c([H])c8F)c([H])c7[H])c(C(=O)N([H])[H])c6N([H])[H])C5([H])[H])C([H])([H])C([H])([N+]([H])([H])[H])C34[H])c([H])c([H])c2C1([H])[H]

>  <smiles>  (5) 
[H]c1c([H])c([H])c2c(c1[H])C([H])([H])C([H])([H])C([H])([H])C2([H])N([H])C(=O)C1([H])N(C(=O)C([H])(N([H])C(=O)C([H])(N([H])C([H])([H])[H])C([H])([H])[H])C(C([H])([H])[H])(C([H])([H])[H])C([H])([H])[H])C([H])([H])c2c([H])c(OC([H])([H])C(=O)C3([H])C4([H])C([H])(C([H])([H])[H])N(C(=O)N5C([H])([H])C([H])([H])C([H])([H])C([H])(n6nc(-c7c([H])c([H])c(Oc8c([H])c([H])c(F)c([H])c8F)c([H])c7[H])c(C(=O)N([H])[H])c6N([H])[H])C5([H])[H])C([H])([H])C([H])([N+]([H])([H])[H])C34[H])c([H])c([H])c2C1([H])[H]

$$$$
5:0:0
     RDKit          3D

 96104  0  0  1  0  0  0  0  0999 V2000
  -31.5820  -22.8640   21.1200 C   0  0  0  0  0  2  0  0  0  0  0  0
  -30.1330  -22.7120   20.8810 N   0  0  0  0  0  4  0  0  0  0  0  0
  -29.7720  -22.1480   21.6340 H   0  0  0  0  0  0  0  0  0  0  0  0
  -29.9730  -22.2000   20.0260 H   0  0  0  0  0  0  0  0  0  0  0  0
  -29.3510  -23.9700   20.8070 C   0  0  0  0  0  2  0  0  0  0  0  0
  -29.5280  -23.6910   18.2710 C   0  0  0  0  0  1  0  0  0  0  0  0
  -29.4630  -24.6990   19.4410 C   0  0  0  0  0  3  0  0  0  0  0  0
  -28.2540  -25.6350   19.1970 C   0  0  0  0  0  2  0  0  0  0  0  0
  -28.2210  -26.8290   19.9950 O   0  0  0  0  0  0  0  0  0  0  0  0
  -24.4930  -31.9770   23.2420 C   0  0  0  0  0  0  0  0  0  0  0  0
  -27.0390  -27.5590   20.0160 C   0  0  0  0  0  0  0  0  0  0  0  0
  -23.2440  -30.6070   21.6130 C   0  0  0  0  0  3  0  0  0  0  0  0
  -24.6530  -29.0930   20.1290 C   0  0  0  0  0  0  0  0  0  0  0  0
  -25.7690  -30.9560   21.3560 C   0  0  0  0  0  2  0  0  0  0  0  0
  -25.8320  -29.5920   20.6950 C   0  0  0  0  0  0  0  0  0  0  0  0
  -27.0230  -28.8280   20.6430 C   0  0  0  0  0  3  0  0  0  0  0  0
  -25.8300  -27.0860   19.4400 C   0  0  0  0  0  3  0  0  0  0  0  0
  -24.6470  -27.8410   19.5020 C   0  0  0  0  0  3  0  0  0  0  0  0
  -23.4160  -29.9560   20.2170 C   0  0  0  0  0  2  0  0  0  0  0  0
  -24.5230  -31.1900   22.1310 N   0  0  0  0  0  0  0  0  0  0  0  0
  -23.4230  -32.2430   23.8100 O   0  0  0  0  0  0  0  0  0  0  0  0
  -22.6120  -29.5670   22.5690 C   0  0  0  0  0  0  0  0  0  0  0  0
  -21.2870  -29.3700   22.4530 N   0  0  0  0  0  0  0  0  0  0  0  0
  -23.3100  -28.9440   23.3730 O   0  0  0  0  0  0  0  0  0  0  0  0
  -20.7840  -29.9270   21.7760 H   0  0  0  0  0  0  0  0  0  0  0  0
  -17.9360  -28.1110   22.9510 C   0  0  0  0  0  0  0  0  0  0  0  0
  -20.4880  -28.4210   23.2280 C   0  0  0  0  0  3  0  0  0  0  0  0
  -20.6210  -26.9870   22.6620 C   0  0  0  0  0  2  0  0  0  0  0  0
  -19.5270  -26.6340   21.6490 C   0  0  0  0  0  2  0  0  0  0  0  0
  -18.1400  -26.7600   22.2880 C   0  0  0  0  0  2  0  0  0  0  0  0
  -19.0390  -28.8970   23.3800 C   0  0  0  0  0  0  0  0  0  0  0  0
  -18.7920  -30.1620   23.9580 C   0  0  0  0  0  3  0  0  0  0  0  0
  -17.4750  -30.6370   24.1150 C   0  0  0  0  0  3  0  0  0  0  0  0
  -16.3890  -29.8470   23.7020 C   0  0  0  0  0  3  0  0  0  0  0  0
  -16.6210  -28.5880   23.1230 C   0  0  0  0  0  3  0  0  0  0  0  0
  -25.7920  -32.5990   23.8400 C   0  0  0  0  0  3  0  0  0  0  0  0
  -25.5040  -34.0020   24.1640 N   0  0  0  0  0  0  0  0  0  0  0  0
  -25.8390  -35.0450   23.3920 C   0  0  0  0  0  0  0  0  0  0  0  0
  -26.4940  -34.9260   22.3530 O   0  0  0  0  0  0  0  0  0  0  0  0
  -24.9310  -34.1720   24.9780 H   0  0  0  0  0  0  0  0  0  0  0  0
  -24.1340  -36.8580   23.0300 C   0  0  0  0  0  1  0  0  0  0  0  0
  -25.3700  -36.4410   23.8440 C   0  0  0  0  0  3  0  0  0  0  0  0
  -27.5150  -37.2990   24.6740 C   0  0  0  0  0  1  0  0  0  0  0  0
  -26.4170  -37.4780   23.7280 N   0  0  0  0  0  0  0  0  0  0  0  0
  -26.0250  -38.4050   23.8710 H   0  0  0  0  0  0  0  0  0  0  0  0
  -26.3210  -31.8300   25.1110 C   0  0  1  0  0  0  0  0  0  0  0  0
  -25.2400  -31.6070   26.1950 C   0  0  0  0  0  1  0  0  0  0  0  0
  -26.8880  -30.4480   24.7120 C   0  0  0  0  0  1  0  0  0  0  0  0
  -27.4850  -32.6190   25.7550 C   0  0  0  0  0  1  0  0  0  0  0  0
  -32.3870  -21.6330   20.6550 C   0  0  0  0  0  2  0  0  0  0  0  0
  -31.0770  -18.0240   20.5120 C   0  0  0  0  0  3  0  0  0  0  0  0
  -31.4360  -19.3400   20.1530 C   0  0  0  0  0  3  0  0  0  0  0  0
  -31.5420  -18.5570   22.8370 C   0  0  0  0  0  3  0  0  0  0  0  0
  -31.1600  -17.6150   21.8600 C   0  0  0  0  0  0  0  0  0  0  0  0
  -31.8730  -20.2700   21.1260 C   0  0  0  0  0  0  0  0  0  0  0  0
  -31.8940  -19.8810   22.4900 C   0  0  0  0  0  0  0  0  0  0  0  0
  -32.3130  -20.8360   23.6000 C   0  0  0  0  0  1  0  0  0  0  0  0
  -30.9190  -16.1800   22.3220 C   0  0  0  0  0  2  0  0  0  0  0  0
  -30.6550  -14.5250   20.4510 C   0  0  0  0  0  0  0  0  0  0  0  0
  -30.3390  -12.4630   19.1200 C   0  0  0  0  0  2  0  0  0  0  0  0
  -29.3610  -12.6490   17.9450 C   0  0  0  0  0  2  0  0  0  0  0  0
  -27.9030  -12.4580   18.4020 C   0  0  0  0  0  2  0  0  0  0  0  0
  -27.5700  -13.2670   19.6820 C   0  0  0  0  0  3  0  0  0  0  0  0
  -28.6390  -13.0350   20.7660 C   0  0  0  0  0  2  0  0  0  0  0  0
  -29.9550  -13.3870   20.1970 N   0  0  0  0  0  0  0  0  0  0  0  0
  -31.6890  -14.8310   19.8490 O   0  0  0  0  0  0  0  0  0  0  0  0
  -30.1680  -15.2670   21.4560 N   0  0  0  0  0  0  0  0  0  0  0  0
  -29.2950  -14.9420   21.8420 H   0  0  0  0  0  0  0  0  0  0  0  0
  -25.1680  -13.8150   20.4280 C   0  0  0  0  0  0  0  0  0  0  0  0
  -24.1250  -13.0170   20.8120 C   0  0  0  0  0  0  0  0  0  0  0  0
  -24.6180  -11.6780   20.7700 C   0  0  0  0  0  0  0  0  0  0  0  0
  -26.2300  -12.9600   20.1770 N   0  0  0  0  0  0  0  0  0  0  0  0
  -25.9040  -11.6690   20.4380 N   0  0  0  0  0  0  0  0  0  0  0  0
  -23.9280  -10.3990   20.9690 C   0  0  0  0  0  0  0  0  0  0  0  0
  -24.3540   -9.4760   21.9490 C   0  0  0  0  0  3  0  0  0  0  0  0
  -23.6650   -8.2570   22.1330 C   0  0  0  0  0  3  0  0  0  0  0  0
  -22.5340   -7.9550   21.3350 C   0  0  0  0  0  0  0  0  0  0  0  0
  -22.1280   -8.8680   20.3460 C   0  0  0  0  0  3  0  0  0  0  0  0
  -22.8170  -10.0780   20.1610 C   0  0  0  0  0  3  0  0  0  0  0  0
  -21.8170   -6.7880   21.4280 O   0  0  0  0  0  0  0  0  0  0  0  0
  -21.7040   -6.1030   22.6100 C   0  0  0  0  0  0  0  0  0  0  0  0
  -21.1550   -6.6980   23.7660 C   0  0  0  0  0  3  0  0  0  0  0  0
  -20.9930   -5.9360   24.9410 C   0  0  0  0  0  3  0  0  0  0  0  0
  -21.3680   -4.5800   24.9590 C   0  0  0  0  0  0  0  0  0  0  0  0
  -21.9070   -3.9840   23.8070 C   0  0  0  0  0  3  0  0  0  0  0  0
  -22.0720   -4.7420   22.6340 C   0  0  0  0  0  0  0  0  0  0  0  0
  -22.5740   -4.1560   21.5200 F   0  0  0  0  0  0  0  0  0  0  0  0
  -21.2040   -3.8470   26.0860 F   0  0  0  0  0  0  0  0  0  0  0  0
  -22.7210  -13.4620   21.1070 C   0  0  0  0  0  0  0  0  0  0  0  0
  -22.0220  -12.7470   21.9820 N   0  0  0  0  0  0  0  0  0  0  0  0
  -22.2500  -14.4760   20.5940 O   0  0  0  0  0  0  0  0  0  0  0  0
  -22.4140  -11.9300   22.4250 H   0  0  0  0  0  0  0  0  0  0  0  0
  -21.0770  -13.0240   22.2160 H   0  0  0  0  0  0  0  0  0  0  0  0
  -25.2970  -15.1890   20.2520 N   0  0  0  0  0  0  0  0  0  0  0  0
  -24.5210  -15.8290   20.3840 H   0  0  0  0  0  0  0  0  0  0  0  0
  -26.1350  -15.6460   19.9160 H   0  0  0  0  0  0  0  0  0  0  0  0
  2  1  1  0
  2  3  1  0
  4  2  1  0
  5  2  1  0
  7  6  1  0
  7  5  1  0
  8  7  1  0
  8  9  1  0
  9 11  1  0
 10 21  2  0
 11 16  1  0
 12 20  1  0
 12 22  1  0
 13 19  1  0
 13 15  1  0
 14 20  1  0
 15 14  1  0
 16 15  2  0
 17 18  1  0
 17 11  2  0
 18 13  2  0
 19 12  1  0
 20 10  1  0
 22 24  2  0
 23 22  1  0
 25 23  1  0
 26 35  2  0
 26 31  1  0
 27 23  1  0
 27 31  1  0
 28 27  1  0
 29 30  1  0
 29 28  1  0
 30 26  1  0
 31 32  2  0
 32 33  1  0
 34 33  2  0
 35 34  1  0
 36 10  1  0
 36 37  1  0
 36 46  1  0
 37 40  1  0
 38 42  1  0
 38 37  1  0
 39 38  2  0
 42 41  1  0
 44 42  1  0
 44 45  1  0
 44 43  1  0
 46 49  1  1
 46 47  1  0
 48 46  1  0
 50  1  1  0
 50 55  1  0
 51 54  1  0
 52 51  2  0
 52 55  1  0
 54 58  1  0
 54 53  2  0
 55 56  2  0
 56 53  1  0
 56 57  1  0
 59 67  1  0
 60 65  1  0
 61 62  1  0
 61 60  1  0
 63 62  1  0
 63 72  1  0
 63 64  1  0
 65 59  1  0
 65 64  1  0
 66 59  2  0
 67 68  1  0
 67 58  1  0
 69 70  2  0
 70 89  1  0
 71 70  1  0
 71 74  1  0
 72 69  1  0
 72 73  1  0
 73 71  2  0
 74 75  1  0
 75 76  2  0
 77 80  1  0
 77 76  1  0
 78 77  2  0
 79 78  1  0
 79 74  2  0
 80 81  1  0
 81 86  2  0
 81 82  1  0
 82 83  2  0
 83 84  1  0
 84 88  1  0
 85 84  2  0
 86 85  1  0
 87 86  1  0
 89 90  1  0
 90 93  1  0
 90 92  1  0
 91 89  2  0
 94 95  1  0
 94 69  1  0
 96 94  1  0
M  ISO  4   8 101   9 101  59 100  67 100
M  END
>  <TORSDO>  (6) 
F 23

>  <SCORE>  (6) 
-12.468

>  <name>  (6) 
5

>  <ligand_id>  (6) 
5

>  <original_smiles>  (6) 
[H]c1c([H])c([H])c2c(c1[H])C([H])([H])C([H])([H])C([H])([H])C2([H])N([H])C(=O)C1([H])N(C(=O)C([H])(N([H])C(=O)C([H])(N([H])C([H])([H])[H])C([H])([H])[H])C(C([H])([H])[H])(C([H])([H])[H])C([H])([H])[H])C([H])([H])c2c([H])c(OC([H])([H])C([H])(C([H])([H])[H])C([H])([H])[N+]([H])([H])C([H])([H])C([H])([H])c3c([H])c([H])c(C([H])([H])N([H])C(=O)N4C([H])([H])C([H])([H])C([H])([H])C([H])(n5nc(-c6c([H])c([H])c(Oc7c([H])c([H])c(F)c([H])c7F)c([H])c6[H])c(C(=O)N([H])[H])c5N([H])[H])C4([H])[H])c([H])c3C([H])([H])[H])c([H])c([H])c2C1([H])[H]

>  <smiles>  (6) 
[H]c1c([H])c([H])c2c(c1[H])C([H])([H])C([H])([H])C([H])([H])C2([H])N([H])C(=O)C1([H])N(C(=O)C([H])(N([H])C(=O)C([H])(N([H])C([H])([H])[H])C([H])([H])[H])C(C([H])([H])[H])(C([H])([H])[H])C([H])([H])[H])C([H])([H])c2c([H])c(OC([H])([H])C([H])(C([H])([H])[H])C([H])([H])[N+]([H])([H])C([H])([H])C([H])([H])c3c([H])c([H])c(C([H])([H])N([H])C(=O)N4C([H])([H])C([H])([H])C([H])([H])C([H])(n5nc(-c6c([H])c([H])c(Oc7c([H])c([H])c(F)c([H])c7F)c([H])c6[H])c(C(=O)N([H])[H])c5N([H])[H])C4([H])[H])c([H])c3C([H])([H])[H])c([H])c([H])c2C1([H])[H]

$$$$
6:0:0
     RDKit          3D

 93102  0  0  1  0  0  0  0  0999 V2000
  -27.8890  -22.1990   19.2900 C   0  0  0  0  0  2  0  0  0  0  0  0
  -28.1100  -19.6270   20.3930 C   0  0  0  0  0  2  0  0  0  0  0  0
  -27.9190  -21.2010   20.4940 C   0  0  0  0  0  3  0  0  0  0  0  0
  -29.2200  -21.8780   20.8520 C   0  0  0  0  0  3  0  0  0  0  0  0
  -28.7810  -23.2570   20.0230 C   0  0  0  0  0  3  0  0  0  0  0  0
  -29.6100  -19.2370   20.1370 C   0  0  0  0  0  3  0  0  0  0  0  0
  -30.2870  -20.6770   20.5480 C   0  0  0  0  0  3  0  0  0  0  0  0
  -30.2960  -17.7640   20.6780 C   0  0  0  0  0  2  0  0  0  0  0  0
  -30.6170  -15.0420   20.3190 C   0  0  0  0  0  0  0  0  0  0  0  0
  -30.4850  -12.6820   19.3830 C   0  0  0  0  0  2  0  0  0  0  0  0
  -29.5470  -12.6060   18.1570 C   0  0  0  0  0  2  0  0  0  0  0  0
  -28.0880  -12.3890   18.6010 C   0  0  0  0  0  2  0  0  0  0  0  0
  -27.6800  -13.3320   19.7630 C   0  0  0  0  0  3  0  0  0  0  0  0
  -28.7400  -13.3780   20.8840 C   0  0  0  0  0  2  0  0  0  0  0  0
  -30.0020  -13.7910   20.2560 N   0  0  0  0  0  0  0  0  0  0  0  0
  -31.8300  -15.0770   20.0910 O   0  0  0  0  0  0  0  0  0  0  0  0
  -29.8670  -16.2520   20.4380 N   0  0  0  0  0  0  0  0  0  0  0  0
  -28.8720  -16.0940   20.4970 H   0  0  0  0  0  0  0  0  0  0  0  0
  -25.3050  -13.9120   20.5150 C   0  0  0  0  0  0  0  0  0  0  0  0
  -24.2390  -13.1380   20.8830 C   0  0  0  0  0  0  0  0  0  0  0  0
  -24.7010  -11.7870   20.8450 C   0  0  0  0  0  0  0  0  0  0  0  0
  -26.3450  -13.0320   20.2690 N   0  0  0  0  0  0  0  0  0  0  0  0
  -25.9910  -11.7480   20.5340 N   0  0  0  0  0  0  0  0  0  0  0  0
  -23.9710  -10.5260   21.0280 C   0  0  0  0  0  0  0  0  0  0  0  0
  -24.3920   -9.5580   21.9670 C   0  0  0  0  0  3  0  0  0  0  0  0
  -23.6610   -8.3620   22.1400 C   0  0  0  0  0  3  0  0  0  0  0  0
  -22.4940   -8.1260   21.3730 C   0  0  0  0  0  0  0  0  0  0  0  0
  -22.0930   -9.0830   20.4250 C   0  0  0  0  0  3  0  0  0  0  0  0
  -22.8240  -10.2700   20.2510 C   0  0  0  0  0  3  0  0  0  0  0  0
  -21.7350   -6.9840   21.4560 O   0  0  0  0  0  0  0  0  0  0  0  0
  -21.6600   -6.2520   22.6130 C   0  0  0  0  0  0  0  0  0  0  0  0
  -21.1840   -6.8090   23.8190 C   0  0  0  0  0  3  0  0  0  0  0  0
  -21.0580   -6.0010   24.9670 C   0  0  0  0  0  3  0  0  0  0  0  0
  -21.3990   -4.6360   24.9100 C   0  0  0  0  0  0  0  0  0  0  0  0
  -21.8710   -4.0790   23.7070 C   0  0  0  0  0  3  0  0  0  0  0  0
  -21.9980   -4.8840   22.5620 C   0  0  0  0  0  0  0  0  0  0  0  0
  -22.4300   -4.3360   21.4010 F   0  0  0  0  0  0  0  0  0  0  0  0
  -21.2720   -3.8580   26.0090 F   0  0  0  0  0  0  0  0  0  0  0  0
  -22.8450  -13.6180   21.1540 C   0  0  0  0  0  0  0  0  0  0  0  0
  -22.1120  -12.9170   22.0120 N   0  0  0  0  0  0  0  0  0  0  0  0
  -22.4120  -14.6490   20.6420 O   0  0  0  0  0  0  0  0  0  0  0  0
  -22.4760  -12.0820   22.4470 H   0  0  0  0  0  0  0  0  0  0  0  0
  -21.1750  -13.2180   22.2380 H   0  0  0  0  0  0  0  0  0  0  0  0
  -25.4690  -15.2830   20.3430 N   0  0  0  0  0  0  0  0  0  0  0  0
  -24.6980  -15.9320   20.4550 H   0  0  0  0  0  0  0  0  0  0  0  0
  -26.3060  -15.7230   19.9810 H   0  0  0  0  0  0  0  0  0  0  0  0
  -31.4110  -21.1060   19.5800 C   0  0  0  0  0  2  0  0  0  0  0  0
  -32.3210  -22.0960   20.1830 N   0  0  0  0  0  4  0  0  0  0  0  0
  -31.8200  -22.9010   20.5110 H   0  0  0  0  0  0  0  0  0  0  0  0
  -32.9970  -22.3990   19.5030 H   0  0  0  0  0  0  0  0  0  0  0  0
  -32.8240  -21.6920   20.9540 H   0  0  0  0  0  0  0  0  0  0  0  0
  -28.0520  -24.6830   20.6020 C   0  0  0  0  0  2  0  0  0  0  0  0
  -28.2860  -26.1910   20.2390 O   0  0  0  0  0  0  0  0  0  0  0  0
  -24.5830  -31.8870   23.1930 C   0  0  0  0  0  0  0  0  0  0  0  0
  -27.2180  -27.1650   20.2150 C   0  0  0  0  0  0  0  0  0  0  0  0
  -23.4050  -30.4740   21.5520 C   0  0  0  0  0  3  0  0  0  0  0  0
  -24.8750  -28.8980   20.1500 C   0  0  0  0  0  0  0  0  0  0  0  0
  -25.9590  -30.7520   21.4070 C   0  0  0  0  0  2  0  0  0  0  0  0
  -26.0480  -29.3560   20.7640 C   0  0  0  0  0  0  0  0  0  0  0  0
  -27.2220  -28.5080   20.7740 C   0  0  0  0  0  3  0  0  0  0  0  0
  -26.0190  -26.8090   19.5610 C   0  0  0  0  0  3  0  0  0  0  0  0
  -24.8750  -27.6370   19.5320 C   0  0  0  0  0  3  0  0  0  0  0  0
  -23.6410  -29.7890   20.1800 C   0  0  0  0  0  2  0  0  0  0  0  0
  -24.6690  -31.0610   22.1050 N   0  0  0  0  0  0  0  0  0  0  0  0
  -23.4910  -32.1660   23.7120 O   0  0  0  0  0  0  0  0  0  0  0  0
  -22.7270  -29.4670   22.5130 C   0  0  0  0  0  0  0  0  0  0  0  0
  -21.3980  -29.3000   22.3870 N   0  0  0  0  0  0  0  0  0  0  0  0
  -23.3960  -28.8390   23.3350 O   0  0  0  0  0  0  0  0  0  0  0  0
  -20.9130  -29.8610   21.7000 H   0  0  0  0  0  0  0  0  0  0  0  0
  -18.0090  -28.1230   22.9040 C   0  0  0  0  0  0  0  0  0  0  0  0
  -20.5730  -28.3640   23.1570 C   0  0  0  0  0  3  0  0  0  0  0  0
  -20.6580  -26.9340   22.5740 C   0  0  0  0  0  2  0  0  0  0  0  0
  -19.5470  -26.6290   21.5630 C   0  0  0  0  0  2  0  0  0  0  0  0
  -18.1700  -26.7790   22.2160 C   0  0  0  0  0  2  0  0  0  0  0  0
  -19.1380  -28.8760   23.3310 C   0  0  0  0  0  0  0  0  0  0  0  0
  -18.9300  -30.1350   23.9340 C   0  0  0  0  0  3  0  0  0  0  0  0
  -17.6290  -30.6410   24.1160 C   0  0  0  0  0  3  0  0  0  0  0  0
  -16.5180  -29.8860   23.7070 C   0  0  0  0  0  3  0  0  0  0  0  0
  -16.7080  -28.6300   23.1050 C   0  0  0  0  0  3  0  0  0  0  0  0
  -25.8510  -32.5340   23.8260 C   0  0  0  0  0  3  0  0  0  0  0  0
  -26.3550  -31.7760   25.1170 C   0  0  1  0  0  0  0  0  0  0  0  0
  -25.2480  -31.5390   26.1720 C   0  0  0  0  0  1  0  0  0  0  0  0
  -26.9530  -30.3990   24.7490 C   0  0  0  0  0  1  0  0  0  0  0  0
  -27.4910  -32.5840   25.7860 C   0  0  0  0  0  1  0  0  0  0  0  0
  -25.5260  -33.9320   24.1500 N   0  0  0  0  0  0  0  0  0  0  0  0
  -25.8630  -34.9900   23.3990 C   0  0  0  0  0  0  0  0  0  0  0  0
  -26.5490  -34.8920   22.3780 O   0  0  0  0  0  0  0  0  0  0  0  0
  -24.9190  -34.0790   24.9430 H   0  0  0  0  0  0  0  0  0  0  0  0
  -24.1430  -36.7870   23.0170 C   0  0  0  0  0  1  0  0  0  0  0  0
  -25.3650  -36.3760   23.8540 C   0  0  0  0  0  3  0  0  0  0  0  0
  -27.4750  -37.2630   24.7440 C   0  0  0  0  0  1  0  0  0  0  0  0
  -26.3990  -37.4330   23.7720 N   0  0  0  0  0  0  0  0  0  0  0  0
  -25.9860  -38.3500   23.9160 H   0  0  0  0  0  0  0  0  0  0  0  0
  1  5  1  0
  2  3  1  0
  3  1  1  0
  3  4  1  0
  5 52  1  0
  5  4  1  0
  6  2  1  0
  6  7  1  0
  6  8  1  0
  7  4  1  0
  9 17  1  0
 10 15  1  0
 11 12  1  0
 11 10  1  0
 12 13  1  0
 13 22  1  0
 13 14  1  0
 15  9  1  0
 15 14  1  0
 16  9  2  0
 17 18  1  0
 17  8  1  0
 19 20  2  0
 20 39  1  0
 21 20  1  0
 21 24  1  0
 22 19  1  0
 22 23  1  0
 23 21  2  0
 24 25  1  0
 25 26  2  0
 27 30  1  0
 27 26  1  0
 28 27  2  0
 29 28  1  0
 29 24  2  0
 30 31  1  0
 31 32  1  0
 32 33  2  0
 34 33  1  0
 34 38  1  0
 35 34  2  0
 36 31  2  0
 36 35  1  0
 37 36  1  0
 39 40  1  0
 40 43  1  0
 40 42  1  0
 41 39  2  0
 44 45  1  0
 44 19  1  0
 46 44  1  0
 47 48  1  0
 47  7  1  0
 48 49  1  0
 48 51  1  0
 50 48  1  0
 53 52  1  0
 54 65  2  0
 54 80  1  0
 55 53  1  0
 55 60  1  0
 56 64  1  0
 56 66  1  0
 57 63  1  0
 57 59  1  0
 58 64  1  0
 59 60  2  0
 59 58  1  0
 61 55  2  0
 62 61  1  0
 62 57  2  0
 63 56  1  0
 64 54  1  0
 66 68  2  0
 67 66  1  0
 67 71  1  0
 69 67  1  0
 70 79  2  0
 70 75  1  0
 71 75  1  0
 72 71  1  0
 73 74  1  0
 73 72  1  0
 74 70  1  0
 75 76  2  0
 76 77  1  0
 78 77  2  0
 79 78  1  0
 80 85  1  0
 80 81  1  0
 81 84  1  1
 81 82  1  0
 83 81  1  0
 85 88  1  0
 86 90  1  0
 86 85  1  0
 87 86  2  0
 89 90  1  0
 92 90  1  0
 92 93  1  0
 92 91  1  0
M  ISO  4   9 100  17 100  52 101  53 101
M  END
>  <TORSDO>  (7) 
F 20

>  <SCORE>  (7) 
-15.328

>  <name>  (7) 
6

>  <ligand_id>  (7) 
6

>  <original_smiles>  (7) 
[H]c1c([H])c([H])c2c(c1[H])C([H])([H])C([H])([H])C([H])([H])C2([H])N([H])C(=O)C1([H])N(C(=O)C([H])(N([H])C(=O)C([H])(N([H])C([H])([H])[H])C([H])([H])[H])C(C([H])([H])[H])(C([H])([H])[H])C([H])([H])[H])C([H])([H])c2c([H])c(OC([H])([H])C3([H])C([H])([H])C4([H])C([H])([H])C([H])(C([H])([H])N([H])C(=O)N5C([H])([H])C([H])([H])C([H])([H])C([H])(n6nc(-c7c([H])c([H])c(Oc8c([H])c([H])c(F)c([H])c8F)c([H])c7[H])c(C(=O)N([H])[H])c6N([H])[H])C5([H])[H])C([H])(C([H])([H])[N+]([H])([H])[H])C34[H])c([H])c([H])c2C1([H])[H]

>  <smiles>  (7) 
[H]c1c([H])c([H])c2c(c1[H])C([H])([H])C([H])([H])C([H])([H])C2([H])N([H])C(=O)C1([H])N(C(=O)C([H])(N([H])C(=O)C([H])(N([H])C([H])([H])[H])C([H])([H])[H])C(C([H])([H])[H])(C([H])([H])[H])C([H])([H])[H])C([H])([H])c2c([H])c(OC([H])([H])C3([H])C([H])([H])C4([H])C([H])([H])C([H])(C([H])([H])N([H])C(=O)N5C([H])([H])C([H])([H])C([H])([H])C([H])(n6nc(-c7c([H])c([H])c(Oc8c([H])c([H])c(F)c([H])c8F)c([H])c7[H])c(C(=O)N([H])[H])c6N([H])[H])C5([H])[H])C([H])(C([H])([H])[N+]([H])([H])[H])C34[H])c([H])c([H])c2C1([H])[H]

$$$$
7:0:0
     RDKit          3D

 96105  0  0  1  0  0  0  0  0999 V2000
  -29.1970  -18.3830   19.7850 C   0  0  0  0  0  2  0  0  0  0  0  0
  -30.6800  -18.0200   21.6780 C   0  0  0  0  0  2  0  0  0  0  0  0
  -29.5930  -19.9080   19.6210 C   0  0  0  0  0  3  0  0  0  0  0  0
  -30.6660  -20.4320   20.5400 C   0  0  0  0  0  3  0  0  0  0  0  0
  -31.2580  -19.4770   21.6090 C   0  0  0  0  0  3  0  0  0  0  0  0
  -30.3290  -17.3960   20.3070 C   0  0  0  0  0  3  0  0  0  0  0  0
  -29.3120  -21.1540   20.5700 C   0  0  0  0  0  3  0  0  0  0  0  0
  -30.7640  -14.7640   20.1600 C   0  0  0  0  0  0  0  0  0  0  0  0
  -30.5310  -12.4690   19.1890 C   0  0  0  0  0  2  0  0  0  0  0  0
  -29.5770  -12.5430   17.9770 C   0  0  0  0  0  2  0  0  0  0  0  0
  -28.1080  -12.4020   18.4260 C   0  0  0  0  0  2  0  0  0  0  0  0
  -27.7680  -13.3070   19.6410 C   0  0  0  0  0  3  0  0  0  0  0  0
  -28.8410  -13.2100   20.7470 C   0  0  0  0  0  2  0  0  0  0  0  0
  -30.1330  -13.5400   20.1310 N   0  0  0  0  0  0  0  0  0  0  0  0
  -31.9430  -14.8540   19.8000 O   0  0  0  0  0  0  0  0  0  0  0  0
  -29.9960  -15.8980   20.3970 N   0  0  0  0  0  0  0  0  0  0  0  0
  -29.0410  -15.6890   20.6470 H   0  0  0  0  0  0  0  0  0  0  0  0
  -25.4100  -13.9500   20.4180 C   0  0  0  0  0  0  0  0  0  0  0  0
  -24.3330  -13.2020   20.8100 C   0  0  0  0  0  0  0  0  0  0  0  0
  -24.7630  -11.8400   20.7670 C   0  0  0  0  0  0  0  0  0  0  0  0
  -26.4270  -13.0480   20.1570 N   0  0  0  0  0  0  0  0  0  0  0  0
  -26.0460  -11.7730   20.4280 N   0  0  0  0  0  0  0  0  0  0  0  0
  -24.0100  -10.5950   20.9680 C   0  0  0  0  0  0  0  0  0  0  0  0
  -24.4260   -9.6240   21.9050 C   0  0  0  0  0  3  0  0  0  0  0  0
  -23.6750   -8.4440   22.0930 C   0  0  0  0  0  3  0  0  0  0  0  0
  -22.4920   -8.2270   21.3470 C   0  0  0  0  0  0  0  0  0  0  0  0
  -22.0950   -9.1880   20.3990 C   0  0  0  0  0  3  0  0  0  0  0  0
  -22.8470  -10.3590   20.2080 C   0  0  0  0  0  3  0  0  0  0  0  0
  -21.7120   -7.1020   21.4450 O   0  0  0  0  0  0  0  0  0  0  0  0
  -21.6420   -6.3730   22.6060 C   0  0  0  0  0  0  0  0  0  0  0  0
  -21.1950   -6.9430   23.8180 C   0  0  0  0  0  3  0  0  0  0  0  0
  -21.0740   -6.1410   24.9710 C   0  0  0  0  0  3  0  0  0  0  0  0
  -21.3890   -4.7700   24.9110 C   0  0  0  0  0  0  0  0  0  0  0  0
  -21.8290   -4.2000   23.7040 C   0  0  0  0  0  3  0  0  0  0  0  0
  -21.9520   -4.9990   22.5540 C   0  0  0  0  0  0  0  0  0  0  0  0
  -22.3560   -4.4400   21.3880 F   0  0  0  0  0  0  0  0  0  0  0  0
  -21.2650   -3.9970   26.0160 F   0  0  0  0  0  0  0  0  0  0  0  0
  -22.9550  -13.7140   21.1090 C   0  0  0  0  0  0  0  0  0  0  0  0
  -22.2240  -13.0340   21.9860 N   0  0  0  0  0  0  0  0  0  0  0  0
  -22.5350  -14.7510   20.5990 O   0  0  0  0  0  0  0  0  0  0  0  0
  -22.5760  -12.1940   22.4220 H   0  0  0  0  0  0  0  0  0  0  0  0
  -21.2980  -13.3600   22.2240 H   0  0  0  0  0  0  0  0  0  0  0  0
  -25.6030  -15.3180   20.2400 N   0  0  0  0  0  0  0  0  0  0  0  0
  -24.8470  -15.9840   20.3520 H   0  0  0  0  0  0  0  0  0  0  0  0
  -26.4400  -15.7330   19.8510 H   0  0  0  0  0  0  0  0  0  0  0  0
  -28.8640  -23.7570   20.6230 C   0  0  0  0  0  0  0  0  0  0  0  0
  -29.2070  -22.5540   20.0170 N   0  0  0  0  0  0  0  0  0  0  0  0
  -28.7120  -23.8100   21.8460 O   0  0  0  0  0  0  0  0  0  0  0  0
  -29.3160  -22.6190   19.0130 H   0  0  0  0  0  0  0  0  0  0  0  0
  -28.6590  -25.0990   19.7560 C   0  0  0  0  0  2  0  0  0  0  0  0
  -28.4970  -26.4290   20.4490 O   0  0  0  0  0  0  0  0  0  0  0  0
  -24.6100  -31.8440   23.3010 C   0  0  0  0  0  0  0  0  0  0  0  0
  -27.3700  -27.2800   20.3210 C   0  0  0  0  0  0  0  0  0  0  0  0
  -23.4810  -30.4450   21.6100 C   0  0  0  0  0  3  0  0  0  0  0  0
  -24.9970  -28.9100   20.2270 C   0  0  0  0  0  0  0  0  0  0  0  0
  -26.0260  -30.7720   21.5250 C   0  0  0  0  0  2  0  0  0  0  0  0
  -26.1390  -29.3930   20.8740 C   0  0  0  0  0  0  0  0  0  0  0  0
  -27.3240  -28.5900   20.9110 C   0  0  0  0  0  3  0  0  0  0  0  0
  -26.1990  -26.8620   19.6480 C   0  0  0  0  0  3  0  0  0  0  0  0
  -25.0340  -27.6540   19.6020 C   0  0  0  0  0  3  0  0  0  0  0  0
  -23.7520  -29.7760   20.2370 C   0  0  0  0  0  2  0  0  0  0  0  0
  -24.7230  -31.0390   22.2020 N   0  0  0  0  0  0  0  0  0  0  0  0
  -23.5040  -32.1130   23.7940 O   0  0  0  0  0  0  0  0  0  0  0  0
  -22.7880  -29.4220   22.5410 C   0  0  0  0  0  0  0  0  0  0  0  0
  -21.4610  -29.2650   22.3900 N   0  0  0  0  0  0  0  0  0  0  0  0
  -23.4430  -28.7710   23.3590 O   0  0  0  0  0  0  0  0  0  0  0  0
  -20.9910  -29.8440   21.7070 H   0  0  0  0  0  0  0  0  0  0  0  0
  -18.0530  -28.1350   22.8500 C   0  0  0  0  0  0  0  0  0  0  0  0
  -20.6170  -28.3230   23.1290 C   0  0  0  0  0  3  0  0  0  0  0  0
  -20.6840  -26.9090   22.5070 C   0  0  0  0  0  2  0  0  0  0  0  0
  -19.5760  -26.6460   21.4820 C   0  0  0  0  0  2  0  0  0  0  0  0
  -18.1970  -26.8040   22.1300 C   0  0  0  0  0  2  0  0  0  0  0  0
  -19.1900  -28.8550   23.3050 C   0  0  0  0  0  0  0  0  0  0  0  0
  -19.0010  -30.1020   23.9390 C   0  0  0  0  0  3  0  0  0  0  0  0
  -17.7090  -30.6290   24.1210 C   0  0  0  0  0  3  0  0  0  0  0  0
  -16.5860  -29.9050   23.6830 C   0  0  0  0  0  3  0  0  0  0  0  0
  -16.7600  -28.6590   23.0540 C   0  0  0  0  0  3  0  0  0  0  0  0
  -25.8610  -32.4870   23.9750 C   0  0  0  0  0  3  0  0  0  0  0  0
  -26.3030  -31.7450   25.2970 C   0  0  1  0  0  0  0  0  0  0  0  0
  -25.1520  -31.5350   26.3080 C   0  0  0  0  0  1  0  0  0  0  0  0
  -26.9010  -30.3560   24.9710 C   0  0  0  0  0  1  0  0  0  0  0  0
  -27.4190  -32.5500   26.0020 C   0  0  0  0  0  1  0  0  0  0  0  0
  -25.5450  -33.8950   24.2570 N   0  0  0  0  0  0  0  0  0  0  0  0
  -25.8970  -34.9270   23.4800 C   0  0  0  0  0  0  0  0  0  0  0  0
  -26.5930  -34.7950   22.4700 O   0  0  0  0  0  0  0  0  0  0  0  0
  -24.9320  -34.0710   25.0400 H   0  0  0  0  0  0  0  0  0  0  0  0
  -24.1790  -36.7090   23.0360 C   0  0  0  0  0  1  0  0  0  0  0  0
  -25.4010  -36.3290   23.8860 C   0  0  0  0  0  3  0  0  0  0  0  0
  -27.5130  -37.2430   24.7440 C   0  0  0  0  0  1  0  0  0  0  0  0
  -26.4380  -37.3780   23.7640 N   0  0  0  0  0  0  0  0  0  0  0  0
  -26.0300  -38.3030   23.8650 H   0  0  0  0  0  0  0  0  0  0  0  0
  -31.2790  -20.1270   23.0120 C   0  0  0  0  0  2  0  0  0  0  0  0
  -32.0370  -21.3900   23.0510 N   0  0  0  0  0  4  0  0  0  0  0  0
  -32.9870  -21.2470   22.7580 H   0  0  0  0  0  0  0  0  0  0  0  0
  -32.0510  -21.7470   23.9900 H   0  0  0  0  0  0  0  0  0  0  0  0
  -31.6110  -22.0800   22.4600 H   0  0  0  0  0  0  0  0  0  0  0  0
  1  6  1  0
  3  1  1  0
  3  4  1  0
  3  7  1  0
  4  7  1  0
  4  5  1  0
  5  2  1  0
  5 92  1  0
  6 16  1  0
  6  2  1  0
  8 16  1  0
  9 14  1  0
 10 11  1  0
 10  9  1  0
 11 12  1  0
 12 21  1  0
 12 13  1  0
 14  8  1  0
 14 13  1  0
 15  8  2  0
 16 17  1  0
 18 19  2  0
 19 38  1  0
 20 19  1  0
 20 23  1  0
 21 18  1  0
 21 22  1  0
 22 20  2  0
 23 24  1  0
 24 25  2  0
 26 29  1  0
 26 25  1  0
 27 26  2  0
 28 27  1  0
 28 23  2  0
 29 30  1  0
 30 31  1  0
 31 32  2  0
 33 32  1  0
 33 37  1  0
 34 33  2  0
 35 30  2  0
 35 34  1  0
 36 35  1  0
 38 39  1  0
 39 42  1  0
 39 41  1  0
 40 38  2  0
 43 44  1  0
 43 18  1  0
 45 43  1  0
 46 48  2  0
 47  7  1  0
 47 46  1  0
 49 47  1  0
 50 51  1  0
 50 46  1  0
 52 63  2  0
 52 78  1  0
 53 51  1  0
 53 58  1  0
 54 62  1  0
 54 64  1  0
 55 61  1  0
 55 57  1  0
 56 62  1  0
 57 58  2  0
 57 56  1  0
 59 53  2  0
 60 59  1  0
 60 55  2  0
 61 54  1  0
 62 52  1  0
 64 66  2  0
 65 64  1  0
 65 69  1  0
 67 65  1  0
 68 77  2  0
 68 73  1  0
 69 73  1  0
 70 69  1  0
 71 72  1  0
 71 70  1  0
 72 68  1  0
 73 74  2  0
 74 75  1  0
 76 75  2  0
 77 76  1  0
 78 83  1  0
 78 79  1  0
 79 82  1  1
 79 80  1  0
 81 79  1  0
 83 86  1  0
 84 88  1  0
 84 83  1  0
 85 84  2  0
 87 88  1  0
 90 91  1  0
 90 88  1  0
 90 89  1  0
 92 93  1  0
 93 95  1  0
 94 93  1  0
 96 93  1  0
M  ISO  4   8 100  16 100  50 101  51 101
M  END
>  <TORSDO>  (8) 
F 20

>  <SCORE>  (8) 
-14.431

>  <name>  (8) 
7

>  <ligand_id>  (8) 
7

>  <original_smiles>  (8) 
[H]c1c([H])c([H])c2c(c1[H])C([H])([H])C([H])([H])C([H])([H])C2([H])N([H])C(=O)C1([H])N(C(=O)C([H])(N([H])C(=O)C([H])(N([H])C([H])([H])[H])C([H])([H])[H])C(C([H])([H])[H])(C([H])([H])[H])C([H])([H])[H])C([H])([H])c2c([H])c(OC([H])([H])C(=O)N([H])C3([H])C4([H])C([H])([H])C([H])(N([H])C(=O)N5C([H])([H])C([H])([H])C([H])([H])C([H])(n6nc(-c7c([H])c([H])c(Oc8c([H])c([H])c(F)c([H])c8F)c([H])c7[H])c(C(=O)N([H])[H])c6N([H])[H])C5([H])[H])C([H])([H])C([H])(C([H])([H])[N+]([H])([H])[H])C34[H])c([H])c([H])c2C1([H])[H]

>  <smiles>  (8) 
[H]c1c([H])c([H])c2c(c1[H])C([H])([H])C([H])([H])C([H])([H])C2([H])N([H])C(=O)C1([H])N(C(=O)C([H])(N([H])C(=O)C([H])(N([H])C([H])([H])[H])C([H])([H])[H])C(C([H])([H])[H])(C([H])([H])[H])C([H])([H])[H])C([H])([H])c2c([H])c(OC([H])([H])C(=O)N([H])C3([H])C4([H])C([H])([H])C([H])(N([H])C(=O)N5C([H])([H])C([H])([H])C([H])([H])C([H])(n6nc(-c7c([H])c([H])c(Oc8c([H])c([H])c(F)c([H])c8F)c([H])c7[H])c(C(=O)N([H])[H])c6N([H])[H])C5([H])[H])C([H])([H])C([H])(C([H])([H])[N+]([H])([H])[H])C34[H])c([H])c([H])c2C1([H])[H]

$$$$
8:0:0
     RDKit          3D

 91100  0  0  1  0  0  0  0  0999 V2000
  -31.5040  -20.2760   20.8930 C   0  0  0  0  0  2  0  0  0  0  0  0
  -31.0390  -18.9960   21.6260 C   0  0  0  0  0  2  0  0  0  0  0  0
  -30.1520  -22.1380   19.6480 C   0  0  0  0  0  2  0  0  0  0  0  0
  -28.5500  -21.1490   21.1750 C   0  0  0  0  0  2  0  0  0  0  0  0
  -30.4490  -20.6200   19.8260 C   0  0  0  0  0  3  0  0  0  0  0  0
  -29.1880  -19.9440   20.3390 C   0  0  0  0  0  3  0  0  0  0  0  0
  -29.6830  -18.5720   21.0240 C   0  0  0  0  0  3  0  0  0  0  0  0
  -29.1090  -22.5730   20.7050 C   0  0  0  0  0  3  0  0  0  0  0  0
  -27.1210  -23.2910   19.2350 C   0  0  0  0  0  1  0  0  0  0  0  0
  -28.0990  -23.7980   20.3160 C   0  0  0  0  0  3  0  0  0  0  0  0
  -28.6890  -25.2060   19.7740 C   0  0  0  0  0  2  0  0  0  0  0  0
  -28.4550  -26.5650   20.3430 O   0  0  0  0  0  0  0  0  0  0  0  0
  -24.6360  -31.8990   23.2370 C   0  0  0  0  0  0  0  0  0  0  0  0
  -27.2990  -27.3600   20.2230 C   0  0  0  0  0  0  0  0  0  0  0  0
  -23.4360  -30.4820   21.6060 C   0  0  0  0  0  3  0  0  0  0  0  0
  -24.9020  -28.9330   20.2060 C   0  0  0  0  0  0  0  0  0  0  0  0
  -25.9720  -30.8370   21.4110 C   0  0  0  0  0  2  0  0  0  0  0  0
  -26.0690  -29.4600   20.7670 C   0  0  0  0  0  0  0  0  0  0  0  0
  -27.2690  -28.6900   20.7550 C   0  0  0  0  0  3  0  0  0  0  0  0
  -26.0970  -26.8810   19.6620 C   0  0  0  0  0  3  0  0  0  0  0  0
  -24.9100  -27.6430   19.6590 C   0  0  0  0  0  3  0  0  0  0  0  0
  -23.6510  -29.7770   20.2440 C   0  0  0  0  0  2  0  0  0  0  0  0
  -24.6990  -31.0900   22.1410 N   0  0  0  0  0  0  0  0  0  0  0  0
  -23.5530  -32.1690   23.7790 O   0  0  0  0  0  0  0  0  0  0  0  0
  -22.7770  -29.4760   22.5780 C   0  0  0  0  0  0  0  0  0  0  0  0
  -21.4540  -29.2820   22.4490 N   0  0  0  0  0  0  0  0  0  0  0  0
  -23.4590  -28.8610   23.4050 O   0  0  0  0  0  0  0  0  0  0  0  0
  -20.9630  -29.8140   21.7410 H   0  0  0  0  0  0  0  0  0  0  0  0
  -18.0910  -28.0710   22.9630 C   0  0  0  0  0  0  0  0  0  0  0  0
  -20.6470  -28.3460   23.2260 C   0  0  0  0  0  3  0  0  0  0  0  0
  -20.7590  -26.9170   22.6520 C   0  0  0  0  0  2  0  0  0  0  0  0
  -19.6590  -26.5810   21.6420 C   0  0  0  0  0  2  0  0  0  0  0  0
  -18.2770  -26.7220   22.2880 C   0  0  0  0  0  2  0  0  0  0  0  0
  -19.2050  -28.8420   23.3880 C   0  0  0  0  0  0  0  0  0  0  0  0
  -18.9820  -30.1070   23.9760 C   0  0  0  0  0  3  0  0  0  0  0  0
  -17.6760  -30.6020   24.1420 C   0  0  0  0  0  3  0  0  0  0  0  0
  -16.5750  -29.8280   23.7400 C   0  0  0  0  0  3  0  0  0  0  0  0
  -16.7840  -28.5640   23.1570 C   0  0  0  0  0  3  0  0  0  0  0  0
  -25.9180  -32.5440   23.8520 C   0  0  0  0  0  3  0  0  0  0  0  0
  -26.4460  -31.7810   25.1280 C   0  0  1  0  0  0  0  0  0  0  0  0
  -25.3460  -31.5300   26.1870 C   0  0  0  0  0  1  0  0  0  0  0  0
  -27.0540  -30.4100   24.7490 C   0  0  0  0  0  1  0  0  0  0  0  0
  -27.5780  -32.5950   25.7930 C   0  0  0  0  0  1  0  0  0  0  0  0
  -25.5990  -33.9390   24.1790 N   0  0  0  0  0  0  0  0  0  0  0  0
  -25.9290  -34.9930   23.4240 C   0  0  0  0  0  0  0  0  0  0  0  0
  -26.5940  -34.8960   22.3900 O   0  0  0  0  0  0  0  0  0  0  0  0
  -25.0070  -34.0910   24.9800 H   0  0  0  0  0  0  0  0  0  0  0  0
  -24.1810  -36.7680   23.0870 C   0  0  0  0  0  1  0  0  0  0  0  0
  -25.4340  -36.3740   23.8880 C   0  0  0  0  0  3  0  0  0  0  0  0
  -27.5640  -37.2740   24.7100 C   0  0  0  0  0  1  0  0  0  0  0  0
  -26.4580  -37.4370   23.7710 N   0  0  0  0  0  0  0  0  0  0  0  0
  -26.0430  -38.3540   23.9220 H   0  0  0  0  0  0  0  0  0  0  0  0
  -29.8780  -17.2820   20.0680 C   0  0  0  0  0  2  0  0  0  0  0  0
  -30.5920  -14.7580   20.2230 C   0  0  0  0  0  0  0  0  0  0  0  0
  -30.3710  -12.5160   19.1480 C   0  0  0  0  0  2  0  0  0  0  0  0
  -29.4080  -12.6360   17.9430 C   0  0  0  0  0  2  0  0  0  0  0  0
  -27.9440  -12.4700   18.3930 C   0  0  0  0  0  2  0  0  0  0  0  0
  -27.6080  -13.3230   19.6470 C   0  0  0  0  0  3  0  0  0  0  0  0
  -28.6830  -13.1710   20.7470 C   0  0  0  0  0  2  0  0  0  0  0  0
  -29.9750  -13.5320   20.1510 N   0  0  0  0  0  0  0  0  0  0  0  0
  -31.7340  -14.9050   19.7750 O   0  0  0  0  0  0  0  0  0  0  0  0
  -29.8230  -15.8470   20.5920 N   0  0  0  0  0  0  0  0  0  0  0  0
  -28.9300  -15.5920   20.9900 H   0  0  0  0  0  0  0  0  0  0  0  0
  -25.2300  -13.9200   20.4000 C   0  0  0  0  0  0  0  0  0  0  0  0
  -24.1690  -13.1460   20.7950 C   0  0  0  0  0  0  0  0  0  0  0  0
  -24.6320  -11.7950   20.7610 C   0  0  0  0  0  0  0  0  0  0  0  0
  -26.2700  -13.0370   20.1560 N   0  0  0  0  0  0  0  0  0  0  0  0
  -25.9170  -11.7560   20.4320 N   0  0  0  0  0  0  0  0  0  0  0  0
  -23.9090  -10.5330   20.9730 C   0  0  0  0  0  0  0  0  0  0  0  0
  -24.3600   -9.5700   21.9020 C   0  0  0  0  0  3  0  0  0  0  0  0
  -23.6360   -8.3740   22.1000 C   0  0  0  0  0  3  0  0  0  0  0  0
  -22.4520   -8.1310   21.3670 C   0  0  0  0  0  0  0  0  0  0  0  0
  -22.0190   -9.0840   20.4270 C   0  0  0  0  0  3  0  0  0  0  0  0
  -22.7420  -10.2730   20.2280 C   0  0  0  0  0  3  0  0  0  0  0  0
  -21.7000   -6.9860   21.4720 O   0  0  0  0  0  0  0  0  0  0  0  0
  -21.6740   -6.2450   22.6260 C   0  0  0  0  0  0  0  0  0  0  0  0
  -21.2710   -6.8030   23.8590 C   0  0  0  0  0  3  0  0  0  0  0  0
  -21.1910   -5.9890   25.0070 C   0  0  0  0  0  3  0  0  0  0  0  0
  -21.5090   -4.6200   24.9240 C   0  0  0  0  0  0  0  0  0  0  0  0
  -21.9030   -4.0620   23.6950 C   0  0  0  0  0  3  0  0  0  0  0  0
  -21.9840   -4.8720   22.5490 C   0  0  0  0  0  0  0  0  0  0  0  0
  -22.3460   -4.3250   21.3630 F   0  0  0  0  0  0  0  0  0  0  0  0
  -21.4250   -3.8350   26.0240 F   0  0  0  0  0  0  0  0  0  0  0  0
  -22.7780  -13.6260   21.0840 C   0  0  0  0  0  0  0  0  0  0  0  0
  -22.0640  -12.9340   21.9670 N   0  0  0  0  0  0  0  0  0  0  0  0
  -22.3310  -14.6460   20.5660 O   0  0  0  0  0  0  0  0  0  0  0  0
  -22.4380  -12.1090   22.4090 H   0  0  0  0  0  0  0  0  0  0  0  0
  -21.1290  -13.2360   22.2000 H   0  0  0  0  0  0  0  0  0  0  0  0
  -25.3930  -15.2870   20.2100 N   0  0  0  0  0  0  0  0  0  0  0  0
  -24.6280  -15.9470   20.3180 H   0  0  0  0  0  0  0  0  0  0  0  0
  -26.2330  -15.7170   19.8440 H   0  0  0  0  0  0  0  0  0  0  0  0
  1  2  1  0
  3  8  1  0
  5  3  1  0
  5  6  1  0
  5  1  1  0
  6  7  1  0
  6  4  1  0
  7 53  1  0
  7  2  1  0
  8 10  1  0
  8  4  1  0
 10  9  1  0
 11 10  1  0
 11 12  1  0
 13 24  2  0
 14 12  1  0
 14 19  1  0
 15 23  1  0
 15 25  1  0
 16 22  1  0
 16 18  1  0
 17 23  1  0
 18 17  1  0
 19 18  2  0
 20 14  2  0
 21 20  1  0
 21 16  2  0
 22 15  1  0
 23 13  1  0
 25 27  2  0
 26 25  1  0
 28 26  1  0
 29 38  2  0
 29 34  1  0
 30 26  1  0
 30 34  1  0
 31 30  1  0
 32 33  1  0
 32 31  1  0
 33 29  1  0
 34 35  2  0
 35 36  1  0
 37 36  2  0
 38 37  1  0
 39 13  1  0
 39 44  1  0
 39 40  1  0
 40 43  1  1
 40 41  1  0
 42 40  1  0
 44 47  1  0
 45 49  1  0
 45 44  1  0
 46 45  2  0
 49 48  1  0
 51 49  1  0
 51 52  1  0
 51 50  1  0
 53 62  1  0
 54 62  1  0
 55 60  1  0
 56 57  1  0
 56 55  1  0
 58 57  1  0
 58 67  1  0
 58 59  1  0
 60 54  1  0
 60 59  1  0
 61 54  2  0
 62 63  1  0
 64 65  2  0
 65 84  1  0
 66 65  1  0
 66 69  1  0
 67 64  1  0
 67 68  1  0
 68 66  2  0
 69 70  1  0
 70 71  2  0
 72 75  1  0
 72 71  1  0
 73 72  2  0
 74 73  1  0
 74 69  2  0
 75 76  1  0
 76 77  1  0
 77 78  2  0
 79 78  1  0
 79 83  1  0
 80 79  2  0
 81 76  2  0
 81 80  1  0
 82 81  1  0
 84 85  1  0
 85 88  1  0
 85 87  1  0
 86 84  2  0
 89 90  1  0
 89 64  1  0
 91 89  1  0
M  ISO  4  11 101  12 101  54 100  62 100
M  END
>  <TORSDO>  (9) 
F 19

>  <SCORE>  (9) 
-14.313

>  <name>  (9) 
8

>  <ligand_id>  (9) 
8

>  <original_smiles>  (9) 
[H]c1c([H])c([H])c2c(c1[H])C([H])([H])C([H])([H])C([H])([H])C2([H])N([H])C(=O)C1([H])N(C(=O)C([H])(N([H])C(=O)C([H])(N([H])C([H])([H])[H])C([H])([H])[H])C(C([H])([H])[H])(C([H])([H])[H])C([H])([H])[H])C([H])([H])c2c([H])c(OC([H])([H])C([H])(C([H])([H])[H])C3([H])C([H])([H])C4([H])C([H])([H])C([H])([H])C([H])(C([H])([H])N([H])C(=O)N5C([H])([H])C([H])([H])C([H])([H])C([H])(n6nc(-c7c([H])c([H])c(Oc8c([H])c([H])c(F)c([H])c8F)c([H])c7[H])c(C(=O)N([H])[H])c6N([H])[H])C5([H])[H])C4([H])C3([H])[H])c([H])c([H])c2C1([H])[H]

>  <smiles>  (9) 
[H]c1c([H])c([H])c2c(c1[H])C([H])([H])C([H])([H])C([H])([H])C2([H])N([H])C(=O)C1([H])N(C(=O)C([H])(N([H])C(=O)C([H])(N([H])C([H])([H])[H])C([H])([H])[H])C(C([H])([H])[H])(C([H])([H])[H])C([H])([H])[H])C([H])([H])c2c([H])c(OC([H])([H])C([H])(C([H])([H])[H])C3([H])C([H])([H])C4([H])C([H])([H])C([H])([H])C([H])(C([H])([H])N([H])C(=O)N5C([H])([H])C([H])([H])C([H])([H])C([H])(n6nc(-c7c([H])c([H])c(Oc8c([H])c([H])c(F)c([H])c8F)c([H])c7[H])c(C(=O)N([H])[H])c6N([H])[H])C5([H])[H])C4([H])C3([H])[H])c([H])c([H])c2C1([H])[H]

$$$$
9:0:0
     RDKit          3D

 95105  0  0  1  0  0  0  0  0999 V2000
  -29.1630  -21.3200   20.2250 C   0  0  0  0  0  2  0  0  0  0  0  0
  -29.4050  -22.0430   18.8970 C   0  0  0  0  0  0  0  0  0  0  0  0
  -29.1340  -23.3470   18.7460 N   0  0  0  0  0  0  0  0  0  0  0  0
  -29.8520  -21.3940   17.9500 O   0  0  0  0  0  0  0  0  0  0  0  0
  -29.3150  -23.7230   17.8250 H   0  0  0  0  0  0  0  0  0  0  0  0
  -28.6470  -24.3140   19.7320 C   0  0  0  0  0  2  0  0  0  0  0  0
  -28.7820  -25.7430   19.1630 C   0  0  0  0  0  2  0  0  0  0  0  0
  -28.4970  -26.7600   20.1280 O   0  0  0  0  0  0  0  0  0  0  0  0
  -24.5860  -31.8690   23.1370 C   0  0  0  0  0  0  0  0  0  0  0  0
  -27.2840  -27.4200   20.1070 C   0  0  0  0  0  0  0  0  0  0  0  0
  -23.3950  -30.4360   21.5090 C   0  0  0  0  0  3  0  0  0  0  0  0
  -24.8640  -28.8890   20.1100 C   0  0  0  0  0  0  0  0  0  0  0  0
  -25.9160  -30.8140   21.3120 C   0  0  0  0  0  2  0  0  0  0  0  0
  -26.0130  -29.4340   20.6950 C   0  0  0  0  0  0  0  0  0  0  0  0
  -27.2190  -28.7020   20.7000 C   0  0  0  0  0  3  0  0  0  0  0  0
  -26.1110  -26.8770   19.5370 C   0  0  0  0  0  3  0  0  0  0  0  0
  -24.9050  -27.6070   19.5350 C   0  0  0  0  0  3  0  0  0  0  0  0
  -23.6130  -29.7380   20.1400 C   0  0  0  0  0  2  0  0  0  0  0  0
  -24.6500  -31.0560   22.0450 N   0  0  0  0  0  0  0  0  0  0  0  0
  -23.5020  -32.1380   23.6720 O   0  0  0  0  0  0  0  0  0  0  0  0
  -22.7500  -29.4220   22.4810 C   0  0  0  0  0  0  0  0  0  0  0  0
  -21.4320  -29.2130   22.3400 N   0  0  0  0  0  0  0  0  0  0  0  0
  -23.4350  -28.8250   23.3170 O   0  0  0  0  0  0  0  0  0  0  0  0
  -20.9410  -29.7490   21.6380 H   0  0  0  0  0  0  0  0  0  0  0  0
  -18.0770  -27.9540   22.7980 C   0  0  0  0  0  0  0  0  0  0  0  0
  -20.6220  -28.2760   23.1180 C   0  0  0  0  0  3  0  0  0  0  0  0
  -20.7690  -26.8340   22.5800 C   0  0  0  0  0  2  0  0  0  0  0  0
  -19.6970  -26.4610   21.5510 C   0  0  0  0  0  2  0  0  0  0  0  0
  -18.2990  -26.5920   22.1620 C   0  0  0  0  0  2  0  0  0  0  0  0
  -19.1690  -28.7500   23.2320 C   0  0  0  0  0  0  0  0  0  0  0  0
  -18.9090  -30.0240   23.7840 C   0  0  0  0  0  3  0  0  0  0  0  0
  -17.5900  -30.5010   23.9070 C   0  0  0  0  0  3  0  0  0  0  0  0
  -16.5140  -29.7000   23.4890 C   0  0  0  0  0  3  0  0  0  0  0  0
  -16.7570  -28.4290   22.9410 C   0  0  0  0  0  3  0  0  0  0  0  0
  -25.8670  -32.5170   23.7530 C   0  0  0  0  0  3  0  0  0  0  0  0
  -25.5310  -33.9000   24.1160 N   0  0  0  0  0  0  0  0  0  0  0  0
  -25.8260  -34.9740   23.3710 C   0  0  0  0  0  0  0  0  0  0  0  0
  -26.4820  -34.9070   22.3280 O   0  0  0  0  0  0  0  0  0  0  0  0
  -24.9470  -34.0240   24.9290 H   0  0  0  0  0  0  0  0  0  0  0  0
  -24.0550  -36.7330   23.0700 C   0  0  0  0  0  1  0  0  0  0  0  0
  -25.3110  -36.3400   23.8630 C   0  0  0  0  0  3  0  0  0  0  0  0
  -27.4340  -37.2540   24.6950 C   0  0  0  0  0  1  0  0  0  0  0  0
  -26.3200  -37.4190   23.7640 N   0  0  0  0  0  0  0  0  0  0  0  0
  -25.8950  -38.3260   23.9350 H   0  0  0  0  0  0  0  0  0  0  0  0
  -26.4230  -31.7310   25.0010 C   0  0  1  0  0  0  0  0  0  0  0  0
  -25.3540  -31.4360   26.0780 C   0  0  0  0  0  1  0  0  0  0  0  0
  -27.0400  -30.3800   24.5650 C   0  0  0  0  0  1  0  0  0  0  0  0
  -27.5600  -32.5410   25.6680 C   0  0  0  0  0  1  0  0  0  0  0  0
  -29.7810  -19.9740   20.1480 N   0  0  0  0  0  4  0  0  0  0  0  0
  -30.6450  -20.0020   20.6640 H   0  0  0  0  0  0  0  0  0  0  0  0
  -30.0300  -19.8830   19.1710 H   0  0  0  0  0  0  0  0  0  0  0  0
  -27.7550  -18.5890   19.6640 C   0  0  0  0  0  1  0  0  0  0  0  0
  -28.9680  -18.8110   20.5920 C   0  0  0  0  0  3  0  0  0  0  0  0
  -30.7650  -14.3510   19.9110 C   0  0  0  0  0  0  0  0  0  0  0  0
  -30.2650  -12.2860   18.6480 C   0  0  0  0  0  2  0  0  0  0  0  0
  -29.2140  -12.5470   17.5510 C   0  0  0  0  0  2  0  0  0  0  0  0
  -27.7900  -12.3950   18.1180 C   0  0  0  0  0  2  0  0  0  0  0  0
  -27.5900  -13.1980   19.4280 C   0  0  0  0  0  3  0  0  0  0  0  0
  -28.7390  -12.9220   20.4250 C   0  0  0  0  0  2  0  0  0  0  0  0
  -30.0150  -13.2240   19.7570 N   0  0  0  0  0  0  0  0  0  0  0  0
  -31.7670  -14.5760   19.2230 O   0  0  0  0  0  0  0  0  0  0  0  0
  -29.1940  -16.5810   22.4190 C   0  0  0  0  0  2  0  0  0  0  0  0
  -31.4490  -15.9270   21.7000 C   0  0  0  0  0  2  0  0  0  0  0  0
  -30.5690  -17.1170   21.9880 C   0  0  2  0  0  0  0  0  0  0  0  0
  -29.8520  -17.5290   20.6860 C   0  0  0  0  0  3  0  0  0  0  0  0
  -29.3060  -16.0970   20.9670 C   0  0  2  0  0  0  0  0  0  0  0  0
  -30.4510  -15.1560   20.9550 N   0  0  0  0  0  0  0  0  0  0  0  0
  -25.2820  -13.8320   20.3800 C   0  0  0  0  0  0  0  0  0  0  0  0
  -24.2400  -13.0690   20.8330 C   0  0  0  0  0  0  0  0  0  0  0  0
  -24.6710  -11.7120   20.7230 C   0  0  0  0  0  0  0  0  0  0  0  0
  -26.2830  -12.9390   20.0260 N   0  0  0  0  0  0  0  0  0  0  0  0
  -25.9230  -11.6580   20.2890 N   0  0  0  0  0  0  0  0  0  0  0  0
  -23.9430  -10.4560   20.9490 C   0  0  0  0  0  0  0  0  0  0  0  0
  -24.4070   -9.4900   21.8700 C   0  0  0  0  0  3  0  0  0  0  0  0
  -23.6800   -8.2990   22.0830 C   0  0  0  0  0  3  0  0  0  0  0  0
  -22.4780   -8.0660   21.3750 C   0  0  0  0  0  0  0  0  0  0  0  0
  -22.0320   -9.0210   20.4440 C   0  0  0  0  0  3  0  0  0  0  0  0
  -22.7590  -10.2040   20.2300 C   0  0  0  0  0  3  0  0  0  0  0  0
  -21.7190   -6.9270   21.4990 O   0  0  0  0  0  0  0  0  0  0  0  0
  -21.6700   -6.2190   22.6730 C   0  0  0  0  0  0  0  0  0  0  0  0
  -21.2550   -6.8140   23.8850 C   0  0  0  0  0  3  0  0  0  0  0  0
  -21.1520   -6.0320   25.0540 C   0  0  0  0  0  3  0  0  0  0  0  0
  -21.4550   -4.6590   25.0100 C   0  0  0  0  0  0  0  0  0  0  0  0
  -21.8630   -4.0630   23.8040 C   0  0  0  0  0  3  0  0  0  0  0  0
  -21.9680   -4.8420   22.6380 C   0  0  0  0  0  0  0  0  0  0  0  0
  -22.3410   -4.2600   21.4730 F   0  0  0  0  0  0  0  0  0  0  0  0
  -21.3490   -3.9060   26.1300 F   0  0  0  0  0  0  0  0  0  0  0  0
  -22.8840  -13.5620   21.2480 C   0  0  0  0  0  0  0  0  0  0  0  0
  -22.2430  -12.8750   22.1880 N   0  0  0  0  0  0  0  0  0  0  0  0
  -22.4050  -14.5910   20.7740 O   0  0  0  0  0  0  0  0  0  0  0  0
  -22.6470  -12.0430   22.5930 H   0  0  0  0  0  0  0  0  0  0  0  0
  -21.3370  -13.1870   22.5070 H   0  0  0  0  0  0  0  0  0  0  0  0
  -25.4520  -15.2040   20.2160 N   0  0  0  0  0  0  0  0  0  0  0  0
  -24.6940  -15.8560   20.3890 H   0  0  0  0  0  0  0  0  0  0  0  0
  -26.2400  -15.6250   19.7440 H   0  0  0  0  0  0  0  0  0  0  0  0
  2  1  1  0
  3  2  1  0
  3  6  1  0
  4  2  2  0
  5  3  1  0
  7  6  1  0
  7  8  1  0
  9 20  2  0
 10  8  1  0
 10 15  1  0
 11 19  1  0
 11 21  1  0
 12 18  1  0
 12 14  1  0
 13 19  1  0
 14 15  2  0
 14 13  1  0
 16 10  2  0
 17 16  1  0
 17 12  2  0
 18 11  1  0
 19  9  1  0
 21 23  2  0
 22 21  1  0
 24 22  1  0
 25 34  2  0
 25 30  1  0
 26 22  1  0
 26 30  1  0
 27 26  1  0
 28 29  1  0
 28 27  1  0
 29 25  1  0
 30 31  2  0
 31 32  1  0
 33 32  2  0
 34 33  1  0
 35  9  1  0
 35 36  1  0
 35 45  1  0
 36 39  1  0
 37 41  1  0
 37 36  1  0
 38 37  2  0
 41 40  1  0
 43 41  1  0
 43 44  1  0
 43 42  1  0
 45 48  1  1
 45 46  1  0
 47 45  1  0
 49  1  1  0
 49 53  1  0
 49 50  1  0
 51 49  1  0
 53 52  1  0
 54 67  1  0
 55 60  1  0
 56 57  1  0
 56 55  1  0
 58 57  1  0
 58 71  1  0
 58 59  1  0
 60 54  1  0
 60 59  1  0
 61 54  2  0
 64 63  1  6
 64 62  1  0
 65 53  1  0
 65 66  1  0
 65 64  1  0
 66 64  1  0
 66 62  1  1
 67 66  1  0
 67 63  1  0
 68 69  2  0
 69 88  1  0
 70 69  1  0
 70 73  1  0
 71 72  1  0
 71 68  1  0
 72 70  2  0
 73 74  1  0
 74 75  2  0
 76 79  1  0
 76 75  1  0
 77 76  2  0
 78 77  1  0
 78 73  2  0
 79 80  1  0
 80 81  1  0
 81 82  2  0
 83 82  1  0
 83 87  1  0
 84 83  2  0
 85 80  2  0
 85 84  1  0
 86 85  1  0
 88 89  1  0
 89 92  1  0
 89 91  1  0
 90 88  2  0
 93 68  1  0
 93 94  1  0
 95 93  1  0
M  ISO  4   7 101   8 101  54 100  67 100
M  END
>  <TORSDO>  (10) 
F 21

>  <SCORE>  (10) 
-11.533

>  <name>  (10) 
9

>  <ligand_id>  (10) 
9

>  <original_smiles>  (10) 
[H]c1c([H])c([H])c2c(c1[H])C([H])([H])C([H])([H])C([H])([H])C2([H])N([H])C(=O)C1([H])N(C(=O)C([H])(N([H])C(=O)C([H])(N([H])C([H])([H])[H])C([H])([H])[H])C(C([H])([H])[H])(C([H])([H])[H])C([H])([H])[H])C([H])([H])c2c([H])c(OC([H])([H])C([H])([H])N([H])C(=O)C([H])([H])[N+]([H])([H])C([H])(C([H])([H])[H])C3([H])C4([H])N(C(=O)N5C([H])([H])C([H])([H])C([H])([H])C([H])(n6nc(-c7c([H])c([H])c(Oc8c([H])c([H])c(F)c([H])c8F)c([H])c7[H])c(C(=O)N([H])[H])c6N([H])[H])C5([H])[H])C([H])([H])C3([H])C4([H])[H])c([H])c([H])c2C1([H])[H]

>  <smiles>  (10) 
[H]c1c([H])c([H])c2c(c1[H])C([H])([H])C([H])([H])C([H])([H])C2([H])N([H])C(=O)C1([H])N(C(=O)C([H])(N([H])C(=O)C([H])(N([H])C([H])([H])[H])C([H])([H])[H])C(C([H])([H])[H])(C([H])([H])[H])C([H])([H])[H])C([H])([H])c2c([H])c(OC([H])([H])C([H])([H])N([H])C(=O)C([H])([H])[N+]([H])([H])C([H])(C([H])([H])[H])C3([H])C4([H])N(C(=O)N5C([H])([H])C([H])([H])C([H])([H])C([H])(n6nc(-c7c([H])c([H])c(Oc8c([H])c([H])c(F)c([H])c8F)c([H])c7[H])c(C(=O)N([H])[H])c6N([H])[H])C5([H])[H])C([H])([H])C3([H])C4([H])[H])c([H])c([H])c2C1([H])[H]

$$$$
10:0:0
     RDKit          3D

 92101  0  0  1  0  0  0  0  0999 V2000
  -31.2660  -20.8890   20.2530 C   0  0  0  0  0  2  0  0  0  0  0  0
  -30.6370  -20.7980   18.8540 C   0  0  0  0  0  2  0  0  0  0  0  0
  -29.8740  -19.0860   21.4450 C   0  0  0  0  0  2  0  0  0  0  0  0
  -28.8670  -18.9560   19.3120 C   0  0  0  0  0  3  0  0  0  0  0  0
  -29.9040  -18.0590   20.1980 C   0  0  0  0  0  3  0  0  0  0  0  0
  -30.0470  -20.7150   21.1770 C   0  0  0  0  0  3  0  0  0  0  0  0
  -29.1400  -20.6060   19.1720 C   0  0  0  0  0  3  0  0  0  0  0  0
  -28.9520  -21.4920   20.4170 N   0  0  2  0  0  4  0  0  0  0  0  0
  -28.0600  -21.2980   20.8480 H   0  0  0  0  0  0  0  0  0  0  0  0
  -30.5010  -15.2210   20.1750 C   0  0  0  0  0  0  0  0  0  0  0  0
  -30.4100  -12.8340   19.2280 C   0  0  0  0  0  2  0  0  0  0  0  0
  -29.4450  -12.7330   18.0210 C   0  0  0  0  0  2  0  0  0  0  0  0
  -28.0020  -12.4830   18.4970 C   0  0  0  0  0  2  0  0  0  0  0  0
  -27.6110  -13.3970   19.6860 C   0  0  0  0  0  3  0  0  0  0  0  0
  -28.6980  -13.4550   20.7790 C   0  0  0  0  0  2  0  0  0  0  0  0
  -29.9280  -13.9320   20.1300 N   0  0  0  0  0  0  0  0  0  0  0  0
  -31.6950  -15.2670   19.8560 O   0  0  0  0  0  0  0  0  0  0  0  0
  -29.7220  -16.4360   20.3780 N   0  0  0  0  0  0  0  0  0  0  0  0
  -28.7750  -16.1980   20.6300 H   0  0  0  0  0  0  0  0  0  0  0  0
  -25.2600  -13.9380   20.5220 C   0  0  0  0  0  0  0  0  0  0  0  0
  -24.2120  -13.1500   20.9100 C   0  0  0  0  0  0  0  0  0  0  0  0
  -24.6810  -11.8030   20.8350 C   0  0  0  0  0  0  0  0  0  0  0  0
  -26.2970  -13.0730   20.2260 N   0  0  0  0  0  0  0  0  0  0  0  0
  -25.9630  -11.7800   20.4810 N   0  0  0  0  0  0  0  0  0  0  0  0
  -23.9640  -10.5340   21.0200 C   0  0  0  0  0  0  0  0  0  0  0  0
  -24.4060   -9.5630   21.9460 C   0  0  0  0  0  3  0  0  0  0  0  0
  -23.6850   -8.3610   22.1210 C   0  0  0  0  0  3  0  0  0  0  0  0
  -22.5090   -8.1220   21.3710 C   0  0  0  0  0  0  0  0  0  0  0  0
  -22.0870   -9.0820   20.4340 C   0  0  0  0  0  3  0  0  0  0  0  0
  -22.8080  -10.2750   20.2570 C   0  0  0  0  0  3  0  0  0  0  0  0
  -21.7600   -6.9730   21.4560 O   0  0  0  0  0  0  0  0  0  0  0  0
  -21.6870   -6.2450   22.6160 C   0  0  0  0  0  0  0  0  0  0  0  0
  -21.2030   -6.8050   23.8180 C   0  0  0  0  0  3  0  0  0  0  0  0
  -21.0790   -6.0040   24.9700 C   0  0  0  0  0  3  0  0  0  0  0  0
  -21.4310   -4.6410   24.9200 C   0  0  0  0  0  0  0  0  0  0  0  0
  -21.9100   -4.0800   23.7240 C   0  0  0  0  0  3  0  0  0  0  0  0
  -22.0350   -4.8800   22.5740 C   0  0  0  0  0  0  0  0  0  0  0  0
  -22.4770   -4.3300   21.4180 F   0  0  0  0  0  0  0  0  0  0  0  0
  -21.3050   -3.8680   26.0240 F   0  0  0  0  0  0  0  0  0  0  0  0
  -22.8220  -13.6170   21.2320 C   0  0  0  0  0  0  0  0  0  0  0  0
  -22.1240  -12.9030   22.1070 N   0  0  0  0  0  0  0  0  0  0  0  0
  -22.3680  -14.6510   20.7450 O   0  0  0  0  0  0  0  0  0  0  0  0
  -22.5060  -12.0670   22.5230 H   0  0  0  0  0  0  0  0  0  0  0  0
  -21.1940  -13.1990   22.3680 H   0  0  0  0  0  0  0  0  0  0  0  0
  -25.4080  -15.3140   20.3670 N   0  0  0  0  0  0  0  0  0  0  0  0
  -24.6320  -15.9520   20.5100 H   0  0  0  0  0  0  0  0  0  0  0  0
  -26.2210  -15.7630   19.9690 H   0  0  0  0  0  0  0  0  0  0  0  0
  -27.4390  -18.7700   17.1580 C   0  0  0  0  0  1  0  0  0  0  0  0
  -28.6780  -18.2890   17.9300 C   0  0  0  0  0  2  0  0  0  0  0  0
  -29.1470  -23.1380   20.3480 C   0  0  0  0  0  3  0  0  0  0  0  0
  -28.0170  -24.4660   20.2010 C   0  0  0  0  0  3  0  0  0  0  0  0
  -28.2580  -26.0630   20.3010 O   0  0  0  0  0  0  0  0  0  0  0  0
  -24.6520  -31.9070   23.2690 C   0  0  0  0  0  0  0  0  0  0  0  0
  -27.2220  -27.1080   20.2410 C   0  0  0  0  0  0  0  0  0  0  0  0
  -23.4620  -30.5230   21.6140 C   0  0  0  0  0  3  0  0  0  0  0  0
  -24.9150  -28.9350   20.1920 C   0  0  0  0  0  0  0  0  0  0  0  0
  -26.0250  -30.7520   21.4780 C   0  0  0  0  0  2  0  0  0  0  0  0
  -26.0970  -29.3540   20.8160 C   0  0  0  0  0  0  0  0  0  0  0  0
  -27.2490  -28.4600   20.8150 C   0  0  0  0  0  3  0  0  0  0  0  0
  -26.0100  -26.8190   19.5750 C   0  0  0  0  0  3  0  0  0  0  0  0
  -24.8920  -27.6870   19.5510 C   0  0  0  0  0  3  0  0  0  0  0  0
  -23.6940  -29.8490   20.2350 C   0  0  0  0  0  2  0  0  0  0  0  0
  -24.7340  -31.0850   22.1750 N   0  0  0  0  0  0  0  0  0  0  0  0
  -23.5600  -32.1940   23.7870 O   0  0  0  0  0  0  0  0  0  0  0  0
  -22.7650  -29.5190   22.5690 C   0  0  0  0  0  0  0  0  0  0  0  0
  -21.4370  -29.3550   22.4330 N   0  0  0  0  0  0  0  0  0  0  0  0
  -23.4260  -28.8870   23.3970 O   0  0  0  0  0  0  0  0  0  0  0  0
  -20.9580  -29.9150   21.7410 H   0  0  0  0  0  0  0  0  0  0  0  0
  -18.0470  -28.1650   22.9200 C   0  0  0  0  0  0  0  0  0  0  0  0
  -20.6070  -28.4150   23.1940 C   0  0  0  0  0  3  0  0  0  0  0  0
  -20.7030  -26.9880   22.6060 C   0  0  0  0  0  2  0  0  0  0  0  0
  -19.6010  -26.6790   21.5860 C   0  0  0  0  0  2  0  0  0  0  0  0
  -18.2180  -26.8230   22.2290 C   0  0  0  0  0  2  0  0  0  0  0  0
  -19.1680  -28.9200   23.3590 C   0  0  0  0  0  0  0  0  0  0  0  0
  -18.9500  -30.1750   23.9670 C   0  0  0  0  0  3  0  0  0  0  0  0
  -17.6460  -30.6760   24.1400 C   0  0  0  0  0  3  0  0  0  0  0  0
  -16.5400  -29.9200   23.7150 C   0  0  0  0  0  3  0  0  0  0  0  0
  -16.7410  -28.6660   23.1120 C   0  0  0  0  0  3  0  0  0  0  0  0
  -25.9230  -32.5390   23.9120 C   0  0  0  0  0  3  0  0  0  0  0  0
  -26.4110  -31.7710   25.2030 C   0  0  1  0  0  0  0  0  0  0  0  0
  -25.2980  -31.5460   26.2530 C   0  0  0  0  0  1  0  0  0  0  0  0
  -26.9940  -30.3880   24.8350 C   0  0  0  0  0  1  0  0  0  0  0  0
  -27.5540  -32.5630   25.8800 C   0  0  0  0  0  1  0  0  0  0  0  0
  -25.6130  -33.9410   24.2420 N   0  0  0  0  0  0  0  0  0  0  0  0
  -25.9280  -34.9960   23.4790 C   0  0  0  0  0  0  0  0  0  0  0  0
  -26.5740  -34.8910   22.4330 O   0  0  0  0  0  0  0  0  0  0  0  0
  -25.0340  -34.0940   25.0540 H   0  0  0  0  0  0  0  0  0  0  0  0
  -24.1750  -36.7800   23.1890 C   0  0  0  0  0  1  0  0  0  0  0  0
  -25.4520  -36.3860   23.9480 C   0  0  0  0  0  3  0  0  0  0  0  0
  -27.6100  -37.2980   24.6860 C   0  0  0  0  0  1  0  0  0  0  0  0
  -26.4720  -37.4440   23.7820 N   0  0  0  0  0  0  0  0  0  0  0  0
  -26.0660  -38.3650   23.9310 H   0  0  0  0  0  0  0  0  0  0  0  0
  2  1  1  0
  4 49  1  0
  4  5  1  0
  5 18  1  0
  5  3  1  0
  6  1  1  0
  6  3  1  0
  7  2  1  0
  7  4  1  0
  7  8  1  0
  8  9  1  1
  8  6  1  0
 10 18  1  0
 11 16  1  0
 12 13  1  0
 12 11  1  0
 14 13  1  0
 14 23  1  0
 14 15  1  0
 16 10  1  0
 16 15  1  0
 17 10  2  0
 18 19  1  0
 20 21  2  0
 21 40  1  0
 22 21  1  0
 22 25  1  0
 23 24  1  0
 23 20  1  0
 24 22  2  0
 25 26  1  0
 26 27  2  0
 28 31  1  0
 28 27  1  0
 29 28  2  0
 30 29  1  0
 30 25  2  0
 31 32  1  0
 32 33  1  0
 33 34  2  0
 35 34  1  0
 35 39  1  0
 36 35  2  0
 37 32  2  0
 37 36  1  0
 38 37  1  0
 40 41  1  0
 41 44  1  0
 41 43  1  0
 42 40  2  0
 45 46  1  0
 45 20  1  0
 47 45  1  0
 48 49  1  0
 50  8  1  0
 51 52  1  0
 51 50  2  0
 53 64  2  0
 54 52  1  0
 54 59  1  0
 55 63  1  0
 55 65  1  0
 56 62  1  0
 56 58  1  0
 57 63  1  0
 58 57  1  0
 59 58  2  0
 60 54  2  0
 61 60  1  0
 61 56  2  0
 62 55  1  0
 63 53  1  0
 65 67  2  0
 66 65  1  0
 68 66  1  0
 69 78  2  0
 69 74  1  0
 70 66  1  0
 70 74  1  0
 71 70  1  0
 72 73  1  0
 72 71  1  0
 73 69  1  0
 74 75  2  0
 75 76  1  0
 77 76  2  0
 78 77  1  0
 79 53  1  0
 79 84  1  0
 79 80  1  0
 80 83  1  1
 80 81  1  0
 82 80  1  0
 84 87  1  0
 85 89  1  0
 85 84  1  0
 86 85  2  0
 89 88  1  0
 91 92  1  0
 91 89  1  0
 91 90  1  0
M  ISO  4  10 100  18 100  51 101  52 101
M  END
>  <TORSDO>  (11) 
F 19

>  <SCORE>  (11) 
-14.886

>  <name>  (11) 
10

>  <ligand_id>  (11) 
10

>  <original_smiles>  (11) 
[H]c1c([H])c([H])c2c(c1[H])C([H])([H])C([H])([H])C([H])([H])C2([H])N([H])C(=O)C1([H])N(C(=O)C([H])(N([H])C(=O)C([H])(N([H])C([H])([H])[H])C([H])([H])[H])C(C([H])([H])[H])(C([H])([H])[H])C([H])([H])[H])C([H])([H])c2c([H])c(OC([H])([H])C([H])([H])[N+]3([H])C4([H])C([H])([H])C([H])([H])C3([H])C([H])(C([H])([H])C([H])([H])[H])C([H])(N([H])C(=O)N3C([H])([H])C([H])([H])C([H])([H])C([H])(n5nc(-c6c([H])c([H])c(Oc7c([H])c([H])c(F)c([H])c7F)c([H])c6[H])c(C(=O)N([H])[H])c5N([H])[H])C3([H])[H])C4([H])[H])c([H])c([H])c2C1([H])[H]

>  <smiles>  (11) 
[H]c1c([H])c([H])c2c(c1[H])C([H])([H])C([H])([H])C([H])([H])C2([H])N([H])C(=O)C1([H])N(C(=O)C([H])(N([H])C(=O)C([H])(N([H])C([H])([H])[H])C([H])([H])[H])C(C([H])([H])[H])(C([H])([H])[H])C([H])([H])[H])C([H])([H])c2c([H])c(OC([H])([H])C([H])([H])[N+]3([H])C4([H])C([H])([H])C([H])([H])C3([H])C([H])(C([H])([H])C([H])([H])[H])C([H])(N([H])C(=O)N3C([H])([H])C([H])([H])C([H])([H])C([H])(n5nc(-c6c([H])c([H])c(Oc7c([H])c([H])c(F)c([H])c7F)c([H])c6[H])c(C(=O)N([H])[H])c5N([H])[H])C3([H])[H])C4([H])[H])c([H])c([H])c2C1([H])[H]

$$$$
11:0:0
     RDKit          3D

 88 96  0  0  1  0  0  0  0  0999 V2000
  -28.7830  -21.7640   19.8150 C   0  0  0  0  0  0  0  0  0  0  0  0
  -27.7530  -21.6070   19.1580 O   0  0  0  0  0  0  0  0  0  0  0  0
  -29.6840  -20.4770   20.1160 C   0  0  0  0  0  3  0  0  0  0  0  0
  -29.5870  -19.1270   19.6640 C   0  0  0  0  0  3  0  0  0  0  0  0
  -30.7390  -15.0420   19.7670 C   0  0  0  0  0  0  0  0  0  0  0  0
  -30.5630  -12.7210   18.7310 C   0  0  0  0  0  2  0  0  0  0  0  0
  -29.4720  -12.6620   17.6350 C   0  0  0  0  0  2  0  0  0  0  0  0
  -28.0670  -12.4360   18.2350 C   0  0  0  0  0  2  0  0  0  0  0  0
  -27.8150  -13.3060   19.4950 C   0  0  0  0  0  3  0  0  0  0  0  0
  -29.0120  -13.1920   20.4590 C   0  0  0  0  0  2  0  0  0  0  0  0
  -30.1580  -13.7610   19.7280 N   0  0  0  0  0  0  0  0  0  0  0  0
  -31.8990  -15.0980   19.3350 O   0  0  0  0  0  0  0  0  0  0  0  0
  -29.6660  -17.2160   22.1680 C   0  0  0  0  0  2  0  0  0  0  0  0
  -30.8590  -17.9010   21.4930 C   0  0  0  0  0  2  0  0  0  0  0  0
  -28.9800  -16.4250   21.0420 C   0  0  0  0  0  2  0  0  0  0  0  0
  -30.5050  -17.7870   20.0080 C   0  0  0  0  0  3  0  0  0  0  0  0
  -30.0090  -16.2750   20.0070 N   0  0  0  0  0  0  0  0  0  0  0  0
  -25.5670  -13.8740   20.5770 C   0  0  0  0  0  0  0  0  0  0  0  0
  -24.5300  -13.0950   21.0090 C   0  0  0  0  0  0  0  0  0  0  0  0
  -24.9370  -11.7420   20.7900 C   0  0  0  0  0  0  0  0  0  0  0  0
  -26.5410  -12.9960   20.1300 N   0  0  0  0  0  0  0  0  0  0  0  0
  -26.1770  -11.7020   20.3170 N   0  0  0  0  0  0  0  0  0  0  0  0
  -24.1920  -10.4870   20.9500 C   0  0  0  0  0  0  0  0  0  0  0  0
  -24.6420   -9.4680   21.8180 C   0  0  0  0  0  3  0  0  0  0  0  0
  -23.8990   -8.2780   21.9710 C   0  0  0  0  0  3  0  0  0  0  0  0
  -22.6910   -8.0990   21.2570 C   0  0  0  0  0  0  0  0  0  0  0  0
  -22.2590   -9.1070   20.3760 C   0  0  0  0  0  3  0  0  0  0  0  0
  -23.0030  -10.2880   20.2210 C   0  0  0  0  0  3  0  0  0  0  0  0
  -21.9160   -6.9670   21.3240 O   0  0  0  0  0  0  0  0  0  0  0  0
  -21.8110   -6.2340   22.4780 C   0  0  0  0  0  0  0  0  0  0  0  0
  -21.3440   -6.8030   23.6840 C   0  0  0  0  0  3  0  0  0  0  0  0
  -21.1860   -5.9970   24.8300 C   0  0  0  0  0  3  0  0  0  0  0  0
  -21.4860   -4.6230   24.7700 C   0  0  0  0  0  0  0  0  0  0  0  0
  -21.9460   -4.0530   23.5700 C   0  0  0  0  0  3  0  0  0  0  0  0
  -22.1050   -4.8570   22.4270 C   0  0  0  0  0  0  0  0  0  0  0  0
  -22.5290   -4.2990   21.2680 F   0  0  0  0  0  0  0  0  0  0  0  0
  -21.3270   -3.8470   25.8670 F   0  0  0  0  0  0  0  0  0  0  0  0
  -23.1970  -13.5780   21.5010 C   0  0  0  0  0  0  0  0  0  0  0  0
  -22.5720  -12.8370   22.4080 N   0  0  0  0  0  0  0  0  0  0  0  0
  -22.7260  -14.6480   21.1170 O   0  0  0  0  0  0  0  0  0  0  0  0
  -22.9680  -11.9720   22.7430 H   0  0  0  0  0  0  0  0  0  0  0  0
  -21.6810  -13.1400   22.7750 H   0  0  0  0  0  0  0  0  0  0  0  0
  -25.7510  -15.2520   20.5000 N   0  0  0  0  0  0  0  0  0  0  0  0
  -25.0060  -15.9010   20.7290 H   0  0  0  0  0  0  0  0  0  0  0  0
  -26.5500  -15.6990   20.0720 H   0  0  0  0  0  0  0  0  0  0  0  0
  -29.0770  -23.3290   20.2830 C   0  0  0  0  0  3  0  0  0  0  0  0
  -28.0480  -24.6430   20.0180 C   0  0  0  0  0  3  0  0  0  0  0  0
  -28.2820  -26.1540   20.3340 O   0  0  0  0  0  0  0  0  0  0  0  0
  -24.6140  -31.8510   23.2590 C   0  0  0  0  0  0  0  0  0  0  0  0
  -27.2220  -27.1320   20.2570 C   0  0  0  0  0  0  0  0  0  0  0  0
  -23.4320  -30.4580   21.6060 C   0  0  0  0  0  3  0  0  0  0  0  0
  -24.8930  -28.8760   20.2020 C   0  0  0  0  0  0  0  0  0  0  0  0
  -25.9890  -30.7160   21.4730 C   0  0  0  0  0  2  0  0  0  0  0  0
  -26.0680  -29.3230   20.8220 C   0  0  0  0  0  0  0  0  0  0  0  0
  -27.2330  -28.4680   20.8310 C   0  0  0  0  0  3  0  0  0  0  0  0
  -26.0190  -26.7850   19.6030 C   0  0  0  0  0  3  0  0  0  0  0  0
  -24.8820  -27.6200   19.5790 C   0  0  0  0  0  3  0  0  0  0  0  0
  -23.6690  -29.7770   20.2310 C   0  0  0  0  0  2  0  0  0  0  0  0
  -24.6990  -31.0300   22.1670 N   0  0  0  0  0  0  0  0  0  0  0  0
  -23.5210  -32.1400   23.7710 O   0  0  0  0  0  0  0  0  0  0  0  0
  -22.7370  -29.4540   22.5590 C   0  0  0  0  0  0  0  0  0  0  0  0
  -21.4120  -29.2840   22.4110 N   0  0  0  0  0  0  0  0  0  0  0  0
  -23.3940  -28.8310   23.3970 O   0  0  0  0  0  0  0  0  0  0  0  0
  -20.9380  -29.8380   21.7090 H   0  0  0  0  0  0  0  0  0  0  0  0
  -18.0200  -28.1000   22.8710 C   0  0  0  0  0  0  0  0  0  0  0  0
  -20.5760  -28.3500   23.1710 C   0  0  0  0  0  3  0  0  0  0  0  0
  -20.6760  -26.9140   22.6010 C   0  0  0  0  0  2  0  0  0  0  0  0
  -19.5880  -26.5980   21.5700 C   0  0  0  0  0  2  0  0  0  0  0  0
  -18.1980  -26.7500   22.1960 C   0  0  0  0  0  2  0  0  0  0  0  0
  -19.1360  -28.8560   23.3170 C   0  0  0  0  0  0  0  0  0  0  0  0
  -18.9130  -30.1170   23.9130 C   0  0  0  0  0  3  0  0  0  0  0  0
  -17.6080  -30.6220   24.0670 C   0  0  0  0  0  3  0  0  0  0  0  0
  -16.5070  -29.8630   23.6350 C   0  0  0  0  0  3  0  0  0  0  0  0
  -16.7130  -28.6040   23.0430 C   0  0  0  0  0  3  0  0  0  0  0  0
  -25.8860  -32.4840   23.9030 C   0  0  0  0  0  3  0  0  0  0  0  0
  -26.3540  -31.7360   25.2120 C   0  0  1  0  0  0  0  0  0  0  0  0
  -25.2270  -31.5390   26.2540 C   0  0  0  0  0  1  0  0  0  0  0  0
  -26.9280  -30.3430   24.8720 C   0  0  0  0  0  1  0  0  0  0  0  0
  -27.4950  -32.5320   25.8880 C   0  0  0  0  0  1  0  0  0  0  0  0
  -25.5820  -33.8940   24.2000 N   0  0  0  0  0  0  0  0  0  0  0  0
  -25.9220  -34.9300   23.4210 C   0  0  0  0  0  0  0  0  0  0  0  0
  -26.5940  -34.7990   22.3940 O   0  0  0  0  0  0  0  0  0  0  0  0
  -24.9880  -34.0690   24.9960 H   0  0  0  0  0  0  0  0  0  0  0  0
  -24.2080  -36.7320   23.0360 C   0  0  0  0  0  1  0  0  0  0  0  0
  -25.4500  -36.3340   23.8510 C   0  0  0  0  0  3  0  0  0  0  0  0
  -27.5930  -37.2240   24.6540 C   0  0  0  0  0  1  0  0  0  0  0  0
  -26.4910  -37.3760   23.7100 N   0  0  0  0  0  0  0  0  0  0  0  0
  -26.0910  -38.3020   23.8330 H   0  0  0  0  0  0  0  0  0  0  0  0
  1  3  1  0
  1 46  1  0
  2  1  2  0
  4  3  2  0
  5 17  1  0
  6 11  1  0
  7  8  1  0
  7  6  1  0
  9  8  1  0
  9 21  1  0
  9 10  1  0
 11  5  1  0
 11 10  1  0
 12  5  2  0
 14 13  1  0
 15 13  1  0
 16  4  1  0
 16 14  1  0
 17 16  1  0
 17 15  1  0
 18 19  2  0
 19 38  1  0
 20 23  1  0
 20 19  1  0
 21 22  1  0
 21 18  1  0
 22 20  2  0
 23 24  1  0
 24 25  2  0
 26 29  1  0
 26 25  1  0
 27 26  2  0
 28 27  1  0
 28 23  2  0
 29 30  1  0
 30 31  1  0
 31 32  2  0
 33 32  1  0
 33 37  1  0
 34 33  2  0
 35 30  2  0
 35 34  1  0
 36 35  1  0
 38 39  1  0
 39 41  1  0
 39 42  1  0
 40 38  2  0
 43 18  1  0
 43 44  1  0
 45 43  1  0
 47 46  2  0
 47 48  1  0
 49 60  2  0
 50 48  1  0
 50 55  1  0
 51 59  1  0
 51 61  1  0
 52 58  1  0
 52 54  1  0
 53 59  1  0
 54 55  2  0
 54 53  1  0
 56 50  2  0
 57 56  1  0
 57 52  2  0
 58 51  1  0
 59 49  1  0
 61 63  2  0
 62 61  1  0
 64 62  1  0
 65 74  2  0
 65 70  1  0
 66 62  1  0
 66 70  1  0
 67 66  1  0
 68 69  1  0
 68 67  1  0
 69 65  1  0
 70 71  2  0
 71 72  1  0
 73 72  2  0
 74 73  1  0
 75 49  1  0
 75 80  1  0
 75 76  1  0
 76 79  1  1
 76 77  1  0
 78 76  1  0
 80 83  1  0
 81 85  1  0
 81 80  1  0
 82 81  2  0
 85 84  1  0
 87 88  1  0
 87 85  1  0
 87 86  1  0
M  ISO  4   5 100  17 100  47 101  48 101
M  END
>  <TORSDO>  (12) 
F 19

>  <SCORE>  (12) 
-12.883

>  <name>  (12) 
11

>  <ligand_id>  (12) 
11

>  <original_smiles>  (12) 
[H]C(C(=O)C([H])([H])C([H])([H])Oc1c([H])c([H])c2c(c1[H])C([H])([H])N(C(=O)C([H])(N([H])C(=O)C([H])(N([H])C([H])([H])[H])C([H])([H])[H])C(C([H])([H])[H])(C([H])([H])[H])C([H])([H])[H])C([H])(C(=O)N([H])C1([H])c3c([H])c([H])c([H])c([H])c3C([H])([H])C([H])([H])C1([H])[H])C2([H])[H])=C([H])C1([H])N(C(=O)N2C([H])([H])C([H])([H])C([H])([H])C([H])(n3nc(-c4c([H])c([H])c(Oc5c([H])c([H])c(F)c([H])c5F)c([H])c4[H])c(C(=O)N([H])[H])c3N([H])[H])C2([H])[H])C([H])([H])C([H])([H])C1([H])[H]

>  <smiles>  (12) 
[H]C(C(=O)C([H])([H])C([H])([H])Oc1c([H])c([H])c2c(c1[H])C([H])([H])N(C(=O)C([H])(N([H])C(=O)C([H])(N([H])C([H])([H])[H])C([H])([H])[H])C(C([H])([H])[H])(C([H])([H])[H])C([H])([H])[H])C([H])(C(=O)N([H])C1([H])c3c([H])c([H])c([H])c([H])c3C([H])([H])C([H])([H])C1([H])[H])C2([H])[H])=C([H])C1([H])N(C(=O)N2C([H])([H])C([H])([H])C([H])([H])C([H])(n3nc(-c4c([H])c([H])c(Oc5c([H])c([H])c(F)c([H])c5F)c([H])c4[H])c(C(=O)N([H])[H])c3N([H])[H])C2([H])[H])C([H])([H])C([H])([H])C1([H])[H]

$$$$
12:0:0
     RDKit          3D

 93101  0  0  1  0  0  0  0  0999 V2000
  -29.0010  -23.3780   20.2790 C   0  0  0  0  0  3  0  0  0  0  0  0
  -28.8450  -21.8670   19.5830 C   0  0  0  0  0  0  0  0  0  0  0  0
  -28.1900  -18.9770   20.6090 C   0  0  0  0  0  2  0  0  0  0  0  0
  -28.8410  -20.1380   21.3730 C   0  0  0  0  0  2  0  0  0  0  0  0
  -29.2620  -19.1250   19.5230 C   0  0  0  0  0  3  0  0  0  0  0  0
  -29.4320  -20.5880   20.1100 N   0  0  0  0  0  0  0  0  0  0  0  0
  -28.2420  -21.8110   18.5120 O   0  0  0  0  0  0  0  0  0  0  0  0
  -30.8720  -15.2670   19.6990 C   0  0  0  0  0  0  0  0  0  0  0  0
  -30.7600  -12.8270   18.9800 C   0  0  0  0  0  2  0  0  0  0  0  0
  -29.7870  -12.6650   17.7910 C   0  0  0  0  0  2  0  0  0  0  0  0
  -28.3360  -12.4850   18.2770 C   0  0  0  0  0  2  0  0  0  0  0  0
  -27.9650  -13.4670   19.4180 C   0  0  0  0  0  3  0  0  0  0  0  0
  -29.0680  -13.6000   20.4880 C   0  0  0  0  0  2  0  0  0  0  0  0
  -30.2950  -13.9930   19.7850 N   0  0  0  0  0  0  0  0  0  0  0  0
  -32.0690  -15.2850   19.3790 O   0  0  0  0  0  0  0  0  0  0  0  0
  -30.3680  -17.8610   19.6180 C   0  0  0  0  0  0  0  0  0  0  0  0
  -30.0740  -16.4610   19.7700 N   0  0  0  0  0  0  0  0  0  0  0  0
  -31.5430  -18.2230   19.5200 O   0  0  0  0  0  0  0  0  0  0  0  0
  -29.0980  -16.2760   19.9310 H   0  0  0  0  0  0  0  0  0  0  0  0
  -25.6920  -14.0880   20.3800 C   0  0  0  0  0  0  0  0  0  0  0  0
  -24.6300  -13.3410   20.8110 C   0  0  0  0  0  0  0  0  0  0  0  0
  -25.0290  -11.9740   20.6760 C   0  0  0  0  0  0  0  0  0  0  0  0
  -26.6650  -13.1810   20.0070 N   0  0  0  0  0  0  0  0  0  0  0  0
  -26.2850  -11.9000   20.2470 N   0  0  0  0  0  0  0  0  0  0  0  0
  -24.2680  -10.7340   20.8720 C   0  0  0  0  0  0  0  0  0  0  0  0
  -24.6750   -9.7480   21.7980 C   0  0  0  0  0  3  0  0  0  0  0  0
  -23.9120   -8.5730   21.9740 C   0  0  0  0  0  3  0  0  0  0  0  0
  -22.7260   -8.3790   21.2290 C   0  0  0  0  0  0  0  0  0  0  0  0
  -22.3380   -9.3510   20.2910 C   0  0  0  0  0  3  0  0  0  0  0  0
  -23.1030  -10.5150   20.1130 C   0  0  0  0  0  3  0  0  0  0  0  0
  -21.9400   -7.2550   21.3170 O   0  0  0  0  0  0  0  0  0  0  0  0
  -21.7990   -6.5640   22.4940 C   0  0  0  0  0  0  0  0  0  0  0  0
  -21.2760   -7.1730   23.6570 C   0  0  0  0  0  3  0  0  0  0  0  0
  -21.0820   -6.4080   24.8250 C   0  0  0  0  0  3  0  0  0  0  0  0
  -21.4020   -5.0350   24.8310 C   0  0  0  0  0  0  0  0  0  0  0  0
  -21.9160   -4.4280   23.6720 C   0  0  0  0  0  3  0  0  0  0  0  0
  -22.1070   -5.1880   22.5070 C   0  0  0  0  0  0  0  0  0  0  0  0
  -22.5820   -4.5920   21.3850 F   0  0  0  0  0  0  0  0  0  0  0  0
  -21.2060   -4.3000   25.9510 F   0  0  0  0  0  0  0  0  0  0  0  0
  -23.2850  -13.8660   21.2170 C   0  0  0  0  0  0  0  0  0  0  0  0
  -22.5920  -13.1580   22.1050 N   0  0  0  0  0  0  0  0  0  0  0  0
  -22.8570  -14.9330   20.7770 O   0  0  0  0  0  0  0  0  0  0  0  0
  -22.9640  -12.3060   22.4950 H   0  0  0  0  0  0  0  0  0  0  0  0
  -21.6820  -13.4790   22.4040 H   0  0  0  0  0  0  0  0  0  0  0  0
  -25.9150  -15.4510   20.2320 N   0  0  0  0  0  0  0  0  0  0  0  0
  -25.1620  -16.1230   20.3280 H   0  0  0  0  0  0  0  0  0  0  0  0
  -26.7000  -15.8020   19.6990 H   0  0  0  0  0  0  0  0  0  0  0  0
  -30.4300  -23.7290   20.2030 N   0  0  0  0  0  4  0  0  0  0  0  0
  -30.1940  -24.4280   20.8880 H   0  0  0  0  0  0  0  0  0  0  0  0
  -30.5010  -22.7270   20.3000 H   0  0  0  0  0  0  0  0  0  0  0  0
  -31.1810  -23.5950   20.8590 H   0  0  0  0  0  0  0  0  0  0  0  0
  -28.0800  -24.7490   19.8590 C   0  0  0  0  0  2  0  0  0  0  0  0
  -28.3030  -26.2700   20.2150 O   0  0  0  0  0  0  0  0  0  0  0  0
  -24.5850  -31.8990   23.1700 C   0  0  0  0  0  0  0  0  0  0  0  0
  -27.2540  -27.2650   20.1050 C   0  0  0  0  0  0  0  0  0  0  0  0
  -23.4220  -30.5200   21.4900 C   0  0  0  0  0  3  0  0  0  0  0  0
  -24.9110  -29.0000   20.0460 C   0  0  0  0  0  0  0  0  0  0  0  0
  -25.9780  -30.8240   21.3660 C   0  0  0  0  0  2  0  0  0  0  0  0
  -26.0780  -29.4480   20.6790 C   0  0  0  0  0  0  0  0  0  0  0  0
  -27.2510  -28.6000   20.6880 C   0  0  0  0  0  3  0  0  0  0  0  0
  -26.0670  -26.9290   19.4190 C   0  0  0  0  0  3  0  0  0  0  0  0
  -24.9220  -27.7570   19.3970 C   0  0  0  0  0  3  0  0  0  0  0  0
  -23.6700  -29.8760   20.0990 C   0  0  0  0  0  2  0  0  0  0  0  0
  -24.6790  -31.1050   22.0620 N   0  0  0  0  0  0  0  0  0  0  0  0
  -23.4880  -32.1590   23.6890 O   0  0  0  0  0  0  0  0  0  0  0  0
  -22.7480  -29.4830   22.4260 C   0  0  0  0  0  0  0  0  0  0  0  0
  -21.4270  -29.2790   22.2700 N   0  0  0  0  0  0  0  0  0  0  0  0
  -23.4200  -28.8670   23.2550 O   0  0  0  0  0  0  0  0  0  0  0  0
  -20.9440  -29.8250   21.5710 H   0  0  0  0  0  0  0  0  0  0  0  0
  -18.0570  -28.0220   22.7170 C   0  0  0  0  0  0  0  0  0  0  0  0
  -20.6100  -28.3170   23.0160 C   0  0  0  0  0  3  0  0  0  0  0  0
  -20.7390  -26.8970   22.4170 C   0  0  0  0  0  2  0  0  0  0  0  0
  -19.6530  -26.5800   21.3850 C   0  0  0  0  0  2  0  0  0  0  0  0
  -18.2630  -26.6900   22.0160 C   0  0  0  0  0  2  0  0  0  0  0  0
  -19.1600  -28.7930   23.1730 C   0  0  0  0  0  0  0  0  0  0  0  0
  -18.9130  -30.0400   23.7910 C   0  0  0  0  0  3  0  0  0  0  0  0
  -17.5990  -30.5130   23.9560 C   0  0  0  0  0  3  0  0  0  0  0  0
  -16.5120  -29.7400   23.5160 C   0  0  0  0  0  3  0  0  0  0  0  0
  -16.7420  -28.4950   22.9030 C   0  0  0  0  0  3  0  0  0  0  0  0
  -25.8450  -32.5410   23.8230 C   0  0  0  0  0  3  0  0  0  0  0  0
  -26.3400  -31.7680   25.1080 C   0  0  1  0  0  0  0  0  0  0  0  0
  -25.2240  -31.5060   26.1460 C   0  0  0  0  0  1  0  0  0  0  0  0
  -26.9560  -30.4000   24.7330 C   0  0  0  0  0  1  0  0  0  0  0  0
  -27.4620  -32.5780   25.7990 C   0  0  0  0  0  1  0  0  0  0  0  0
  -25.5140  -33.9350   24.1550 N   0  0  0  0  0  0  0  0  0  0  0  0
  -25.8280  -34.9970   23.4030 C   0  0  0  0  0  0  0  0  0  0  0  0
  -26.4920  -34.9080   22.3670 O   0  0  0  0  0  0  0  0  0  0  0  0
  -24.9130  -34.0760   24.9540 H   0  0  0  0  0  0  0  0  0  0  0  0
  -24.0750  -36.7750   23.0760 C   0  0  0  0  0  1  0  0  0  0  0  0
  -25.3290  -36.3780   23.8720 C   0  0  0  0  0  3  0  0  0  0  0  0
  -27.4520  -37.2990   24.6990 C   0  0  0  0  0  1  0  0  0  0  0  0
  -26.3480  -37.4450   23.7530 N   0  0  0  0  0  0  0  0  0  0  0  0
  -25.9300  -38.3620   23.8880 H   0  0  0  0  0  0  0  0  0  0  0  0
  1 52  1  0
  2  6  1  0
  2  1  1  0
  3  4  1  0
  5 16  1  0
  5  6  1  0
  5  3  1  0
  6  4  1  0
  7  2  2  0
  8 17  1  0
  8 14  1  0
  9 14  1  0
 10 11  1  0
 10  9  1  0
 12 11  1  0
 12 23  1  0
 12 13  1  0
 14 13  1  0
 15  8  2  0
 16 17  1  0
 17 19  1  0
 18 16  2  0
 20 21  2  0
 21 40  1  0
 22 21  1  0
 22 25  1  0
 23 24  1  0
 23 20  1  0
 24 22  2  0
 25 26  1  0
 26 27  2  0
 28 31  1  0
 28 27  1  0
 29 28  2  0
 30 29  1  0
 30 25  2  0
 31 32  1  0
 32 37  2  0
 32 33  1  0
 33 34  2  0
 34 35  1  0
 35 39  1  0
 36 35  2  0
 37 36  1  0
 38 37  1  0
 40 41  1  0
 41 44  1  0
 41 43  1  0
 42 40  2  0
 45 46  1  0
 45 20  1  0
 47 45  1  0
 48  1  1  0
 48 50  1  0
 48 51  1  0
 48 49  1  0
 52 53  1  0
 54 65  2  0
 55 53  1  0
 55 60  1  0
 56 64  1  0
 56 66  1  0
 57 63  1  0
 57 59  1  0
 58 64  1  0
 59 60  2  0
 59 58  1  0
 61 55  2  0
 62 61  1  0
 62 57  2  0
 63 56  1  0
 64 54  1  0
 66 68  2  0
 67 66  1  0
 69 67  1  0
 70 79  2  0
 70 75  1  0
 71 67  1  0
 71 75  1  0
 72 71  1  0
 73 74  1  0
 73 72  1  0
 74 70  1  0
 75 76  2  0
 76 77  1  0
 78 77  2  0
 79 78  1  0
 80 54  1  0
 80 85  1  0
 80 81  1  0
 81 84  1  1
 81 82  1  0
 83 81  1  0
 85 88  1  0
 86 90  1  0
 86 85  1  0
 87 86  2  0
 90 89  1  0
 92 90  1  0
 92 93  1  0
 92 91  1  0
M  ISO  4   8 100  17 100  52 101  53 101
M  END
>  <TORSDO>  (13) 
F 19

>  <SCORE>  (13) 
-14.162

>  <name>  (13) 
12

>  <ligand_id>  (13) 
12

>  <original_smiles>  (13) 
[H]c1c([H])c([H])c2c(c1[H])C([H])([H])C([H])([H])C([H])([H])C2([H])N([H])C(=O)C1([H])N(C(=O)C([H])(N([H])C(=O)C([H])(N([H])C([H])([H])[H])C([H])([H])[H])C(C([H])([H])[H])(C([H])([H])[H])C([H])([H])[H])C([H])([H])c2c([H])c(OC([H])([H])C([H])(C(=O)N3C([H])([H])C([H])([H])C3([H])C(=O)N([H])C(=O)N3C([H])([H])C([H])([H])C([H])([H])C([H])(n4nc(-c5c([H])c([H])c(Oc6c([H])c([H])c(F)c([H])c6F)c([H])c5[H])c(C(=O)N([H])[H])c4N([H])[H])C3([H])[H])[N+]([H])([H])[H])c([H])c([H])c2C1([H])[H]

>  <smiles>  (13) 
[H]c1c([H])c([H])c2c(c1[H])C([H])([H])C([H])([H])C([H])([H])C2([H])N([H])C(=O)C1([H])N(C(=O)C([H])(N([H])C(=O)C([H])(N([H])C([H])([H])[H])C([H])([H])[H])C(C([H])([H])[H])(C([H])([H])[H])C([H])([H])[H])C([H])([H])c2c([H])c(OC([H])([H])C([H])(C(=O)N3C([H])([H])C([H])([H])C3([H])C(=O)N([H])C(=O)N3C([H])([H])C([H])([H])C([H])([H])C([H])(n4nc(-c5c([H])c([H])c(Oc6c([H])c([H])c(F)c([H])c6F)c([H])c5[H])c(C(=O)N([H])[H])c4N([H])[H])C3([H])[H])[N+]([H])([H])[H])c([H])c([H])c2C1([H])[H]

$$$$
13:0:0
     RDKit          3D

 89 98  0  0  1  0  0  0  0  0999 V2000
  -31.0800  -19.9580   21.1220 C   0  0  0  0  0  3  0  0  0  0  0  0
  -30.9390  -18.5260   20.9610 C   0  0  0  0  0  3  0  0  0  0  0  0
  -28.6940  -18.8900   20.2210 C   0  0  0  0  0  3  0  0  0  0  0  0
  -30.0370  -20.8890   20.8220 C   0  0  0  0  0  0  0  0  0  0  0  0
  -28.8520  -20.3660   20.3460 C   0  0  0  0  0  0  0  0  0  0  0  0
  -29.7440  -17.8780   20.5140 C   0  0  0  0  0  0  0  0  0  0  0  0
  -30.0030  -22.4670   20.9490 C   0  0  0  0  0  2  0  0  0  0  0  0
  -27.9200  -21.6310   20.0550 C   0  0  0  0  0  2  0  0  0  0  0  0
  -28.7300  -23.0690   20.1770 C   0  0  0  0  0  3  0  0  0  0  0  0
  -30.4140  -15.1410   20.2980 C   0  0  0  0  0  0  0  0  0  0  0  0
  -30.3330  -12.7760   19.3190 C   0  0  0  0  0  2  0  0  0  0  0  0
  -29.3810  -12.7010   18.1020 C   0  0  0  0  0  2  0  0  0  0  0  0
  -27.9300  -12.4550   18.5580 C   0  0  0  0  0  2  0  0  0  0  0  0
  -27.5270  -13.3670   19.7450 C   0  0  0  0  0  3  0  0  0  0  0  0
  -28.5990  -13.3980   20.8560 C   0  0  0  0  0  2  0  0  0  0  0  0
  -29.8440  -13.8590   20.2260 N   0  0  0  0  0  0  0  0  0  0  0  0
  -31.6180  -15.2080   20.0200 O   0  0  0  0  0  0  0  0  0  0  0  0
  -29.5900  -16.3170   20.4490 N   0  0  0  0  0  0  0  0  0  0  0  0
  -28.6230  -16.0370   20.5210 H   0  0  0  0  0  0  0  0  0  0  0  0
  -25.1580  -13.9260   20.5260 C   0  0  0  0  0  0  0  0  0  0  0  0
  -24.1010  -13.1450   20.9000 C   0  0  0  0  0  0  0  0  0  0  0  0
  -24.5690  -11.7950   20.8510 C   0  0  0  0  0  0  0  0  0  0  0  0
  -26.2010  -13.0550   20.2610 N   0  0  0  0  0  0  0  0  0  0  0  0
  -25.8560  -11.7660   20.5220 N   0  0  0  0  0  0  0  0  0  0  0  0
  -23.8480  -10.5290   21.0410 C   0  0  0  0  0  0  0  0  0  0  0  0
  -24.2920   -9.5550   21.9610 C   0  0  0  0  0  3  0  0  0  0  0  0
  -23.5660   -8.3570   22.1410 C   0  0  0  0  0  3  0  0  0  0  0  0
  -22.3850   -8.1240   21.3990 C   0  0  0  0  0  0  0  0  0  0  0  0
  -21.9600   -9.0870   20.4670 C   0  0  0  0  0  3  0  0  0  0  0  0
  -22.6840  -10.2770   20.2860 C   0  0  0  0  0  3  0  0  0  0  0  0
  -21.6330   -6.9770   21.4850 O   0  0  0  0  0  0  0  0  0  0  0  0
  -21.5930   -6.2290   22.6340 C   0  0  0  0  0  0  0  0  0  0  0  0
  -21.1630   -6.7740   23.8630 C   0  0  0  0  0  3  0  0  0  0  0  0
  -21.0700   -5.9510   25.0040 C   0  0  0  0  0  3  0  0  0  0  0  0
  -21.3990   -4.5860   24.9160 C   0  0  0  0  0  0  0  0  0  0  0  0
  -21.8220   -4.0400   23.6920 C   0  0  0  0  0  3  0  0  0  0  0  0
  -21.9150   -4.8600   22.5540 C   0  0  0  0  0  0  0  0  0  0  0  0
  -22.3040   -4.3230   21.3710 F   0  0  0  0  0  0  0  0  0  0  0  0
  -21.3030   -3.7940   26.0100 F   0  0  0  0  0  0  0  0  0  0  0  0
  -22.7070  -13.6170   21.1920 C   0  0  0  0  0  0  0  0  0  0  0  0
  -21.9930  -12.9130   22.0620 N   0  0  0  0  0  0  0  0  0  0  0  0
  -22.2630  -14.6460   20.6870 O   0  0  0  0  0  0  0  0  0  0  0  0
  -22.3660  -12.0780   22.4900 H   0  0  0  0  0  0  0  0  0  0  0  0
  -21.0600  -13.2160   22.3060 H   0  0  0  0  0  0  0  0  0  0  0  0
  -25.3130  -15.3010   20.3680 N   0  0  0  0  0  0  0  0  0  0  0  0
  -24.5450  -15.9430   20.5210 H   0  0  0  0  0  0  0  0  0  0  0  0
  -26.1530  -15.7580   20.0390 H   0  0  0  0  0  0  0  0  0  0  0  0
  -27.9260  -24.5620   20.5550 C   0  0  0  0  0  2  0  0  0  0  0  0
  -28.2380  -26.1120   20.3630 O   0  0  0  0  0  0  0  0  0  0  0  0
  -24.6140  -31.9410   23.2730 C   0  0  0  0  0  0  0  0  0  0  0  0
  -27.2000  -27.1400   20.3110 C   0  0  0  0  0  0  0  0  0  0  0  0
  -23.4270  -30.5290   21.6410 C   0  0  0  0  0  3  0  0  0  0  0  0
  -24.8840  -28.9340   20.2470 C   0  0  0  0  0  0  0  0  0  0  0  0
  -25.9870  -30.7760   21.4960 C   0  0  0  0  0  2  0  0  0  0  0  0
  -26.0650  -29.3700   20.8610 C   0  0  0  0  0  0  0  0  0  0  0  0
  -27.2250  -28.4920   20.8730 C   0  0  0  0  0  3  0  0  0  0  0  0
  -25.9930  -26.8330   19.6450 C   0  0  0  0  0  3  0  0  0  0  0  0
  -24.8640  -27.6810   19.6210 C   0  0  0  0  0  3  0  0  0  0  0  0
  -23.6660  -29.8440   20.2710 C   0  0  0  0  0  2  0  0  0  0  0  0
  -24.6960  -31.1050   22.1920 N   0  0  0  0  0  0  0  0  0  0  0  0
  -23.5240  -32.2290   23.7920 O   0  0  0  0  0  0  0  0  0  0  0  0
  -22.7380  -29.5310   22.6080 C   0  0  0  0  0  0  0  0  0  0  0  0
  -21.4110  -29.3530   22.4740 N   0  0  0  0  0  0  0  0  0  0  0  0
  -23.4020  -28.9150   23.4460 O   0  0  0  0  0  0  0  0  0  0  0  0
  -20.9280  -29.9040   21.7770 H   0  0  0  0  0  0  0  0  0  0  0  0
  -18.0340  -28.1310   22.9600 C   0  0  0  0  0  0  0  0  0  0  0  0
  -20.5880  -28.4210   23.2480 C   0  0  0  0  0  3  0  0  0  0  0  0
  -20.7080  -26.9800   22.6980 C   0  0  0  0  0  2  0  0  0  0  0  0
  -19.6210  -26.6320   21.6760 C   0  0  0  0  0  2  0  0  0  0  0  0
  -18.2310  -26.7730   22.3040 C   0  0  0  0  0  2  0  0  0  0  0  0
  -19.1410  -28.9090   23.3880 C   0  0  0  0  0  0  0  0  0  0  0  0
  -18.9060  -30.1750   23.9670 C   0  0  0  0  0  3  0  0  0  0  0  0
  -17.5960  -30.6680   24.1150 C   0  0  0  0  0  3  0  0  0  0  0  0
  -16.5010  -29.8900   23.6990 C   0  0  0  0  0  3  0  0  0  0  0  0
  -16.7210  -28.6210   23.1320 C   0  0  0  0  0  3  0  0  0  0  0  0
  -25.8860  -32.5880   23.8980 C   0  0  0  0  0  3  0  0  0  0  0  0
  -25.5660  -33.9880   24.2210 N   0  0  0  0  0  0  0  0  0  0  0  0
  -25.8840  -35.0400   23.4540 C   0  0  0  0  0  0  0  0  0  0  0  0
  -26.5430  -34.9350   22.4160 O   0  0  0  0  0  0  0  0  0  0  0  0
  -24.9810  -34.1420   25.0280 H   0  0  0  0  0  0  0  0  0  0  0  0
  -24.1410  -36.8260   23.1120 C   0  0  0  0  0  1  0  0  0  0  0  0
  -25.3950  -36.4310   23.9090 C   0  0  0  0  0  3  0  0  0  0  0  0
  -27.5350  -37.3400   24.7010 C   0  0  0  0  0  1  0  0  0  0  0  0
  -26.4190  -37.4910   23.7710 N   0  0  0  0  0  0  0  0  0  0  0  0
  -26.0070  -38.4080   23.9150 H   0  0  0  0  0  0  0  0  0  0  0  0
  -26.3930  -31.8320   25.1880 C   0  0  1  0  0  0  0  0  0  0  0  0
  -25.2920  -31.6040   26.2500 C   0  0  0  0  0  1  0  0  0  0  0  0
  -26.9820  -30.4500   24.8210 C   0  0  0  0  0  1  0  0  0  0  0  0
  -27.5380  -32.6350   25.8500 C   0  0  0  0  0  1  0  0  0  0  0  0
  2  1  1  0
  3  5  2  0
  3  6  1  0
  4  7  1  0
  4  1  2  0
  5  4  1  0
  6  2  2  0
  8  9  1  0
  8  5  1  0
  9 48  1  0
  9  7  1  0
 10 18  1  0
 11 16  1  0
 12 13  1  0
 12 11  1  0
 14 13  1  0
 14 23  1  0
 14 15  1  0
 16 10  1  0
 16 15  1  0
 17 10  2  0
 18  6  1  0
 18 19  1  0
 20 21  2  0
 21 40  1  0
 22 21  1  0
 22 25  1  0
 23 24  1  0
 23 20  1  0
 24 22  2  0
 25 26  1  0
 26 27  2  0
 28 31  1  0
 28 27  1  0
 29 28  2  0
 30 29  1  0
 30 25  2  0
 31 32  1  0
 32 33  1  0
 33 34  2  0
 35 34  1  0
 35 39  1  0
 36 35  2  0
 37 32  2  0
 37 36  1  0
 38 37  1  0
 40 41  1  0
 41 44  1  0
 41 43  1  0
 42 40  2  0
 45 46  1  0
 45 20  1  0
 47 45  1  0
 49 48  1  0
 50 61  2  0
 51 49  1  0
 51 56  1  0
 52 60  1  0
 52 62  1  0
 53 59  1  0
 53 55  1  0
 54 60  1  0
 55 56  2  0
 55 54  1  0
 57 51  2  0
 58 57  1  0
 58 53  2  0
 59 52  1  0
 60 50  1  0
 62 64  2  0
 63 62  1  0
 65 63  1  0
 66 75  2  0
 66 71  1  0
 67 63  1  0
 67 71  1  0
 68 67  1  0
 69 70  1  0
 69 68  1  0
 70 66  1  0
 71 72  2  0
 72 73  1  0
 74 73  2  0
 75 74  1  0
 76 50  1  0
 76 77  1  0
 76 86  1  0
 77 80  1  0
 78 82  1  0
 78 77  1  0
 79 78  2  0
 82 81  1  0
 84 82  1  0
 84 85  1  0
 84 83  1  0
 86 89  1  1
 86 87  1  0
 88 86  1  0
M  ISO  4  10 100  18 100  48 101  49 101
M  END
>  <TORSDO>  (14) 
F 17

>  <SCORE>  (14) 
-15.966

>  <name>  (14) 
13

>  <ligand_id>  (14) 
13

>  <original_smiles>  (14) 
[H]c1c([H])c([H])c2c(c1[H])C([H])([H])C([H])([H])C([H])([H])C2([H])N([H])C(=O)C1([H])N(C(=O)C([H])(N([H])C(=O)C([H])(N([H])C([H])([H])[H])C([H])([H])[H])C(C([H])([H])[H])(C([H])([H])[H])C([H])([H])[H])C([H])([H])c2c([H])c(OC([H])([H])C3([H])C([H])([H])c4c([H])c([H])c(N([H])C(=O)N5C([H])([H])C([H])([H])C([H])([H])C([H])(n6nc(-c7c([H])c([H])c(Oc8c([H])c([H])c(F)c([H])c8F)c([H])c7[H])c(C(=O)N([H])[H])c6N([H])[H])C5([H])[H])c([H])c4C3([H])[H])c([H])c([H])c2C1([H])[H]

>  <smiles>  (14) 
[H]c1c([H])c([H])c2c(c1[H])C([H])([H])C([H])([H])C([H])([H])C2([H])N([H])C(=O)C1([H])N(C(=O)C([H])(N([H])C(=O)C([H])(N([H])C([H])([H])[H])C([H])([H])[H])C(C([H])([H])[H])(C([H])([H])[H])C([H])([H])[H])C([H])([H])c2c([H])c(OC([H])([H])C3([H])C([H])([H])c4c([H])c([H])c(N([H])C(=O)N5C([H])([H])C([H])([H])C([H])([H])C([H])(n6nc(-c7c([H])c([H])c(Oc8c([H])c([H])c(F)c([H])c8F)c([H])c7[H])c(C(=O)N([H])[H])c6N([H])[H])C5([H])[H])c([H])c4C3([H])[H])c([H])c([H])c2C1([H])[H]

$$$$
14:0:0
     RDKit          3D

 90 98  0  0  1  0  0  0  0  0999 V2000
  -28.6420  -21.0400   21.4470 C   0  0  0  0  0  2  0  0  0  0  0  0
  -29.6880  -21.3710   19.7550 C   0  0  0  0  0  2  0  0  0  0  0  0
  -29.3910  -22.3390   20.9660 C   0  0  0  0  0  3  0  0  0  0  0  0
  -29.6410  -20.1950   20.7150 N   0  0  2  0  0  4  0  0  0  0  0  0
  -30.4970  -20.1760   21.2510 H   0  0  0  0  0  0  0  0  0  0  0  0
  -30.0820  -24.6870   21.7690 C   0  0  0  0  0  1  0  0  0  0  0  0
  -27.7620  -23.9130   22.1890 C   0  0  0  0  0  1  0  0  0  0  0  0
  -28.8900  -23.9260   21.1300 C   0  0  2  0  0  0  0  0  0  0  0  0
  -28.4000  -24.9370   19.9340 C   0  0  0  0  0  2  0  0  0  0  0  0
  -28.4090  -26.4450   20.1770 O   0  0  0  0  0  0  0  0  0  0  0  0
  -24.6060  -31.8520   23.2060 C   0  0  0  0  0  0  0  0  0  0  0  0
  -27.2780  -27.3010   20.1100 C   0  0  0  0  0  0  0  0  0  0  0  0
  -23.4340  -30.4650   21.5370 C   0  0  0  0  0  3  0  0  0  0  0  0
  -24.9080  -28.9460   20.0910 C   0  0  0  0  0  0  0  0  0  0  0  0
  -25.9750  -30.7900   21.3820 C   0  0  0  0  0  2  0  0  0  0  0  0
  -26.0680  -29.4180   20.7180 C   0  0  0  0  0  0  0  0  0  0  0  0
  -27.2500  -28.6080   20.7140 C   0  0  0  0  0  3  0  0  0  0  0  0
  -26.0960  -26.9080   19.4430 C   0  0  0  0  0  3  0  0  0  0  0  0
  -24.9300  -27.7030   19.4440 C   0  0  0  0  0  3  0  0  0  0  0  0
  -23.6660  -29.8160   20.1470 C   0  0  0  0  0  2  0  0  0  0  0  0
  -24.6910  -31.0560   22.0990 N   0  0  0  0  0  0  0  0  0  0  0  0
  -23.5110  -32.1040   23.7350 O   0  0  0  0  0  0  0  0  0  0  0  0
  -22.7750  -29.4300   22.4800 C   0  0  0  0  0  0  0  0  0  0  0  0
  -21.4510  -29.2360   22.3420 N   0  0  0  0  0  0  0  0  0  0  0  0
  -23.4530  -28.8060   23.3000 O   0  0  0  0  0  0  0  0  0  0  0  0
  -20.9600  -29.8040   21.6670 H   0  0  0  0  0  0  0  0  0  0  0  0
  -18.0900  -27.9570   22.7850 C   0  0  0  0  0  0  0  0  0  0  0  0
  -20.6400  -28.2690   23.0880 C   0  0  0  0  0  3  0  0  0  0  0  0
  -20.7780  -26.8450   22.5000 C   0  0  0  0  0  2  0  0  0  0  0  0
  -19.7000  -26.5070   21.4700 C   0  0  0  0  0  2  0  0  0  0  0  0
  -18.3070  -26.6190   22.0960 C   0  0  0  0  0  2  0  0  0  0  0  0
  -19.1880  -28.7370   23.2370 C   0  0  0  0  0  0  0  0  0  0  0  0
  -18.9380  -29.9880   23.8440 C   0  0  0  0  0  3  0  0  0  0  0  0
  -17.6220  -30.4590   24.0030 C   0  0  0  0  0  3  0  0  0  0  0  0
  -16.5360  -29.6740   23.5720 C   0  0  0  0  0  3  0  0  0  0  0  0
  -16.7710  -28.4260   22.9670 C   0  0  0  0  0  3  0  0  0  0  0  0
  -25.8740  -32.4970   23.8450 C   0  0  0  0  0  3  0  0  0  0  0  0
  -26.3740  -31.7370   25.1350 C   0  0  1  0  0  0  0  0  0  0  0  0
  -25.2640  -31.5020   26.1870 C   0  0  0  0  0  1  0  0  0  0  0  0
  -26.9770  -30.3640   24.7620 C   0  0  0  0  0  1  0  0  0  0  0  0
  -27.5080  -32.5440   25.8080 C   0  0  0  0  0  1  0  0  0  0  0  0
  -25.5520  -33.8980   24.1670 N   0  0  0  0  0  0  0  0  0  0  0  0
  -25.8890  -34.9510   23.4100 C   0  0  0  0  0  0  0  0  0  0  0  0
  -26.5720  -34.8520   22.3920 O   0  0  0  0  0  0  0  0  0  0  0  0
  -24.9590  -34.0540   24.9680 H   0  0  0  0  0  0  0  0  0  0  0  0
  -24.1700  -36.7470   23.0270 C   0  0  0  0  0  1  0  0  0  0  0  0
  -25.3890  -36.3400   23.8650 C   0  0  0  0  0  3  0  0  0  0  0  0
  -27.5040  -37.2330   24.7410 C   0  0  0  0  0  1  0  0  0  0  0  0
  -26.4210  -37.3950   23.7740 N   0  0  0  0  0  0  0  0  0  0  0  0
  -26.0070  -38.3140   23.9130 H   0  0  0  0  0  0  0  0  0  0  0  0
  -29.2700  -18.7380   20.2980 C   0  0  0  0  0  3  0  0  0  0  0  0
  -30.1980  -17.4690   20.7950 C   0  0  0  0  0  3  0  0  0  0  0  0
  -30.5850  -14.8690   20.2790 C   0  0  0  0  0  0  0  0  0  0  0  0
  -30.4050  -12.5960   19.2240 C   0  0  0  0  0  2  0  0  0  0  0  0
  -29.4480  -12.6510   18.0120 C   0  0  0  0  0  2  0  0  0  0  0  0
  -27.9870  -12.4580   18.4620 C   0  0  0  0  0  2  0  0  0  0  0  0
  -27.6220  -13.3360   19.6880 C   0  0  0  0  0  3  0  0  0  0  0  0
  -28.6930  -13.2490   20.7950 C   0  0  0  0  0  2  0  0  0  0  0  0
  -29.9710  -13.6380   20.1850 N   0  0  0  0  0  0  0  0  0  0  0  0
  -31.7670  -14.9880   19.9510 O   0  0  0  0  0  0  0  0  0  0  0  0
  -29.8030  -15.9900   20.5570 N   0  0  0  0  0  0  0  0  0  0  0  0
  -28.8390  -15.7630   20.7460 H   0  0  0  0  0  0  0  0  0  0  0  0
  -25.2330  -13.9000   20.4230 C   0  0  0  0  0  0  0  0  0  0  0  0
  -24.1800  -13.1150   20.8050 C   0  0  0  0  0  0  0  0  0  0  0  0
  -24.6630  -11.7700   20.7810 C   0  0  0  0  0  0  0  0  0  0  0  0
  -26.2870  -13.0340   20.1910 N   0  0  0  0  0  0  0  0  0  0  0  0
  -25.9510  -11.7480   20.4670 N   0  0  0  0  0  0  0  0  0  0  0  0
  -23.9530  -10.4990   20.9790 C   0  0  0  0  0  0  0  0  0  0  0  0
  -24.3950   -9.5500   21.9260 C   0  0  0  0  0  3  0  0  0  0  0  0
  -23.6880   -8.3430   22.1150 C   0  0  0  0  0  3  0  0  0  0  0  0
  -22.5240   -8.0790   21.3570 C   0  0  0  0  0  0  0  0  0  0  0  0
  -22.1000   -9.0190   20.3980 C   0  0  0  0  0  3  0  0  0  0  0  0
  -22.8080  -10.2140   20.2090 C   0  0  0  0  0  3  0  0  0  0  0  0
  -21.7900   -6.9220   21.4500 O   0  0  0  0  0  0  0  0  0  0  0  0
  -21.7320   -6.2000   22.6140 C   0  0  0  0  0  0  0  0  0  0  0  0
  -21.2570   -6.7620   23.8190 C   0  0  0  0  0  3  0  0  0  0  0  0
  -21.1530   -5.9640   24.9750 C   0  0  0  0  0  3  0  0  0  0  0  0
  -21.5110   -4.6040   24.9270 C   0  0  0  0  0  0  0  0  0  0  0  0
  -21.9790   -4.0400   23.7270 C   0  0  0  0  0  3  0  0  0  0  0  0
  -22.0860   -4.8350   22.5730 C   0  0  0  0  0  0  0  0  0  0  0  0
  -22.5150   -4.2810   21.4130 F   0  0  0  0  0  0  0  0  0  0  0  0
  -21.4050   -3.8340   26.0350 F   0  0  0  0  0  0  0  0  0  0  0  0
  -22.7780  -13.5760   21.0840 C   0  0  0  0  0  0  0  0  0  0  0  0
  -22.0630  -12.8690   21.9510 N   0  0  0  0  0  0  0  0  0  0  0  0
  -22.3250  -14.5990   20.5720 O   0  0  0  0  0  0  0  0  0  0  0  0
  -22.4420  -12.0350   22.3740 H   0  0  0  0  0  0  0  0  0  0  0  0
  -21.1260  -13.1620   22.1910 H   0  0  0  0  0  0  0  0  0  0  0  0
  -25.3780  -15.2720   20.2310 N   0  0  0  0  0  0  0  0  0  0  0  0
  -24.5950  -15.9130   20.3110 H   0  0  0  0  0  0  0  0  0  0  0  0
  -26.2090  -15.7080   19.8520 H   0  0  0  0  0  0  0  0  0  0  0  0
  2  4  1  0
  2  3  1  0
  3  8  1  0
  3  1  1  0
  4  5  1  1
  4  1  1  0
  8  6  1  1
  8  7  1  0
  9 10  1  0
  9  8  1  0
 11 22  2  0
 12 10  1  0
 12 17  1  0
 13 21  1  0
 13 23  1  0
 14 20  1  0
 14 16  1  0
 15 21  1  0
 16 15  1  0
 17 16  2  0
 18 19  1  0
 18 12  2  0
 19 14  2  0
 20 13  1  0
 21 11  1  0
 23 25  2  0
 24 23  1  0
 26 24  1  0
 27 36  2  0
 27 32  1  0
 28 24  1  0
 28 32  1  0
 29 28  1  0
 30 31  1  0
 30 29  1  0
 31 27  1  0
 32 33  2  0
 33 34  1  0
 35 34  2  0
 36 35  1  0
 37 11  1  0
 37 42  1  0
 37 38  1  0
 38 41  1  1
 38 39  1  0
 40 38  1  0
 42 45  1  0
 43 47  1  0
 43 42  1  0
 44 43  2  0
 47 46  1  0
 49 47  1  0
 49 50  1  0
 49 48  1  0
 51  4  1  0
 51 52  2  0
 53 61  1  0
 54 59  1  0
 55 56  1  0
 55 54  1  0
 57 56  1  0
 57 66  1  0
 57 58  1  0
 59 53  1  0
 59 58  1  0
 60 53  2  0
 61 62  1  0
 61 52  1  0
 63 64  2  0
 64 83  1  0
 65 64  1  0
 65 68  1  0
 66 63  1  0
 66 67  1  0
 67 65  2  0
 68 69  1  0
 69 70  2  0
 71 74  1  0
 71 70  1  0
 72 71  2  0
 73 72  1  0
 73 68  2  0
 74 75  1  0
 75 76  1  0
 76 77  2  0
 78 77  1  0
 78 82  1  0
 79 78  2  0
 80 75  2  0
 80 79  1  0
 81 80  1  0
 83 84  1  0
 84 87  1  0
 84 86  1  0
 85 83  2  0
 88 89  1  0
 88 63  1  0
 90 88  1  0
M  ISO  4   9 101  10 101  53 100  61 100
M  END
>  <TORSDO>  (15) 
F 20

>  <SCORE>  (15) 
-13.601

>  <name>  (15) 
14

>  <ligand_id>  (15) 
14

>  <original_smiles>  (15) 
[H]c1c([H])c([H])c2c(c1[H])C([H])([H])C([H])([H])C([H])([H])C2([H])N([H])C(=O)C1([H])N(C(=O)C([H])(N([H])C(=O)C([H])(N([H])C([H])([H])[H])C([H])([H])[H])C(C([H])([H])[H])(C([H])([H])[H])C([H])([H])[H])C([H])([H])c2c([H])c(OC([H])([H])C(C([H])([H])[H])(C([H])([H])[H])C3([H])C([H])([H])[N+]([H])(C([H])([H])C([H])([H])N([H])C(=O)N4C([H])([H])C([H])([H])C([H])([H])C([H])(n5nc(-c6c([H])c([H])c(Oc7c([H])c([H])c(F)c([H])c7F)c([H])c6[H])c(C(=O)N([H])[H])c5N([H])[H])C4([H])[H])C3([H])[H])c([H])c([H])c2C1([H])[H]

>  <smiles>  (15) 
[H]c1c([H])c([H])c2c(c1[H])C([H])([H])C([H])([H])C([H])([H])C2([H])N([H])C(=O)C1([H])N(C(=O)C([H])(N([H])C(=O)C([H])(N([H])C([H])([H])[H])C([H])([H])[H])C(C([H])([H])[H])(C([H])([H])[H])C([H])([H])[H])C([H])([H])c2c([H])c(OC([H])([H])C(C([H])([H])[H])(C([H])([H])[H])C3([H])C([H])([H])[N+]([H])(C([H])([H])C([H])([H])N([H])C(=O)N4C([H])([H])C([H])([H])C([H])([H])C([H])(n5nc(-c6c([H])c([H])c(Oc7c([H])c([H])c(F)c([H])c7F)c([H])c6[H])c(C(=O)N([H])[H])c5N([H])[H])C4([H])[H])C3([H])[H])c([H])c([H])c2C1([H])[H]

$$$$
15:0:0
     RDKit          3D

 92100  0  0  1  0  0  0  0  0999 V2000
  -29.9740  -22.8080   21.1410 C   0  0  0  0  0  3  0  0  0  0  0  0
  -28.6610  -21.1390   20.0230 C   0  0  0  0  0  3  0  0  0  0  0  0
  -28.8080  -22.6460   20.3790 C   0  0  0  0  0  0  0  0  0  0  0  0
  -30.8420  -21.7410   21.5230 C   0  0  0  0  0  0  0  0  0  0  0  0
  -29.5230  -19.9000   20.4110 C   0  0  0  0  0  0  0  0  0  0  0  0
  -30.6100  -20.3340   21.2470 C   0  0  0  0  0  0  0  0  0  0  0  0
  -32.1050  -22.2260   22.2280 C   0  0  0  0  0  1  0  0  0  0  0  0
  -31.5720  -19.2560   21.7940 C   0  0  1  0  0  0  0  0  0  0  0  0
  -30.8860  -18.2190   22.2680 F   0  0  0  0  0  0  0  0  0  0  0  0
  -32.3770  -18.8360   20.8170 F   0  0  0  0  0  0  0  0  0  0  0  0
  -32.3360  -19.6400   22.8180 F   0  0  0  0  0  0  0  0  0  0  0  0
  -29.5490  -18.2210   19.8070 C   0  0  0  0  0  2  0  0  0  0  0  0
  -30.3460  -15.3240   20.1350 C   0  0  0  0  0  0  0  0  0  0  0  0
  -30.3030  -12.8590   19.2840 C   0  0  0  0  0  2  0  0  0  0  0  0
  -29.3700  -12.6500   18.0620 C   0  0  0  0  0  2  0  0  0  0  0  0
  -27.9320  -12.3630   18.5220 C   0  0  0  0  0  2  0  0  0  0  0  0
  -27.4950  -13.3160   19.6630 C   0  0  0  0  0  3  0  0  0  0  0  0
  -28.5610  -13.4890   20.7700 C   0  0  0  0  0  2  0  0  0  0  0  0
  -29.7830  -14.0050   20.1270 N   0  0  0  0  0  0  0  0  0  0  0  0
  -31.5360  -15.3090   19.7890 O   0  0  0  0  0  0  0  0  0  0  0  0
  -29.6040  -16.6080   20.3400 N   0  0  0  0  0  0  0  0  0  0  0  0
  -28.7020  -16.3730   20.7300 H   0  0  0  0  0  0  0  0  0  0  0  0
  -25.1390  -13.8660   20.4620 C   0  0  0  0  0  0  0  0  0  0  0  0
  -24.0840  -13.0890   20.8490 C   0  0  0  0  0  0  0  0  0  0  0  0
  -24.5500  -11.7370   20.8040 C   0  0  0  0  0  0  0  0  0  0  0  0
  -26.1770  -12.9920   20.1960 N   0  0  0  0  0  0  0  0  0  0  0  0
  -25.8350  -11.7040   20.4660 N   0  0  0  0  0  0  0  0  0  0  0  0
  -23.8260  -10.4750   21.0030 C   0  0  0  0  0  0  0  0  0  0  0  0
  -24.2660   -9.5070   21.9310 C   0  0  0  0  0  3  0  0  0  0  0  0
  -23.5370   -8.3120   22.1220 C   0  0  0  0  0  3  0  0  0  0  0  0
  -22.3540   -8.0770   21.3840 C   0  0  0  0  0  0  0  0  0  0  0  0
  -21.9320   -9.0350   20.4440 C   0  0  0  0  0  3  0  0  0  0  0  0
  -22.6600  -10.2200   20.2530 C   0  0  0  0  0  3  0  0  0  0  0  0
  -21.6000   -6.9330   21.4820 O   0  0  0  0  0  0  0  0  0  0  0  0
  -21.5630   -6.1900   22.6350 C   0  0  0  0  0  0  0  0  0  0  0  0
  -21.1460   -6.7460   23.8640 C   0  0  0  0  0  3  0  0  0  0  0  0
  -21.0540   -5.9310   25.0100 C   0  0  0  0  0  3  0  0  0  0  0  0
  -21.3690   -4.5610   24.9280 C   0  0  0  0  0  0  0  0  0  0  0  0
  -21.7770   -4.0050   23.7030 C   0  0  0  0  0  3  0  0  0  0  0  0
  -21.8700   -4.8160   22.5600 C   0  0  0  0  0  0  0  0  0  0  0  0
  -22.2420   -4.2700   21.3760 F   0  0  0  0  0  0  0  0  0  0  0  0
  -21.2760   -3.7780   26.0270 F   0  0  0  0  0  0  0  0  0  0  0  0
  -22.6930  -13.5670   21.1480 C   0  0  0  0  0  0  0  0  0  0  0  0
  -21.9800  -12.8680   22.0250 N   0  0  0  0  0  0  0  0  0  0  0  0
  -22.2470  -14.5950   20.6390 O   0  0  0  0  0  0  0  0  0  0  0  0
  -22.3520  -12.0390   22.4590 H   0  0  0  0  0  0  0  0  0  0  0  0
  -21.0460  -13.1700   22.2650 H   0  0  0  0  0  0  0  0  0  0  0  0
  -25.2970  -15.2380   20.2810 N   0  0  0  0  0  0  0  0  0  0  0  0
  -24.5330  -15.8950   20.3900 H   0  0  0  0  0  0  0  0  0  0  0  0
  -26.1300  -15.6670   19.8990 H   0  0  0  0  0  0  0  0  0  0  0  0
  -27.8640  -24.1140   20.0740 C   0  0  0  0  0  2  0  0  0  0  0  0
  -28.1330  -25.7460   20.3160 O   0  0  0  0  0  0  0  0  0  0  0  0
  -24.6140  -31.8140   23.2370 C   0  0  0  0  0  0  0  0  0  0  0  0
  -27.1420  -26.8760   20.2370 C   0  0  0  0  0  0  0  0  0  0  0  0
  -23.4170  -30.4190   21.6020 C   0  0  0  0  0  3  0  0  0  0  0  0
  -24.8580  -28.7970   20.1860 C   0  0  0  0  0  0  0  0  0  0  0  0
  -25.9870  -30.6050   21.4600 C   0  0  0  0  0  2  0  0  0  0  0  0
  -26.0500  -29.1880   20.8090 C   0  0  0  0  0  0  0  0  0  0  0  0
  -27.1850  -28.2500   20.8060 C   0  0  0  0  0  3  0  0  0  0  0  0
  -25.9190  -26.6500   19.5650 C   0  0  0  0  0  3  0  0  0  0  0  0
  -24.8200  -27.5500   19.5430 C   0  0  0  0  0  3  0  0  0  0  0  0
  -23.6460  -29.7290   20.2290 C   0  0  0  0  0  2  0  0  0  0  0  0
  -24.6960  -30.9740   22.1530 N   0  0  0  0  0  0  0  0  0  0  0  0
  -23.5240  -32.1130   23.7520 O   0  0  0  0  0  0  0  0  0  0  0  0
  -22.7100  -29.4330   22.5720 C   0  0  0  0  0  0  0  0  0  0  0  0
  -21.3780  -29.2800   22.4440 N   0  0  0  0  0  0  0  0  0  0  0  0
  -23.3690  -28.8070   23.4060 O   0  0  0  0  0  0  0  0  0  0  0  0
  -20.9040  -29.8320   21.7440 H   0  0  0  0  0  0  0  0  0  0  0  0
  -17.9840  -28.0900   22.9360 C   0  0  0  0  0  0  0  0  0  0  0  0
  -20.5440  -28.3510   23.2150 C   0  0  0  0  0  3  0  0  0  0  0  0
  -20.6460  -26.9160   22.6460 C   0  0  0  0  0  2  0  0  0  0  0  0
  -19.5480  -26.5900   21.6290 C   0  0  0  0  0  2  0  0  0  0  0  0
  -18.1620  -26.7400   22.2640 C   0  0  0  0  0  2  0  0  0  0  0  0
  -19.1020  -28.8540   23.3670 C   0  0  0  0  0  0  0  0  0  0  0  0
  -18.8800  -30.1150   23.9600 C   0  0  0  0  0  3  0  0  0  0  0  0
  -17.5730  -30.6140   24.1250 C   0  0  0  0  0  3  0  0  0  0  0  0
  -16.4700  -29.8490   23.7090 C   0  0  0  0  0  3  0  0  0  0  0  0
  -16.6770  -28.5880   23.1200 C   0  0  0  0  0  3  0  0  0  0  0  0
  -25.8850  -32.4520   23.8740 C   0  0  0  0  0  3  0  0  0  0  0  0
  -26.3790  -31.6850   25.1640 C   0  0  1  0  0  0  0  0  0  0  0  0
  -25.2720  -31.4650   26.2220 C   0  0  0  0  0  1  0  0  0  0  0  0
  -26.9550  -30.2990   24.7950 C   0  0  0  0  0  1  0  0  0  0  0  0
  -27.5330  -32.4720   25.8310 C   0  0  0  0  0  1  0  0  0  0  0  0
  -25.5740  -33.8530   24.2090 N   0  0  0  0  0  0  0  0  0  0  0  0
  -25.8960  -34.9120   23.4530 C   0  0  0  0  0  0  0  0  0  0  0  0
  -26.5470  -34.8110   22.4110 O   0  0  0  0  0  0  0  0  0  0  0  0
  -24.9900  -34.0040   25.0190 H   0  0  0  0  0  0  0  0  0  0  0  0
  -24.1540  -36.7070   23.1610 C   0  0  0  0  0  1  0  0  0  0  0  0
  -25.4240  -36.3040   23.9270 C   0  0  0  0  0  3  0  0  0  0  0  0
  -27.5850  -37.1980   24.6790 C   0  0  0  0  0  1  0  0  0  0  0  0
  -26.4510  -37.3580   23.7710 N   0  0  0  0  0  0  0  0  0  0  0  0
  -26.0490  -38.2790   23.9260 H   0  0  0  0  0  0  0  0  0  0  0  0
  1  4  1  0
  2  3  1  0
  2  5  2  0
  3  1  2  0
  4  7  1  0
  5  6  1  0
  6  4  2  0
  6  8  1  0
  8  9  1  1
  8 11  1  0
 10  8  1  0
 12 21  1  0
 12  5  1  0
 13 21  1  0
 14 19  1  0
 15 16  1  0
 15 14  1  0
 17 16  1  0
 17 26  1  0
 17 18  1  0
 19 13  1  0
 19 18  1  0
 20 13  2  0
 21 22  1  0
 23 24  2  0
 24 43  1  0
 25 24  1  0
 25 28  1  0
 26 23  1  0
 26 27  1  0
 27 25  2  0
 28 29  1  0
 29 30  2  0
 31 34  1  0
 31 30  1  0
 32 31  2  0
 33 32  1  0
 33 28  2  0
 34 35  1  0
 35 36  1  0
 36 37  2  0
 38 37  1  0
 38 42  1  0
 39 38  2  0
 40 35  2  0
 40 39  1  0
 41 40  1  0
 43 44  1  0
 44 47  1  0
 44 46  1  0
 45 43  2  0
 48 49  1  0
 48 23  1  0
 50 48  1  0
 51 52  1  0
 51  3  1  0
 53 64  2  0
 54 52  1  0
 54 59  1  0
 55 63  1  0
 55 65  1  0
 56 62  1  0
 56 58  1  0
 57 63  1  0
 58 57  1  0
 59 58  2  0
 60 54  2  0
 61 60  1  0
 61 56  2  0
 62 55  1  0
 63 53  1  0
 65 67  2  0
 66 65  1  0
 68 66  1  0
 69 78  2  0
 69 74  1  0
 70 66  1  0
 70 74  1  0
 71 70  1  0
 72 73  1  0
 72 71  1  0
 73 69  1  0
 74 75  2  0
 75 76  1  0
 77 76  2  0
 78 77  1  0
 79 53  1  0
 79 84  1  0
 79 80  1  0
 80 83  1  1
 80 81  1  0
 82 80  1  0
 84 87  1  0
 85 89  1  0
 85 84  1  0
 86 85  2  0
 89 88  1  0
 91 92  1  0
 91 89  1  0
 91 90  1  0
M  ISO  4  13 100  21 100  51 101  52 101
M  END
>  <TORSDO>  (16) 
F 19

>  <SCORE>  (16) 
-15.797

>  <name>  (16) 
15

>  <ligand_id>  (16) 
15

>  <original_smiles>  (16) 
[H]c1c([H])c([H])c2c(c1[H])C([H])([H])C([H])([H])C([H])([H])C2([H])N([H])C(=O)C1([H])N(C(=O)C([H])(N([H])C(=O)C([H])(N([H])C([H])([H])[H])C([H])([H])[H])C(C([H])([H])[H])(C([H])([H])[H])C([H])([H])[H])C([H])([H])c2c([H])c(OC([H])([H])c3c([H])c(C([H])([H])[H])c(C(F)(F)F)c(C([H])([H])N([H])C(=O)N4C([H])([H])C([H])([H])C([H])([H])C([H])(n5nc(-c6c([H])c([H])c(Oc7c([H])c([H])c(F)c([H])c7F)c([H])c6[H])c(C(=O)N([H])[H])c5N([H])[H])C4([H])[H])c3[H])c([H])c([H])c2C1([H])[H]

>  <smiles>  (16) 
[H]c1c([H])c([H])c2c(c1[H])C([H])([H])C([H])([H])C([H])([H])C2([H])N([H])C(=O)C1([H])N(C(=O)C([H])(N([H])C(=O)C([H])(N([H])C([H])([H])[H])C([H])([H])[H])C(C([H])([H])[H])(C([H])([H])[H])C([H])([H])[H])C([H])([H])c2c([H])c(OC([H])([H])c3c([H])c(C([H])([H])[H])c(C(F)(F)F)c(C([H])([H])N([H])C(=O)N4C([H])([H])C([H])([H])C([H])([H])C([H])(n5nc(-c6c([H])c([H])c(Oc7c([H])c([H])c(F)c([H])c7F)c([H])c6[H])c(C(=O)N([H])[H])c5N([H])[H])C4([H])[H])c3[H])c([H])c([H])c2C1([H])[H]

$$$$
16:0:0
     RDKit          3D

 90 99  0  0  1  0  0  0  0  0999 V2000
  -28.4760  -21.0900   21.5190 C   0  0  0  0  0  3  0  0  0  0  0  0
  -29.3860  -21.5190   19.3900 C   0  0  0  0  0  3  0  0  0  0  0  0
  -28.2130  -22.4990   21.6720 C   0  0  0  0  0  3  0  0  0  0  0  0
  -29.1330  -22.9470   19.5500 C   0  0  0  0  0  3  0  0  0  0  0  0
  -29.0600  -20.5000   20.3620 C   0  0  0  0  0  0  0  0  0  0  0  0
  -28.5100  -23.5200   20.7080 C   0  0  0  0  0  0  0  0  0  0  0  0
  -29.8550  -18.3090   18.9850 C   0  0  0  0  0  2  0  0  0  0  0  0
  -29.0690  -18.8800   20.1390 C   0  0  0  0  0  3  0  0  0  0  0  0
  -30.1150  -17.6200   20.3080 C   0  0  0  0  0  3  0  0  0  0  0  0
  -30.5810  -14.9740   20.1930 C   0  0  0  0  0  0  0  0  0  0  0  0
  -30.4190  -12.6670   19.1910 C   0  0  0  0  0  2  0  0  0  0  0  0
  -29.4560  -12.6910   17.9820 C   0  0  0  0  0  2  0  0  0  0  0  0
  -27.9990  -12.4890   18.4400 C   0  0  0  0  0  2  0  0  0  0  0  0
  -27.6290  -13.3770   19.6570 C   0  0  0  0  0  3  0  0  0  0  0  0
  -28.7090  -13.3280   20.7590 C   0  0  0  0  0  2  0  0  0  0  0  0
  -29.9780  -13.7270   20.1340 N   0  0  0  0  0  0  0  0  0  0  0  0
  -31.7750  -15.0660   19.8900 O   0  0  0  0  0  0  0  0  0  0  0  0
  -29.7840  -16.1210   20.3600 N   0  0  0  0  0  0  0  0  0  0  0  0
  -28.8160  -15.9130   20.5550 H   0  0  0  0  0  0  0  0  0  0  0  0
  -25.2530  -13.9400   20.4340 C   0  0  0  0  0  0  0  0  0  0  0  0
  -24.2020  -13.1570   20.8220 C   0  0  0  0  0  0  0  0  0  0  0  0
  -24.6770  -11.8100   20.7810 C   0  0  0  0  0  0  0  0  0  0  0  0
  -26.3000  -13.0710   20.1750 N   0  0  0  0  0  0  0  0  0  0  0  0
  -25.9630  -11.7840   20.4500 N   0  0  0  0  0  0  0  0  0  0  0  0
  -23.9630  -10.5420   20.9800 C   0  0  0  0  0  0  0  0  0  0  0  0
  -24.4090   -9.5810   21.9160 C   0  0  0  0  0  3  0  0  0  0  0  0
  -23.6950   -8.3780   22.1040 C   0  0  0  0  0  3  0  0  0  0  0  0
  -22.5200   -8.1260   21.3560 C   0  0  0  0  0  0  0  0  0  0  0  0
  -22.0930   -9.0750   20.4090 C   0  0  0  0  0  3  0  0  0  0  0  0
  -22.8090  -10.2700   20.2200 C   0  0  0  0  0  3  0  0  0  0  0  0
  -21.7760   -6.9750   21.4520 O   0  0  0  0  0  0  0  0  0  0  0  0
  -21.7300   -6.2440   22.6120 C   0  0  0  0  0  0  0  0  0  0  0  0
  -21.2780   -6.8020   23.8270 C   0  0  0  0  0  3  0  0  0  0  0  0
  -21.1810   -5.9950   24.9800 C   0  0  0  0  0  3  0  0  0  0  0  0
  -21.5250   -4.6320   24.9160 C   0  0  0  0  0  0  0  0  0  0  0  0
  -21.9710   -4.0740   23.7060 C   0  0  0  0  0  3  0  0  0  0  0  0
  -22.0700   -4.8760   22.5560 C   0  0  0  0  0  0  0  0  0  0  0  0
  -22.4790   -4.3290   21.3860 F   0  0  0  0  0  0  0  0  0  0  0  0
  -21.4250   -3.8550   26.0200 F   0  0  0  0  0  0  0  0  0  0  0  0
  -22.8050  -13.6220   21.1150 C   0  0  0  0  0  0  0  0  0  0  0  0
  -22.0950  -12.9170   21.9880 N   0  0  0  0  0  0  0  0  0  0  0  0
  -22.3530  -14.6460   20.6050 O   0  0  0  0  0  0  0  0  0  0  0  0
  -22.4740  -12.0880   22.4230 H   0  0  0  0  0  0  0  0  0  0  0  0
  -21.1590  -13.2110   22.2270 H   0  0  0  0  0  0  0  0  0  0  0  0
  -25.4000  -15.3130   20.2540 N   0  0  0  0  0  0  0  0  0  0  0  0
  -24.6220  -15.9530   20.3700 H   0  0  0  0  0  0  0  0  0  0  0  0
  -26.2210  -15.7580   19.8630 H   0  0  0  0  0  0  0  0  0  0  0  0
  -28.6330  -25.4800   22.4080 C   0  0  0  0  0  1  0  0  0  0  0  0
  -28.0670  -25.0690   21.0350 C   0  0  0  0  0  3  0  0  0  0  0  0
  -28.2960  -26.3360   20.2170 O   0  0  0  0  0  0  0  0  0  0  0  0
  -24.6250  -31.9400   23.2350 C   0  0  0  0  0  0  0  0  0  0  0  0
  -27.2440  -27.3040   20.2000 C   0  0  0  0  0  0  0  0  0  0  0  0
  -23.4320  -30.5340   21.5980 C   0  0  0  0  0  3  0  0  0  0  0  0
  -24.8930  -28.9800   20.1710 C   0  0  0  0  0  0  0  0  0  0  0  0
  -25.9790  -30.8400   21.4220 C   0  0  0  0  0  2  0  0  0  0  0  0
  -26.0680  -29.4530   20.7750 C   0  0  0  0  0  0  0  0  0  0  0  0
  -27.2490  -28.6300   20.7730 C   0  0  0  0  0  3  0  0  0  0  0  0
  -26.0490  -26.9160   19.5630 C   0  0  0  0  0  3  0  0  0  0  0  0
  -24.8930  -27.7210   19.5500 C   0  0  0  0  0  3  0  0  0  0  0  0
  -23.6540  -29.8580   20.2190 C   0  0  0  0  0  2  0  0  0  0  0  0
  -24.6980  -31.1250   22.1400 N   0  0  0  0  0  0  0  0  0  0  0  0
  -23.5380  -32.2130   23.7680 O   0  0  0  0  0  0  0  0  0  0  0  0
  -22.7690  -29.5180   22.5610 C   0  0  0  0  0  0  0  0  0  0  0  0
  -21.4420  -29.3370   22.4390 N   0  0  0  0  0  0  0  0  0  0  0  0
  -23.4500  -28.8950   23.3800 O   0  0  0  0  0  0  0  0  0  0  0  0
  -20.9500  -29.8910   21.7520 H   0  0  0  0  0  0  0  0  0  0  0  0
  -18.0700  -28.1220   22.9540 C   0  0  0  0  0  0  0  0  0  0  0  0
  -20.6290  -28.3960   23.2120 C   0  0  0  0  0  3  0  0  0  0  0  0
  -20.7350  -26.9650   22.6360 C   0  0  0  0  0  2  0  0  0  0  0  0
  -19.6310  -26.6380   21.6250 C   0  0  0  0  0  2  0  0  0  0  0  0
  -18.2510  -26.7750   22.2760 C   0  0  0  0  0  2  0  0  0  0  0  0
  -19.1860  -28.8900   23.3800 C   0  0  0  0  0  0  0  0  0  0  0  0
  -18.9620  -30.1500   23.9760 C   0  0  0  0  0  3  0  0  0  0  0  0
  -17.6550  -30.6420   24.1500 C   0  0  0  0  0  3  0  0  0  0  0  0
  -16.5540  -29.8720   23.7400 C   0  0  0  0  0  3  0  0  0  0  0  0
  -16.7620  -28.6130   23.1480 C   0  0  0  0  0  3  0  0  0  0  0  0
  -25.9010  -32.5850   23.8590 C   0  0  0  0  0  3  0  0  0  0  0  0
  -25.5820  -33.9840   24.1820 N   0  0  0  0  0  0  0  0  0  0  0  0
  -25.9150  -35.0370   23.4230 C   0  0  0  0  0  0  0  0  0  0  0  0
  -26.5890  -34.9340   22.3950 O   0  0  0  0  0  0  0  0  0  0  0  0
  -24.9830  -34.1380   24.9790 H   0  0  0  0  0  0  0  0  0  0  0  0
  -24.1880  -36.8310   23.0540 C   0  0  0  0  0  1  0  0  0  0  0  0
  -25.4220  -36.4260   23.8760 C   0  0  0  0  0  3  0  0  0  0  0  0
  -27.5470  -37.3150   24.7270 C   0  0  0  0  0  1  0  0  0  0  0  0
  -26.4550  -37.4810   23.7720 N   0  0  0  0  0  0  0  0  0  0  0  0
  -26.0460  -38.4000   23.9130 H   0  0  0  0  0  0  0  0  0  0  0  0
  -26.4150  -31.8260   25.1450 C   0  0  1  0  0  0  0  0  0  0  0  0
  -25.3170  -31.5930   26.2090 C   0  0  0  0  0  1  0  0  0  0  0  0
  -27.0040  -30.4470   24.7690 C   0  0  0  0  0  1  0  0  0  0  0  0
  -27.5580  -32.6300   25.8050 C   0  0  0  0  0  1  0  0  0  0  0  0
  1  3  1  0
  2  4  2  0
  2  5  1  0
  4  6  1  0
  5  1  2  0
  6 49  1  0
  6  3  2  0
  7  8  1  0
  7  9  1  0
  8  9  1  0
  8  5  1  0
  9 18  1  0
 10 18  1  0
 11 16  1  0
 12 13  1  0
 12 11  1  0
 14 13  1  0
 14 23  1  0
 14 15  1  0
 16 10  1  0
 16 15  1  0
 17 10  2  0
 18 19  1  0
 20 21  2  0
 21 40  1  0
 22 21  1  0
 22 25  1  0
 23 20  1  0
 23 24  1  0
 24 22  2  0
 25 26  1  0
 26 27  2  0
 28 31  1  0
 28 27  1  0
 29 28  2  0
 30 29  1  0
 30 25  2  0
 31 32  1  0
 32 33  1  0
 33 34  2  0
 35 34  1  0
 35 39  1  0
 36 35  2  0
 37 32  2  0
 37 36  1  0
 38 37  1  0
 40 41  1  0
 41 44  1  0
 41 43  1  0
 42 40  2  0
 45 46  1  0
 45 20  1  0
 47 45  1  0
 49 48  1  0
 50 49  1  0
 51 62  2  0
 52 50  1  0
 52 57  1  0
 53 61  1  0
 53 63  1  0
 54 60  1  0
 54 56  1  0
 55 61  1  0
 56 55  1  0
 57 56  2  0
 58 52  2  0
 59 58  1  0
 59 54  2  0
 60 53  1  0
 61 51  1  0
 63 65  2  0
 64 63  1  0
 66 64  1  0
 67 76  2  0
 67 72  1  0
 68 64  1  0
 68 72  1  0
 69 68  1  0
 70 71  1  0
 70 69  1  0
 71 67  1  0
 72 73  2  0
 73 74  1  0
 75 74  2  0
 76 75  1  0
 77 51  1  0
 77 78  1  0
 77 87  1  0
 78 81  1  0
 79 83  1  0
 79 78  1  0
 80 79  2  0
 83 82  1  0
 85 83  1  0
 85 86  1  0
 85 84  1  0
 87 90  1  1
 87 88  1  0
 89 87  1  0
M  ISO  4  10 100  18 100  49 101  50 101
M  END
>  <TORSDO>  (17) 
F 18

>  <SCORE>  (17) 
-14.648

>  <name>  (17) 
16

>  <ligand_id>  (17) 
16

>  <original_smiles>  (17) 
[H]c1c([H])c([H])c2c(c1[H])C([H])([H])C([H])([H])C([H])([H])C2([H])N([H])C(=O)C1([H])N(C(=O)C([H])(N([H])C(=O)C([H])(N([H])C([H])([H])[H])C([H])([H])[H])C(C([H])([H])[H])(C([H])([H])[H])C([H])([H])[H])C([H])([H])c2c([H])c(OC([H])(c3c([H])c([H])c(C4([H])C([H])([H])C4([H])N([H])C(=O)N4C([H])([H])C([H])([H])C([H])([H])C([H])(n5nc(-c6c([H])c([H])c(Oc7c([H])c([H])c(F)c([H])c7F)c([H])c6[H])c(C(=O)N([H])[H])c5N([H])[H])C4([H])[H])c([H])c3[H])C([H])([H])[H])c([H])c([H])c2C1([H])[H]

>  <smiles>  (17) 
[H]c1c([H])c([H])c2c(c1[H])C([H])([H])C([H])([H])C([H])([H])C2([H])N([H])C(=O)C1([H])N(C(=O)C([H])(N([H])C(=O)C([H])(N([H])C([H])([H])[H])C([H])([H])[H])C(C([H])([H])[H])(C([H])([H])[H])C([H])([H])[H])C([H])([H])c2c([H])c(OC([H])(c3c([H])c([H])c(C4([H])C([H])([H])C4([H])N([H])C(=O)N4C([H])([H])C([H])([H])C([H])([H])C([H])(n5nc(-c6c([H])c([H])c(Oc7c([H])c([H])c(F)c([H])c7F)c([H])c6[H])c(C(=O)N([H])[H])c5N([H])[H])C4([H])[H])c([H])c3[H])C([H])([H])[H])c([H])c([H])c2C1([H])[H]

$$$$
17:0:0
     RDKit          3D

 93102  0  0  1  0  0  0  0  0999 V2000
  -29.7840  -19.3660   22.1210 C   0  0  0  0  0  2  0  0  0  0  0  0
  -28.7690  -18.2560   19.5040 C   0  0  0  0  0  2  0  0  0  0  0  0
  -30.6150  -18.6650   21.0640 C   0  0  0  0  0  3  0  0  0  0  0  0
  -30.0950  -17.6110   20.0470 C   0  0  0  0  0  3  0  0  0  0  0  0
  -30.3130  -20.2230   20.9800 C   0  0  0  0  0  3  0  0  0  0  0  0
  -28.7720  -19.8070   19.0700 C   0  0  1  0  0  0  0  0  0  0  0  0
  -29.6980  -19.9510   17.8350 C   0  0  0  0  0  1  0  0  0  0  0  0
  -27.3200  -20.1120   18.6320 C   0  0  0  0  0  1  0  0  0  0  0  0
  -29.1660  -20.8030   20.1660 N   0  0  2  0  0  4  0  0  0  0  0  0
  -28.3800  -20.8130   20.8000 H   0  0  0  0  0  0  0  0  0  0  0  0
  -30.7920  -14.9800   20.1020 C   0  0  0  0  0  0  0  0  0  0  0  0
  -30.6000  -12.6880   19.0910 C   0  0  0  0  0  2  0  0  0  0  0  0
  -29.6190  -12.7680   17.8990 C   0  0  0  0  0  2  0  0  0  0  0  0
  -28.1610  -12.5950   18.3740 C   0  0  0  0  0  2  0  0  0  0  0  0
  -27.8340  -13.4490   19.6290 C   0  0  0  0  0  3  0  0  0  0  0  0
  -28.9360  -13.3400   20.7060 C   0  0  0  0  0  2  0  0  0  0  0  0
  -30.2030  -13.7290   20.0730 N   0  0  0  0  0  0  0  0  0  0  0  0
  -31.9460  -15.1070   19.6810 O   0  0  0  0  0  0  0  0  0  0  0  0
  -29.9980  -16.0950   20.4000 N   0  0  0  0  0  0  0  0  0  0  0  0
  -29.1070  -15.8290   20.7890 H   0  0  0  0  0  0  0  0  0  0  0  0
  -25.4820  -14.0280   20.4690 C   0  0  0  0  0  0  0  0  0  0  0  0
  -24.4280  -13.2500   20.8640 C   0  0  0  0  0  0  0  0  0  0  0  0
  -24.8810  -11.8970   20.7770 C   0  0  0  0  0  0  0  0  0  0  0  0
  -26.5090  -13.1500   20.1630 N   0  0  0  0  0  0  0  0  0  0  0  0
  -26.1570  -11.8610   20.4120 N   0  0  0  0  0  0  0  0  0  0  0  0
  -24.1530  -10.6350   20.9640 C   0  0  0  0  0  0  0  0  0  0  0  0
  -24.5850   -9.6650   21.8940 C   0  0  0  0  0  3  0  0  0  0  0  0
  -23.8560   -8.4680   22.0710 C   0  0  0  0  0  3  0  0  0  0  0  0
  -22.6800   -8.2350   21.3180 C   0  0  0  0  0  0  0  0  0  0  0  0
  -22.2670   -9.1950   20.3780 C   0  0  0  0  0  3  0  0  0  0  0  0
  -22.9970  -10.3810   20.1990 C   0  0  0  0  0  3  0  0  0  0  0  0
  -21.9270   -7.0880   21.4040 O   0  0  0  0  0  0  0  0  0  0  0  0
  -21.8400   -6.3670   22.5670 C   0  0  0  0  0  0  0  0  0  0  0  0
  -21.3160   -6.9240   23.7550 C   0  0  0  0  0  3  0  0  0  0  0  0
  -21.1820   -6.1260   24.9070 C   0  0  0  0  0  3  0  0  0  0  0  0
  -21.5620   -4.7700   24.8740 C   0  0  0  0  0  0  0  0  0  0  0  0
  -22.0760   -4.2110   23.6910 C   0  0  0  0  0  3  0  0  0  0  0  0
  -22.2120   -5.0070   22.5400 C   0  0  0  0  0  0  0  0  0  0  0  0
  -22.6910   -4.4580   21.3970 F   0  0  0  0  0  0  0  0  0  0  0  0
  -21.4260   -4.0010   25.9790 F   0  0  0  0  0  0  0  0  0  0  0  0
  -23.0470  -13.7280   21.2050 C   0  0  0  0  0  0  0  0  0  0  0  0
  -22.3470  -13.0120   22.0770 N   0  0  0  0  0  0  0  0  0  0  0  0
  -22.5980  -14.7720   20.7340 O   0  0  0  0  0  0  0  0  0  0  0  0
  -22.7230  -12.1670   22.4820 H   0  0  0  0  0  0  0  0  0  0  0  0
  -21.4200  -13.3120   22.3430 H   0  0  0  0  0  0  0  0  0  0  0  0
  -25.6480  -15.4030   20.3200 N   0  0  0  0  0  0  0  0  0  0  0  0
  -24.8870  -16.0530   20.4820 H   0  0  0  0  0  0  0  0  0  0  0  0
  -26.4650  -15.8430   19.9160 H   0  0  0  0  0  0  0  0  0  0  0  0
  -29.3210  -22.3060   19.7100 C   0  0  0  0  0  2  0  0  0  0  0  0
  -29.6580  -23.8360   21.7830 C   0  0  0  0  0  1  0  0  0  0  0  0
  -28.7760  -23.6250   20.5390 C   0  0  0  0  0  3  0  0  0  0  0  0
  -28.6110  -25.0470   19.7050 C   0  0  0  0  0  2  0  0  0  0  0  0
  -28.4780  -26.4560   20.2800 O   0  0  0  0  0  0  0  0  0  0  0  0
  -24.6800  -31.9300   23.2030 C   0  0  0  0  0  0  0  0  0  0  0  0
  -27.3540  -27.3260   20.1630 C   0  0  0  0  0  0  0  0  0  0  0  0
  -23.5060  -30.5160   21.5580 C   0  0  0  0  0  3  0  0  0  0  0  0
  -24.9790  -28.9810   20.1240 C   0  0  0  0  0  0  0  0  0  0  0  0
  -26.0480  -30.8410   21.3950 C   0  0  0  0  0  2  0  0  0  0  0  0
  -26.1430  -29.4590   20.7390 C   0  0  0  0  0  0  0  0  0  0  0  0
  -27.3220  -28.6450   20.7480 C   0  0  0  0  0  3  0  0  0  0  0  0
  -26.1630  -26.9210   19.5170 C   0  0  0  0  0  3  0  0  0  0  0  0
  -25.0010  -27.7230   19.4980 C   0  0  0  0  0  3  0  0  0  0  0  0
  -23.7360  -29.8530   20.1740 C   0  0  0  0  0  2  0  0  0  0  0  0
  -24.7640  -31.1170   22.1080 N   0  0  0  0  0  0  0  0  0  0  0  0
  -23.5890  -32.1930   23.7300 O   0  0  0  0  0  0  0  0  0  0  0  0
  -22.8510  -29.4900   22.5150 C   0  0  0  0  0  0  0  0  0  0  0  0
  -21.5260  -29.3010   22.3930 N   0  0  0  0  0  0  0  0  0  0  0  0
  -23.5350  -28.8670   23.3330 O   0  0  0  0  0  0  0  0  0  0  0  0
  -21.0300  -29.8500   21.7040 H   0  0  0  0  0  0  0  0  0  0  0  0
  -18.1550  -28.0900   22.9300 C   0  0  0  0  0  0  0  0  0  0  0  0
  -20.7180  -28.3490   23.1600 C   0  0  0  0  0  3  0  0  0  0  0  0
  -20.8120  -26.9280   22.5610 C   0  0  0  0  0  2  0  0  0  0  0  0
  -19.6930  -26.6200   21.5620 C   0  0  0  0  0  2  0  0  0  0  0  0
  -18.3210  -26.7530   22.2290 C   0  0  0  0  0  2  0  0  0  0  0  0
  -19.2800  -28.8470   23.3530 C   0  0  0  0  0  0  0  0  0  0  0  0
  -19.0680  -30.0980   23.9700 C   0  0  0  0  0  3  0  0  0  0  0  0
  -17.7650  -30.5950   24.1650 C   0  0  0  0  0  3  0  0  0  0  0  0
  -16.6550  -29.8360   23.7560 C   0  0  0  0  0  3  0  0  0  0  0  0
  -16.8520  -28.5840   23.1450 C   0  0  0  0  0  3  0  0  0  0  0  0
  -25.9480  -32.5840   23.8320 C   0  0  0  0  0  3  0  0  0  0  0  0
  -26.4440  -31.8430   25.1340 C   0  0  1  0  0  0  0  0  0  0  0  0
  -25.3280  -31.6090   26.1810 C   0  0  0  0  0  1  0  0  0  0  0  0
  -27.0540  -30.4660   24.7810 C   0  0  0  0  0  1  0  0  0  0  0  0
  -27.5740  -32.6620   25.8030 C   0  0  0  0  0  1  0  0  0  0  0  0
  -25.6230  -33.9870   24.1330 N   0  0  0  0  0  0  0  0  0  0  0  0
  -25.9720  -35.0320   23.3700 C   0  0  0  0  0  0  0  0  0  0  0  0
  -26.6700  -34.9150   22.3590 O   0  0  0  0  0  0  0  0  0  0  0  0
  -25.0080  -34.1490   24.9160 H   0  0  0  0  0  0  0  0  0  0  0  0
  -24.2700  -36.8280   22.9200 C   0  0  0  0  0  1  0  0  0  0  0  0
  -25.4700  -36.4260   23.7940 C   0  0  0  0  0  3  0  0  0  0  0  0
  -27.5600  -37.3120   24.7320 C   0  0  0  0  0  1  0  0  0  0  0  0
  -26.5130  -37.4740   23.7240 N   0  0  0  0  0  0  0  0  0  0  0  0
  -26.1050  -38.3980   23.8350 H   0  0  0  0  0  0  0  0  0  0  0  0
  2  4  1  0
  3  1  1  0
  4 19  1  0
  4  3  1  0
  5  3  1  0
  5  1  1  0
  6  2  1  0
  6  9  1  0
  6  7  1  6
  8  6  1  0
  9 10  1  1
  9  5  1  0
 11 19  1  0
 12 17  1  0
 13 14  1  0
 13 12  1  0
 15 14  1  0
 15 24  1  0
 15 16  1  0
 17 11  1  0
 17 16  1  0
 18 11  2  0
 19 20  1  0
 21 22  2  0
 22 41  1  0
 23 22  1  0
 23 26  1  0
 24 25  1  0
 24 21  1  0
 25 23  2  0
 26 27  1  0
 27 28  2  0
 29 32  1  0
 29 28  1  0
 30 29  2  0
 31 30  1  0
 31 26  2  0
 32 33  1  0
 33 34  1  0
 34 35  2  0
 36 35  1  0
 36 40  1  0
 37 36  2  0
 38 33  2  0
 38 37  1  0
 39 38  1  0
 41 42  1  0
 42 45  1  0
 42 44  1  0
 43 41  2  0
 46 21  1  0
 46 47  1  0
 48 46  1  0
 49  9  1  0
 49 51  1  0
 51 50  1  0
 52 53  1  0
 52 51  1  0
 54 65  2  0
 55 53  1  0
 55 60  1  0
 56 64  1  0
 56 66  1  0
 57 63  1  0
 57 59  1  0
 58 64  1  0
 59 60  2  0
 59 58  1  0
 61 55  2  0
 62 61  1  0
 62 57  2  0
 63 56  1  0
 64 54  1  0
 66 68  2  0
 67 66  1  0
 69 67  1  0
 70 79  2  0
 70 75  1  0
 71 67  1  0
 71 75  1  0
 72 71  1  0
 73 74  1  0
 73 72  1  0
 74 70  1  0
 75 76  2  0
 76 77  1  0
 78 77  2  0
 79 78  1  0
 80 54  1  0
 80 85  1  0
 80 81  1  0
 81 84  1  1
 81 82  1  0
 83 81  1  0
 85 88  1  0
 86 90  1  0
 86 85  1  0
 87 86  2  0
 90 89  1  0
 92 90  1  0
 92 93  1  0
 92 91  1  0
M  ISO  4  11 100  19 100  52 101  53 101
M  END
>  <TORSDO>  (18) 
F 19

>  <SCORE>  (18) 
-13.508

>  <name>  (18) 
17

>  <ligand_id>  (18) 
17

>  <original_smiles>  (18) 
[H]c1c([H])c([H])c2c(c1[H])C([H])([H])C([H])([H])C([H])([H])C2([H])N([H])C(=O)C1([H])N(C(=O)C([H])(N([H])C(=O)C([H])(N([H])C([H])([H])[H])C([H])([H])[H])C(C([H])([H])[H])(C([H])([H])[H])C([H])([H])[H])C([H])([H])c2c([H])c(OC([H])([H])C([H])(C([H])([H])[H])C([H])([H])[N+]3([H])C4([H])C([H])([H])C4([H])C([H])(N([H])C(=O)N4C([H])([H])C([H])([H])C([H])([H])C([H])(n5nc(-c6c([H])c([H])c(Oc7c([H])c([H])c(F)c([H])c7F)c([H])c6[H])c(C(=O)N([H])[H])c5N([H])[H])C4([H])[H])C([H])([H])C3(C([H])([H])[H])C([H])([H])[H])c([H])c([H])c2C1([H])[H]

>  <smiles>  (18) 
[H]c1c([H])c([H])c2c(c1[H])C([H])([H])C([H])([H])C([H])([H])C2([H])N([H])C(=O)C1([H])N(C(=O)C([H])(N([H])C(=O)C([H])(N([H])C([H])([H])[H])C([H])([H])[H])C(C([H])([H])[H])(C([H])([H])[H])C([H])([H])[H])C([H])([H])c2c([H])c(OC([H])([H])C([H])(C([H])([H])[H])C([H])([H])[N+]3([H])C4([H])C([H])([H])C4([H])C([H])(N([H])C(=O)N4C([H])([H])C([H])([H])C([H])([H])C([H])(n5nc(-c6c([H])c([H])c(Oc7c([H])c([H])c(F)c([H])c7F)c([H])c6[H])c(C(=O)N([H])[H])c5N([H])[H])C4([H])[H])C([H])([H])C3(C([H])([H])[H])C([H])([H])[H])c([H])c([H])c2C1([H])[H]

$$$$
18:0:0
     RDKit          3D

 90 98  0  0  1  0  0  0  0  0999 V2000
  -29.8560  -21.2010   20.5570 C   0  0  0  0  0  3  0  0  0  0  0  0
  -29.3110  -19.7960   20.8160 N   0  0  0  0  0  4  0  0  0  0  0  0
  -28.5120  -19.6960   20.2110 H   0  0  0  0  0  0  0  0  0  0  0  0
  -28.9540  -19.7770   21.7570 H   0  0  0  0  0  0  0  0  0  0  0  0
  -31.2800  -18.4300   21.6490 C   0  0  0  0  0  1  0  0  0  0  0  0
  -30.1600  -18.5350   20.6010 C   0  0  0  0  0  3  0  0  0  0  0  0
  -30.5430  -14.7710   20.3780 C   0  0  0  0  0  0  0  0  0  0  0  0
  -30.3540  -12.4880   19.3970 C   0  0  0  0  0  2  0  0  0  0  0  0
  -29.4100  -12.5400   18.1740 C   0  0  0  0  0  2  0  0  0  0  0  0
  -27.9310  -12.4100   18.5990 C   0  0  0  0  0  2  0  0  0  0  0  0
  -27.5580  -13.2930   19.8200 C   0  0  0  0  0  3  0  0  0  0  0  0
  -28.6240  -13.2120   20.9350 C   0  0  0  0  0  2  0  0  0  0  0  0
  -29.9220  -13.5450   20.3320 N   0  0  0  0  0  0  0  0  0  0  0  0
  -31.7590  -14.8720   20.2040 O   0  0  0  0  0  0  0  0  0  0  0  0
  -28.3290  -17.1470   19.3690 C   0  0  0  0  0  2  0  0  0  0  0  0
  -29.3780  -16.2530   18.7190 C   0  0  0  0  0  2  0  0  0  0  0  0
  -29.2560  -17.2170   20.5790 C   0  0  0  0  0  3  0  0  0  0  0  0
  -29.7220  -15.8450   20.0830 N   0  0  0  0  0  0  0  0  0  0  0  0
  -25.1650  -13.8910   20.5400 C   0  0  0  0  0  0  0  0  0  0  0  0
  -24.0950  -13.1200   20.8970 C   0  0  0  0  0  0  0  0  0  0  0  0
  -24.5600  -11.7700   20.8730 C   0  0  0  0  0  0  0  0  0  0  0  0
  -26.2120  -13.0120   20.3120 N   0  0  0  0  0  0  0  0  0  0  0  0
  -25.8530  -11.7300   20.5780 N   0  0  0  0  0  0  0  0  0  0  0  0
  -23.8320  -10.5090   21.0570 C   0  0  0  0  0  0  0  0  0  0  0  0
  -24.2610   -9.5410   21.9910 C   0  0  0  0  0  3  0  0  0  0  0  0
  -23.5320   -8.3450   22.1630 C   0  0  0  0  0  3  0  0  0  0  0  0
  -22.3620   -8.1100   21.4030 C   0  0  0  0  0  0  0  0  0  0  0  0
  -21.9540   -9.0680   20.4580 C   0  0  0  0  0  3  0  0  0  0  0  0
  -22.6820  -10.2550   20.2830 C   0  0  0  0  0  3  0  0  0  0  0  0
  -21.6060   -6.9670   21.4860 O   0  0  0  0  0  0  0  0  0  0  0  0
  -21.5530   -6.2220   22.6370 C   0  0  0  0  0  0  0  0  0  0  0  0
  -21.1130   -6.7710   23.8610 C   0  0  0  0  0  3  0  0  0  0  0  0
  -21.0060   -5.9530   25.0020 C   0  0  0  0  0  3  0  0  0  0  0  0
  -21.3310   -4.5850   24.9220 C   0  0  0  0  0  0  0  0  0  0  0  0
  -21.7640   -4.0350   23.7030 C   0  0  0  0  0  3  0  0  0  0  0  0
  -21.8730   -4.8520   22.5630 C   0  0  0  0  0  0  0  0  0  0  0  0
  -22.2710   -4.3110   21.3860 F   0  0  0  0  0  0  0  0  0  0  0  0
  -21.2210   -3.7970   26.0170 F   0  0  0  0  0  0  0  0  0  0  0  0
  -22.6960  -13.6000   21.1540 C   0  0  0  0  0  0  0  0  0  0  0  0
  -21.9600  -12.9090   22.0180 N   0  0  0  0  0  0  0  0  0  0  0  0
  -22.2630  -14.6240   20.6270 O   0  0  0  0  0  0  0  0  0  0  0  0
  -22.3250  -12.0810   22.4660 H   0  0  0  0  0  0  0  0  0  0  0  0
  -21.0210  -13.2110   22.2330 H   0  0  0  0  0  0  0  0  0  0  0  0
  -25.3210  -15.2610   20.3710 N   0  0  0  0  0  0  0  0  0  0  0  0
  -24.5520  -15.9120   20.4860 H   0  0  0  0  0  0  0  0  0  0  0  0
  -26.1850  -15.7040   20.0920 H   0  0  0  0  0  0  0  0  0  0  0  0
  -28.7700  -22.3880   20.4690 C   0  0  0  0  0  3  0  0  0  0  0  0
  -29.2100  -23.9340   20.4200 C   0  0  0  0  0  3  0  0  0  0  0  0
  -28.0730  -25.0150   20.1010 C   0  0  0  0  0  3  0  0  0  0  0  0
  -28.3040  -26.4810   20.2330 O   0  0  0  0  0  0  0  0  0  0  0  0
  -24.5650  -31.8870   23.2520 C   0  0  0  0  0  0  0  0  0  0  0  0
  -27.1830  -27.3360   20.1790 C   0  0  0  0  0  0  0  0  0  0  0  0
  -23.3610  -30.4950   21.6060 C   0  0  0  0  0  3  0  0  0  0  0  0
  -24.8120  -28.9520   20.1730 C   0  0  0  0  0  0  0  0  0  0  0  0
  -25.9010  -30.8150   21.4230 C   0  0  0  0  0  2  0  0  0  0  0  0
  -25.9820  -29.4380   20.7720 C   0  0  0  0  0  0  0  0  0  0  0  0
  -27.1690  -28.6430   20.7650 C   0  0  0  0  0  3  0  0  0  0  0  0
  -25.9870  -26.9100   19.5540 C   0  0  0  0  0  3  0  0  0  0  0  0
  -24.8180  -27.6960   19.5530 C   0  0  0  0  0  3  0  0  0  0  0  0
  -23.5760  -29.8270   20.2230 C   0  0  0  0  0  2  0  0  0  0  0  0
  -24.6280  -31.0820   22.1510 N   0  0  0  0  0  0  0  0  0  0  0  0
  -23.4810  -32.1630   23.7870 O   0  0  0  0  0  0  0  0  0  0  0  0
  -22.6980  -29.4750   22.5620 C   0  0  0  0  0  0  0  0  0  0  0  0
  -21.3720  -29.2950   22.4300 N   0  0  0  0  0  0  0  0  0  0  0  0
  -23.3740  -28.8490   23.3820 O   0  0  0  0  0  0  0  0  0  0  0  0
  -20.8840  -29.8550   21.7450 H   0  0  0  0  0  0  0  0  0  0  0  0
  -17.9960  -28.0880   22.9140 C   0  0  0  0  0  0  0  0  0  0  0  0
  -20.5510  -28.3540   23.1960 C   0  0  0  0  0  3  0  0  0  0  0  0
  -20.6590  -26.9230   22.6200 C   0  0  0  0  0  2  0  0  0  0  0  0
  -19.5620  -26.5980   21.6000 C   0  0  0  0  0  2  0  0  0  0  0  0
  -18.1770  -26.7400   22.2380 C   0  0  0  0  0  2  0  0  0  0  0  0
  -19.1100  -28.8540   23.3490 C   0  0  0  0  0  0  0  0  0  0  0  0
  -18.8850  -30.1160   23.9410 C   0  0  0  0  0  3  0  0  0  0  0  0
  -17.5780  -30.6140   24.1010 C   0  0  0  0  0  3  0  0  0  0  0  0
  -16.4770  -29.8460   23.6810 C   0  0  0  0  0  3  0  0  0  0  0  0
  -16.6880  -28.5850   23.0940 C   0  0  0  0  0  3  0  0  0  0  0  0
  -25.8470  -32.5170   23.8770 C   0  0  0  0  0  3  0  0  0  0  0  0
  -25.5400  -33.9160   24.2050 N   0  0  0  0  0  0  0  0  0  0  0  0
  -25.8630  -34.9660   23.4390 C   0  0  0  0  0  0  0  0  0  0  0  0
  -26.5190  -34.8590   22.3990 O   0  0  0  0  0  0  0  0  0  0  0  0
  -24.9570  -34.0740   25.0140 H   0  0  0  0  0  0  0  0  0  0  0  0
  -24.1240  -36.7540   23.1090 C   0  0  0  0  0  1  0  0  0  0  0  0
  -25.3810  -36.3570   23.8970 C   0  0  0  0  0  3  0  0  0  0  0  0
  -27.5290  -37.2530   24.6830 C   0  0  0  0  0  1  0  0  0  0  0  0
  -26.4090  -37.4110   23.7580 N   0  0  0  0  0  0  0  0  0  0  0  0
  -26.0030  -38.3310   23.9060 H   0  0  0  0  0  0  0  0  0  0  0  0
  -26.3580  -31.7460   25.1560 C   0  0  1  0  0  0  0  0  0  0  0  0
  -25.2610  -31.5120   26.2220 C   0  0  0  0  0  1  0  0  0  0  0  0
  -26.9380  -30.3660   24.7690 C   0  0  0  0  0  1  0  0  0  0  0  0
  -27.5090  -32.5380   25.8220 C   0  0  0  0  0  1  0  0  0  0  0  0
  1  2  1  0
  2  4  1  0
  3  2  1  0
  6  2  1  0
  6  5  1  0
  8 13  1  0
  9 10  1  0
  9  8  1  0
 11 10  1  0
 11 22  1  0
 11 12  1  0
 13  7  1  0
 13 12  1  0
 14  7  2  0
 15 17  1  0
 16 15  1  0
 16 18  1  0
 17  6  1  0
 18  7  1  0
 18 17  1  0
 19 20  2  0
 20 39  1  0
 21 20  1  0
 21 24  1  0
 22 19  1  0
 22 23  1  0
 23 21  2  0
 24 25  1  0
 25 26  2  0
 27 30  1  0
 27 26  1  0
 28 27  2  0
 29 28  1  0
 29 24  2  0
 30 31  1  0
 31 32  1  0
 32 33  2  0
 34 33  1  0
 34 38  1  0
 35 34  2  0
 36 31  2  0
 36 35  1  0
 37 36  1  0
 39 40  1  0
 40 43  1  0
 40 42  1  0
 41 39  2  0
 44 45  1  0
 44 19  1  0
 46 44  1  0
 47  1  2  0
 48 47  1  0
 49 50  1  0
 49 48  2  0
 51 62  2  0
 52 50  1  0
 52 57  1  0
 53 61  1  0
 53 63  1  0
 54 60  1  0
 54 56  1  0
 55 61  1  0
 56 55  1  0
 57 56  2  0
 58 52  2  0
 59 58  1  0
 59 54  2  0
 60 53  1  0
 61 51  1  0
 63 65  2  0
 64 63  1  0
 66 64  1  0
 67 76  2  0
 67 72  1  0
 68 64  1  0
 68 72  1  0
 69 68  1  0
 70 71  1  0
 70 69  1  0
 71 67  1  0
 72 73  2  0
 73 74  1  0
 75 74  2  0
 76 75  1  0
 77 51  1  0
 77 78  1  0
 77 87  1  0
 78 81  1  0
 79 83  1  0
 79 78  1  0
 80 79  2  0
 83 82  1  0
 85 83  1  0
 85 86  1  0
 85 84  1  0
 87 90  1  1
 87 88  1  0
 89 87  1  0
M  ISO  4   7 100  18 100  49 101  50 101
M  END
>  <TORSDO>  (19) 
F 21

>  <SCORE>  (19) 
-13.448

>  <name>  (19) 
18

>  <ligand_id>  (19) 
18

>  <original_smiles>  (19) 
[H]c1c([H])c([H])c2c(c1[H])C([H])([H])C([H])([H])C([H])([H])C2([H])N([H])C(=O)C1([H])N(C(=O)C([H])(N([H])C(=O)C([H])(N([H])C([H])([H])[H])C([H])([H])[H])C(C([H])([H])[H])(C([H])([H])[H])C([H])([H])[H])C([H])([H])c2c([H])c(OC([H])([H])C([H])([H])C([H])([H])C([H])([H])[N+]([H])([H])C([H])(C([H])([H])[H])C3([H])N(C(=O)N4C([H])([H])C([H])([H])C([H])([H])C([H])(n5nc(-c6c([H])c([H])c(Oc7c([H])c([H])c(F)c([H])c7F)c([H])c6[H])c(C(=O)N([H])[H])c5N([H])[H])C4([H])[H])C([H])([H])C3([H])[H])c([H])c([H])c2C1([H])[H]

>  <smiles>  (19) 
[H]c1c([H])c([H])c2c(c1[H])C([H])([H])C([H])([H])C([H])([H])C2([H])N([H])C(=O)C1([H])N(C(=O)C([H])(N([H])C(=O)C([H])(N([H])C([H])([H])[H])C([H])([H])[H])C(C([H])([H])[H])(C([H])([H])[H])C([H])([H])[H])C([H])([H])c2c([H])c(OC([H])([H])C([H])([H])C([H])([H])C([H])([H])[N+]([H])([H])C([H])(C([H])([H])[H])C3([H])N(C(=O)N4C([H])([H])C([H])([H])C([H])([H])C([H])(n5nc(-c6c([H])c([H])c(Oc7c([H])c([H])c(F)c([H])c7F)c([H])c6[H])c(C(=O)N([H])[H])c5N([H])[H])C4([H])[H])C([H])([H])C3([H])[H])c([H])c([H])c2C1([H])[H]

$$$$
19:0:0
     RDKit          3D

 95103  0  0  1  0  0  0  0  0999 V2000
  -28.5940  -21.0840   20.2770 C   0  0  0  0  0  3  0  0  0  0  0  0
  -30.8580  -21.5600   20.9920 C   0  0  0  0  0  3  0  0  0  0  0  0
  -28.7210  -19.7440   20.6970 C   0  0  0  0  0  0  0  0  0  0  0  0
  -31.0110  -20.2150   21.4080 C   0  0  0  0  0  0  0  0  0  0  0  0
  -29.9450  -19.2860   21.2520 C   0  0  0  0  0  0  0  0  0  0  0  0
  -29.6510  -22.0030   20.4000 C   0  0  0  0  0  0  0  0  0  0  0  0
  -27.5200  -18.8250   20.5250 C   0  0  0  0  0  1  0  0  0  0  0  0
  -32.3430  -19.8050   22.0160 C   0  0  0  0  0  1  0  0  0  0  0  0
  -30.0980  -17.8100   21.6570 C   0  0  0  0  0  2  0  0  0  0  0  0
  -30.4960  -16.9080   20.4710 C   0  0  0  0  0  2  0  0  0  0  0  0
  -30.9110  -14.4820   20.1280 C   0  0  0  0  0  0  0  0  0  0  0  0
  -30.5370  -12.3790   18.9110 C   0  0  0  0  0  2  0  0  0  0  0  0
  -29.5600  -12.6560   17.7510 C   0  0  0  0  0  2  0  0  0  0  0  0
  -28.0980  -12.5200   18.2260 C   0  0  0  0  0  2  0  0  0  0  0  0
  -27.8150  -13.3160   19.5300 C   0  0  0  0  0  3  0  0  0  0  0  0
  -28.9020  -13.0290   20.5920 C   0  0  0  0  0  2  0  0  0  0  0  0
  -30.2210  -13.3210   19.9960 N   0  0  0  0  0  0  0  0  0  0  0  0
  -32.0050  -14.6850   19.5890 O   0  0  0  0  0  0  0  0  0  0  0  0
  -30.2430  -15.4800   20.7210 N   0  0  0  0  0  0  0  0  0  0  0  0
  -29.3540  -15.2320   21.1310 H   0  0  0  0  0  0  0  0  0  0  0  0
  -25.4350  -13.9300   20.3120 C   0  0  0  0  0  0  0  0  0  0  0  0
  -24.3750  -13.1580   20.7070 C   0  0  0  0  0  0  0  0  0  0  0  0
  -24.8340  -11.8060   20.6610 C   0  0  0  0  0  0  0  0  0  0  0  0
  -26.4710  -13.0450   20.0440 N   0  0  0  0  0  0  0  0  0  0  0  0
  -26.1130  -11.7650   20.3140 N   0  0  0  0  0  0  0  0  0  0  0  0
  -24.1120  -10.5440   20.8730 C   0  0  0  0  0  0  0  0  0  0  0  0
  -24.5230   -9.6140   21.8520 C   0  0  0  0  0  3  0  0  0  0  0  0
  -23.8010   -8.4160   22.0500 C   0  0  0  0  0  3  0  0  0  0  0  0
  -22.6570   -8.1400   21.2670 C   0  0  0  0  0  0  0  0  0  0  0  0
  -22.2650   -9.0600   20.2770 C   0  0  0  0  0  3  0  0  0  0  0  0
  -22.9890  -10.2470   20.0780 C   0  0  0  0  0  3  0  0  0  0  0  0
  -21.9120   -6.9890   21.3670 O   0  0  0  0  0  0  0  0  0  0  0  0
  -21.7690   -6.3280   22.5610 C   0  0  0  0  0  0  0  0  0  0  0  0
  -21.2230   -6.9590   23.7000 C   0  0  0  0  0  3  0  0  0  0  0  0
  -21.0210   -6.2230   24.8840 C   0  0  0  0  0  3  0  0  0  0  0  0
  -21.3600   -4.8570   24.9330 C   0  0  0  0  0  0  0  0  0  0  0  0
  -21.9040   -4.2270   23.7990 C   0  0  0  0  0  3  0  0  0  0  0  0
  -22.1030   -4.9590   22.6150 C   0  0  0  0  0  0  0  0  0  0  0  0
  -22.6040   -4.3410   21.5180 F   0  0  0  0  0  0  0  0  0  0  0  0
  -21.1650   -4.1480   26.0700 F   0  0  0  0  0  0  0  0  0  0  0  0
  -22.9840  -13.6350   21.0170 C   0  0  0  0  0  0  0  0  0  0  0  0
  -22.2790  -12.9440   21.9030 N   0  0  0  0  0  0  0  0  0  0  0  0
  -22.5320  -14.6600   20.5070 O   0  0  0  0  0  0  0  0  0  0  0  0
  -22.6600  -12.1230   22.3510 H   0  0  0  0  0  0  0  0  0  0  0  0
  -21.3450  -13.2450   22.1460 H   0  0  0  0  0  0  0  0  0  0  0  0
  -25.5980  -15.3010   20.1340 N   0  0  0  0  0  0  0  0  0  0  0  0
  -24.8430  -15.9600   20.2930 H   0  0  0  0  0  0  0  0  0  0  0  0
  -26.4290  -15.7390   19.7580 H   0  0  0  0  0  0  0  0  0  0  0  0
  -29.4180  -23.2650   19.8920 O   0  0  0  0  0  0  0  0  0  0  0  0
  -30.3080  -24.3530   20.1630 C   0  0  0  0  0  2  0  0  0  0  0  0
  -30.5640  -24.8200   17.7080 C   0  0  0  0  0  1  0  0  0  0  0  0
  -31.1120  -26.6140   19.3530 C   0  0  0  0  0  1  0  0  0  0  0  0
  -30.1570  -25.4360   19.0610 C   0  0  2  0  0  0  0  0  0  0  0  0
  -28.6980  -25.9550   18.9680 C   0  0  0  0  0  2  0  0  0  0  0  0
  -28.4030  -26.8030   20.0740 O   0  0  0  0  0  0  0  0  0  0  0  0
  -24.5680  -31.8610   23.2370 C   0  0  0  0  0  0  0  0  0  0  0  0
  -27.2050  -27.4790   20.0690 C   0  0  0  0  0  0  0  0  0  0  0  0
  -23.3480  -30.4610   21.6010 C   0  0  0  0  0  3  0  0  0  0  0  0
  -24.7910  -28.9480   20.1400 C   0  0  0  0  0  0  0  0  0  0  0  0
  -25.8680  -30.8380   21.3750 C   0  0  0  0  0  2  0  0  0  0  0  0
  -25.9490  -29.4770   20.7220 C   0  0  0  0  0  0  0  0  0  0  0  0
  -27.1540  -28.7420   20.6920 C   0  0  0  0  0  3  0  0  0  0  0  0
  -26.0270  -26.9570   19.4860 C   0  0  0  0  0  3  0  0  0  0  0  0
  -24.8240  -27.6870   19.5210 C   0  0  0  0  0  3  0  0  0  0  0  0
  -23.5400  -29.7920   20.2140 C   0  0  0  0  0  2  0  0  0  0  0  0
  -24.6130  -31.0690   22.1280 N   0  0  0  0  0  0  0  0  0  0  0  0
  -23.4930  -32.1230   23.7930 O   0  0  0  0  0  0  0  0  0  0  0  0
  -22.7170  -29.4290   22.5650 C   0  0  0  0  0  0  0  0  0  0  0  0
  -21.3940  -29.2300   22.4430 N   0  0  0  0  0  0  0  0  0  0  0  0
  -23.4140  -28.8120   23.3760 O   0  0  0  0  0  0  0  0  0  0  0  0
  -20.8950  -29.7770   21.7560 H   0  0  0  0  0  0  0  0  0  0  0  0
  -18.0360  -27.9990   22.9490 C   0  0  0  0  0  0  0  0  0  0  0  0
  -20.5920  -28.2820   23.2150 C   0  0  0  0  0  3  0  0  0  0  0  0
  -20.7080  -26.8540   22.6320 C   0  0  0  0  0  2  0  0  0  0  0  0
  -19.6050  -26.5240   21.6210 C   0  0  0  0  0  2  0  0  0  0  0  0
  -18.2240  -26.6540   22.2690 C   0  0  0  0  0  2  0  0  0  0  0  0
  -19.1490  -28.7710   23.3780 C   0  0  0  0  0  0  0  0  0  0  0  0
  -18.9170  -30.0320   23.9700 C   0  0  0  0  0  3  0  0  0  0  0  0
  -17.6060  -30.5180   24.1420 C   0  0  0  0  0  3  0  0  0  0  0  0
  -16.5090  -29.7410   23.7310 C   0  0  0  0  0  3  0  0  0  0  0  0
  -16.7270  -28.4830   23.1410 C   0  0  0  0  0  3  0  0  0  0  0  0
  -25.8600  -32.4940   23.8420 C   0  0  0  0  0  3  0  0  0  0  0  0
  -25.5540  -33.8950   24.1640 N   0  0  0  0  0  0  0  0  0  0  0  0
  -25.8960  -34.9410   23.4010 C   0  0  0  0  0  0  0  0  0  0  0  0
  -26.5730  -34.8300   22.3740 O   0  0  0  0  0  0  0  0  0  0  0  0
  -24.9580  -34.0560   24.9620 H   0  0  0  0  0  0  0  0  0  0  0  0
  -24.1870  -36.7430   23.0130 C   0  0  0  0  0  1  0  0  0  0  0  0
  -25.4120  -36.3330   23.8480 C   0  0  0  0  0  3  0  0  0  0  0  0
  -27.5430  -37.1960   24.7100 C   0  0  0  0  0  1  0  0  0  0  0  0
  -26.4530  -37.3800   23.7550 N   0  0  0  0  0  0  0  0  0  0  0  0
  -26.0500  -38.3010   23.9070 H   0  0  0  0  0  0  0  0  0  0  0  0
  -26.3880  -31.7320   25.1200 C   0  0  1  0  0  0  0  0  0  0  0  0
  -25.3050  -31.5050   26.1990 C   0  0  0  0  0  1  0  0  0  0  0  0
  -26.9670  -30.3520   24.7310 C   0  0  0  0  0  1  0  0  0  0  0  0
  -27.5460  -32.5320   25.7610 C   0  0  0  0  0  1  0  0  0  0  0  0
  1  6  2  0
  1  3  1  0
  2  4  2  0
  3  5  2  0
  4  8  1  0
  5  4  1  0
  5  9  1  0
  6  2  1  0
  7  3  1  0
 10 19  1  0
 10  9  1  0
 11 19  1  0
 12 17  1  0
 13 14  1  0
 13 12  1  0
 15 14  1  0
 15 24  1  0
 15 16  1  0
 17 11  1  0
 17 16  1  0
 18 11  2  0
 19 20  1  0
 21 22  2  0
 22 41  1  0
 23 22  1  0
 23 26  1  0
 24 21  1  0
 24 25  1  0
 25 23  2  0
 26 27  1  0
 27 28  2  0
 29 32  1  0
 29 28  1  0
 30 29  2  0
 31 30  1  0
 31 26  2  0
 32 33  1  0
 33 38  2  0
 33 34  1  0
 34 35  2  0
 35 36  1  0
 36 40  1  0
 37 36  2  0
 38 37  1  0
 39 38  1  0
 41 42  1  0
 42 45  1  0
 42 44  1  0
 43 41  2  0
 46 47  1  0
 46 21  1  0
 48 46  1  0
 49 50  1  0
 49  6  1  0
 53 51  1  6
 53 52  1  0
 53 50  1  0
 54 53  1  0
 54 55  1  0
 56 67  2  0
 57 55  1  0
 57 62  1  0
 58 66  1  0
 58 68  1  0
 59 65  1  0
 59 61  1  0
 60 66  1  0
 61 60  1  0
 62 61  2  0
 63 64  1  0
 63 57  2  0
 64 59  2  0
 65 58  1  0
 66 56  1  0
 68 70  2  0
 69 68  1  0
 71 69  1  0
 72 81  2  0
 72 77  1  0
 73 69  1  0
 73 77  1  0
 74 73  1  0
 75 76  1  0
 75 74  1  0
 76 72  1  0
 77 78  2  0
 78 79  1  0
 80 79  2  0
 81 80  1  0
 82 56  1  0
 82 83  1  0
 82 92  1  0
 83 86  1  0
 84 88  1  0
 84 83  1  0
 85 84  2  0
 88 87  1  0
 90 88  1  0
 90 91  1  0
 90 89  1  0
 92 95  1  1
 92 93  1  0
 94 92  1  0
M  ISO  4  11 100  19 100  54 101  55 101
M  END
>  <TORSDO>  (20) 
F 22

>  <SCORE>  (20) 
-12.626

>  <name>  (20) 
19

>  <ligand_id>  (20) 
19

>  <original_smiles>  (20) 
[H]c1c([H])c([H])c2c(c1[H])C([H])([H])C([H])([H])C([H])([H])C2([H])N([H])C(=O)C1([H])N(C(=O)C([H])(N([H])C(=O)C([H])(N([H])C([H])([H])[H])C([H])([H])[H])C(C([H])([H])[H])(C([H])([H])[H])C([H])([H])[H])C([H])([H])c2c([H])c(OC([H])([H])C(C([H])([H])[H])(C([H])([H])[H])C([H])([H])Oc3c([H])c(C([H])([H])[H])c(C([H])([H])C([H])([H])N([H])C(=O)N4C([H])([H])C([H])([H])C([H])([H])C([H])(n5nc(-c6c([H])c([H])c(Oc7c([H])c([H])c(F)c([H])c7F)c([H])c6[H])c(C(=O)N([H])[H])c5N([H])[H])C4([H])[H])c(C([H])([H])[H])c3[H])c([H])c([H])c2C1([H])[H]

>  <smiles>  (20) 
[H]c1c([H])c([H])c2c(c1[H])C([H])([H])C([H])([H])C([H])([H])C2([H])N([H])C(=O)C1([H])N(C(=O)C([H])(N([H])C(=O)C([H])(N([H])C([H])([H])[H])C([H])([H])[H])C(C([H])([H])[H])(C([H])([H])[H])C([H])([H])[H])C([H])([H])c2c([H])c(OC([H])([H])C(C([H])([H])[H])(C([H])([H])[H])C([H])([H])Oc3c([H])c(C([H])([H])[H])c(C([H])([H])C([H])([H])N([H])C(=O)N4C([H])([H])C([H])([H])C([H])([H])C([H])(n5nc(-c6c([H])c([H])c(Oc7c([H])c([H])c(F)c([H])c7F)c([H])c6[H])c(C(=O)N([H])[H])c5N([H])[H])C4([H])[H])c(C([H])([H])[H])c3[H])c([H])c([H])c2C1([H])[H]

$$$$
20:0:0
     RDKit          3D

100102  0  0  1  0  0  0  0  0999 V2000
  -31.5460  -14.9660   20.9320 C   0  0  0  0  0  0  0  0  0  0  0  0
  -31.6330  -12.7760   19.3900 C   0  0  0  0  0 15  0  0  0  0  0  0
  -30.2160  -11.8800   17.5440 C   0  0  0  0  0 15  0  0  0  0  0  0
  -27.9260  -12.2680   18.0110 C   0  0  0  0  0 15  0  0  0  0  0  0
  -27.1350  -13.3050   19.9090 C   0  0  0  0  0  1  0  0  0  0  0  0
  -28.7240  -14.1900   21.4890 C   0  0  0  0  0 15  0  0  0  0  0  0
  -30.7580  -13.8910   20.9600 N   0  0  0  0  0  1  0  0  0  0  0  0
  -32.7240  -14.7210   20.9730 O   0  0  0  0  0  0  0  0  0  0  0  0
  -31.4730  -20.1830   17.8720 C   0  0  0  0  0  2  0  0  0  0  0  0
  -31.5330  -19.6080   19.0930 C   0  0  0  0  0  3  0  0  0  0  0  0
  -31.0750  -19.0620   17.0240 C   0  0  0  0  0  0  0  0  0  0  0  0
  -32.2350  -17.2460   20.1520 C   0  0  0  0  0  2  0  0  0  0  0  0
  -29.9050  -16.4660   19.7280 C   0  0  0  0  0  2  0  0  0  0  0  0
  -32.0650  -18.1920   18.9040 C   0  0  0  0  0  3  0  0  0  0  0  0
  -30.1640  -19.4360   19.7590 C   0  0  0  0  0  3  0  0  0  0  0  0
  -30.9540  -17.8410   17.9460 C   0  0  0  0  0  3  0  0  0  0  0  0
  -29.8040  -17.9570   19.0000 C   0  0  0  0  0  3  0  0  0  0  0  0
  -31.1690  -16.2150   20.4450 N   0  0  0  0  0  0  0  0  0  0  0  0
  -30.8900  -19.0570   15.8030 O   0  0  0  0  0  0  0  0  0  0  0  0
  -29.0530  -11.0280   20.2760 C   0  0  0  0  0  1  0  0  0  0  0  0
  -29.5400  -12.2740   20.3300 C   0  0  0  0  0  2  0  0  0  0  0  0
  -29.8810  -11.9160   19.6640 C   0  0  0  0  0  1  0  0  0  0  0  0
  -29.2470  -14.0200   19.2720 C   0  0  0  0  0  2  0  0  0  0  0  0
  -29.7920  -13.7530   18.6730 C   0  0  0  0  0  1  0  0  0  0  0  0
  -29.7930  -15.1700   18.7640 C   0  0  0  0  0  1  0  0  0  0  0  0
  -25.1180  -13.8530   20.8390 C   0  0  0  0  0  0  0  0  0  0  0  0
  -24.0840  -13.0490   21.1180 C   0  0  0  0  0  0  0  0  0  0  0  0
  -24.5750  -11.7020   21.0740 C   0  0  0  0  0  0  0  0  0  0  0  0
  -26.0510  -12.9320   20.5180 N   0  0  0  0  0  0  0  0  0  0  0  0
  -25.8320  -11.6580   20.7560 N   0  0  0  0  0  0  0  0  0  0  0  0
  -23.9150  -10.4310   21.1970 C   0  0  0  0  0  0  0  0  0  0  0  0
  -24.3700   -9.4630   22.1150 C   0  0  0  0  0  3  0  0  0  0  0  0
  -23.6660   -8.2520   22.2470 C   0  0  0  0  0  3  0  0  0  0  0  0
  -22.5170   -8.0240   21.4550 C   0  0  0  0  0  0  0  0  0  0  0  0
  -22.1180   -8.9730   20.5000 C   0  0  0  0  0  3  0  0  0  0  0  0
  -22.8190  -10.1760   20.3630 C   0  0  0  0  0  3  0  0  0  0  0  0
  -21.7670   -6.8810   21.5140 O   0  0  0  0  0  0  0  0  0  0  0  0
  -21.6810   -6.1510   22.6650 C   0  0  0  0  0  0  0  0  0  0  0  0
  -21.2020   -6.7070   23.8740 C   0  0  0  0  0  3  0  0  0  0  0  0
  -21.0830   -5.8900   25.0130 C   0  0  0  0  0  3  0  0  0  0  0  0
  -21.4190   -4.5280   24.9420 C   0  0  0  0  0  0  0  0  0  0  0  0
  -21.8890   -3.9750   23.7380 C   0  0  0  0  0  3  0  0  0  0  0  0
  -22.0200   -4.7870   22.6000 C   0  0  0  0  0  0  0  0  0  0  0  0
  -22.4630   -4.2550   21.4350 F   0  0  0  0  0  0  0  0  0  0  0  0
  -21.2820   -3.7380   26.0340 F   0  0  0  0  0  0  0  0  0  0  0  0
  -22.7010  -13.5310   21.2680 C   0  0  0  0  0  0  0  0  0  0  0  0
  -21.9440  -12.8440   22.1020 N   0  0  0  0  0  0  0  0  0  0  0  0
  -22.3210  -14.5480   20.6850 O   0  0  0  0  0  0  0  0  0  0  0  0
  -22.3100  -12.0290   22.5740 H   0  0  0  0  0  0  0  0  0  0  0  0
  -20.9960  -13.1320   22.2910 H   0  0  0  0  0  0  0  0  0  0  0  0
  -25.3470  -15.2380   20.7290 N   0  0  0  0  0  0  0  0  0  0  0  0
  -24.6400  -15.9280   20.9380 H   0  0  0  0  0  0  0  0  0  0  0  0
  -26.2530  -15.6400   20.5340 H   0  0  0  0  0  0  0  0  0  0  0  0
  -29.5670  -22.1270   19.9410 C   0  0  0  0  0  0  0  0  0  0  0  0
  -29.2720  -20.7520   19.7380 N   0  0  0  0  0  0  0  0  0  0  0  0
  -30.7480  -22.4830   19.9230 O   0  0  0  0  0  0  0  0  0  0  0  0
  -28.2820  -20.5550   19.7680 H   0  0  0  0  0  0  0  0  0  0  0  0
  -28.5140  -23.3360   20.3130 C   0  0  0  0  0  2  0  0  0  0  0  0
  -28.5230  -24.8510   19.6120 C   0  0  0  0  0  2  0  0  0  0  0  0
  -28.4040  -26.2400   20.2790 O   0  0  0  0  0  0  0  0  0  0  0  0
  -24.6420  -31.8310   23.2140 C   0  0  0  0  0  0  0  0  0  0  0  0
  -27.3030  -27.1580   20.1950 C   0  0  0  0  0  0  0  0  0  0  0  0
  -23.4770  -30.4220   21.5640 C   0  0  0  0  0  3  0  0  0  0  0  0
  -24.9540  -28.8620   20.1590 C   0  0  0  0  0  0  0  0  0  0  0  0
  -26.0290  -30.7100   21.4370 C   0  0  0  0  0  2  0  0  0  0  0  0
  -26.1200  -29.3250   20.7800 C   0  0  0  0  0  0  0  0  0  0  0  0
  -27.2920  -28.4840   20.7830 C   0  0  0  0  0  3  0  0  0  0  0  0
  -26.1000  -26.7780   19.5670 C   0  0  0  0  0  3  0  0  0  0  0  0
  -24.9530  -27.6010   19.5440 C   0  0  0  0  0  3  0  0  0  0  0  0
  -23.7210  -29.7490   20.1900 C   0  0  0  0  0  2  0  0  0  0  0  0
  -24.7340  -31.0090   22.1250 N   0  0  0  0  0  0  0  0  0  0  0  0
  -23.5460  -32.1100   23.7250 O   0  0  0  0  0  0  0  0  0  0  0  0
  -22.7920  -29.4110   22.5180 C   0  0  0  0  0  0  0  0  0  0  0  0
  -21.4620  -29.2520   22.3880 N   0  0  0  0  0  0  0  0  0  0  0  0
  -23.4570  -28.7760   23.3410 O   0  0  0  0  0  0  0  0  0  0  0  0
  -20.9830  -29.8170   21.7000 H   0  0  0  0  0  0  0  0  0  0  0  0
  -18.0650  -28.1160   22.9140 C   0  0  0  0  0  0  0  0  0  0  0  0
  -20.6310  -28.3190   23.1520 C   0  0  0  0  0  3  0  0  0  0  0  0
  -20.6950  -26.8980   22.5450 C   0  0  0  0  0  2  0  0  0  0  0  0
  -19.5730  -26.6180   21.5420 C   0  0  0  0  0  2  0  0  0  0  0  0
  -18.2020  -26.7780   22.2070 C   0  0  0  0  0  2  0  0  0  0  0  0
  -19.2040  -28.8470   23.3430 C   0  0  0  0  0  0  0  0  0  0  0  0
  -19.0180  -30.1000   23.9650 C   0  0  0  0  0  3  0  0  0  0  0  0
  -17.7250  -30.6230   24.1600 C   0  0  0  0  0  3  0  0  0  0  0  0
  -16.6000  -29.8890   23.7440 C   0  0  0  0  0  3  0  0  0  0  0  0
  -16.7710  -28.6370   23.1260 C   0  0  0  0  0  3  0  0  0  0  0  0
  -25.9090  -32.4730   23.8600 C   0  0  0  0  0  3  0  0  0  0  0  0
  -26.3970  -31.7120   25.1550 C   0  0  1  0  0  0  0  0  0  0  0  0
  -25.2800  -31.4800   26.2000 C   0  0  0  0  0  1  0  0  0  0  0  0
  -26.9910  -30.3290   24.7940 C   0  0  0  0  0  1  0  0  0  0  0  0
  -27.5330  -32.5140   25.8300 C   0  0  0  0  0  1  0  0  0  0  0  0
  -25.5870  -33.8730   24.1790 N   0  0  0  0  0  0  0  0  0  0  0  0
  -25.9340  -34.9240   23.4210 C   0  0  0  0  0  0  0  0  0  0  0  0
  -26.6200  -34.8140   22.4020 O   0  0  0  0  0  0  0  0  0  0  0  0
  -24.9780  -34.0330   24.9670 H   0  0  0  0  0  0  0  0  0  0  0  0
  -24.2130  -36.7180   23.0270 C   0  0  0  0  0  1  0  0  0  0  0  0
  -25.4400  -36.3150   23.8640 C   0  0  0  0  0  3  0  0  0  0  0  0
  -27.5530  -37.2080   24.7360 C   0  0  0  0  0  1  0  0  0  0  0  0
  -26.4750  -37.3680   23.7650 N   0  0  0  0  0  0  0  0  0  0  0  0
  -26.0650  -38.2890   23.8910 H   0  0  0  0  0  0  0  0  0  0  0  0
  1  7  1  0
  1  8  2  0
  5 29  1  0
 10  9  1  0
 10 15  1  0
 11  9  1  0
 12 18  1  0
 13 18  1  0
 14 10  1  0
 14 12  1  0
 15 55  1  0
 16 11  1  0
 16 14  1  0
 16 17  1  0
 17 13  1  0
 17 15  1  0
 18  1  1  0
 19 11  2  0
 20 21  1  0
 22 21  1  0
 24 23  1  0
 25 23  1  0
 26 27  2  0
 27 46  1  0
 28 27  1  0
 28 31  1  0
 29 30  1  0
 29 26  1  0
 30 28  2  0
 31 32  1  0
 32 33  2  0
 34 37  1  0
 34 33  1  0
 35 34  2  0
 36 35  1  0
 36 31  2  0
 37 38  1  0
 38 39  1  0
 39 40  2  0
 41 40  1  0
 41 45  1  0
 42 41  2  0
 43 38  2  0
 43 42  1  0
 44 43  1  0
 46 47  1  0
 47 50  1  0
 47 49  1  0
 48 46  2  0
 51 26  1  0
 51 52  1  0
 53 51  1  0
 54 58  1  0
 55 57  1  0
 55 54  1  0
 56 54  2  0
 59 60  1  0
 59 58  1  0
 61 72  2  0
 62 60  1  0
 62 67  1  0
 63 71  1  0
 63 73  1  0
 64 70  1  0
 64 66  1  0
 65 71  1  0
 66 67  2  0
 66 65  1  0
 68 62  2  0
 69 68  1  0
 69 64  2  0
 70 63  1  0
 71 61  1  0
 73 75  2  0
 74 73  1  0
 76 74  1  0
 77 86  2  0
 77 82  1  0
 78 74  1  0
 78 82  1  0
 79 78  1  0
 80 81  1  0
 80 79  1  0
 81 77  1  0
 82 83  2  0
 83 84  1  0
 85 84  2  0
 86 85  1  0
 87 61  1  0
 87 92  1  0
 87 88  1  0
 88 91  1  1
 88 89  1  0
 90 88  1  0
 92 95  1  0
 93 97  1  0
 93 92  1  0
 94 93  2  0
 97 96  1  0
 99 97  1  0
 99100  1  0
 99 98  1  0
M  ISO  4   1 100  18 100  59 101  60 101
M  END
>  <TORSDO>  (21) 
F 19

>  <SCORE>  (21) 
-14.307

>  <name>  (21) 
20

>  <ligand_id>  (21) 
20

>  <original_smiles>  (21) 
[H]C1=C2C([H])(N([H])C(=O)C([H])([H])C([H])([H])Oc3c([H])c([H])c4c(c3[H])C([H])([H])N(C(=O)C([H])(N([H])C(=O)C([H])(N([H])C([H])([H])[H])C([H])([H])[H])C(C([H])([H])[H])(C([H])([H])[H])C([H])([H])[H])C([H])(C(=O)N([H])C3([H])c5c([H])c([H])c([H])c([H])c5C([H])([H])C([H])([H])C3([H])[H])C4([H])[H])C3([H])C([H])(c4c([H])c([H])c([H])c([H])c4[H])N(C(=O)N4C([H])([H])C([H])([H])C([H])([H])C([H])(n5nc(-c6c([H])c([H])c(Oc7c([H])c([H])c(F)c([H])c7F)c([H])c6[H])c(C(=O)N([H])[H])c5N([H])[H])C4([H])[H])C([H])([H])C2([H])C3([H])C1=O

>  <smiles>  (21) 
[H]C1=C2C([H])(N([H])C(=O)C([H])([H])C([H])([H])Oc3c([H])c([H])c4c(c3[H])C([H])([H])N(C(=O)C([H])(N([H])C(=O)C([H])(N([H])C([H])([H])[H])C([H])([H])[H])C(C([H])([H])[H])(C([H])([H])[H])C([H])([H])[H])C([H])(C(=O)N([H])C3([H])c5c([H])c([H])c([H])c([H])c5C([H])([H])C([H])([H])C3([H])[H])C4([H])[H])C3([H])C([H])(c4c([H])c([H])c([H])c([H])c4[H])N(C(=O)N4C([H])([H])C([H])([H])C([H])([H])C([H])(n5nc(-c6c([H])c([H])c(Oc7c([H])c([H])c(F)c([H])c7F)c([H])c6[H])c(C(=O)N([H])[H])c5N([H])[H])C4([H])[H])C([H])([H])C2([H])C3([H])C1=O

$$$$
21:0:0
     RDKit          3D

 90 98  0  0  1  0  0  0  0  0999 V2000
  -30.3320  -20.6680   18.9040 C   0  0  0  0  0  2  0  0  0  0  0  0
  -29.8360  -22.1280   18.7180 C   0  0  0  0  0  2  0  0  0  0  0  0
  -29.2500  -20.0090   19.7720 C   0  0  0  0  0  3  0  0  0  0  0  0
  -29.2730  -22.5130   20.0950 C   0  0  0  0  0  3  0  0  0  0  0  0
  -27.2870  -21.1280   20.8380 C   0  0  0  0  0  1  0  0  0  0  0  0
  -28.7500  -21.1760   20.6230 N   0  0  1  0  0  4  0  0  0  0  0  0
  -29.1690  -21.0720   21.5370 H   0  0  0  0  0  0  0  0  0  0  0  0
  -29.6160  -18.6250   20.5410 C   0  0  0  0  0  3  0  0  0  0  0  0
  -30.1020  -17.2860   19.7570 C   0  0  0  0  0  3  0  0  0  0  0  0
  -30.8750  -14.8070   19.9970 C   0  0  0  0  0  0  0  0  0  0  0  0
  -30.5790  -12.5780   18.8990 C   0  0  0  0  0  2  0  0  0  0  0  0
  -29.5640  -12.7070   17.7420 C   0  0  0  0  0  2  0  0  0  0  0  0
  -28.1240  -12.5270   18.2580 C   0  0  0  0  0  2  0  0  0  0  0  0
  -27.8400  -13.3700   19.5290 C   0  0  0  0  0  3  0  0  0  0  0  0
  -28.9620  -13.2050   20.5730 C   0  0  0  0  0  2  0  0  0  0  0  0
  -30.2280  -13.5900   19.9250 N   0  0  0  0  0  0  0  0  0  0  0  0
  -31.9700  -14.9430   19.4400 O   0  0  0  0  0  0  0  0  0  0  0  0
  -29.9880  -16.0190   21.9210 C   0  0  0  0  0  1  0  0  0  0  0  0
  -30.1870  -15.9270   20.4690 N   0  0  0  0  0  0  0  0  0  0  0  0
  -25.5150  -13.9560   20.4420 C   0  0  0  0  0  0  0  0  0  0  0  0
  -24.4680  -13.1770   20.8570 C   0  0  0  0  0  0  0  0  0  0  0  0
  -24.9110  -11.8240   20.7390 C   0  0  0  0  0  0  0  0  0  0  0  0
  -26.5280  -13.0760   20.0960 N   0  0  0  0  0  0  0  0  0  0  0  0
  -26.1760  -11.7870   20.3370 N   0  0  0  0  0  0  0  0  0  0  0  0
  -24.1870  -10.5620   20.9320 C   0  0  0  0  0  0  0  0  0  0  0  0
  -24.6050   -9.6060   21.8830 C   0  0  0  0  0  3  0  0  0  0  0  0
  -23.8790   -8.4090   22.0620 C   0  0  0  0  0  3  0  0  0  0  0  0
  -22.7210   -8.1580   21.2870 C   0  0  0  0  0  0  0  0  0  0  0  0
  -22.3220   -9.1040   20.3250 C   0  0  0  0  0  3  0  0  0  0  0  0
  -23.0490  -10.2910   20.1450 C   0  0  0  0  0  3  0  0  0  0  0  0
  -21.9660   -7.0140   21.3750 O   0  0  0  0  0  0  0  0  0  0  0  0
  -21.8120   -6.3420   22.5620 C   0  0  0  0  0  0  0  0  0  0  0  0
  -21.2320   -6.9550   23.6950 C   0  0  0  0  0  3  0  0  0  0  0  0
  -21.0280   -6.2080   24.8720 C   0  0  0  0  0  3  0  0  0  0  0  0
  -21.3930   -4.8490   24.9170 C   0  0  0  0  0  0  0  0  0  0  0  0
  -21.9640   -4.2360   23.7870 C   0  0  0  0  0  3  0  0  0  0  0  0
  -22.1710   -4.9800   22.6130 C   0  0  0  0  0  0  0  0  0  0  0  0
  -22.7030   -4.3790   21.5220 F   0  0  0  0  0  0  0  0  0  0  0  0
  -21.1910   -4.1290   26.0440 F   0  0  0  0  0  0  0  0  0  0  0  0
  -23.1000  -13.6550   21.2470 C   0  0  0  0  0  0  0  0  0  0  0  0
  -22.4230  -12.9270   22.1280 N   0  0  0  0  0  0  0  0  0  0  0  0
  -22.6420  -14.7080   20.8060 O   0  0  0  0  0  0  0  0  0  0  0  0
  -22.8080  -12.0750   22.5080 H   0  0  0  0  0  0  0  0  0  0  0  0
  -21.5060  -13.2270   22.4300 H   0  0  0  0  0  0  0  0  0  0  0  0
  -25.6840  -15.3310   20.3100 N   0  0  0  0  0  0  0  0  0  0  0  0
  -24.9400  -15.9910   20.5080 H   0  0  0  0  0  0  0  0  0  0  0  0
  -26.5270  -15.7730   19.9650 H   0  0  0  0  0  0  0  0  0  0  0  0
  -28.3660  -23.8630   20.2320 C   0  0  0  0  0  2  0  0  0  0  0  0
  -28.8030  -25.2480   19.5450 C   0  0  0  0  0  2  0  0  0  0  0  0
  -28.6040  -26.5880   20.1710 O   0  0  0  0  0  0  0  0  0  0  0  0
  -24.6890  -31.8720   23.1220 C   0  0  0  0  0  0  0  0  0  0  0  0
  -27.4430  -27.3730   20.0770 C   0  0  0  0  0  0  0  0  0  0  0  0
  -23.5350  -30.4510   21.4600 C   0  0  0  0  0  3  0  0  0  0  0  0
  -25.0380  -28.9330   20.0440 C   0  0  0  0  0  0  0  0  0  0  0  0
  -26.0690  -30.8240   21.3090 C   0  0  0  0  0  2  0  0  0  0  0  0
  -26.1850  -29.4490   20.6570 C   0  0  0  0  0  0  0  0  0  0  0  0
  -27.3860  -28.6790   20.6650 C   0  0  0  0  0  3  0  0  0  0  0  0
  -26.2720  -26.9040   19.4460 C   0  0  0  0  0  3  0  0  0  0  0  0
  -25.0850  -27.6680   19.4290 C   0  0  0  0  0  3  0  0  0  0  0  0
  -23.7810  -29.7800   20.0810 C   0  0  0  0  0  2  0  0  0  0  0  0
  -24.7820  -31.0680   22.0210 N   0  0  0  0  0  0  0  0  0  0  0  0
  -23.5940  -32.1250   23.6430 O   0  0  0  0  0  0  0  0  0  0  0  0
  -22.8820  -29.4200   22.4120 C   0  0  0  0  0  0  0  0  0  0  0  0
  -21.5560  -29.2360   22.2880 N   0  0  0  0  0  0  0  0  0  0  0  0
  -23.5670  -28.7880   23.2210 O   0  0  0  0  0  0  0  0  0  0  0  0
  -21.0640  -29.8010   21.6100 H   0  0  0  0  0  0  0  0  0  0  0  0
  -18.1800  -28.0480   22.8160 C   0  0  0  0  0  0  0  0  0  0  0  0
  -20.7440  -28.2840   23.0500 C   0  0  0  0  0  3  0  0  0  0  0  0
  -20.8270  -26.8690   22.4340 C   0  0  0  0  0  2  0  0  0  0  0  0
  -19.7060  -26.5810   21.4300 C   0  0  0  0  0  2  0  0  0  0  0  0
  -18.3360  -26.7160   22.1010 C   0  0  0  0  0  2  0  0  0  0  0  0
  -19.3120  -28.7910   23.2470 C   0  0  0  0  0  0  0  0  0  0  0  0
  -19.1120  -30.0380   23.8780 C   0  0  0  0  0  3  0  0  0  0  0  0
  -17.8120  -30.5430   24.0800 C   0  0  0  0  0  3  0  0  0  0  0  0
  -16.6960  -29.7950   23.6670 C   0  0  0  0  0  3  0  0  0  0  0  0
  -16.8810  -28.5500   23.0420 C   0  0  0  0  0  3  0  0  0  0  0  0
  -25.9490  -32.5310   23.7640 C   0  0  0  0  0  3  0  0  0  0  0  0
  -26.4750  -31.7560   25.0340 C   0  0  1  0  0  0  0  0  0  0  0  0
  -25.3790  -31.4690   26.0870 C   0  0  0  0  0  1  0  0  0  0  0  0
  -27.1050  -30.4050   24.6270 C   0  0  0  0  0  1  0  0  0  0  0  0
  -27.5940  -32.5750   25.7210 C   0  0  0  0  0  1  0  0  0  0  0  0
  -25.5990  -33.9150   24.1140 N   0  0  0  0  0  0  0  0  0  0  0  0
  -25.9060  -34.9900   23.3750 C   0  0  0  0  0  0  0  0  0  0  0  0
  -26.5820  -34.9220   22.3450 O   0  0  0  0  0  0  0  0  0  0  0  0
  -24.9990  -34.0410   24.9160 H   0  0  0  0  0  0  0  0  0  0  0  0
  -24.1370  -36.7450   23.0370 C   0  0  0  0  0  1  0  0  0  0  0  0
  -25.3800  -36.3570   23.8540 C   0  0  0  0  0  3  0  0  0  0  0  0
  -27.4790  -37.2840   24.7270 C   0  0  0  0  0  1  0  0  0  0  0  0
  -26.3870  -37.4370   23.7690 N   0  0  0  0  0  0  0  0  0  0  0  0
  -25.9560  -38.3450   23.9220 H   0  0  0  0  0  0  0  0  0  0  0  0
  1  3  1  0
  2  1  1  0
  2  4  1  0
  3  8  1  0
  3  6  1  0
  4 48  1  0
  4  6  1  0
  6  5  1  0
  6  7  1  1
  9 19  1  0
  9  8  2  0
 10 19  1  0
 11 16  1  0
 12 13  1  0
 12 11  1  0
 14 13  1  0
 14 23  1  0
 14 15  1  0
 16 10  1  0
 16 15  1  0
 17 10  2  0
 19 18  1  0
 20 21  2  0
 21 40  1  0
 22 21  1  0
 22 25  1  0
 23 24  1  0
 23 20  1  0
 24 22  2  0
 25 26  1  0
 26 27  2  0
 28 31  1  0
 28 27  1  0
 29 28  2  0
 30 29  1  0
 30 25  2  0
 31 32  1  0
 32 37  2  0
 32 33  1  0
 33 34  2  0
 34 35  1  0
 35 39  1  0
 36 35  2  0
 37 36  1  0
 38 37  1  0
 40 41  1  0
 41 44  1  0
 41 43  1  0
 42 40  2  0
 45 20  1  0
 45 46  1  0
 47 45  1  0
 49 50  1  0
 49 48  1  0
 51 62  2  0
 52 50  1  0
 52 57  1  0
 53 61  1  0
 53 63  1  0
 54 60  1  0
 54 56  1  0
 55 61  1  0
 56 57  2  0
 56 55  1  0
 58 52  2  0
 59 58  1  0
 59 54  2  0
 60 53  1  0
 61 51  1  0
 63 65  2  0
 64 63  1  0
 66 64  1  0
 67 76  2  0
 67 72  1  0
 68 64  1  0
 68 72  1  0
 69 68  1  0
 70 71  1  0
 70 69  1  0
 71 67  1  0
 72 73  2  0
 73 74  1  0
 75 74  2  0
 76 75  1  0
 77 51  1  0
 77 82  1  0
 77 78  1  0
 78 81  1  1
 78 79  1  0
 80 78  1  0
 82 85  1  0
 83 87  1  0
 83 82  1  0
 84 83  2  0
 87 86  1  0
 89 87  1  0
 89 90  1  0
 89 88  1  0
M  ISO  4  10 100  19 100  49 101  50 101
M  END
>  <TORSDO>  (22) 
F 20

>  <SCORE>  (22) 
-12.624

>  <name>  (22) 
21

>  <ligand_id>  (22) 
21

>  <original_smiles>  (22) 
[H]c1c([H])c([H])c2c(c1[H])C([H])([H])C([H])([H])C([H])([H])C2([H])N([H])C(=O)C1([H])N(C(=O)C([H])(N([H])C(=O)C([H])(N([H])C([H])([H])[H])C([H])([H])[H])C(C([H])([H])[H])(C([H])([H])[H])C([H])([H])[H])C([H])([H])c2c([H])c(OC([H])([H])C([H])([H])C3([H])C([H])([H])C([H])([H])C([H])(C([H])([H])C([H])([H])N(C(=O)N4C([H])([H])C([H])([H])C([H])([H])C([H])(n5nc(-c6c([H])c([H])c(Oc7c([H])c([H])c(F)c([H])c7F)c([H])c6[H])c(C(=O)N([H])[H])c5N([H])[H])C4([H])[H])C([H])([H])[H])[N+]3([H])C([H])([H])[H])c([H])c([H])c2C1([H])[H]

>  <smiles>  (22) 
[H]c1c([H])c([H])c2c(c1[H])C([H])([H])C([H])([H])C([H])([H])C2([H])N([H])C(=O)C1([H])N(C(=O)C([H])(N([H])C(=O)C([H])(N([H])C([H])([H])[H])C([H])([H])[H])C(C([H])([H])[H])(C([H])([H])[H])C([H])([H])[H])C([H])([H])c2c([H])c(OC([H])([H])C([H])([H])C3([H])C([H])([H])C([H])([H])C([H])(C([H])([H])C([H])([H])N(C(=O)N4C([H])([H])C([H])([H])C([H])([H])C([H])(n5nc(-c6c([H])c([H])c(Oc7c([H])c([H])c(F)c([H])c7F)c([H])c6[H])c(C(=O)N([H])[H])c5N([H])[H])C4([H])[H])C([H])([H])[H])[N+]3([H])C([H])([H])[H])c([H])c([H])c2C1([H])[H]

$$$$
22:0:0
     RDKit          3D

 91100  0  0  1  0  0  0  0  0999 V2000
  -30.8180  -22.1820   20.5700 C   0  0  0  0  0  2  0  0  0  0  0  0
  -30.1460  -22.9760   19.4340 C   0  0  0  0  0  2  0  0  0  0  0  0
  -27.7530  -21.7320   19.2940 C   0  0  0  0  0  2  0  0  0  0  0  0
  -29.5120  -21.4170   20.7990 C   0  0  0  0  0  3  0  0  0  0  0  0
  -29.3230  -19.8790   20.0950 C   0  0  0  0  0  3  0  0  0  0  0  0
  -28.7500  -22.7230   20.0370 C   0  0  1  0  0  0  0  0  0  0  0  0
  -27.9380  -20.2260   19.6440 N   0  0  0  0  0  4  0  0  0  0  0  0
  -27.6660  -19.6500   18.8630 H   0  0  0  0  0  0  0  0  0  0  0  0
  -27.3130  -20.0140   20.4050 H   0  0  0  0  0  0  0  0  0  0  0  0
  -28.0080  -24.2200   20.6690 C   0  0  0  0  0  0  0  0  0  0  0  0
  -27.1730  -24.0610   21.5620 O   0  0  0  0  0  0  0  0  0  0  0  0
  -28.2060  -25.8370   20.2070 O   0  0  0  0  0  0  0  0  0  0  0  0
  -24.6440  -31.8780   23.1990 C   0  0  0  0  0  0  0  0  0  0  0  0
  -27.2110  -26.9570   20.2450 C   0  0  0  0  0  0  0  0  0  0  0  0
  -23.4570  -30.4630   21.5730 C   0  0  0  0  0  3  0  0  0  0  0  0
  -24.9120  -28.8440   20.1760 C   0  0  0  0  0  0  0  0  0  0  0  0
  -26.0250  -30.6720   21.4320 C   0  0  0  0  0  2  0  0  0  0  0  0
  -26.1000  -29.2510   20.7970 C   0  0  0  0  0  0  0  0  0  0  0  0
  -27.2460  -28.3300   20.8070 C   0  0  0  0  0  3  0  0  0  0  0  0
  -25.9900  -26.7090   19.5770 C   0  0  0  0  0  3  0  0  0  0  0  0
  -24.8810  -27.5920   19.5460 C   0  0  0  0  0  3  0  0  0  0  0  0
  -23.6930  -29.7670   20.2060 C   0  0  0  0  0  2  0  0  0  0  0  0
  -24.7300  -31.0320   22.1210 N   0  0  0  0  0  0  0  0  0  0  0  0
  -23.5530  -32.1720   23.7130 O   0  0  0  0  0  0  0  0  0  0  0  0
  -22.7610  -29.4770   22.5470 C   0  0  0  0  0  0  0  0  0  0  0  0
  -21.4300  -29.3160   22.4280 N   0  0  0  0  0  0  0  0  0  0  0  0
  -23.4270  -28.8540   23.3780 O   0  0  0  0  0  0  0  0  0  0  0  0
  -20.9460  -29.8690   21.7330 H   0  0  0  0  0  0  0  0  0  0  0  0
  -18.0440  -28.1190   22.9570 C   0  0  0  0  0  0  0  0  0  0  0  0
  -20.6060  -28.3860   23.2080 C   0  0  0  0  0  3  0  0  0  0  0  0
  -20.7040  -26.9490   22.6450 C   0  0  0  0  0  2  0  0  0  0  0  0
  -19.5990  -26.6190   21.6370 C   0  0  0  0  0  2  0  0  0  0  0  0
  -18.2190  -26.7660   22.2860 C   0  0  0  0  0  2  0  0  0  0  0  0
  -19.1650  -28.8860   23.3760 C   0  0  0  0  0  0  0  0  0  0  0  0
  -18.9460  -30.1480   23.9670 C   0  0  0  0  0  3  0  0  0  0  0  0
  -17.6400  -30.6460   24.1410 C   0  0  0  0  0  3  0  0  0  0  0  0
  -16.5350  -29.8780   23.7350 C   0  0  0  0  0  3  0  0  0  0  0  0
  -16.7390  -28.6160   23.1500 C   0  0  0  0  0  3  0  0  0  0  0  0
  -25.9120  -32.5310   23.8280 C   0  0  0  0  0  3  0  0  0  0  0  0
  -25.5850  -33.9290   24.1600 N   0  0  0  0  0  0  0  0  0  0  0  0
  -25.9100  -34.9920   23.4120 C   0  0  0  0  0  0  0  0  0  0  0  0
  -26.5770  -34.9010   22.3790 O   0  0  0  0  0  0  0  0  0  0  0  0
  -24.9900  -34.0730   24.9620 H   0  0  0  0  0  0  0  0  0  0  0  0
  -24.1700  -36.7850   23.0840 C   0  0  0  0  0  1  0  0  0  0  0  0
  -25.4190  -36.3780   23.8830 C   0  0  0  0  0  3  0  0  0  0  0  0
  -27.5550  -37.2710   24.7050 C   0  0  0  0  0  1  0  0  0  0  0  0
  -26.4460  -37.4370   23.7700 N   0  0  0  0  0  0  0  0  0  0  0  0
  -26.0360  -38.3540   23.9240 H   0  0  0  0  0  0  0  0  0  0  0  0
  -26.4240  -31.7730   25.1150 C   0  0  1  0  0  0  0  0  0  0  0  0
  -25.3260  -31.5430   26.1810 C   0  0  0  0  0  1  0  0  0  0  0  0
  -27.0130  -30.3920   24.7480 C   0  0  0  0  0  1  0  0  0  0  0  0
  -27.5690  -32.5760   25.7740 C   0  0  0  0  0  1  0  0  0  0  0  0
  -29.8150  -18.2350   20.7160 C   0  0  0  0  0  2  0  0  0  0  0  0
  -30.3630  -15.3340   20.2740 C   0  0  0  0  0  0  0  0  0  0  0  0
  -30.3500  -12.8920   19.3630 C   0  0  0  0  0  2  0  0  0  0  0  0
  -29.4230  -12.6590   18.1430 C   0  0  0  0  0  2  0  0  0  0  0  0
  -27.9790  -12.3750   18.5960 C   0  0  0  0  0  2  0  0  0  0  0  0
  -27.5260  -13.3380   19.7200 C   0  0  0  0  0  3  0  0  0  0  0  0
  -28.5810  -13.5030   20.8330 C   0  0  0  0  0  2  0  0  0  0  0  0
  -29.7930  -14.0300   20.1820 N   0  0  0  0  0  0  0  0  0  0  0  0
  -31.5920  -15.3250   20.1240 O   0  0  0  0  0  0  0  0  0  0  0  0
  -29.5950  -16.6110   20.3300 N   0  0  0  0  0  0  0  0  0  0  0  0
  -28.6110  -16.4000   20.2670 H   0  0  0  0  0  0  0  0  0  0  0  0
  -25.1570  -13.8810   20.4890 C   0  0  0  0  0  0  0  0  0  0  0  0
  -24.1010  -13.0980   20.8620 C   0  0  0  0  0  0  0  0  0  0  0  0
  -24.5780  -11.7510   20.8300 C   0  0  0  0  0  0  0  0  0  0  0  0
  -26.2040  -13.0130   20.2410 N   0  0  0  0  0  0  0  0  0  0  0  0
  -25.8690  -11.7250   20.5160 N   0  0  0  0  0  0  0  0  0  0  0  0
  -23.8580  -10.4840   21.0220 C   0  0  0  0  0  0  0  0  0  0  0  0
  -24.2990   -9.5160   21.9520 C   0  0  0  0  0  3  0  0  0  0  0  0
  -23.5760   -8.3170   22.1330 C   0  0  0  0  0  3  0  0  0  0  0  0
  -22.4000   -8.0760   21.3840 C   0  0  0  0  0  0  0  0  0  0  0  0
  -21.9790   -9.0330   20.4430 C   0  0  0  0  0  3  0  0  0  0  0  0
  -22.7020  -10.2230   20.2590 C   0  0  0  0  0  3  0  0  0  0  0  0
  -21.6490   -6.9290   21.4740 O   0  0  0  0  0  0  0  0  0  0  0  0
  -21.6130   -6.1820   22.6240 C   0  0  0  0  0  0  0  0  0  0  0  0
  -21.2020   -6.7310   23.8580 C   0  0  0  0  0  3  0  0  0  0  0  0
  -21.1120   -5.9100   24.9990 C   0  0  0  0  0  3  0  0  0  0  0  0
  -21.4240   -4.5410   24.9090 C   0  0  0  0  0  0  0  0  0  0  0  0
  -21.8290   -3.9910   23.6800 C   0  0  0  0  0  3  0  0  0  0  0  0
  -21.9200   -4.8080   22.5400 C   0  0  0  0  0  0  0  0  0  0  0  0
  -22.2900   -4.2680   21.3540 F   0  0  0  0  0  0  0  0  0  0  0  0
  -21.3320   -3.7500   26.0040 F   0  0  0  0  0  0  0  0  0  0  0  0
  -22.7010  -13.5660   21.1280 C   0  0  0  0  0  0  0  0  0  0  0  0
  -21.9750  -12.8680   21.9930 N   0  0  0  0  0  0  0  0  0  0  0  0
  -22.2590  -14.5880   20.6030 O   0  0  0  0  0  0  0  0  0  0  0  0
  -22.3460  -12.0420   22.4390 H   0  0  0  0  0  0  0  0  0  0  0  0
  -21.0350  -13.1640   22.2150 H   0  0  0  0  0  0  0  0  0  0  0  0
  -25.3060  -15.2530   20.3060 N   0  0  0  0  0  0  0  0  0  0  0  0
  -24.5280  -15.8950   20.4120 H   0  0  0  0  0  0  0  0  0  0  0  0
  -26.1350  -15.6940   19.9310 H   0  0  0  0  0  0  0  0  0  0  0  0
  2  6  1  0
  2  1  1  0
  3  7  1  0
  3  6  1  0
  4  1  1  0
  5 53  1  0
  5  4  1  0
  6 10  1  1
  6  4  1  0
  7  5  1  0
  7  9  1  0
  8  7  1  0
 10 11  2  0
 12 14  1  0
 12 10  1  0
 13 24  2  0
 14 19  1  0
 15 23  1  0
 15 25  1  0
 16 22  1  0
 16 18  1  0
 17 23  1  0
 18 19  2  0
 18 17  1  0
 20 14  2  0
 21 20  1  0
 21 16  2  0
 22 15  1  0
 23 13  1  0
 25 27  2  0
 26 25  1  0
 28 26  1  0
 29 38  2  0
 29 34  1  0
 30 26  1  0
 30 34  1  0
 31 30  1  0
 32 33  1  0
 32 31  1  0
 33 29  1  0
 34 35  2  0
 35 36  1  0
 37 36  2  0
 38 37  1  0
 39 13  1  0
 39 40  1  0
 39 49  1  0
 40 43  1  0
 41 45  1  0
 41 40  1  0
 42 41  2  0
 45 44  1  0
 47 45  1  0
 47 48  1  0
 47 46  1  0
 49 52  1  1
 49 50  1  0
 51 49  1  0
 54 62  1  0
 55 60  1  0
 56 57  1  0
 56 55  1  0
 58 57  1  0
 58 67  1  0
 58 59  1  0
 60 54  1  0
 60 59  1  0
 61 54  2  0
 62 53  1  0
 63 62  1  0
 64 65  2  0
 65 84  1  0
 66 65  1  0
 66 69  1  0
 67 64  1  0
 67 68  1  0
 68 66  2  0
 69 70  1  0
 70 71  2  0
 72 75  1  0
 72 71  1  0
 73 72  2  0
 74 73  1  0
 74 69  2  0
 75 76  1  0
 76 77  1  0
 77 78  2  0
 79 78  1  0
 79 83  1  0
 80 79  2  0
 81 76  2  0
 81 80  1  0
 82 81  1  0
 84 85  1  0
 85 88  1  0
 85 87  1  0
 86 84  2  0
 89 90  1  0
 89 64  1  0
 91 89  1  0
M  ISO  4  10 101  12 101  54 100  62 100
M  END
>  <TORSDO>  (23) 
F 18

>  <SCORE>  (23) 
-16.888

>  <name>  (23) 
22

>  <ligand_id>  (23) 
22

>  <original_smiles>  (23) 
[H]c1c([H])c([H])c2c(c1[H])C([H])([H])C([H])([H])C([H])([H])C2([H])N([H])C(=O)C1([H])N(C(=O)C([H])(N([H])C(=O)C([H])(N([H])C([H])([H])[H])C([H])([H])[H])C(C([H])([H])[H])(C([H])([H])[H])C([H])([H])[H])C([H])([H])c2c([H])c(OC(=O)C34C([H])([H])C([H])([H])C3([H])C([H])(C([H])([H])N([H])C(=O)N3C([H])([H])C([H])([H])C([H])([H])C([H])(n5nc(-c6c([H])c([H])c(Oc7c([H])c([H])c(F)c([H])c7F)c([H])c6[H])c(C(=O)N([H])[H])c5N([H])[H])C3([H])[H])[N+]([H])([H])C4([H])[H])c([H])c([H])c2C1([H])[H]

>  <smiles>  (23) 
[H]c1c([H])c([H])c2c(c1[H])C([H])([H])C([H])([H])C([H])([H])C2([H])N([H])C(=O)C1([H])N(C(=O)C([H])(N([H])C(=O)C([H])(N([H])C([H])([H])[H])C([H])([H])[H])C(C([H])([H])[H])(C([H])([H])[H])C([H])([H])[H])C([H])([H])c2c([H])c(OC(=O)C34C([H])([H])C([H])([H])C3([H])C([H])(C([H])([H])N([H])C(=O)N3C([H])([H])C([H])([H])C([H])([H])C([H])(n5nc(-c6c([H])c([H])c(Oc7c([H])c([H])c(F)c([H])c7F)c([H])c6[H])c(C(=O)N([H])[H])c5N([H])[H])C3([H])[H])[N+]([H])([H])C4([H])[H])c([H])c([H])c2C1([H])[H]

$$$$
23:0:0
     RDKit          3D

 96105  0  0  1  0  0  0  0  0999 V2000
  -30.0970  -20.2780   22.9070 C   0  0  0  0  0  2  0  0  0  0  0  0
  -30.4970  -20.3990   20.3950 C   0  0  0  0  0  2  0  0  0  0  0  0
  -30.5680  -17.9820   21.6320 C   0  0  0  0  0  3  0  0  0  0  0  0
  -30.9510  -19.0060   22.7140 C   0  0  0  0  0  3  0  0  0  0  0  0
  -31.2200  -19.0570   20.7180 C   0  0  0  0  0  3  0  0  0  0  0  0
  -29.5790  -20.8720   21.5650 C   0  0  0  0  0  3  0  0  0  0  0  0
  -32.1150  -19.2750   21.8580 N   0  0  0  0  0  4  0  0  0  0  0  0
  -32.8190  -18.5580   21.9250 H   0  0  0  0  0  0  0  0  0  0  0  0
  -32.5310  -20.1900   21.9300 H   0  0  0  0  0  0  0  0  0  0  0  0
  -29.3960  -22.3510   21.7040 N   0  0  0  0  0  4  0  0  0  0  0  0
  -30.1930  -22.7290   22.1900 H   0  0  0  0  0  0  0  0  0  0  0  0
  -28.6010  -22.4990   22.3100 H   0  0  0  0  0  0  0  0  0  0  0  0
  -29.2040  -23.2010   20.4990 C   0  0  0  0  0  2  0  0  0  0  0  0
  -30.0420  -25.2500   21.8260 C   0  0  0  0  0  1  0  0  0  0  0  0
  -28.9540  -24.6970   20.8750 C   0  0  0  0  0  3  0  0  0  0  0  0
  -28.8560  -25.6090   19.6240 C   0  0  0  0  0  2  0  0  0  0  0  0
  -28.6790  -26.9890   19.9890 O   0  0  0  0  0  0  0  0  0  0  0  0
  -24.5950  -31.8510   23.2050 C   0  0  0  0  0  0  0  0  0  0  0  0
  -27.4370  -27.5960   20.0160 C   0  0  0  0  0  0  0  0  0  0  0  0
  -23.4560  -30.4490   21.5130 C   0  0  0  0  0  3  0  0  0  0  0  0
  -24.9760  -29.0040   20.0650 C   0  0  0  0  0  0  0  0  0  0  0  0
  -25.9660  -30.9080   21.3470 C   0  0  0  0  0  2  0  0  0  0  0  0
  -26.1090  -29.5570   20.6740 C   0  0  0  0  0  0  0  0  0  0  0  0
  -27.3370  -28.8580   20.6470 C   0  0  0  0  0  3  0  0  0  0  0  0
  -26.2780  -27.0530   19.4130 C   0  0  0  0  0  3  0  0  0  0  0  0
  -25.0560  -27.7500   19.4370 C   0  0  0  0  0  3  0  0  0  0  0  0
  -23.7030  -29.8150   20.1170 C   0  0  0  0  0  2  0  0  0  0  0  0
  -24.6890  -31.0840   22.0800 N   0  0  0  0  0  0  0  0  0  0  0  0
  -23.4990  -32.0630   23.7440 O   0  0  0  0  0  0  0  0  0  0  0  0
  -22.8390  -29.3770   22.4390 C   0  0  0  0  0  0  0  0  0  0  0  0
  -21.5240  -29.1470   22.2930 N   0  0  0  0  0  0  0  0  0  0  0  0
  -23.5390  -28.7550   23.2410 O   0  0  0  0  0  0  0  0  0  0  0  0
  -21.0210  -29.7050   21.6170 H   0  0  0  0  0  0  0  0  0  0  0  0
  -18.1880  -27.8350   22.7400 C   0  0  0  0  0  0  0  0  0  0  0  0
  -20.7350  -28.1580   23.0260 C   0  0  0  0  0  3  0  0  0  0  0  0
  -20.8830  -26.7520   22.3970 C   0  0  0  0  0  2  0  0  0  0  0  0
  -19.7920  -26.4350   21.3700 C   0  0  0  0  0  2  0  0  0  0  0  0
  -18.4060  -26.5160   22.0160 C   0  0  0  0  0  2  0  0  0  0  0  0
  -19.2830  -28.6130   23.2000 C   0  0  0  0  0  0  0  0  0  0  0  0
  -19.0300  -29.8480   23.8350 C   0  0  0  0  0  3  0  0  0  0  0  0
  -17.7120  -30.3040   24.0180 C   0  0  0  0  0  3  0  0  0  0  0  0
  -16.6300  -29.5210   23.5780 C   0  0  0  0  0  3  0  0  0  0  0  0
  -16.8680  -28.2900   22.9410 C   0  0  0  0  0  3  0  0  0  0  0  0
  -25.8520  -32.5100   23.8510 C   0  0  0  0  0  3  0  0  0  0  0  0
  -25.5090  -33.9040   24.1590 N   0  0  0  0  0  0  0  0  0  0  0  0
  -25.8560  -34.9570   23.4060 C   0  0  0  0  0  0  0  0  0  0  0  0
  -26.5680  -34.8550   22.4030 O   0  0  0  0  0  0  0  0  0  0  0  0
  -24.8810  -34.0560   24.9340 H   0  0  0  0  0  0  0  0  0  0  0  0
  -24.1270  -36.7250   22.9560 C   0  0  0  0  0  1  0  0  0  0  0  0
  -25.3280  -36.3390   23.8310 C   0  0  0  0  0  3  0  0  0  0  0  0
  -27.3980  -37.2620   24.7780 C   0  0  0  0  0  1  0  0  0  0  0  0
  -26.3520  -37.4040   23.7680 N   0  0  0  0  0  0  0  0  0  0  0  0
  -25.9250  -38.3200   23.8820 H   0  0  0  0  0  0  0  0  0  0  0  0
  -26.3520  -31.7580   25.1450 C   0  0  1  0  0  0  0  0  0  0  0  0
  -25.2300  -31.4660   26.1690 C   0  0  0  0  0  1  0  0  0  0  0  0
  -27.0150  -30.4110   24.7690 C   0  0  0  0  0  1  0  0  0  0  0  0
  -27.4370  -32.6020   25.8570 C   0  0  0  0  0  1  0  0  0  0  0  0
  -31.1710  -16.5590   21.7900 C   0  0  0  0  0  2  0  0  0  0  0  0
  -30.9280  -14.6270   20.2290 C   0  0  0  0  0  0  0  0  0  0  0  0
  -30.5330  -12.5510   18.9510 C   0  0  0  0  0  2  0  0  0  0  0  0
  -29.5240  -12.7900   17.8120 C   0  0  0  0  0  2  0  0  0  0  0  0
  -28.0780  -12.6290   18.3210 C   0  0  0  0  0  2  0  0  0  0  0  0
  -27.8100  -13.4250   19.6260 C   0  0  0  0  0  3  0  0  0  0  0  0
  -28.9200  -13.1580   20.6650 C   0  0  0  0  0  2  0  0  0  0  0  0
  -30.2150  -13.4850   20.0410 N   0  0  0  0  0  0  0  0  0  0  0  0
  -31.9690  -14.8810   19.6180 O   0  0  0  0  0  0  0  0  0  0  0  0
  -30.4260  -15.4790   21.1380 N   0  0  0  0  0  0  0  0  0  0  0  0
  -29.5510  -15.2080   21.5590 H   0  0  0  0  0  0  0  0  0  0  0  0
  -25.4540  -14.0090   20.4840 C   0  0  0  0  0  0  0  0  0  0  0  0
  -24.4050  -13.2240   20.8810 C   0  0  0  0  0  0  0  0  0  0  0  0
  -24.8600  -11.8750   20.7740 C   0  0  0  0  0  0  0  0  0  0  0  0
  -26.4830  -13.1360   20.1660 N   0  0  0  0  0  0  0  0  0  0  0  0
  -26.1310  -11.8460   20.3940 N   0  0  0  0  0  0  0  0  0  0  0  0
  -24.1430  -10.6060   20.9530 C   0  0  0  0  0  0  0  0  0  0  0  0
  -24.5610   -9.6480   21.9040 C   0  0  0  0  0  3  0  0  0  0  0  0
  -23.8430   -8.4430   22.0690 C   0  0  0  0  0  3  0  0  0  0  0  0
  -22.6940   -8.1880   21.2850 C   0  0  0  0  0  0  0  0  0  0  0  0
  -22.2960   -9.1350   20.3230 C   0  0  0  0  0  3  0  0  0  0  0  0
  -23.0150  -10.3300   20.1540 C   0  0  0  0  0  3  0  0  0  0  0  0
  -21.9500   -7.0360   21.3590 O   0  0  0  0  0  0  0  0  0  0  0  0
  -21.7900   -6.3580   22.5410 C   0  0  0  0  0  0  0  0  0  0  0  0
  -21.1720   -6.9520   23.6640 C   0  0  0  0  0  3  0  0  0  0  0  0
  -20.9660   -6.1960   24.8360 C   0  0  0  0  0  3  0  0  0  0  0  0
  -21.3660   -4.8480   24.8850 C   0  0  0  0  0  0  0  0  0  0  0  0
  -21.9760   -4.2540   23.7660 C   0  0  0  0  0  3  0  0  0  0  0  0
  -22.1850   -5.0070   22.5970 C   0  0  0  0  0  0  0  0  0  0  0  0
  -22.7540   -4.4230   21.5140 F   0  0  0  0  0  0  0  0  0  0  0  0
  -21.1610   -4.1190   26.0080 F   0  0  0  0  0  0  0  0  0  0  0  0
  -23.0250  -13.6910   21.2480 C   0  0  0  0  0  0  0  0  0  0  0  0
  -22.3430  -12.9600   22.1230 N   0  0  0  0  0  0  0  0  0  0  0  0
  -22.5630  -14.7370   20.7950 O   0  0  0  0  0  0  0  0  0  0  0  0
  -22.7290  -12.1110   22.5090 H   0  0  0  0  0  0  0  0  0  0  0  0
  -21.4200  -13.2540   22.4100 H   0  0  0  0  0  0  0  0  0  0  0  0
  -25.6160  -15.3860   20.3490 N   0  0  0  0  0  0  0  0  0  0  0  0
  -24.8610  -16.0410   20.5170 H   0  0  0  0  0  0  0  0  0  0  0  0
  -26.4520  -15.8280   19.9900 H   0  0  0  0  0  0  0  0  0  0  0  0
  2  6  1  0
  3 58  1  0
  3  4  1  0
  4  1  1  0
  5  2  1  0
  5  3  1  0
  5  7  1  0
  6 10  1  0
  6  1  1  0
  7  8  1  0
  7  9  1  0
  7  4  1  0
 10 11  1  0
 10 12  1  0
 13 15  1  0
 13 10  1  0
 15 14  1  0
 16 17  1  0
 16 15  1  0
 17 19  1  0
 18 29  2  0
 19 24  1  0
 20 28  1  0
 20 30  1  0
 21 27  1  0
 21 23  1  0
 22 28  1  0
 23 22  1  0
 24 23  2  0
 25 26  1  0
 25 19  2  0
 26 21  2  0
 27 20  1  0
 28 18  1  0
 30 32  2  0
 31 30  1  0
 33 31  1  0
 34 43  2  0
 34 39  1  0
 35 31  1  0
 35 39  1  0
 36 35  1  0
 37 38  1  0
 37 36  1  0
 38 34  1  0
 39 40  2  0
 40 41  1  0
 42 41  2  0
 43 42  1  0
 44 18  1  0
 44 45  1  0
 44 54  1  0
 45 48  1  0
 46 50  1  0
 46 45  1  0
 47 46  2  0
 50 49  1  0
 52 50  1  0
 52 53  1  0
 52 51  1  0
 54 57  1  1
 54 55  1  0
 56 54  1  0
 59 67  1  0
 60 65  1  0
 61 62  1  0
 61 60  1  0
 63 62  1  0
 63 72  1  0
 63 64  1  0
 65 59  1  0
 65 64  1  0
 66 59  2  0
 67 68  1  0
 67 58  1  0
 69 70  2  0
 70 89  1  0
 71 70  1  0
 71 74  1  0
 72 73  1  0
 72 69  1  0
 73 71  2  0
 74 75  1  0
 75 76  2  0
 77 80  1  0
 77 76  1  0
 78 77  2  0
 79 78  1  0
 79 74  2  0
 80 81  1  0
 81 86  2  0
 81 82  1  0
 82 83  2  0
 83 84  1  0
 84 88  1  0
 85 84  2  0
 86 85  1  0
 87 86  1  0
 89 90  1  0
 90 93  1  0
 90 92  1  0
 91 89  2  0
 94 69  1  0
 94 95  1  0
 96 94  1  0
M  ISO  4  16 101  17 101  59 100  67 100
M  END
>  <TORSDO>  (24) 
F 21

>  <SCORE>  (24) 
-12.634

>  <name>  (24) 
23

>  <ligand_id>  (24) 
23

>  <original_smiles>  (24) 
[H]c1c([H])c([H])c2c(c1[H])C([H])([H])C([H])([H])C([H])([H])C2([H])N([H])C(=O)C1([H])N(C(=O)C([H])(N([H])C(=O)C([H])(N([H])C([H])([H])[H])C([H])([H])[H])C(C([H])([H])[H])(C([H])([H])[H])C([H])([H])[H])C([H])([H])c2c([H])c(OC([H])([H])C([H])(C([H])([H])[H])C([H])([H])[N+]([H])([H])C3([H])C([H])([H])C4([H])C([H])(C([H])([H])N([H])C(=O)N5C([H])([H])C([H])([H])C([H])([H])C([H])(n6nc(-c7c([H])c([H])c(Oc8c([H])c([H])c(F)c([H])c8F)c([H])c7[H])c(C(=O)N([H])[H])c6N([H])[H])C5([H])[H])C([H])(C3([H])[H])[N+]4([H])[H])c([H])c([H])c2C1([H])[H]

>  <smiles>  (24) 
[H]c1c([H])c([H])c2c(c1[H])C([H])([H])C([H])([H])C([H])([H])C2([H])N([H])C(=O)C1([H])N(C(=O)C([H])(N([H])C(=O)C([H])(N([H])C([H])([H])[H])C([H])([H])[H])C(C([H])([H])[H])(C([H])([H])[H])C([H])([H])[H])C([H])([H])c2c([H])c(OC([H])([H])C([H])(C([H])([H])[H])C([H])([H])[N+]([H])([H])C3([H])C([H])([H])C4([H])C([H])(C([H])([H])N([H])C(=O)N5C([H])([H])C([H])([H])C([H])([H])C([H])(n6nc(-c7c([H])c([H])c(Oc8c([H])c([H])c(F)c([H])c8F)c([H])c7[H])c(C(=O)N([H])[H])c6N([H])[H])C5([H])[H])C([H])(C3([H])[H])[N+]4([H])[H])c([H])c([H])c2C1([H])[H]

$$$$
24:0:0
     RDKit          3D

 88 95  0  0  1  0  0  0  0  0999 V2000
  -28.9160  -22.3600   20.2610 C   0  0  0  0  0  0  0  0  0  0  0  0
  -30.1110  -22.6670   20.3310 O   0  0  0  0  0  0  0  0  0  0  0  0
  -27.8590  -23.8900   20.2070 C   0  0  0  0  0  2  0  0  0  0  0  0
  -28.1340  -25.6180   20.3240 O   0  0  0  0  0  0  0  0  0  0  0  0
  -24.6770  -31.9160   23.2530 C   0  0  0  0  0  0  0  0  0  0  0  0
  -27.1710  -26.8310   20.2730 C   0  0  0  0  0  0  0  0  0  0  0  0
  -23.4790  -30.5240   21.6190 C   0  0  0  0  0  3  0  0  0  0  0  0
  -24.9140  -28.8640   20.2130 C   0  0  0  0  0  0  0  0  0  0  0  0
  -26.0570  -30.6520   21.4970 C   0  0  0  0  0  2  0  0  0  0  0  0
  -26.1110  -29.2180   20.8460 C   0  0  0  0  0  0  0  0  0  0  0  0
  -27.2260  -28.2290   20.8440 C   0  0  0  0  0  3  0  0  0  0  0  0
  -25.9400  -26.6810   19.5880 C   0  0  0  0  0  3  0  0  0  0  0  0
  -24.8650  -27.6210   19.5610 C   0  0  0  0  0  3  0  0  0  0  0  0
  -23.7130  -29.8220   20.2510 C   0  0  0  0  0  2  0  0  0  0  0  0
  -24.7630  -31.0630   22.1760 N   0  0  0  0  0  0  0  0  0  0  0  0
  -23.5860  -32.2240   23.7630 O   0  0  0  0  0  0  0  0  0  0  0  0
  -22.7560  -29.5530   22.5920 C   0  0  0  0  0  0  0  0  0  0  0  0
  -21.4230  -29.4030   22.4620 N   0  0  0  0  0  0  0  0  0  0  0  0
  -23.4050  -28.9310   23.4370 O   0  0  0  0  0  0  0  0  0  0  0  0
  -20.9490  -29.9540   21.7590 H   0  0  0  0  0  0  0  0  0  0  0  0
  -18.0280  -28.2060   22.9600 C   0  0  0  0  0  0  0  0  0  0  0  0
  -20.5880  -28.4750   23.2360 C   0  0  0  0  0  3  0  0  0  0  0  0
  -20.6900  -27.0370   22.6740 C   0  0  0  0  0  2  0  0  0  0  0  0
  -19.5940  -26.7080   21.6560 C   0  0  0  0  0  2  0  0  0  0  0  0
  -18.2090  -26.8550   22.2900 C   0  0  0  0  0  2  0  0  0  0  0  0
  -19.1440  -28.9750   23.3900 C   0  0  0  0  0  0  0  0  0  0  0  0
  -18.9180  -30.2360   23.9810 C   0  0  0  0  0  3  0  0  0  0  0  0
  -17.6100  -30.7310   24.1460 C   0  0  0  0  0  3  0  0  0  0  0  0
  -16.5100  -29.9620   23.7300 C   0  0  0  0  0  3  0  0  0  0  0  0
  -16.7190  -28.7020   23.1430 C   0  0  0  0  0  3  0  0  0  0  0  0
  -25.9440  -32.5570   23.8940 C   0  0  0  0  0  3  0  0  0  0  0  0
  -26.4330  -31.7960   25.1900 C   0  0  1  0  0  0  0  0  0  0  0  0
  -25.3230  -31.5850   26.2470 C   0  0  0  0  0  1  0  0  0  0  0  0
  -27.0070  -30.4070   24.8360 C   0  0  0  0  0  1  0  0  0  0  0  0
  -27.5850  -32.5870   25.8570 C   0  0  0  0  0  1  0  0  0  0  0  0
  -25.6320  -33.9610   24.2270 N   0  0  0  0  0  0  0  0  0  0  0  0
  -25.9460  -35.0220   23.4710 C   0  0  0  0  0  0  0  0  0  0  0  0
  -26.5860  -34.9220   22.4210 O   0  0  0  0  0  0  0  0  0  0  0  0
  -25.0600  -34.1110   25.0450 H   0  0  0  0  0  0  0  0  0  0  0  0
  -24.2040  -36.8220   23.2000 C   0  0  0  0  0  1  0  0  0  0  0  0
  -25.4820  -36.4140   23.9510 C   0  0  0  0  0  3  0  0  0  0  0  0
  -27.6460  -37.3140   24.6880 C   0  0  0  0  0  1  0  0  0  0  0  0
  -26.5060  -37.4700   23.7880 N   0  0  0  0  0  0  0  0  0  0  0  0
  -26.1040  -38.3900   23.9420 H   0  0  0  0  0  0  0  0  0  0  0  0
  -28.6340  -20.4280   20.2070 C   0  0  0  0  0  3  0  0  0  0  0  0
  -27.7080  -20.2670   19.0740 N   0  0  0  0  0  4  0  0  0  0  0  0
  -26.9430  -20.9100   19.1520 H   0  0  0  0  0  0  0  0  0  0  0  0
  -27.3360  -19.3370   19.0560 H   0  0  0  0  0  0  0  0  0  0  0  0
  -28.1880  -20.4410   18.2100 H   0  0  0  0  0  0  0  0  0  0  0  0
  -29.7080  -18.8190   20.2210 C   0  0  0  0  0  2  0  0  0  0  0  0
  -30.2540  -15.6980   20.0620 C   0  0  0  0  0  0  0  0  0  0  0  0
  -30.3150  -13.1860   19.1740 C   0  0  0  0  0  2  0  0  0  0  0  0
  -29.3780  -12.8240   17.9890 C   0  0  0  0  0  2  0  0  0  0  0  0
  -27.9720  -12.4590   18.4920 C   0  0  0  0  0  2  0  0  0  0  0  0
  -27.5040  -13.4270   19.6030 C   0  0  0  0  0  3  0  0  0  0  0  0
  -28.5780  -13.7070   20.6780 C   0  0  0  0  0  2  0  0  0  0  0  0
  -29.7240  -14.3400   19.9850 N   0  0  0  0  0  0  0  0  0  0  0  0
  -31.4800  -15.6480   19.8480 O   0  0  0  0  0  0  0  0  0  0  0  0
  -29.5000  -17.0520   20.1820 N   0  0  0  0  0  0  0  0  0  0  0  0
  -28.5210  -16.8340   20.2990 H   0  0  0  0  0  0  0  0  0  0  0  0
  -25.1670  -13.9170   20.4680 C   0  0  0  0  0  0  0  0  0  0  0  0
  -24.1320  -13.1170   20.8600 C   0  0  0  0  0  0  0  0  0  0  0  0
  -24.6180  -11.7750   20.7870 C   0  0  0  0  0  0  0  0  0  0  0  0
  -26.2120  -13.0640   20.1670 N   0  0  0  0  0  0  0  0  0  0  0  0
  -25.9000  -11.7660   20.4280 N   0  0  0  0  0  0  0  0  0  0  0  0
  -23.9140  -10.5000   20.9800 C   0  0  0  0  0  0  0  0  0  0  0  0
  -24.3670   -9.5360   21.9080 C   0  0  0  0  0  3  0  0  0  0  0  0
  -23.6580   -8.3290   22.0920 C   0  0  0  0  0  3  0  0  0  0  0  0
  -22.4820   -8.0770   21.3470 C   0  0  0  0  0  0  0  0  0  0  0  0
  -22.0470   -9.0290   20.4070 C   0  0  0  0  0  3  0  0  0  0  0  0
  -22.7570  -10.2270   20.2230 C   0  0  0  0  0  3  0  0  0  0  0  0
  -21.7430   -6.9220   21.4410 O   0  0  0  0  0  0  0  0  0  0  0  0
  -21.6850   -6.1960   22.6030 C   0  0  0  0  0  0  0  0  0  0  0  0
  -21.1870   -6.7490   23.8030 C   0  0  0  0  0  3  0  0  0  0  0  0
  -21.0800   -5.9470   24.9570 C   0  0  0  0  0  3  0  0  0  0  0  0
  -21.4600   -4.5920   24.9120 C   0  0  0  0  0  0  0  0  0  0  0  0
  -21.9520   -4.0390   23.7170 C   0  0  0  0  0  3  0  0  0  0  0  0
  -22.0610   -4.8380   22.5640 C   0  0  0  0  0  0  0  0  0  0  0  0
  -22.5150   -4.2930   21.4100 F   0  0  0  0  0  0  0  0  0  0  0  0
  -21.3500   -3.8200   26.0180 F   0  0  0  0  0  0  0  0  0  0  0  0
  -22.7390  -13.5710   21.1820 C   0  0  0  0  0  0  0  0  0  0  0  0
  -22.0500  -12.8580   22.0650 N   0  0  0  0  0  0  0  0  0  0  0  0
  -22.2720  -14.5950   20.6840 O   0  0  0  0  0  0  0  0  0  0  0  0
  -22.4420  -12.0290   22.4870 H   0  0  0  0  0  0  0  0  0  0  0  0
  -21.1170  -13.1450   22.3230 H   0  0  0  0  0  0  0  0  0  0  0  0
  -25.3010  -15.2930   20.3080 N   0  0  0  0  0  0  0  0  0  0  0  0
  -24.5230  -15.9280   20.4540 H   0  0  0  0  0  0  0  0  0  0  0  0
  -26.1180  -15.7460   19.9230 H   0  0  0  0  0  0  0  0  0  0  0  0
  1  2  2  0
  3  1  1  0
  3  4  1  0
  5 16  2  0
  6  4  1  0
  6 11  1  0
  7 15  1  0
  7 17  1  0
  8 14  1  0
  8 10  1  0
  9 15  1  0
 10  9  1  0
 11 10  2  0
 12  6  2  0
 13 12  1  0
 13  8  2  0
 14  7  1  0
 15  5  1  0
 17 19  2  0
 18 17  1  0
 20 18  1  0
 21 30  2  0
 21 26  1  0
 22 18  1  0
 22 26  1  0
 23 22  1  0
 24 25  1  0
 24 23  1  0
 25 21  1  0
 26 27  2  0
 27 28  1  0
 29 28  2  0
 30 29  1  0
 31  5  1  0
 31 36  1  0
 31 32  1  0
 32 35  1  1
 32 33  1  0
 34 32  1  0
 36 39  1  0
 37 41  1  0
 37 36  1  0
 38 37  2  0
 41 40  1  0
 43 44  1  0
 43 41  1  0
 43 42  1  0
 45 50  1  0
 45  1  1  0
 46 47  1  0
 46 45  1  0
 48 46  1  0
 49 46  1  0
 51 59  1  0
 52 57  1  0
 53 54  1  0
 53 52  1  0
 55 54  1  0
 55 64  1  0
 55 56  1  0
 57 51  1  0
 57 56  1  0
 58 51  2  0
 59 50  1  0
 59 60  1  0
 61 62  2  0
 62 81  1  0
 63 62  1  0
 63 66  1  0
 64 65  1  0
 64 61  1  0
 65 63  2  0
 66 67  1  0
 67 68  2  0
 69 72  1  0
 69 68  1  0
 70 69  2  0
 71 70  1  0
 71 66  2  0
 72 73  1  0
 73 74  1  0
 74 75  2  0
 76 75  1  0
 76 80  1  0
 77 76  2  0
 78 73  2  0
 78 77  1  0
 79 78  1  0
 81 82  1  0
 82 85  1  0
 82 84  1  0
 83 81  2  0
 86 87  1  0
 86 61  1  0
 88 86  1  0
M  ISO  4   3 101   4 101  51 100  59 100
M  END
>  <TORSDO>  (25) 
F 20

>  <SCORE>  (25) 
-16.478

>  <name>  (25) 
24

>  <ligand_id>  (25) 
24

>  <original_smiles>  (25) 
[H]c1c([H])c([H])c2c(c1[H])C([H])([H])C([H])([H])C([H])([H])C2([H])N([H])C(=O)C1([H])N(C(=O)C([H])(N([H])C(=O)C([H])(N([H])C([H])([H])[H])C([H])([H])[H])C(C([H])([H])[H])(C([H])([H])[H])C([H])([H])[H])C([H])([H])c2c([H])c(OC([H])([H])C(=O)C([H])(C([H])([H])N([H])C(=O)N3C([H])([H])C([H])([H])C([H])([H])C([H])(n4nc(-c5c([H])c([H])c(Oc6c([H])c([H])c(F)c([H])c6F)c([H])c5[H])c(C(=O)N([H])[H])c4N([H])[H])C3([H])[H])[N+]([H])([H])[H])c([H])c([H])c2C1([H])[H]

>  <smiles>  (25) 
[H]c1c([H])c([H])c2c(c1[H])C([H])([H])C([H])([H])C([H])([H])C2([H])N([H])C(=O)C1([H])N(C(=O)C([H])(N([H])C(=O)C([H])(N([H])C([H])([H])[H])C([H])([H])[H])C(C([H])([H])[H])(C([H])([H])[H])C([H])([H])[H])C([H])([H])c2c([H])c(OC([H])([H])C(=O)C([H])(C([H])([H])N([H])C(=O)N3C([H])([H])C([H])([H])C([H])([H])C([H])(n4nc(-c5c([H])c([H])c(Oc6c([H])c([H])c(F)c([H])c6F)c([H])c5[H])c(C(=O)N([H])[H])c4N([H])[H])C3([H])[H])[N+]([H])([H])[H])c([H])c([H])c2C1([H])[H]

$$$$
25:0:0
     RDKit          3D

 92101  0  0  1  0  0  0  0  0999 V2000
  -30.4690  -15.3170   20.2920 C   0  0  0  0  0  0  0  0  0  0  0  0
  -30.4500  -12.8530   19.4800 C   0  0  0  0  0  2  0  0  0  0  0  0
  -29.5610  -12.5730   18.2450 C   0  0  0  0  0  2  0  0  0  0  0  0
  -28.1110  -12.2940   18.6700 C   0  0  0  0  0  2  0  0  0  0  0  0
  -27.6160  -13.2900   19.7460 C   0  0  0  0  0  3  0  0  0  0  0  0
  -28.6410  -13.5310   20.8760 C   0  0  0  0  0  2  0  0  0  0  0  0
  -29.8650  -14.0290   20.2240 N   0  0  0  0  0  0  0  0  0  0  0  0
  -31.7040  -15.2490   20.2460 O   0  0  0  0  0  0  0  0  0  0  0  0
  -27.1420  -19.0830   19.9130 C   0  0  0  0  0  2  0  0  0  0  0  0
  -27.2440  -20.6290   19.9360 C   0  0  0  0  0  2  0  0  0  0  0  0
  -28.7260  -17.0040   19.2330 C   0  0  0  0  0  2  0  0  0  0  0  0
  -30.0910  -18.1420   20.7030 C   0  0  0  0  0  3  0  0  0  0  0  0
  -28.3960  -18.5820   19.1820 C   0  0  0  0  0  3  0  0  0  0  0  0
  -29.4750  -19.4800   19.8110 C   0  0  0  0  0  3  0  0  0  0  0  0
  -28.6980  -21.0310   20.2640 C   0  0  0  0  0  3  0  0  0  0  0  0
  -29.7890  -16.6450   20.2060 N   0  0  0  0  0  0  0  0  0  0  0  0
  -25.2260  -13.8360   20.4470 C   0  0  0  0  0  0  0  0  0  0  0  0
  -24.1630  -13.0530   20.8030 C   0  0  0  0  0  0  0  0  0  0  0  0
  -24.6470  -11.7080   20.8100 C   0  0  0  0  0  0  0  0  0  0  0  0
  -26.2850  -12.9690   20.2430 N   0  0  0  0  0  0  0  0  0  0  0  0
  -25.9460  -11.6840   20.5280 N   0  0  0  0  0  0  0  0  0  0  0  0
  -23.9300  -10.4420   21.0030 C   0  0  0  0  0  0  0  0  0  0  0  0
  -24.3420   -9.4990   21.9700 C   0  0  0  0  0  3  0  0  0  0  0  0
  -23.6220   -8.2990   22.1530 C   0  0  0  0  0  3  0  0  0  0  0  0
  -22.4760   -8.0310   21.3670 C   0  0  0  0  0  0  0  0  0  0  0  0
  -22.0810   -8.9620   20.3910 C   0  0  0  0  0  3  0  0  0  0  0  0
  -22.8030  -10.1540   20.2080 C   0  0  0  0  0  3  0  0  0  0  0  0
  -21.7310   -6.8800   21.4580 O   0  0  0  0  0  0  0  0  0  0  0  0
  -21.6400   -6.1700   22.6280 C   0  0  0  0  0  0  0  0  0  0  0  0
  -21.1570   -6.7570   23.8180 C   0  0  0  0  0  3  0  0  0  0  0  0
  -21.0150   -5.9740   24.9820 C   0  0  0  0  0  3  0  0  0  0  0  0
  -21.3440   -4.6050   24.9540 C   0  0  0  0  0  0  0  0  0  0  0  0
  -21.8180   -4.0190   23.7670 C   0  0  0  0  0  3  0  0  0  0  0  0
  -21.9630   -4.7990   22.6070 C   0  0  0  0  0  0  0  0  0  0  0  0
  -22.3990   -4.2250   21.4610 F   0  0  0  0  0  0  0  0  0  0  0  0
  -21.2010   -3.8500   26.0680 F   0  0  0  0  0  0  0  0  0  0  0  0
  -22.7560  -13.5190   21.0250 C   0  0  0  0  0  0  0  0  0  0  0  0
  -22.0150  -12.8400   21.8940 N   0  0  0  0  0  0  0  0  0  0  0  0
  -22.3170  -14.5220   20.4630 O   0  0  0  0  0  0  0  0  0  0  0  0
  -22.3810  -12.0260   22.3670 H   0  0  0  0  0  0  0  0  0  0  0  0
  -21.0690  -13.1370   22.0860 H   0  0  0  0  0  0  0  0  0  0  0  0
  -25.3740  -15.2050   20.2470 N   0  0  0  0  0  0  0  0  0  0  0  0
  -24.6020  -15.8550   20.3360 H   0  0  0  0  0  0  0  0  0  0  0  0
  -26.2340  -15.6480   19.9540 H   0  0  0  0  0  0  0  0  0  0  0  0
  -31.5460  -18.3110   21.1620 C   0  0  0  0  0  0  0  0  0  0  0  0
  -32.3920  -18.9600   20.3680 N   0  0  0  0  0  0  0  0  0  0  0  0
  -31.9080  -17.8630   22.2480 O   0  0  0  0  0  0  0  0  0  0  0  0
  -32.0860  -19.3230   19.4770 H   0  0  0  0  0  0  0  0  0  0  0  0
  -33.3520  -19.0990   20.6510 H   0  0  0  0  0  0  0  0  0  0  0  0
  -28.9060  -22.7620   19.7990 C   0  0  0  0  0  3  0  0  0  0  0  0
  -27.9380  -24.2600   20.0700 C   0  0  0  0  0  3  0  0  0  0  0  0
  -28.1610  -25.8850   19.8870 O   0  0  0  0  0  0  0  0  0  0  0  0
  -24.6920  -31.8240   23.0560 C   0  0  0  0  0  0  0  0  0  0  0  0
  -27.1330  -26.9670   19.9170 C   0  0  0  0  0  0  0  0  0  0  0  0
  -23.4360  -30.4450   21.4500 C   0  0  0  0  0  3  0  0  0  0  0  0
  -24.8320  -28.8440   19.9710 C   0  0  0  0  0  0  0  0  0  0  0  0
  -25.9980  -30.6500   21.2180 C   0  0  0  0  0  2  0  0  0  0  0  0
  -26.0430  -29.2450   20.5500 C   0  0  0  0  0  0  0  0  0  0  0  0
  -27.1880  -28.3300   20.4940 C   0  0  0  0  0  3  0  0  0  0  0  0
  -25.8860  -26.7140   19.3010 C   0  0  0  0  0  3  0  0  0  0  0  0
  -24.7770  -27.5970   19.3280 C   0  0  0  0  0  3  0  0  0  0  0  0
  -23.6160  -29.7660   20.0640 C   0  0  0  0  0  2  0  0  0  0  0  0
  -24.7330  -30.9980   21.9600 N   0  0  0  0  0  0  0  0  0  0  0  0
  -23.6210  -32.1130   23.6150 O   0  0  0  0  0  0  0  0  0  0  0  0
  -22.7700  -29.4450   22.4300 C   0  0  0  0  0  0  0  0  0  0  0  0
  -21.4380  -29.2780   22.3380 N   0  0  0  0  0  0  0  0  0  0  0  0
  -23.4580  -28.8190   23.2400 O   0  0  0  0  0  0  0  0  0  0  0  0
  -20.9370  -29.8310   21.6550 H   0  0  0  0  0  0  0  0  0  0  0  0
  -18.0710  -28.0630   22.9310 C   0  0  0  0  0  0  0  0  0  0  0  0
  -20.6370  -28.3370   23.1260 C   0  0  0  0  0  3  0  0  0  0  0  0
  -20.7280  -26.9060   22.5460 C   0  0  0  0  0  2  0  0  0  0  0  0
  -19.6010  -26.5830   21.5600 C   0  0  0  0  0  2  0  0  0  0  0  0
  -18.2350  -26.7180   22.2410 C   0  0  0  0  0  2  0  0  0  0  0  0
  -19.1980  -28.8300   23.3320 C   0  0  0  0  0  0  0  0  0  0  0  0
  -18.9890  -30.0860   23.9420 C   0  0  0  0  0  3  0  0  0  0  0  0
  -17.6860  -30.5760   24.1510 C   0  0  0  0  0  3  0  0  0  0  0  0
  -16.5750  -29.8080   23.7630 C   0  0  0  0  0  3  0  0  0  0  0  0
  -16.7680  -28.5520   23.1600 C   0  0  0  0  0  3  0  0  0  0  0  0
  -25.9850  -32.4550   23.6540 C   0  0  0  0  0  3  0  0  0  0  0  0
  -25.6660  -33.8330   24.0680 N   0  0  0  0  0  0  0  0  0  0  0  0
  -25.9390  -34.9330   23.3530 C   0  0  0  0  0  0  0  0  0  0  0  0
  -26.5460  -34.8920   22.2790 O   0  0  0  0  0  0  0  0  0  0  0  0
  -25.1170  -33.9370   24.9090 H   0  0  0  0  0  0  0  0  0  0  0  0
  -24.1650  -36.7140   23.2080 C   0  0  0  0  0  1  0  0  0  0  0  0
  -25.4640  -36.2900   23.9110 C   0  0  0  0  0  3  0  0  0  0  0  0
  -27.6370  -37.1730   24.6430 C   0  0  0  0  0  1  0  0  0  0  0  0
  -26.4730  -37.3670   23.7820 N   0  0  0  0  0  0  0  0  0  0  0  0
  -26.0640  -38.2720   24.0000 H   0  0  0  0  0  0  0  0  0  0  0  0
  -26.5630  -31.6420   24.8770 C   0  0  1  0  0  0  0  0  0  0  0  0
  -25.5200  -31.3540   25.9830 C   0  0  0  0  0  1  0  0  0  0  0  0
  -27.1390  -30.2850   24.4140 C   0  0  0  0  0  1  0  0  0  0  0  0
  -27.7380  -32.4200   25.5140 C   0  0  0  0  0  1  0  0  0  0  0  0
  2  7  1  0
  3  4  1  0
  3  2  1  0
  5  4  1  0
  5 20  1  0
  5  6  1  0
  7  1  1  0
  7  6  1  0
  8  1  2  0
  9 10  1  0
 10 15  1  0
 11 16  1  0
 12 45  1  0
 13 11  1  0
 13 14  1  0
 13  9  1  0
 14 15  1  0
 14 12  1  0
 16  1  1  0
 16 12  1  0
 17 18  2  0
 18 19  1  0
 18 37  1  0
 19 22  1  0
 20 17  1  0
 20 21  1  0
 21 19  2  0
 22 23  1  0
 23 24  2  0
 25 28  1  0
 25 24  1  0
 26 25  2  0
 27 26  1  0
 27 22  2  0
 28 29  1  0
 29 30  1  0
 30 31  2  0
 32 31  1  0
 32 36  1  0
 33 32  2  0
 34 29  2  0
 34 33  1  0
 35 34  1  0
 37 38  1  0
 38 41  1  0
 38 40  1  0
 39 37  2  0
 42 43  1  0
 42 17  1  0
 44 42  1  0
 45 47  2  0
 46 49  1  0
 46 45  1  0
 48 46  1  0
 50 51  2  0
 50 15  1  0
 52 54  1  0
 52 51  1  0
 53 64  2  0
 53 79  1  0
 54 59  1  0
 55 63  1  0
 55 65  1  0
 56 62  1  0
 56 58  1  0
 57 63  1  0
 58 57  1  0
 59 58  2  0
 60 61  1  0
 60 54  2  0
 61 56  2  0
 62 55  1  0
 63 53  1  0
 65 67  2  0
 66 65  1  0
 66 70  1  0
 68 66  1  0
 69 78  2  0
 69 74  1  0
 70 74  1  0
 71 70  1  0
 72 73  1  0
 72 71  1  0
 73 69  1  0
 74 75  2  0
 75 76  1  0
 77 76  2  0
 78 77  1  0
 79 80  1  0
 79 89  1  0
 80 83  1  0
 81 85  1  0
 81 80  1  0
 82 81  2  0
 84 85  1  0
 87 85  1  0
 87 88  1  0
 87 86  1  0
 89 92  1  1
 89 90  1  0
 91 89  1  0
M  ISO  4   1 100  16 100  51 101  52 101
M  END
>  <TORSDO>  (26) 
F 18

>  <SCORE>  (26) 
-15.162

>  <name>  (26) 
25

>  <ligand_id>  (26) 
25

>  <original_smiles>  (26) 
[H]c1c([H])c([H])c2c(c1[H])C([H])([H])C([H])([H])C([H])([H])C2([H])N([H])C(=O)C1([H])N(C(=O)C([H])(N([H])C(=O)C([H])(N([H])C([H])([H])[H])C([H])([H])[H])C(C([H])([H])[H])(C([H])([H])[H])C([H])([H])[H])C([H])([H])c2c([H])c(OC([H])([H])C([H])([H])C3([H])C([H])([H])C([H])([H])C4([H])C([H])([H])N(C(=O)N5C([H])([H])C([H])([H])C([H])([H])C([H])(n6nc(-c7c([H])c([H])c(Oc8c([H])c([H])c(F)c([H])c8F)c([H])c7[H])c(C(=O)N([H])[H])c6N([H])[H])C5([H])[H])C([H])(C(=O)N([H])[H])C43[H])c([H])c([H])c2C1([H])[H]

>  <smiles>  (26) 
[H]c1c([H])c([H])c2c(c1[H])C([H])([H])C([H])([H])C([H])([H])C2([H])N([H])C(=O)C1([H])N(C(=O)C([H])(N([H])C(=O)C([H])(N([H])C([H])([H])[H])C([H])([H])[H])C(C([H])([H])[H])(C([H])([H])[H])C([H])([H])[H])C([H])([H])c2c([H])c(OC([H])([H])C([H])([H])C3([H])C([H])([H])C([H])([H])C4([H])C([H])([H])N(C(=O)N5C([H])([H])C([H])([H])C([H])([H])C([H])(n6nc(-c7c([H])c([H])c(Oc8c([H])c([H])c(F)c([H])c8F)c([H])c7[H])c(C(=O)N([H])[H])c6N([H])[H])C5([H])[H])C([H])(C(=O)N([H])[H])C43[H])c([H])c([H])c2C1([H])[H]

$$$$
26:0:0
     RDKit          3D

 90 98  0  0  1  0  0  0  0  0999 V2000
  -29.7100  -21.3100   20.5830 C   0  0  0  0  0  0  0  0  0  0  0  0
  -29.0850  -22.4160   20.0470 N   0  0  0  0  0  0  0  0  0  0  0  0
  -30.3490  -21.4330   21.6280 O   0  0  0  0  0  0  0  0  0  0  0  0
  -28.5640  -22.2650   19.1930 H   0  0  0  0  0  0  0  0  0  0  0  0
  -29.7360  -19.8960   19.8390 C   0  0  0  0  0  2  0  0  0  0  0  0
  -29.8070  -18.3600   22.1000 C   0  0  0  0  0  2  0  0  0  0  0  0
  -28.4600  -18.2390   21.4530 C   0  0  0  0  0  2  0  0  0  0  0  0
  -29.6870  -18.4760   20.5870 C   0  0  1  0  0  0  0  0  0  0  0  0
  -30.2560  -17.2460   19.7540 C   0  0  0  0  0  2  0  0  0  0  0  0
  -30.7010  -14.6780   19.7750 C   0  0  0  0  0  0  0  0  0  0  0  0
  -30.3170  -12.4970   18.6440 C   0  0  0  0  0  2  0  0  0  0  0  0
  -29.2850  -12.7120   17.5160 C   0  0  0  0  0  2  0  0  0  0  0  0
  -27.8500  -12.5670   18.0560 C   0  0  0  0  0  2  0  0  0  0  0  0
  -27.6220  -13.3700   19.3640 C   0  0  0  0  0  3  0  0  0  0  0  0
  -28.7650  -13.1520   20.3810 C   0  0  0  0  0  2  0  0  0  0  0  0
  -30.0260  -13.4840   19.7070 N   0  0  0  0  0  0  0  0  0  0  0  0
  -31.8380  -14.7830   19.3070 O   0  0  0  0  0  0  0  0  0  0  0  0
  -29.9910  -15.7990   20.1430 N   0  0  0  0  0  0  0  0  0  0  0  0
  -29.0790  -15.6130   20.5310 H   0  0  0  0  0  0  0  0  0  0  0  0
  -25.3040  -13.9870   20.2830 C   0  0  0  0  0  0  0  0  0  0  0  0
  -24.2560  -13.2240   20.7180 C   0  0  0  0  0  0  0  0  0  0  0  0
  -24.6890  -11.8650   20.6220 C   0  0  0  0  0  0  0  0  0  0  0  0
  -26.3110  -13.0960   19.9490 N   0  0  0  0  0  0  0  0  0  0  0  0
  -25.9510  -11.8140   20.2120 N   0  0  0  0  0  0  0  0  0  0  0  0
  -23.9560  -10.6110   20.8400 C   0  0  0  0  0  0  0  0  0  0  0  0
  -24.4260   -9.6280   21.7380 C   0  0  0  0  0  3  0  0  0  0  0  0
  -23.6940   -8.4400   21.9460 C   0  0  0  0  0  3  0  0  0  0  0  0
  -22.4770   -8.2260   21.2560 C   0  0  0  0  0  0  0  0  0  0  0  0
  -22.0250   -9.1980   20.3460 C   0  0  0  0  0  3  0  0  0  0  0  0
  -22.7580  -10.3780   20.1360 C   0  0  0  0  0  3  0  0  0  0  0  0
  -21.7120   -7.0910   21.3750 O   0  0  0  0  0  0  0  0  0  0  0  0
  -21.6960   -6.3500   22.5310 C   0  0  0  0  0  0  0  0  0  0  0  0
  -21.3360   -6.9160   23.7730 C   0  0  0  0  0  3  0  0  0  0  0  0
  -21.2640   -6.1030   24.9220 C   0  0  0  0  0  3  0  0  0  0  0  0
  -21.5440   -4.7270   24.8310 C   0  0  0  0  0  0  0  0  0  0  0  0
  -21.8980   -4.1610   23.5930 C   0  0  0  0  0  3  0  0  0  0  0  0
  -21.9710   -4.9710   22.4460 C   0  0  0  0  0  0  0  0  0  0  0  0
  -22.2900   -4.4150   21.2530 F   0  0  0  0  0  0  0  0  0  0  0  0
  -21.4680   -3.9450   25.9320 F   0  0  0  0  0  0  0  0  0  0  0  0
  -22.8920  -13.7180   21.1050 C   0  0  0  0  0  0  0  0  0  0  0  0
  -22.2270  -13.0280   22.0240 N   0  0  0  0  0  0  0  0  0  0  0  0
  -22.4280  -14.7520   20.6270 O   0  0  0  0  0  0  0  0  0  0  0  0
  -22.6160  -12.1920   22.4350 H   0  0  0  0  0  0  0  0  0  0  0  0
  -21.3140  -13.3400   22.3210 H   0  0  0  0  0  0  0  0  0  0  0  0
  -25.4750  -15.3590   20.1220 N   0  0  0  0  0  0  0  0  0  0  0  0
  -24.7220  -16.0150   20.2960 H   0  0  0  0  0  0  0  0  0  0  0  0
  -26.2870  -15.7960   19.7030 H   0  0  0  0  0  0  0  0  0  0  0  0
  -29.2050  -23.8630   20.5050 C   0  0  0  0  0  3  0  0  0  0  0  0
  -28.1550  -24.9360   19.9470 C   0  0  0  0  0  3  0  0  0  0  0  0
  -28.3490  -26.3980   20.1980 O   0  0  0  0  0  0  0  0  0  0  0  0
  -24.6270  -31.8280   23.1890 C   0  0  0  0  0  0  0  0  0  0  0  0
  -27.2330  -27.2580   20.1300 C   0  0  0  0  0  0  0  0  0  0  0  0
  -23.4150  -30.4170   21.5670 C   0  0  0  0  0  3  0  0  0  0  0  0
  -24.8610  -28.8710   20.1280 C   0  0  0  0  0  0  0  0  0  0  0  0
  -25.9520  -30.7470   21.3560 C   0  0  0  0  0  2  0  0  0  0  0  0
  -26.0330  -29.3650   20.7150 C   0  0  0  0  0  0  0  0  0  0  0  0
  -27.2200  -28.5700   20.7060 C   0  0  0  0  0  3  0  0  0  0  0  0
  -26.0370  -26.8300   19.5040 C   0  0  0  0  0  3  0  0  0  0  0  0
  -24.8670  -27.6120   19.5120 C   0  0  0  0  0  3  0  0  0  0  0  0
  -23.6200  -29.7390   20.1860 C   0  0  0  0  0  2  0  0  0  0  0  0
  -24.6840  -31.0160   22.0930 N   0  0  0  0  0  0  0  0  0  0  0  0
  -23.5470  -32.1000   23.7340 O   0  0  0  0  0  0  0  0  0  0  0  0
  -22.7700  -29.3990   22.5370 C   0  0  0  0  0  0  0  0  0  0  0  0
  -21.4440  -29.2080   22.4210 N   0  0  0  0  0  0  0  0  0  0  0  0
  -23.4600  -28.7840   23.3550 O   0  0  0  0  0  0  0  0  0  0  0  0
  -20.9450  -29.7570   21.7350 H   0  0  0  0  0  0  0  0  0  0  0  0
  -18.0830  -27.9820   22.9530 C   0  0  0  0  0  0  0  0  0  0  0  0
  -20.6400  -28.2690   23.2050 C   0  0  0  0  0  3  0  0  0  0  0  0
  -20.7520  -26.8340   22.6410 C   0  0  0  0  0  2  0  0  0  0  0  0
  -19.6470  -26.4920   21.6360 C   0  0  0  0  0  2  0  0  0  0  0  0
  -18.2680  -26.6300   22.2880 C   0  0  0  0  0  2  0  0  0  0  0  0
  -19.1960  -28.7590   23.3710 C   0  0  0  0  0  0  0  0  0  0  0  0
  -18.9670  -30.0250   23.9540 C   0  0  0  0  0  3  0  0  0  0  0  0
  -17.6570  -30.5130   24.1240 C   0  0  0  0  0  3  0  0  0  0  0  0
  -16.5580  -29.7340   23.7220 C   0  0  0  0  0  3  0  0  0  0  0  0
  -16.7730  -28.4710   23.1430 C   0  0  0  0  0  3  0  0  0  0  0  0
  -25.9120  -32.4730   23.7950 C   0  0  0  0  0  3  0  0  0  0  0  0
  -25.5940  -33.8690   24.1250 N   0  0  0  0  0  0  0  0  0  0  0  0
  -25.9100  -34.9240   23.3610 C   0  0  0  0  0  0  0  0  0  0  0  0
  -26.5690  -34.8230   22.3220 O   0  0  0  0  0  0  0  0  0  0  0  0
  -25.0080  -34.0190   24.9320 H   0  0  0  0  0  0  0  0  0  0  0  0
  -24.1630  -36.7030   23.0280 C   0  0  0  0  0  1  0  0  0  0  0  0
  -25.4180  -36.3090   23.8230 C   0  0  0  0  0  3  0  0  0  0  0  0
  -27.5570  -37.2160   24.6220 C   0  0  0  0  0  1  0  0  0  0  0  0
  -26.4400  -37.3700   23.6930 N   0  0  0  0  0  0  0  0  0  0  0  0
  -26.0280  -38.2880   23.8430 H   0  0  0  0  0  0  0  0  0  0  0  0
  -26.4470  -31.7100   25.0680 C   0  0  1  0  0  0  0  0  0  0  0  0
  -25.3660  -31.4680   26.1480 C   0  0  0  0  0  1  0  0  0  0  0  0
  -27.0370  -30.3360   24.6750 C   0  0  0  0  0  1  0  0  0  0  0  0
  -27.5970  -32.5150   25.7160 C   0  0  0  0  0  1  0  0  0  0  0  0
  1  3  2  0
  2 48  1  0
  2  1  1  0
  4  2  1  0
  5  1  1  0
  8  5  1  6
  7  6  1  0
  8  7  1  0
  8  6  1  0
  9 18  1  0
  9  8  1  0
 10 18  1  0
 11 16  1  0
 12 13  1  0
 12 11  1  0
 14 13  1  0
 14 23  1  0
 14 15  1  0
 16 10  1  0
 16 15  1  0
 17 10  2  0
 18 19  1  0
 20 21  2  0
 21 40  1  0
 22 21  1  0
 22 25  1  0
 23 24  1  0
 23 20  1  0
 24 22  2  0
 25 26  1  0
 26 27  2  0
 28 31  1  0
 28 27  1  0
 29 28  2  0
 30 29  1  0
 30 25  2  0
 31 32  1  0
 32 33  1  0
 33 34  2  0
 35 34  1  0
 35 39  1  0
 36 35  2  0
 37 32  2  0
 37 36  1  0
 38 37  1  0
 40 41  1  0
 41 44  1  0
 41 43  1  0
 42 40  2  0
 45 20  1  0
 45 46  1  0
 47 45  1  0
 49 50  1  0
 49 48  2  0
 51 62  2  0
 52 50  1  0
 52 57  1  0
 53 61  1  0
 53 63  1  0
 54 60  1  0
 54 56  1  0
 55 61  1  0
 56 55  1  0
 57 56  2  0
 58 59  1  0
 58 52  2  0
 59 54  2  0
 60 53  1  0
 61 51  1  0
 63 65  2  0
 64 63  1  0
 66 64  1  0
 67 76  2  0
 67 72  1  0
 68 64  1  0
 68 72  1  0
 69 68  1  0
 70 71  1  0
 70 69  1  0
 71 67  1  0
 72 73  2  0
 73 74  1  0
 75 74  2  0
 76 75  1  0
 77 51  1  0
 77 78  1  0
 77 87  1  0
 78 81  1  0
 79 83  1  0
 79 78  1  0
 80 79  2  0
 83 82  1  0
 85 83  1  0
 85 86  1  0
 85 84  1  0
 87 90  1  1
 87 88  1  0
 89 87  1  0
M  ISO  4  10 100  18 100  49 101  50 101
M  END
>  <TORSDO>  (27) 
F 21

>  <SCORE>  (27) 
-10.947

>  <name>  (27) 
26

>  <ligand_id>  (27) 
26

>  <original_smiles>  (27) 
[H]c1c([H])c([H])c2c(c1[H])C([H])([H])C([H])([H])C([H])([H])C2([H])N([H])C(=O)C1([H])N(C(=O)C([H])(N([H])C(=O)C([H])(N([H])C([H])([H])[H])C([H])([H])[H])C(C([H])([H])[H])(C([H])([H])[H])C([H])([H])[H])C([H])([H])c2c([H])c(OC([H])([H])C([H])([H])N([H])C(=O)C([H])([H])C3(C([H])([H])N([H])C(=O)N4C([H])([H])C([H])([H])C([H])([H])C([H])(n5nc(-c6c([H])c([H])c(Oc7c([H])c([H])c(F)c([H])c7F)c([H])c6[H])c(C(=O)N([H])[H])c5N([H])[H])C4([H])[H])C([H])([H])C3([H])[H])c([H])c([H])c2C1([H])[H]

>  <smiles>  (27) 
[H]c1c([H])c([H])c2c(c1[H])C([H])([H])C([H])([H])C([H])([H])C2([H])N([H])C(=O)C1([H])N(C(=O)C([H])(N([H])C(=O)C([H])(N([H])C([H])([H])[H])C([H])([H])[H])C(C([H])([H])[H])(C([H])([H])[H])C([H])([H])[H])C([H])([H])c2c([H])c(OC([H])([H])C([H])([H])N([H])C(=O)C([H])([H])C3(C([H])([H])N([H])C(=O)N4C([H])([H])C([H])([H])C([H])([H])C([H])(n5nc(-c6c([H])c([H])c(Oc7c([H])c([H])c(F)c([H])c7F)c([H])c6[H])c(C(=O)N([H])[H])c5N([H])[H])C4([H])[H])C([H])([H])C3([H])[H])c([H])c([H])c2C1([H])[H]

$$$$
27:0:0
     RDKit          3D

 90 99  0  0  1  0  0  0  0  0999 V2000
  -30.2800  -22.3140   19.5020 C   0  0  0  0  0  0  0  0  0  0  0  0
  -31.3860  -21.5500   20.2260 C   0  0  0  0  0  2  0  0  0  0  0  0
  -30.4860  -19.3880   21.4580 C   0  0  0  0  0  2  0  0  0  0  0  0
  -29.5010  -21.9110   21.6790 C   0  0  0  0  0  2  0  0  0  0  0  0
  -28.6270  -20.3360   19.9650 C   0  0  0  0  0  2  0  0  0  0  0  0
  -30.7450  -20.9660   21.5030 C   0  0  0  0  0  3  0  0  0  0  0  0
  -29.7100  -18.8240   20.2250 C   0  0  0  0  0  3  0  0  0  0  0  0
  -28.9660  -22.1650   20.2520 C   0  0  2  0  0  0  0  0  0  0  0  0
  -30.4440  -22.9500   18.4210 N   0  0  0  0  0  0  0  0  0  0  0  0
  -31.4070  -22.9050   18.0990 H   0  0  0  0  0  0  0  0  0  0  0  0
  -30.2880  -15.6880   20.1870 C   0  0  0  0  0  0  0  0  0  0  0  0
  -30.3710  -13.1570   19.3440 C   0  0  0  0  0  2  0  0  0  0  0  0
  -29.4610  -12.7640   18.1480 C   0  0  0  0  0  2  0  0  0  0  0  0
  -28.0450  -12.4080   18.6250 C   0  0  0  0  0  2  0  0  0  0  0  0
  -27.5500  -13.3990   19.7010 C   0  0  0  0  0  3  0  0  0  0  0  0
  -28.5980  -13.7030   20.7970 C   0  0  0  0  0  2  0  0  0  0  0  0
  -29.7580  -14.3280   20.1200 N   0  0  0  0  0  0  0  0  0  0  0  0
  -31.5190  -15.6270   20.0040 O   0  0  0  0  0  0  0  0  0  0  0  0
  -29.5350  -17.0500   20.2650 N   0  0  0  0  0  0  0  0  0  0  0  0
  -28.5540  -16.8280   20.3680 H   0  0  0  0  0  0  0  0  0  0  0  0
  -25.1930  -13.9090   20.5000 C   0  0  0  0  0  0  0  0  0  0  0  0
  -24.1430  -13.1180   20.8720 C   0  0  0  0  0  0  0  0  0  0  0  0
  -24.6250  -11.7720   20.8250 C   0  0  0  0  0  0  0  0  0  0  0  0
  -26.2420  -13.0490   20.2380 N   0  0  0  0  0  0  0  0  0  0  0  0
  -25.9150  -11.7560   20.5010 N   0  0  0  0  0  0  0  0  0  0  0  0
  -23.9100  -10.5020   21.0120 C   0  0  0  0  0  0  0  0  0  0  0  0
  -24.3390   -9.5420   21.9550 C   0  0  0  0  0  3  0  0  0  0  0  0
  -23.6170   -8.3410   22.1330 C   0  0  0  0  0  3  0  0  0  0  0  0
  -22.4540   -8.0900   21.3670 C   0  0  0  0  0  0  0  0  0  0  0  0
  -22.0460   -9.0390   20.4130 C   0  0  0  0  0  3  0  0  0  0  0  0
  -22.7670  -10.2310   20.2330 C   0  0  0  0  0  3  0  0  0  0  0  0
  -21.7080   -6.9400   21.4510 O   0  0  0  0  0  0  0  0  0  0  0  0
  -21.6310   -6.2150   22.6140 C   0  0  0  0  0  0  0  0  0  0  0  0
  -21.1240   -6.7740   23.8080 C   0  0  0  0  0  3  0  0  0  0  0  0
  -20.9970   -5.9750   24.9610 C   0  0  0  0  0  3  0  0  0  0  0  0
  -21.3670   -4.6170   24.9220 C   0  0  0  0  0  0  0  0  0  0  0  0
  -21.8670   -4.0570   23.7330 C   0  0  0  0  0  3  0  0  0  0  0  0
  -21.9960   -4.8540   22.5820 C   0  0  0  0  0  0  0  0  0  0  0  0
  -22.4580   -4.3040   21.4330 F   0  0  0  0  0  0  0  0  0  0  0  0
  -21.2380   -3.8460   26.0280 F   0  0  0  0  0  0  0  0  0  0  0  0
  -22.7440  -13.5800   21.1520 C   0  0  0  0  0  0  0  0  0  0  0  0
  -22.0300  -12.8810   22.0250 N   0  0  0  0  0  0  0  0  0  0  0  0
  -22.2950  -14.6010   20.6330 O   0  0  0  0  0  0  0  0  0  0  0  0
  -22.4040  -12.0540   22.4660 H   0  0  0  0  0  0  0  0  0  0  0  0
  -21.0910  -13.1780   22.2540 H   0  0  0  0  0  0  0  0  0  0  0  0
  -25.3370  -15.2830   20.3300 N   0  0  0  0  0  0  0  0  0  0  0  0
  -24.5600  -15.9240   20.4490 H   0  0  0  0  0  0  0  0  0  0  0  0
  -26.1680  -15.7340   19.9720 H   0  0  0  0  0  0  0  0  0  0  0  0
  -28.0060  -23.8580   20.1240 C   0  0  0  0  0  2  0  0  0  0  0  0
  -28.1780  -25.6000   20.3030 O   0  0  0  0  0  0  0  0  0  0  0  0
  -24.6930  -31.8780   23.2520 C   0  0  0  0  0  0  0  0  0  0  0  0
  -27.1980  -26.8020   20.2510 C   0  0  0  0  0  0  0  0  0  0  0  0
  -23.4920  -30.4830   21.6220 C   0  0  0  0  0  3  0  0  0  0  0  0
  -24.9280  -28.8280   20.2080 C   0  0  0  0  0  0  0  0  0  0  0  0
  -26.0680  -30.6240   21.4820 C   0  0  0  0  0  2  0  0  0  0  0  0
  -26.1290  -29.1890   20.8310 C   0  0  0  0  0  0  0  0  0  0  0  0
  -27.2480  -28.2040   20.8180 C   0  0  0  0  0  3  0  0  0  0  0  0
  -25.9590  -26.6450   19.5790 C   0  0  0  0  0  3  0  0  0  0  0  0
  -24.8820  -27.5820   19.5580 C   0  0  0  0  0  3  0  0  0  0  0  0
  -23.7230  -29.7800   20.2530 C   0  0  0  0  0  2  0  0  0  0  0  0
  -24.7760  -31.0270   22.1720 N   0  0  0  0  0  0  0  0  0  0  0  0
  -23.6040  -32.1810   23.7660 O   0  0  0  0  0  0  0  0  0  0  0  0
  -22.7740  -29.5110   22.5970 C   0  0  0  0  0  0  0  0  0  0  0  0
  -21.4420  -29.3510   22.4640 N   0  0  0  0  0  0  0  0  0  0  0  0
  -23.4280  -28.8950   23.4420 O   0  0  0  0  0  0  0  0  0  0  0  0
  -20.9660  -29.8970   21.7600 H   0  0  0  0  0  0  0  0  0  0  0  0
  -18.0550  -28.1340   22.9650 C   0  0  0  0  0  0  0  0  0  0  0  0
  -20.6130  -28.4200   23.2390 C   0  0  0  0  0  3  0  0  0  0  0  0
  -20.7240  -26.9820   22.6780 C   0  0  0  0  0  2  0  0  0  0  0  0
  -19.6300  -26.6470   21.6580 C   0  0  0  0  0  2  0  0  0  0  0  0
  -18.2450  -26.7840   22.2940 C   0  0  0  0  0  2  0  0  0  0  0  0
  -19.1670  -28.9100   23.3930 C   0  0  0  0  0  0  0  0  0  0  0  0
  -18.9330  -30.1700   23.9840 C   0  0  0  0  0  3  0  0  0  0  0  0
  -17.6210  -30.6570   24.1490 C   0  0  0  0  0  3  0  0  0  0  0  0
  -16.5260  -29.8810   23.7320 C   0  0  0  0  0  3  0  0  0  0  0  0
  -16.7440  -28.6200   23.1460 C   0  0  0  0  0  3  0  0  0  0  0  0
  -25.9610  -32.5230   23.8890 C   0  0  0  0  0  3  0  0  0  0  0  0
  -25.6490  -33.9270   24.2160 N   0  0  0  0  0  0  0  0  0  0  0  0
  -25.9650  -34.9850   23.4570 C   0  0  0  0  0  0  0  0  0  0  0  0
  -26.6090  -34.8810   22.4100 O   0  0  0  0  0  0  0  0  0  0  0  0
  -25.0760  -34.0810   25.0340 H   0  0  0  0  0  0  0  0  0  0  0  0
  -24.2260  -36.7860   23.1680 C   0  0  0  0  0  1  0  0  0  0  0  0
  -25.4990  -36.3800   23.9300 C   0  0  0  0  0  3  0  0  0  0  0  0
  -27.6600  -37.2780   24.6770 C   0  0  0  0  0  1  0  0  0  0  0  0
  -26.5260  -37.4340   23.7700 N   0  0  0  0  0  0  0  0  0  0  0  0
  -26.1240  -38.3560   23.9220 H   0  0  0  0  0  0  0  0  0  0  0  0
  -26.4510  -31.7670   25.1860 C   0  0  1  0  0  0  0  0  0  0  0  0
  -25.3430  -31.5570   26.2460 C   0  0  0  0  0  1  0  0  0  0  0  0
  -27.0220  -30.3760   24.8310 C   0  0  0  0  0  1  0  0  0  0  0  0
  -27.6050  -32.5550   25.8510 C   0  0  0  0  0  1  0  0  0  0  0  0
  1  2  1  0
  1  8  1  0
  3  6  1  0
  5  7  1  0
  5  8  1  0
  6  2  1  0
  6  4  1  0
  7 19  1  0
  7  3  1  0
  8 49  1  1
  8  4  1  0
  9  1  2  0
 10  9  1  0
 11 19  1  0
 12 17  1  0
 13 14  1  0
 13 12  1  0
 15 14  1  0
 15 24  1  0
 15 16  1  0
 17 11  1  0
 17 16  1  0
 18 11  2  0
 19 20  1  0
 21 22  2  0
 22 41  1  0
 23 22  1  0
 23 26  1  0
 24 21  1  0
 24 25  1  0
 25 23  2  0
 26 27  1  0
 27 28  2  0
 29 32  1  0
 29 28  1  0
 30 29  2  0
 31 30  1  0
 31 26  2  0
 32 33  1  0
 33 34  1  0
 34 35  2  0
 36 35  1  0
 36 40  1  0
 37 36  2  0
 38 33  2  0
 38 37  1  0
 39 38  1  0
 41 42  1  0
 42 45  1  0
 42 44  1  0
 43 41  2  0
 46 47  1  0
 46 21  1  0
 48 46  1  0
 49 50  1  0
 51 62  2  0
 52 50  1  0
 52 57  1  0
 53 61  1  0
 53 63  1  0
 54 60  1  0
 54 56  1  0
 55 61  1  0
 56 55  1  0
 57 56  2  0
 58 52  2  0
 59 58  1  0
 59 54  2  0
 60 53  1  0
 61 51  1  0
 63 65  2  0
 64 63  1  0
 66 64  1  0
 67 76  2  0
 67 72  1  0
 68 64  1  0
 68 72  1  0
 69 68  1  0
 70 71  1  0
 70 69  1  0
 71 67  1  0
 72 73  2  0
 73 74  1  0
 75 74  2  0
 76 75  1  0
 77 51  1  0
 77 78  1  0
 77 87  1  0
 78 81  1  0
 79 83  1  0
 79 78  1  0
 80 79  2  0
 83 82  1  0
 85 86  1  0
 85 83  1  0
 85 84  1  0
 87 90  1  1
 87 88  1  0
 89 87  1  0
M  ISO  4  11 100  19 100  49 101  50 101
M  END
>  <TORSDO>  (28) 
F 17

>  <SCORE>  (28) 
-16.726

>  <name>  (28) 
27

>  <ligand_id>  (28) 
27

>  <original_smiles>  (28) 
[H]N=C1C([H])([H])C2([H])C([H])([H])C([H])(N([H])C(=O)N3C([H])([H])C([H])([H])C([H])([H])C([H])(n4nc(-c5c([H])c([H])c(Oc6c([H])c([H])c(F)c([H])c6F)c([H])c5[H])c(C(=O)N([H])[H])c4N([H])[H])C3([H])[H])C([H])([H])C1(C([H])([H])Oc1c([H])c([H])c3c(c1[H])C([H])([H])N(C(=O)C([H])(N([H])C(=O)C([H])(N([H])C([H])([H])[H])C([H])([H])[H])C(C([H])([H])[H])(C([H])([H])[H])C([H])([H])[H])C([H])(C(=O)N([H])C1([H])c4c([H])c([H])c([H])c([H])c4C([H])([H])C([H])([H])C1([H])[H])C3([H])[H])C2([H])[H]

>  <smiles>  (28) 
[H]N=C1C([H])([H])C2([H])C([H])([H])C([H])(N([H])C(=O)N3C([H])([H])C([H])([H])C([H])([H])C([H])(n4nc(-c5c([H])c([H])c(Oc6c([H])c([H])c(F)c([H])c6F)c([H])c5[H])c(C(=O)N([H])[H])c4N([H])[H])C3([H])[H])C([H])([H])C1(C([H])([H])Oc1c([H])c([H])c3c(c1[H])C([H])([H])N(C(=O)C([H])(N([H])C(=O)C([H])(N([H])C([H])([H])[H])C([H])([H])[H])C(C([H])([H])[H])(C([H])([H])[H])C([H])([H])[H])C([H])(C(=O)N([H])C1([H])c4c([H])c([H])c([H])c([H])c4C([H])([H])C([H])([H])C1([H])[H])C3([H])[H])C2([H])[H]

$$$$
28:0:0
     RDKit          3D

 96105  0  0  1  0  0  0  0  0999 V2000
  -25.6240  -19.1450   19.3860 C   0  0  0  0  0  2  0  0  0  0  0  0
  -26.2520  -19.5520   18.0420 C   0  0  0  0  0  2  0  0  0  0  0  0
  -27.7470  -18.1370   20.1920 C   0  0  0  0  0  2  0  0  0  0  0  0
  -28.2700  -18.3320   18.7440 C   0  0  0  0  0  3  0  0  0  0  0  0
  -26.8160  -19.3450   20.3570 C   0  0  0  0  0  3  0  0  0  0  0  0
  -27.7420  -19.7650   18.4200 C   0  0  0  0  0  3  0  0  0  0  0  0
  -27.6440  -20.4000   19.7460 N   0  0  1  0  0  4  0  0  0  0  0  0
  -28.5450  -20.3910   20.2050 H   0  0  0  0  0  0  0  0  0  0  0  0
  -30.2950  -18.1920   17.1530 C   0  0  0  0  0  1  0  0  0  0  0  0
  -29.7650  -17.9470   18.5760 C   0  0  0  0  0  3  0  0  0  0  0  0
  -29.8590  -16.4450   18.9690 C   0  0  0  0  0  2  0  0  0  0  0  0
  -31.6670  -14.8470   19.4070 C   0  0  0  0  0  0  0  0  0  0  0  0
  -31.3930  -12.4210   19.0810 C   0  0  0  0  0  2  0  0  0  0  0  0
  -30.4140  -12.1640   17.9200 C   0  0  0  0  0  2  0  0  0  0  0  0
  -28.9630  -12.1040   18.4380 C   0  0  0  0  0  2  0  0  0  0  0  0
  -28.6110  -13.2790   19.3860 C   0  0  0  0  0  3  0  0  0  0  0  0
  -29.7280  -13.5500   20.4200 C   0  0  0  0  0  2  0  0  0  0  0  0
  -31.0040  -13.6940   19.7000 N   0  0  0  0  0  0  0  0  0  0  0  0
  -32.7780  -14.8690   18.8800 O   0  0  0  0  0  0  0  0  0  0  0  0
  -31.0760  -16.0230   19.6570 N   0  0  0  0  0  0  0  0  0  0  0  0
  -31.7510  -16.7690   19.7310 H   0  0  0  0  0  0  0  0  0  0  0  0
  -26.4000  -14.0650   20.4360 C   0  0  0  0  0  0  0  0  0  0  0  0
  -25.3050  -13.3850   20.8800 C   0  0  0  0  0  0  0  0  0  0  0  0
  -25.5980  -11.9980   20.6790 C   0  0  0  0  0  0  0  0  0  0  0  0
  -27.3070  -13.1060   20.0140 N   0  0  0  0  0  0  0  0  0  0  0  0
  -26.8280  -11.8510   20.2080 N   0  0  0  0  0  0  0  0  0  0  0  0
  -24.7530  -10.8130   20.8510 C   0  0  0  0  0  0  0  0  0  0  0  0
  -25.0950   -9.7930   21.7660 C   0  0  0  0  0  3  0  0  0  0  0  0
  -24.2600   -8.6670   21.9310 C   0  0  0  0  0  3  0  0  0  0  0  0
  -23.0670   -8.5550   21.1800 C   0  0  0  0  0  0  0  0  0  0  0  0
  -22.7390   -9.5630   20.2540 C   0  0  0  0  0  3  0  0  0  0  0  0
  -23.5750  -10.6790   20.0890 C   0  0  0  0  0  3  0  0  0  0  0  0
  -22.2050   -7.4860   21.2530 O   0  0  0  0  0  0  0  0  0  0  0  0
  -21.9830   -6.8260   22.4320 C   0  0  0  0  0  0  0  0  0  0  0  0
  -21.4410   -7.4740   23.5640 C   0  0  0  0  0  3  0  0  0  0  0  0
  -21.1670   -6.7370   24.7340 C   0  0  0  0  0  3  0  0  0  0  0  0
  -21.4230   -5.3530   24.7700 C   0  0  0  0  0  0  0  0  0  0  0  0
  -21.9550   -4.7050   23.6410 C   0  0  0  0  0  3  0  0  0  0  0  0
  -22.2320   -5.4390   22.4750 C   0  0  0  0  0  0  0  0  0  0  0  0
  -22.7270   -4.8060   21.3840 F   0  0  0  0  0  0  0  0  0  0  0  0
  -21.1490   -4.6430   25.8890 F   0  0  0  0  0  0  0  0  0  0  0  0
  -24.0160  -13.9780   21.3660 C   0  0  0  0  0  0  0  0  0  0  0  0
  -23.3160  -13.2930   22.2580 N   0  0  0  0  0  0  0  0  0  0  0  0
  -23.6420  -15.0890   20.9820 O   0  0  0  0  0  0  0  0  0  0  0  0
  -23.6340  -12.3930   22.5920 H   0  0  0  0  0  0  0  0  0  0  0  0
  -22.4490  -13.6710   22.6140 H   0  0  0  0  0  0  0  0  0  0  0  0
  -26.6870  -15.4210   20.3390 N   0  0  0  0  0  0  0  0  0  0  0  0
  -25.9820  -16.1080   20.5790 H   0  0  0  0  0  0  0  0  0  0  0  0
  -27.5080  -15.8130   19.9060 H   0  0  0  0  0  0  0  0  0  0  0  0
  -27.1390  -21.7980   19.8990 C   0  0  0  0  0  2  0  0  0  0  0  0
  -26.7910  -23.3490   17.8530 C   0  0  0  0  0  1  0  0  0  0  0  0
  -27.7630  -22.9360   18.9970 C   0  0  0  0  0  3  0  0  0  0  0  0
  -27.3610  -24.4400   21.0820 C   0  0  0  0  0  1  0  0  0  0  0  0
  -28.2070  -24.2100   19.8050 C   0  0  0  0  0  3  0  0  0  0  0  0
  -28.4980  -25.4940   18.9390 C   0  0  0  0  0  2  0  0  0  0  0  0
  -28.4840  -26.7730   19.6160 O   0  0  0  0  0  0  0  0  0  0  0  0
  -24.6040  -31.6240   23.1420 C   0  0  0  0  0  0  0  0  0  0  0  0
  -27.3100  -27.5090   19.6370 C   0  0  0  0  0  0  0  0  0  0  0  0
  -23.4380  -30.3730   21.3680 C   0  0  0  0  0  3  0  0  0  0  0  0
  -24.9120  -29.0190   19.7850 C   0  0  0  0  0  0  0  0  0  0  0  0
  -25.9760  -30.7670   21.2330 C   0  0  0  0  0  2  0  0  0  0  0  0
  -26.0690  -29.4810   20.4310 C   0  0  0  0  0  0  0  0  0  0  0  0
  -27.2700  -28.7310   20.3530 C   0  0  0  0  0  3  0  0  0  0  0  0
  -26.1290  -27.0660   18.9960 C   0  0  0  0  0  3  0  0  0  0  0  0
  -24.9370  -27.8160   19.0640 C   0  0  0  0  0  3  0  0  0  0  0  0
  -23.6480  -29.8410   19.9270 C   0  0  0  0  0  2  0  0  0  0  0  0
  -24.6920  -30.9310   21.9720 N   0  0  0  0  0  0  0  0  0  0  0  0
  -23.5060  -31.8410   23.6750 O   0  0  0  0  0  0  0  0  0  0  0  0
  -22.7760  -29.2680   22.2240 C   0  0  0  0  0  0  0  0  0  0  0  0
  -21.4440  -29.1500   22.1200 N   0  0  0  0  0  0  0  0  0  0  0  0
  -23.4590  -28.5270   22.9400 O   0  0  0  0  0  0  0  0  0  0  0  0
  -20.9530  -29.8010   21.5200 H   0  0  0  0  0  0  0  0  0  0  0  0
  -18.0490  -27.9580   22.5600 C   0  0  0  0  0  0  0  0  0  0  0  0
  -20.6220  -28.1160   22.7520 C   0  0  0  0  0  3  0  0  0  0  0  0
  -20.6670  -26.8150   21.9030 C   0  0  0  0  0  2  0  0  0  0  0  0
  -19.4830  -26.6730   20.9470 C   0  0  0  0  0  2  0  0  0  0  0  0
  -18.1630  -26.7010   21.7130 C   0  0  0  0  0  2  0  0  0  0  0  0
  -19.2060  -28.6280   23.0380 C   0  0  0  0  0  0  0  0  0  0  0  0
  -19.0540  -29.8160   23.7870 C   0  0  0  0  0  3  0  0  0  0  0  0
  -17.7740  -30.3250   24.0650 C   0  0  0  0  0  3  0  0  0  0  0  0
  -16.6280  -29.6500   23.6050 C   0  0  0  0  0  3  0  0  0  0  0  0
  -16.7660  -28.4710   22.8530 C   0  0  0  0  0  3  0  0  0  0  0  0
  -25.8660  -32.2060   23.8440 C   0  0  0  0  0  3  0  0  0  0  0  0
  -25.5610  -33.5970   24.2280 N   0  0  0  0  0  0  0  0  0  0  0  0
  -25.9470  -34.6760   23.5360 C   0  0  0  0  0  0  0  0  0  0  0  0
  -26.6670  -34.6070   22.5350 O   0  0  0  0  0  0  0  0  0  0  0  0
  -24.9320  -33.7380   25.0030 H   0  0  0  0  0  0  0  0  0  0  0  0
  -24.2690  -36.5140   23.1750 C   0  0  0  0  0  1  0  0  0  0  0  0
  -25.4590  -36.0550   24.0330 C   0  0  0  0  0  3  0  0  0  0  0  0
  -27.5530  -36.8620   25.0250 C   0  0  0  0  0  1  0  0  0  0  0  0
  -26.5150  -37.0920   24.0230 N   0  0  0  0  0  0  0  0  0  0  0  0
  -26.1160  -38.0130   24.1820 H   0  0  0  0  0  0  0  0  0  0  0  0
  -26.3180  -31.3730   25.1030 C   0  0  1  0  0  0  0  0  0  0  0  0
  -25.1870  -31.1250   26.1280 C   0  0  0  0  0  1  0  0  0  0  0  0
  -26.8750  -29.9950   24.6740 C   0  0  0  0  0  1  0  0  0  0  0  0
  -27.4690  -32.1160   25.8200 C   0  0  0  0  0  1  0  0  0  0  0  0
  2  1  1  0
  3  5  1  0
  4 10  1  0
  4  3  1  0
  5  1  1  0
  6  2  1  0
  6  4  1  0
  6  7  1  0
  7 50  1  0
  7  8  1  1
  7  5  1  0
 10  9  1  0
 10 11  1  0
 11 20  1  0
 12 20  1  0
 12 18  1  0
 13 18  1  0
 14 15  1  0
 14 13  1  0
 16 15  1  0
 16 25  1  0
 16 17  1  0
 18 17  1  0
 19 12  2  0
 20 21  1  0
 22 23  2  0
 23 42  1  0
 24 27  1  0
 24 23  1  0
 25 26  1  0
 25 22  1  0
 26 24  2  0
 27 28  1  0
 28 29  2  0
 30 33  1  0
 30 29  1  0
 31 30  2  0
 32 31  1  0
 32 27  2  0
 33 34  1  0
 34 39  2  0
 34 35  1  0
 35 36  2  0
 36 37  1  0
 37 41  1  0
 38 37  2  0
 39 38  1  0
 40 39  1  0
 42 43  1  0
 43 45  1  0
 43 46  1  0
 44 42  2  0
 47 22  1  0
 47 48  1  0
 49 47  1  0
 52 51  1  0
 52 54  1  0
 52 50  1  0
 54 53  1  0
 55 56  1  0
 55 54  1  0
 56 58  1  0
 57 68  2  0
 58 63  1  0
 59 67  1  0
 59 69  1  0
 60 66  1  0
 60 62  1  0
 61 67  1  0
 62 61  1  0
 63 62  2  0
 64 65  1  0
 64 58  2  0
 65 60  2  0
 66 59  1  0
 67 57  1  0
 69 71  2  0
 70 69  1  0
 72 70  1  0
 73 82  2  0
 73 78  1  0
 74 70  1  0
 74 78  1  0
 75 74  1  0
 76 77  1  0
 76 75  1  0
 77 73  1  0
 78 79  2  0
 79 80  1  0
 81 80  2  0
 82 81  1  0
 83 57  1  0
 83 84  1  0
 83 93  1  0
 84 87  1  0
 85 89  1  0
 85 84  1  0
 86 85  2  0
 89 88  1  0
 91 89  1  0
 91 92  1  0
 91 90  1  0
 93 96  1  1
 93 94  1  0
 95 93  1  0
M  ISO  4  12 100  20 100  55 101  56 101
M  END
>  <TORSDO>  (29) 
F 22

>  <SCORE>  (29) 
-9.847

>  <name>  (29) 
28

>  <ligand_id>  (29) 
28

>  <original_smiles>  (29) 
[H]c1c([H])c([H])c2c(c1[H])C([H])([H])C([H])([H])C([H])([H])C2([H])N([H])C(=O)C1([H])N(C(=O)C([H])(N([H])C(=O)C([H])(N([H])C([H])([H])[H])C([H])([H])[H])C(C([H])([H])[H])(C([H])([H])[H])C([H])([H])[H])C([H])([H])c2c([H])c(OC([H])([H])C([H])(C([H])([H])[H])C([H])(C([H])([H])[H])C([H])([H])[N+]3([H])C4([H])C([H])([H])C([H])([H])C3([H])C([H])(C([H])(C([H])([H])[H])C([H])([H])N([H])C(=O)N3C([H])([H])C([H])([H])C([H])([H])C([H])(n5nc(-c6c([H])c([H])c(Oc7c([H])c([H])c(F)c([H])c7F)c([H])c6[H])c(C(=O)N([H])[H])c5N([H])[H])C3([H])[H])C4([H])[H])c([H])c([H])c2C1([H])[H]

>  <smiles>  (29) 
[H]c1c([H])c([H])c2c(c1[H])C([H])([H])C([H])([H])C([H])([H])C2([H])N([H])C(=O)C1([H])N(C(=O)C([H])(N([H])C(=O)C([H])(N([H])C([H])([H])[H])C([H])([H])[H])C(C([H])([H])[H])(C([H])([H])[H])C([H])([H])[H])C([H])([H])c2c([H])c(OC([H])([H])C([H])(C([H])([H])[H])C([H])(C([H])([H])[H])C([H])([H])[N+]3([H])C4([H])C([H])([H])C([H])([H])C3([H])C([H])(C([H])(C([H])([H])[H])C([H])([H])N([H])C(=O)N3C([H])([H])C([H])([H])C([H])([H])C([H])(n5nc(-c6c([H])c([H])c(Oc7c([H])c([H])c(F)c([H])c7F)c([H])c6[H])c(C(=O)N([H])[H])c5N([H])[H])C3([H])[H])C4([H])[H])c([H])c([H])c2C1([H])[H]

$$$$
29:0:0
     RDKit          3D

 99107  0  0  1  0  0  0  0  0999 V2000
  -31.5320  -17.4280   20.1810 C   0  0  0  0  0  3  0  0  0  0  0  0
  -32.2420  -15.0040   20.9400 C   0  0  0  0  0  0  0  0  0  0  0  0
  -32.2860  -12.5250   21.2040 C   0  0  0  0  0  2  0  0  0  0  0  0
  -31.6130  -11.8710   19.9780 C   0  0  0  0  0  2  0  0  0  0  0  0
  -30.0810  -11.8000   20.1540 C   0  0  0  0  0  2  0  0  0  0  0  0
  -29.4700  -13.1380   20.6460 C   0  0  0  0  0  3  0  0  0  0  0  0
  -30.2690  -13.7080   21.8350 C   0  0  0  0  0  2  0  0  0  0  0  0
  -31.6620  -13.8470   21.3890 N   0  0  0  0  0  0  0  0  0  0  0  0
  -33.4660  -15.1190   20.8500 O   0  0  0  0  0  0  0  0  0  0  0  0
  -31.3770  -15.9370   20.4180 N   0  0  0  0  0  0  0  0  0  0  0  0
  -30.4440  -15.5710   20.3260 H   0  0  0  0  0  0  0  0  0  0  0  0
  -27.1050  -14.0110   21.1340 C   0  0  0  0  0  0  0  0  0  0  0  0
  -25.9140  -13.3660   21.3260 C   0  0  0  0  0  0  0  0  0  0  0  0
  -26.2040  -11.9700   21.2520 C   0  0  0  0  0  0  0  0  0  0  0  0
  -28.0490  -13.0130   20.9530 N   0  0  0  0  0  0  0  0  0  0  0  0
  -27.5060  -11.7770   21.0910 N   0  0  0  0  0  0  0  0  0  0  0  0
  -25.3100  -10.8050   21.2680 C   0  0  0  0  0  0  0  0  0  0  0  0
  -25.4540   -9.7780   22.2260 C   0  0  0  0  0  3  0  0  0  0  0  0
  -24.5710   -8.6760   22.2340 C   0  0  0  0  0  3  0  0  0  0  0  0
  -23.5300   -8.5960   21.2800 C   0  0  0  0  0  0  0  0  0  0  0  0
  -23.4050   -9.6100   20.3120 C   0  0  0  0  0  3  0  0  0  0  0  0
  -24.2870  -10.7030   20.3030 C   0  0  0  0  0  3  0  0  0  0  0  0
  -22.6400   -7.5510   21.1960 O   0  0  0  0  0  0  0  0  0  0  0  0
  -22.2390   -6.8570   22.3100 C   0  0  0  0  0  0  0  0  0  0  0  0
  -21.5160   -7.4740   23.3530 C   0  0  0  0  0  3  0  0  0  0  0  0
  -21.0630   -6.7070   24.4460 C   0  0  0  0  0  3  0  0  0  0  0  0
  -21.3230   -5.3240   24.4910 C   0  0  0  0  0  0  0  0  0  0  0  0
  -22.0360   -4.7060   23.4500 C   0  0  0  0  0  3  0  0  0  0  0  0
  -22.4900   -5.4710   22.3610 C   0  0  0  0  0  0  0  0  0  0  0  0
  -23.1610   -4.8660   21.3500 F   0  0  0  0  0  0  0  0  0  0  0  0
  -20.8810   -4.5860   25.5370 F   0  0  0  0  0  0  0  0  0  0  0  0
  -24.5630  -14.0070   21.4560 C   0  0  0  0  0  0  0  0  0  0  0  0
  -23.6680  -13.4060   22.2310 N   0  0  0  0  0  0  0  0  0  0  0  0
  -24.3110  -15.0780   20.9050 O   0  0  0  0  0  0  0  0  0  0  0  0
  -23.8810  -12.5400   22.7030 H   0  0  0  0  0  0  0  0  0  0  0  0
  -22.7540  -13.8170   22.3550 H   0  0  0  0  0  0  0  0  0  0  0  0
  -27.4670  -15.3570   21.0750 N   0  0  0  0  0  0  0  0  0  0  0  0
  -26.6970  -16.0130   20.9890 H   0  0  0  0  0  0  0  0  0  0  0  0
  -28.2390  -15.6170   20.4770 H   0  0  0  0  0  0  0  0  0  0  0  0
  -33.3710  -19.6760   22.9080 C   0  0  0  0  0  2  0  0  0  0  0  0
  -33.0950  -19.0420   21.5370 C   0  0  0  0  0  2  0  0  0  0  0  0
  -30.9440  -19.4070   23.4940 C   0  0  0  0  0  2  0  0  0  0  0  0
  -32.1120  -20.4110   23.3910 C   0  0  0  0  0  3  0  0  0  0  0  0
  -31.8620  -18.1010   21.5640 C   0  0  0  0  0  3  0  0  0  0  0  0
  -30.6780  -18.7730   22.1800 N   0  0  0  0  0  4  0  0  0  0  0  0
  -30.3300  -19.4890   21.5660 H   0  0  0  0  0  0  0  0  0  0  0  0
  -29.9310  -18.1130   22.3180 H   0  0  0  0  0  0  0  0  0  0  0  0
  -32.3890  -21.0650   24.6590 N   0  0  0  0  0  0  0  0  0  0  0  0
  -32.5120  -20.3790   25.3980 H   0  0  0  0  0  0  0  0  0  0  0  0
  -31.5820  -21.6130   24.9500 H   0  0  0  0  0  0  0  0  0  0  0  0
  -30.4020  -18.1910   19.2860 C   0  0  0  0  0  2  0  0  0  0  0  0
  -29.5900  -19.5950   19.3900 C   0  0  0  0  0  3  0  0  0  0  0  0
  -29.9910  -20.9140   18.5610 C   0  0  0  0  0  3  0  0  0  0  0  0
  -28.9660  -22.0460   18.5780 N   0  0  0  0  0  4  0  0  0  0  0  0
  -28.5720  -22.0870   19.5050 H   0  0  0  0  0  0  0  0  0  0  0  0
  -28.2150  -21.7670   17.9640 H   0  0  0  0  0  0  0  0  0  0  0  0
  -29.3720  -23.4700   18.1950 C   0  0  0  0  0  3  0  0  0  0  0  0
  -28.1730  -24.5270   18.1380 C   0  0  0  0  0  3  0  0  0  0  0  0
  -28.3910  -26.0000   18.1620 O   0  0  0  0  0  0  0  0  0  0  0  0
  -24.8020  -30.6260   22.4170 C   0  0  0  0  0  0  0  0  0  0  0  0
  -27.2590  -26.8150   18.3600 C   0  0  0  0  0  0  0  0  0  0  0  0
  -23.5010  -29.5130   20.6400 C   0  0  0  0  0  3  0  0  0  0  0  0
  -24.8650  -28.3150   18.8440 C   0  0  0  0  0  0  0  0  0  0  0  0
  -26.0110  -29.9540   20.3300 C   0  0  0  0  0  2  0  0  0  0  0  0
  -26.0690  -28.7240   19.4290 C   0  0  0  0  0  0  0  0  0  0  0  0
  -27.2680  -27.9880   19.1820 C   0  0  0  0  0  3  0  0  0  0  0  0
  -26.0230  -26.4730   17.7580 C   0  0  0  0  0  3  0  0  0  0  0  0
  -24.8430  -27.1960   18.0030 C   0  0  0  0  0  3  0  0  0  0  0  0
  -23.6160  -29.1180   19.1460 C   0  0  0  0  0  2  0  0  0  0  0  0
  -24.7940  -30.0380   21.1850 N   0  0  0  0  0  0  0  0  0  0  0  0
  -23.7590  -30.7570   23.0750 O   0  0  0  0  0  0  0  0  0  0  0  0
  -22.9440  -28.3080   21.4380 C   0  0  0  0  0  0  0  0  0  0  0  0
  -21.6230  -28.0810   21.3440 N   0  0  0  0  0  0  0  0  0  0  0  0
  -23.6960  -27.5910   22.1010 O   0  0  0  0  0  0  0  0  0  0  0  0
  -21.0700  -28.7230   20.7940 H   0  0  0  0  0  0  0  0  0  0  0  0
  -18.3360  -26.6420   21.8070 C   0  0  0  0  0  0  0  0  0  0  0  0
  -20.8940  -26.9820   21.9780 C   0  0  0  0  0  3  0  0  0  0  0  0
  -21.0160  -25.6800   21.1530 C   0  0  0  0  0  2  0  0  0  0  0  0
  -19.8670  -25.4840   20.1580 C   0  0  0  0  0  2  0  0  0  0  0  0
  -18.5240  -25.4440   20.8940 C   0  0  0  0  0  2  0  0  0  0  0  0
  -19.4480  -27.3730   22.3040 C   0  0  0  0  0  0  0  0  0  0  0  0
  -19.2170  -28.4990   23.1240 C   0  0  0  0  0  3  0  0  0  0  0  0
  -17.9060  -28.8960   23.4490 C   0  0  0  0  0  3  0  0  0  0  0  0
  -16.8090  -28.1600   22.9670 C   0  0  0  0  0  3  0  0  0  0  0  0
  -17.0250  -27.0350   22.1520 C   0  0  0  0  0  3  0  0  0  0  0  0
  -26.1160  -31.1810   23.0470 C   0  0  0  0  0  3  0  0  0  0  0  0
  -25.7670  -32.3950   23.7980 N   0  0  0  0  0  0  0  0  0  0  0  0
  -25.9830  -33.6450   23.3680 C   0  0  0  0  0  0  0  0  0  0  0  0
  -26.5690  -33.8980   22.3110 O   0  0  0  0  0  0  0  0  0  0  0  0
  -25.2350  -32.2640   24.6450 H   0  0  0  0  0  0  0  0  0  0  0  0
  -24.1720  -35.3690   23.6570 C   0  0  0  0  0  1  0  0  0  0  0  0
  -25.4710  -34.8000   24.2510 C   0  0  0  0  0  3  0  0  0  0  0  0
  -27.6110  -35.5040   25.2280 C   0  0  0  0  0  1  0  0  0  0  0  0
  -26.4550  -35.8910   24.4240 N   0  0  0  0  0  0  0  0  0  0  0  0
  -26.0220  -36.7000   24.8600 H   0  0  0  0  0  0  0  0  0  0  0  0
  -26.8440  -30.1380   23.9830 C   0  0  1  0  0  0  0  0  0  0  0  0
  -25.9050  -29.4510   25.0000 C   0  0  0  0  0  1  0  0  0  0  0  0
  -27.5210  -29.0280   23.1450 C   0  0  0  0  0  1  0  0  0  0  0  0
  -27.9700  -30.8420   24.7750 C   0  0  0  0  0  1  0  0  0  0  0  0
  1 51  1  0
  1 10  1  0
  2  8  1  0
  3  8  1  0
  4  5  1  0
  4  3  1  0
  6  5  1  0
  6 15  1  0
  6  7  1  0
  8  7  1  0
  9  2  2  0
 10  2  1  0
 11 10  1  0
 12 13  2  0
 13 32  1  0
 14 17  1  0
 14 13  1  0
 15 16  1  0
 15 12  1  0
 16 14  2  0
 17 18  1  0
 18 19  2  0
 20 19  1  0
 21 20  2  0
 22 21  1  0
 22 17  2  0
 23 20  1  0
 23 24  1  0
 24 29  2  0
 24 25  1  0
 25 26  2  0
 26 27  1  0
 27 31  1  0
 28 27  2  0
 29 28  1  0
 30 29  1  0
 32 33  1  0
 33 36  1  0
 33 35  1  0
 34 32  2  0
 37 12  1  0
 38 37  1  0
 39 37  1  0
 40 43  1  0
 41 44  1  0
 41 40  1  0
 43 42  1  0
 43 48  1  0
 44  1  1  0
 44 45  1  0
 45 47  1  0
 45 42  1  0
 46 45  1  0
 48 50  1  0
 48 49  1  0
 51 52  1  0
 53 54  1  0
 53 52  2  0
 54 55  1  0
 56 54  1  0
 57 54  1  0
 58 59  1  0
 58 57  2  0
 59 61  1  0
 60 71  2  0
 61 66  1  0
 62 70  1  0
 62 72  1  0
 63 69  1  0
 63 65  1  0
 64 70  1  0
 65 64  1  0
 66 65  2  0
 67 68  1  0
 67 61  2  0
 68 63  2  0
 69 62  1  0
 70 60  1  0
 72 74  2  0
 73 72  1  0
 75 73  1  0
 76 85  2  0
 76 81  1  0
 77 73  1  0
 77 81  1  0
 78 77  1  0
 79 80  1  0
 79 78  1  0
 80 76  1  0
 81 82  2  0
 82 83  1  0
 84 83  2  0
 85 84  1  0
 86 60  1  0
 86 87  1  0
 86 96  1  0
 87 90  1  0
 88 87  1  0
 88 92  1  0
 89 88  2  0
 92 91  1  0
 92 94  1  0
 94 95  1  0
 94 93  1  0
 96 99  1  1
 96 97  1  0
 98 96  1  0
M  ISO  4   2 100  10 100  58 101  59 101
M  END
>  <TORSDO>  (30) 
F 24

>  <SCORE>  (30) 
-6.480

>  <name>  (30) 
29

>  <ligand_id>  (30) 
29

>  <original_smiles>  (30) 
[H]c1c([H])c([H])c2c(c1[H])C([H])([H])C([H])([H])C([H])([H])C2([H])N([H])C(=O)C1([H])N(C(=O)C([H])(N([H])C(=O)C([H])(N([H])C([H])([H])[H])C([H])([H])[H])C(C([H])([H])[H])(C([H])([H])[H])C([H])([H])[H])C([H])([H])c2c([H])c(OC([H])([H])C([H])([H])[N+]([H])([H])C([H])([H])C([H])([H])C([H])([H])C([H])(N([H])C(=O)N3C([H])([H])C([H])([H])C([H])([H])C([H])(n4nc(-c5c([H])c([H])c(Oc6c([H])c([H])c(F)c([H])c6F)c([H])c5[H])c(C(=O)N([H])[H])c4N([H])[H])C3([H])[H])C3([H])C([H])([H])C([H])([H])C([H])(N([H])[H])C([H])([H])[N+]3([H])[H])c([H])c([H])c2C1([H])[H]

>  <smiles>  (30) 
[H]c1c([H])c([H])c2c(c1[H])C([H])([H])C([H])([H])C([H])([H])C2([H])N([H])C(=O)C1([H])N(C(=O)C([H])(N([H])C(=O)C([H])(N([H])C([H])([H])[H])C([H])([H])[H])C(C([H])([H])[H])(C([H])([H])[H])C([H])([H])[H])C([H])([H])c2c([H])c(OC([H])([H])C([H])([H])[N+]([H])([H])C([H])([H])C([H])([H])C([H])([H])C([H])(N([H])C(=O)N3C([H])([H])C([H])([H])C([H])([H])C([H])(n4nc(-c5c([H])c([H])c(Oc6c([H])c([H])c(F)c([H])c6F)c([H])c5[H])c(C(=O)N([H])[H])c4N([H])[H])C3([H])[H])C3([H])C([H])([H])C([H])([H])C([H])(N([H])[H])C([H])([H])[N+]3([H])[H])c([H])c([H])c2C1([H])[H]

$$$$
30:0:0
     RDKit          3D

 90 98  0  0  1  0  0  0  0  0999 V2000
  -30.3850  -20.7980   19.2380 C   0  0  0  0  0  2  0  0  0  0  0  0
  -28.9820  -19.7250   20.8490 C   0  0  0  0  0  2  0  0  0  0  0  0
  -30.6850  -19.2610   19.2150 C   0  0  0  0  0  3  0  0  0  0  0  0
  -30.2270  -18.7810   20.5990 C   0  0  0  0  0  3  0  0  0  0  0  0
  -29.9620  -18.5350   18.0660 C   0  0  0  0  0  1  0  0  0  0  0  0
  -29.1790  -21.0320   20.0820 N   0  0  1  0  0  4  0  0  0  0  0  0
  -28.4070  -21.0640   19.4350 H   0  0  0  0  0  0  0  0  0  0  0  0
  -30.5020  -17.2470   21.1060 C   0  0  0  0  0  2  0  0  0  0  0  0
  -30.5990  -14.7540   20.3350 C   0  0  0  0  0  0  0  0  0  0  0  0
  -30.3280  -12.5000   19.2720 C   0  0  0  0  0  2  0  0  0  0  0  0
  -29.3790  -12.5950   18.0590 C   0  0  0  0  0  2  0  0  0  0  0  0
  -27.9160  -12.4190   18.5100 C   0  0  0  0  0  2  0  0  0  0  0  0
  -27.5590  -13.2920   19.7440 C   0  0  0  0  0  3  0  0  0  0  0  0
  -28.6360  -13.2100   20.8470 C   0  0  0  0  0  2  0  0  0  0  0  0
  -29.9210  -13.5580   20.2260 N   0  0  0  0  0  0  0  0  0  0  0  0
  -31.7910  -14.8080   20.0200 O   0  0  0  0  0  0  0  0  0  0  0  0
  -29.9080  -15.9220   20.6220 N   0  0  0  0  0  0  0  0  0  0  0  0
  -28.9140  -15.8080   20.7560 H   0  0  0  0  0  0  0  0  0  0  0  0
  -25.1780  -13.8700   20.4970 C   0  0  0  0  0  0  0  0  0  0  0  0
  -24.1190  -13.0910   20.8700 C   0  0  0  0  0  0  0  0  0  0  0  0
  -24.5860  -11.7400   20.8280 C   0  0  0  0  0  0  0  0  0  0  0  0
  -26.2220  -12.9960   20.2510 N   0  0  0  0  0  0  0  0  0  0  0  0
  -25.8750  -11.7090   20.5160 N   0  0  0  0  0  0  0  0  0  0  0  0
  -23.8660  -10.4730   21.0230 C   0  0  0  0  0  0  0  0  0  0  0  0
  -24.3030   -9.5080   21.9550 C   0  0  0  0  0  3  0  0  0  0  0  0
  -23.5840   -8.3060   22.1350 C   0  0  0  0  0  3  0  0  0  0  0  0
  -22.4080   -8.0660   21.3850 C   0  0  0  0  0  0  0  0  0  0  0  0
  -21.9890   -9.0200   20.4400 C   0  0  0  0  0  3  0  0  0  0  0  0
  -22.7120  -10.2130   20.2590 C   0  0  0  0  0  3  0  0  0  0  0  0
  -21.6590   -6.9180   21.4730 O   0  0  0  0  0  0  0  0  0  0  0  0
  -21.6110   -6.1770   22.6260 C   0  0  0  0  0  0  0  0  0  0  0  0
  -21.1780   -6.7300   23.8530 C   0  0  0  0  0  3  0  0  0  0  0  0
  -21.0810   -5.9160   24.9970 C   0  0  0  0  0  3  0  0  0  0  0  0
  -21.4050   -4.5480   24.9190 C   0  0  0  0  0  0  0  0  0  0  0  0
  -21.8280   -3.9930   23.6970 C   0  0  0  0  0  3  0  0  0  0  0  0
  -21.9300   -4.8050   22.5550 C   0  0  0  0  0  0  0  0  0  0  0  0
  -22.3180   -4.2620   21.3760 F   0  0  0  0  0  0  0  0  0  0  0  0
  -21.3030   -3.7630   26.0150 F   0  0  0  0  0  0  0  0  0  0  0  0
  -22.7220  -13.5600   21.1530 C   0  0  0  0  0  0  0  0  0  0  0  0
  -22.0020  -12.8550   22.0150 N   0  0  0  0  0  0  0  0  0  0  0  0
  -22.2780  -14.5860   20.6400 O   0  0  0  0  0  0  0  0  0  0  0  0
  -22.3700  -12.0210   22.4500 H   0  0  0  0  0  0  0  0  0  0  0  0
  -21.0630  -13.1520   22.2430 H   0  0  0  0  0  0  0  0  0  0  0  0
  -25.3280  -15.2440   20.3170 N   0  0  0  0  0  0  0  0  0  0  0  0
  -24.5450  -15.8820   20.4160 H   0  0  0  0  0  0  0  0  0  0  0  0
  -26.1570  -15.6890   19.9450 H   0  0  0  0  0  0  0  0  0  0  0  0
  -29.1000  -22.3730   20.8440 C   0  0  0  0  0  2  0  0  0  0  0  0
  -28.8450  -23.7680   20.0450 C   0  0  0  0  0  3  0  0  0  0  0  0
  -28.2470  -25.0620   20.8220 C   0  0  0  0  0  3  0  0  0  0  0  0
  -28.3720  -26.4420   20.2510 O   0  0  0  0  0  0  0  0  0  0  0  0
  -24.6020  -31.8750   23.2180 C   0  0  0  0  0  0  0  0  0  0  0  0
  -27.2530  -27.2980   20.2260 C   0  0  0  0  0  0  0  0  0  0  0  0
  -23.4160  -30.4750   21.5610 C   0  0  0  0  0  3  0  0  0  0  0  0
  -24.8910  -28.9200   20.1530 C   0  0  0  0  0  0  0  0  0  0  0  0
  -25.9570  -30.7980   21.4050 C   0  0  0  0  0  2  0  0  0  0  0  0
  -26.0500  -29.4140   20.7660 C   0  0  0  0  0  0  0  0  0  0  0  0
  -27.2370  -28.6180   20.7870 C   0  0  0  0  0  3  0  0  0  0  0  0
  -26.0760  -26.8610   19.5850 C   0  0  0  0  0  3  0  0  0  0  0  0
  -24.9090  -27.6530   19.5450 C   0  0  0  0  0  3  0  0  0  0  0  0
  -23.6540  -29.7950   20.1840 C   0  0  0  0  0  2  0  0  0  0  0  0
  -24.6750  -31.0700   22.1160 N   0  0  0  0  0  0  0  0  0  0  0  0
  -23.5150  -32.1430   23.7500 O   0  0  0  0  0  0  0  0  0  0  0  0
  -22.7480  -29.4580   22.5190 C   0  0  0  0  0  0  0  0  0  0  0  0
  -21.4210  -29.2860   22.3970 N   0  0  0  0  0  0  0  0  0  0  0  0
  -23.4270  -28.8240   23.3310 O   0  0  0  0  0  0  0  0  0  0  0  0
  -20.9330  -29.8450   21.7100 H   0  0  0  0  0  0  0  0  0  0  0  0
  -18.0380  -28.1090   22.9230 C   0  0  0  0  0  0  0  0  0  0  0  0
  -20.6010  -28.3500   23.1720 C   0  0  0  0  0  3  0  0  0  0  0  0
  -20.6880  -26.9210   22.5850 C   0  0  0  0  0  2  0  0  0  0  0  0
  -19.5750  -26.6150   21.5790 C   0  0  0  0  0  2  0  0  0  0  0  0
  -18.1990  -26.7650   22.2340 C   0  0  0  0  0  2  0  0  0  0  0  0
  -19.1650  -28.8600   23.3520 C   0  0  0  0  0  0  0  0  0  0  0  0
  -18.9590  -30.1180   23.9580 C   0  0  0  0  0  3  0  0  0  0  0  0
  -17.6580  -30.6270   24.1360 C   0  0  0  0  0  3  0  0  0  0  0  0
  -16.5450  -29.8730   23.7220 C   0  0  0  0  0  3  0  0  0  0  0  0
  -16.7360  -28.6170   23.1220 C   0  0  0  0  0  3  0  0  0  0  0  0
  -25.8780  -32.5140   23.8490 C   0  0  0  0  0  3  0  0  0  0  0  0
  -26.3870  -31.7500   25.1330 C   0  0  1  0  0  0  0  0  0  0  0  0
  -25.2840  -31.5190   26.1930 C   0  0  0  0  0  1  0  0  0  0  0  0
  -26.9740  -30.3710   24.7570 C   0  0  0  0  0  1  0  0  0  0  0  0
  -27.5350  -32.5470   25.7960 C   0  0  0  0  0  1  0  0  0  0  0  0
  -25.5620  -33.9120   24.1760 N   0  0  0  0  0  0  0  0  0  0  0  0
  -25.8990  -34.9640   23.4180 C   0  0  0  0  0  0  0  0  0  0  0  0
  -26.5760  -34.8580   22.3920 O   0  0  0  0  0  0  0  0  0  0  0  0
  -24.9610  -34.0650   24.9730 H   0  0  0  0  0  0  0  0  0  0  0  0
  -24.1790  -36.7610   23.0430 C   0  0  0  0  0  1  0  0  0  0  0  0
  -25.4080  -36.3540   23.8710 C   0  0  0  0  0  3  0  0  0  0  0  0
  -27.5330  -37.2380   24.7300 C   0  0  0  0  0  1  0  0  0  0  0  0
  -26.4440  -37.4050   23.7720 N   0  0  0  0  0  0  0  0  0  0  0  0
  -26.0370  -38.3250   23.9140 H   0  0  0  0  0  0  0  0  0  0  0  0
  1  6  1  0
  3  5  1  0
  3  1  1  0
  3  4  1  0
  4  2  1  0
  4  8  1  0
  6 47  1  0
  6  2  1  0
  6  7  1  6
  9 17  1  0
 10 15  1  0
 11 12  1  0
 11 10  1  0
 13 12  1  0
 13 22  1  0
 13 14  1  0
 15  9  1  0
 15 14  1  0
 16  9  2  0
 17 18  1  0
 17  8  1  0
 19 20  2  0
 20 39  1  0
 21 20  1  0
 21 24  1  0
 22 19  1  0
 22 23  1  0
 23 21  2  0
 24 25  1  0
 25 26  2  0
 27 30  1  0
 27 26  1  0
 28 27  2  0
 29 28  1  0
 29 24  2  0
 30 31  1  0
 31 32  1  0
 32 33  2  0
 34 33  1  0
 34 38  1  0
 35 34  2  0
 36 31  2  0
 36 35  1  0
 37 36  1  0
 39 40  1  0
 40 43  1  0
 40 42  1  0
 41 39  2  0
 44 45  1  0
 44 19  1  0
 46 44  1  0
 48 49  2  0
 48 47  1  0
 50 49  1  0
 51 62  2  0
 52 50  1  0
 52 57  1  0
 53 61  1  0
 53 63  1  0
 54 60  1  0
 54 56  1  0
 55 61  1  0
 56 57  2  0
 56 55  1  0
 58 52  2  0
 59 58  1  0
 59 54  2  0
 60 53  1  0
 61 51  1  0
 63 65  2  0
 64 63  1  0
 66 64  1  0
 67 76  2  0
 67 72  1  0
 68 64  1  0
 68 72  1  0
 69 68  1  0
 70 71  1  0
 70 69  1  0
 71 67  1  0
 72 73  2  0
 73 74  1  0
 75 74  2  0
 76 75  1  0
 77 51  1  0
 77 82  1  0
 77 78  1  0
 78 81  1  1
 78 79  1  0
 80 78  1  0
 82 85  1  0
 83 87  1  0
 83 82  1  0
 84 83  2  0
 87 86  1  0
 89 87  1  0
 89 90  1  0
 89 88  1  0
M  ISO  4   9 100  17 100  49 101  50 101
M  END
>  <TORSDO>  (31) 
F 20

>  <SCORE>  (31) 
-13.768

>  <name>  (31) 
30

>  <ligand_id>  (31) 
30

>  <original_smiles>  (31) 
[H]c1c([H])c([H])c2c(c1[H])C([H])([H])C([H])([H])C([H])([H])C2([H])N([H])C(=O)C1([H])N(C(=O)C([H])(N([H])C(=O)C([H])(N([H])C([H])([H])[H])C([H])([H])[H])C(C([H])([H])[H])(C([H])([H])[H])C([H])([H])[H])C([H])([H])c2c([H])c(OC([H])([H])C([H])([H])C([H])([H])[N+]3([H])C([H])([H])C([H])(C([H])([H])[H])C([H])(C([H])([H])N([H])C(=O)N4C([H])([H])C([H])([H])C([H])([H])C([H])(n5nc(-c6c([H])c([H])c(Oc7c([H])c([H])c(F)c([H])c7F)c([H])c6[H])c(C(=O)N([H])[H])c5N([H])[H])C4([H])[H])C3([H])[H])c([H])c([H])c2C1([H])[H]

>  <smiles>  (31) 
[H]c1c([H])c([H])c2c(c1[H])C([H])([H])C([H])([H])C([H])([H])C2([H])N([H])C(=O)C1([H])N(C(=O)C([H])(N([H])C(=O)C([H])(N([H])C([H])([H])[H])C([H])([H])[H])C(C([H])([H])[H])(C([H])([H])[H])C([H])([H])[H])C([H])([H])c2c([H])c(OC([H])([H])C([H])([H])C([H])([H])[N+]3([H])C([H])([H])C([H])(C([H])([H])[H])C([H])(C([H])([H])N([H])C(=O)N4C([H])([H])C([H])([H])C([H])([H])C([H])(n5nc(-c6c([H])c([H])c(Oc7c([H])c([H])c(F)c([H])c7F)c([H])c6[H])c(C(=O)N([H])[H])c5N([H])[H])C4([H])[H])C3([H])[H])c([H])c([H])c2C1([H])[H]

$$$$
31:0:0
     RDKit          3D

 96104  0  0  1  0  0  0  0  0999 V2000
  -30.3630  -20.7390   20.7290 C   0  0  0  0  0  2  0  0  0  0  0  0
  -28.0190  -20.5650   20.0130 C   0  0  0  0  0  2  0  0  0  0  0  0
  -30.3760  -22.2240   20.2420 C   0  0  0  0  0  2  0  0  0  0  0  0
  -28.0510  -22.0590   19.5480 C   0  0  0  0  0  2  0  0  0  0  0  0
  -29.3830  -19.8140   19.9650 C   0  0  0  0  0  3  0  0  0  0  0  0
  -29.0420  -22.8980   20.2890 N   0  0  2  0  0  4  0  0  0  0  0  0
  -28.7660  -22.8980   21.2620 H   0  0  0  0  0  0  0  0  0  0  0  0
  -29.2260  -18.3040   20.4610 C   0  0  0  0  0  2  0  0  0  0  0  0
  -30.4200  -17.2470   20.4940 C   0  0  0  0  0  3  0  0  0  0  0  0
  -30.6370  -14.7230   20.0760 C   0  0  0  0  0  0  0  0  0  0  0  0
  -30.3760  -12.4400   19.1460 C   0  0  0  0  0  2  0  0  0  0  0  0
  -29.3970  -12.4890   17.9540 C   0  0  0  0  0  2  0  0  0  0  0  0
  -27.9440  -12.3350   18.4430 C   0  0  0  0  0  2  0  0  0  0  0  0
  -27.6100  -13.2700   19.6370 C   0  0  0  0  0  3  0  0  0  0  0  0
  -28.7070  -13.2150   20.7240 C   0  0  0  0  0  2  0  0  0  0  0  0
  -29.9920  -13.5170   20.0780 N   0  0  0  0  0  0  0  0  0  0  0  0
  -31.7690  -14.8500   19.6030 O   0  0  0  0  0  0  0  0  0  0  0  0
  -29.9350  -15.8220   20.4760 N   0  0  0  0  0  0  0  0  0  0  0  0
  -28.9950  -15.6510   20.7970 H   0  0  0  0  0  0  0  0  0  0  0  0
  -25.2640  -13.8730   20.4950 C   0  0  0  0  0  0  0  0  0  0  0  0
  -24.2080  -13.0990   20.8980 C   0  0  0  0  0  0  0  0  0  0  0  0
  -24.6530  -11.7450   20.8080 C   0  0  0  0  0  0  0  0  0  0  0  0
  -26.2850  -12.9890   20.1850 N   0  0  0  0  0  0  0  0  0  0  0  0
  -25.9260  -11.7030   20.4330 N   0  0  0  0  0  0  0  0  0  0  0  0
  -23.9240  -10.4850   21.0020 C   0  0  0  0  0  0  0  0  0  0  0  0
  -24.3760   -9.5020   21.9090 C   0  0  0  0  0  3  0  0  0  0  0  0
  -23.6450   -8.3080   22.0930 C   0  0  0  0  0  3  0  0  0  0  0  0
  -22.4510   -8.0870   21.3680 C   0  0  0  0  0  0  0  0  0  0  0  0
  -22.0180   -9.0580   20.4480 C   0  0  0  0  0  3  0  0  0  0  0  0
  -22.7480  -10.2450   20.2620 C   0  0  0  0  0  3  0  0  0  0  0  0
  -21.6910   -6.9460   21.4610 O   0  0  0  0  0  0  0  0  0  0  0  0
  -21.6610   -6.1930   22.6070 C   0  0  0  0  0  0  0  0  0  0  0  0
  -21.2350   -6.7310   23.8410 C   0  0  0  0  0  3  0  0  0  0  0  0
  -21.1550   -5.9030   24.9790 C   0  0  0  0  0  3  0  0  0  0  0  0
  -21.4900   -4.5390   24.8840 C   0  0  0  0  0  0  0  0  0  0  0  0
  -21.9080   -4.0010   23.6540 C   0  0  0  0  0  3  0  0  0  0  0  0
  -21.9900   -4.8260   22.5180 C   0  0  0  0  0  0  0  0  0  0  0  0
  -22.3740   -4.2970   21.3310 F   0  0  0  0  0  0  0  0  0  0  0  0
  -21.4040   -3.7420   25.9740 F   0  0  0  0  0  0  0  0  0  0  0  0
  -22.8320  -13.5830   21.2540 C   0  0  0  0  0  0  0  0  0  0  0  0
  -22.1410  -12.8680   22.1360 N   0  0  0  0  0  0  0  0  0  0  0  0
  -22.3810  -14.6270   20.7870 O   0  0  0  0  0  0  0  0  0  0  0  0
  -22.5190  -12.0220   22.5330 H   0  0  0  0  0  0  0  0  0  0  0  0
  -21.2200  -13.1720   22.4170 H   0  0  0  0  0  0  0  0  0  0  0  0
  -25.4330  -15.2460   20.3440 N   0  0  0  0  0  0  0  0  0  0  0  0
  -24.6780  -15.9020   20.5110 H   0  0  0  0  0  0  0  0  0  0  0  0
  -26.2670  -15.6860   19.9760 H   0  0  0  0  0  0  0  0  0  0  0  0
  -31.3210  -17.3760   21.7650 C   0  0  0  0  0  2  0  0  0  0  0  0
  -32.1230  -18.6740   21.9940 C   0  0  0  0  0  2  0  0  0  0  0  0
  -33.0000  -19.0270   20.8590 N   0  0  0  0  0  4  0  0  0  0  0  0
  -33.6550  -18.2880   20.6730 H   0  0  0  0  0  0  0  0  0  0  0  0
  -33.5300  -19.8510   21.0810 H   0  0  0  0  0  0  0  0  0  0  0  0
  -32.4780  -19.2100   20.0210 H   0  0  0  0  0  0  0  0  0  0  0  0
  -29.1000  -24.3510   19.8450 C   0  0  0  0  0  3  0  0  0  0  0  0
  -28.1760  -25.3660   20.6130 C   0  0  0  0  0  3  0  0  0  0  0  0
  -28.3420  -26.7780   20.2450 O   0  0  0  0  0  0  0  0  0  0  0  0
  -24.5770  -32.0560   23.3410 C   0  0  0  0  0  0  0  0  0  0  0  0
  -27.2000  -27.5720   20.2450 C   0  0  0  0  0  0  0  0  0  0  0  0
  -23.3670  -30.6550   21.7050 C   0  0  0  0  0  3  0  0  0  0  0  0
  -24.8170  -29.1240   20.2610 C   0  0  0  0  0  0  0  0  0  0  0  0
  -25.8960  -31.0060   21.4960 C   0  0  0  0  0  2  0  0  0  0  0  0
  -25.9820  -29.6340   20.8470 C   0  0  0  0  0  0  0  0  0  0  0  0
  -27.1810  -28.8700   20.8280 C   0  0  0  0  0  3  0  0  0  0  0  0
  -26.0180  -27.1030   19.6320 C   0  0  0  0  0  3  0  0  0  0  0  0
  -24.8330  -27.8620   19.6450 C   0  0  0  0  0  3  0  0  0  0  0  0
  -23.5720  -29.9830   20.3210 C   0  0  0  0  0  2  0  0  0  0  0  0
  -24.6330  -31.2550   22.2380 N   0  0  0  0  0  0  0  0  0  0  0  0
  -23.4980  -32.3240   23.8870 O   0  0  0  0  0  0  0  0  0  0  0  0
  -22.7220  -29.6300   22.6670 C   0  0  0  0  0  0  0  0  0  0  0  0
  -21.4040  -29.4180   22.5250 N   0  0  0  0  0  0  0  0  0  0  0  0
  -23.4080  -29.0270   23.4960 O   0  0  0  0  0  0  0  0  0  0  0  0
  -20.9110  -29.9580   21.8270 H   0  0  0  0  0  0  0  0  0  0  0  0
  -18.0550  -28.1290   22.9690 C   0  0  0  0  0  0  0  0  0  0  0  0
  -20.5970  -28.4690   23.2930 C   0  0  0  0  0  3  0  0  0  0  0  0
  -20.7560  -27.0320   22.7440 C   0  0  0  0  0  2  0  0  0  0  0  0
  -19.6880  -26.6600   21.7110 C   0  0  0  0  0  2  0  0  0  0  0  0
  -18.2870  -26.7740   22.3210 C   0  0  0  0  0  2  0  0  0  0  0  0
  -19.1410  -28.9310   23.4100 C   0  0  0  0  0  0  0  0  0  0  0  0
  -18.8710  -30.1980   23.9740 C   0  0  0  0  0  3  0  0  0  0  0  0
  -17.5480  -30.6620   24.1020 C   0  0  0  0  0  3  0  0  0  0  0  0
  -16.4770  -29.8570   23.6770 C   0  0  0  0  0  3  0  0  0  0  0  0
  -16.7320  -28.5930   23.1150 C   0  0  0  0  0  3  0  0  0  0  0  0
  -25.8640  -32.6900   23.9560 C   0  0  0  0  0  3  0  0  0  0  0  0
  -26.3720  -31.9380   25.2480 C   0  0  1  0  0  0  0  0  0  0  0  0
  -25.2650  -31.6980   26.3020 C   0  0  0  0  0  1  0  0  0  0  0  0
  -26.9760  -30.5630   24.8770 C   0  0  0  0  0  1  0  0  0  0  0  0
  -27.5060  -32.7520   25.9150 C   0  0  0  0  0  1  0  0  0  0  0  0
  -25.5640  -34.0960   24.2570 N   0  0  0  0  0  0  0  0  0  0  0  0
  -25.9070  -35.1310   23.4790 C   0  0  0  0  0  0  0  0  0  0  0  0
  -26.5790  -35.0030   22.4520 O   0  0  0  0  0  0  0  0  0  0  0  0
  -24.9680  -34.2700   25.0530 H   0  0  0  0  0  0  0  0  0  0  0  0
  -24.1880  -36.9270   23.0900 C   0  0  0  0  0  1  0  0  0  0  0  0
  -25.4280  -36.5320   23.9080 C   0  0  0  0  0  3  0  0  0  0  0  0
  -27.5660  -37.4220   24.7220 C   0  0  0  0  0  1  0  0  0  0  0  0
  -26.4670  -37.5760   23.7720 N   0  0  0  0  0  0  0  0  0  0  0  0
  -26.0660  -38.5010   23.8990 H   0  0  0  0  0  0  0  0  0  0  0  0
  3  6  1  0
  3  1  1  0
  4  2  1  0
  4  6  1  0
  5  2  1  0
  5  8  1  0
  5  1  1  0
  6  7  1  1
  9  8  1  0
  9 48  1  0
 10 16  1  0
 10 18  1  0
 11 16  1  0
 12 13  1  0
 12 11  1  0
 14 13  1  0
 14 23  1  0
 14 15  1  0
 16 15  1  0
 17 10  2  0
 18  9  1  0
 18 19  1  0
 20 21  2  0
 21 40  1  0
 22 21  1  0
 22 25  1  0
 23 24  1  0
 23 20  1  0
 24 22  2  0
 25 26  1  0
 26 27  2  0
 28 31  1  0
 28 27  1  0
 29 28  2  0
 30 29  1  0
 30 25  2  0
 31 32  1  0
 32 33  1  0
 33 34  2  0
 35 34  1  0
 35 39  1  0
 36 35  2  0
 37 32  2  0
 37 36  1  0
 38 37  1  0
 40 41  1  0
 41 44  1  0
 41 43  1  0
 42 40  2  0
 45 20  1  0
 45 46  1  0
 47 45  1  0
 48 49  1  0
 50 52  1  0
 50 49  1  0
 51 50  1  0
 53 50  1  0
 54  6  1  0
 54 55  2  0
 56 58  1  0
 56 55  1  0
 57 68  2  0
 58 63  1  0
 59 67  1  0
 59 69  1  0
 60 66  1  0
 60 62  1  0
 61 67  1  0
 62 61  1  0
 63 62  2  0
 64 65  1  0
 64 58  2  0
 65 60  2  0
 66 59  1  0
 67 57  1  0
 69 71  2  0
 70 69  1  0
 72 70  1  0
 73 82  2  0
 73 78  1  0
 74 70  1  0
 74 78  1  0
 75 74  1  0
 76 77  1  0
 76 75  1  0
 77 73  1  0
 78 79  2  0
 79 80  1  0
 81 80  2  0
 82 81  1  0
 83 57  1  0
 83 88  1  0
 83 84  1  0
 84 87  1  1
 84 85  1  0
 86 84  1  0
 88 91  1  0
 89 93  1  0
 89 88  1  0
 90 89  2  0
 93 92  1  0
 95 96  1  0
 95 93  1  0
 95 94  1  0
M  ISO  4  10 100  18 100  55 101  56 101
M  END
>  <TORSDO>  (32) 
F 23

>  <SCORE>  (32) 
-12.780

>  <name>  (32) 
31

>  <ligand_id>  (32) 
31

>  <original_smiles>  (32) 
[H]c1c([H])c([H])c2c(c1[H])C([H])([H])C([H])([H])C([H])([H])C2([H])N([H])C(=O)C1([H])N(C(=O)C([H])(N([H])C(=O)C([H])(N([H])C([H])([H])[H])C([H])([H])[H])C(C([H])([H])[H])(C([H])([H])[H])C([H])([H])[H])C([H])([H])c2c([H])c(OC([H])([H])C([H])([H])[N+]3([H])C([H])([H])C([H])([H])C([H])(C([H])([H])C([H])(N([H])C(=O)N4C([H])([H])C([H])([H])C([H])([H])C([H])(n5nc(-c6c([H])c([H])c(Oc7c([H])c([H])c(F)c([H])c7F)c([H])c6[H])c(C(=O)N([H])[H])c5N([H])[H])C4([H])[H])C([H])([H])C([H])([H])[N+]([H])([H])[H])C([H])([H])C3([H])[H])c([H])c([H])c2C1([H])[H]

>  <smiles>  (32) 
[H]c1c([H])c([H])c2c(c1[H])C([H])([H])C([H])([H])C([H])([H])C2([H])N([H])C(=O)C1([H])N(C(=O)C([H])(N([H])C(=O)C([H])(N([H])C([H])([H])[H])C([H])([H])[H])C(C([H])([H])[H])(C([H])([H])[H])C([H])([H])[H])C([H])([H])c2c([H])c(OC([H])([H])C([H])([H])[N+]3([H])C([H])([H])C([H])([H])C([H])(C([H])([H])C([H])(N([H])C(=O)N4C([H])([H])C([H])([H])C([H])([H])C([H])(n5nc(-c6c([H])c([H])c(Oc7c([H])c([H])c(F)c([H])c7F)c([H])c6[H])c(C(=O)N([H])[H])c5N([H])[H])C4([H])[H])C([H])([H])C([H])([H])[N+]([H])([H])[H])C([H])([H])C3([H])[H])c([H])c([H])c2C1([H])[H]

$$$$
32:0:0
     RDKit          3D

 96105  0  0  1  0  0  0  0  0999 V2000
  -32.0130  -21.4040   22.6870 C   0  0  0  0  0  2  0  0  0  0  0  0
  -30.8570  -19.9100   20.3040 C   0  0  0  0  0  2  0  0  0  0  0  0
  -31.1970  -22.6500   22.3160 C   0  0  0  0  0  2  0  0  0  0  0  0
  -31.0490  -20.2630   22.3920 C   0  0  0  0  0  3  0  0  0  0  0  0
  -30.0950  -20.7840   21.3120 C   0  0  0  0  0  3  0  0  0  0  0  0
  -31.3410  -19.0290   21.4830 C   0  0  2  0  0  0  0  0  0  0  0  0
  -30.3490  -22.2460   21.1670 N   0  0  1  0  0  4  0  0  0  0  0  0
  -30.9120  -22.3620   20.3370 H   0  0  0  0  0  0  0  0  0  0  0  0
  -32.7960  -18.7160   21.3830 N   0  0  0  0  0  4  0  0  0  0  0  0
  -33.3530  -19.5150   21.1370 H   0  0  0  0  0  0  0  0  0  0  0  0
  -32.9710  -18.0140   20.6840 H   0  0  0  0  0  0  0  0  0  0  0  0
  -33.1540  -18.3590   22.2520 H   0  0  0  0  0  0  0  0  0  0  0  0
  -30.5720  -17.7210   21.8120 C   0  0  0  0  0  2  0  0  0  0  0  0
  -30.1970  -16.8760   20.5750 C   0  0  0  0  0  2  0  0  0  0  0  0
  -30.6460  -14.4370   20.4410 C   0  0  0  0  0  0  0  0  0  0  0  0
  -30.3350  -12.2940   19.2840 C   0  0  0  0  0  2  0  0  0  0  0  0
  -29.3940  -12.5290   18.0830 C   0  0  0  0  0  2  0  0  0  0  0  0
  -27.9200  -12.3950   18.5120 C   0  0  0  0  0  2  0  0  0  0  0  0
  -27.5880  -13.2170   19.7860 C   0  0  0  0  0  3  0  0  0  0  0  0
  -28.6430  -12.9750   20.8910 C   0  0  0  0  0  2  0  0  0  0  0  0
  -29.9710  -13.2630   20.3260 N   0  0  0  0  0  0  0  0  0  0  0  0
  -31.7750  -14.6180   19.9820 O   0  0  0  0  0  0  0  0  0  0  0  0
  -29.9130  -15.4700   20.8870 N   0  0  0  0  0  0  0  0  0  0  0  0
  -28.9930  -15.2500   21.2400 H   0  0  0  0  0  0  0  0  0  0  0  0
  -25.1830  -13.8230   20.4790 C   0  0  0  0  0  0  0  0  0  0  0  0
  -24.1170  -13.0500   20.8510 C   0  0  0  0  0  0  0  0  0  0  0  0
  -24.5830  -11.7000   20.8320 C   0  0  0  0  0  0  0  0  0  0  0  0
  -26.2330  -12.9440   20.2610 N   0  0  0  0  0  0  0  0  0  0  0  0
  -25.8730  -11.6630   20.5280 N   0  0  0  0  0  0  0  0  0  0  0  0
  -23.8610  -10.4370   21.0280 C   0  0  0  0  0  0  0  0  0  0  0  0
  -24.3020   -9.4730   21.9620 C   0  0  0  0  0  3  0  0  0  0  0  0
  -23.5820   -8.2730   22.1470 C   0  0  0  0  0  3  0  0  0  0  0  0
  -22.4050   -8.0290   21.3990 C   0  0  0  0  0  0  0  0  0  0  0  0
  -21.9830   -8.9830   20.4550 C   0  0  0  0  0  3  0  0  0  0  0  0
  -22.7040  -10.1730   20.2680 C   0  0  0  0  0  3  0  0  0  0  0  0
  -21.6550   -6.8820   21.4930 O   0  0  0  0  0  0  0  0  0  0  0  0
  -21.6240   -6.1350   22.6440 C   0  0  0  0  0  0  0  0  0  0  0  0
  -21.2230   -6.6880   23.8800 C   0  0  0  0  0  3  0  0  0  0  0  0
  -21.1390   -5.8670   25.0230 C   0  0  0  0  0  3  0  0  0  0  0  0
  -21.4450   -4.4960   24.9310 C   0  0  0  0  0  0  0  0  0  0  0  0
  -21.8390   -3.9440   23.7000 C   0  0  0  0  0  3  0  0  0  0  0  0
  -21.9260   -4.7610   22.5580 C   0  0  0  0  0  0  0  0  0  0  0  0
  -22.2850   -4.2190   21.3700 F   0  0  0  0  0  0  0  0  0  0  0  0
  -21.3570   -3.7070   26.0270 F   0  0  0  0  0  0  0  0  0  0  0  0
  -22.7170  -13.5250   21.1150 C   0  0  0  0  0  0  0  0  0  0  0  0
  -21.9900  -12.8310   21.9840 N   0  0  0  0  0  0  0  0  0  0  0  0
  -22.2760  -14.5450   20.5870 O   0  0  0  0  0  0  0  0  0  0  0  0
  -22.3580  -12.0070   22.4330 H   0  0  0  0  0  0  0  0  0  0  0  0
  -21.0500  -13.1300   22.2040 H   0  0  0  0  0  0  0  0  0  0  0  0
  -25.3430  -15.1930   20.2900 N   0  0  0  0  0  0  0  0  0  0  0  0
  -24.5690  -15.8430   20.3830 H   0  0  0  0  0  0  0  0  0  0  0  0
  -26.1880  -15.6330   19.9500 H   0  0  0  0  0  0  0  0  0  0  0  0
  -29.1230  -23.0580   20.9540 C   0  0  0  0  0  2  0  0  0  0  0  0
  -29.3930  -24.5650   20.7140 C   0  0  0  0  0  2  0  0  0  0  0  0
  -28.1490  -25.2800   20.1630 C   0  0  0  0  0  2  0  0  0  0  0  0
  -28.2990  -26.7030   20.1720 O   0  0  0  0  0  0  0  0  0  0  0  0
  -24.5470  -31.9070   23.2230 C   0  0  0  0  0  0  0  0  0  0  0  0
  -27.1290  -27.4340   20.1430 C   0  0  0  0  0  0  0  0  0  0  0  0
  -23.3130  -30.5020   21.6020 C   0  0  0  0  0  3  0  0  0  0  0  0
  -24.7410  -28.9510   20.1700 C   0  0  0  0  0  0  0  0  0  0  0  0
  -25.8380  -30.8460   21.3740 C   0  0  0  0  0  2  0  0  0  0  0  0
  -25.9070  -29.4730   20.7410 C   0  0  0  0  0  0  0  0  0  0  0  0
  -27.1040  -28.7210   20.7240 C   0  0  0  0  0  3  0  0  0  0  0  0
  -25.9430  -26.9310   19.5550 C   0  0  0  0  0  3  0  0  0  0  0  0
  -24.7530  -27.6790   19.5740 C   0  0  0  0  0  3  0  0  0  0  0  0
  -23.5040  -29.8170   20.2230 C   0  0  0  0  0  2  0  0  0  0  0  0
  -24.5850  -31.0990   22.1240 N   0  0  0  0  0  0  0  0  0  0  0  0
  -23.4730  -32.1900   23.7720 O   0  0  0  0  0  0  0  0  0  0  0  0
  -22.6660  -29.4900   22.5750 C   0  0  0  0  0  0  0  0  0  0  0  0
  -21.3400  -29.3130   22.4570 N   0  0  0  0  0  0  0  0  0  0  0  0
  -23.3520  -28.8670   23.3880 O   0  0  0  0  0  0  0  0  0  0  0  0
  -20.8490  -29.8700   21.7710 H   0  0  0  0  0  0  0  0  0  0  0  0
  -17.9630  -28.1410   22.9800 C   0  0  0  0  0  0  0  0  0  0  0  0
  -20.5230  -28.3860   23.2390 C   0  0  0  0  0  3  0  0  0  0  0  0
  -20.6150  -26.9510   22.6740 C   0  0  0  0  0  2  0  0  0  0  0  0
  -19.5070  -26.6250   21.6670 C   0  0  0  0  0  2  0  0  0  0  0  0
  -18.1290  -26.7840   22.3160 C   0  0  0  0  0  2  0  0  0  0  0  0
  -19.0870  -28.9000   23.3980 C   0  0  0  0  0  0  0  0  0  0  0  0
  -18.8800  -30.1710   23.9780 C   0  0  0  0  0  3  0  0  0  0  0  0
  -17.5800  -30.6830   24.1440 C   0  0  0  0  0  3  0  0  0  0  0  0
  -16.4690  -29.9200   23.7430 C   0  0  0  0  0  3  0  0  0  0  0  0
  -16.6610  -28.6510   23.1670 C   0  0  0  0  0  3  0  0  0  0  0  0
  -25.8440  -32.5300   23.8250 C   0  0  0  0  0  3  0  0  0  0  0  0
  -25.5460  -33.9270   24.1650 N   0  0  0  0  0  0  0  0  0  0  0  0
  -25.8750  -34.9800   23.4050 C   0  0  0  0  0  0  0  0  0  0  0  0
  -26.5360  -34.8780   22.3680 O   0  0  0  0  0  0  0  0  0  0  0  0
  -24.9600  -34.0810   24.9730 H   0  0  0  0  0  0  0  0  0  0  0  0
  -24.1540  -36.7820   23.0670 C   0  0  0  0  0  1  0  0  0  0  0  0
  -25.3960  -36.3690   23.8720 C   0  0  0  0  0  3  0  0  0  0  0  0
  -27.5400  -37.2350   24.6980 C   0  0  0  0  0  1  0  0  0  0  0  0
  -26.4340  -37.4170   23.7610 N   0  0  0  0  0  0  0  0  0  0  0  0
  -26.0330  -38.3380   23.9170 H   0  0  0  0  0  0  0  0  0  0  0  0
  -26.3810  -31.7500   25.0870 C   0  0  1  0  0  0  0  0  0  0  0  0
  -25.3050  -31.5090   26.1720 C   0  0  0  0  0  1  0  0  0  0  0  0
  -26.9520  -30.3740   24.6730 C   0  0  0  0  0  1  0  0  0  0  0  0
  -27.5450  -32.5370   25.7350 C   0  0  0  0  0  1  0  0  0  0  0  0
  2  6  1  0
  3  1  1  0
  4  1  1  0
  5  2  1  0
  5  4  1  0
  6 13  1  1
  6  4  1  0
  7  5  1  0
  7  3  1  0
  7  8  1  6
  9  6  1  0
  9 12  1  0
 10  9  1  0
 11  9  1  0
 14 23  1  0
 14 13  1  0
 15 23  1  0
 16 21  1  0
 17 18  1  0
 17 16  1  0
 19 18  1  0
 19 28  1  0
 19 20  1  0
 21 15  1  0
 21 20  1  0
 22 15  2  0
 23 24  1  0
 25 26  2  0
 26 45  1  0
 27 26  1  0
 27 30  1  0
 28 25  1  0
 28 29  1  0
 29 27  2  0
 30 31  1  0
 31 32  2  0
 33 36  1  0
 33 32  1  0
 34 33  2  0
 35 34  1  0
 35 30  2  0
 36 37  1  0
 37 38  1  0
 38 39  2  0
 40 39  1  0
 40 44  1  0
 41 40  2  0
 42 37  2  0
 42 41  1  0
 43 42  1  0
 45 46  1  0
 46 49  1  0
 46 48  1  0
 47 45  2  0
 50 51  1  0
 50 25  1  0
 52 50  1  0
 53  7  1  0
 54 53  1  0
 55 56  1  0
 55 54  1  0
 57 68  2  0
 58 56  1  0
 58 63  1  0
 59 67  1  0
 59 69  1  0
 60 66  1  0
 60 62  1  0
 61 67  1  0
 62 61  1  0
 63 62  2  0
 64 65  1  0
 64 58  2  0
 65 60  2  0
 66 59  1  0
 67 57  1  0
 69 71  2  0
 70 69  1  0
 72 70  1  0
 73 82  2  0
 73 78  1  0
 74 70  1  0
 74 78  1  0
 75 74  1  0
 76 77  1  0
 76 75  1  0
 77 73  1  0
 78 79  2  0
 79 80  1  0
 81 80  2  0
 82 81  1  0
 83 57  1  0
 83 84  1  0
 83 93  1  0
 84 87  1  0
 85 89  1  0
 85 84  1  0
 86 85  2  0
 89 88  1  0
 91 89  1  0
 91 92  1  0
 91 90  1  0
 93 96  1  1
 93 94  1  0
 95 93  1  0
M  ISO  4  15 100  23 100  55 101  56 101
M  END
>  <TORSDO>  (33) 
F 22

>  <SCORE>  (33) 
-12.986

>  <name>  (33) 
32

>  <ligand_id>  (33) 
32

>  <original_smiles>  (33) 
[H]c1c([H])c([H])c2c(c1[H])C([H])([H])C([H])([H])C([H])([H])C2([H])N([H])C(=O)C1([H])N(C(=O)C([H])(N([H])C(=O)C([H])(N([H])C([H])([H])[H])C([H])([H])[H])C(C([H])([H])[H])(C([H])([H])[H])C([H])([H])[H])C([H])([H])c2c([H])c(OC([H])([H])C([H])([H])C([H])([H])[N+]3([H])C([H])([H])C([H])([H])C4([H])C(C([H])([H])C([H])([H])N([H])C(=O)N5C([H])([H])C([H])([H])C([H])([H])C([H])(n6nc(-c7c([H])c([H])c(Oc8c([H])c([H])c(F)c([H])c8F)c([H])c7[H])c(C(=O)N([H])[H])c6N([H])[H])C5([H])[H])([N+]([H])([H])[H])C([H])([H])C43[H])c([H])c([H])c2C1([H])[H]

>  <smiles>  (33) 
[H]c1c([H])c([H])c2c(c1[H])C([H])([H])C([H])([H])C([H])([H])C2([H])N([H])C(=O)C1([H])N(C(=O)C([H])(N([H])C(=O)C([H])(N([H])C([H])([H])[H])C([H])([H])[H])C(C([H])([H])[H])(C([H])([H])[H])C([H])([H])[H])C([H])([H])c2c([H])c(OC([H])([H])C([H])([H])C([H])([H])[N+]3([H])C([H])([H])C([H])([H])C4([H])C(C([H])([H])C([H])([H])N([H])C(=O)N5C([H])([H])C([H])([H])C([H])([H])C([H])(n6nc(-c7c([H])c([H])c(Oc8c([H])c([H])c(F)c([H])c8F)c([H])c7[H])c(C(=O)N([H])[H])c6N([H])[H])C5([H])[H])([N+]([H])([H])[H])C([H])([H])C43[H])c([H])c([H])c2C1([H])[H]

$$$$
33:0:0
     RDKit          3D

 93102  0  0  1  0  0  0  0  0999 V2000
  -30.0140  -23.2810   19.3650 C   0  0  0  0  0  2  0  0  0  0  0  0
  -29.7670  -20.5700   19.1520 C   0  0  0  0  0  2  0  0  0  0  0  0
  -28.8950  -21.1200   21.3730 C   0  0  0  0  0  2  0  0  0  0  0  0
  -29.1770  -22.0020   19.1160 C   0  0  0  0  0  3  0  0  0  0  0  0
  -28.4690  -22.2870   20.4200 C   0  0  0  0  0  3  0  0  0  0  0  0
  -28.9900  -23.7990   20.4020 C   0  0  0  0  0  3  0  0  0  0  0  0
  -29.8280  -20.0590   20.6320 C   0  0  2  0  0  0  0  0  0  0  0  0
  -31.2030  -20.2430   21.1460 N   0  0  0  0  0  4  0  0  0  0  0  0
  -31.4740  -21.2080   21.0860 H   0  0  0  0  0  0  0  0  0  0  0  0
  -31.8690  -19.7080   20.6160 H   0  0  0  0  0  0  0  0  0  0  0  0
  -31.2690  -19.9650   22.1090 H   0  0  0  0  0  0  0  0  0  0  0  0
  -28.0010  -24.9920   20.0080 C   0  0  0  0  0  2  0  0  0  0  0  0
  -28.2940  -26.4470   20.1910 O   0  0  0  0  0  0  0  0  0  0  0  0
  -24.5990  -31.8960   23.2170 C   0  0  0  0  0  0  0  0  0  0  0  0
  -27.1980  -27.3380   20.1280 C   0  0  0  0  0  0  0  0  0  0  0  0
  -23.3940  -30.5120   21.5690 C   0  0  0  0  0  3  0  0  0  0  0  0
  -24.8410  -28.9770   20.1270 C   0  0  0  0  0  0  0  0  0  0  0  0
  -25.9370  -30.8260   21.3860 C   0  0  0  0  0  2  0  0  0  0  0  0
  -26.0150  -29.4520   20.7270 C   0  0  0  0  0  0  0  0  0  0  0  0
  -27.1960  -28.6460   20.7160 C   0  0  0  0  0  3  0  0  0  0  0  0
  -25.9980  -26.9340   19.4940 C   0  0  0  0  0  3  0  0  0  0  0  0
  -24.8380  -27.7250   19.5020 C   0  0  0  0  0  3  0  0  0  0  0  0
  -23.6050  -29.8490   20.1840 C   0  0  0  0  0  2  0  0  0  0  0  0
  -24.6620  -31.0950   22.1140 N   0  0  0  0  0  0  0  0  0  0  0  0
  -23.5160  -32.1710   23.7520 O   0  0  0  0  0  0  0  0  0  0  0  0
  -22.7310  -29.4870   22.5210 C   0  0  0  0  0  0  0  0  0  0  0  0
  -21.4050  -29.3090   22.3920 N   0  0  0  0  0  0  0  0  0  0  0  0
  -23.4090  -28.8550   23.3360 O   0  0  0  0  0  0  0  0  0  0  0  0
  -20.9160  -29.8720   21.7100 H   0  0  0  0  0  0  0  0  0  0  0  0
  -18.0210  -28.1360   22.9080 C   0  0  0  0  0  0  0  0  0  0  0  0
  -20.5840  -28.3680   23.1570 C   0  0  0  0  0  3  0  0  0  0  0  0
  -20.6680  -26.9440   22.5600 C   0  0  0  0  0  2  0  0  0  0  0  0
  -19.5530  -26.6460   21.5530 C   0  0  0  0  0  2  0  0  0  0  0  0
  -18.1790  -26.7950   22.2110 C   0  0  0  0  0  2  0  0  0  0  0  0
  -19.1510  -28.8810   23.3380 C   0  0  0  0  0  0  0  0  0  0  0  0
  -18.9490  -30.1380   23.9490 C   0  0  0  0  0  3  0  0  0  0  0  0
  -17.6500  -30.6480   24.1360 C   0  0  0  0  0  3  0  0  0  0  0  0
  -16.5350  -29.8980   23.7230 C   0  0  0  0  0  3  0  0  0  0  0  0
  -16.7210  -28.6440   23.1130 C   0  0  0  0  0  3  0  0  0  0  0  0
  -25.8820  -32.5250   23.8410 C   0  0  0  0  0  3  0  0  0  0  0  0
  -26.3950  -31.7470   25.1140 C   0  0  1  0  0  0  0  0  0  0  0  0
  -25.3000  -31.5040   26.1790 C   0  0  0  0  0  1  0  0  0  0  0  0
  -26.9790  -30.3720   24.7170 C   0  0  0  0  0  1  0  0  0  0  0  0
  -27.5440  -32.5380   25.7830 C   0  0  0  0  0  1  0  0  0  0  0  0
  -25.5720  -33.9210   24.1800 N   0  0  0  0  0  0  0  0  0  0  0  0
  -25.8910  -34.9790   23.4230 C   0  0  0  0  0  0  0  0  0  0  0  0
  -26.5490  -34.8820   22.3830 O   0  0  0  0  0  0  0  0  0  0  0  0
  -24.9880  -34.0710   24.9900 H   0  0  0  0  0  0  0  0  0  0  0  0
  -24.1540  -36.7680   23.0990 C   0  0  0  0  0  1  0  0  0  0  0  0
  -25.4060  -36.3630   23.8930 C   0  0  0  0  0  3  0  0  0  0  0  0
  -27.5470  -37.2530   24.7020 C   0  0  0  0  0  1  0  0  0  0  0  0
  -26.4340  -37.4210   23.7720 N   0  0  0  0  0  0  0  0  0  0  0  0
  -26.0260  -38.3390   23.9320 H   0  0  0  0  0  0  0  0  0  0  0  0
  -29.4000  -18.5050   20.8400 C   0  0  0  0  0  3  0  0  0  0  0  0
  -30.3720  -17.2900   20.4330 C   0  0  0  0  0  3  0  0  0  0  0  0
  -30.6340  -14.7200   20.3440 C   0  0  0  0  0  0  0  0  0  0  0  0
  -30.3620  -12.4930   19.2740 C   0  0  0  0  0  2  0  0  0  0  0  0
  -29.4150  -12.6330   18.0620 C   0  0  0  0  0  2  0  0  0  0  0  0
  -27.9470  -12.4720   18.5020 C   0  0  0  0  0  2  0  0  0  0  0  0
  -27.5990  -13.3310   19.7490 C   0  0  0  0  0  3  0  0  0  0  0  0
  -28.6680  -13.1920   20.8550 C   0  0  0  0  0  2  0  0  0  0  0  0
  -29.9700  -13.5230   20.2620 N   0  0  0  0  0  0  0  0  0  0  0  0
  -31.8030  -14.8210   19.9640 O   0  0  0  0  0  0  0  0  0  0  0  0
  -29.9120  -15.8560   20.6390 N   0  0  0  0  0  0  0  0  0  0  0  0
  -28.9530  -15.7110   20.9170 H   0  0  0  0  0  0  0  0  0  0  0  0
  -25.2140  -13.9210   20.4900 C   0  0  0  0  0  0  0  0  0  0  0  0
  -24.1490  -13.1460   20.8630 C   0  0  0  0  0  0  0  0  0  0  0  0
  -24.6110  -11.7950   20.8210 C   0  0  0  0  0  0  0  0  0  0  0  0
  -26.2560  -13.0430   20.2430 N   0  0  0  0  0  0  0  0  0  0  0  0
  -25.9000  -11.7580   20.5040 N   0  0  0  0  0  0  0  0  0  0  0  0
  -23.8850  -10.5310   21.0080 C   0  0  0  0  0  0  0  0  0  0  0  0
  -24.3100   -9.5660   21.9460 C   0  0  0  0  0  3  0  0  0  0  0  0
  -23.5840   -8.3680   22.1210 C   0  0  0  0  0  3  0  0  0  0  0  0
  -22.4170   -8.1280   21.3570 C   0  0  0  0  0  0  0  0  0  0  0  0
  -22.0110   -9.0820   20.4070 C   0  0  0  0  0  3  0  0  0  0  0  0
  -22.7390  -10.2710   20.2310 C   0  0  0  0  0  3  0  0  0  0  0  0
  -21.6620   -6.9830   21.4410 O   0  0  0  0  0  0  0  0  0  0  0  0
  -21.5890   -6.2530   22.6000 C   0  0  0  0  0  0  0  0  0  0  0  0
  -21.1110   -6.8120   23.8060 C   0  0  0  0  0  3  0  0  0  0  0  0
  -20.9880   -6.0070   24.9560 C   0  0  0  0  0  3  0  0  0  0  0  0
  -21.3320   -4.6440   24.9010 C   0  0  0  0  0  0  0  0  0  0  0  0
  -21.8020   -4.0830   23.7010 C   0  0  0  0  0  3  0  0  0  0  0  0
  -21.9280   -4.8850   22.5530 C   0  0  0  0  0  0  0  0  0  0  0  0
  -22.3620   -4.3350   21.3930 F   0  0  0  0  0  0  0  0  0  0  0  0
  -21.2060   -3.8670   26.0030 F   0  0  0  0  0  0  0  0  0  0  0  0
  -22.7540  -13.6220   21.1440 C   0  0  0  0  0  0  0  0  0  0  0  0
  -22.0310  -12.9210   22.0110 N   0  0  0  0  0  0  0  0  0  0  0  0
  -22.3140  -14.6520   20.6340 O   0  0  0  0  0  0  0  0  0  0  0  0
  -22.3990  -12.0880   22.4460 H   0  0  0  0  0  0  0  0  0  0  0  0
  -21.0940  -13.2210   22.2430 H   0  0  0  0  0  0  0  0  0  0  0  0
  -25.3770  -15.2930   20.3170 N   0  0  0  0  0  0  0  0  0  0  0  0
  -24.6060  -15.9430   20.4240 H   0  0  0  0  0  0  0  0  0  0  0  0
  -26.2160  -15.7300   19.9590 H   0  0  0  0  0  0  0  0  0  0  0  0
  1  6  1  0
  2  7  1  0
  4  2  1  0
  4  1  1  0
  4  5  1  0
  5  3  1  0
  6 12  1  0
  6  5  1  0
  7 54  1  0
  7  8  1  1
  7  3  1  0
  8 11  1  0
  9  8  1  0
 10  8  1  0
 12 13  1  0
 14 25  2  0
 15 13  1  0
 15 20  1  0
 16 24  1  0
 16 26  1  0
 17 23  1  0
 17 19  1  0
 18 24  1  0
 19 18  1  0
 20 19  2  0
 21 22  1  0
 21 15  2  0
 22 17  2  0
 23 16  1  0
 24 14  1  0
 26 28  2  0
 27 26  1  0
 29 27  1  0
 30 39  2  0
 30 35  1  0
 31 27  1  0
 31 35  1  0
 32 31  1  0
 33 34  1  0
 33 32  1  0
 34 30  1  0
 35 36  2  0
 36 37  1  0
 38 37  2  0
 39 38  1  0
 40 14  1  0
 40 45  1  0
 40 41  1  0
 41 44  1  1
 41 42  1  0
 43 41  1  0
 45 48  1  0
 46 50  1  0
 46 45  1  0
 47 46  2  0
 50 49  1  0
 52 50  1  0
 52 53  1  0
 52 51  1  0
 55 64  1  0
 55 54  2  0
 56 64  1  0
 57 62  1  0
 58 59  1  0
 58 57  1  0
 60 59  1  0
 60 69  1  0
 60 61  1  0
 62 56  1  0
 62 61  1  0
 63 56  2  0
 64 65  1  0
 66 67  2  0
 67 86  1  0
 68 67  1  0
 68 71  1  0
 69 66  1  0
 69 70  1  0
 70 68  2  0
 71 72  1  0
 72 73  2  0
 74 77  1  0
 74 73  1  0
 75 74  2  0
 76 75  1  0
 76 71  2  0
 77 78  1  0
 78 79  1  0
 79 80  2  0
 81 80  1  0
 81 85  1  0
 82 81  2  0
 83 78  2  0
 83 82  1  0
 84 83  1  0
 86 87  1  0
 87 90  1  0
 87 89  1  0
 88 86  2  0
 91 92  1  0
 91 66  1  0
 93 91  1  0
M  ISO  4  12 101  13 101  56 100  64 100
M  END
>  <TORSDO>  (34) 
F 20

>  <SCORE>  (34) 
-14.044

>  <name>  (34) 
33

>  <ligand_id>  (34) 
33

>  <original_smiles>  (34) 
[H]c1c([H])c([H])c2c(c1[H])C([H])([H])C([H])([H])C([H])([H])C2([H])N([H])C(=O)C1([H])N(C(=O)C([H])(N([H])C(=O)C([H])(N([H])C([H])([H])[H])C([H])([H])[H])C(C([H])([H])[H])(C([H])([H])[H])C([H])([H])[H])C([H])([H])c2c([H])c(OC([H])([H])C3([H])C([H])([H])C4([H])C([H])([H])C(C([H])([H])C([H])([H])N([H])C(=O)N5C([H])([H])C([H])([H])C([H])([H])C([H])(n6nc(-c7c([H])c([H])c(Oc8c([H])c([H])c(F)c([H])c8F)c([H])c7[H])c(C(=O)N([H])[H])c6N([H])[H])C5([H])[H])([N+]([H])([H])[H])C([H])([H])C34[H])c([H])c([H])c2C1([H])[H]

>  <smiles>  (34) 
[H]c1c([H])c([H])c2c(c1[H])C([H])([H])C([H])([H])C([H])([H])C2([H])N([H])C(=O)C1([H])N(C(=O)C([H])(N([H])C(=O)C([H])(N([H])C([H])([H])[H])C([H])([H])[H])C(C([H])([H])[H])(C([H])([H])[H])C([H])([H])[H])C([H])([H])c2c([H])c(OC([H])([H])C3([H])C([H])([H])C4([H])C([H])([H])C(C([H])([H])C([H])([H])N([H])C(=O)N5C([H])([H])C([H])([H])C([H])([H])C([H])(n6nc(-c7c([H])c([H])c(Oc8c([H])c([H])c(F)c([H])c8F)c([H])c7[H])c(C(=O)N([H])[H])c6N([H])[H])C5([H])[H])([N+]([H])([H])[H])C([H])([H])C34[H])c([H])c([H])c2C1([H])[H]

$$$$
34:0:0
     RDKit          3D

 90 99  0  0  1  0  0  0  0  0999 V2000
  -29.0230  -22.8960   20.3850 C   0  0  0  0  0  0  0  0  0  0  0  0
  -28.7930  -21.4190   20.4670 N   0  0  0  0  0  4  0  0  0  0  0  0
  -30.2040  -23.2390   20.4660 O   0  0  0  0  0  0  0  0  0  0  0  0
  -27.8030  -21.2180   20.3960 H   0  0  0  0  0  0  0  0  0  0  0  0
  -30.5200  -20.1210   21.9250 C   0  0  0  0  0  1  0  0  0  0  0  0
  -29.6890  -19.9930   20.6430 C   0  0  0  0  0  0  0  0  0  0  0  0
  -30.5790  -15.5050   20.9230 C   0  0  0  0  0  0  0  0  0  0  0  0
  -30.6700  -13.0060   20.1760 C   0  0  0  0  0  2  0  0  0  0  0  0
  -29.8890  -12.6320   18.8930 C   0  0  0  0  0  2  0  0  0  0  0  0
  -28.4170  -12.3290   19.2210 C   0  0  0  0  0  2  0  0  0  0  0  0
  -27.8210  -13.3600   20.2100 C   0  0  0  0  0  3  0  0  0  0  0  0
  -28.7500  -13.6800   21.4000 C   0  0  0  0  0  2  0  0  0  0  0  0
  -29.9980  -14.2020   20.8110 N   0  0  0  0  0  0  0  0  0  0  0  0
  -31.8170  -15.4170   21.0000 O   0  0  0  0  0  0  0  0  0  0  0  0
  -27.6830  -17.1800   18.5470 C   0  0  0  0  0  2  0  0  0  0  0  0
  -30.2500  -16.8130   18.8840 C   0  0  0  0  0  2  0  0  0  0  0  0
  -29.1060  -17.5360   18.2200 C   0  0  0  0  0  3  0  0  0  0  0  0
  -28.3630  -18.3280   19.2510 C   0  0  0  0  0  3  0  0  0  0  0  0
  -29.1920  -18.2520   20.5250 C   0  0  0  0  0  3  0  0  0  0  0  0
  -30.0280  -16.7800   20.3370 N   0  0  0  0  0  0  0  0  0  0  0  0
  -25.3920  -13.9130   20.7530 C   0  0  0  0  0  0  0  0  0  0  0  0
  -24.3020  -13.1310   21.0120 C   0  0  0  0  0  0  0  0  0  0  0  0
  -24.7800  -11.7840   21.0310 C   0  0  0  0  0  0  0  0  0  0  0  0
  -26.4580  -13.0420   20.6090 N   0  0  0  0  0  0  0  0  0  0  0  0
  -26.0950  -11.7560   20.8480 N   0  0  0  0  0  0  0  0  0  0  0  0
  -24.0450  -10.5190   21.1530 C   0  0  0  0  0  0  0  0  0  0  0  0
  -24.3950   -9.5530   22.1210 C   0  0  0  0  0  3  0  0  0  0  0  0
  -23.6580   -8.3540   22.2350 C   0  0  0  0  0  3  0  0  0  0  0  0
  -22.5570   -8.1140   21.3780 C   0  0  0  0  0  0  0  0  0  0  0  0
  -22.2280   -9.0700   20.4000 C   0  0  0  0  0  3  0  0  0  0  0  0
  -22.9650  -10.2600   20.2870 C   0  0  0  0  0  3  0  0  0  0  0  0
  -21.8020   -6.9670   21.3990 O   0  0  0  0  0  0  0  0  0  0  0  0
  -21.6570   -6.2210   22.5400 C   0  0  0  0  0  0  0  0  0  0  0  0
  -21.1210   -6.7700   23.7260 C   0  0  0  0  0  3  0  0  0  0  0  0
  -20.9240   -5.9500   24.8560 C   0  0  0  0  0  3  0  0  0  0  0  0
  -21.2540   -4.5820   24.8000 C   0  0  0  0  0  0  0  0  0  0  0  0
  -21.7830   -4.0330   23.6180 C   0  0  0  0  0  3  0  0  0  0  0  0
  -21.9810   -4.8500   22.4910 C   0  0  0  0  0  0  0  0  0  0  0  0
  -22.4720   -4.3110   21.3490 F   0  0  0  0  0  0  0  0  0  0  0  0
  -21.0580   -3.7920   25.8810 F   0  0  0  0  0  0  0  0  0  0  0  0
  -22.8840  -13.6010   21.1360 C   0  0  0  0  0  0  0  0  0  0  0  0
  -22.0800  -12.9170   21.9410 N   0  0  0  0  0  0  0  0  0  0  0  0
  -22.4940  -14.6150   20.5560 O   0  0  0  0  0  0  0  0  0  0  0  0
  -22.4080  -12.0980   22.4330 H   0  0  0  0  0  0  0  0  0  0  0  0
  -21.1240  -13.2130   22.0670 H   0  0  0  0  0  0  0  0  0  0  0  0
  -25.5570  -15.2850   20.6040 N   0  0  0  0  0  0  0  0  0  0  0  0
  -24.7750  -15.9280   20.6540 H   0  0  0  0  0  0  0  0  0  0  0  0
  -26.4390  -15.7430   20.4160 H   0  0  0  0  0  0  0  0  0  0  0  0
  -27.9190  -24.2600   20.1720 C   0  0  0  0  0  2  0  0  0  0  0  0
  -28.2060  -25.8980   20.2170 O   0  0  0  0  0  0  0  0  0  0  0  0
  -24.5550  -31.8790   23.1250 C   0  0  0  0  0  0  0  0  0  0  0  0
  -27.1850  -26.9960   20.1540 C   0  0  0  0  0  0  0  0  0  0  0  0
  -23.3840  -30.4510   21.4970 C   0  0  0  0  0  3  0  0  0  0  0  0
  -24.8580  -28.8540   20.0920 C   0  0  0  0  0  0  0  0  0  0  0  0
  -25.9480  -30.6950   21.3520 C   0  0  0  0  0  2  0  0  0  0  0  0
  -26.0420  -29.2780   20.7090 C   0  0  0  0  0  0  0  0  0  0  0  0
  -27.1990  -28.3720   20.7130 C   0  0  0  0  0  3  0  0  0  0  0  0
  -25.9650  -26.7270   19.4910 C   0  0  0  0  0  3  0  0  0  0  0  0
  -24.8460  -27.5990   19.4620 C   0  0  0  0  0  3  0  0  0  0  0  0
  -23.6260  -29.7590   20.1290 C   0  0  0  0  0  2  0  0  0  0  0  0
  -24.6510  -31.0370   22.0450 N   0  0  0  0  0  0  0  0  0  0  0  0
  -23.4600  -32.1580   23.6420 O   0  0  0  0  0  0  0  0  0  0  0  0
  -22.7020  -29.4560   22.4710 C   0  0  0  0  0  0  0  0  0  0  0  0
  -21.3700  -29.2910   22.3610 N   0  0  0  0  0  0  0  0  0  0  0  0
  -23.3770  -28.8310   23.2930 O   0  0  0  0  0  0  0  0  0  0  0  0
  -20.8800  -29.8460   21.6750 H   0  0  0  0  0  0  0  0  0  0  0  0
  -17.9910  -28.0910   22.9240 C   0  0  0  0  0  0  0  0  0  0  0  0
  -20.5570  -28.3520   23.1410 C   0  0  0  0  0  3  0  0  0  0  0  0
  -20.6430  -26.9230   22.5570 C   0  0  0  0  0  2  0  0  0  0  0  0
  -19.5210  -26.6090   21.5610 C   0  0  0  0  0  2  0  0  0  0  0  0
  -18.1530  -26.7480   22.2330 C   0  0  0  0  0  2  0  0  0  0  0  0
  -19.1200  -28.8510   23.3360 C   0  0  0  0  0  0  0  0  0  0  0  0
  -18.9110  -30.1050   23.9490 C   0  0  0  0  0  3  0  0  0  0  0  0
  -17.6090  -30.6010   24.1500 C   0  0  0  0  0  3  0  0  0  0  0  0
  -16.4970  -29.8400   23.7510 C   0  0  0  0  0  3  0  0  0  0  0  0
  -16.6880  -28.5870   23.1440 C   0  0  0  0  0  3  0  0  0  0  0  0
  -25.8140  -32.5460   23.7550 C   0  0  0  0  0  3  0  0  0  0  0  0
  -25.4660  -33.9370   24.1020 N   0  0  0  0  0  0  0  0  0  0  0  0
  -25.7850  -35.0130   23.3710 C   0  0  0  0  0  0  0  0  0  0  0  0
  -26.4660  -34.9420   22.3440 O   0  0  0  0  0  0  0  0  0  0  0  0
  -24.8580  -34.0620   24.8970 H   0  0  0  0  0  0  0  0  0  0  0  0
  -24.0340  -36.7930   23.0390 C   0  0  0  0  0  1  0  0  0  0  0  0
  -25.2730  -36.3860   23.8530 C   0  0  0  0  0  3  0  0  0  0  0  0
  -27.3840  -37.2880   24.7290 C   0  0  0  0  0  1  0  0  0  0  0  0
  -26.2910  -37.4580   23.7750 N   0  0  0  0  0  0  0  0  0  0  0  0
  -25.8680  -38.3680   23.9380 H   0  0  0  0  0  0  0  0  0  0  0  0
  -26.3410  -31.7860   25.0370 C   0  0  1  0  0  0  0  0  0  0  0  0
  -25.2500  -31.5320   26.1030 C   0  0  0  0  0  1  0  0  0  0  0  0
  -26.9490  -30.4170   24.6560 C   0  0  0  0  0  1  0  0  0  0  0  0
  -27.4750  -32.6020   25.7000 C   0  0  0  0  0  1  0  0  0  0  0  0
  1  3  2  0
  1  2  1  0
  2  6  2  0
  4  2  1  0
  6  5  1  0
  7 14  2  0
  8 13  1  0
  9 10  1  0
  9  8  1  0
 11 10  1  0
 11 24  1  0
 11 12  1  0
 13  7  1  0
 13 12  1  0
 16 20  1  0
 17 15  1  0
 17 16  1  0
 17 18  1  0
 18 15  1  0
 18 19  1  0
 19  6  1  0
 20 19  1  0
 20  7  1  0
 21 22  2  0
 22 23  1  0
 22 41  1  0
 23 26  1  0
 24 21  1  0
 24 25  1  0
 25 23  2  0
 26 27  1  0
 27 28  2  0
 29 32  1  0
 29 28  1  0
 30 29  2  0
 31 30  1  0
 31 26  2  0
 32 33  1  0
 33 34  1  0
 34 35  2  0
 36 35  1  0
 36 40  1  0
 37 36  2  0
 38 33  2  0
 38 37  1  0
 39 38  1  0
 41 42  1  0
 42 45  1  0
 42 44  1  0
 43 41  2  0
 46 47  1  0
 46 21  1  0
 48 46  1  0
 49 50  1  0
 49  1  1  0
 51 62  2  0
 52 50  1  0
 52 57  1  0
 53 61  1  0
 53 63  1  0
 54 60  1  0
 54 56  1  0
 55 61  1  0
 56 57  2  0
 56 55  1  0
 58 52  2  0
 59 58  1  0
 59 54  2  0
 60 53  1  0
 61 51  1  0
 63 65  2  0
 64 63  1  0
 66 64  1  0
 67 76  2  0
 67 72  1  0
 68 64  1  0
 68 72  1  0
 69 68  1  0
 70 71  1  0
 70 69  1  0
 71 67  1  0
 72 73  2  0
 73 74  1  0
 75 74  2  0
 76 75  1  0
 77 51  1  0
 77 78  1  0
 77 87  1  0
 78 81  1  0
 79 83  1  0
 79 78  1  0
 80 79  2  0
 83 82  1  0
 85 83  1  0
 85 86  1  0
 85 84  1  0
 87 90  1  1
 87 88  1  0
 89 87  1  0
M  ISO  4   7 100  20 100  49 101  50 101
M  END
>  <TORSDO>  (35) 
F 18

>  <SCORE>  (35) 
-16.269

>  <name>  (35) 
34

>  <ligand_id>  (35) 
34

>  <original_smiles>  (35) 
[H]c1c([H])c([H])c2c(c1[H])C([H])([H])C([H])([H])C([H])([H])C2([H])N([H])C(=O)C1([H])N(C(=O)C([H])(N([H])C(=O)C([H])(N([H])C([H])([H])[H])C([H])([H])[H])C(C([H])([H])[H])(C([H])([H])[H])C([H])([H])[H])C([H])([H])c2c([H])c(OC([H])([H])C(=O)N([H])C([H])(C([H])([H])[H])C3([H])N(C(=O)N4C([H])([H])C([H])([H])C([H])([H])C([H])(n5nc(-c6c([H])c([H])c(Oc7c([H])c([H])c(F)c([H])c7F)c([H])c6[H])c(C(=O)N([H])[H])c5N([H])[H])C4([H])[H])C([H])([H])C4([H])C([H])([H])C34[H])c([H])c([H])c2C1([H])[H]

>  <smiles>  (35) 
[H]c1c([H])c([H])c2c(c1[H])C([H])([H])C([H])([H])C([H])([H])C2([H])N([H])C(=O)C1([H])N(C(=O)C([H])(N([H])C(=O)C([H])(N([H])C([H])([H])[H])C([H])([H])[H])C(C([H])([H])[H])(C([H])([H])[H])C([H])([H])[H])C([H])([H])c2c([H])c(OC([H])([H])C(=O)N([H])C([H])(C([H])([H])[H])C3([H])N(C(=O)N4C([H])([H])C([H])([H])C([H])([H])C([H])(n5nc(-c6c([H])c([H])c(Oc7c([H])c([H])c(F)c([H])c7F)c([H])c6[H])c(C(=O)N([H])[H])c5N([H])[H])C4([H])[H])C([H])([H])C4([H])C([H])([H])C34[H])c([H])c([H])c2C1([H])[H]

$$$$
35:0:0
     RDKit          3D

 92100  0  0  1  0  0  0  0  0999 V2000
  -30.2600  -22.9660   20.0030 C   0  0  0  0  0  2  0  0  0  0  0  0
  -30.5800  -21.4610   20.3430 C   0  0  0  0  0  2  0  0  0  0  0  0
  -28.8340  -23.2400   20.5400 C   0  0  0  0  0  3  0  0  0  0  0  0
  -29.2810  -20.6680   20.0800 C   0  0  0  0  0  3  0  0  0  0  0  0
  -28.2480  -21.7890   20.4270 N   0  0  0  0  0  4  0  0  0  0  0  0
  -27.5230  -21.7640   19.7250 H   0  0  0  0  0  0  0  0  0  0  0  0
  -27.8080  -21.5600   21.3040 H   0  0  0  0  0  0  0  0  0  0  0  0
  -27.9810  -24.6290   20.0270 C   0  0  0  0  0  2  0  0  0  0  0  0
  -28.2290  -26.1560   20.3030 O   0  0  0  0  0  0  0  0  0  0  0  0
  -24.6150  -31.8870   23.2420 C   0  0  0  0  0  0  0  0  0  0  0  0
  -27.1820  -27.1540   20.2150 C   0  0  0  0  0  0  0  0  0  0  0  0
  -23.4110  -30.4880   21.6090 C   0  0  0  0  0  3  0  0  0  0  0  0
  -24.8560  -28.9120   20.1800 C   0  0  0  0  0  0  0  0  0  0  0  0
  -25.9650  -30.7490   21.4400 C   0  0  0  0  0  2  0  0  0  0  0  0
  -26.0370  -29.3540   20.7900 C   0  0  0  0  0  0  0  0  0  0  0  0
  -27.1990  -28.4900   20.7910 C   0  0  0  0  0  3  0  0  0  0  0  0
  -25.9770  -26.8250   19.5530 C   0  0  0  0  0  3  0  0  0  0  0  0
  -24.8410  -27.6610   19.5450 C   0  0  0  0  0  3  0  0  0  0  0  0
  -23.6290  -29.8090   20.2310 C   0  0  0  0  0  2  0  0  0  0  0  0
  -24.6850  -31.0640   22.1510 N   0  0  0  0  0  0  0  0  0  0  0  0
  -23.5300  -32.1740   23.7720 O   0  0  0  0  0  0  0  0  0  0  0  0
  -22.7340  -29.4840   22.5740 C   0  0  0  0  0  0  0  0  0  0  0  0
  -21.4050  -29.3140   22.4510 N   0  0  0  0  0  0  0  0  0  0  0  0
  -23.4060  -28.8600   23.3990 O   0  0  0  0  0  0  0  0  0  0  0  0
  -20.9180  -29.8680   21.7620 H   0  0  0  0  0  0  0  0  0  0  0  0
  -18.0250  -28.1130   22.9620 C   0  0  0  0  0  0  0  0  0  0  0  0
  -20.5840  -28.3790   23.2260 C   0  0  0  0  0  3  0  0  0  0  0  0
  -20.6860  -26.9440   22.6570 C   0  0  0  0  0  2  0  0  0  0  0  0
  -19.5830  -26.6170   21.6450 C   0  0  0  0  0  2  0  0  0  0  0  0
  -18.2020  -26.7620   22.2890 C   0  0  0  0  0  2  0  0  0  0  0  0
  -19.1440  -28.8780   23.3870 C   0  0  0  0  0  0  0  0  0  0  0  0
  -18.9220  -30.1410   23.9780 C   0  0  0  0  0  3  0  0  0  0  0  0
  -17.6170  -30.6400   24.1470 C   0  0  0  0  0  3  0  0  0  0  0  0
  -16.5130  -29.8710   23.7370 C   0  0  0  0  0  3  0  0  0  0  0  0
  -16.7180  -28.6100   23.1490 C   0  0  0  0  0  3  0  0  0  0  0  0
  -25.8950  -32.5240   23.8650 C   0  0  0  0  0  3  0  0  0  0  0  0
  -26.4070  -31.7580   25.1470 C   0  0  1  0  0  0  0  0  0  0  0  0
  -25.3120  -31.5280   26.2150 C   0  0  0  0  0  1  0  0  0  0  0  0
  -26.9900  -30.3770   24.7680 C   0  0  0  0  0  1  0  0  0  0  0  0
  -27.5560  -32.5540   25.8070 C   0  0  0  0  0  1  0  0  0  0  0  0
  -25.5830  -33.9240   24.1980 N   0  0  0  0  0  0  0  0  0  0  0  0
  -25.9010  -34.9800   23.4360 C   0  0  0  0  0  0  0  0  0  0  0  0
  -26.5550  -34.8780   22.3950 O   0  0  0  0  0  0  0  0  0  0  0  0
  -24.9990  -34.0770   25.0070 H   0  0  0  0  0  0  0  0  0  0  0  0
  -24.1610  -36.7700   23.1200 C   0  0  0  0  0  1  0  0  0  0  0  0
  -25.4200  -36.3680   23.9040 C   0  0  0  0  0  3  0  0  0  0  0  0
  -27.5680  -37.2640   24.6890 C   0  0  0  0  0  1  0  0  0  0  0  0
  -26.4470  -37.4250   23.7680 N   0  0  0  0  0  0  0  0  0  0  0  0
  -26.0400  -38.3440   23.9190 H   0  0  0  0  0  0  0  0  0  0  0  0
  -29.1430  -19.0560   20.6480 C   0  0  0  0  0  3  0  0  0  0  0  0
  -27.8240  -18.5560   20.2890 N   0  0  0  0  0  0  0  0  0  0  0  0
  -27.7290  -18.5420   19.2780 H   0  0  0  0  0  0  0  0  0  0  0  0
  -27.1000  -19.1920   20.6050 H   0  0  0  0  0  0  0  0  0  0  0  0
  -30.1300  -17.7350   20.2620 C   0  0  0  0  0  2  0  0  0  0  0  0
  -30.4930  -15.0030   20.3180 C   0  0  0  0  0  0  0  0  0  0  0  0
  -30.3350  -12.6540   19.3690 C   0  0  0  0  0  2  0  0  0  0  0  0
  -29.3880  -12.6220   18.1460 C   0  0  0  0  0  2  0  0  0  0  0  0
  -27.9310  -12.4120   18.5980 C   0  0  0  0  0  2  0  0  0  0  0  0
  -27.5430  -13.3350   19.7830 C   0  0  0  0  0  3  0  0  0  0  0  0
  -28.6110  -13.3450   20.8960 C   0  0  0  0  0  2  0  0  0  0  0  0
  -29.8770  -13.7520   20.2730 N   0  0  0  0  0  0  0  0  0  0  0  0
  -31.6890  -15.0430   20.0130 O   0  0  0  0  0  0  0  0  0  0  0  0
  -29.7540  -16.2100   20.4920 N   0  0  0  0  0  0  0  0  0  0  0  0
  -28.7750  -16.0770   20.7070 H   0  0  0  0  0  0  0  0  0  0  0  0
  -25.1750  -13.9200   20.5580 C   0  0  0  0  0  0  0  0  0  0  0  0
  -24.1120  -13.1470   20.9340 C   0  0  0  0  0  0  0  0  0  0  0  0
  -24.5690  -11.7930   20.8860 C   0  0  0  0  0  0  0  0  0  0  0  0
  -26.2110  -13.0390   20.2970 N   0  0  0  0  0  0  0  0  0  0  0  0
  -25.8560  -11.7540   20.5600 N   0  0  0  0  0  0  0  0  0  0  0  0
  -23.8380  -10.5330   21.0720 C   0  0  0  0  0  0  0  0  0  0  0  0
  -24.2740   -9.5540   21.9920 C   0  0  0  0  0  3  0  0  0  0  0  0
  -23.5420   -8.3600   22.1680 C   0  0  0  0  0  3  0  0  0  0  0  0
  -22.3570   -8.1370   21.4260 C   0  0  0  0  0  0  0  0  0  0  0  0
  -21.9400   -9.1050   20.4950 C   0  0  0  0  0  3  0  0  0  0  0  0
  -22.6740  -10.2890   20.3160 C   0  0  0  0  0  3  0  0  0  0  0  0
  -21.5960   -6.9970   21.5110 O   0  0  0  0  0  0  0  0  0  0  0  0
  -21.5560   -6.2430   22.6560 C   0  0  0  0  0  0  0  0  0  0  0  0
  -21.1440   -6.7860   23.8930 C   0  0  0  0  0  3  0  0  0  0  0  0
  -21.0520   -5.9580   25.0290 C   0  0  0  0  0  3  0  0  0  0  0  0
  -21.3610   -4.5870   24.9310 C   0  0  0  0  0  0  0  0  0  0  0  0
  -21.7660   -4.0440   23.6990 C   0  0  0  0  0  3  0  0  0  0  0  0
  -21.8600   -4.8700   22.5640 C   0  0  0  0  0  0  0  0  0  0  0  0
  -22.2300   -4.3370   21.3750 F   0  0  0  0  0  0  0  0  0  0  0  0
  -21.2650   -3.7910   26.0200 F   0  0  0  0  0  0  0  0  0  0  0  0
  -22.7210  -13.6290   21.2250 C   0  0  0  0  0  0  0  0  0  0  0  0
  -21.9960  -12.9270   22.0890 N   0  0  0  0  0  0  0  0  0  0  0  0
  -22.2860  -14.6640   20.7210 O   0  0  0  0  0  0  0  0  0  0  0  0
  -22.3620  -12.0910   22.5190 H   0  0  0  0  0  0  0  0  0  0  0  0
  -21.0630  -13.2330   22.3260 H   0  0  0  0  0  0  0  0  0  0  0  0
  -25.3430  -15.2910   20.3910 N   0  0  0  0  0  0  0  0  0  0  0  0
  -24.5820  -15.9470   20.5260 H   0  0  0  0  0  0  0  0  0  0  0  0
  -26.1930  -15.7410   20.0750 H   0  0  0  0  0  0  0  0  0  0  0  0
  1  2  1  0
  1  3  1  0
  3  8  1  0
  4  2  1  0
  4  5  1  0
  4 50  1  0
  5  3  1  0
  5  7  1  0
  6  5  1  0
  8  9  1  0
 10 21  2  0
 11  9  1  0
 11 16  1  0
 12 20  1  0
 12 22  1  0
 13 19  1  0
 13 15  1  0
 14 20  1  0
 15 16  2  0
 15 14  1  0
 17 11  2  0
 18 17  1  0
 18 13  2  0
 19 12  1  0
 20 10  1  0
 22 24  2  0
 23 22  1  0
 25 23  1  0
 26 35  2  0
 26 31  1  0
 27 23  1  0
 27 31  1  0
 28 27  1  0
 29 30  1  0
 29 28  1  0
 30 26  1  0
 31 32  2  0
 32 33  1  0
 34 33  2  0
 35 34  1  0
 36 10  1  0
 36 41  1  0
 36 37  1  0
 37 40  1  1
 37 38  1  0
 39 37  1  0
 41 44  1  0
 42 46  1  0
 42 41  1  0
 43 42  2  0
 46 45  1  0
 48 46  1  0
 48 49  1  0
 48 47  1  0
 50 54  1  0
 51 53  1  0
 51 50  1  0
 52 51  1  0
 54 63  1  0
 55 63  1  0
 56 61  1  0
 57 58  1  0
 57 56  1  0
 59 58  1  0
 59 68  1  0
 59 60  1  0
 61 55  1  0
 61 60  1  0
 62 55  2  0
 63 64  1  0
 65 66  2  0
 66 85  1  0
 67 66  1  0
 67 70  1  0
 68 65  1  0
 68 69  1  0
 69 67  2  0
 70 71  1  0
 71 72  2  0
 73 76  1  0
 73 72  1  0
 74 73  2  0
 75 74  1  0
 75 70  2  0
 76 77  1  0
 77 78  1  0
 78 79  2  0
 80 79  1  0
 80 84  1  0
 81 80  2  0
 82 77  2  0
 82 81  1  0
 83 82  1  0
 85 86  1  0
 86 89  1  0
 86 88  1  0
 87 85  2  0
 90 91  1  0
 90 65  1  0
 92 90  1  0
M  ISO  4   8 101   9 101  55 100  63 100
M  END
>  <TORSDO>  (36) 
F 20

>  <SCORE>  (36) 
-15.012

>  <name>  (36) 
35

>  <ligand_id>  (36) 
35

>  <original_smiles>  (36) 
[H]c1c([H])c([H])c2c(c1[H])C([H])([H])C([H])([H])C([H])([H])C2([H])N([H])C(=O)C1([H])N(C(=O)C([H])(N([H])C(=O)C([H])(N([H])C([H])([H])[H])C([H])([H])[H])C(C([H])([H])[H])(C([H])([H])[H])C([H])([H])[H])C([H])([H])c2c([H])c(OC([H])([H])C3([H])C([H])([H])C([H])([H])C([H])(C([H])(N([H])[H])C([H])([H])N([H])C(=O)N4C([H])([H])C([H])([H])C([H])([H])C([H])(n5nc(-c6c([H])c([H])c(Oc7c([H])c([H])c(F)c([H])c7F)c([H])c6[H])c(C(=O)N([H])[H])c5N([H])[H])C4([H])[H])[N+]3([H])[H])c([H])c([H])c2C1([H])[H]

>  <smiles>  (36) 
[H]c1c([H])c([H])c2c(c1[H])C([H])([H])C([H])([H])C([H])([H])C2([H])N([H])C(=O)C1([H])N(C(=O)C([H])(N([H])C(=O)C([H])(N([H])C([H])([H])[H])C([H])([H])[H])C(C([H])([H])[H])(C([H])([H])[H])C([H])([H])[H])C([H])([H])c2c([H])c(OC([H])([H])C3([H])C([H])([H])C([H])([H])C([H])(C([H])(N([H])[H])C([H])([H])N([H])C(=O)N4C([H])([H])C([H])([H])C([H])([H])C([H])(n5nc(-c6c([H])c([H])c(Oc7c([H])c([H])c(F)c([H])c7F)c([H])c6[H])c(C(=O)N([H])[H])c5N([H])[H])C4([H])[H])[N+]3([H])[H])c([H])c([H])c2C1([H])[H]

$$$$
36:0:0
     RDKit          3D

 93101  0  0  1  0  0  0  0  0999 V2000
  -28.5410  -21.9160   20.3890 C   0  0  0  0  0  0  0  0  0  0  0  0
  -29.0760  -23.1360   20.5920 N   0  0  0  0  0  0  0  0  0  0  0  0
  -27.3650  -21.7720   20.0510 O   0  0  0  0  0  0  0  0  0  0  0  0
  -30.0640  -23.1550   20.8040 H   0  0  0  0  0  0  0  0  0  0  0  0
  -31.0720  -19.6530   22.1640 C   0  0  0  0  0  3  0  0  0  0  0  0
  -30.3160  -20.7710   21.7660 C   0  0  0  0  0  3  0  0  0  0  0  0
  -30.9440  -18.4310   21.4830 C   0  0  0  0  0  3  0  0  0  0  0  0
  -29.4340  -20.7080   20.6620 C   0  0  0  0  0  0  0  0  0  0  0  0
  -30.0820  -18.3110   20.3710 C   0  0  0  0  0  0  0  0  0  0  0  0
  -29.3530  -19.4700   19.9330 C   0  0  0  0  0  0  0  0  0  0  0  0
  -28.4950  -19.3860   18.6700 C   0  0  0  0  0  1  0  0  0  0  0  0
  -29.9940  -16.9490   19.6390 C   0  0  0  0  0  2  0  0  0  0  0  0
  -30.8110  -14.6310   20.1410 C   0  0  0  0  0  0  0  0  0  0  0  0
  -30.5250  -12.3980   19.1400 C   0  0  0  0  0  2  0  0  0  0  0  0
  -29.5530  -12.5500   17.9470 C   0  0  0  0  0  2  0  0  0  0  0  0
  -28.0900  -12.4280   18.4150 C   0  0  0  0  0  2  0  0  0  0  0  0
  -27.7790  -13.3040   19.6590 C   0  0  0  0  0  3  0  0  0  0  0  0
  -28.8660  -13.1410   20.7480 C   0  0  0  0  0  2  0  0  0  0  0  0
  -30.1730  -13.4260   20.1360 N   0  0  0  0  0  0  0  0  0  0  0  0
  -31.9400  -14.7850   19.6700 O   0  0  0  0  0  0  0  0  0  0  0  0
  -30.0260  -15.6940   20.4320 N   0  0  0  0  0  0  0  0  0  0  0  0
  -29.1590  -15.4640   20.8950 H   0  0  0  0  0  0  0  0  0  0  0  0
  -25.4250  -13.9380   20.4840 C   0  0  0  0  0  0  0  0  0  0  0  0
  -24.3580  -13.1790   20.8810 C   0  0  0  0  0  0  0  0  0  0  0  0
  -24.7890  -11.8190   20.7980 C   0  0  0  0  0  0  0  0  0  0  0  0
  -26.4420  -13.0420   20.1880 N   0  0  0  0  0  0  0  0  0  0  0  0
  -26.0640  -11.7610   20.4350 N   0  0  0  0  0  0  0  0  0  0  0  0
  -24.0460  -10.5680   20.9900 C   0  0  0  0  0  0  0  0  0  0  0  0
  -24.4750   -9.5890   21.9140 C   0  0  0  0  0  3  0  0  0  0  0  0
  -23.7360   -8.4000   22.0920 C   0  0  0  0  0  3  0  0  0  0  0  0
  -22.5530   -8.1810   21.3480 C   0  0  0  0  0  0  0  0  0  0  0  0
  -22.1440   -9.1480   20.4110 C   0  0  0  0  0  3  0  0  0  0  0  0
  -22.8830  -10.3290   20.2320 C   0  0  0  0  0  3  0  0  0  0  0  0
  -21.7830   -7.0470   21.4370 O   0  0  0  0  0  0  0  0  0  0  0  0
  -21.7070   -6.3180   22.5970 C   0  0  0  0  0  0  0  0  0  0  0  0
  -21.2400   -6.8850   23.8040 C   0  0  0  0  0  3  0  0  0  0  0  0
  -21.1130   -6.0820   24.9550 C   0  0  0  0  0  3  0  0  0  0  0  0
  -21.4370   -4.7140   24.9000 C   0  0  0  0  0  0  0  0  0  0  0  0
  -21.8950   -4.1470   23.6980 C   0  0  0  0  0  3  0  0  0  0  0  0
  -22.0250   -4.9470   22.5480 C   0  0  0  0  0  0  0  0  0  0  0  0
  -22.4480   -4.3900   21.3880 F   0  0  0  0  0  0  0  0  0  0  0  0
  -21.3070   -3.9410   26.0030 F   0  0  0  0  0  0  0  0  0  0  0  0
  -22.9840  -13.6770   21.2220 C   0  0  0  0  0  0  0  0  0  0  0  0
  -22.2750  -12.9760   22.1000 N   0  0  0  0  0  0  0  0  0  0  0  0
  -22.5470  -14.7230   20.7420 O   0  0  0  0  0  0  0  0  0  0  0  0
  -22.6430  -12.1330   22.5170 H   0  0  0  0  0  0  0  0  0  0  0  0
  -21.3500  -13.2890   22.3600 H   0  0  0  0  0  0  0  0  0  0  0  0
  -25.6090  -15.3090   20.3320 N   0  0  0  0  0  0  0  0  0  0  0  0
  -24.8580  -15.9730   20.4820 H   0  0  0  0  0  0  0  0  0  0  0  0
  -26.4490  -15.7400   19.9660 H   0  0  0  0  0  0  0  0  0  0  0  0
  -28.3320  -24.3990   20.7920 C   0  0  0  0  0  2  0  0  0  0  0  0
  -28.5170  -25.4520   19.6680 C   0  0  0  0  0  2  0  0  0  0  0  0
  -28.3890  -26.8120   20.1330 O   0  0  0  0  0  0  0  0  0  0  0  0
  -24.5770  -31.9380   23.2750 C   0  0  0  0  0  0  0  0  0  0  0  0
  -27.1790  -27.4880   20.1420 C   0  0  0  0  0  0  0  0  0  0  0  0
  -23.3400  -30.5390   21.6500 C   0  0  0  0  0  3  0  0  0  0  0  0
  -24.7710  -28.9950   20.1990 C   0  0  0  0  0  0  0  0  0  0  0  0
  -25.8600  -30.8980   21.4050 C   0  0  0  0  0  2  0  0  0  0  0  0
  -25.9360  -29.5230   20.7680 C   0  0  0  0  0  0  0  0  0  0  0  0
  -27.1370  -28.7750   20.7350 C   0  0  0  0  0  3  0  0  0  0  0  0
  -25.9900  -26.9740   19.5770 C   0  0  0  0  0  3  0  0  0  0  0  0
  -24.7940  -27.7210   19.6050 C   0  0  0  0  0  3  0  0  0  0  0  0
  -23.5260  -29.8540   20.2680 C   0  0  0  0  0  2  0  0  0  0  0  0
  -24.6130  -31.1390   22.1700 N   0  0  0  0  0  0  0  0  0  0  0  0
  -23.5060  -32.2100   23.8360 O   0  0  0  0  0  0  0  0  0  0  0  0
  -22.7060  -29.5190   22.6210 C   0  0  0  0  0  0  0  0  0  0  0  0
  -21.3850  -29.3130   22.4940 N   0  0  0  0  0  0  0  0  0  0  0  0
  -23.3980  -28.9150   23.4440 O   0  0  0  0  0  0  0  0  0  0  0  0
  -20.8850  -29.8560   21.8040 H   0  0  0  0  0  0  0  0  0  0  0  0
  -18.0380  -28.0400   22.9690 C   0  0  0  0  0  0  0  0  0  0  0  0
  -20.5840  -28.3680   23.2720 C   0  0  0  0  0  3  0  0  0  0  0  0
  -20.7300  -26.9310   22.7210 C   0  0  0  0  0  2  0  0  0  0  0  0
  -19.6510  -26.5620   21.6980 C   0  0  0  0  0  2  0  0  0  0  0  0
  -18.2570  -26.6830   22.3210 C   0  0  0  0  0  2  0  0  0  0  0  0
  -19.1310  -28.8390   23.4010 C   0  0  0  0  0  0  0  0  0  0  0  0
  -18.8720  -30.1090   23.9610 C   0  0  0  0  0  3  0  0  0  0  0  0
  -17.5530  -30.5790   24.0990 C   0  0  0  0  0  3  0  0  0  0  0  0
  -16.4740  -29.7780   23.6860 C   0  0  0  0  0  3  0  0  0  0  0  0
  -16.7190  -28.5100   23.1250 C   0  0  0  0  0  3  0  0  0  0  0  0
  -25.8740  -32.5680   23.8750 C   0  0  0  0  0  3  0  0  0  0  0  0
  -26.4110  -31.7980   25.1440 C   0  0  1  0  0  0  0  0  0  0  0  0
  -25.3360  -31.5600   26.2280 C   0  0  0  0  0  1  0  0  0  0  0  0
  -26.9900  -30.4220   24.7390 C   0  0  0  0  0  1  0  0  0  0  0  0
  -27.5690  -32.5950   25.7910 C   0  0  0  0  0  1  0  0  0  0  0  0
  -25.5780  -33.9680   24.2060 N   0  0  0  0  0  0  0  0  0  0  0  0
  -25.9100  -35.0170   23.4410 C   0  0  0  0  0  0  0  0  0  0  0  0
  -26.5700  -34.9070   22.4040 O   0  0  0  0  0  0  0  0  0  0  0  0
  -24.9960  -34.1290   25.0140 H   0  0  0  0  0  0  0  0  0  0  0  0
  -24.1950  -36.8200   23.0840 C   0  0  0  0  0  1  0  0  0  0  0  0
  -25.4310  -36.4070   23.9000 C   0  0  0  0  0  3  0  0  0  0  0  0
  -27.5680  -37.2760   24.7380 C   0  0  0  0  0  1  0  0  0  0  0  0
  -26.4700  -37.4550   23.7910 N   0  0  0  0  0  0  0  0  0  0  0  0
  -26.0670  -38.3760   23.9420 H   0  0  0  0  0  0  0  0  0  0  0  0
  1  2  1  0
  1  8  1  0
  2 51  1  0
  2  4  1  0
  3  1  2  0
  6  5  1  0
  7  5  2  0
  8  6  2  0
  9  7  1  0
 10  9  2  0
 10  8  1  0
 11 10  1  0
 12  9  1  0
 12 21  1  0
 13 21  1  0
 14 19  1  0
 15 16  1  0
 15 14  1  0
 17 16  1  0
 17 26  1  0
 17 18  1  0
 19 13  1  0
 19 18  1  0
 20 13  2  0
 21 22  1  0
 23 24  2  0
 24 43  1  0
 25 24  1  0
 25 28  1  0
 26 27  1  0
 26 23  1  0
 27 25  2  0
 28 29  1  0
 29 30  2  0
 31 34  1  0
 31 30  1  0
 32 31  2  0
 33 32  1  0
 33 28  2  0
 34 35  1  0
 35 36  1  0
 36 37  2  0
 38 37  1  0
 38 42  1  0
 39 38  2  0
 40 35  2  0
 40 39  1  0
 41 40  1  0
 43 44  1  0
 44 47  1  0
 44 46  1  0
 45 43  2  0
 48 49  1  0
 48 23  1  0
 50 48  1  0
 52 53  1  0
 52 51  1  0
 53 55  1  0
 54 65  2  0
 55 60  1  0
 56 64  1  0
 56 66  1  0
 57 63  1  0
 57 59  1  0
 58 64  1  0
 59 58  1  0
 60 59  2  0
 61 62  1  0
 61 55  2  0
 62 57  2  0
 63 56  1  0
 64 54  1  0
 66 68  2  0
 67 66  1  0
 69 67  1  0
 70 79  2  0
 70 75  1  0
 71 67  1  0
 71 75  1  0
 72 71  1  0
 73 74  1  0
 73 72  1  0
 74 70  1  0
 75 76  2  0
 76 77  1  0
 78 77  2  0
 79 78  1  0
 80 54  1  0
 80 85  1  0
 80 81  1  0
 81 84  1  1
 81 82  1  0
 83 81  1  0
 85 88  1  0
 86 90  1  0
 86 85  1  0
 87 86  2  0
 90 89  1  0
 92 90  1  0
 92 93  1  0
 92 91  1  0
M  ISO  4  13 100  21 100  52 101  53 101
M  END
>  <TORSDO>  (37) 
F 20

>  <SCORE>  (37) 
-14.010

>  <name>  (37) 
36

>  <ligand_id>  (37) 
36

>  <original_smiles>  (37) 
[H]c1c([H])c(C(=O)N([H])C([H])([H])C([H])([H])Oc2c([H])c([H])c3c(c2[H])C([H])([H])N(C(=O)C([H])(N([H])C(=O)C([H])(N([H])C([H])([H])[H])C([H])([H])[H])C(C([H])([H])[H])(C([H])([H])[H])C([H])([H])[H])C([H])(C(=O)N([H])C2([H])c4c([H])c([H])c([H])c([H])c4C([H])([H])C([H])([H])C2([H])[H])C3([H])[H])c(C([H])([H])[H])c(C([H])([H])N([H])C(=O)N2C([H])([H])C([H])([H])C([H])([H])C([H])(n3nc(-c4c([H])c([H])c(Oc5c([H])c([H])c(F)c([H])c5F)c([H])c4[H])c(C(=O)N([H])[H])c3N([H])[H])C2([H])[H])c1[H]

>  <smiles>  (37) 
[H]c1c([H])c(C(=O)N([H])C([H])([H])C([H])([H])Oc2c([H])c([H])c3c(c2[H])C([H])([H])N(C(=O)C([H])(N([H])C(=O)C([H])(N([H])C([H])([H])[H])C([H])([H])[H])C(C([H])([H])[H])(C([H])([H])[H])C([H])([H])[H])C([H])(C(=O)N([H])C2([H])c4c([H])c([H])c([H])c([H])c4C([H])([H])C([H])([H])C2([H])[H])C3([H])[H])c(C([H])([H])[H])c(C([H])([H])N([H])C(=O)N2C([H])([H])C([H])([H])C([H])([H])C([H])(n3nc(-c4c([H])c([H])c(Oc5c([H])c([H])c(F)c([H])c5F)c([H])c4[H])c(C(=O)N([H])[H])c3N([H])[H])C2([H])[H])c1[H]

$$$$
37:0:0
     RDKit          3D

 92100  0  0  1  0  0  0  0  0999 V2000
  -29.0110  -21.9060   22.8030 C   0  0  0  0  0  3  0  0  0  0  0  0
  -29.2010  -20.6750   22.1640 C   0  0  0  0  0  3  0  0  0  0  0  0
  -28.9900  -23.0950   22.0610 C   0  0  0  0  0  3  0  0  0  0  0  0
  -29.3450  -20.5890   20.7600 C   0  0  0  0  0  0  0  0  0  0  0  0
  -29.1290  -23.0900   20.6520 C   0  0  0  0  0  0  0  0  0  0  0  0
  -29.2670  -21.8090   19.9960 C   0  0  0  0  0  0  0  0  0  0  0  0
  -29.3110  -21.7200   18.4690 C   0  0  0  0  0  1  0  0  0  0  0  0
  -29.5680  -19.2310   20.1480 C   0  0  0  0  0  3  0  0  0  0  0  0
  -29.7250  -18.0390   20.7840 C   0  0  0  0  0  3  0  0  0  0  0  0
  -29.8810  -16.6750   20.0970 C   0  0  0  0  0  2  0  0  0  0  0  0
  -31.4220  -14.7300   20.0680 C   0  0  0  0  0  0  0  0  0  0  0  0
  -31.0340  -12.5070   19.0560 C   0  0  0  0  0  2  0  0  0  0  0  0
  -30.0820  -12.6190   17.8500 C   0  0  0  0  0  2  0  0  0  0  0  0
  -28.6160  -12.5270   18.3200 C   0  0  0  0  0  2  0  0  0  0  0  0
  -28.3050  -13.4820   19.5000 C   0  0  0  0  0  3  0  0  0  0  0  0
  -29.3710  -13.3570   20.6100 C   0  0  0  0  0  2  0  0  0  0  0  0
  -30.6880  -13.5830   20.0000 N   0  0  0  0  0  0  0  0  0  0  0  0
  -32.5390  -14.8340   19.5590 O   0  0  0  0  0  0  0  0  0  0  0  0
  -30.8920  -15.7910   20.7090 N   0  0  0  0  0  0  0  0  0  0  0  0
  -31.6250  -16.3360   21.1420 H   0  0  0  0  0  0  0  0  0  0  0  0
  -25.9730  -14.2050   20.3050 C   0  0  0  0  0  0  0  0  0  0  0  0
  -24.8770  -13.4830   20.6970 C   0  0  0  0  0  0  0  0  0  0  0  0
  -25.2630  -12.1100   20.6280 C   0  0  0  0  0  0  0  0  0  0  0  0
  -26.9590  -13.2730   20.0230 N   0  0  0  0  0  0  0  0  0  0  0  0
  -26.5390  -12.0070   20.2790 N   0  0  0  0  0  0  0  0  0  0  0  0
  -24.4760  -10.8850   20.8200 C   0  0  0  0  0  0  0  0  0  0  0  0
  -24.8450   -9.9140   21.7740 C   0  0  0  0  0  3  0  0  0  0  0  0
  -24.0630   -8.7520   21.9520 C   0  0  0  0  0  3  0  0  0  0  0  0
  -22.8960   -8.5580   21.1750 C   0  0  0  0  0  0  0  0  0  0  0  0
  -22.5470   -9.5180   20.2080 C   0  0  0  0  0  3  0  0  0  0  0  0
  -23.3310  -10.6700   20.0290 C   0  0  0  0  0  3  0  0  0  0  0  0
  -22.0880   -7.4490   21.2620 O   0  0  0  0  0  0  0  0  0  0  0  0
  -21.9220   -6.7710   22.4420 C   0  0  0  0  0  0  0  0  0  0  0  0
  -21.4120   -7.4020   23.5980 C   0  0  0  0  0  3  0  0  0  0  0  0
  -21.1930   -6.6510   24.7700 C   0  0  0  0  0  3  0  0  0  0  0  0
  -21.4700   -5.2720   24.7850 C   0  0  0  0  0  0  0  0  0  0  0  0
  -21.9690   -4.6410   23.6320 C   0  0  0  0  0  3  0  0  0  0  0  0
  -22.1940   -5.3880   22.4630 C   0  0  0  0  0  0  0  0  0  0  0  0
  -22.6560   -4.7710   21.3490 F   0  0  0  0  0  0  0  0  0  0  0  0
  -21.2520   -4.5480   25.9090 F   0  0  0  0  0  0  0  0  0  0  0  0
  -23.5160  -14.0290   21.0220 C   0  0  0  0  0  0  0  0  0  0  0  0
  -22.7880  -13.3640   21.9130 N   0  0  0  0  0  0  0  0  0  0  0  0
  -23.1120  -15.0780   20.5250 O   0  0  0  0  0  0  0  0  0  0  0  0
  -23.1300  -12.5140   22.3350 H   0  0  0  0  0  0  0  0  0  0  0  0
  -21.8760  -13.7090   22.1750 H   0  0  0  0  0  0  0  0  0  0  0  0
  -26.2030  -15.5670   20.1390 N   0  0  0  0  0  0  0  0  0  0  0  0
  -25.4710  -16.2570   20.2760 H   0  0  0  0  0  0  0  0  0  0  0  0
  -27.0600  -15.9650   19.7760 H   0  0  0  0  0  0  0  0  0  0  0  0
  -29.1860  -24.4480   19.9560 C   0  0  0  0  0  0  0  0  0  0  0  0
  -29.6650  -24.6220   18.8300 O   0  0  0  0  0  0  0  0  0  0  0  0
  -28.6540  -25.6920   20.7220 C   0  0  0  0  0  2  0  0  0  0  0  0
  -28.6700  -26.9040   19.9360 O   0  0  0  0  0  0  0  0  0  0  0  0
  -24.7500  -31.8620   23.2550 C   0  0  0  0  0  0  0  0  0  0  0  0
  -27.4940  -27.6200   19.9810 C   0  0  0  0  0  0  0  0  0  0  0  0
  -23.5870  -30.4730   21.5950 C   0  0  0  0  0  3  0  0  0  0  0  0
  -25.0520  -29.0370   20.0820 C   0  0  0  0  0  0  0  0  0  0  0  0
  -26.0820  -30.9330   21.3530 C   0  0  0  0  0  2  0  0  0  0  0  0
  -26.2020  -29.5870   20.6620 C   0  0  0  0  0  0  0  0  0  0  0  0
  -27.4300  -28.8890   20.6020 C   0  0  0  0  0  3  0  0  0  0  0  0
  -26.3290  -27.0840   19.3930 C   0  0  0  0  0  3  0  0  0  0  0  0
  -25.1100  -27.7870   19.4420 C   0  0  0  0  0  3  0  0  0  0  0  0
  -23.7800  -29.8460   20.1880 C   0  0  0  0  0  2  0  0  0  0  0  0
  -24.8290  -31.1020   22.1260 N   0  0  0  0  0  0  0  0  0  0  0  0
  -23.6660  -32.0720   23.8180 O   0  0  0  0  0  0  0  0  0  0  0  0
  -22.9920  -29.4080   22.5370 C   0  0  0  0  0  0  0  0  0  0  0  0
  -21.6820  -29.2560   22.3840 N   0  0  0  0  0  0  0  0  0  0  0  0
  -23.6820  -28.7430   23.3110 O   0  0  0  0  0  0  0  0  0  0  0  0
  -21.2510  -29.9360   21.7710 H   0  0  0  0  0  0  0  0  0  0  0  0
  -18.3440  -27.6180   22.7410 C   0  0  0  0  0  0  0  0  0  0  0  0
  -20.7880  -28.1850   22.7410 C   0  0  0  0  0  3  0  0  0  0  0  0
  -21.1480  -26.7110   22.5240 C   0  0  0  0  0  2  0  0  0  0  0  0
  -20.1000  -26.0920   21.5740 C   0  0  0  0  0  2  0  0  0  0  0  0
  -18.6590  -26.2630   22.1030 C   0  0  0  0  0  2  0  0  0  0  0  0
  -19.3730  -28.5000   23.1540 C   0  0  0  0  0  0  0  0  0  0  0  0
  -19.0540  -29.7370   23.7530 C   0  0  0  0  0  3  0  0  0  0  0  0
  -17.7080  -30.1190   23.8960 C   0  0  0  0  0  3  0  0  0  0  0  0
  -16.6820  -29.2610   23.4600 C   0  0  0  0  0  3  0  0  0  0  0  0
  -17.0000  -28.0080   22.9010 C   0  0  0  0  0  3  0  0  0  0  0  0
  -26.0160  -32.5210   23.8750 C   0  0  0  0  0  3  0  0  0  0  0  0
  -26.5450  -31.7520   25.1480 C   0  0  1  0  0  0  0  0  0  0  0  0
  -25.4520  -31.4670   26.2040 C   0  0  0  0  0  1  0  0  0  0  0  0
  -27.1790  -30.4000   24.7460 C   0  0  0  0  0  1  0  0  0  0  0  0
  -27.6600  -32.5810   25.8270 C   0  0  0  0  0  1  0  0  0  0  0  0
  -25.6720  -33.9090   24.2060 N   0  0  0  0  0  0  0  0  0  0  0  0
  -25.9830  -34.9670   23.4470 C   0  0  0  0  0  0  0  0  0  0  0  0
  -26.6610  -34.8790   22.4190 O   0  0  0  0  0  0  0  0  0  0  0  0
  -25.0700  -34.0490   25.0020 H   0  0  0  0  0  0  0  0  0  0  0  0
  -24.2190  -36.7200   23.0790 C   0  0  0  0  0  1  0  0  0  0  0  0
  -25.4610  -36.3420   23.9010 C   0  0  0  0  0  3  0  0  0  0  0  0
  -27.5660  -37.2750   24.7540 C   0  0  0  0  0  1  0  0  0  0  0  0
  -26.4710  -37.4170   23.7970 N   0  0  0  0  0  0  0  0  0  0  0  0
  -26.0440  -38.3280   23.9380 H   0  0  0  0  0  0  0  0  0  0  0  0
  2  1  1  0
  3  1  2  0
  4  2  2  0
  5  3  1  0
  6  5  2  0
  6  4  1  0
  7  6  1  0
  8  4  1  0
  8  9  2  0
 10 19  1  0
 10  9  1  0
 11 19  1  0
 12 17  1  0
 13 14  1  0
 13 12  1  0
 15 14  1  0
 15 24  1  0
 15 16  1  0
 17 11  1  0
 17 16  1  0
 18 11  2  0
 19 20  1  0
 21 22  2  0
 22 41  1  0
 23 22  1  0
 23 26  1  0
 24 25  1  0
 24 21  1  0
 25 23  2  0
 26 27  1  0
 27 28  2  0
 29 32  1  0
 29 28  1  0
 30 29  2  0
 31 30  1  0
 31 26  2  0
 32 33  1  0
 33 38  2  0
 33 34  1  0
 34 35  2  0
 35 36  1  0
 36 40  1  0
 37 36  2  0
 38 37  1  0
 39 38  1  0
 41 42  1  0
 42 45  1  0
 42 44  1  0
 43 41  2  0
 46 47  1  0
 46 21  1  0
 48 46  1  0
 49  5  1  0
 49 51  1  0
 50 49  2  0
 52 54  1  0
 52 51  1  0
 53 64  2  0
 54 59  1  0
 55 63  1  0
 55 65  1  0
 56 62  1  0
 56 58  1  0
 57 63  1  0
 58 57  1  0
 59 58  2  0
 60 61  1  0
 60 54  2  0
 61 56  2  0
 62 55  1  0
 63 53  1  0
 65 67  2  0
 66 65  1  0
 68 66  1  0
 69 78  2  0
 69 74  1  0
 70 66  1  0
 70 74  1  0
 71 70  1  0
 72 73  1  0
 72 71  1  0
 73 69  1  0
 74 75  2  0
 75 76  1  0
 77 76  2  0
 78 77  1  0
 79 53  1  0
 79 84  1  0
 79 80  1  0
 80 83  1  1
 80 81  1  0
 82 80  1  0
 84 87  1  0
 85 89  1  0
 85 84  1  0
 86 85  2  0
 89 88  1  0
 91 89  1  0
 91 92  1  0
 91 90  1  0
M  ISO  4  11 100  19 100  51 101  52 101
M  END
>  <TORSDO>  (38) 
F 20

>  <SCORE>  (38) 
-12.331

>  <name>  (38) 
37

>  <ligand_id>  (38) 
37

>  <original_smiles>  (38) 
[H]C(=C([H])C([H])([H])N([H])C(=O)N1C([H])([H])C([H])([H])C([H])([H])C([H])(n2nc(-c3c([H])c([H])c(Oc4c([H])c([H])c(F)c([H])c4F)c([H])c3[H])c(C(=O)N([H])[H])c2N([H])[H])C1([H])[H])c1c([H])c([H])c([H])c(C(=O)C([H])([H])Oc2c([H])c([H])c3c(c2[H])C([H])([H])N(C(=O)C([H])(N([H])C(=O)C([H])(N([H])C([H])([H])[H])C([H])([H])[H])C(C([H])([H])[H])(C([H])([H])[H])C([H])([H])[H])C([H])(C(=O)N([H])C2([H])c4c([H])c([H])c([H])c([H])c4C([H])([H])C([H])([H])C2([H])[H])C3([H])[H])c1C([H])([H])[H]

>  <smiles>  (38) 
[H]C(=C([H])C([H])([H])N([H])C(=O)N1C([H])([H])C([H])([H])C([H])([H])C([H])(n2nc(-c3c([H])c([H])c(Oc4c([H])c([H])c(F)c([H])c4F)c([H])c3[H])c(C(=O)N([H])[H])c2N([H])[H])C1([H])[H])c1c([H])c([H])c([H])c(C(=O)C([H])([H])Oc2c([H])c([H])c3c(c2[H])C([H])([H])N(C(=O)C([H])(N([H])C(=O)C([H])(N([H])C([H])([H])[H])C([H])([H])[H])C(C([H])([H])[H])(C([H])([H])[H])C([H])([H])[H])C([H])(C(=O)N([H])C2([H])c4c([H])c([H])c([H])c([H])c4C([H])([H])C([H])([H])C2([H])[H])C3([H])[H])c1C([H])([H])[H]

$$$$
38:0:0
     RDKit          3D

 95104  0  0  1  0  0  0  0  0999 V2000
  -28.5100  -18.1910   19.3830 C   0  0  0  0  0  2  0  0  0  0  0  0
  -29.1880  -19.1600   21.6410 C   0  0  0  0  0  2  0  0  0  0  0  0
  -31.5320  -18.4790   20.6540 C   0  0  0  0  0  2  0  0  0  0  0  0
  -29.8350  -17.4720   19.0020 C   0  0  0  0  0  3  0  0  0  0  0  0
  -28.8310  -19.5190   20.1680 C   0  0  0  0  0  3  0  0  0  0  0  0
  -30.8080  -18.7750   19.3240 C   0  0  0  0  0  3  0  0  0  0  0  0
  -30.7160  -18.9010   21.9300 C   0  0  2  0  0  0  0  0  0  0  0  0
  -30.8540  -17.8140   23.0160 C   0  0  0  0  0  1  0  0  0  0  0  0
  -31.3390  -20.1950   22.5090 C   0  0  0  0  0  1  0  0  0  0  0  0
  -30.0490  -20.1200   19.5810 N   0  0  1  0  0  4  0  0  0  0  0  0
  -30.5370  -20.4760   20.3910 H   0  0  0  0  0  0  0  0  0  0  0  0
  -30.6980  -14.7860   19.2780 C   0  0  0  0  0  0  0  0  0  0  0  0
  -30.4610  -12.3820   18.4900 C   0  0  0  0  0  2  0  0  0  0  0  0
  -29.3790  -12.3050   17.3850 C   0  0  0  0  0  2  0  0  0  0  0  0
  -27.9800  -12.1340   18.0050 C   0  0  0  0  0  2  0  0  0  0  0  0
  -27.7380  -13.1090   19.1860 C   0  0  0  0  0  3  0  0  0  0  0  0
  -28.9260  -13.1460   20.1730 C   0  0  0  0  0  2  0  0  0  0  0  0
  -30.1200  -13.5190   19.3990 N   0  0  0  0  0  0  0  0  0  0  0  0
  -31.8160  -14.8410   18.7570 O   0  0  0  0  0  0  0  0  0  0  0  0
  -29.9420  -15.9670   19.5580 N   0  0  0  0  0  0  0  0  0  0  0  0
  -29.1270  -15.7230   20.0990 H   0  0  0  0  0  0  0  0  0  0  0  0
  -25.5360  -13.7710   20.3060 C   0  0  0  0  0  0  0  0  0  0  0  0
  -24.4900  -13.0370   20.7890 C   0  0  0  0  0  0  0  0  0  0  0  0
  -24.8540  -11.6660   20.6150 C   0  0  0  0  0  0  0  0  0  0  0  0
  -26.4710  -12.8530   19.8600 N   0  0  0  0  0  0  0  0  0  0  0  0
  -26.0800  -11.5760   20.1110 N   0  0  0  0  0  0  0  0  0  0  0  0
  -24.0810  -10.4370   20.8400 C   0  0  0  0  0  0  0  0  0  0  0  0
  -24.5400   -9.4240   21.7120 C   0  0  0  0  0  3  0  0  0  0  0  0
  -23.7680   -8.2630   21.9280 C   0  0  0  0  0  3  0  0  0  0  0  0
  -22.5220   -8.1060   21.2760 C   0  0  0  0  0  0  0  0  0  0  0  0
  -22.0810   -9.1070   20.3940 C   0  0  0  0  0  3  0  0  0  0  0  0
  -22.8520  -10.2600   20.1740 C   0  0  0  0  0  3  0  0  0  0  0  0
  -21.7160   -7.0000   21.4070 O   0  0  0  0  0  0  0  0  0  0  0  0
  -21.6750   -6.2730   22.5690 C   0  0  0  0  0  0  0  0  0  0  0  0
  -21.3200   -6.8620   23.8040 C   0  0  0  0  0  3  0  0  0  0  0  0
  -21.2250   -6.0640   24.9620 C   0  0  0  0  0  3  0  0  0  0  0  0
  -21.4720   -4.6790   24.8860 C   0  0  0  0  0  0  0  0  0  0  0  0
  -21.8180   -4.0930   23.6570 C   0  0  0  0  0  3  0  0  0  0  0  0
  -21.9170   -4.8870   22.5020 C   0  0  0  0  0  0  0  0  0  0  0  0
  -22.2310   -4.3120   21.3160 F   0  0  0  0  0  0  0  0  0  0  0  0
  -21.3710   -3.9120   25.9960 F   0  0  0  0  0  0  0  0  0  0  0  0
  -23.1830  -13.5750   21.2930 C   0  0  0  0  0  0  0  0  0  0  0  0
  -22.5570  -12.8800   22.2350 N   0  0  0  0  0  0  0  0  0  0  0  0
  -22.7340  -14.6460   20.8850 O   0  0  0  0  0  0  0  0  0  0  0  0
  -22.9380  -12.0130   22.5830 H   0  0  0  0  0  0  0  0  0  0  0  0
  -21.6860  -13.2230   22.6160 H   0  0  0  0  0  0  0  0  0  0  0  0
  -25.7600  -15.1390   20.1770 N   0  0  0  0  0  0  0  0  0  0  0  0
  -25.0460  -15.8200   20.4100 H   0  0  0  0  0  0  0  0  0  0  0  0
  -26.5320  -15.5330   19.6590 H   0  0  0  0  0  0  0  0  0  0  0  0
  -29.9590  -21.4760   18.7330 C   0  0  0  0  0  2  0  0  0  0  0  0
  -29.6800  -23.0200   19.4260 C   0  0  0  0  0  3  0  0  0  0  0  0
  -28.7280  -22.7660   20.4480 O   0  0  0  0  0  0  0  0  0  0  0  0
  -27.8630  -22.7590   20.0480 H   0  0  0  0  0  0  0  0  0  0  0  0
  -29.1360  -24.4460   18.6400 C   0  0  0  0  0  2  0  0  0  0  0  0
  -29.0240  -25.9440   19.1350 O   0  0  0  0  0  0  0  0  0  0  0  0
  -24.8330  -30.8620   22.7250 C   0  0  0  0  0  0  0  0  0  0  0  0
  -27.8530  -26.8060   19.1500 C   0  0  0  0  0  0  0  0  0  0  0  0
  -23.7610  -29.5320   20.9490 C   0  0  0  0  0  3  0  0  0  0  0  0
  -25.3430  -28.2940   19.3390 C   0  0  0  0  0  0  0  0  0  0  0  0
  -26.2690  -30.0900   20.7970 C   0  0  0  0  0  2  0  0  0  0  0  0
  -26.4800  -28.7930   19.9860 C   0  0  0  0  0  0  0  0  0  0  0  0
  -27.7280  -28.0640   19.8790 C   0  0  0  0  0  3  0  0  0  0  0  0
  -26.6750  -26.4210   18.4720 C   0  0  0  0  0  3  0  0  0  0  0  0
  -25.4540  -27.1280   18.5690 C   0  0  0  0  0  3  0  0  0  0  0  0
  -24.0250  -29.0390   19.5020 C   0  0  0  0  0  2  0  0  0  0  0  0
  -24.9730  -30.1800   21.5460 N   0  0  0  0  0  0  0  0  0  0  0  0
  -23.7330  -30.9640   23.2910 O   0  0  0  0  0  0  0  0  0  0  0  0
  -23.2150  -28.3570   21.8000 C   0  0  0  0  0  0  0  0  0  0  0  0
  -21.9180  -28.0360   21.6440 N   0  0  0  0  0  0  0  0  0  0  0  0
  -23.9620  -27.7390   22.5620 O   0  0  0  0  0  0  0  0  0  0  0  0
  -21.3660  -28.5870   21.0010 H   0  0  0  0  0  0  0  0  0  0  0  0
  -18.7350  -26.3320   21.9310 C   0  0  0  0  0  0  0  0  0  0  0  0
  -21.2230  -26.9300   22.3070 C   0  0  0  0  0  3  0  0  0  0  0  0
  -21.5450  -25.5800   21.6230 C   0  0  0  0  0  2  0  0  0  0  0  0
  -20.5250  -25.1930   20.5480 C   0  0  0  0  0  2  0  0  0  0  0  0
  -19.1200  -25.0860   21.1510 C   0  0  0  0  0  2  0  0  0  0  0  0
  -19.7210  -27.2050   22.4610 C   0  0  0  0  0  0  0  0  0  0  0  0
  -19.3090  -28.3650   23.1520 C   0  0  0  0  0  3  0  0  0  0  0  0
  -17.9420  -28.6570   23.3170 C   0  0  0  0  0  3  0  0  0  0  0  0
  -16.9690  -27.7800   22.8060 C   0  0  0  0  0  3  0  0  0  0  0  0
  -17.3670  -26.6200   22.1190 C   0  0  0  0  0  3  0  0  0  0  0  0
  -26.0440  -31.5650   23.4110 C   0  0  0  0  0  3  0  0  0  0  0  0
  -26.6660  -30.7180   24.5880 C   0  0  1  0  0  0  0  0  0  0  0  0
  -25.6280  -30.2470   25.6340 C   0  0  0  0  0  1  0  0  0  0  0  0
  -27.3820  -29.4620   24.0430 C   0  0  0  0  0  1  0  0  0  0  0  0
  -27.7420  -31.5520   25.3230 C   0  0  0  0  0  1  0  0  0  0  0  0
  -25.5820  -32.8720   23.9120 N   0  0  0  0  0  0  0  0  0  0  0  0
  -25.7960  -34.0440   23.3010 C   0  0  0  0  0  0  0  0  0  0  0  0
  -26.4670  -34.1470   22.2710 O   0  0  0  0  0  0  0  0  0  0  0  0
  -24.9760  -32.8560   24.7190 H   0  0  0  0  0  0  0  0  0  0  0  0
  -23.8880  -35.6800   23.1680 C   0  0  0  0  0  1  0  0  0  0  0  0
  -25.1680  -35.3030   23.9320 C   0  0  0  0  0  3  0  0  0  0  0  0
  -27.2000  -36.2910   24.8930 C   0  0  0  0  0  1  0  0  0  0  0  0
  -26.0840  -36.4640   23.9680 N   0  0  0  0  0  0  0  0  0  0  0  0
  -25.5820  -37.3090   24.2300 H   0  0  0  0  0  0  0  0  0  0  0  0
  2  7  1  0
  3  7  1  0
  4  6  1  0
  4  1  1  0
  4 20  1  0
  5  1  1  0
  5  2  1  0
  6 10  1  0
  6  3  1  0
  7  9  1  1
  7  8  1  0
 10  5  1  0
 10 11  1  1
 12 18  1  0
 12 20  1  0
 13 18  1  0
 14 15  1  0
 14 13  1  0
 16 15  1  0
 16 25  1  0
 16 17  1  0
 18 17  1  0
 19 12  2  0
 20 21  1  0
 22 23  2  0
 23 42  1  0
 24 23  1  0
 24 27  1  0
 25 26  1  0
 25 22  1  0
 26 24  2  0
 27 28  1  0
 28 29  2  0
 30 33  1  0
 30 29  1  0
 31 30  2  0
 32 31  1  0
 32 27  2  0
 33 34  1  0
 34 35  1  0
 35 36  2  0
 37 36  1  0
 37 41  1  0
 38 37  2  0
 39 34  2  0
 39 38  1  0
 40 39  1  0
 42 43  1  0
 43 45  1  0
 43 46  1  0
 44 42  2  0
 47 22  1  0
 47 48  1  0
 49 47  1  0
 50 51  1  0
 50 10  1  0
 51 54  1  0
 51 52  1  0
 53 52  1  0
 54 55  1  0
 55 57  1  0
 56 67  2  0
 57 62  1  0
 58 66  1  0
 58 68  1  0
 59 65  1  0
 59 61  1  0
 60 66  1  0
 61 60  1  0
 62 61  2  0
 63 64  1  0
 63 57  2  0
 64 59  2  0
 65 58  1  0
 66 56  1  0
 68 70  2  0
 69 68  1  0
 71 69  1  0
 72 81  2  0
 72 77  1  0
 73 69  1  0
 73 77  1  0
 74 73  1  0
 75 76  1  0
 75 74  1  0
 76 72  1  0
 77 78  2  0
 78 79  1  0
 80 79  2  0
 81 80  1  0
 82 56  1  0
 82 87  1  0
 82 83  1  0
 83 86  1  1
 83 84  1  0
 85 83  1  0
 87 90  1  0
 88 87  1  0
 88 92  1  0
 89 88  2  0
 92 91  1  0
 92 94  1  0
 94 95  1  0
 94 93  1  0
M  ISO  4  12 100  20 100  54 101  55 101
M  END
>  <TORSDO>  (39) 
F 20

>  <SCORE>  (39) 
-10.896

>  <name>  (39) 
38

>  <ligand_id>  (39) 
38

>  <original_smiles>  (39) 
[H]OC([H])(C([H])([H])Oc1c([H])c([H])c2c(c1[H])C([H])([H])N(C(=O)C([H])(N([H])C(=O)C([H])(N([H])C([H])([H])[H])C([H])([H])[H])C(C([H])([H])[H])(C([H])([H])[H])C([H])([H])[H])C([H])(C(=O)N([H])C1([H])c3c([H])c([H])c([H])c([H])c3C([H])([H])C([H])([H])C1([H])[H])C2([H])[H])C([H])([H])[N+]1([H])C2([H])C([H])([H])C([H])(N([H])C(=O)N3C([H])([H])C([H])([H])C([H])([H])C([H])(n4nc(-c5c([H])c([H])c(Oc6c([H])c([H])c(F)c([H])c6F)c([H])c5[H])c(C(=O)N([H])[H])c4N([H])[H])C3([H])[H])C1([H])C([H])([H])C(C([H])([H])[H])(C([H])([H])[H])C2([H])[H]

>  <smiles>  (39) 
[H]OC([H])(C([H])([H])Oc1c([H])c([H])c2c(c1[H])C([H])([H])N(C(=O)C([H])(N([H])C(=O)C([H])(N([H])C([H])([H])[H])C([H])([H])[H])C(C([H])([H])[H])(C([H])([H])[H])C([H])([H])[H])C([H])(C(=O)N([H])C1([H])c3c([H])c([H])c([H])c([H])c3C([H])([H])C([H])([H])C1([H])[H])C2([H])[H])C([H])([H])[N+]1([H])C2([H])C([H])([H])C([H])(N([H])C(=O)N3C([H])([H])C([H])([H])C([H])([H])C([H])(n4nc(-c5c([H])c([H])c(Oc6c([H])c([H])c(F)c([H])c6F)c([H])c5[H])c(C(=O)N([H])[H])c4N([H])[H])C3([H])[H])C1([H])C([H])([H])C(C([H])([H])[H])(C([H])([H])[H])C2([H])[H]

$$$$
39:0:0
     RDKit          3D

 96105  0  0  1  0  0  0  0  0999 V2000
  -30.4330  -20.1930   22.1090 C   0  0  0  0  0  3  0  0  0  0  0  0
  -28.2540  -22.5730   20.8150 C   0  0  0  0  0  2  0  0  0  0  0  0
  -30.7270  -24.8570   21.8120 C   0  0  0  0  0  2  0  0  0  0  0  0
  -28.1390  -21.2830   21.6480 C   0  0  0  0  0  2  0  0  0  0  0  0
  -30.7730  -22.5460   23.1550 C   0  0  0  0  0  2  0  0  0  0  0  0
  -29.0310  -23.6320   21.5770 C   0  0  0  0  0  3  0  0  0  0  0  0
  -30.4990  -23.3390   21.8820 C   0  0  0  0  0  3  0  0  0  0  0  0
  -29.4520  -24.9780   20.9640 C   0  0  0  0  0  3  0  0  0  0  0  0
  -29.2550  -20.3400   21.4540 N   0  0  0  0  0  0  0  0  0  0  0  0
  -31.0260  -21.1220   22.8930 N   0  0  0  0  0  0  0  0  0  0  0  0
  -29.0360  -19.6030   20.7990 H   0  0  0  0  0  0  0  0  0  0  0  0
  -31.8730  -20.8070   23.3440 H   0  0  0  0  0  0  0  0  0  0  0  0
  -31.1360  -18.9630   22.0100 C   0  0  0  0  0  3  0  0  0  0  0  0
  -30.6740  -17.7990   21.5140 C   0  0  0  0  0  3  0  0  0  0  0  0
  -31.5260  -16.5420   21.5040 C   0  0  0  0  0  2  0  0  0  0  0  0
  -31.1840  -14.5240   20.0770 C   0  0  0  0  0  0  0  0  0  0  0  0
  -30.7760  -12.3570   18.9630 C   0  0  0  0  0  2  0  0  0  0  0  0
  -29.7700  -12.4920   17.8050 C   0  0  0  0  0  2  0  0  0  0  0  0
  -28.3260  -12.3650   18.3240 C   0  0  0  0  0  2  0  0  0  0  0  0
  -28.0510  -13.2790   19.5480 C   0  0  0  0  0  3  0  0  0  0  0  0
  -29.1570  -13.1150   20.6120 C   0  0  0  0  0  2  0  0  0  0  0  0
  -30.4600  -13.3790   19.9740 N   0  0  0  0  0  0  0  0  0  0  0  0
  -32.1610  -14.7730   19.3630 O   0  0  0  0  0  0  0  0  0  0  0  0
  -30.7990  -15.3560   21.0540 N   0  0  0  0  0  0  0  0  0  0  0  0
  -30.0040  -15.0600   21.6040 H   0  0  0  0  0  0  0  0  0  0  0  0
  -25.7300  -13.9380   20.4490 C   0  0  0  0  0  0  0  0  0  0  0  0
  -24.6620  -13.1860   20.8600 C   0  0  0  0  0  0  0  0  0  0  0  0
  -25.0690  -11.8220   20.7380 C   0  0  0  0  0  0  0  0  0  0  0  0
  -26.7230  -13.0330   20.1080 N   0  0  0  0  0  0  0  0  0  0  0  0
  -26.3320  -11.7540   20.3360 N   0  0  0  0  0  0  0  0  0  0  0  0
  -24.3130  -10.5780   20.9260 C   0  0  0  0  0  0  0  0  0  0  0  0
  -24.7090   -9.6090   21.8750 C   0  0  0  0  0  3  0  0  0  0  0  0
  -23.9570   -8.4280   22.0500 C   0  0  0  0  0  3  0  0  0  0  0  0
  -22.7930   -8.2070   21.2760 C   0  0  0  0  0  0  0  0  0  0  0  0
  -22.4150   -9.1640   20.3170 C   0  0  0  0  0  3  0  0  0  0  0  0
  -23.1690  -10.3370   20.1400 C   0  0  0  0  0  3  0  0  0  0  0  0
  -22.0140   -7.0780   21.3580 O   0  0  0  0  0  0  0  0  0  0  0  0
  -21.8470   -6.4030   22.5400 C   0  0  0  0  0  0  0  0  0  0  0  0
  -21.2910   -7.0240   23.6790 C   0  0  0  0  0  3  0  0  0  0  0  0
  -21.0740   -6.2760   24.8550 C   0  0  0  0  0  3  0  0  0  0  0  0
  -21.4030   -4.9070   24.8890 C   0  0  0  0  0  0  0  0  0  0  0  0
  -21.9520   -4.2870   23.7530 C   0  0  0  0  0  3  0  0  0  0  0  0
  -22.1720   -5.0320   22.5810 C   0  0  0  0  0  0  0  0  0  0  0  0
  -22.6820   -4.4240   21.4830 F   0  0  0  0  0  0  0  0  0  0  0  0
  -21.1880   -4.1860   26.0130 F   0  0  0  0  0  0  0  0  0  0  0  0
  -23.3070  -13.6960   21.2560 C   0  0  0  0  0  0  0  0  0  0  0  0
  -22.6240  -12.9930   22.1520 N   0  0  0  0  0  0  0  0  0  0  0  0
  -22.8640  -14.7530   20.8040 O   0  0  0  0  0  0  0  0  0  0  0  0
  -22.9950  -12.1360   22.5350 H   0  0  0  0  0  0  0  0  0  0  0  0
  -21.7180  -13.3160   22.4600 H   0  0  0  0  0  0  0  0  0  0  0  0
  -25.9320  -15.3090   20.3170 N   0  0  0  0  0  0  0  0  0  0  0  0
  -25.2020  -15.9870   20.5050 H   0  0  0  0  0  0  0  0  0  0  0  0
  -26.7820  -15.7280   19.9580 H   0  0  0  0  0  0  0  0  0  0  0  0
  -28.5620  -26.1220   21.1440 N   0  0  0  0  0  0  0  0  0  0  0  0
  -28.8110  -26.6510   21.9730 H   0  0  0  0  0  0  0  0  0  0  0  0
  -28.7530  -27.0210   20.0280 O   0  0  0  0  0  0  0  0  0  0  0  0
  -24.5440  -31.8000   23.1420 C   0  0  0  0  0  0  0  0  0  0  0  0
  -27.5950  -27.7470   19.9400 C   0  0  0  0  0  0  0  0  0  0  0  0
  -23.5060  -30.4380   21.3570 C   0  0  0  0  0  3  0  0  0  0  0  0
  -25.1180  -29.0890   19.9100 C   0  0  0  0  0  0  0  0  0  0  0  0
  -26.0070  -30.9620   21.3110 C   0  0  0  0  0  2  0  0  0  0  0  0
  -26.2080  -29.6460   20.5910 C   0  0  0  0  0  0  0  0  0  0  0  0
  -27.4540  -28.9800   20.6080 C   0  0  0  0  0  3  0  0  0  0  0  0
  -26.4980  -27.2020   19.2450 C   0  0  0  0  0  3  0  0  0  0  0  0
  -25.2570  -27.8650   19.2300 C   0  0  0  0  0  3  0  0  0  0  0  0
  -23.8200  -29.8630   19.9490 C   0  0  0  0  0  2  0  0  0  0  0  0
  -24.7000  -31.0770   21.9970 N   0  0  0  0  0  0  0  0  0  0  0  0
  -23.4230  -31.9760   23.6410 O   0  0  0  0  0  0  0  0  0  0  0  0
  -22.8730  -29.3200   22.2180 C   0  0  0  0  0  0  0  0  0  0  0  0
  -21.5520  -29.1320   22.0750 N   0  0  0  0  0  0  0  0  0  0  0  0
  -23.5680  -28.6320   22.9710 O   0  0  0  0  0  0  0  0  0  0  0  0
  -21.0530  -29.7440   21.4460 H   0  0  0  0  0  0  0  0  0  0  0  0
  -18.1760  -27.9520   22.5900 C   0  0  0  0  0  0  0  0  0  0  0  0
  -20.7500  -28.1150   22.7550 C   0  0  0  0  0  3  0  0  0  0  0  0
  -20.7810  -26.7730   21.9860 C   0  0  0  0  0  2  0  0  0  0  0  0
  -19.6190  -26.6180   20.9990 C   0  0  0  0  0  2  0  0  0  0  0  0
  -18.2770  -26.7040   21.7290 C   0  0  0  0  0  2  0  0  0  0  0  0
  -19.3360  -28.6240   23.0570 C   0  0  0  0  0  0  0  0  0  0  0  0
  -19.1850  -29.8000   23.8230 C   0  0  0  0  0  3  0  0  0  0  0  0
  -17.9060  -30.3050   24.1230 C   0  0  0  0  0  3  0  0  0  0  0  0
  -16.7610  -29.6280   23.6710 C   0  0  0  0  0  3  0  0  0  0  0  0
  -16.8960  -28.4520   22.9130 C   0  0  0  0  0  3  0  0  0  0  0  0
  -25.7590  -32.4620   23.8640 C   0  0  0  0  0  3  0  0  0  0  0  0
  -26.2020  -31.6950   25.1690 C   0  0  1  0  0  0  0  0  0  0  0  0
  -25.0350  -31.4000   26.1420 C   0  0  0  0  0  1  0  0  0  0  0  0
  -26.8710  -30.3480   24.8080 C   0  0  0  0  0  1  0  0  0  0  0  0
  -27.2620  -32.5250   25.9290 C   0  0  0  0  0  1  0  0  0  0  0  0
  -25.3840  -33.8470   24.1760 N   0  0  0  0  0  0  0  0  0  0  0  0
  -25.7390  -34.9150   23.4490 C   0  0  0  0  0  0  0  0  0  0  0  0
  -26.4870  -34.8390   22.4700 O   0  0  0  0  0  0  0  0  0  0  0  0
  -24.7260  -33.9780   24.9300 H   0  0  0  0  0  0  0  0  0  0  0  0
  -23.9850  -36.6530   22.9750 C   0  0  0  0  0  1  0  0  0  0  0  0
  -25.1750  -36.2840   23.8730 C   0  0  0  0  0  3  0  0  0  0  0  0
  -27.2100  -37.2340   24.8640 C   0  0  0  0  0  1  0  0  0  0  0  0
  -26.1780  -37.3700   23.8410 N   0  0  0  0  0  0  0  0  0  0  0  0
  -25.7310  -38.2760   23.9580 H   0  0  0  0  0  0  0  0  0  0  0  0
  1 13  1  0
  1 10  1  0
  2  4  1  0
  6  2  1  0
  6  7  1  0
  7  3  1  0
  7  5  1  0
  8 54  1  0
  8  6  1  0
  8  3  1  0
  9  4  1  0
  9  1  1  0
 10  5  1  0
 10 12  1  0
 11  9  1  0
 14 13  2  0
 15 14  1  0
 16 24  1  0
 17 22  1  0
 18 19  1  0
 18 17  1  0
 20 19  1  0
 20 29  1  0
 20 21  1  0
 22 16  1  0
 22 21  1  0
 23 16  2  0
 24 15  1  0
 24 25  1  0
 26 27  2  0
 27 46  1  0
 28 27  1  0
 28 31  1  0
 29 30  1  0
 29 26  1  0
 30 28  2  0
 31 32  1  0
 32 33  2  0
 34 37  1  0
 34 33  1  0
 35 34  2  0
 36 35  1  0
 36 31  2  0
 37 38  1  0
 38 43  2  0
 38 39  1  0
 39 40  2  0
 40 41  1  0
 41 45  1  0
 42 41  2  0
 43 42  1  0
 44 43  1  0
 46 47  1  0
 47 50  1  0
 47 49  1  0
 48 46  2  0
 51 26  1  0
 51 52  1  0
 53 51  1  0
 54 55  1  0
 56 54  1  0
 57 68  2  0
 58 56  1  0
 58 63  1  0
 59 67  1  0
 59 69  1  0
 60 66  1  0
 60 62  1  0
 61 67  1  0
 62 63  2  0
 62 61  1  0
 64 58  2  0
 65 64  1  0
 65 60  2  0
 66 59  1  0
 67 57  1  0
 69 71  2  0
 70 69  1  0
 72 70  1  0
 73 82  2  0
 73 78  1  0
 74 70  1  0
 74 78  1  0
 75 74  1  0
 76 77  1  0
 76 75  1  0
 77 73  1  0
 78 79  2  0
 79 80  1  0
 81 80  2  0
 82 81  1  0
 83 57  1  0
 83 88  1  0
 83 84  1  0
 84 87  1  1
 84 85  1  0
 86 84  1  0
 88 91  1  0
 89 93  1  0
 89 88  1  0
 90 89  2  0
 93 92  1  0
 95 93  1  0
 95 96  1  0
 95 94  1  0
M  ISO  4  16 100  24 100  54 101  56 101
M  END
>  <TORSDO>  (40) 
F 19

>  <SCORE>  (40) 
-13.006

>  <name>  (40) 
39

>  <ligand_id>  (40) 
39

>  <original_smiles>  (40) 
[H]C(=C([H])C([H])([H])N([H])C(=O)N1C([H])([H])C([H])([H])C([H])([H])C([H])(n2nc(-c3c([H])c([H])c(Oc4c([H])c([H])c(F)c([H])c4F)c([H])c3[H])c(C(=O)N([H])[H])c2N([H])[H])C1([H])[H])C1=[N+]([H])C([H])([H])C2([H])C([H])([H])C([H])(N([H])Oc3c([H])c([H])c4c(c3[H])C([H])([H])N(C(=O)C([H])(N([H])C(=O)C([H])(N([H])C([H])([H])[H])C([H])([H])[H])C(C([H])([H])[H])(C([H])([H])[H])C([H])([H])[H])C([H])(C(=O)N([H])C3([H])c5c([H])c([H])c([H])c([H])c5C([H])([H])C([H])([H])C3([H])[H])C4([H])[H])C2([H])C([H])([H])C([H])([H])N1[H]

>  <smiles>  (40) 
[H]C(=C([H])C([H])([H])N([H])C(=O)N1C([H])([H])C([H])([H])C([H])([H])C([H])(n2nc(-c3c([H])c([H])c(Oc4c([H])c([H])c(F)c([H])c4F)c([H])c3[H])c(C(=O)N([H])[H])c2N([H])[H])C1([H])[H])C1=[N+]([H])C([H])([H])C2([H])C([H])([H])C([H])(N([H])Oc3c([H])c([H])c4c(c3[H])C([H])([H])N(C(=O)C([H])(N([H])C(=O)C([H])(N([H])C([H])([H])[H])C([H])([H])[H])C(C([H])([H])[H])(C([H])([H])[H])C([H])([H])[H])C([H])(C(=O)N([H])C3([H])c5c([H])c([H])c([H])c([H])c5C([H])([H])C([H])([H])C3([H])[H])C4([H])[H])C2([H])C([H])([H])C([H])([H])N1[H]

$$$$
40:0:0
     RDKit          3D

 92101  0  0  1  0  0  0  0  0999 V2000
  -28.6120  -22.8900   19.7050 C   0  0  0  0  0  0  0  0  0  0  0  0
  -31.6890  -21.0230   18.6410 C   0  0  0  0  0  2  0  0  0  0  0  0
  -31.5950  -21.7700   19.9960 C   0  0  0  0  0  2  0  0  0  0  0  0
  -29.1860  -20.7240   18.6230 C   0  0  0  0  0  2  0  0  0  0  0  0
  -30.5430  -19.9870   18.7440 C   0  0  0  0  0  3  0  0  0  0  0  0
  -30.5970  -19.6500   20.2270 C   0  0  0  0  0  3  0  0  0  0  0  0
  -30.3150  -21.1500   20.6080 C   0  0  0  0  0  3  0  0  0  0  0  0
  -29.2100  -21.6560   19.7590 N   0  0  0  0  0  0  0  0  0  0  0  0
  -27.6880  -23.0960   18.9110 O   0  0  0  0  0  0  0  0  0  0  0  0
  -29.1250  -24.0960   20.5510 C   0  0  0  0  0  2  0  0  0  0  0  0
  -28.1080  -25.2630   20.8390 C   0  0  0  0  0  2  0  0  0  0  0  0
  -28.3290  -26.5590   20.1960 O   0  0  0  0  0  0  0  0  0  0  0  0
  -24.5880  -31.8740   23.2320 C   0  0  0  0  0  0  0  0  0  0  0  0
  -27.2100  -27.3820   20.1630 C   0  0  0  0  0  0  0  0  0  0  0  0
  -23.3810  -30.4730   21.5940 C   0  0  0  0  0  3  0  0  0  0  0  0
  -24.8330  -28.9350   20.1610 C   0  0  0  0  0  0  0  0  0  0  0  0
  -25.9120  -30.8190   21.3950 C   0  0  0  0  0  2  0  0  0  0  0  0
  -25.9970  -29.4450   20.7520 C   0  0  0  0  0  0  0  0  0  0  0  0
  -27.1930  -28.6770   20.7450 C   0  0  0  0  0  3  0  0  0  0  0  0
  -26.0330  -26.9140   19.5400 C   0  0  0  0  0  3  0  0  0  0  0  0
  -24.8490  -27.6740   19.5470 C   0  0  0  0  0  3  0  0  0  0  0  0
  -23.5890  -29.7980   20.2130 C   0  0  0  0  0  2  0  0  0  0  0  0
  -24.6460  -31.0700   22.1310 N   0  0  0  0  0  0  0  0  0  0  0  0
  -23.5070  -32.1480   23.7720 O   0  0  0  0  0  0  0  0  0  0  0  0
  -22.7290  -29.4510   22.5550 C   0  0  0  0  0  0  0  0  0  0  0  0
  -21.4030  -29.2720   22.4340 N   0  0  0  0  0  0  0  0  0  0  0  0
  -23.4140  -28.8240   23.3680 O   0  0  0  0  0  0  0  0  0  0  0  0
  -20.9120  -29.8300   21.7510 H   0  0  0  0  0  0  0  0  0  0  0  0
  -18.0290  -28.0820   22.9490 C   0  0  0  0  0  0  0  0  0  0  0  0
  -20.5890  -28.3350   23.2070 C   0  0  0  0  0  3  0  0  0  0  0  0
  -20.6850  -26.9040   22.6270 C   0  0  0  0  0  2  0  0  0  0  0  0
  -19.5770  -26.5860   21.6180 C   0  0  0  0  0  2  0  0  0  0  0  0
  -18.1990  -26.7340   22.2700 C   0  0  0  0  0  2  0  0  0  0  0  0
  -19.1510  -28.8400   23.3740 C   0  0  0  0  0  0  0  0  0  0  0  0
  -18.9390  -30.1040   23.9690 C   0  0  0  0  0  3  0  0  0  0  0  0
  -17.6370  -30.6080   24.1420 C   0  0  0  0  0  3  0  0  0  0  0  0
  -16.5280  -29.8470   23.7330 C   0  0  0  0  0  3  0  0  0  0  0  0
  -16.7250  -28.5850   23.1420 C   0  0  0  0  0  3  0  0  0  0  0  0
  -25.8730  -32.5080   23.8490 C   0  0  0  0  0  3  0  0  0  0  0  0
  -26.3940  -31.7400   25.1250 C   0  0  1  0  0  0  0  0  0  0  0  0
  -25.3040  -31.5030   26.1950 C   0  0  0  0  0  1  0  0  0  0  0  0
  -26.9760  -30.3610   24.7320 C   0  0  0  0  0  1  0  0  0  0  0  0
  -27.5460  -32.5350   25.7830 C   0  0  0  0  0  1  0  0  0  0  0  0
  -25.5650  -33.9060   24.1760 N   0  0  0  0  0  0  0  0  0  0  0  0
  -25.9000  -34.9580   23.4160 C   0  0  0  0  0  0  0  0  0  0  0  0
  -26.5710  -34.8510   22.3860 O   0  0  0  0  0  0  0  0  0  0  0  0
  -24.9690  -34.0630   24.9760 H   0  0  0  0  0  0  0  0  0  0  0  0
  -24.1800  -36.7550   23.0460 C   0  0  0  0  0  1  0  0  0  0  0  0
  -25.4120  -36.3470   23.8690 C   0  0  0  0  0  3  0  0  0  0  0  0
  -27.5410  -37.2250   24.7200 C   0  0  0  0  0  1  0  0  0  0  0  0
  -26.4480  -37.3970   23.7670 N   0  0  0  0  0  0  0  0  0  0  0  0
  -26.0440  -38.3180   23.9110 H   0  0  0  0  0  0  0  0  0  0  0  0
  -29.7730  -18.3840   20.6840 C   0  0  0  0  0  2  0  0  0  0  0  0
  -30.5920  -17.0670   20.3830 C   0  0  0  0  0  2  0  0  0  0  0  0
  -30.6910  -14.5790   20.3350 C   0  0  0  0  0  0  0  0  0  0  0  0
  -30.3530  -12.3950   19.2360 C   0  0  0  0  0  2  0  0  0  0  0  0
  -29.4030  -12.5900   18.0350 C   0  0  0  0  0  2  0  0  0  0  0  0
  -27.9380  -12.4460   18.4840 C   0  0  0  0  0  2  0  0  0  0  0  0
  -27.6120  -13.2840   19.7500 C   0  0  0  0  0  3  0  0  0  0  0  0
  -28.6860  -13.1120   20.8470 C   0  0  0  0  0  2  0  0  0  0  0  0
  -29.9920  -13.4090   20.2450 N   0  0  0  0  0  0  0  0  0  0  0  0
  -31.8540  -14.6630   19.9350 O   0  0  0  0  0  0  0  0  0  0  0  0
  -30.0110  -15.7180   20.6480 N   0  0  0  0  0  0  0  0  0  0  0  0
  -29.0460  -15.6420   20.9320 H   0  0  0  0  0  0  0  0  0  0  0  0
  -25.2260  -13.8720   20.5010 C   0  0  0  0  0  0  0  0  0  0  0  0
  -24.1670  -13.0940   20.8810 C   0  0  0  0  0  0  0  0  0  0  0  0
  -24.6330  -11.7440   20.8410 C   0  0  0  0  0  0  0  0  0  0  0  0
  -26.2710  -12.9960   20.2520 N   0  0  0  0  0  0  0  0  0  0  0  0
  -25.9200  -11.7110   20.5180 N   0  0  0  0  0  0  0  0  0  0  0  0
  -23.9140  -10.4790   21.0360 C   0  0  0  0  0  0  0  0  0  0  0  0
  -24.3600   -9.5090   21.9600 C   0  0  0  0  0  3  0  0  0  0  0  0
  -23.6390   -8.3090   22.1440 C   0  0  0  0  0  3  0  0  0  0  0  0
  -22.4580   -8.0690   21.4010 C   0  0  0  0  0  0  0  0  0  0  0  0
  -22.0310   -9.0280   20.4650 C   0  0  0  0  0  3  0  0  0  0  0  0
  -22.7520  -10.2200   20.2800 C   0  0  0  0  0  3  0  0  0  0  0  0
  -21.7080   -6.9220   21.4930 O   0  0  0  0  0  0  0  0  0  0  0  0
  -21.6760   -6.1750   22.6430 C   0  0  0  0  0  0  0  0  0  0  0  0
  -21.2570   -6.7210   23.8760 C   0  0  0  0  0  3  0  0  0  0  0  0
  -21.1730   -5.9000   25.0170 C   0  0  0  0  0  3  0  0  0  0  0  0
  -21.4950   -4.5320   24.9280 C   0  0  0  0  0  0  0  0  0  0  0  0
  -21.9070   -3.9850   23.7000 C   0  0  0  0  0  3  0  0  0  0  0  0
  -21.9930   -4.8030   22.5600 C   0  0  0  0  0  0  0  0  0  0  0  0
  -22.3700   -4.2670   21.3740 F   0  0  0  0  0  0  0  0  0  0  0  0
  -21.4070   -3.7400   26.0220 F   0  0  0  0  0  0  0  0  0  0  0  0
  -22.7710  -13.5650   21.1720 C   0  0  0  0  0  0  0  0  0  0  0  0
  -22.0550  -12.8610   22.0420 N   0  0  0  0  0  0  0  0  0  0  0  0
  -22.3250  -14.5920   20.6630 O   0  0  0  0  0  0  0  0  0  0  0  0
  -22.4300  -12.0300   22.4740 H   0  0  0  0  0  0  0  0  0  0  0  0
  -21.1200  -13.1580   22.2790 H   0  0  0  0  0  0  0  0  0  0  0  0
  -25.3820  -15.2430   20.3230 N   0  0  0  0  0  0  0  0  0  0  0  0
  -24.6120  -15.8930   20.4410 H   0  0  0  0  0  0  0  0  0  0  0  0
  -26.2230  -15.6860   19.9740 H   0  0  0  0  0  0  0  0  0  0  0  0
  1  8  1  0
  1 10  1  0
  2  5  1  0
  2  3  1  0
  4  8  1  0
  5  4  1  0
  5  6  1  0
  6  7  1  0
  6 53  1  0
  7  3  1  0
  8  7  1  0
  9  1  2  0
 10 11  1  0
 12 11  1  0
 13 24  2  0
 14 12  1  0
 14 19  1  0
 15 23  1  0
 15 25  1  0
 16 22  1  0
 16 18  1  0
 17 23  1  0
 18 17  1  0
 19 18  2  0
 20 21  1  0
 20 14  2  0
 21 16  2  0
 22 15  1  0
 23 13  1  0
 25 27  2  0
 26 25  1  0
 28 26  1  0
 29 38  2  0
 29 34  1  0
 30 26  1  0
 30 34  1  0
 31 30  1  0
 32 33  1  0
 32 31  1  0
 33 29  1  0
 34 35  2  0
 35 36  1  0
 37 36  2  0
 38 37  1  0
 39 13  1  0
 39 44  1  0
 39 40  1  0
 40 43  1  1
 40 41  1  0
 42 40  1  0
 44 47  1  0
 45 49  1  0
 45 44  1  0
 46 45  2  0
 49 48  1  0
 51 49  1  0
 51 52  1  0
 51 50  1  0
 54 63  1  0
 54 53  1  0
 55 63  1  0
 56 61  1  0
 57 58  1  0
 57 56  1  0
 59 58  1  0
 59 68  1  0
 59 60  1  0
 61 55  1  0
 61 60  1  0
 62 55  2  0
 63 64  1  0
 65 66  2  0
 66 85  1  0
 67 66  1  0
 67 70  1  0
 68 65  1  0
 68 69  1  0
 69 67  2  0
 70 71  1  0
 71 72  2  0
 73 76  1  0
 73 72  1  0
 74 73  2  0
 75 74  1  0
 75 70  2  0
 76 77  1  0
 77 78  1  0
 78 79  2  0
 80 79  1  0
 80 84  1  0
 81 80  2  0
 82 77  2  0
 82 81  1  0
 83 82  1  0
 85 86  1  0
 86 89  1  0
 86 88  1  0
 87 85  2  0
 90 91  1  0
 90 65  1  0
 92 90  1  0
M  ISO  4  11 101  12 101  55 100  63 100
M  END
>  <TORSDO>  (41) 
F 20

>  <SCORE>  (41) 
-13.891

>  <name>  (41) 
40

>  <ligand_id>  (41) 
40

>  <original_smiles>  (41) 
[H]c1c([H])c([H])c2c(c1[H])C([H])([H])C([H])([H])C([H])([H])C2([H])N([H])C(=O)C1([H])N(C(=O)C([H])(N([H])C(=O)C([H])(N([H])C([H])([H])[H])C([H])([H])[H])C(C([H])([H])[H])(C([H])([H])[H])C([H])([H])[H])C([H])([H])c2c([H])c(OC([H])([H])C([H])([H])C(=O)N3C([H])([H])C4([H])C([H])([H])C([H])([H])C3([H])C4([H])C([H])([H])C([H])([H])N([H])C(=O)N3C([H])([H])C([H])([H])C([H])([H])C([H])(n4nc(-c5c([H])c([H])c(Oc6c([H])c([H])c(F)c([H])c6F)c([H])c5[H])c(C(=O)N([H])[H])c4N([H])[H])C3([H])[H])c([H])c([H])c2C1([H])[H]

>  <smiles>  (41) 
[H]c1c([H])c([H])c2c(c1[H])C([H])([H])C([H])([H])C([H])([H])C2([H])N([H])C(=O)C1([H])N(C(=O)C([H])(N([H])C(=O)C([H])(N([H])C([H])([H])[H])C([H])([H])[H])C(C([H])([H])[H])(C([H])([H])[H])C([H])([H])[H])C([H])([H])c2c([H])c(OC([H])([H])C([H])([H])C(=O)N3C([H])([H])C4([H])C([H])([H])C([H])([H])C3([H])C4([H])C([H])([H])C([H])([H])N([H])C(=O)N3C([H])([H])C([H])([H])C([H])([H])C([H])(n4nc(-c5c([H])c([H])c(Oc6c([H])c([H])c(F)c([H])c6F)c([H])c5[H])c(C(=O)N([H])[H])c4N([H])[H])C3([H])[H])c([H])c([H])c2C1([H])[H]

$$$$
41:0:0
     RDKit          3D

 90 98  0  0  1  0  0  0  0  0999 V2000
  -27.0840  -22.2980   20.0590 C   0  0  0  0  0  2  0  0  0  0  0  0
  -28.2890  -22.8960   20.7270 C   0  0  0  0  0  3  0  0  0  0  0  0
  -28.3870  -21.5200   20.0450 C   0  0  0  0  0  3  0  0  0  0  0  0
  -28.8280  -24.2180   20.1650 C   0  0  0  0  0  2  0  0  0  0  0  0
  -28.2510  -25.4510   20.9050 C   0  0  0  0  0  2  0  0  0  0  0  0
  -28.4220  -26.7010   20.2010 O   0  0  0  0  0  0  0  0  0  0  0  0
  -24.5660  -31.8740   23.2100 C   0  0  0  0  0  0  0  0  0  0  0  0
  -27.2780  -27.4690   20.1490 C   0  0  0  0  0  0  0  0  0  0  0  0
  -23.3930  -30.4780   21.5390 C   0  0  0  0  0  3  0  0  0  0  0  0
  -24.8800  -28.9630   20.1210 C   0  0  0  0  0  0  0  0  0  0  0  0
  -25.9190  -30.8560   21.3810 C   0  0  0  0  0  2  0  0  0  0  0  0
  -26.0250  -29.4920   20.7290 C   0  0  0  0  0  0  0  0  0  0  0  0
  -27.2330  -28.7550   20.7340 C   0  0  0  0  0  3  0  0  0  0  0  0
  -26.1200  -26.9580   19.5280 C   0  0  0  0  0  3  0  0  0  0  0  0
  -24.9220  -27.6950   19.5150 C   0  0  0  0  0  3  0  0  0  0  0  0
  -23.6260  -29.8110   20.1570 C   0  0  0  0  0  2  0  0  0  0  0  0
  -24.6430  -31.0840   22.1020 N   0  0  0  0  0  0  0  0  0  0  0  0
  -23.4760  -32.1370   23.7370 O   0  0  0  0  0  0  0  0  0  0  0  0
  -22.7350  -29.4450   22.4830 C   0  0  0  0  0  0  0  0  0  0  0  0
  -21.4090  -29.2720   22.3480 N   0  0  0  0  0  0  0  0  0  0  0  0
  -23.4110  -28.8040   23.2900 O   0  0  0  0  0  0  0  0  0  0  0  0
  -20.9260  -29.8380   21.6640 H   0  0  0  0  0  0  0  0  0  0  0  0
  -18.0260  -28.0960   22.8210 C   0  0  0  0  0  0  0  0  0  0  0  0
  -20.5850  -28.3270   23.1000 C   0  0  0  0  0  3  0  0  0  0  0  0
  -20.6760  -26.9060   22.4970 C   0  0  0  0  0  2  0  0  0  0  0  0
  -19.5730  -26.6120   21.4760 C   0  0  0  0  0  2  0  0  0  0  0  0
  -18.1910  -26.7580   22.1220 C   0  0  0  0  0  2  0  0  0  0  0  0
  -19.1510  -28.8400   23.2660 C   0  0  0  0  0  0  0  0  0  0  0  0
  -18.9430  -30.0940   23.8800 C   0  0  0  0  0  3  0  0  0  0  0  0
  -17.6430  -30.6060   24.0520 C   0  0  0  0  0  3  0  0  0  0  0  0
  -16.5320  -29.8590   23.6240 C   0  0  0  0  0  3  0  0  0  0  0  0
  -16.7240  -28.6060   23.0150 C   0  0  0  0  0  3  0  0  0  0  0  0
  -25.8400  -32.5070   23.8530 C   0  0  0  0  0  3  0  0  0  0  0  0
  -25.5190  -33.9000   24.1900 N   0  0  0  0  0  0  0  0  0  0  0  0
  -25.8540  -34.9600   23.4430 C   0  0  0  0  0  0  0  0  0  0  0  0
  -26.5370  -34.8680   22.4190 O   0  0  0  0  0  0  0  0  0  0  0  0
  -24.9110  -34.0450   24.9830 H   0  0  0  0  0  0  0  0  0  0  0  0
  -24.1170  -36.7410   23.0780 C   0  0  0  0  0  1  0  0  0  0  0  0
  -25.3510  -36.3410   23.9020 C   0  0  0  0  0  3  0  0  0  0  0  0
  -27.4690  -37.2340   24.7670 C   0  0  0  0  0  1  0  0  0  0  0  0
  -26.3770  -37.4010   23.8100 N   0  0  0  0  0  0  0  0  0  0  0  0
  -25.9640  -38.3180   23.9580 H   0  0  0  0  0  0  0  0  0  0  0  0
  -26.3460  -31.7260   25.1280 C   0  0  1  0  0  0  0  0  0  0  0  0
  -25.2410  -31.4700   26.1780 C   0  0  0  0  0  1  0  0  0  0  0  0
  -26.9430  -30.3570   24.7280 C   0  0  0  0  0  1  0  0  0  0  0  0
  -27.4840  -32.5210   25.8110 C   0  0  0  0  0  1  0  0  0  0  0  0
  -28.3510  -20.1850   20.8040 C   0  0  0  0  0  2  0  0  0  0  0  0
  -29.2430  -17.8590   20.6420 C   0  0  0  0  0  0  0  0  0  0  0  0
  -29.4070  -19.1940   20.5420 N   0  0  0  0  0  0  0  0  0  0  0  0
  -28.1460  -17.3440   20.8830 O   0  0  0  0  0  0  0  0  0  0  0  0
  -30.3340  -19.5430   20.3370 H   0  0  0  0  0  0  0  0  0  0  0  0
  -30.4720  -16.9510   20.4660 C   0  0  0  0  0  2  0  0  0  0  0  0
  -30.7800  -14.5010   20.0650 C   0  0  0  0  0  0  0  0  0  0  0  0
  -30.4330  -12.3230   18.9660 C   0  0  0  0  0  2  0  0  0  0  0  0
  -29.4400  -12.5140   17.8030 C   0  0  0  0  0  2  0  0  0  0  0  0
  -27.9890  -12.3700   18.3000 C   0  0  0  0  0  2  0  0  0  0  0  0
  -27.7020  -13.2170   19.5700 C   0  0  0  0  0  3  0  0  0  0  0  0
  -28.8100  -13.0250   20.6320 C   0  0  0  0  0  2  0  0  0  0  0  0
  -30.1050  -13.3210   19.9970 N   0  0  0  0  0  0  0  0  0  0  0  0
  -31.8730  -14.6810   19.5210 O   0  0  0  0  0  0  0  0  0  0  0  0
  -30.1180  -15.5290   20.6170 N   0  0  0  0  0  0  0  0  0  0  0  0
  -29.2100  -15.3510   21.0210 H   0  0  0  0  0  0  0  0  0  0  0  0
  -25.3440  -13.8170   20.4120 C   0  0  0  0  0  0  0  0  0  0  0  0
  -24.2930  -13.0400   20.8210 C   0  0  0  0  0  0  0  0  0  0  0  0
  -24.7510  -11.6880   20.7480 C   0  0  0  0  0  0  0  0  0  0  0  0
  -26.3750  -12.9380   20.1140 N   0  0  0  0  0  0  0  0  0  0  0  0
  -26.0220  -11.6510   20.3700 N   0  0  0  0  0  0  0  0  0  0  0  0
  -24.0320  -10.4240   20.9580 C   0  0  0  0  0  0  0  0  0  0  0  0
  -24.4800   -9.4680   21.8960 C   0  0  0  0  0  3  0  0  0  0  0  0
  -23.7610   -8.2690   22.0940 C   0  0  0  0  0  3  0  0  0  0  0  0
  -22.5800   -8.0190   21.3550 C   0  0  0  0  0  0  0  0  0  0  0  0
  -22.1510   -8.9650   20.4070 C   0  0  0  0  0  3  0  0  0  0  0  0
  -22.8700  -10.1540   20.2060 C   0  0  0  0  0  3  0  0  0  0  0  0
  -21.8320   -6.8720   21.4620 O   0  0  0  0  0  0  0  0  0  0  0  0
  -21.7570   -6.1680   22.6360 C   0  0  0  0  0  0  0  0  0  0  0  0
  -21.2910   -6.7590   23.8300 C   0  0  0  0  0  3  0  0  0  0  0  0
  -21.1630   -5.9800   24.9980 C   0  0  0  0  0  3  0  0  0  0  0  0
  -21.4930   -4.6110   24.9720 C   0  0  0  0  0  0  0  0  0  0  0  0
  -21.9530   -4.0200   23.7800 C   0  0  0  0  0  3  0  0  0  0  0  0
  -22.0810   -4.7960   22.6160 C   0  0  0  0  0  0  0  0  0  0  0  0
  -22.5050   -4.2180   21.4660 F   0  0  0  0  0  0  0  0  0  0  0  0
  -21.3630   -3.8600   26.0890 F   0  0  0  0  0  0  0  0  0  0  0  0
  -22.9140  -13.5140   21.1750 C   0  0  0  0  0  0  0  0  0  0  0  0
  -22.2330  -12.8100   22.0710 N   0  0  0  0  0  0  0  0  0  0  0  0
  -22.4490  -14.5470   20.6930 O   0  0  0  0  0  0  0  0  0  0  0  0
  -22.6260  -11.9780   22.4870 H   0  0  0  0  0  0  0  0  0  0  0  0
  -21.3110  -13.1120   22.3520 H   0  0  0  0  0  0  0  0  0  0  0  0
  -25.5040  -15.1900   20.2570 N   0  0  0  0  0  0  0  0  0  0  0  0
  -24.7670  -15.8500   20.4760 H   0  0  0  0  0  0  0  0  0  0  0  0
  -26.3800  -15.6480   20.0270 H   0  0  0  0  0  0  0  0  0  0  0  0
  1  2  1  0
  2  4  1  0
  3  1  1  0
  3  2  1  0
  3 47  1  0
  4  5  1  0
  6  5  1  0
  7 18  2  0
  8  6  1  0
  8 13  1  0
  9 17  1  0
  9 19  1  0
 10 16  1  0
 10 12  1  0
 11 17  1  0
 12 13  2  0
 12 11  1  0
 14  8  2  0
 15 14  1  0
 15 10  2  0
 16  9  1  0
 17  7  1  0
 19 21  2  0
 20 19  1  0
 22 20  1  0
 23 32  2  0
 23 28  1  0
 24 20  1  0
 24 28  1  0
 25 24  1  0
 26 27  1  0
 26 25  1  0
 27 23  1  0
 28 29  2  0
 29 30  1  0
 31 30  2  0
 32 31  1  0
 33  7  1  0
 33 34  1  0
 33 43  1  0
 34 37  1  0
 35 39  1  0
 35 34  1  0
 36 35  2  0
 39 38  1  0
 41 39  1  0
 41 42  1  0
 41 40  1  0
 43 46  1  1
 43 44  1  0
 45 43  1  0
 48 50  2  0
 49 48  1  0
 49 47  1  0
 51 49  1  0
 52 61  1  0
 52 48  1  0
 53 61  1  0
 54 59  1  0
 55 56  1  0
 55 54  1  0
 57 56  1  0
 57 66  1  0
 57 58  1  0
 59 53  1  0
 59 58  1  0
 60 53  2  0
 61 62  1  0
 63 64  2  0
 64 83  1  0
 65 64  1  0
 65 68  1  0
 66 67  1  0
 66 63  1  0
 67 65  2  0
 68 69  1  0
 69 70  2  0
 71 74  1  0
 71 70  1  0
 72 71  2  0
 73 72  1  0
 73 68  2  0
 74 75  1  0
 75 76  1  0
 76 77  2  0
 78 77  1  0
 78 82  1  0
 79 78  2  0
 80 75  2  0
 80 79  1  0
 81 80  1  0
 83 84  1  0
 84 87  1  0
 84 86  1  0
 85 83  2  0
 88 63  1  0
 88 89  1  0
 90 88  1  0
M  ISO  4   5 101   6 101  53 100  61 100
M  END
>  <TORSDO>  (42) 
F 21

>  <SCORE>  (42) 
-13.232

>  <name>  (42) 
41

>  <ligand_id>  (42) 
41

>  <original_smiles>  (42) 
[H]c1c([H])c([H])c2c(c1[H])C([H])([H])C([H])([H])C([H])([H])C2([H])N([H])C(=O)C1([H])N(C(=O)C([H])(N([H])C(=O)C([H])(N([H])C([H])([H])[H])C([H])([H])[H])C(C([H])([H])[H])(C([H])([H])[H])C([H])([H])[H])C([H])([H])c2c([H])c(OC([H])([H])C([H])([H])C3([H])C([H])([H])C3([H])C([H])([H])N([H])C(=O)C([H])([H])N([H])C(=O)N3C([H])([H])C([H])([H])C([H])([H])C([H])(n4nc(-c5c([H])c([H])c(Oc6c([H])c([H])c(F)c([H])c6F)c([H])c5[H])c(C(=O)N([H])[H])c4N([H])[H])C3([H])[H])c([H])c([H])c2C1([H])[H]

>  <smiles>  (42) 
[H]c1c([H])c([H])c2c(c1[H])C([H])([H])C([H])([H])C([H])([H])C2([H])N([H])C(=O)C1([H])N(C(=O)C([H])(N([H])C(=O)C([H])(N([H])C([H])([H])[H])C([H])([H])[H])C(C([H])([H])[H])(C([H])([H])[H])C([H])([H])[H])C([H])([H])c2c([H])c(OC([H])([H])C([H])([H])C3([H])C([H])([H])C3([H])C([H])([H])N([H])C(=O)C([H])([H])N([H])C(=O)N3C([H])([H])C([H])([H])C([H])([H])C([H])(n4nc(-c5c([H])c([H])c(Oc6c([H])c([H])c(F)c([H])c6F)c([H])c5[H])c(C(=O)N([H])[H])c4N([H])[H])C3([H])[H])c([H])c([H])c2C1([H])[H]

$$$$
42:0:0
     RDKit          3D

 93101  0  0  1  0  0  0  0  0999 V2000
  -28.7320  -21.7180   20.1750 C   0  0  0  0  0  0  0  0  0  0  0  0
  -31.4390  -19.9710   18.6770 C   0  0  0  0  0  2  0  0  0  0  0  0
  -31.0630  -20.8890   19.8540 C   0  0  0  0  0  2  0  0  0  0  0  0
  -30.1600  -19.1750   18.3780 C   0  0  0  0  0  3  0  0  0  0  0  0
  -29.4710  -19.0780   19.7540 C   0  0  0  0  0  3  0  0  0  0  0  0
  -29.6510  -20.6130   20.1540 N   0  0  0  0  0  0  0  0  0  0  0  0
  -27.5300  -21.4550   20.1250 O   0  0  0  0  0  0  0  0  0  0  0  0
  -30.3880  -17.9030   17.6700 N   0  0  0  0  0  4  0  0  0  0  0  0
  -30.9720  -17.2860   18.2050 H   0  0  0  0  0  0  0  0  0  0  0  0
  -30.8350  -18.0760   16.7880 H   0  0  0  0  0  0  0  0  0  0  0  0
  -29.5110  -17.4490   17.4840 H   0  0  0  0  0  0  0  0  0  0  0  0
  -29.0980  -23.3490   20.2490 C   0  0  0  0  0  3  0  0  0  0  0  0
  -28.0050  -24.6390   20.1090 C   0  0  0  0  0  3  0  0  0  0  0  0
  -28.2630  -26.1770   20.2680 O   0  0  0  0  0  0  0  0  0  0  0  0
  -24.6390  -31.8890   23.2610 C   0  0  0  0  0  0  0  0  0  0  0  0
  -27.1990  -27.1580   20.2230 C   0  0  0  0  0  0  0  0  0  0  0  0
  -23.4310  -30.4940   21.6290 C   0  0  0  0  0  3  0  0  0  0  0  0
  -24.8690  -28.9110   20.2030 C   0  0  0  0  0  0  0  0  0  0  0  0
  -25.9870  -30.7480   21.4560 C   0  0  0  0  0  2  0  0  0  0  0  0
  -26.0540  -29.3540   20.8050 C   0  0  0  0  0  0  0  0  0  0  0  0
  -27.2170  -28.4960   20.7950 C   0  0  0  0  0  3  0  0  0  0  0  0
  -25.9810  -26.8150   19.5910 C   0  0  0  0  0  3  0  0  0  0  0  0
  -24.8460  -27.6530   19.5800 C   0  0  0  0  0  3  0  0  0  0  0  0
  -23.6460  -29.8120   20.2510 C   0  0  0  0  0  2  0  0  0  0  0  0
  -24.7060  -31.0660   22.1700 N   0  0  0  0  0  0  0  0  0  0  0  0
  -23.5550  -32.1780   23.7920 O   0  0  0  0  0  0  0  0  0  0  0  0
  -22.7500  -29.4910   22.5940 C   0  0  0  0  0  0  0  0  0  0  0  0
  -21.4250  -29.3080   22.4550 N   0  0  0  0  0  0  0  0  0  0  0  0
  -23.4170  -28.8820   23.4320 O   0  0  0  0  0  0  0  0  0  0  0  0
  -20.9430  -29.8500   21.7530 H   0  0  0  0  0  0  0  0  0  0  0  0
  -18.0510  -28.0720   22.9300 C   0  0  0  0  0  0  0  0  0  0  0  0
  -20.6040  -28.3720   23.2290 C   0  0  0  0  0  3  0  0  0  0  0  0
  -20.7300  -26.9330   22.6770 C   0  0  0  0  0  2  0  0  0  0  0  0
  -19.6470  -26.5820   21.6520 C   0  0  0  0  0  2  0  0  0  0  0  0
  -18.2540  -26.7170   22.2740 C   0  0  0  0  0  2  0  0  0  0  0  0
  -19.1540  -28.8570   23.3640 C   0  0  0  0  0  0  0  0  0  0  0  0
  -18.9100  -30.1230   23.9380 C   0  0  0  0  0  3  0  0  0  0  0  0
  -17.5960  -30.6090   24.0780 C   0  0  0  0  0  3  0  0  0  0  0  0
  -16.5080  -29.8240   23.6580 C   0  0  0  0  0  3  0  0  0  0  0  0
  -16.7370  -28.5560   23.0930 C   0  0  0  0  0  3  0  0  0  0  0  0
  -25.9200  -32.5220   23.8840 C   0  0  0  0  0  3  0  0  0  0  0  0
  -26.4310  -31.7540   25.1660 C   0  0  1  0  0  0  0  0  0  0  0  0
  -25.3340  -31.5280   26.2330 C   0  0  0  0  0  1  0  0  0  0  0  0
  -27.0060  -30.3710   24.7840 C   0  0  0  0  0  1  0  0  0  0  0  0
  -27.5840  -32.5460   25.8270 C   0  0  0  0  0  1  0  0  0  0  0  0
  -25.6140  -33.9230   24.2160 N   0  0  0  0  0  0  0  0  0  0  0  0
  -25.9330  -34.9770   23.4530 C   0  0  0  0  0  0  0  0  0  0  0  0
  -26.5840  -34.8720   22.4110 O   0  0  0  0  0  0  0  0  0  0  0  0
  -25.0330  -34.0780   25.0270 H   0  0  0  0  0  0  0  0  0  0  0  0
  -24.1930  -36.7690   23.1410 C   0  0  0  0  0  1  0  0  0  0  0  0
  -25.4560  -36.3680   23.9180 C   0  0  0  0  0  3  0  0  0  0  0  0
  -27.6090  -37.2610   24.6920 C   0  0  0  0  0  1  0  0  0  0  0  0
  -26.4850  -37.4220   23.7750 N   0  0  0  0  0  0  0  0  0  0  0  0
  -26.0820  -38.3420   23.9240 H   0  0  0  0  0  0  0  0  0  0  0  0
  -30.1190  -17.7530   20.6100 C   0  0  0  0  0  2  0  0  0  0  0  0
  -30.5370  -15.0030   20.3000 C   0  0  0  0  0  0  0  0  0  0  0  0
  -30.3940  -12.6500   19.3610 C   0  0  0  0  0  2  0  0  0  0  0  0
  -29.4520  -12.5980   18.1370 C   0  0  0  0  0  2  0  0  0  0  0  0
  -27.9910  -12.3860   18.5800 C   0  0  0  0  0  2  0  0  0  0  0  0
  -27.5880  -13.3160   19.7550 C   0  0  0  0  0  3  0  0  0  0  0  0
  -28.6540  -13.3420   20.8700 C   0  0  0  0  0  2  0  0  0  0  0  0
  -29.9200  -13.7510   20.2450 N   0  0  0  0  0  0  0  0  0  0  0  0
  -31.7450  -15.0470   20.0530 O   0  0  0  0  0  0  0  0  0  0  0  0
  -29.7780  -16.2070   20.3990 N   0  0  0  0  0  0  0  0  0  0  0  0
  -28.7940  -16.0120   20.5160 H   0  0  0  0  0  0  0  0  0  0  0  0
  -25.2130  -13.8930   20.5090 C   0  0  0  0  0  0  0  0  0  0  0  0
  -24.1490  -13.1200   20.8840 C   0  0  0  0  0  0  0  0  0  0  0  0
  -24.6130  -11.7700   20.8530 C   0  0  0  0  0  0  0  0  0  0  0  0
  -26.2540  -13.0160   20.2650 N   0  0  0  0  0  0  0  0  0  0  0  0
  -25.9020  -11.7320   20.5380 N   0  0  0  0  0  0  0  0  0  0  0  0
  -23.8840  -10.5090   21.0450 C   0  0  0  0  0  0  0  0  0  0  0  0
  -24.3200   -9.5360   21.9710 C   0  0  0  0  0  3  0  0  0  0  0  0
  -23.5920   -8.3400   22.1520 C   0  0  0  0  0  3  0  0  0  0  0  0
  -22.4120   -8.1080   21.4050 C   0  0  0  0  0  0  0  0  0  0  0  0
  -21.9940   -9.0690   20.4680 C   0  0  0  0  0  3  0  0  0  0  0  0
  -22.7240  -10.2550   20.2850 C   0  0  0  0  0  3  0  0  0  0  0  0
  -21.6530   -6.9650   21.4970 O   0  0  0  0  0  0  0  0  0  0  0  0
  -21.6170   -6.2160   22.6460 C   0  0  0  0  0  0  0  0  0  0  0  0
  -21.2000   -6.7630   23.8800 C   0  0  0  0  0  3  0  0  0  0  0  0
  -21.1100   -5.9390   25.0200 C   0  0  0  0  0  3  0  0  0  0  0  0
  -21.4250   -4.5700   24.9280 C   0  0  0  0  0  0  0  0  0  0  0  0
  -21.8360   -4.0240   23.6990 C   0  0  0  0  0  3  0  0  0  0  0  0
  -21.9270   -4.8440   22.5610 C   0  0  0  0  0  0  0  0  0  0  0  0
  -22.3020   -4.3080   21.3750 F   0  0  0  0  0  0  0  0  0  0  0  0
  -21.3320   -3.7770   26.0210 F   0  0  0  0  0  0  0  0  0  0  0  0
  -22.7520  -13.5990   21.1550 C   0  0  0  0  0  0  0  0  0  0  0  0
  -22.0220  -12.9090   22.0240 N   0  0  0  0  0  0  0  0  0  0  0  0
  -22.3160  -14.6230   20.6320 O   0  0  0  0  0  0  0  0  0  0  0  0
  -22.3860  -12.0810   22.4740 H   0  0  0  0  0  0  0  0  0  0  0  0
  -21.0840  -13.2120   22.2440 H   0  0  0  0  0  0  0  0  0  0  0  0
  -25.3760  -15.2640   20.3290 N   0  0  0  0  0  0  0  0  0  0  0  0
  -24.6050  -15.9150   20.4320 H   0  0  0  0  0  0  0  0  0  0  0  0
  -26.2100  -15.7030   19.9610 H   0  0  0  0  0  0  0  0  0  0  0  0
  1 12  1  0
  2  3  1  0
  3  6  1  0
  4  8  1  0
  4  2  1  0
  4  5  1  0
  5  6  1  0
  5 55  1  0
  6  1  1  0
  7  1  2  0
  8  9  1  0
 10  8  1  0
 11  8  1  0
 13 12  2  0
 13 14  1  0
 15 26  2  0
 16 14  1  0
 16 21  1  0
 17 25  1  0
 17 27  1  0
 18 24  1  0
 18 20  1  0
 19 25  1  0
 20 19  1  0
 21 20  2  0
 22 16  2  0
 23 22  1  0
 23 18  2  0
 24 17  1  0
 25 15  1  0
 27 29  2  0
 28 27  1  0
 30 28  1  0
 31 40  2  0
 31 36  1  0
 32 28  1  0
 32 36  1  0
 33 32  1  0
 34 35  1  0
 34 33  1  0
 35 31  1  0
 36 37  2  0
 37 38  1  0
 39 38  2  0
 40 39  1  0
 41 15  1  0
 41 46  1  0
 41 42  1  0
 42 45  1  1
 42 43  1  0
 44 42  1  0
 46 49  1  0
 47 51  1  0
 47 46  1  0
 48 47  2  0
 51 50  1  0
 53 51  1  0
 53 54  1  0
 53 52  1  0
 56 64  1  0
 57 62  1  0
 58 59  1  0
 58 57  1  0
 60 59  1  0
 60 69  1  0
 60 61  1  0
 62 56  1  0
 62 61  1  0
 63 56  2  0
 64 65  1  0
 64 55  1  0
 66 67  2  0
 67 86  1  0
 68 67  1  0
 68 71  1  0
 69 66  1  0
 69 70  1  0
 70 68  2  0
 71 72  1  0
 72 73  2  0
 74 77  1  0
 74 73  1  0
 75 74  2  0
 76 75  1  0
 76 71  2  0
 77 78  1  0
 78 79  1  0
 79 80  2  0
 81 80  1  0
 81 85  1  0
 82 81  2  0
 83 78  2  0
 83 82  1  0
 84 83  1  0
 86 87  1  0
 87 90  1  0
 87 89  1  0
 88 86  2  0
 91 92  1  0
 91 66  1  0
 93 91  1  0
M  ISO  4  13 101  14 101  56 100  64 100
M  END
>  <TORSDO>  (43) 
F 20

>  <SCORE>  (43) 
-15.573

>  <name>  (43) 
42

>  <ligand_id>  (43) 
42

>  <original_smiles>  (43) 
[H]c1c([H])c([H])c2c(c1[H])C([H])([H])C([H])([H])C([H])([H])C2([H])N([H])C(=O)C1([H])N(C(=O)C([H])(N([H])C(=O)C([H])(N([H])C([H])([H])[H])C([H])([H])[H])C(C([H])([H])[H])(C([H])([H])[H])C([H])([H])[H])C([H])([H])c2c([H])c(OC([H])([H])C([H])([H])C(=O)N3C([H])([H])C([H])([H])C([H])([N+]([H])([H])[H])C3([H])C([H])([H])N([H])C(=O)N3C([H])([H])C([H])([H])C([H])([H])C([H])(n4nc(-c5c([H])c([H])c(Oc6c([H])c([H])c(F)c([H])c6F)c([H])c5[H])c(C(=O)N([H])[H])c4N([H])[H])C3([H])[H])c([H])c([H])c2C1([H])[H]

>  <smiles>  (43) 
[H]c1c([H])c([H])c2c(c1[H])C([H])([H])C([H])([H])C([H])([H])C2([H])N([H])C(=O)C1([H])N(C(=O)C([H])(N([H])C(=O)C([H])(N([H])C([H])([H])[H])C([H])([H])[H])C(C([H])([H])[H])(C([H])([H])[H])C([H])([H])[H])C([H])([H])c2c([H])c(OC([H])([H])C([H])([H])C(=O)N3C([H])([H])C([H])([H])C([H])([N+]([H])([H])[H])C3([H])C([H])([H])N([H])C(=O)N3C([H])([H])C([H])([H])C([H])([H])C([H])(n4nc(-c5c([H])c([H])c(Oc6c([H])c([H])c(F)c([H])c6F)c([H])c5[H])c(C(=O)N([H])[H])c4N([H])[H])C3([H])[H])c([H])c([H])c2C1([H])[H]

$$$$
43:0:0
     RDKit          3D

 90 99  0  0  1  0  0  0  0  0999 V2000
  -28.1350  -22.3720   19.1820 C   0  0  0  0  0  2  0  0  0  0  0  0
  -28.6440  -21.6800   20.4330 C   0  0  0  0  0  3  0  0  0  0  0  0
  -28.8820  -23.3140   20.1080 C   0  0  0  0  0  3  0  0  0  0  0  0
  -31.8710  -19.4130   20.1730 C   0  0  0  0  0  3  0  0  0  0  0  0
  -30.9650  -20.4980   20.2220 C   0  0  0  0  0  3  0  0  0  0  0  0
  -31.4560  -18.0630   20.2360 C   0  0  0  0  0  3  0  0  0  0  0  0
  -29.1800  -18.8690   20.3840 C   0  0  0  0  0  3  0  0  0  0  0  0
  -29.5710  -20.3110   20.3300 C   0  0  0  0  0  0  0  0  0  0  0  0
  -30.0970  -17.6880   20.3440 C   0  0  0  0  0  0  0  0  0  0  0  0
  -30.4920  -14.9710   20.2670 C   0  0  0  0  0  0  0  0  0  0  0  0
  -30.3170  -12.6320   19.3000 C   0  0  0  0  0  2  0  0  0  0  0  0
  -29.3680  -12.5920   18.0810 C   0  0  0  0  0  2  0  0  0  0  0  0
  -27.9160  -12.3820   18.5410 C   0  0  0  0  0  2  0  0  0  0  0  0
  -27.5270  -13.3110   19.7200 C   0  0  0  0  0  3  0  0  0  0  0  0
  -28.5970  -13.3250   20.8340 C   0  0  0  0  0  2  0  0  0  0  0  0
  -29.8610  -13.7290   20.2050 N   0  0  0  0  0  0  0  0  0  0  0  0
  -31.6970  -14.9800   19.9940 O   0  0  0  0  0  0  0  0  0  0  0  0
  -29.7480  -16.1850   20.4170 N   0  0  0  0  0  0  0  0  0  0  0  0
  -28.7680  -16.0050   20.5720 H   0  0  0  0  0  0  0  0  0  0  0  0
  -25.1540  -13.8880   20.4810 C   0  0  0  0  0  0  0  0  0  0  0  0
  -24.0920  -13.1120   20.8570 C   0  0  0  0  0  0  0  0  0  0  0  0
  -24.5570  -11.7610   20.8210 C   0  0  0  0  0  0  0  0  0  0  0  0
  -26.1950  -13.0100   20.2330 N   0  0  0  0  0  0  0  0  0  0  0  0
  -25.8460  -11.7260   20.5060 N   0  0  0  0  0  0  0  0  0  0  0  0
  -23.8320  -10.4980   21.0120 C   0  0  0  0  0  0  0  0  0  0  0  0
  -24.2620   -9.5330   21.9500 C   0  0  0  0  0  3  0  0  0  0  0  0
  -23.5360   -8.3370   22.1310 C   0  0  0  0  0  3  0  0  0  0  0  0
  -22.3640   -8.0950   21.3740 C   0  0  0  0  0  0  0  0  0  0  0  0
  -21.9520   -9.0500   20.4280 C   0  0  0  0  0  3  0  0  0  0  0  0
  -22.6790  -10.2380   20.2450 C   0  0  0  0  0  3  0  0  0  0  0  0
  -21.6110   -6.9490   21.4630 O   0  0  0  0  0  0  0  0  0  0  0  0
  -21.5520   -6.2160   22.6210 C   0  0  0  0  0  0  0  0  0  0  0  0
  -21.1090   -6.7790   23.8390 C   0  0  0  0  0  3  0  0  0  0  0  0
  -20.9970   -5.9720   24.9880 C   0  0  0  0  0  3  0  0  0  0  0  0
  -21.3180   -4.6030   24.9210 C   0  0  0  0  0  0  0  0  0  0  0  0
  -21.7540   -4.0400   23.7090 C   0  0  0  0  0  3  0  0  0  0  0  0
  -21.8670   -4.8440   22.5620 C   0  0  0  0  0  0  0  0  0  0  0  0
  -22.2670   -4.2920   21.3910 F   0  0  0  0  0  0  0  0  0  0  0  0
  -21.2040   -3.8240   26.0240 F   0  0  0  0  0  0  0  0  0  0  0  0
  -22.6960  -13.5890   21.1320 C   0  0  0  0  0  0  0  0  0  0  0  0
  -21.9700  -12.8920   21.9990 N   0  0  0  0  0  0  0  0  0  0  0  0
  -22.2580  -14.6160   20.6150 O   0  0  0  0  0  0  0  0  0  0  0  0
  -22.3360  -12.0600   22.4350 H   0  0  0  0  0  0  0  0  0  0  0  0
  -21.0360  -13.1980   22.2280 H   0  0  0  0  0  0  0  0  0  0  0  0
  -25.3160  -15.2580   20.3020 N   0  0  0  0  0  0  0  0  0  0  0  0
  -24.5480  -15.9110   20.4190 H   0  0  0  0  0  0  0  0  0  0  0  0
  -26.1530  -15.6950   19.9370 H   0  0  0  0  0  0  0  0  0  0  0  0
  -26.7270  -24.3830   21.1860 C   0  0  0  0  0  1  0  0  0  0  0  0
  -28.1510  -24.7060   20.6970 C   0  0  0  0  0  3  0  0  0  0  0  0
  -28.2950  -26.1850   20.1910 O   0  0  0  0  0  0  0  0  0  0  0  0
  -24.6280  -31.8670   23.1970 C   0  0  0  0  0  0  0  0  0  0  0  0
  -27.2310  -27.1630   20.1720 C   0  0  0  0  0  0  0  0  0  0  0  0
  -23.4420  -30.4670   21.5530 C   0  0  0  0  0  3  0  0  0  0  0  0
  -24.9010  -28.9010   20.1290 C   0  0  0  0  0  0  0  0  0  0  0  0
  -25.9920  -30.7410   21.4010 C   0  0  0  0  0  2  0  0  0  0  0  0
  -26.0740  -29.3470   20.7530 C   0  0  0  0  0  0  0  0  0  0  0  0
  -27.2410  -28.4930   20.7600 C   0  0  0  0  0  3  0  0  0  0  0  0
  -26.0480  -26.8390   19.4770 C   0  0  0  0  0  3  0  0  0  0  0  0
  -24.9010  -27.6620   19.4740 C   0  0  0  0  0  3  0  0  0  0  0  0
  -23.6680  -29.7910   20.1750 C   0  0  0  0  0  2  0  0  0  0  0  0
  -24.7070  -31.0460   22.1050 N   0  0  0  0  0  0  0  0  0  0  0  0
  -23.5390  -32.1490   23.7180 O   0  0  0  0  0  0  0  0  0  0  0  0
  -22.7570  -29.4590   22.5120 C   0  0  0  0  0  0  0  0  0  0  0  0
  -21.4280  -29.3060   22.3880 N   0  0  0  0  0  0  0  0  0  0  0  0
  -23.4260  -28.8220   23.3290 O   0  0  0  0  0  0  0  0  0  0  0  0
  -20.9430  -29.8730   21.7060 H   0  0  0  0  0  0  0  0  0  0  0  0
  -18.0330  -28.1370   22.8970 C   0  0  0  0  0  0  0  0  0  0  0  0
  -20.5970  -28.3700   23.1520 C   0  0  0  0  0  3  0  0  0  0  0  0
  -20.6780  -26.9430   22.5630 C   0  0  0  0  0  2  0  0  0  0  0  0
  -19.5680  -26.6430   21.5510 C   0  0  0  0  0  2  0  0  0  0  0  0
  -18.1920  -26.7940   22.2050 C   0  0  0  0  0  2  0  0  0  0  0  0
  -19.1630  -28.8850   23.3260 C   0  0  0  0  0  0  0  0  0  0  0  0
  -18.9610  -30.1420   23.9360 C   0  0  0  0  0  3  0  0  0  0  0  0
  -17.6620  -30.6540   24.1180 C   0  0  0  0  0  3  0  0  0  0  0  0
  -16.5480  -29.9050   23.7030 C   0  0  0  0  0  3  0  0  0  0  0  0
  -16.7330  -28.6490   23.0990 C   0  0  0  0  0  3  0  0  0  0  0  0
  -25.9030  -32.5020   23.8340 C   0  0  0  0  0  3  0  0  0  0  0  0
  -25.5820  -33.8970   24.1750 N   0  0  0  0  0  0  0  0  0  0  0  0
  -25.9120  -34.9620   23.4320 C   0  0  0  0  0  0  0  0  0  0  0  0
  -26.5820  -34.8750   22.4000 O   0  0  0  0  0  0  0  0  0  0  0  0
  -24.9720  -34.0380   24.9680 H   0  0  0  0  0  0  0  0  0  0  0  0
  -24.1780  -36.7590   23.1140 C   0  0  0  0  0  1  0  0  0  0  0  0
  -25.4240  -36.3430   23.9110 C   0  0  0  0  0  3  0  0  0  0  0  0
  -27.5590  -37.2270   24.7420 C   0  0  0  0  0  1  0  0  0  0  0  0
  -26.4530  -37.4010   23.8050 N   0  0  0  0  0  0  0  0  0  0  0  0
  -26.0430  -38.3170   23.9670 H   0  0  0  0  0  0  0  0  0  0  0  0
  -26.4120  -31.7250   25.1090 C   0  0  1  0  0  0  0  0  0  0  0  0
  -25.3120  -31.4800   26.1700 C   0  0  0  0  0  1  0  0  0  0  0  0
  -26.9970  -30.3470   24.7180 C   0  0  0  0  0  1  0  0  0  0  0  0
  -27.5620  -32.5170   25.7770 C   0  0  0  0  0  1  0  0  0  0  0  0
  1  3  1  0
  1  2  1  0
  2  8  1  0
  3  2  1  0
  3 49  1  0
  4  5  2  0
  4  6  1  0
  5  8  1  0
  6  9  2  0
  8  7  2  0
  9  7  1  0
  9 18  1  0
 10 18  1  0
 11 16  1  0
 12 13  1  0
 12 11  1  0
 14 13  1  0
 14 23  1  0
 14 15  1  0
 16 10  1  0
 16 15  1  0
 17 10  2  0
 18 19  1  0
 20 21  2  0
 21 40  1  0
 22 21  1  0
 22 25  1  0
 23 20  1  0
 23 24  1  0
 24 22  2  0
 25 26  1  0
 26 27  2  0
 28 31  1  0
 28 27  1  0
 29 28  2  0
 30 29  1  0
 30 25  2  0
 31 32  1  0
 32 33  1  0
 33 34  2  0
 35 34  1  0
 35 39  1  0
 36 35  2  0
 37 32  2  0
 37 36  1  0
 38 37  1  0
 40 41  1  0
 41 44  1  0
 41 43  1  0
 42 40  2  0
 45 46  1  0
 45 20  1  0
 47 45  1  0
 49 48  1  0
 50 49  1  0
 51 62  2  0
 52 50  1  0
 52 57  1  0
 53 61  1  0
 53 63  1  0
 54 60  1  0
 54 56  1  0
 55 61  1  0
 56 57  2  0
 56 55  1  0
 58 52  2  0
 59 58  1  0
 59 54  2  0
 60 53  1  0
 61 51  1  0
 63 65  2  0
 64 63  1  0
 66 64  1  0
 67 76  2  0
 67 72  1  0
 68 64  1  0
 68 72  1  0
 69 68  1  0
 70 71  1  0
 70 69  1  0
 71 67  1  0
 72 73  2  0
 73 74  1  0
 75 74  2  0
 76 75  1  0
 77 51  1  0
 77 78  1  0
 77 87  1  0
 78 81  1  0
 79 83  1  0
 79 78  1  0
 80 79  2  0
 83 82  1  0
 85 83  1  0
 85 86  1  0
 85 84  1  0
 87 90  1  1
 87 88  1  0
 89 87  1  0
M  ISO  4  10 100  18 100  49 101  50 101
M  END
>  <TORSDO>  (44) 
F 18

>  <SCORE>  (44) 
-14.732

>  <name>  (44) 
43

>  <ligand_id>  (44) 
43

>  <original_smiles>  (44) 
[H]c1c([H])c([H])c2c(c1[H])C([H])([H])C([H])([H])C([H])([H])C2([H])N([H])C(=O)C1([H])N(C(=O)C([H])(N([H])C(=O)C([H])(N([H])C([H])([H])[H])C([H])([H])[H])C(C([H])([H])[H])(C([H])([H])[H])C([H])([H])[H])C([H])([H])c2c([H])c(OC([H])(C([H])([H])[H])C3([H])C([H])([H])C3([H])c3c([H])c([H])c([H])c(N([H])C(=O)N4C([H])([H])C([H])([H])C([H])([H])C([H])(n5nc(-c6c([H])c([H])c(Oc7c([H])c([H])c(F)c([H])c7F)c([H])c6[H])c(C(=O)N([H])[H])c5N([H])[H])C4([H])[H])c3[H])c([H])c([H])c2C1([H])[H]

>  <smiles>  (44) 
[H]c1c([H])c([H])c2c(c1[H])C([H])([H])C([H])([H])C([H])([H])C2([H])N([H])C(=O)C1([H])N(C(=O)C([H])(N([H])C(=O)C([H])(N([H])C([H])([H])[H])C([H])([H])[H])C(C([H])([H])[H])(C([H])([H])[H])C([H])([H])[H])C([H])([H])c2c([H])c(OC([H])(C([H])([H])[H])C3([H])C([H])([H])C3([H])c3c([H])c([H])c([H])c(N([H])C(=O)N4C([H])([H])C([H])([H])C([H])([H])C([H])(n5nc(-c6c([H])c([H])c(Oc7c([H])c([H])c(F)c([H])c7F)c([H])c6[H])c(C(=O)N([H])[H])c5N([H])[H])C4([H])[H])c3[H])c([H])c([H])c2C1([H])[H]

$$$$
44:0:0
     RDKit          3D

 88 97  0  0  1  0  0  0  0  0999 V2000
  -28.9100  -22.8160   20.2660 C   0  0  0  0  0  0  0  0  0  0  0  0
  -29.8020  -22.9860   21.1040 O   0  0  0  0  0  0  0  0  0  0  0  0
  -28.8170  -21.1770   19.6370 C   0  0  0  0  0  2  0  0  0  0  0  0
  -30.6560  -15.3280   19.6090 C   0  0  0  0  0  0  0  0  0  0  0  0
  -30.4040  -12.9180   18.6770 C   0  0  0  0  0  2  0  0  0  0  0  0
  -29.3710  -12.7110   17.5470 C   0  0  0  0  0  2  0  0  0  0  0  0
  -27.9870  -12.4260   18.1480 C   0  0  0  0  0  2  0  0  0  0  0  0
  -27.6570  -13.3830   19.3180 C   0  0  0  0  0  3  0  0  0  0  0  0
  -28.8190  -13.5720   20.3180 C   0  0  0  0  0  2  0  0  0  0  0  0
  -29.9570  -14.0850   19.5360 N   0  0  0  0  0  0  0  0  0  0  0  0
  -31.8510  -15.1580   19.3170 O   0  0  0  0  0  0  0  0  0  0  0  0
  -30.4070  -17.5780   21.9670 C   0  0  0  0  0  2  0  0  0  0  0  0
  -28.9100  -17.5450   21.5580 C   0  0  0  0  0  2  0  0  0  0  0  0
  -30.9950  -19.1900   20.0350 C   0  0  0  0  0  2  0  0  0  0  0  0
  -29.5070  -19.5850   20.1490 C   0  0  0  0  0  3  0  0  0  0  0  0
  -31.1050  -17.6850   20.5810 C   0  0  0  0  0  3  0  0  0  0  0  0
  -29.0710  -17.8750   20.0630 C   0  0  0  0  0  3  0  0  0  0  0  0
  -30.2200  -16.7580   19.8390 N   0  0  0  0  0  0  0  0  0  0  0  0
  -25.4240  -13.9290   20.4040 C   0  0  0  0  0  0  0  0  0  0  0  0
  -24.3900  -13.1470   20.8380 C   0  0  0  0  0  0  0  0  0  0  0  0
  -24.8110  -11.7940   20.6550 C   0  0  0  0  0  0  0  0  0  0  0  0
  -26.4010  -13.0520   19.9720 N   0  0  0  0  0  0  0  0  0  0  0  0
  -26.0560  -11.7570   20.1910 N   0  0  0  0  0  0  0  0  0  0  0  0
  -24.0730  -10.5370   20.8370 C   0  0  0  0  0  0  0  0  0  0  0  0
  -24.5320   -9.5280   21.7130 C   0  0  0  0  0  3  0  0  0  0  0  0
  -23.7920   -8.3380   21.8870 C   0  0  0  0  0  3  0  0  0  0  0  0
  -22.5770   -8.1500   21.1870 C   0  0  0  0  0  0  0  0  0  0  0  0
  -22.1340   -9.1470   20.2990 C   0  0  0  0  0  3  0  0  0  0  0  0
  -22.8760  -10.3270   20.1210 C   0  0  0  0  0  3  0  0  0  0  0  0
  -21.8040   -7.0170   21.2750 O   0  0  0  0  0  0  0  0  0  0  0  0
  -21.7370   -6.2770   22.4290 C   0  0  0  0  0  0  0  0  0  0  0  0
  -21.3080   -6.8400   23.6510 C   0  0  0  0  0  3  0  0  0  0  0  0
  -21.1890   -6.0290   24.7960 C   0  0  0  0  0  3  0  0  0  0  0  0
  -21.4900   -4.6560   24.7220 C   0  0  0  0  0  0  0  0  0  0  0  0
  -21.9120   -4.0920   23.5050 C   0  0  0  0  0  3  0  0  0  0  0  0
  -22.0330   -4.9010   22.3610 C   0  0  0  0  0  0  0  0  0  0  0  0
  -22.4200   -4.3480   21.1850 F   0  0  0  0  0  0  0  0  0  0  0  0
  -21.3680   -3.8740   25.8200 F   0  0  0  0  0  0  0  0  0  0  0  0
  -23.0480  -13.6330   21.2990 C   0  0  0  0  0  0  0  0  0  0  0  0
  -22.4210  -12.9090   22.2180 N   0  0  0  0  0  0  0  0  0  0  0  0
  -22.5720  -14.6880   20.8800 O   0  0  0  0  0  0  0  0  0  0  0  0
  -22.8230  -12.0520   22.5700 H   0  0  0  0  0  0  0  0  0  0  0  0
  -21.5250  -13.2120   22.5720 H   0  0  0  0  0  0  0  0  0  0  0  0
  -25.6070  -15.3040   20.3090 N   0  0  0  0  0  0  0  0  0  0  0  0
  -24.8790  -15.9650   20.5580 H   0  0  0  0  0  0  0  0  0  0  0  0
  -26.4340  -15.7500   19.9330 H   0  0  0  0  0  0  0  0  0  0  0  0
  -27.9520  -24.2400   19.9060 C   0  0  0  0  0  2  0  0  0  0  0  0
  -28.1960  -25.8200   20.3170 O   0  0  0  0  0  0  0  0  0  0  0  0
  -24.6100  -31.8000   23.2200 C   0  0  0  0  0  0  0  0  0  0  0  0
  -27.1990  -26.9260   20.2270 C   0  0  0  0  0  0  0  0  0  0  0  0
  -23.4310  -30.3950   21.5770 C   0  0  0  0  0  3  0  0  0  0  0  0
  -24.8950  -28.7960   20.1630 C   0  0  0  0  0  0  0  0  0  0  0  0
  -25.9980  -30.6170   21.4440 C   0  0  0  0  0  2  0  0  0  0  0  0
  -26.0780  -29.2060   20.7910 C   0  0  0  0  0  0  0  0  0  0  0  0
  -27.2240  -28.2920   20.7990 C   0  0  0  0  0  3  0  0  0  0  0  0
  -25.9880  -26.6690   19.5480 C   0  0  0  0  0  3  0  0  0  0  0  0
  -24.8770  -27.5480   19.5200 C   0  0  0  0  0  3  0  0  0  0  0  0
  -23.6710  -29.7090   20.2030 C   0  0  0  0  0  2  0  0  0  0  0  0
  -24.7010  -30.9640   22.1340 N   0  0  0  0  0  0  0  0  0  0  0  0
  -23.5170  -32.0850   23.7330 O   0  0  0  0  0  0  0  0  0  0  0  0
  -22.7370  -29.3970   22.5410 C   0  0  0  0  0  0  0  0  0  0  0  0
  -21.4060  -29.2330   22.4160 N   0  0  0  0  0  0  0  0  0  0  0  0
  -23.4030  -28.7700   23.3700 O   0  0  0  0  0  0  0  0  0  0  0  0
  -20.9220  -29.7910   21.7260 H   0  0  0  0  0  0  0  0  0  0  0  0
  -18.0230  -28.0290   22.9300 C   0  0  0  0  0  0  0  0  0  0  0  0
  -20.5840  -28.2940   23.1850 C   0  0  0  0  0  3  0  0  0  0  0  0
  -20.6820  -26.8630   22.6040 C   0  0  0  0  0  2  0  0  0  0  0  0
  -19.5750  -26.5440   21.5930 C   0  0  0  0  0  2  0  0  0  0  0  0
  -18.1960  -26.6850   22.2440 C   0  0  0  0  0  2  0  0  0  0  0  0
  -19.1420  -28.7910   23.3580 C   0  0  0  0  0  0  0  0  0  0  0  0
  -18.9220  -30.0470   23.9660 C   0  0  0  0  0  3  0  0  0  0  0  0
  -17.6170  -30.5410   24.1470 C   0  0  0  0  0  3  0  0  0  0  0  0
  -16.5120  -29.7790   23.7320 C   0  0  0  0  0  3  0  0  0  0  0  0
  -16.7160  -28.5250   23.1290 C   0  0  0  0  0  3  0  0  0  0  0  0
  -25.8730  -32.4520   23.8600 C   0  0  0  0  0  3  0  0  0  0  0  0
  -25.5540  -33.8600   24.1560 N   0  0  0  0  0  0  0  0  0  0  0  0
  -25.8870  -34.9030   23.3840 C   0  0  0  0  0  0  0  0  0  0  0  0
  -26.5560  -34.7800   22.3550 O   0  0  0  0  0  0  0  0  0  0  0  0
  -24.9530  -34.0270   24.9500 H   0  0  0  0  0  0  0  0  0  0  0  0
  -24.1590  -36.6980   23.0080 C   0  0  0  0  0  1  0  0  0  0  0  0
  -25.4040  -36.3020   23.8190 C   0  0  0  0  0  3  0  0  0  0  0  0
  -27.5430  -37.2070   24.6250 C   0  0  0  0  0  1  0  0  0  0  0  0
  -26.4380  -37.3520   23.6790 N   0  0  0  0  0  0  0  0  0  0  0  0
  -26.0330  -38.2770   23.8030 H   0  0  0  0  0  0  0  0  0  0  0  0
  -26.3500  -31.7160   25.1730 C   0  0  1  0  0  0  0  0  0  0  0  0
  -25.2290  -31.5150   26.2200 C   0  0  0  0  0  1  0  0  0  0  0  0
  -26.9370  -30.3240   24.8440 C   0  0  0  0  0  1  0  0  0  0  0  0
  -27.4870  -32.5250   25.8420 C   0  0  0  0  0  1  0  0  0  0  0  0
  1  2  2  0
  3  1  1  0
  4 18  1  0
  5 10  1  0
  6  7  1  0
  6  5  1  0
  8  7  1  0
  8 22  1  0
  8  9  1  0
 10  4  1  0
 10  9  1  0
 11  4  2  0
 13 12  1  0
 14 15  1  0
 15  3  1  0
 16 14  1  0
 16 12  1  0
 17 15  1  0
 17 13  1  0
 18 17  1  0
 18 16  1  0
 19 20  2  0
 20 39  1  0
 21 24  1  0
 21 20  1  0
 22 23  1  0
 22 19  1  0
 23 21  2  0
 24 25  1  0
 25 26  2  0
 27 30  1  0
 27 26  1  0
 28 27  2  0
 29 28  1  0
 29 24  2  0
 30 31  1  0
 31 32  1  0
 32 33  2  0
 34 33  1  0
 34 38  1  0
 35 34  2  0
 36 31  2  0
 36 35  1  0
 37 36  1  0
 39 40  1  0
 40 42  1  0
 40 43  1  0
 41 39  2  0
 44 19  1  0
 44 45  1  0
 46 44  1  0
 47  1  1  0
 47 48  1  0
 49 60  2  0
 50 48  1  0
 50 55  1  0
 51 59  1  0
 51 61  1  0
 52 58  1  0
 52 54  1  0
 53 59  1  0
 54 55  2  0
 54 53  1  0
 56 50  2  0
 57 56  1  0
 57 52  2  0
 58 51  1  0
 59 49  1  0
 61 63  2  0
 62 61  1  0
 64 62  1  0
 65 74  2  0
 65 70  1  0
 66 62  1  0
 66 70  1  0
 67 66  1  0
 68 69  1  0
 68 67  1  0
 69 65  1  0
 70 71  2  0
 71 72  1  0
 73 72  2  0
 74 73  1  0
 75 49  1  0
 75 76  1  0
 75 85  1  0
 76 79  1  0
 77 81  1  0
 77 76  1  0
 78 77  2  0
 81 80  1  0
 83 84  1  0
 83 81  1  0
 83 82  1  0
 85 88  1  1
 85 86  1  0
 87 85  1  0
M  ISO  4   4 100  18 100  47 101  48 101
M  END
>  <TORSDO>  (45) 
F 18

>  <SCORE>  (45) 
-15.110

>  <name>  (45) 
44

>  <ligand_id>  (45) 
44

>  <original_smiles>  (45) 
[H]c1c([H])c([H])c2c(c1[H])C([H])([H])C([H])([H])C([H])([H])C2([H])N([H])C(=O)C1([H])N(C(=O)C([H])(N([H])C(=O)C([H])(N([H])C([H])([H])[H])C([H])([H])[H])C(C([H])([H])[H])(C([H])([H])[H])C([H])([H])[H])C([H])([H])c2c([H])c(OC([H])([H])C(=O)C([H])([H])C3([H])C([H])([H])C4([H])N(C(=O)N5C([H])([H])C([H])([H])C([H])([H])C([H])(n6nc(-c7c([H])c([H])c(Oc8c([H])c([H])c(F)c([H])c8F)c([H])c7[H])c(C(=O)N([H])[H])c6N([H])[H])C5([H])[H])C3([H])C([H])([H])C4([H])[H])c([H])c([H])c2C1([H])[H]

>  <smiles>  (45) 
[H]c1c([H])c([H])c2c(c1[H])C([H])([H])C([H])([H])C([H])([H])C2([H])N([H])C(=O)C1([H])N(C(=O)C([H])(N([H])C(=O)C([H])(N([H])C([H])([H])[H])C([H])([H])[H])C(C([H])([H])[H])(C([H])([H])[H])C([H])([H])[H])C([H])([H])c2c([H])c(OC([H])([H])C(=O)C([H])([H])C3([H])C([H])([H])C4([H])N(C(=O)N5C([H])([H])C([H])([H])C([H])([H])C([H])(n6nc(-c7c([H])c([H])c(Oc8c([H])c([H])c(F)c([H])c8F)c([H])c7[H])c(C(=O)N([H])[H])c6N([H])[H])C5([H])[H])C3([H])C([H])([H])C4([H])[H])c([H])c([H])c2C1([H])[H]

$$$$
45:0:0
     RDKit          3D

 93101  0  0  1  0  0  0  0  0999 V2000
  -30.6770  -14.6420   20.4330 C   0  0  0  0  0  0  0  0  0  0  0  0
  -30.4230  -12.4340   19.3310 C   0  0  0  0  0  2  0  0  0  0  0  0
  -29.4930  -12.5980   18.1100 C   0  0  0  0  0  2  0  0  0  0  0  0
  -28.0170  -12.4490   18.5300 C   0  0  0  0  0  2  0  0  0  0  0  0
  -27.6580  -13.3020   19.7760 C   0  0  0  0  0  3  0  0  0  0  0  0
  -28.7060  -13.1310   20.8980 C   0  0  0  0  0  2  0  0  0  0  0  0
  -30.0230  -13.4460   20.3260 N   0  0  0  0  0  0  0  0  0  0  0  0
  -31.8480  -14.7690   20.0630 O   0  0  0  0  0  0  0  0  0  0  0  0
  -30.2900  -17.9240   19.4190 C   0  0  0  0  0  2  0  0  0  0  0  0
  -30.8350  -17.7740   21.8790 C   0  0  0  0  0  2  0  0  0  0  0  0
  -29.4090  -16.6540   19.6310 C   0  0  0  0  0  2  0  0  0  0  0  0
  -29.9250  -16.5090   21.9430 C   0  0  0  0  0  2  0  0  0  0  0  0
  -30.6530  -18.7930   20.6820 C   0  0  1  0  0  0  0  0  0  0  0  0
  -29.9030  -15.7490   20.6870 N   0  0  0  0  0  0  0  0  0  0  0  0
  -25.2580  -13.9130   20.4550 C   0  0  0  0  0  0  0  0  0  0  0  0
  -24.1850  -13.1450   20.8190 C   0  0  0  0  0  0  0  0  0  0  0  0
  -24.6470  -11.7940   20.8110 C   0  0  0  0  0  0  0  0  0  0  0  0
  -26.3040  -13.0290   20.2470 N   0  0  0  0  0  0  0  0  0  0  0  0
  -25.9410  -11.7490   20.5220 N   0  0  0  0  0  0  0  0  0  0  0  0
  -23.9170  -10.5340   21.0080 C   0  0  0  0  0  0  0  0  0  0  0  0
  -24.3440   -9.5730   21.9500 C   0  0  0  0  0  3  0  0  0  0  0  0
  -23.6150   -8.3770   22.1340 C   0  0  0  0  0  3  0  0  0  0  0  0
  -22.4450   -8.1360   21.3750 C   0  0  0  0  0  0  0  0  0  0  0  0
  -22.0380   -9.0860   20.4210 C   0  0  0  0  0  3  0  0  0  0  0  0
  -22.7670  -10.2720   20.2360 C   0  0  0  0  0  3  0  0  0  0  0  0
  -21.6890   -6.9930   21.4660 O   0  0  0  0  0  0  0  0  0  0  0  0
  -21.6360   -6.2570   22.6220 C   0  0  0  0  0  0  0  0  0  0  0  0
  -21.2110   -6.8190   23.8470 C   0  0  0  0  0  3  0  0  0  0  0  0
  -21.1060   -6.0080   24.9950 C   0  0  0  0  0  3  0  0  0  0  0  0
  -21.4140   -4.6370   24.9200 C   0  0  0  0  0  0  0  0  0  0  0  0
  -21.8310   -4.0740   23.7010 C   0  0  0  0  0  3  0  0  0  0  0  0
  -21.9390   -4.8820   22.5540 C   0  0  0  0  0  0  0  0  0  0  0  0
  -22.3210   -4.3300   21.3780 F   0  0  0  0  0  0  0  0  0  0  0  0
  -21.3050   -3.8570   26.0200 F   0  0  0  0  0  0  0  0  0  0  0  0
  -22.7840  -13.6270   21.0650 C   0  0  0  0  0  0  0  0  0  0  0  0
  -22.0450  -12.9420   21.9310 N   0  0  0  0  0  0  0  0  0  0  0  0
  -22.3540  -14.6450   20.5270 O   0  0  0  0  0  0  0  0  0  0  0  0
  -22.4060  -12.1180   22.3890 H   0  0  0  0  0  0  0  0  0  0  0  0
  -21.1050  -13.2470   22.1410 H   0  0  0  0  0  0  0  0  0  0  0  0
  -25.4260  -15.2810   20.2650 N   0  0  0  0  0  0  0  0  0  0  0  0
  -24.6620  -15.9410   20.3620 H   0  0  0  0  0  0  0  0  0  0  0  0
  -26.2910  -15.7170   19.9700 H   0  0  0  0  0  0  0  0  0  0  0  0
  -32.0400  -19.4600   20.4430 C   0  0  0  0  0  0  0  0  0  0  0  0
  -32.7230  -19.8770   21.5050 N   0  0  0  0  0  0  0  0  0  0  0  0
  -32.4950  -19.6350   19.3140 O   0  0  0  0  0  0  0  0  0  0  0  0
  -32.3430  -19.7570   22.4320 H   0  0  0  0  0  0  0  0  0  0  0  0
  -33.6220  -20.3250   21.3920 H   0  0  0  0  0  0  0  0  0  0  0  0
  -29.6080  -19.9760   20.9890 C   0  0  0  0  0  2  0  0  0  0  0  0
  -29.7240  -21.3950   20.2610 C   0  0  0  0  0  3  0  0  0  0  0  0
  -28.8510  -22.5930   20.8140 C   0  0  0  0  0  3  0  0  0  0  0  0
  -29.0850  -24.0330   20.1870 C   0  0  0  0  0  3  0  0  0  0  0  0
  -28.2520  -25.2210   20.8120 C   0  0  0  0  0  3  0  0  0  0  0  0
  -28.4390  -26.5760   20.2680 O   0  0  0  0  0  0  0  0  0  0  0  0
  -24.6040  -31.8930   23.2320 C   0  0  0  0  0  0  0  0  0  0  0  0
  -27.3080  -27.3900   20.2270 C   0  0  0  0  0  0  0  0  0  0  0  0
  -23.4340  -30.4750   21.5810 C   0  0  0  0  0  3  0  0  0  0  0  0
  -24.9190  -28.9400   20.1780 C   0  0  0  0  0  0  0  0  0  0  0  0
  -25.9660  -30.8360   21.4210 C   0  0  0  0  0  2  0  0  0  0  0  0
  -26.0720  -29.4580   20.7830 C   0  0  0  0  0  0  0  0  0  0  0  0
  -27.2730  -28.6940   20.7960 C   0  0  0  0  0  3  0  0  0  0  0  0
  -26.1390  -26.9160   19.5930 C   0  0  0  0  0  3  0  0  0  0  0  0
  -24.9520  -27.6730   19.5750 C   0  0  0  0  0  3  0  0  0  0  0  0
  -23.6700  -29.7940   20.2070 C   0  0  0  0  0  2  0  0  0  0  0  0
  -24.6860  -31.0850   22.1350 N   0  0  0  0  0  0  0  0  0  0  0  0
  -23.5120  -32.1590   23.7530 O   0  0  0  0  0  0  0  0  0  0  0  0
  -22.7740  -29.4530   22.5370 C   0  0  0  0  0  0  0  0  0  0  0  0
  -21.4480  -29.2770   22.4100 N   0  0  0  0  0  0  0  0  0  0  0  0
  -23.4540  -28.8220   23.3510 O   0  0  0  0  0  0  0  0  0  0  0  0
  -20.9600  -29.8380   21.7260 H   0  0  0  0  0  0  0  0  0  0  0  0
  -18.0650  -28.1080   22.9250 C   0  0  0  0  0  0  0  0  0  0  0  0
  -20.6280  -28.3390   23.1780 C   0  0  0  0  0  3  0  0  0  0  0  0
  -20.7110  -26.9140   22.5840 C   0  0  0  0  0  2  0  0  0  0  0  0
  -19.5980  -26.6150   21.5760 C   0  0  0  0  0  2  0  0  0  0  0  0
  -18.2220  -26.7660   22.2330 C   0  0  0  0  0  2  0  0  0  0  0  0
  -19.1950  -28.8550   23.3550 C   0  0  0  0  0  0  0  0  0  0  0  0
  -18.9940  -30.1130   23.9620 C   0  0  0  0  0  3  0  0  0  0  0  0
  -17.6950  -30.6250   24.1440 C   0  0  0  0  0  3  0  0  0  0  0  0
  -16.5800  -29.8760   23.7320 C   0  0  0  0  0  3  0  0  0  0  0  0
  -16.7660  -28.6190   23.1280 C   0  0  0  0  0  3  0  0  0  0  0  0
  -25.8740  -32.5400   23.8660 C   0  0  0  0  0  3  0  0  0  0  0  0
  -25.5450  -33.9350   24.1930 N   0  0  0  0  0  0  0  0  0  0  0  0
  -25.8660  -34.9910   23.4330 C   0  0  0  0  0  0  0  0  0  0  0  0
  -26.5400  -34.8950   22.4050 O   0  0  0  0  0  0  0  0  0  0  0  0
  -24.9460  -34.0820   24.9920 H   0  0  0  0  0  0  0  0  0  0  0  0
  -24.1140  -36.7590   23.0710 C   0  0  0  0  0  1  0  0  0  0  0  0
  -25.3580  -36.3730   23.8870 C   0  0  0  0  0  3  0  0  0  0  0  0
  -27.4770  -37.2880   24.7230 C   0  0  0  0  0  1  0  0  0  0  0  0
  -26.3760  -37.4400   23.7750 N   0  0  0  0  0  0  0  0  0  0  0  0
  -25.9580  -38.3550   23.9210 H   0  0  0  0  0  0  0  0  0  0  0  0
  -26.3870  -31.7750   25.1470 C   0  0  1  0  0  0  0  0  0  0  0  0
  -25.2880  -31.5240   26.2040 C   0  0  0  0  0  1  0  0  0  0  0  0
  -26.9900  -30.4040   24.7590 C   0  0  0  0  0  1  0  0  0  0  0  0
  -27.5230  -32.5820   25.8190 C   0  0  0  0  0  1  0  0  0  0  0  0
  1 14  1  0
  2  7  1  0
  3  4  1  0
  3  2  1  0
  5  4  1  0
  5 18  1  0
  5  6  1  0
  7  1  1  0
  7  6  1  0
  8  1  2  0
  9 11  1  0
  9 13  1  0
 10 12  1  0
 11 14  1  0
 13 48  1  1
 13 10  1  0
 14 12  1  0
 15 16  2  0
 16 35  1  0
 17 16  1  0
 17 20  1  0
 18 15  1  0
 18 19  1  0
 19 17  2  0
 20 21  1  0
 21 22  2  0
 23 26  1  0
 23 22  1  0
 24 23  2  0
 25 24  1  0
 25 20  2  0
 26 27  1  0
 27 28  1  0
 28 29  2  0
 30 29  1  0
 30 34  1  0
 31 30  2  0
 32 27  2  0
 32 31  1  0
 33 32  1  0
 35 36  1  0
 36 39  1  0
 36 38  1  0
 37 35  2  0
 40 41  1  0
 40 15  1  0
 42 40  1  0
 43 13  1  0
 43 44  1  0
 44 46  1  0
 45 43  2  0
 47 44  1  0
 49 50  2  0
 49 48  1  0
 51 52  2  0
 51 50  1  0
 53 52  1  0
 54 65  2  0
 55 53  1  0
 55 60  1  0
 56 64  1  0
 56 66  1  0
 57 63  1  0
 57 59  1  0
 58 64  1  0
 59 60  2  0
 59 58  1  0
 61 55  2  0
 62 61  1  0
 62 57  2  0
 63 56  1  0
 64 54  1  0
 66 68  2  0
 67 66  1  0
 69 67  1  0
 70 79  2  0
 70 75  1  0
 71 67  1  0
 71 75  1  0
 72 71  1  0
 73 74  1  0
 73 72  1  0
 74 70  1  0
 75 76  2  0
 76 77  1  0
 78 77  2  0
 79 78  1  0
 80 54  1  0
 80 81  1  0
 80 90  1  0
 81 84  1  0
 82 86  1  0
 82 81  1  0
 83 82  2  0
 86 85  1  0
 88 86  1  0
 88 89  1  0
 88 87  1  0
 90 93  1  1
 90 91  1  0
 92 90  1  0
M  ISO  4   1 100  14 100  52 101  53 101
M  END
>  <TORSDO>  (46) 
F 21

>  <SCORE>  (46) 
-13.607

>  <name>  (46) 
45

>  <ligand_id>  (46) 
45

>  <original_smiles>  (46) 
[H]c1c([H])c([H])c2c(c1[H])C([H])([H])C([H])([H])C([H])([H])C2([H])N([H])C(=O)C1([H])N(C(=O)C([H])(N([H])C(=O)C([H])(N([H])C([H])([H])[H])C([H])([H])[H])C(C([H])([H])[H])(C([H])([H])[H])C([H])([H])[H])C([H])([H])c2c([H])c(OC([H])([H])C([H])([H])C([H])([H])C([H])([H])C([H])([H])C3(C(=O)N([H])[H])C([H])([H])C([H])([H])N(C(=O)N4C([H])([H])C([H])([H])C([H])([H])C([H])(n5nc(-c6c([H])c([H])c(Oc7c([H])c([H])c(F)c([H])c7F)c([H])c6[H])c(C(=O)N([H])[H])c5N([H])[H])C4([H])[H])C([H])([H])C3([H])[H])c([H])c([H])c2C1([H])[H]

>  <smiles>  (46) 
[H]c1c([H])c([H])c2c(c1[H])C([H])([H])C([H])([H])C([H])([H])C2([H])N([H])C(=O)C1([H])N(C(=O)C([H])(N([H])C(=O)C([H])(N([H])C([H])([H])[H])C([H])([H])[H])C(C([H])([H])[H])(C([H])([H])[H])C([H])([H])[H])C([H])([H])c2c([H])c(OC([H])([H])C([H])([H])C([H])([H])C([H])([H])C([H])([H])C3(C(=O)N([H])[H])C([H])([H])C([H])([H])N(C(=O)N4C([H])([H])C([H])([H])C([H])([H])C([H])(n5nc(-c6c([H])c([H])c(Oc7c([H])c([H])c(F)c([H])c7F)c([H])c6[H])c(C(=O)N([H])[H])c5N([H])[H])C4([H])[H])C([H])([H])C3([H])[H])c([H])c([H])c2C1([H])[H]

$$$$
46:0:0
     RDKit          3D

 91100  0  0  1  0  0  0  0  0999 V2000
  -30.0500  -18.4790   22.0220 C   0  0  0  0  0  2  0  0  0  0  0  0
  -30.2530  -20.0540   22.0260 C   0  0  0  0  0  2  0  0  0  0  0  0
  -28.1950  -20.2460   19.7410 C   0  0  0  0  0  2  0  0  0  0  0  0
  -29.5680  -19.3710   19.7790 C   0  0  0  0  0  3  0  0  0  0  0  0
  -30.1080  -17.9540   20.5700 C   0  0  0  0  0  3  0  0  0  0  0  0
  -30.0510  -20.6450   20.6030 C   0  0  0  0  0  3  0  0  0  0  0  0
  -28.7990  -21.4840   20.3630 N   0  0  1  0  0  4  0  0  0  0  0  0
  -28.3850  -21.3050   21.2660 H   0  0  0  0  0  0  0  0  0  0  0  0
  -30.6040  -15.1480   20.3170 C   0  0  0  0  0  0  0  0  0  0  0  0
  -30.5420  -12.7320   19.4450 C   0  0  0  0  0  2  0  0  0  0  0  0
  -29.6080  -12.5810   18.2180 C   0  0  0  0  0  2  0  0  0  0  0  0
  -28.1600  -12.3430   18.6750 C   0  0  0  0  0  2  0  0  0  0  0  0
  -27.7350  -13.3170   19.8000 C   0  0  0  0  0  3  0  0  0  0  0  0
  -28.7840  -13.4220   20.9220 C   0  0  0  0  0  2  0  0  0  0  0  0
  -30.0300  -13.8630   20.2850 N   0  0  0  0  0  0  0  0  0  0  0  0
  -31.8190  -15.1810   20.0920 O   0  0  0  0  0  0  0  0  0  0  0  0
  -29.8120  -16.3610   20.4110 N   0  0  0  0  0  0  0  0  0  0  0  0
  -28.8280  -16.1480   20.4780 H   0  0  0  0  0  0  0  0  0  0  0  0
  -25.3750  -13.9060   20.5710 C   0  0  0  0  0  0  0  0  0  0  0  0
  -24.3080  -13.1420   20.9470 C   0  0  0  0  0  0  0  0  0  0  0  0
  -24.7580  -11.7890   20.9030 C   0  0  0  0  0  0  0  0  0  0  0  0
  -26.4040  -13.0190   20.3100 N   0  0  0  0  0  0  0  0  0  0  0  0
  -26.0460  -11.7380   20.5790 N   0  0  0  0  0  0  0  0  0  0  0  0
  -24.0180  -10.5330   21.0860 C   0  0  0  0  0  0  0  0  0  0  0  0
  -24.4540   -9.5450   21.9950 C   0  0  0  0  0  3  0  0  0  0  0  0
  -23.7140   -8.3530   22.1690 C   0  0  0  0  0  3  0  0  0  0  0  0
  -22.5250   -8.1430   21.4310 C   0  0  0  0  0  0  0  0  0  0  0  0
  -22.1070   -9.1190   20.5100 C   0  0  0  0  0  3  0  0  0  0  0  0
  -22.8460  -10.3000   20.3350 C   0  0  0  0  0  3  0  0  0  0  0  0
  -21.7550   -7.0070   21.5160 O   0  0  0  0  0  0  0  0  0  0  0  0
  -21.7230   -6.2450   22.6560 C   0  0  0  0  0  0  0  0  0  0  0  0
  -21.3310   -6.7810   23.9030 C   0  0  0  0  0  3  0  0  0  0  0  0
  -21.2450   -5.9430   25.0320 C   0  0  0  0  0  3  0  0  0  0  0  0
  -21.5410   -4.5700   24.9160 C   0  0  0  0  0  0  0  0  0  0  0  0
  -21.9240   -4.0360   23.6750 C   0  0  0  0  0  3  0  0  0  0  0  0
  -22.0130   -4.8710   22.5460 C   0  0  0  0  0  0  0  0  0  0  0  0
  -22.3630   -4.3450   21.3490 F   0  0  0  0  0  0  0  0  0  0  0  0
  -21.4500   -3.7650   26.0010 F   0  0  0  0  0  0  0  0  0  0  0  0
  -22.9180  -13.6350   21.2300 C   0  0  0  0  0  0  0  0  0  0  0  0
  -22.1980  -12.9420   22.1060 N   0  0  0  0  0  0  0  0  0  0  0  0
  -22.4890  -14.6650   20.7150 O   0  0  0  0  0  0  0  0  0  0  0  0
  -22.5710  -12.1110   22.5340 H   0  0  0  0  0  0  0  0  0  0  0  0
  -21.2650  -13.2460   22.3490 H   0  0  0  0  0  0  0  0  0  0  0  0
  -25.5480  -15.2720   20.3940 N   0  0  0  0  0  0  0  0  0  0  0  0
  -24.7590  -15.9080   20.4320 H   0  0  0  0  0  0  0  0  0  0  0  0
  -26.3480  -15.6560   19.9090 H   0  0  0  0  0  0  0  0  0  0  0  0
  -28.3680  -23.0880   20.4830 C   0  0  0  0  0  3  0  0  0  0  0  0
  -26.3900  -23.5910   22.1100 C   0  0  0  0  0  1  0  0  0  0  0  0
  -26.8300  -23.1470   20.7010 C   0  0  0  0  0  2  0  0  0  0  0  0
  -28.7210  -24.5120   19.5510 C   0  0  0  0  0  2  0  0  0  0  0  0
  -28.5950  -26.0830   19.9110 O   0  0  0  0  0  0  0  0  0  0  0  0
  -24.6590  -31.6230   22.9350 C   0  0  0  0  0  0  0  0  0  0  0  0
  -27.4900  -27.0430   19.8130 C   0  0  0  0  0  0  0  0  0  0  0  0
  -23.5430  -30.2080   21.2540 C   0  0  0  0  0  3  0  0  0  0  0  0
  -25.0780  -28.7290   19.7930 C   0  0  0  0  0  0  0  0  0  0  0  0
  -26.0870  -30.5870   21.1190 C   0  0  0  0  0  2  0  0  0  0  0  0
  -26.2310  -29.2070   20.4310 C   0  0  0  0  0  0  0  0  0  0  0  0
  -27.4250  -28.3750   20.4320 C   0  0  0  0  0  3  0  0  0  0  0  0
  -26.3100  -26.7000   19.1160 C   0  0  0  0  0  3  0  0  0  0  0  0
  -25.1350  -27.4950   19.1220 C   0  0  0  0  0  3  0  0  0  0  0  0
  -23.8060  -29.5660   19.8620 C   0  0  0  0  0  2  0  0  0  0  0  0
  -24.7850  -30.8290   21.8260 N   0  0  0  0  0  0  0  0  0  0  0  0
  -23.5560  -31.8410   23.4600 O   0  0  0  0  0  0  0  0  0  0  0  0
  -22.9050  -29.1540   22.1900 C   0  0  0  0  0  0  0  0  0  0  0  0
  -21.5820  -28.9410   22.0710 N   0  0  0  0  0  0  0  0  0  0  0  0
  -23.6040  -28.5250   22.9860 O   0  0  0  0  0  0  0  0  0  0  0  0
  -21.0770  -29.4710   21.3740 H   0  0  0  0  0  0  0  0  0  0  0  0
  -18.2390  -27.6740   22.6700 C   0  0  0  0  0  0  0  0  0  0  0  0
  -20.7990  -27.9700   22.8400 C   0  0  0  0  0  3  0  0  0  0  0  0
  -20.8960  -26.5590   22.2130 C   0  0  0  0  0  2  0  0  0  0  0  0
  -19.7630  -26.2700   21.2170 C   0  0  0  0  0  2  0  0  0  0  0  0
  -18.4120  -26.3560   21.9320 C   0  0  0  0  0  2  0  0  0  0  0  0
  -19.3610  -28.4360   23.0880 C   0  0  0  0  0  0  0  0  0  0  0  0
  -19.1520  -29.6570   23.7640 C   0  0  0  0  0  3  0  0  0  0  0  0
  -17.8490  -30.1210   24.0140 C   0  0  0  0  0  3  0  0  0  0  0  0
  -16.7360  -29.3580   23.6120 C   0  0  0  0  0  3  0  0  0  0  0  0
  -16.9330  -28.1370   22.9440 C   0  0  0  0  0  3  0  0  0  0  0  0
  -25.8970  -32.3080   23.5880 C   0  0  0  0  0  3  0  0  0  0  0  0
  -26.4610  -31.5190   24.8320 C   0  0  1  0  0  0  0  0  0  0  0  0
  -25.3840  -31.1840   25.8920 C   0  0  0  0  0  1  0  0  0  0  0  0
  -27.1160  -30.1920   24.3920 C   0  0  0  0  0  1  0  0  0  0  0  0
  -27.5810  -32.3400   25.5150 C   0  0  0  0  0  1  0  0  0  0  0  0
  -25.4970  -33.6660   23.9920 N   0  0  0  0  0  0  0  0  0  0  0  0
  -25.7760  -34.7840   23.3100 C   0  0  0  0  0  0  0  0  0  0  0  0
  -26.4480  -34.7850   22.2770 O   0  0  0  0  0  0  0  0  0  0  0  0
  -24.8760  -33.7340   24.7840 H   0  0  0  0  0  0  0  0  0  0  0  0
  -23.9420  -36.4920   23.0710 C   0  0  0  0  0  1  0  0  0  0  0  0
  -25.2110  -36.1160   23.8500 C   0  0  0  0  0  3  0  0  0  0  0  0
  -27.2950  -37.0770   24.7220 C   0  0  0  0  0  1  0  0  0  0  0  0
  -26.1800  -37.2310   23.7920 N   0  0  0  0  0  0  0  0  0  0  0  0
  -25.7240  -38.1180   23.9860 H   0  0  0  0  0  0  0  0  0  0  0  0
  1  2  1  0
  3  7  1  0
  4  3  1  0
  4  5  1  0
  4  6  1  0
  5 17  1  0
  5  1  1  0
  6  2  1  0
  7 47  1  0
  7  6  1  0
  7  8  1  1
  9 17  1  0
 10 15  1  0
 11 12  1  0
 11 10  1  0
 13 12  1  0
 13 22  1  0
 13 14  1  0
 15  9  1  0
 15 14  1  0
 16  9  2  0
 17 18  1  0
 19 20  2  0
 20 39  1  0
 21 20  1  0
 21 24  1  0
 22 19  1  0
 22 23  1  0
 23 21  2  0
 24 25  1  0
 25 26  2  0
 27 30  1  0
 27 26  1  0
 28 27  2  0
 29 28  1  0
 29 24  2  0
 30 31  1  0
 31 32  1  0
 32 33  2  0
 34 33  1  0
 34 38  1  0
 35 34  2  0
 36 31  2  0
 36 35  1  0
 37 36  1  0
 39 40  1  0
 40 43  1  0
 40 42  1  0
 41 39  2  0
 44 45  1  0
 44 19  1  0
 46 44  1  0
 47 50  1  0
 47 49  1  0
 49 48  1  0
 50 51  1  0
 52 63  2  0
 53 51  1  0
 53 58  1  0
 54 62  1  0
 54 64  1  0
 55 61  1  0
 55 57  1  0
 56 62  1  0
 57 58  2  0
 57 56  1  0
 59 60  1  0
 59 53  2  0
 60 55  2  0
 61 54  1  0
 62 52  1  0
 64 66  2  0
 65 64  1  0
 67 65  1  0
 68 77  2  0
 68 73  1  0
 69 65  1  0
 69 73  1  0
 70 69  1  0
 71 72  1  0
 71 70  1  0
 72 68  1  0
 73 74  2  0
 74 75  1  0
 76 75  2  0
 77 76  1  0
 78 52  1  0
 78 83  1  0
 78 79  1  0
 79 82  1  1
 79 80  1  0
 81 79  1  0
 83 86  1  0
 84 88  1  0
 84 83  1  0
 85 84  2  0
 88 87  1  0
 90 88  1  0
 90 91  1  0
 90 89  1  0
M  ISO  4   9 100  17 100  50 101  51 101
M  END
>  <TORSDO>  (47) 
F 19

>  <SCORE>  (47) 
-13.500

>  <name>  (47) 
46

>  <ligand_id>  (47) 
46

>  <original_smiles>  (47) 
[H]c1c([H])c([H])c2c(c1[H])C([H])([H])C([H])([H])C([H])([H])C2([H])N([H])C(=O)C1([H])N(C(=O)C([H])(N([H])C(=O)C([H])(N([H])C([H])([H])[H])C([H])([H])[H])C(C([H])([H])[H])(C([H])([H])[H])C([H])([H])[H])C([H])([H])c2c([H])c(OC([H])([H])C([H])(C([H])([H])C([H])([H])[H])[N+]3([H])C([H])([H])C4([H])C([H])(N([H])C(=O)N5C([H])([H])C([H])([H])C([H])([H])C([H])(n6nc(-c7c([H])c([H])c(Oc8c([H])c([H])c(F)c([H])c8F)c([H])c7[H])c(C(=O)N([H])[H])c6N([H])[H])C5([H])[H])C([H])([H])C([H])([H])C43[H])c([H])c([H])c2C1([H])[H]

>  <smiles>  (47) 
[H]c1c([H])c([H])c2c(c1[H])C([H])([H])C([H])([H])C([H])([H])C2([H])N([H])C(=O)C1([H])N(C(=O)C([H])(N([H])C(=O)C([H])(N([H])C([H])([H])[H])C([H])([H])[H])C(C([H])([H])[H])(C([H])([H])[H])C([H])([H])[H])C([H])([H])c2c([H])c(OC([H])([H])C([H])(C([H])([H])C([H])([H])[H])[N+]3([H])C([H])([H])C4([H])C([H])(N([H])C(=O)N5C([H])([H])C([H])([H])C([H])([H])C([H])(n6nc(-c7c([H])c([H])c(Oc8c([H])c([H])c(F)c([H])c8F)c([H])c7[H])c(C(=O)N([H])[H])c6N([H])[H])C5([H])[H])C([H])([H])C([H])([H])C43[H])c([H])c([H])c2C1([H])[H]

$$$$
47:0:0
     RDKit          3D

 91 99  0  0  1  0  0  0  0  0999 V2000
  -29.0940  -19.5920   21.2160 C   0  0  0  0  0  2  0  0  0  0  0  0
  -29.7190  -20.0410   18.9410 C   0  0  0  0  0  2  0  0  0  0  0  0
  -29.2150  -21.1720   21.5030 C   0  0  0  0  0  2  0  0  0  0  0  0
  -29.8320  -21.6040   19.2440 C   0  0  0  0  0  2  0  0  0  0  0  0
  -30.0010  -18.9770   20.0880 C   0  0  0  0  0  3  0  0  0  0  0  0
  -28.9590  -22.1300   20.3470 N   0  0  2  0  0  4  0  0  0  0  0  0
  -28.0010  -21.9730   20.0680 H   0  0  0  0  0  0  0  0  0  0  0  0
  -29.0920  -23.6690   20.6800 C   0  0  0  0  0  3  0  0  0  0  0  0
  -28.1260  -24.8500   20.0320 C   0  0  0  0  0  3  0  0  0  0  0  0
  -28.3090  -26.3580   20.2800 O   0  0  0  0  0  0  0  0  0  0  0  0
  -24.6180  -31.9540   23.2220 C   0  0  0  0  0  0  0  0  0  0  0  0
  -27.2270  -27.2890   20.1920 C   0  0  0  0  0  0  0  0  0  0  0  0
  -23.4220  -30.5500   21.5840 C   0  0  0  0  0  3  0  0  0  0  0  0
  -24.8790  -28.9850   20.1570 C   0  0  0  0  0  0  0  0  0  0  0  0
  -25.9720  -30.8370   21.4170 C   0  0  0  0  0  2  0  0  0  0  0  0
  -26.0510  -29.4500   20.7670 C   0  0  0  0  0  0  0  0  0  0  0  0
  -27.2250  -28.6180   20.7660 C   0  0  0  0  0  3  0  0  0  0  0  0
  -26.0270  -26.9140   19.5400 C   0  0  0  0  0  3  0  0  0  0  0  0
  -24.8790  -27.7310   19.5260 C   0  0  0  0  0  3  0  0  0  0  0  0
  -23.6450  -29.8700   20.2060 C   0  0  0  0  0  2  0  0  0  0  0  0
  -24.6900  -31.1350   22.1290 N   0  0  0  0  0  0  0  0  0  0  0  0
  -23.5330  -32.2340   23.7520 O   0  0  0  0  0  0  0  0  0  0  0  0
  -22.7520  -29.5400   22.5470 C   0  0  0  0  0  0  0  0  0  0  0  0
  -21.4230  -29.3670   22.4240 N   0  0  0  0  0  0  0  0  0  0  0  0
  -23.4270  -28.9150   23.3690 O   0  0  0  0  0  0  0  0  0  0  0  0
  -20.9350  -29.9230   21.7360 H   0  0  0  0  0  0  0  0  0  0  0  0
  -18.0430  -28.1740   22.9420 C   0  0  0  0  0  0  0  0  0  0  0  0
  -20.6050  -28.4300   23.1970 C   0  0  0  0  0  3  0  0  0  0  0  0
  -20.7000  -26.9980   22.6220 C   0  0  0  0  0  2  0  0  0  0  0  0
  -19.5920  -26.6790   21.6130 C   0  0  0  0  0  2  0  0  0  0  0  0
  -18.2130  -26.8250   22.2630 C   0  0  0  0  0  2  0  0  0  0  0  0
  -19.1650  -28.9330   23.3670 C   0  0  0  0  0  0  0  0  0  0  0  0
  -18.9490  -30.1960   23.9630 C   0  0  0  0  0  3  0  0  0  0  0  0
  -17.6460  -30.6960   24.1390 C   0  0  0  0  0  3  0  0  0  0  0  0
  -16.5400  -29.9320   23.7300 C   0  0  0  0  0  3  0  0  0  0  0  0
  -16.7380  -28.6730   23.1360 C   0  0  0  0  0  3  0  0  0  0  0  0
  -25.8950  -32.5940   23.8470 C   0  0  0  0  0  3  0  0  0  0  0  0
  -26.4090  -31.8290   25.1290 C   0  0  1  0  0  0  0  0  0  0  0  0
  -25.3160  -31.5910   26.1960 C   0  0  0  0  0  1  0  0  0  0  0  0
  -27.0010  -30.4520   24.7490 C   0  0  0  0  0  1  0  0  0  0  0  0
  -27.5540  -32.6320   25.7920 C   0  0  0  0  0  1  0  0  0  0  0  0
  -25.5790  -33.9920   24.1760 N   0  0  0  0  0  0  0  0  0  0  0  0
  -25.9190  -35.0470   23.4230 C   0  0  0  0  0  0  0  0  0  0  0  0
  -26.5950  -34.9470   22.3980 O   0  0  0  0  0  0  0  0  0  0  0  0
  -24.9770  -34.1460   24.9710 H   0  0  0  0  0  0  0  0  0  0  0  0
  -24.2040  -36.8530   23.0540 C   0  0  0  0  0  1  0  0  0  0  0  0
  -25.4300  -36.4360   23.8820 C   0  0  0  0  0  3  0  0  0  0  0  0
  -27.5530  -37.3100   24.7550 C   0  0  0  0  0  1  0  0  0  0  0  0
  -26.4690  -37.4860   23.7920 N   0  0  0  0  0  0  0  0  0  0  0  0
  -26.0630  -38.4070   23.9360 H   0  0  0  0  0  0  0  0  0  0  0  0
  -29.7810  -17.3910   19.6150 C   0  0  0  0  0  0  0  0  0  0  0  0
  -30.7380  -14.9430   20.2930 C   0  0  0  0  0  0  0  0  0  0  0  0
  -30.5690  -12.6260   19.3680 C   0  0  0  0  0  2  0  0  0  0  0  0
  -29.6520  -12.6420   18.1230 C   0  0  0  0  0  2  0  0  0  0  0  0
  -28.1770  -12.4740   18.5420 C   0  0  0  0  0  2  0  0  0  0  0  0
  -27.7770  -13.3900   19.7300 C   0  0  0  0  0  3  0  0  0  0  0  0
  -28.8200  -13.3490   20.8690 C   0  0  0  0  0  2  0  0  0  0  0  0
  -30.1200  -13.7060   20.2850 N   0  0  0  0  0  0  0  0  0  0  0  0
  -31.9220  -15.0130   19.9520 O   0  0  0  0  0  0  0  0  0  0  0  0
  -29.9660  -16.0990   20.4580 N   0  0  0  0  0  4  0  0  0  0  0  0
  -29.1320  -15.8920   20.9840 H   0  0  0  0  0  0  0  0  0  0  0  0
  -25.3770  -13.9810   20.4230 C   0  0  0  0  0  0  0  0  0  0  0  0
  -24.3050  -13.2100   20.7890 C   0  0  0  0  0  0  0  0  0  0  0  0
  -24.7720  -11.8600   20.7850 C   0  0  0  0  0  0  0  0  0  0  0  0
  -26.4270  -13.1000   20.2100 N   0  0  0  0  0  0  0  0  0  0  0  0
  -26.0680  -11.8210   20.4930 N   0  0  0  0  0  0  0  0  0  0  0  0
  -24.0460  -10.5970   20.9820 C   0  0  0  0  0  0  0  0  0  0  0  0
  -24.4690   -9.6440   21.9350 C   0  0  0  0  0  3  0  0  0  0  0  0
  -23.7440   -8.4470   22.1240 C   0  0  0  0  0  3  0  0  0  0  0  0
  -22.5830   -8.1930   21.3550 C   0  0  0  0  0  0  0  0  0  0  0  0
  -22.1790   -9.1350   20.3920 C   0  0  0  0  0  3  0  0  0  0  0  0
  -22.9050  -10.3230   20.2020 C   0  0  0  0  0  3  0  0  0  0  0  0
  -21.8310   -7.0470   21.4490 O   0  0  0  0  0  0  0  0  0  0  0  0
  -21.7590   -6.3260   22.6120 C   0  0  0  0  0  0  0  0  0  0  0  0
  -21.2970   -6.8960   23.8190 C   0  0  0  0  0  3  0  0  0  0  0  0
  -21.1730   -6.0980   24.9730 C   0  0  0  0  0  3  0  0  0  0  0  0
  -21.5060   -4.7310   24.9240 C   0  0  0  0  0  0  0  0  0  0  0  0
  -21.9650   -4.1610   23.7230 C   0  0  0  0  0  3  0  0  0  0  0  0
  -22.0880   -4.9550   22.5700 C   0  0  0  0  0  0  0  0  0  0  0  0
  -22.5090   -4.3950   21.4100 F   0  0  0  0  0  0  0  0  0  0  0  0
  -21.3820   -3.9640   26.0310 F   0  0  0  0  0  0  0  0  0  0  0  0
  -22.9030  -13.6890   21.0300 C   0  0  0  0  0  0  0  0  0  0  0  0
  -22.1560  -13.0130   21.8930 N   0  0  0  0  0  0  0  0  0  0  0  0
  -22.4740  -14.7050   20.4860 O   0  0  0  0  0  0  0  0  0  0  0  0
  -22.5130  -12.2020   22.3780 H   0  0  0  0  0  0  0  0  0  0  0  0
  -21.2120  -13.3210   22.0800 H   0  0  0  0  0  0  0  0  0  0  0  0
  -25.5460  -15.3480   20.2310 N   0  0  0  0  0  0  0  0  0  0  0  0
  -24.7880  -16.0080   20.3580 H   0  0  0  0  0  0  0  0  0  0  0  0
  -26.4010  -15.7810   19.9030 H   0  0  0  0  0  0  0  0  0  0  0  0
  -31.6600  -17.4730   17.7740 C   0  0  0  0  0  1  0  0  0  0  0  0
  -30.1950  -17.1590   18.1350 C   0  0  0  0  0  2  0  0  0  0  0  0
  1  3  1  0
  2  4  1  0
  2  5  1  0
  4  6  1  0
  5 51  1  0
  5  1  1  0
  6  8  1  0
  6  3  1  0
  6  7  1  6
  9 10  1  0
  9  8  2  0
 11 22  2  0
 12 10  1  0
 12 17  1  0
 13 21  1  0
 13 23  1  0
 14 20  1  0
 14 16  1  0
 15 21  1  0
 16 15  1  0
 17 16  2  0
 18 12  2  0
 19 18  1  0
 19 14  2  0
 20 13  1  0
 21 11  1  0
 23 25  2  0
 24 23  1  0
 26 24  1  0
 27 36  2  0
 27 32  1  0
 28 24  1  0
 28 32  1  0
 29 28  1  0
 30 31  1  0
 30 29  1  0
 31 27  1  0
 32 33  2  0
 33 34  1  0
 35 34  2  0
 36 35  1  0
 37 11  1  0
 37 42  1  0
 37 38  1  0
 38 41  1  1
 38 39  1  0
 40 38  1  0
 42 45  1  0
 43 47  1  0
 43 42  1  0
 44 43  2  0
 47 46  1  0
 49 47  1  0
 49 50  1  0
 49 48  1  0
 51 60  2  0
 52 60  1  0
 53 58  1  0
 54 55  1  0
 54 53  1  0
 56 55  1  0
 56 65  1  0
 56 57  1  0
 58 52  1  0
 58 57  1  0
 59 52  2  0
 60 61  1  0
 62 63  2  0
 63 82  1  0
 64 63  1  0
 64 67  1  0
 65 62  1  0
 65 66  1  0
 66 64  2  0
 67 68  1  0
 68 69  2  0
 70 73  1  0
 70 69  1  0
 71 70  2  0
 72 71  1  0
 72 67  2  0
 73 74  1  0
 74 75  1  0
 75 76  2  0
 77 76  1  0
 77 81  1  0
 78 77  2  0
 79 74  2  0
 79 78  1  0
 80 79  1  0
 82 83  1  0
 83 86  1  0
 83 85  1  0
 84 82  2  0
 87 88  1  0
 87 62  1  0
 89 87  1  0
 90 91  1  0
 91 51  1  0
M  ISO  4   9 101  10 101  52 100  60 100
M  END
>  <TORSDO>  (48) 
F 20

>  <SCORE>  (48) 
-13.286

>  <name>  (48) 
47

>  <ligand_id>  (48) 
47

>  <original_smiles>  (48) 
[H]c1c([H])c([H])c2c(c1[H])C([H])([H])C([H])([H])C([H])([H])C2([H])N([H])C(=O)C1([H])N(C(=O)C([H])(N([H])C(=O)C([H])(N([H])C([H])([H])[H])C([H])([H])[H])C(C([H])([H])[H])(C([H])([H])[H])C([H])([H])[H])C([H])([H])c2c([H])c(OC([H])([H])C([H])([H])[N+]3([H])C([H])([H])C([H])([H])C([H])(C([H])(N([H])C(=O)N4C([H])([H])C([H])([H])C([H])([H])C([H])(n5nc(-c6c([H])c([H])c(Oc7c([H])c([H])c(F)c([H])c7F)c([H])c6[H])c(C(=O)N([H])[H])c5N([H])[H])C4([H])[H])C([H])([H])C([H])([H])[H])C([H])([H])C3([H])[H])c([H])c([H])c2C1([H])[H]

>  <smiles>  (48) 
[H]c1c([H])c([H])c2c(c1[H])C([H])([H])C([H])([H])C([H])([H])C2([H])N([H])C(=O)C1([H])N(C(=O)C([H])(N([H])C(=O)C([H])(N([H])C([H])([H])[H])C([H])([H])[H])C(C([H])([H])[H])(C([H])([H])[H])C([H])([H])[H])C([H])([H])c2c([H])c(OC([H])([H])C([H])([H])[N+]3([H])C([H])([H])C([H])([H])C([H])(C([H])(N([H])C(=O)N4C([H])([H])C([H])([H])C([H])([H])C([H])(n5nc(-c6c([H])c([H])c(Oc7c([H])c([H])c(F)c([H])c7F)c([H])c6[H])c(C(=O)N([H])[H])c5N([H])[H])C4([H])[H])C([H])([H])C([H])([H])[H])C([H])([H])C3([H])[H])c([H])c([H])c2C1([H])[H]

$$$$
48:0:0
     RDKit          3D

 93100  0  0  1  0  0  0  0  0999 V2000
  -29.8590  -20.4210   20.2080 N   0  0  0  0  0  4  0  0  0  0  0  0
  -30.6590  -20.6810   20.7640 H   0  0  0  0  0  0  0  0  0  0  0  0
  -30.1890  -20.4240   19.2550 H   0  0  0  0  0  0  0  0  0  0  0  0
  -28.8220  -21.6250   20.3000 C   0  0  0  0  0  2  0  0  0  0  0  0
  -29.2140  -23.2590   20.1020 C   0  0  0  0  0  3  0  0  0  0  0  0
  -28.0940  -24.5140   19.9810 C   0  0  0  0  0  3  0  0  0  0  0  0
  -28.3270  -26.0550   19.9980 O   0  0  0  0  0  0  0  0  0  0  0  0
  -24.4330  -31.5480   23.0010 C   0  0  0  0  0  0  0  0  0  0  0  0
  -27.2270  -26.9870   19.9380 C   0  0  0  0  0  0  0  0  0  0  0  0
  -23.3030  -30.1180   21.3430 C   0  0  0  0  0  3  0  0  0  0  0  0
  -24.8240  -28.6240   19.9110 C   0  0  0  0  0  0  0  0  0  0  0  0
  -25.8430  -30.4980   21.1930 C   0  0  0  0  0  2  0  0  0  0  0  0
  -25.9800  -29.1170   20.5280 C   0  0  0  0  0  0  0  0  0  0  0  0
  -27.1840  -28.3160   20.5230 C   0  0  0  0  0  3  0  0  0  0  0  0
  -26.0380  -26.5930   19.2850 C   0  0  0  0  0  3  0  0  0  0  0  0
  -24.8650  -27.3760   19.2740 C   0  0  0  0  0  3  0  0  0  0  0  0
  -23.5600  -29.4660   19.9590 C   0  0  0  0  0  2  0  0  0  0  0  0
  -24.5450  -30.7420   21.9000 N   0  0  0  0  0  0  0  0  0  0  0  0
  -23.3340  -31.7800   23.5260 O   0  0  0  0  0  0  0  0  0  0  0  0
  -22.6640  -29.0720   22.2900 C   0  0  0  0  0  0  0  0  0  0  0  0
  -21.3550  -28.8120   22.1240 N   0  0  0  0  0  0  0  0  0  0  0  0
  -23.3500  -28.4980   23.1400 O   0  0  0  0  0  0  0  0  0  0  0  0
  -20.8550  -29.3310   21.4160 H   0  0  0  0  0  0  0  0  0  0  0  0
  -18.0570  -27.3590   22.4980 C   0  0  0  0  0  0  0  0  0  0  0  0
  -20.5730  -27.8280   22.8770 C   0  0  0  0  0  3  0  0  0  0  0  0
  -20.8130  -26.3970   22.3400 C   0  0  0  0  0  2  0  0  0  0  0  0
  -19.7890  -25.9690   21.2840 C   0  0  0  0  0  2  0  0  0  0  0  0
  -18.3710  -26.0160   21.8600 C   0  0  0  0  0  2  0  0  0  0  0  0
  -19.0920  -28.2160   22.9610 C   0  0  0  0  0  0  0  0  0  0  0  0
  -18.7450  -29.4670   23.5180 C   0  0  0  0  0  3  0  0  0  0  0  0
  -17.3980  -29.8650   23.6140 C   0  0  0  0  0  3  0  0  0  0  0  0
  -16.3780  -29.0060   23.1670 C   0  0  0  0  0  3  0  0  0  0  0  0
  -16.7090  -27.7560   22.6150 C   0  0  0  0  0  3  0  0  0  0  0  0
  -25.6790  -32.2320   23.6410 C   0  0  0  0  0  3  0  0  0  0  0  0
  -25.2970  -33.6040   24.0100 N   0  0  0  0  0  0  0  0  0  0  0  0
  -25.5700  -34.6950   23.2830 C   0  0  0  0  0  0  0  0  0  0  0  0
  -26.2380  -34.6550   22.2450 O   0  0  0  0  0  0  0  0  0  0  0  0
  -24.7010  -33.7040   24.8190 H   0  0  0  0  0  0  0  0  0  0  0  0
  -23.7440  -36.4050   23.0040 C   0  0  0  0  0  1  0  0  0  0  0  0
  -25.0190  -36.0440   23.7840 C   0  0  0  0  0  3  0  0  0  0  0  0
  -27.1160  -37.0240   24.6050 C   0  0  0  0  0  1  0  0  0  0  0  0
  -25.9920  -37.1550   23.6830 N   0  0  0  0  0  0  0  0  0  0  0  0
  -25.5390  -38.0470   23.8580 H   0  0  0  0  0  0  0  0  0  0  0  0
  -26.2330  -31.4580   24.9020 C   0  0  1  0  0  0  0  0  0  0  0  0
  -25.1530  -31.1450   25.9630 C   0  0  0  0  0  1  0  0  0  0  0  0
  -26.8810  -30.1190   24.4830 C   0  0  0  0  0  1  0  0  0  0  0  0
  -27.3440  -32.2910   25.5810 C   0  0  0  0  0  1  0  0  0  0  0  0
  -29.5140  -18.8990   20.5400 C   0  0  0  0  0  3  0  0  0  0  0  0
  -29.4390  -18.6550   22.0690 C   0  0  0  0  0  2  0  0  0  0  0  0
  -30.8010  -18.4760   22.7780 C   0  0  0  0  0  2  0  0  0  0  0  0
  -30.6500  -18.1550   24.2110 N   0  0  0  0  0  4  0  0  0  0  0  0
  -30.1770  -18.8920   24.7030 H   0  0  0  0  0  0  0  0  0  0  0  0
  -31.5560  -18.0390   24.6320 H   0  0  0  0  0  0  0  0  0  0  0  0
  -30.1390  -17.3000   24.3430 H   0  0  0  0  0  0  0  0  0  0  0  0
  -30.3060  -17.6020   19.7950 C   0  0  0  0  0  2  0  0  0  0  0  0
  -30.6200  -14.8760   19.7190 C   0  0  0  0  0  0  0  0  0  0  0  0
  -30.3590  -12.5310   18.8010 C   0  0  0  0  0  2  0  0  0  0  0  0
  -29.3340  -12.5190   17.6440 C   0  0  0  0  0  2  0  0  0  0  0  0
  -27.9020  -12.3530   18.1870 C   0  0  0  0  0  2  0  0  0  0  0  0
  -27.6130  -13.2860   19.3910 C   0  0  0  0  0  3  0  0  0  0  0  0
  -28.7530  -13.2680   20.4330 C   0  0  0  0  0  2  0  0  0  0  0  0
  -29.9830  -13.6390   19.7240 N   0  0  0  0  0  0  0  0  0  0  0  0
  -31.7980  -14.9100   19.3500 O   0  0  0  0  0  0  0  0  0  0  0  0
  -29.8930  -16.0800   19.9190 N   0  0  0  0  0  0  0  0  0  0  0  0
  -28.9250  -15.9240   20.1540 H   0  0  0  0  0  0  0  0  0  0  0  0
  -25.3480  -13.9290   20.3960 C   0  0  0  0  0  0  0  0  0  0  0  0
  -24.2780  -13.1830   20.8080 C   0  0  0  0  0  0  0  0  0  0  0  0
  -24.6570  -11.8170   20.6350 C   0  0  0  0  0  0  0  0  0  0  0  0
  -26.3120  -13.0190   19.9930 N   0  0  0  0  0  0  0  0  0  0  0  0
  -25.9110  -11.7380   20.2010 N   0  0  0  0  0  0  0  0  0  0  0  0
  -23.8770  -10.5830   20.8000 C   0  0  0  0  0  0  0  0  0  0  0  0
  -24.2600   -9.5830   21.7210 C   0  0  0  0  0  3  0  0  0  0  0  0
  -23.4820   -8.4160   21.8750 C   0  0  0  0  0  3  0  0  0  0  0  0
  -22.3050   -8.2410   21.1080 C   0  0  0  0  0  0  0  0  0  0  0  0
  -21.9400   -9.2280   20.1770 C   0  0  0  0  0  3  0  0  0  0  0  0
  -22.7190  -10.3870   20.0210 C   0  0  0  0  0  3  0  0  0  0  0  0
  -21.5000   -7.1290   21.1740 O   0  0  0  0  0  0  0  0  0  0  0  0
  -21.3150   -6.4430   22.3470 C   0  0  0  0  0  0  0  0  0  0  0  0
  -20.8150   -7.0730   23.5080 C   0  0  0  0  0  3  0  0  0  0  0  0
  -20.5740   -6.3150   24.6710 C   0  0  0  0  0  3  0  0  0  0  0  0
  -20.8210   -4.9290   24.6750 C   0  0  0  0  0  0  0  0  0  0  0  0
  -21.3120   -4.3000   23.5170 C   0  0  0  0  0  3  0  0  0  0  0  0
  -21.5550   -5.0530   22.3570 C   0  0  0  0  0  0  0  0  0  0  0  0
  -22.0080   -4.4380   21.2380 F   0  0  0  0  0  0  0  0  0  0  0  0
  -20.5820   -4.2010   25.7900 F   0  0  0  0  0  0  0  0  0  0  0  0
  -22.9410  -13.7110   21.2400 C   0  0  0  0  0  0  0  0  0  0  0  0
  -22.2630  -13.0030   22.1350 N   0  0  0  0  0  0  0  0  0  0  0  0
  -22.5130  -14.7840   20.8170 O   0  0  0  0  0  0  0  0  0  0  0  0
  -22.6250  -12.1330   22.4970 H   0  0  0  0  0  0  0  0  0  0  0  0
  -21.3690  -13.3370   22.4660 H   0  0  0  0  0  0  0  0  0  0  0  0
  -25.5720  -15.2990   20.3000 N   0  0  0  0  0  0  0  0  0  0  0  0
  -24.8250  -15.9610   20.4770 H   0  0  0  0  0  0  0  0  0  0  0  0
  -26.3500  -15.7070   19.8010 H   0  0  0  0  0  0  0  0  0  0  0  0
  1  4  1  0
  1 48  1  0
  1  2  1  0
  3  1  1  0
  5  4  1  0
  6  7  1  0
  6  5  2  0
  8 19  2  0
  9  7  1  0
  9 14  1  0
 10 18  1  0
 10 20  1  0
 11 17  1  0
 11 13  1  0
 12 18  1  0
 13 12  1  0
 14 13  2  0
 15  9  2  0
 16 15  1  0
 16 11  2  0
 17 10  1  0
 18  8  1  0
 20 22  2  0
 21 20  1  0
 23 21  1  0
 24 33  2  0
 24 29  1  0
 25 21  1  0
 25 29  1  0
 26 25  1  0
 27 28  1  0
 27 26  1  0
 28 24  1  0
 29 30  2  0
 30 31  1  0
 32 31  2  0
 33 32  1  0
 34  8  1  0
 34 35  1  0
 34 44  1  0
 35 38  1  0
 36 40  1  0
 36 35  1  0
 37 36  2  0
 40 39  1  0
 42 40  1  0
 42 43  1  0
 42 41  1  0
 44 47  1  1
 44 45  1  0
 46 44  1  0
 48 55  1  0
 48 49  1  0
 49 50  1  0
 50 51  1  0
 51 54  1  0
 51 53  1  0
 51 52  1  0
 55 64  1  0
 56 62  1  0
 56 64  1  0
 57 62  1  0
 58 59  1  0
 58 57  1  0
 60 59  1  0
 60 69  1  0
 60 61  1  0
 62 61  1  0
 63 56  2  0
 64 65  1  0
 66 67  2  0
 67 86  1  0
 68 71  1  0
 68 67  1  0
 69 70  1  0
 69 66  1  0
 70 68  2  0
 71 72  1  0
 72 73  2  0
 74 77  1  0
 74 73  1  0
 75 74  2  0
 76 75  1  0
 76 71  2  0
 77 78  1  0
 78 83  2  0
 78 79  1  0
 79 80  2  0
 80 81  1  0
 81 85  1  0
 82 81  2  0
 83 82  1  0
 84 83  1  0
 86 87  1  0
 87 90  1  0
 87 89  1  0
 88 86  2  0
 91 66  1  0
 91 92  1  0
 93 91  1  0
M  ISO  4   6 101   7 101  56 100  64 100
M  END
>  <TORSDO>  (49) 
F 24

>  <SCORE>  (49) 
-9.974

>  <name>  (49) 
48

>  <ligand_id>  (49) 
48

>  <original_smiles>  (49) 
[H]c1c([H])c([H])c2c(c1[H])C([H])([H])C([H])([H])C([H])([H])C2([H])N([H])C(=O)C1([H])N(C(=O)C([H])(N([H])C(=O)C([H])(N([H])C([H])([H])[H])C([H])([H])[H])C(C([H])([H])[H])(C([H])([H])[H])C([H])([H])[H])C([H])([H])c2c([H])c(OC([H])([H])C([H])([H])C([H])([H])[N+]([H])([H])C([H])(C([H])([H])N([H])C(=O)N3C([H])([H])C([H])([H])C([H])([H])C([H])(n4nc(-c5c([H])c([H])c(Oc6c([H])c([H])c(F)c([H])c6F)c([H])c5[H])c(C(=O)N([H])[H])c4N([H])[H])C3([H])[H])C([H])([H])C([H])([H])[N+]([H])([H])[H])c([H])c([H])c2C1([H])[H]

>  <smiles>  (49) 
[H]c1c([H])c([H])c2c(c1[H])C([H])([H])C([H])([H])C([H])([H])C2([H])N([H])C(=O)C1([H])N(C(=O)C([H])(N([H])C(=O)C([H])(N([H])C([H])([H])[H])C([H])([H])[H])C(C([H])([H])[H])(C([H])([H])[H])C([H])([H])[H])C([H])([H])c2c([H])c(OC([H])([H])C([H])([H])C([H])([H])[N+]([H])([H])C([H])(C([H])([H])N([H])C(=O)N3C([H])([H])C([H])([H])C([H])([H])C([H])(n4nc(-c5c([H])c([H])c(Oc6c([H])c([H])c(F)c([H])c6F)c([H])c5[H])c(C(=O)N([H])[H])c4N([H])[H])C3([H])[H])C([H])([H])C([H])([H])[N+]([H])([H])[H])c([H])c([H])c2C1([H])[H]

$$$$
49:0:0
     RDKit          3D

 89 97  0  0  1  0  0  0  0  0999 V2000
  -29.4820  -22.1250   21.3070 C   0  0  0  0  0  2  0  0  0  0  0  0
  -29.3860  -20.5090   21.2310 C   0  0  0  0  0  2  0  0  0  0  0  0
  -29.8190  -21.4300   19.1670 C   0  0  0  0  0  2  0  0  0  0  0  0
  -29.1700  -22.8220   19.9460 C   0  0  0  0  0  3  0  0  0  0  0  0
  -29.5010  -19.8480   19.7870 C   0  0  2  0  0  0  0  0  0  0  0  0
  -27.4250  -18.2690   20.1290 C   0  0  0  0  0  1  0  0  0  0  0  0
  -27.0290  -20.4430   19.0060 C   0  0  0  0  0  1  0  0  0  0  0  0
  -28.0960  -19.3610   19.2650 C   0  0  0  0  0  3  0  0  0  0  0  0
  -29.4100  -24.5930   19.6360 C   0  0  0  0  0  2  0  0  0  0  0  0
  -29.1110  -26.0660   20.3190 O   0  0  0  0  0  0  0  0  0  0  0  0
  -24.9210  -31.5910   23.2110 C   0  0  0  0  0  0  0  0  0  0  0  0
  -28.0310  -27.0820   20.1530 C   0  0  0  0  0  0  0  0  0  0  0  0
  -23.9480  -30.2090   21.4200 C   0  0  0  0  0  3  0  0  0  0  0  0
  -25.6080  -28.7910   20.0250 C   0  0  0  0  0  0  0  0  0  0  0  0
  -26.4950  -30.6060   21.4760 C   0  0  0  0  0  2  0  0  0  0  0  0
  -26.7120  -29.2440   20.7570 C   0  0  0  0  0  0  0  0  0  0  0  0
  -27.9130  -28.4060   20.8030 C   0  0  0  0  0  3  0  0  0  0  0  0
  -26.8980  -26.7830   19.3660 C   0  0  0  0  0  3  0  0  0  0  0  0
  -25.7270  -27.5860   19.3110 C   0  0  0  0  0  3  0  0  0  0  0  0
  -24.3230  -29.6170   20.0320 C   0  0  0  0  0  2  0  0  0  0  0  0
  -25.1370  -30.8290   22.0920 N   0  0  0  0  0  0  0  0  0  0  0  0
  -23.7810  -31.7760   23.6660 O   0  0  0  0  0  0  0  0  0  0  0  0
  -23.2640  -29.1180   22.2830 C   0  0  0  0  0  0  0  0  0  0  0  0
  -21.9530  -28.8940   22.0770 N   0  0  0  0  0  0  0  0  0  0  0  0
  -23.9210  -28.4740   23.1060 O   0  0  0  0  0  0  0  0  0  0  0  0
  -21.4720  -29.4690   21.3990 H   0  0  0  0  0  0  0  0  0  0  0  0
  -18.6080  -27.5220   22.3810 C   0  0  0  0  0  0  0  0  0  0  0  0
  -21.1460  -27.8630   22.7410 C   0  0  0  0  0  3  0  0  0  0  0  0
  -21.3210  -26.4900   22.0510 C   0  0  0  0  0  2  0  0  0  0  0  0
  -20.2600  -26.2130   20.9820 C   0  0  0  0  0  2  0  0  0  0  0  0
  -18.8590  -26.2440   21.5980 C   0  0  0  0  0  2  0  0  0  0  0  0
  -19.6820  -28.2900   22.9050 C   0  0  0  0  0  0  0  0  0  0  0  0
  -19.3930  -29.4830   23.6000 C   0  0  0  0  0  3  0  0  0  0  0  0
  -18.0630  -29.9130   23.7710 C   0  0  0  0  0  3  0  0  0  0  0  0
  -17.0030  -29.1440   23.2600 C   0  0  0  0  0  3  0  0  0  0  0  0
  -17.2770  -27.9480   22.5720 C   0  0  0  0  0  3  0  0  0  0  0  0
  -26.0960  -32.2830   23.9670 C   0  0  0  0  0  3  0  0  0  0  0  0
  -26.5300  -31.5130   25.2760 C   0  0  1  0  0  0  0  0  0  0  0  0
  -25.3530  -31.1960   26.2290 C   0  0  0  0  0  1  0  0  0  0  0  0
  -27.2210  -30.1760   24.9270 C   0  0  0  0  0  1  0  0  0  0  0  0
  -27.5710  -32.3510   26.0550 C   0  0  0  0  0  1  0  0  0  0  0  0
  -25.6750  -33.6550   24.3060 N   0  0  0  0  0  0  0  0  0  0  0  0
  -25.9970  -34.7520   23.6070 C   0  0  0  0  0  0  0  0  0  0  0  0
  -26.7430  -34.7180   22.6250 O   0  0  0  0  0  0  0  0  0  0  0  0
  -25.0160  -33.7510   25.0650 H   0  0  0  0  0  0  0  0  0  0  0  0
  -24.1890  -36.4530   23.1930 C   0  0  0  0  0  1  0  0  0  0  0  0
  -25.4020  -36.0990   24.0680 C   0  0  0  0  0  3  0  0  0  0  0  0
  -27.4270  -37.0870   25.0460 C   0  0  0  0  0  1  0  0  0  0  0  0
  -26.3750  -37.2140   24.0410 N   0  0  0  0  0  0  0  0  0  0  0  0
  -25.9060  -38.1060   24.1830 H   0  0  0  0  0  0  0  0  0  0  0  0
  -30.5340  -18.3570   19.6640 C   0  0  0  0  0  2  0  0  0  0  0  0
  -31.0210  -15.4420   19.7900 C   0  0  0  0  0  0  0  0  0  0  0  0
  -30.8990  -12.9880   18.9570 C   0  0  0  0  0  2  0  0  0  0  0  0
  -29.9120  -12.7890   17.7800 C   0  0  0  0  0  2  0  0  0  0  0  0
  -28.4800  -12.5720   18.3010 C   0  0  0  0  0  2  0  0  0  0  0  0
  -28.1140  -13.5690   19.4290 C   0  0  0  0  0  3  0  0  0  0  0  0
  -29.2200  -13.6870   20.4970 C   0  0  0  0  0  2  0  0  0  0  0  0
  -30.4290  -14.1490   19.8010 N   0  0  0  0  0  0  0  0  0  0  0  0
  -32.2190  -15.4220   19.4710 O   0  0  0  0  0  0  0  0  0  0  0  0
  -30.2840  -16.7200   19.9370 N   0  0  0  0  0  0  0  0  0  0  0  0
  -29.3260  -16.5350   20.1970 H   0  0  0  0  0  0  0  0  0  0  0  0
  -25.8390  -14.2170   20.3810 C   0  0  0  0  0  0  0  0  0  0  0  0
  -24.7570  -13.4800   20.7730 C   0  0  0  0  0  0  0  0  0  0  0  0
  -25.1350  -12.1110   20.6230 C   0  0  0  0  0  0  0  0  0  0  0  0
  -26.8060  -13.3010   20.0080 N   0  0  0  0  0  0  0  0  0  0  0  0
  -26.3980  -12.0220   20.2210 N   0  0  0  0  0  0  0  0  0  0  0  0
  -24.3430  -10.8820   20.7780 C   0  0  0  0  0  0  0  0  0  0  0  0
  -24.7340   -9.8600   21.6690 C   0  0  0  0  0  3  0  0  0  0  0  0
  -23.9440   -8.6990   21.8170 C   0  0  0  0  0  3  0  0  0  0  0  0
  -22.7480   -8.5540   21.0750 C   0  0  0  0  0  0  0  0  0  0  0  0
  -22.3740   -9.5660   20.1730 C   0  0  0  0  0  3  0  0  0  0  0  0
  -23.1660  -10.7170   20.0230 C   0  0  0  0  0  3  0  0  0  0  0  0
  -21.9300   -7.4520   21.1380 O   0  0  0  0  0  0  0  0  0  0  0  0
  -21.7870   -6.7260   22.2930 C   0  0  0  0  0  0  0  0  0  0  0  0
  -21.3550   -7.3210   23.4980 C   0  0  0  0  0  3  0  0  0  0  0  0
  -21.1540   -6.5270   24.6440 C   0  0  0  0  0  3  0  0  0  0  0  0
  -21.3740   -5.1370   24.5840 C   0  0  0  0  0  0  0  0  0  0  0  0
  -21.7980   -4.5410   23.3840 C   0  0  0  0  0  3  0  0  0  0  0  0
  -21.9990   -5.3340   22.2410 C   0  0  0  0  0  0  0  0  0  0  0  0
  -22.3890   -4.7520   21.0810 F   0  0  0  0  0  0  0  0  0  0  0  0
  -21.1720   -4.3710   25.6830 F   0  0  0  0  0  0  0  0  0  0  0  0
  -23.4130  -14.0190   21.1610 C   0  0  0  0  0  0  0  0  0  0  0  0
  -22.7050  -13.3250   22.0460 N   0  0  0  0  0  0  0  0  0  0  0  0
  -23.0030  -15.0900   20.7170 O   0  0  0  0  0  0  0  0  0  0  0  0
  -23.0540  -12.4580   22.4300 H   0  0  0  0  0  0  0  0  0  0  0  0
  -21.8030  -13.6680   22.3450 H   0  0  0  0  0  0  0  0  0  0  0  0
  -26.0720  -15.5860   20.2770 N   0  0  0  0  0  0  0  0  0  0  0  0
  -25.3440  -16.2630   20.4660 H   0  0  0  0  0  0  0  0  0  0  0  0
  -26.8890  -15.9930   19.8430 H   0  0  0  0  0  0  0  0  0  0  0  0
  2  1  1  0
  3  5  1  0
  3  4  1  0
  4  9  1  0
  4  1  1  0
  5 51  1  1
  5  2  1  0
  7  8  1  0
  8  5  1  0
  8  6  1  0
  9 10  1  0
 11 22  2  0
 12 10  1  0
 12 17  1  0
 13 21  1  0
 13 23  1  0
 14 20  1  0
 14 16  1  0
 15 21  1  0
 16 17  2  0
 16 15  1  0
 18 12  2  0
 19 18  1  0
 19 14  2  0
 20 13  1  0
 21 11  1  0
 23 25  2  0
 24 23  1  0
 26 24  1  0
 27 36  2  0
 27 32  1  0
 28 24  1  0
 28 32  1  0
 29 28  1  0
 30 31  1  0
 30 29  1  0
 31 27  1  0
 32 33  2  0
 33 34  1  0
 35 34  2  0
 36 35  1  0
 37 11  1  0
 37 42  1  0
 37 38  1  0
 38 41  1  1
 38 39  1  0
 40 38  1  0
 42 45  1  0
 43 47  1  0
 43 42  1  0
 44 43  2  0
 47 46  1  0
 49 47  1  0
 49 50  1  0
 49 48  1  0
 51 60  1  0
 52 58  1  0
 52 60  1  0
 53 58  1  0
 54 55  1  0
 54 53  1  0
 56 55  1  0
 56 65  1  0
 56 57  1  0
 58 57  1  0
 59 52  2  0
 60 61  1  0
 62 63  2  0
 63 82  1  0
 64 63  1  0
 64 67  1  0
 65 66  1  0
 65 62  1  0
 66 64  2  0
 67 68  1  0
 68 69  2  0
 70 73  1  0
 70 69  1  0
 71 70  2  0
 72 71  1  0
 72 67  2  0
 73 74  1  0
 74 75  1  0
 75 76  2  0
 77 76  1  0
 77 81  1  0
 78 77  2  0
 79 74  2  0
 79 78  1  0
 80 79  1  0
 82 83  1  0
 83 86  1  0
 83 85  1  0
 84 82  2  0
 87 62  1  0
 87 88  1  0
 89 87  1  0
M  ISO  4   9 101  10 101  52 100  60 100
M  END
>  <TORSDO>  (50) 
F 19

>  <SCORE>  (50) 
-14.579

>  <name>  (50) 
49

>  <ligand_id>  (50) 
49

>  <original_smiles>  (50) 
[H]c1c([H])c([H])c2c(c1[H])C([H])([H])C([H])([H])C([H])([H])C2([H])N([H])C(=O)C1([H])N(C(=O)C([H])(N([H])C(=O)C([H])(N([H])C([H])([H])[H])C([H])([H])[H])C(C([H])([H])[H])(C([H])([H])[H])C([H])([H])[H])C([H])([H])c2c([H])c(OC([H])([H])C3([H])C([H])([H])C([H])([H])C(C([H])([H])N([H])C(=O)N4C([H])([H])C([H])([H])C([H])([H])C([H])(n5nc(-c6c([H])c([H])c(Oc7c([H])c([H])c(F)c([H])c7F)c([H])c6[H])c(C(=O)N([H])[H])c5N([H])[H])C4([H])[H])(C([H])(C([H])([H])[H])C([H])([H])[H])C3([H])[H])c([H])c([H])c2C1([H])[H]

>  <smiles>  (50) 
[H]c1c([H])c([H])c2c(c1[H])C([H])([H])C([H])([H])C([H])([H])C2([H])N([H])C(=O)C1([H])N(C(=O)C([H])(N([H])C(=O)C([H])(N([H])C([H])([H])[H])C([H])([H])[H])C(C([H])([H])[H])(C([H])([H])[H])C([H])([H])[H])C([H])([H])c2c([H])c(OC([H])([H])C3([H])C([H])([H])C([H])([H])C(C([H])([H])N([H])C(=O)N4C([H])([H])C([H])([H])C([H])([H])C([H])(n5nc(-c6c([H])c([H])c(Oc7c([H])c([H])c(F)c([H])c7F)c([H])c6[H])c(C(=O)N([H])[H])c5N([H])[H])C4([H])[H])(C([H])(C([H])([H])[H])C([H])([H])[H])C3([H])[H])c([H])c([H])c2C1([H])[H]

$$$$
50:0:0
     RDKit          3D

 98107  0  0  1  0  0  0  0  0999 V2000
  -30.3530  -19.9950   23.7460 C   0  0  0  0  0  2  0  0  0  0  0  0
  -31.6530  -22.0680   24.2810 C   0  0  0  0  0  2  0  0  0  0  0  0
  -31.2790  -21.5220   21.8740 C   0  0  0  0  0  2  0  0  0  0  0  0
  -29.3110  -22.3090   24.3520 C   0  0  0  0  0  2  0  0  0  0  0  0
  -30.4120  -21.2670   24.6430 C   0  0  0  0  0  3  0  0  0  0  0  0
  -30.3860  -20.2970   22.2190 C   0  0  0  0  0  3  0  0  0  0  0  0
  -31.1970  -22.6400   22.9360 C   0  0  0  0  0  3  0  0  0  0  0  0
  -29.7760  -23.0350   23.1390 N   0  0  2  0  0  4  0  0  0  0  0  0
  -29.2390  -22.6390   22.3840 H   0  0  0  0  0  0  0  0  0  0  0  0
  -30.1500  -18.0560   21.1100 C   0  0  0  0  0  0  0  0  0  0  0  0
  -30.8500  -19.1490   21.4430 N   0  0  0  0  0  0  0  0  0  0  0  0
  -28.9890  -17.8570   21.4690 O   0  0  0  0  0  0  0  0  0  0  0  0
  -31.7810  -19.2170   21.0500 H   0  0  0  0  0  0  0  0  0  0  0  0
  -30.8700  -17.0430   20.2160 C   0  0  0  0  0  3  0  0  0  0  0  0
  -31.1060  -14.5880   20.0460 C   0  0  0  0  0  0  0  0  0  0  0  0
  -30.6730  -12.4900   18.8640 C   0  0  0  0  0  2  0  0  0  0  0  0
  -29.6750  -12.7840   17.7270 C   0  0  0  0  0  2  0  0  0  0  0  0
  -28.2240  -12.6610   18.2350 C   0  0  0  0  0  2  0  0  0  0  0  0
  -27.9770  -13.4400   19.5550 C   0  0  0  0  0  3  0  0  0  0  0  0
  -29.0960  -13.1640   20.5880 C   0  0  0  0  0  2  0  0  0  0  0  0
  -30.3890  -13.4400   19.9450 N   0  0  0  0  0  0  0  0  0  0  0  0
  -32.2370  -14.7180   19.5750 O   0  0  0  0  0  0  0  0  0  0  0  0
  -30.4190  -15.6660   20.4440 N   0  0  0  0  0  0  0  0  0  0  0  0
  -29.4900  -15.5500   20.8210 H   0  0  0  0  0  0  0  0  0  0  0  0
  -25.6340  -14.0440   20.4320 C   0  0  0  0  0  0  0  0  0  0  0  0
  -24.5760  -13.2660   20.8240 C   0  0  0  0  0  0  0  0  0  0  0  0
  -25.0160  -11.9110   20.7010 C   0  0  0  0  0  0  0  0  0  0  0  0
  -26.6510  -13.1600   20.1000 N   0  0  0  0  0  0  0  0  0  0  0  0
  -26.2850  -11.8720   20.3170 N   0  0  0  0  0  0  0  0  0  0  0  0
  -24.2810  -10.6520   20.8700 C   0  0  0  0  0  0  0  0  0  0  0  0
  -24.7030   -9.6670   21.7910 C   0  0  0  0  0  3  0  0  0  0  0  0
  -23.9690   -8.4710   21.9480 C   0  0  0  0  0  3  0  0  0  0  0  0
  -22.7980   -8.2520   21.1830 C   0  0  0  0  0  0  0  0  0  0  0  0
  -22.3960   -9.2240   20.2510 C   0  0  0  0  0  3  0  0  0  0  0  0
  -23.1310  -10.4110   20.0910 C   0  0  0  0  0  3  0  0  0  0  0  0
  -22.0350   -7.1090   21.2510 O   0  0  0  0  0  0  0  0  0  0  0  0
  -21.9020   -6.4020   22.4180 C   0  0  0  0  0  0  0  0  0  0  0  0
  -21.3520   -6.9810   23.5830 C   0  0  0  0  0  3  0  0  0  0  0  0
  -21.1700   -6.1970   24.7400 C   0  0  0  0  0  3  0  0  0  0  0  0
  -21.5270   -4.8350   24.7330 C   0  0  0  0  0  0  0  0  0  0  0  0
  -22.0690   -4.2550   23.5730 C   0  0  0  0  0  3  0  0  0  0  0  0
  -22.2550   -5.0370   22.4190 C   0  0  0  0  0  0  0  0  0  0  0  0
  -22.7580   -4.4680   21.2960 F   0  0  0  0  0  0  0  0  0  0  0  0
  -21.3450   -4.0800   25.8420 F   0  0  0  0  0  0  0  0  0  0  0  0
  -23.2040  -13.7470   21.2010 C   0  0  0  0  0  0  0  0  0  0  0  0
  -22.5270  -13.0310   22.0910 N   0  0  0  0  0  0  0  0  0  0  0  0
  -22.7440  -14.7910   20.7400 O   0  0  0  0  0  0  0  0  0  0  0  0
  -22.9110  -12.1830   22.4830 H   0  0  0  0  0  0  0  0  0  0  0  0
  -21.6090  -13.3350   22.3850 H   0  0  0  0  0  0  0  0  0  0  0  0
  -25.8050  -15.4180   20.3120 N   0  0  0  0  0  0  0  0  0  0  0  0
  -25.0590  -16.0740   20.5110 H   0  0  0  0  0  0  0  0  0  0  0  0
  -26.6440  -15.8700   19.9700 H   0  0  0  0  0  0  0  0  0  0  0  0
  -29.5020  -17.2230   18.0010 C   0  0  0  0  0  1  0  0  0  0  0  0
  -30.8550  -17.4070   18.7080 C   0  0  0  0  0  2  0  0  0  0  0  0
  -29.5200  -24.5020   23.0860 C   0  0  0  0  0  2  0  0  0  0  0  0
  -29.2540  -24.9730   21.6330 C   0  0  0  0  0  2  0  0  0  0  0  0
  -29.2070  -26.5040   21.4310 C   0  0  0  0  0  2  0  0  0  0  0  0
  -28.6560  -26.7890   20.1370 O   0  0  0  0  0  0  0  0  0  0  0  0
  -24.5620  -31.7420   23.2030 C   0  0  0  0  0  0  0  0  0  0  0  0
  -27.4730  -27.4920   20.1310 C   0  0  0  0  0  0  0  0  0  0  0  0
  -23.4570  -30.3290   21.4930 C   0  0  0  0  0  3  0  0  0  0  0  0
  -25.0110  -28.8800   20.0800 C   0  0  0  0  0  0  0  0  0  0  0  0
  -25.9630  -30.8000   21.3710 C   0  0  0  0  0  2  0  0  0  0  0  0
  -26.1220  -29.4430   20.7170 C   0  0  0  0  0  0  0  0  0  0  0  0
  -27.3530  -28.7550   20.7480 C   0  0  0  0  0  3  0  0  0  0  0  0
  -26.3560  -26.9430   19.4650 C   0  0  0  0  0  3  0  0  0  0  0  0
  -25.1190  -27.6240   19.4510 C   0  0  0  0  0  3  0  0  0  0  0  0
  -23.7320  -29.6870   20.1040 C   0  0  0  0  0  2  0  0  0  0  0  0
  -24.6760  -30.9700   22.0820 N   0  0  0  0  0  0  0  0  0  0  0  0
  -23.4580  -31.9630   23.7180 O   0  0  0  0  0  0  0  0  0  0  0  0
  -22.8150  -29.2670   22.4130 C   0  0  0  0  0  0  0  0  0  0  0  0
  -21.4950  -29.0770   22.2670 N   0  0  0  0  0  0  0  0  0  0  0  0
  -23.4980  -28.6170   23.2100 O   0  0  0  0  0  0  0  0  0  0  0  0
  -21.0080  -29.6540   21.5950 H   0  0  0  0  0  0  0  0  0  0  0  0
  -18.1270  -27.8440   22.7100 C   0  0  0  0  0  0  0  0  0  0  0  0
  -20.6820  -28.1020   22.9940 C   0  0  0  0  0  3  0  0  0  0  0  0
  -20.7950  -26.7000   22.3530 C   0  0  0  0  0  2  0  0  0  0  0  0
  -19.6940  -26.4180   21.3270 C   0  0  0  0  0  2  0  0  0  0  0  0
  -18.3100  -26.5270   21.9760 C   0  0  0  0  0  2  0  0  0  0  0  0
  -19.2410  -28.5900   23.1750 C   0  0  0  0  0  0  0  0  0  0  0  0
  -19.0180  -29.8250   23.8210 C   0  0  0  0  0  3  0  0  0  0  0  0
  -17.7130  -30.3140   24.0090 C   0  0  0  0  0  3  0  0  0  0  0  0
  -16.6110  -29.5620   23.5630 C   0  0  0  0  0  3  0  0  0  0  0  0
  -16.8180  -28.3290   22.9180 C   0  0  0  0  0  3  0  0  0  0  0  0
  -25.8100  -32.3980   23.8730 C   0  0  0  0  0  3  0  0  0  0  0  0
  -25.4600  -33.7890   24.1890 N   0  0  0  0  0  0  0  0  0  0  0  0
  -25.7920  -34.8460   23.4360 C   0  0  0  0  0  0  0  0  0  0  0  0
  -26.4990  -34.7540   22.4290 O   0  0  0  0  0  0  0  0  0  0  0  0
  -24.8300  -33.9290   24.9650 H   0  0  0  0  0  0  0  0  0  0  0  0
  -24.0350  -36.5930   23.0170 C   0  0  0  0  0  1  0  0  0  0  0  0
  -25.2590  -36.2240   23.8680 C   0  0  0  0  0  3  0  0  0  0  0  0
  -27.3400  -37.1690   24.7700 C   0  0  0  0  0  1  0  0  0  0  0  0
  -26.2710  -37.2990   23.7810 N   0  0  0  0  0  0  0  0  0  0  0  0
  -25.8410  -38.2100   23.9040 H   0  0  0  0  0  0  0  0  0  0  0  0
  -26.2940  -31.6360   25.1660 C   0  0  1  0  0  0  0  0  0  0  0  0
  -25.1650  -31.3750   26.1890 C   0  0  0  0  0  1  0  0  0  0  0  0
  -26.9170  -30.2710   24.7930 C   0  0  0  0  0  1  0  0  0  0  0  0
  -27.4030  -32.4520   25.8720 C   0  0  0  0  0  1  0  0  0  0  0  0
  2  5  1  0
  3  6  1  0
  4  5  1  0
  5  1  1  0
  6 11  1  0
  6  1  1  0
  7  3  1  0
  7  8  1  0
  7  2  1  0
  8  4  1  0
  8  9  1  6
 10 11  1  0
 10 12  2  0
 13 11  1  0
 14 54  1  0
 14 23  1  0
 14 10  1  0
 15 23  1  0
 16 21  1  0
 17 18  1  0
 17 16  1  0
 19 18  1  0
 19 28  1  0
 19 20  1  0
 21 15  1  0
 21 20  1  0
 22 15  2  0
 23 24  1  0
 25 26  2  0
 26 45  1  0
 27 26  1  0
 27 30  1  0
 28 29  1  0
 28 25  1  0
 29 27  2  0
 30 31  1  0
 31 32  2  0
 33 36  1  0
 33 32  1  0
 34 33  2  0
 35 34  1  0
 35 30  2  0
 36 37  1  0
 37 42  2  0
 37 38  1  0
 38 39  2  0
 40 39  1  0
 40 44  1  0
 41 40  2  0
 42 41  1  0
 43 42  1  0
 45 46  1  0
 46 49  1  0
 46 48  1  0
 47 45  2  0
 50 25  1  0
 50 51  1  0
 52 50  1  0
 53 54  1  0
 55  8  1  0
 56 55  1  0
 57 56  1  0
 58 57  1  0
 59 70  2  0
 60 58  1  0
 60 65  1  0
 61 69  1  0
 61 71  1  0
 62 68  1  0
 62 64  1  0
 63 69  1  0
 64 65  2  0
 64 63  1  0
 66 60  2  0
 67 66  1  0
 67 62  2  0
 68 61  1  0
 69 59  1  0
 71 73  2  0
 72 71  1  0
 74 72  1  0
 75 84  2  0
 75 80  1  0
 76 72  1  0
 76 80  1  0
 77 76  1  0
 78 79  1  0
 78 77  1  0
 79 75  1  0
 80 81  2  0
 81 82  1  0
 83 82  2  0
 84 83  1  0
 85 59  1  0
 85 86  1  0
 85 95  1  0
 86 89  1  0
 87 91  1  0
 87 86  1  0
 88 87  2  0
 91 90  1  0
 93 91  1  0
 93 94  1  0
 93 92  1  0
 95 98  1  1
 95 96  1  0
 97 95  1  0
M  ISO  4  15 100  23 100  57 101  58 101
M  END
>  <TORSDO>  (51) 
F 22

>  <SCORE>  (51) 
-10.577

>  <name>  (51) 
50

>  <ligand_id>  (51) 
50

>  <original_smiles>  (51) 
[H]c1c([H])c([H])c2c(c1[H])C([H])([H])C([H])([H])C([H])([H])C2([H])N([H])C(=O)C1([H])N(C(=O)C([H])(N([H])C(=O)C([H])(N([H])C([H])([H])[H])C([H])([H])[H])C(C([H])([H])[H])(C([H])([H])[H])C([H])([H])[H])C([H])([H])c2c([H])c(OC([H])([H])C([H])([H])C([H])([H])[N+]3([H])C([H])([H])C4([H])C([H])([H])C([H])(N([H])C(=O)C([H])(N([H])C(=O)N5C([H])([H])C([H])([H])C([H])([H])C([H])(n6nc(-c7c([H])c([H])c(Oc8c([H])c([H])c(F)c([H])c8F)c([H])c7[H])c(C(=O)N([H])[H])c6N([H])[H])C5([H])[H])C([H])([H])C([H])([H])[H])C([H])([H])C3([H])C4([H])[H])c([H])c([H])c2C1([H])[H]

>  <smiles>  (51) 
[H]c1c([H])c([H])c2c(c1[H])C([H])([H])C([H])([H])C([H])([H])C2([H])N([H])C(=O)C1([H])N(C(=O)C([H])(N([H])C(=O)C([H])(N([H])C([H])([H])[H])C([H])([H])[H])C(C([H])([H])[H])(C([H])([H])[H])C([H])([H])[H])C([H])([H])c2c([H])c(OC([H])([H])C([H])([H])C([H])([H])[N+]3([H])C([H])([H])C4([H])C([H])([H])C([H])(N([H])C(=O)C([H])(N([H])C(=O)N5C([H])([H])C([H])([H])C([H])([H])C([H])(n6nc(-c7c([H])c([H])c(Oc8c([H])c([H])c(F)c([H])c8F)c([H])c7[H])c(C(=O)N([H])[H])c6N([H])[H])C5([H])[H])C([H])([H])C([H])([H])[H])C([H])([H])C3([H])C4([H])[H])c([H])c([H])c2C1([H])[H]

$$$$
51:0:0
     RDKit          3D

 95104  0  0  1  0  0  0  0  0999 V2000
  -30.6890  -21.5880   18.7390 C   0  0  0  0  0  2  0  0  0  0  0  0
  -28.7100  -19.7720   20.4200 C   0  0  0  0  0  2  0  0  0  0  0  0
  -29.7180  -22.7720   18.7260 C   0  0  0  0  0  2  0  0  0  0  0  0
  -30.6810  -21.1350   20.2060 C   0  0  0  0  0  3  0  0  0  0  0  0
  -29.9100  -18.7070   20.2040 C   0  0  0  0  0  3  0  0  0  0  0  0
  -29.2080  -21.3040   20.6030 C   0  0  0  0  0  3  0  0  0  0  0  0
  -31.1050  -19.6630   20.4900 C   0  0  0  0  0  3  0  0  0  0  0  0
  -28.6560  -22.4360   19.7020 N   0  0  1  0  0  4  0  0  0  0  0  0
  -27.9770  -21.9340   19.1490 H   0  0  0  0  0  0  0  0  0  0  0  0
  -32.3510  -19.2780   19.7970 N   0  0  0  0  0  4  0  0  0  0  0  0
  -32.2510  -19.3170   18.7980 H   0  0  0  0  0  0  0  0  0  0  0  0
  -32.6280  -18.3450   20.0450 H   0  0  0  0  0  0  0  0  0  0  0  0
  -33.1010  -19.8940   20.0610 H   0  0  0  0  0  0  0  0  0  0  0  0
  -30.0680  -17.3180   21.0680 C   0  0  0  0  0  2  0  0  0  0  0  0
  -30.5520  -14.7860   20.3720 C   0  0  0  0  0  0  0  0  0  0  0  0
  -30.4020  -12.5100   19.3340 C   0  0  0  0  0  2  0  0  0  0  0  0
  -29.4490  -12.5530   18.1180 C   0  0  0  0  0  2  0  0  0  0  0  0
  -27.9860  -12.3600   18.5610 C   0  0  0  0  0  2  0  0  0  0  0  0
  -27.6040  -13.2460   19.7750 C   0  0  0  0  0  3  0  0  0  0  0  0
  -28.6690  -13.1690   20.8880 C   0  0  0  0  0  2  0  0  0  0  0  0
  -29.9500  -13.5520   20.2810 N   0  0  0  0  0  0  0  0  0  0  0  0
  -31.7490  -14.9120   20.1010 O   0  0  0  0  0  0  0  0  0  0  0  0
  -29.7410  -15.8980   20.5830 N   0  0  0  0  0  0  0  0  0  0  0  0
  -28.7620  -15.6610   20.6460 H   0  0  0  0  0  0  0  0  0  0  0  0
  -25.2180  -13.8190   20.5180 C   0  0  0  0  0  0  0  0  0  0  0  0
  -24.1610  -13.0350   20.8930 C   0  0  0  0  0  0  0  0  0  0  0  0
  -24.6350  -11.6890   20.8600 C   0  0  0  0  0  0  0  0  0  0  0  0
  -26.2680  -12.9480   20.2750 N   0  0  0  0  0  0  0  0  0  0  0  0
  -25.9250  -11.6620   20.5450 N   0  0  0  0  0  0  0  0  0  0  0  0
  -23.9210  -10.4200   21.0500 C   0  0  0  0  0  0  0  0  0  0  0  0
  -24.3630   -9.4560   21.9820 C   0  0  0  0  0  3  0  0  0  0  0  0
  -23.6480   -8.2520   22.1610 C   0  0  0  0  0  3  0  0  0  0  0  0
  -22.4770   -8.0040   21.4070 C   0  0  0  0  0  0  0  0  0  0  0  0
  -22.0540   -8.9570   20.4630 C   0  0  0  0  0  3  0  0  0  0  0  0
  -22.7690  -10.1520   20.2840 C   0  0  0  0  0  3  0  0  0  0  0  0
  -21.7330   -6.8530   21.4950 O   0  0  0  0  0  0  0  0  0  0  0  0
  -21.6930   -6.1080   22.6460 C   0  0  0  0  0  0  0  0  0  0  0  0
  -21.2570   -6.6540   23.8730 C   0  0  0  0  0  3  0  0  0  0  0  0
  -21.1660   -5.8350   25.0160 C   0  0  0  0  0  3  0  0  0  0  0  0
  -21.5000   -4.4700   24.9330 C   0  0  0  0  0  0  0  0  0  0  0  0
  -21.9300   -3.9230   23.7110 C   0  0  0  0  0  3  0  0  0  0  0  0
  -22.0220   -4.7400   22.5690 C   0  0  0  0  0  0  0  0  0  0  0  0
  -22.4160   -4.2020   21.3890 F   0  0  0  0  0  0  0  0  0  0  0  0
  -21.4050   -3.6800   26.0280 F   0  0  0  0  0  0  0  0  0  0  0  0
  -22.7600  -13.5000   21.1670 C   0  0  0  0  0  0  0  0  0  0  0  0
  -22.0380  -12.7950   22.0300 N   0  0  0  0  0  0  0  0  0  0  0  0
  -22.3150  -14.5250   20.6500 O   0  0  0  0  0  0  0  0  0  0  0  0
  -22.4110  -11.9650   22.4680 H   0  0  0  0  0  0  0  0  0  0  0  0
  -21.0980  -13.0880   22.2550 H   0  0  0  0  0  0  0  0  0  0  0  0
  -25.3670  -15.1920   20.3390 N   0  0  0  0  0  0  0  0  0  0  0  0
  -24.5870  -15.8300   20.4450 H   0  0  0  0  0  0  0  0  0  0  0  0
  -26.1900  -15.6380   19.9590 H   0  0  0  0  0  0  0  0  0  0  0  0
  -27.8280  -23.6670   20.1710 C   0  0  0  0  0  2  0  0  0  0  0  0
  -28.4600  -25.0590   20.7260 C   0  0  0  0  0  2  0  0  0  0  0  0
  -28.3540  -26.4350   20.1120 O   0  0  0  0  0  0  0  0  0  0  0  0
  -24.6210  -31.8780   23.2330 C   0  0  0  0  0  0  0  0  0  0  0  0
  -27.2170  -27.2640   20.1990 C   0  0  0  0  0  0  0  0  0  0  0  0
  -23.4140  -30.4740   21.6000 C   0  0  0  0  0  3  0  0  0  0  0  0
  -24.8580  -28.9030   20.1840 C   0  0  0  0  0  0  0  0  0  0  0  0
  -25.9550  -30.7810   21.4090 C   0  0  0  0  0  2  0  0  0  0  0  0
  -26.0330  -29.3920   20.7720 C   0  0  0  0  0  0  0  0  0  0  0  0
  -27.2170  -28.5880   20.7600 C   0  0  0  0  0  3  0  0  0  0  0  0
  -26.0180  -26.8320   19.5990 C   0  0  0  0  0  3  0  0  0  0  0  0
  -24.8560  -27.6320   19.5880 C   0  0  0  0  0  3  0  0  0  0  0  0
  -23.6260  -29.7880   20.2240 C   0  0  0  0  0  2  0  0  0  0  0  0
  -24.6830  -31.0640   22.1360 N   0  0  0  0  0  0  0  0  0  0  0  0
  -23.5380  -32.1560   23.7690 O   0  0  0  0  0  0  0  0  0  0  0  0
  -22.7520  -29.4630   22.5670 C   0  0  0  0  0  0  0  0  0  0  0  0
  -21.4250  -29.2840   22.4450 N   0  0  0  0  0  0  0  0  0  0  0  0
  -23.4310  -28.8400   23.3870 O   0  0  0  0  0  0  0  0  0  0  0  0
  -20.9330  -29.8400   21.7570 H   0  0  0  0  0  0  0  0  0  0  0  0
  -18.0500  -28.0840   22.9590 C   0  0  0  0  0  0  0  0  0  0  0  0
  -20.6090  -28.3480   23.2200 C   0  0  0  0  0  3  0  0  0  0  0  0
  -20.7110  -26.9160   22.6480 C   0  0  0  0  0  2  0  0  0  0  0  0
  -19.6070  -26.5880   21.6370 C   0  0  0  0  0  2  0  0  0  0  0  0
  -18.2270  -26.7330   22.2860 C   0  0  0  0  0  2  0  0  0  0  0  0
  -19.1680  -28.8490   23.3830 C   0  0  0  0  0  0  0  0  0  0  0  0
  -18.9490  -30.1120   23.9740 C   0  0  0  0  0  3  0  0  0  0  0  0
  -17.6430  -30.6110   24.1420 C   0  0  0  0  0  3  0  0  0  0  0  0
  -16.5390  -29.8440   23.7330 C   0  0  0  0  0  3  0  0  0  0  0  0
  -16.7430  -28.5820   23.1470 C   0  0  0  0  0  3  0  0  0  0  0  0
  -25.9030  -32.5150   23.8500 C   0  0  0  0  0  3  0  0  0  0  0  0
  -26.4180  -31.7540   25.1340 C   0  0  1  0  0  0  0  0  0  0  0  0
  -25.3250  -31.5290   26.2050 C   0  0  0  0  0  1  0  0  0  0  0  0
  -26.9970  -30.3700   24.7570 C   0  0  0  0  0  1  0  0  0  0  0  0
  -27.5700  -32.5510   25.7890 C   0  0  0  0  0  1  0  0  0  0  0  0
  -25.5950  -33.9160   24.1720 N   0  0  0  0  0  0  0  0  0  0  0  0
  -25.9250  -34.9650   23.4070 C   0  0  0  0  0  0  0  0  0  0  0  0
  -26.5900  -34.8540   22.3730 O   0  0  0  0  0  0  0  0  0  0  0  0
  -25.0040  -34.0760   24.9750 H   0  0  0  0  0  0  0  0  0  0  0  0
  -24.1980  -36.7590   23.0500 C   0  0  0  0  0  1  0  0  0  0  0  0
  -25.4420  -36.3560   23.8580 C   0  0  0  0  0  3  0  0  0  0  0  0
  -27.5810  -37.2450   24.6760 C   0  0  0  0  0  1  0  0  0  0  0  0
  -26.4760  -37.4080   23.7340 N   0  0  0  0  0  0  0  0  0  0  0  0
  -26.0720  -38.3300   23.8750 H   0  0  0  0  0  0  0  0  0  0  0  0
  3  1  1  0
  3  8  1  0
  4  1  1  0
  4  7  1  0
  4  6  1  0
  5  2  1  0
  5  7  1  0
  5 14  1  0
  6  2  1  0
  7 10  1  0
  8 53  1  0
  8  6  1  0
  8  9  1  6
 10 12  1  0
 10 13  1  0
 11 10  1  0
 15 23  1  0
 16 21  1  0
 17 18  1  0
 17 16  1  0
 19 18  1  0
 19 28  1  0
 19 20  1  0
 21 15  1  0
 21 20  1  0
 22 15  2  0
 23 24  1  0
 23 14  1  0
 25 26  2  0
 26 45  1  0
 27 26  1  0
 27 30  1  0
 28 25  1  0
 28 29  1  0
 29 27  2  0
 30 31  1  0
 31 32  2  0
 33 36  1  0
 33 32  1  0
 34 33  2  0
 35 34  1  0
 35 30  2  0
 36 37  1  0
 37 38  1  0
 38 39  2  0
 40 39  1  0
 40 44  1  0
 41 40  2  0
 42 37  2  0
 42 41  1  0
 43 42  1  0
 45 46  1  0
 46 49  1  0
 46 48  1  0
 47 45  2  0
 50 51  1  0
 50 25  1  0
 52 50  1  0
 53 54  1  0
 55 57  1  0
 55 54  1  0
 56 67  2  0
 57 62  1  0
 58 66  1  0
 58 68  1  0
 59 65  1  0
 59 61  1  0
 60 66  1  0
 61 60  1  0
 62 61  2  0
 63 57  2  0
 64 63  1  0
 64 59  2  0
 65 58  1  0
 66 56  1  0
 68 70  2  0
 69 68  1  0
 71 69  1  0
 72 81  2  0
 72 77  1  0
 73 69  1  0
 73 77  1  0
 74 73  1  0
 75 76  1  0
 75 74  1  0
 76 72  1  0
 77 78  2  0
 78 79  1  0
 80 79  2  0
 81 80  1  0
 82 56  1  0
 82 87  1  0
 82 83  1  0
 83 86  1  1
 83 84  1  0
 85 83  1  0
 87 90  1  0
 88 92  1  0
 88 87  1  0
 89 88  2  0
 92 91  1  0
 94 92  1  0
 94 95  1  0
 94 93  1  0
M  ISO  4  15 100  23 100  54 101  55 101
M  END
>  <TORSDO>  (52) 
F 20

>  <SCORE>  (52) 
-14.126

>  <name>  (52) 
51

>  <ligand_id>  (52) 
51

>  <original_smiles>  (52) 
[H]c1c([H])c([H])c2c(c1[H])C([H])([H])C([H])([H])C([H])([H])C2([H])N([H])C(=O)C1([H])N(C(=O)C([H])(N([H])C(=O)C([H])(N([H])C([H])([H])[H])C([H])([H])[H])C(C([H])([H])[H])(C([H])([H])[H])C([H])([H])[H])C([H])([H])c2c([H])c(OC([H])([H])C([H])([H])[N+]3([H])C([H])([H])C([H])([H])C4([H])C([H])([N+]([H])([H])[H])C([H])(C([H])([H])N([H])C(=O)N5C([H])([H])C([H])([H])C([H])([H])C([H])(n6nc(-c7c([H])c([H])c(Oc8c([H])c([H])c(F)c([H])c8F)c([H])c7[H])c(C(=O)N([H])[H])c6N([H])[H])C5([H])[H])C([H])([H])C43[H])c([H])c([H])c2C1([H])[H]

>  <smiles>  (52) 
[H]c1c([H])c([H])c2c(c1[H])C([H])([H])C([H])([H])C([H])([H])C2([H])N([H])C(=O)C1([H])N(C(=O)C([H])(N([H])C(=O)C([H])(N([H])C([H])([H])[H])C([H])([H])[H])C(C([H])([H])[H])(C([H])([H])[H])C([H])([H])[H])C([H])([H])c2c([H])c(OC([H])([H])C([H])([H])[N+]3([H])C([H])([H])C([H])([H])C4([H])C([H])([N+]([H])([H])[H])C([H])(C([H])([H])N([H])C(=O)N5C([H])([H])C([H])([H])C([H])([H])C([H])(n6nc(-c7c([H])c([H])c(Oc8c([H])c([H])c(F)c([H])c8F)c([H])c7[H])c(C(=O)N([H])[H])c6N([H])[H])C5([H])[H])C([H])([H])C43[H])c([H])c([H])c2C1([H])[H]

$$$$
52:0:0
     RDKit          3D

 93104  0  0  1  0  0  0  0  0999 V2000
  -27.0250  -19.5900   18.0900 C   0  0  0  0  0  2  0  0  0  0  0  0
  -27.5620  -20.7060   18.4560 C   0  0  0  0  0  3  0  0  0  0  0  0
  -30.6820  -20.5440   18.5260 C   0  0  0  0  0  2  0  0  0  0  0  0
  -30.1190  -21.9900   18.8360 C   0  0  0  0  0  2  0  0  0  0  0  0
  -29.5300  -21.1270   21.1820 C   0  0  0  0  0  2  0  0  0  0  0  0
  -28.4550  -19.8520   17.6130 C   0  0  0  0  0  3  0  0  0  0  0  0
  -27.8970  -21.0960   19.9010 C   0  0  0  0  0  3  0  0  0  0  0  0
  -29.6740  -19.3420   18.3950 C   0  0  0  0  0  3  0  0  0  0  0  0
  -28.6880  -19.9330   20.6390 C   0  0  0  0  0  3  0  0  0  0  0  0
  -29.2490  -18.7000   19.7720 C   0  0  0  0  0  3  0  0  0  0  0  0
  -29.1190  -22.1040   20.0190 C   0  0  2  0  0  0  0  0  0  0  0  0
  -30.2410  -17.5590   20.4080 C   0  0  0  0  0  2  0  0  0  0  0  0
  -30.6700  -14.9150   20.2670 C   0  0  0  0  0  0  0  0  0  0  0  0
  -30.5100  -12.6100   19.2980 C   0  0  0  0  0  2  0  0  0  0  0  0
  -29.5680  -12.6380   18.0720 C   0  0  0  0  0  2  0  0  0  0  0  0
  -28.1000  -12.4560   18.5070 C   0  0  0  0  0  2  0  0  0  0  0  0
  -27.7150  -13.3580   19.7090 C   0  0  0  0  0  3  0  0  0  0  0  0
  -28.7750  -13.3070   20.8310 C   0  0  0  0  0  2  0  0  0  0  0  0
  -30.0600  -13.6760   20.2220 N   0  0  0  0  0  0  0  0  0  0  0  0
  -31.8710  -15.0050   20.0020 O   0  0  0  0  0  0  0  0  0  0  0  0
  -29.8770  -16.0570   20.3910 N   0  0  0  0  0  0  0  0  0  0  0  0
  -28.9000  -15.8630   20.5510 H   0  0  0  0  0  0  0  0  0  0  0  0
  -25.3270  -13.9380   20.4400 C   0  0  0  0  0  0  0  0  0  0  0  0
  -24.2630  -13.1620   20.8080 C   0  0  0  0  0  0  0  0  0  0  0  0
  -24.7300  -11.8110   20.7800 C   0  0  0  0  0  0  0  0  0  0  0  0
  -26.3730  -13.0630   20.2050 N   0  0  0  0  0  0  0  0  0  0  0  0
  -26.0220  -11.7770   20.4760 N   0  0  0  0  0  0  0  0  0  0  0  0
  -24.0070  -10.5470   20.9680 C   0  0  0  0  0  0  0  0  0  0  0  0
  -24.4230   -9.5960   21.9260 C   0  0  0  0  0  3  0  0  0  0  0  0
  -23.7000   -8.3970   22.1020 C   0  0  0  0  0  3  0  0  0  0  0  0
  -22.5490   -8.1400   21.3220 C   0  0  0  0  0  0  0  0  0  0  0  0
  -22.1510   -9.0810   20.3560 C   0  0  0  0  0  3  0  0  0  0  0  0
  -22.8740  -10.2720   20.1780 C   0  0  0  0  0  3  0  0  0  0  0  0
  -21.7990   -6.9930   21.4100 O   0  0  0  0  0  0  0  0  0  0  0  0
  -21.6950   -6.2870   22.5810 C   0  0  0  0  0  0  0  0  0  0  0  0
  -21.1560   -6.8620   23.7530 C   0  0  0  0  0  3  0  0  0  0  0  0
  -21.0050   -6.0810   24.9130 C   0  0  0  0  0  3  0  0  0  0  0  0
  -21.3780   -4.7250   24.9060 C   0  0  0  0  0  0  0  0  0  0  0  0
  -21.9080   -4.1470   23.7380 C   0  0  0  0  0  3  0  0  0  0  0  0
  -22.0620   -4.9270   22.5780 C   0  0  0  0  0  0  0  0  0  0  0  0
  -22.5540   -4.3610   21.4510 F   0  0  0  0  0  0  0  0  0  0  0  0
  -21.2250   -3.9710   26.0180 F   0  0  0  0  0  0  0  0  0  0  0  0
  -22.8620  -13.6340   21.0720 C   0  0  0  0  0  0  0  0  0  0  0  0
  -22.1330  -12.9330   21.9330 N   0  0  0  0  0  0  0  0  0  0  0  0
  -22.4230  -14.6580   20.5500 O   0  0  0  0  0  0  0  0  0  0  0  0
  -22.5000  -12.1070   22.3780 H   0  0  0  0  0  0  0  0  0  0  0  0
  -21.1910  -13.2270   22.1530 H   0  0  0  0  0  0  0  0  0  0  0  0
  -25.4850  -15.3120   20.2560 N   0  0  0  0  0  0  0  0  0  0  0  0
  -24.7100  -15.9580   20.3570 H   0  0  0  0  0  0  0  0  0  0  0  0
  -26.3190  -15.7450   19.8850 H   0  0  0  0  0  0  0  0  0  0  0  0
  -28.9620  -23.6920   20.4770 C   0  0  0  0  0  3  0  0  0  0  0  0
  -28.3890  -24.9470   19.5840 C   0  0  0  0  0  3  0  0  0  0  0  0
  -28.4100  -26.3940   20.0970 O   0  0  0  0  0  0  0  0  0  0  0  0
  -24.6290  -31.8580   23.1750 C   0  0  0  0  0  0  0  0  0  0  0  0
  -27.3040  -27.2970   20.0410 C   0  0  0  0  0  0  0  0  0  0  0  0
  -23.4640  -30.4810   21.4920 C   0  0  0  0  0  3  0  0  0  0  0  0
  -24.9450  -28.9710   20.0500 C   0  0  0  0  0  0  0  0  0  0  0  0
  -26.0140  -30.7940   21.3580 C   0  0  0  0  0  2  0  0  0  0  0  0
  -26.1080  -29.4240   20.6840 C   0  0  0  0  0  0  0  0  0  0  0  0
  -27.2840  -28.5980   20.6750 C   0  0  0  0  0  3  0  0  0  0  0  0
  -26.1140  -26.9370   19.3700 C   0  0  0  0  0  3  0  0  0  0  0  0
  -24.9570  -27.7370   19.3850 C   0  0  0  0  0  3  0  0  0  0  0  0
  -23.7040  -29.8430   20.1000 C   0  0  0  0  0  2  0  0  0  0  0  0
  -24.7230  -31.0680   22.0620 N   0  0  0  0  0  0  0  0  0  0  0  0
  -23.5360  -32.1190   23.6960 O   0  0  0  0  0  0  0  0  0  0  0  0
  -22.7980  -29.4440   22.4290 C   0  0  0  0  0  0  0  0  0  0  0  0
  -21.4700  -29.2800   22.3120 N   0  0  0  0  0  0  0  0  0  0  0  0
  -23.4760  -28.7920   23.2300 O   0  0  0  0  0  0  0  0  0  0  0  0
  -20.9810  -29.8480   21.6340 H   0  0  0  0  0  0  0  0  0  0  0  0
  -18.0860  -28.1170   22.8460 C   0  0  0  0  0  0  0  0  0  0  0  0
  -20.6550  -28.3270   23.0660 C   0  0  0  0  0  3  0  0  0  0  0  0
  -20.7250  -26.9190   22.4290 C   0  0  0  0  0  2  0  0  0  0  0  0
  -19.5950  -26.6560   21.4280 C   0  0  0  0  0  2  0  0  0  0  0  0
  -18.2280  -26.7950   22.1060 C   0  0  0  0  0  2  0  0  0  0  0  0
  -19.2280  -28.8410   23.2820 C   0  0  0  0  0  0  0  0  0  0  0  0
  -19.0410  -30.0790   23.9350 C   0  0  0  0  0  3  0  0  0  0  0  0
  -17.7490  -30.5930   24.1500 C   0  0  0  0  0  3  0  0  0  0  0  0
  -16.6230  -29.8630   23.7310 C   0  0  0  0  0  3  0  0  0  0  0  0
  -16.7930  -28.6270   23.0820 C   0  0  0  0  0  3  0  0  0  0  0  0
  -25.8970  -32.4950   23.8240 C   0  0  0  0  0  3  0  0  0  0  0  0
  -26.3870  -31.7280   25.1160 C   0  0  1  0  0  0  0  0  0  0  0  0
  -25.2790  -31.4920   26.1710 C   0  0  0  0  0  1  0  0  0  0  0  0
  -26.9750  -30.3450   24.7420 C   0  0  0  0  0  1  0  0  0  0  0  0
  -27.5140  -32.5360   25.8030 C   0  0  0  0  0  1  0  0  0  0  0  0
  -25.5710  -33.8920   24.1450 N   0  0  0  0  0  0  0  0  0  0  0  0
  -25.9130  -34.9510   23.3980 C   0  0  0  0  0  0  0  0  0  0  0  0
  -26.6010  -34.8530   22.3770 O   0  0  0  0  0  0  0  0  0  0  0  0
  -24.9580  -34.0440   24.9320 H   0  0  0  0  0  0  0  0  0  0  0  0
  -24.1940  -36.7580   23.0150 C   0  0  0  0  0  1  0  0  0  0  0  0
  -25.4130  -36.3380   23.8520 C   0  0  0  0  0  3  0  0  0  0  0  0
  -27.5220  -37.2300   24.7450 C   0  0  0  0  0  1  0  0  0  0  0  0
  -26.4480  -37.3910   23.7710 N   0  0  0  0  0  0  0  0  0  0  0  0
  -26.0350  -38.3100   23.9020 H   0  0  0  0  0  0  0  0  0  0  0  0
  2  1  1  0
  2  7  1  0
  3  4  1  0
  4 11  1  0
  6  1  1  0
  6  8  1  0
  6  2  1  0
  7 11  1  0
  7  9  1  0
  8  3  1  0
  8 10  1  0
  9  5  1  0
 10 12  1  0
 10  9  1  0
 11 51  1  1
 11  5  1  0
 13 21  1  0
 14 19  1  0
 15 16  1  0
 15 14  1  0
 16 17  1  0
 17 26  1  0
 17 18  1  0
 19 13  1  0
 19 18  1  0
 20 13  2  0
 21 12  1  0
 21 22  1  0
 23 24  2  0
 24 43  1  0
 25 24  1  0
 25 28  1  0
 26 23  1  0
 26 27  1  0
 27 25  2  0
 28 29  1  0
 29 30  2  0
 31 34  1  0
 31 30  1  0
 32 31  2  0
 33 32  1  0
 33 28  2  0
 34 35  1  0
 35 36  1  0
 36 37  2  0
 38 37  1  0
 38 42  1  0
 39 38  2  0
 40 35  2  0
 40 39  1  0
 41 40  1  0
 43 44  1  0
 44 47  1  0
 44 46  1  0
 45 43  2  0
 48 49  1  0
 48 23  1  0
 50 48  1  0
 52 53  1  0
 52 51  2  0
 54 65  2  0
 54 80  1  0
 55 53  1  0
 55 60  1  0
 56 64  1  0
 56 66  1  0
 57 63  1  0
 57 59  1  0
 58 64  1  0
 59 58  1  0
 60 59  2  0
 61 62  1  0
 61 55  2  0
 62 57  2  0
 63 56  1  0
 64 54  1  0
 66 68  2  0
 67 66  1  0
 67 71  1  0
 69 67  1  0
 70 79  2  0
 70 75  1  0
 71 75  1  0
 72 71  1  0
 73 74  1  0
 73 72  1  0
 74 70  1  0
 75 76  2  0
 76 77  1  0
 78 77  2  0
 79 78  1  0
 80 85  1  0
 80 81  1  0
 81 84  1  1
 81 82  1  0
 83 81  1  0
 85 88  1  0
 86 90  1  0
 86 85  1  0
 87 86  2  0
 89 90  1  0
 92 90  1  0
 92 93  1  0
 92 91  1  0
M  ISO  4  13 100  21 100  52 101  53 101
M  END
>  <TORSDO>  (53) 
F 19

>  <SCORE>  (53) 
-14.463

>  <name>  (53) 
52

>  <ligand_id>  (53) 
52

>  <original_smiles>  (53) 
[H]C1=C2C1([H])C1([H])C([H])([H])C([H])([H])C3(C([H])([H])C([H])([H])Oc4c([H])c([H])c5c(c4[H])C([H])([H])N(C(=O)C([H])(N([H])C(=O)C([H])(N([H])C([H])([H])[H])C([H])([H])[H])C(C([H])([H])[H])(C([H])([H])[H])C([H])([H])[H])C([H])(C(=O)N([H])C4([H])c6c([H])c([H])c([H])c([H])c6C([H])([H])C([H])([H])C4([H])[H])C5([H])[H])C([H])([H])C([H])(C23[H])C1([H])C([H])([H])N([H])C(=O)N1C([H])([H])C([H])([H])C([H])([H])C([H])(n2nc(-c3c([H])c([H])c(Oc4c([H])c([H])c(F)c([H])c4F)c([H])c3[H])c(C(=O)N([H])[H])c2N([H])[H])C1([H])[H]

>  <smiles>  (53) 
[H]C1=C2C1([H])C1([H])C([H])([H])C([H])([H])C3(C([H])([H])C([H])([H])Oc4c([H])c([H])c5c(c4[H])C([H])([H])N(C(=O)C([H])(N([H])C(=O)C([H])(N([H])C([H])([H])[H])C([H])([H])[H])C(C([H])([H])[H])(C([H])([H])[H])C([H])([H])[H])C([H])(C(=O)N([H])C4([H])c6c([H])c([H])c([H])c([H])c6C([H])([H])C([H])([H])C4([H])[H])C5([H])[H])C([H])([H])C([H])(C23[H])C1([H])C([H])([H])N([H])C(=O)N1C([H])([H])C([H])([H])C([H])([H])C([H])(n2nc(-c3c([H])c([H])c(Oc4c([H])c([H])c(F)c([H])c4F)c([H])c3[H])c(C(=O)N([H])[H])c2N([H])[H])C1([H])[H]

$$$$
53:0:0
     RDKit          3D

 91100  0  0  1  0  0  0  0  0999 V2000
  -29.2250  -18.8710   20.6060 C   0  0  0  0  0  0  0  0  0  0  0  0
  -30.0380  -22.8300   20.1690 C   0  0  0  0  0  2  0  0  0  0  0  0
  -27.6890  -22.4750   20.4180 C   0  0  0  0  0  2  0  0  0  0  0  0
  -30.3200  -21.3220   20.7020 C   0  0  0  0  0  2  0  0  0  0  0  0
  -27.9520  -21.0240   21.0010 C   0  0  0  0  0  2  0  0  0  0  0  0
  -28.7460  -23.6090   20.6580 C   0  0  0  0  0  3  0  0  0  0  0  0
  -29.2190  -20.2980   20.6450 N   0  0  0  0  0  0  0  0  0  0  0  0
  -28.1400  -18.2990   20.7620 O   0  0  0  0  0  0  0  0  0  0  0  0
  -30.7840  -15.1370   20.4180 C   0  0  0  0  0  0  0  0  0  0  0  0
  -30.6800  -12.7690   19.5690 C   0  0  0  0  0  2  0  0  0  0  0  0
  -29.7920  -12.6270   18.3100 C   0  0  0  0  0  2  0  0  0  0  0  0
  -28.2970  -12.5240   18.6780 C   0  0  0  0  0  2  0  0  0  0  0  0
  -27.8520  -13.4960   19.8050 C   0  0  0  0  0  3  0  0  0  0  0  0
  -28.8670  -13.5450   20.9630 C   0  0  0  0  0  2  0  0  0  0  0  0
  -30.1630  -13.8990   20.3800 N   0  0  0  0  0  0  0  0  0  0  0  0
  -32.0150  -15.1760   20.3630 O   0  0  0  0  0  0  0  0  0  0  0  0
  -30.2740  -17.5390   18.0390 C   0  0  0  0  0  2  0  0  0  0  0  0
  -31.2250  -18.0880   19.0890 C   0  0  0  0  0  2  0  0  0  0  0  0
  -29.6050  -16.3390   18.7330 C   0  0  0  0  0  2  0  0  0  0  0  0
  -30.4350  -17.7990   20.3600 C   0  0  0  0  0  3  0  0  0  0  0  0
  -30.0290  -16.3040   20.1550 N   0  0  0  0  0  0  0  0  0  0  0  0
  -25.4600  -14.1110   20.4880 C   0  0  0  0  0  0  0  0  0  0  0  0
  -24.3710  -13.3470   20.8050 C   0  0  0  0  0  0  0  0  0  0  0  0
  -24.8180  -11.9890   20.7700 C   0  0  0  0  0  0  0  0  0  0  0  0
  -26.4980  -13.2190   20.2660 N   0  0  0  0  0  0  0  0  0  0  0  0
  -26.1170  -11.9380   20.5070 N   0  0  0  0  0  0  0  0  0  0  0  0
  -24.0710  -10.7330   20.9140 C   0  0  0  0  0  0  0  0  0  0  0  0
  -24.4540   -9.7480   21.8520 C   0  0  0  0  0  3  0  0  0  0  0  0
  -23.7050   -8.5590   21.9850 C   0  0  0  0  0  3  0  0  0  0  0  0
  -22.5620   -8.3470   21.1780 C   0  0  0  0  0  0  0  0  0  0  0  0
  -22.2010   -9.3200   20.2300 C   0  0  0  0  0  3  0  0  0  0  0  0
  -22.9500  -10.5000   20.0930 C   0  0  0  0  0  3  0  0  0  0  0  0
  -21.7890   -7.2110   21.2190 O   0  0  0  0  0  0  0  0  0  0  0  0
  -21.6780   -6.4610   22.3620 C   0  0  0  0  0  0  0  0  0  0  0  0
  -21.1490   -6.9970   23.5570 C   0  0  0  0  0  3  0  0  0  0  0  0
  -20.9820   -6.1710   24.6870 C   0  0  0  0  0  3  0  0  0  0  0  0
  -21.3390   -4.8100   24.6260 C   0  0  0  0  0  0  0  0  0  0  0  0
  -21.8630   -4.2730   23.4370 C   0  0  0  0  0  3  0  0  0  0  0  0
  -22.0280   -5.0960   22.3070 C   0  0  0  0  0  0  0  0  0  0  0  0
  -22.5140   -4.5680   21.1580 F   0  0  0  0  0  0  0  0  0  0  0  0
  -21.1740   -4.0150   25.7090 F   0  0  0  0  0  0  0  0  0  0  0  0
  -22.9720  -13.8380   21.0340 C   0  0  0  0  0  0  0  0  0  0  0  0
  -22.2160  -13.1550   21.8850 N   0  0  0  0  0  0  0  0  0  0  0  0
  -22.5570  -14.8640   20.4940 O   0  0  0  0  0  0  0  0  0  0  0  0
  -22.5640  -12.3260   22.3450 H   0  0  0  0  0  0  0  0  0  0  0  0
  -21.2770  -13.4690   22.0850 H   0  0  0  0  0  0  0  0  0  0  0  0
  -25.6490  -15.4840   20.3470 N   0  0  0  0  0  0  0  0  0  0  0  0
  -24.8980  -16.1530   20.4810 H   0  0  0  0  0  0  0  0  0  0  0  0
  -26.5450  -15.9280   20.1770 H   0  0  0  0  0  0  0  0  0  0  0  0
  -28.2360  -25.0450   19.9810 C   0  0  0  0  0  2  0  0  0  0  0  0
  -28.4690  -26.5190   20.3420 O   0  0  0  0  0  0  0  0  0  0  0  0
  -24.5520  -31.9630   23.2390 C   0  0  0  0  0  0  0  0  0  0  0  0
  -27.3920  -27.4590   20.2030 C   0  0  0  0  0  0  0  0  0  0  0  0
  -23.4560  -30.5670   21.5280 C   0  0  0  0  0  3  0  0  0  0  0  0
  -25.0050  -29.0960   20.1110 C   0  0  0  0  0  0  0  0  0  0  0  0
  -25.9990  -30.9370   21.4580 C   0  0  0  0  0  2  0  0  0  0  0  0
  -26.1430  -29.5710   20.7780 C   0  0  0  0  0  0  0  0  0  0  0  0
  -27.3350  -28.7660   20.8160 C   0  0  0  0  0  3  0  0  0  0  0  0
  -26.2410  -27.0930   19.4660 C   0  0  0  0  0  3  0  0  0  0  0  0
  -25.0660  -27.8670   19.4400 C   0  0  0  0  0  3  0  0  0  0  0  0
  -23.7440  -29.9380   20.1400 C   0  0  0  0  0  2  0  0  0  0  0  0
  -24.6860  -31.1730   22.1310 N   0  0  0  0  0  0  0  0  0  0  0  0
  -23.4400  -32.1970   23.7360 O   0  0  0  0  0  0  0  0  0  0  0  0
  -22.7850  -29.5080   22.4400 C   0  0  0  0  0  0  0  0  0  0  0  0
  -21.4590  -29.3350   22.3010 N   0  0  0  0  0  0  0  0  0  0  0  0
  -23.4610  -28.8500   23.2360 O   0  0  0  0  0  0  0  0  0  0  0  0
  -20.9720  -29.9190   21.6350 H   0  0  0  0  0  0  0  0  0  0  0  0
  -18.0700  -28.1690   22.8150 C   0  0  0  0  0  0  0  0  0  0  0  0
  -20.6410  -28.3620   23.0280 C   0  0  0  0  0  3  0  0  0  0  0  0
  -20.6960  -26.9720   22.3530 C   0  0  0  0  0  2  0  0  0  0  0  0
  -19.5600  -26.7420   21.3510 C   0  0  0  0  0  2  0  0  0  0  0  0
  -18.2000  -26.8670   22.0420 C   0  0  0  0  0  2  0  0  0  0  0  0
  -19.2150  -28.8780   23.2640 C   0  0  0  0  0  0  0  0  0  0  0  0
  -19.0390  -30.1000   23.9490 C   0  0  0  0  0  3  0  0  0  0  0  0
  -17.7480  -30.6110   24.1880 C   0  0  0  0  0  3  0  0  0  0  0  0
  -16.6180  -29.8970   23.7550 C   0  0  0  0  0  3  0  0  0  0  0  0
  -16.7810  -28.6770   23.0740 C   0  0  0  0  0  3  0  0  0  0  0  0
  -25.7870  -32.6220   23.9220 C   0  0  0  0  0  3  0  0  0  0  0  0
  -25.4440  -34.0250   24.2080 N   0  0  0  0  0  0  0  0  0  0  0  0
  -25.7790  -35.0650   23.4340 C   0  0  0  0  0  0  0  0  0  0  0  0
  -26.4780  -34.9480   22.4250 O   0  0  0  0  0  0  0  0  0  0  0  0
  -24.8240  -34.1860   24.9880 H   0  0  0  0  0  0  0  0  0  0  0  0
  -24.0290  -36.8190   22.9970 C   0  0  0  0  0  1  0  0  0  0  0  0
  -25.2580  -36.4560   23.8450 C   0  0  0  0  0  3  0  0  0  0  0  0
  -27.3480  -37.4110   24.7140 C   0  0  0  0  0  1  0  0  0  0  0  0
  -26.2750  -37.5250   23.7290 N   0  0  0  0  0  0  0  0  0  0  0  0
  -25.8480  -38.4410   23.8300 H   0  0  0  0  0  0  0  0  0  0  0  0
  -26.2330  -31.8830   25.2450 C   0  0  1  0  0  0  0  0  0  0  0  0
  -25.0790  -31.6570   26.2490 C   0  0  0  0  0  1  0  0  0  0  0  0
  -26.8550  -30.5040   24.9250 C   0  0  0  0  0  1  0  0  0  0  0  0
  -27.3330  -32.7060   25.9580 C   0  0  0  0  0  1  0  0  0  0  0  0
  1  7  1  0
  1  8  2  0
  2  6  1  0
  2  4  1  0
  3  6  1  0
  3  5  1  0
  6 50  1  0
  7  4  1  0
  7  5  1  0
 10 15  1  0
 11 12  1  0
 11 10  1  0
 13 12  1  0
 13 25  1  0
 13 14  1  0
 15  9  1  0
 15 14  1  0
 16  9  2  0
 17 19  1  0
 17 18  1  0
 18 20  1  0
 19 21  1  0
 20  1  1  0
 21 20  1  0
 21  9  1  0
 22 23  2  0
 23 42  1  0
 24 23  1  0
 24 27  1  0
 25 22  1  0
 25 26  1  0
 26 24  2  0
 27 28  1  0
 28 29  2  0
 30 33  1  0
 30 29  1  0
 31 30  2  0
 32 31  1  0
 32 27  2  0
 33 34  1  0
 34 35  1  0
 35 36  2  0
 37 36  1  0
 37 41  1  0
 38 37  2  0
 39 34  2  0
 39 38  1  0
 40 39  1  0
 42 43  1  0
 43 46  1  0
 43 45  1  0
 44 42  2  0
 47 48  1  0
 47 22  1  0
 49 47  1  0
 50 51  1  0
 52 63  2  0
 53 51  1  0
 53 58  1  0
 54 62  1  0
 54 64  1  0
 55 61  1  0
 55 57  1  0
 56 62  1  0
 57 58  2  0
 57 56  1  0
 59 53  2  0
 60 59  1  0
 60 55  2  0
 61 54  1  0
 62 52  1  0
 64 66  2  0
 65 64  1  0
 67 65  1  0
 68 77  2  0
 68 73  1  0
 69 65  1  0
 69 73  1  0
 70 69  1  0
 71 72  1  0
 71 70  1  0
 72 68  1  0
 73 74  2  0
 74 75  1  0
 76 75  2  0
 77 76  1  0
 78 52  1  0
 78 79  1  0
 78 88  1  0
 79 82  1  0
 80 84  1  0
 80 79  1  0
 81 80  2  0
 84 83  1  0
 86 87  1  0
 86 84  1  0
 86 85  1  0
 88 91  1  1
 88 89  1  0
 90 88  1  0
M  ISO  4   9 100  21 100  50 101  51 101
M  END
>  <TORSDO>  (54) 
F 17

>  <SCORE>  (54) 
-14.478

>  <name>  (54) 
53

>  <ligand_id>  (54) 
53

>  <original_smiles>  (54) 
[H]c1c([H])c([H])c2c(c1[H])C([H])([H])C([H])([H])C([H])([H])C2([H])N([H])C(=O)C1([H])N(C(=O)C([H])(N([H])C(=O)C([H])(N([H])C([H])([H])[H])C([H])([H])[H])C(C([H])([H])[H])(C([H])([H])[H])C([H])([H])[H])C([H])([H])c2c([H])c(OC([H])([H])C3([H])C([H])([H])C([H])([H])N(C(=O)C4([H])N(C(=O)N5C([H])([H])C([H])([H])C([H])([H])C([H])(n6nc(-c7c([H])c([H])c(Oc8c([H])c([H])c(F)c([H])c8F)c([H])c7[H])c(C(=O)N([H])[H])c6N([H])[H])C5([H])[H])C([H])([H])C([H])([H])C4([H])[H])C([H])([H])C3([H])[H])c([H])c([H])c2C1([H])[H]

>  <smiles>  (54) 
[H]c1c([H])c([H])c2c(c1[H])C([H])([H])C([H])([H])C([H])([H])C2([H])N([H])C(=O)C1([H])N(C(=O)C([H])(N([H])C(=O)C([H])(N([H])C([H])([H])[H])C([H])([H])[H])C(C([H])([H])[H])(C([H])([H])[H])C([H])([H])[H])C([H])([H])c2c([H])c(OC([H])([H])C3([H])C([H])([H])C([H])([H])N(C(=O)C4([H])N(C(=O)N5C([H])([H])C([H])([H])C([H])([H])C([H])(n6nc(-c7c([H])c([H])c(Oc8c([H])c([H])c(F)c([H])c8F)c([H])c7[H])c(C(=O)N([H])[H])c6N([H])[H])C5([H])[H])C([H])([H])C([H])([H])C4([H])[H])C([H])([H])C3([H])[H])c([H])c([H])c2C1([H])[H]

$$$$
54:0:0
     RDKit          3D

 91100  0  0  1  0  0  0  0  0999 V2000
  -28.9490  -22.7730   20.4490 C   0  0  0  0  0  0  0  0  0  0  0  0
  -28.7010  -21.2990   20.4110 N   0  0  0  0  0  4  0  0  0  0  0  0
  -30.1190  -23.0960   20.6620 O   0  0  0  0  0  0  0  0  0  0  0  0
  -27.7200  -21.1140   20.2490 H   0  0  0  0  0  0  0  0  0  0  0  0
  -30.2640  -19.9340   21.9800 C   0  0  0  0  0  1  0  0  0  0  0  0
  -29.5550  -19.8530   20.6170 C   0  0  0  0  0  0  0  0  0  0  0  0
  -30.3640  -15.3360   20.4770 C   0  0  0  0  0  0  0  0  0  0  0  0
  -30.4420  -12.8770   19.5620 C   0  0  0  0  0  2  0  0  0  0  0  0
  -29.5510  -12.6220   18.3140 C   0  0  0  0  0  2  0  0  0  0  0  0
  -28.0950  -12.3230   18.7140 C   0  0  0  0  0  2  0  0  0  0  0  0
  -27.6090  -13.2710   19.8340 C   0  0  0  0  0  3  0  0  0  0  0  0
  -28.6280  -13.3890   20.9850 C   0  0  0  0  0  2  0  0  0  0  0  0
  -29.8550  -13.9910   20.4200 N   0  0  0  0  0  0  0  0  0  0  0  0
  -31.5280  -15.3820   20.0410 O   0  0  0  0  0  0  0  0  0  0  0  0
  -26.8370  -17.9830   22.8880 C   0  0  0  0  0  2  0  0  0  0  0  0
  -26.8660  -18.9950   21.7500 C   0  0  0  0  0  2  0  0  0  0  0  0
  -29.0300  -16.5530   22.2310 C   0  0  0  0  0  2  0  0  0  0  0  0
  -27.6000  -16.9890   22.0050 C   0  0  0  0  0  3  0  0  0  0  0  0
  -27.6090  -17.9790   20.8490 C   0  0  0  0  0  3  0  0  0  0  0  0
  -29.0710  -18.1180   20.3610 C   0  0  0  0  0  3  0  0  0  0  0  0
  -29.6290  -16.5920   20.8860 N   0  0  0  0  0  0  0  0  0  0  0  0
  -25.2180  -13.8080   20.5350 C   0  0  0  0  0  0  0  0  0  0  0  0
  -24.1630  -13.0290   20.9140 C   0  0  0  0  0  0  0  0  0  0  0  0
  -24.6360  -11.6840   20.8750 C   0  0  0  0  0  0  0  0  0  0  0  0
  -26.2720  -12.9420   20.3090 N   0  0  0  0  0  0  0  0  0  0  0  0
  -25.9320  -11.6550   20.5740 N   0  0  0  0  0  0  0  0  0  0  0  0
  -23.9050  -10.4220   21.0410 C   0  0  0  0  0  0  0  0  0  0  0  0
  -24.3620   -9.4160   21.9200 C   0  0  0  0  0  3  0  0  0  0  0  0
  -23.6290   -8.2190   22.0770 C   0  0  0  0  0  3  0  0  0  0  0  0
  -22.4270   -8.0240   21.3530 C   0  0  0  0  0  0  0  0  0  0  0  0
  -21.9890   -9.0210   20.4650 C   0  0  0  0  0  3  0  0  0  0  0  0
  -22.7210  -10.2100   20.3060 C   0  0  0  0  0  3  0  0  0  0  0  0
  -21.6620   -6.8850   21.4240 O   0  0  0  0  0  0  0  0  0  0  0  0
  -21.6850   -6.0720   22.5280 C   0  0  0  0  0  0  0  0  0  0  0  0
  -21.4010   -6.5620   23.8210 C   0  0  0  0  0  3  0  0  0  0  0  0
  -21.3650   -5.6780   24.9170 C   0  0  0  0  0  3  0  0  0  0  0  0
  -21.6050   -4.3040   24.7220 C   0  0  0  0  0  0  0  0  0  0  0  0
  -21.8810   -3.8120   23.4340 C   0  0  0  0  0  3  0  0  0  0  0  0
  -21.9200   -4.6950   22.3400 C   0  0  0  0  0  0  0  0  0  0  0  0
  -22.1660   -4.2130   21.0970 F   0  0  0  0  0  0  0  0  0  0  0  0
  -21.5650   -3.4530   25.7730 F   0  0  0  0  0  0  0  0  0  0  0  0
  -22.7660  -13.5080   21.1840 C   0  0  0  0  0  0  0  0  0  0  0  0
  -22.0390  -12.8100   22.0500 N   0  0  0  0  0  0  0  0  0  0  0  0
  -22.3310  -14.5390   20.6750 O   0  0  0  0  0  0  0  0  0  0  0  0
  -22.4070  -11.9790   22.4880 H   0  0  0  0  0  0  0  0  0  0  0  0
  -21.1030  -13.1150   22.2790 H   0  0  0  0  0  0  0  0  0  0  0  0
  -25.3490  -15.1720   20.3290 N   0  0  0  0  0  0  0  0  0  0  0  0
  -24.5950  -15.8210   20.5260 H   0  0  0  0  0  0  0  0  0  0  0  0
  -26.2150  -15.6320   20.0770 H   0  0  0  0  0  0  0  0  0  0  0  0
  -27.8730  -24.1570   20.2450 C   0  0  0  0  0  2  0  0  0  0  0  0
  -28.2020  -25.7840   20.3030 O   0  0  0  0  0  0  0  0  0  0  0  0
  -24.6600  -31.8250   23.1730 C   0  0  0  0  0  0  0  0  0  0  0  0
  -27.2160  -26.9090   20.2140 C   0  0  0  0  0  0  0  0  0  0  0  0
  -23.4770  -30.4350   21.5220 C   0  0  0  0  0  3  0  0  0  0  0  0
  -24.9350  -28.8170   20.1200 C   0  0  0  0  0  0  0  0  0  0  0  0
  -26.0470  -30.6260   21.4050 C   0  0  0  0  0  2  0  0  0  0  0  0
  -26.1170  -29.2120   20.7570 C   0  0  0  0  0  0  0  0  0  0  0  0
  -27.2530  -28.2810   20.7780 C   0  0  0  0  0  3  0  0  0  0  0  0
  -26.0090  -26.6760   19.5200 C   0  0  0  0  0  3  0  0  0  0  0  0
  -24.9080  -27.5700   19.4770 C   0  0  0  0  0  3  0  0  0  0  0  0
  -23.7210  -29.7470   20.1500 C   0  0  0  0  0  2  0  0  0  0  0  0
  -24.7500  -30.9900   22.0870 N   0  0  0  0  0  0  0  0  0  0  0  0
  -23.5660  -32.1190   23.6820 O   0  0  0  0  0  0  0  0  0  0  0  0
  -22.7670  -29.4420   22.4790 C   0  0  0  0  0  0  0  0  0  0  0  0
  -21.4340  -29.3030   22.3560 N   0  0  0  0  0  0  0  0  0  0  0  0
  -23.4190  -28.7980   23.3030 O   0  0  0  0  0  0  0  0  0  0  0  0
  -20.9580  -29.8640   21.6640 H   0  0  0  0  0  0  0  0  0  0  0  0
  -18.0310  -28.1430   22.8450 C   0  0  0  0  0  0  0  0  0  0  0  0
  -20.5940  -28.3750   23.1210 C   0  0  0  0  0  3  0  0  0  0  0  0
  -20.6820  -26.9430   22.5420 C   0  0  0  0  0  2  0  0  0  0  0  0
  -19.5800  -26.6380   21.5230 C   0  0  0  0  0  2  0  0  0  0  0  0
  -18.1970  -26.7970   22.1620 C   0  0  0  0  0  2  0  0  0  0  0  0
  -19.1580  -28.8920   23.2810 C   0  0  0  0  0  0  0  0  0  0  0  0
  -18.9490  -30.1520   23.8830 C   0  0  0  0  0  3  0  0  0  0  0  0
  -17.6480  -30.6620   24.0570 C   0  0  0  0  0  3  0  0  0  0  0  0
  -16.5370  -29.9100   23.6360 C   0  0  0  0  0  3  0  0  0  0  0  0
  -16.7290  -28.6540   23.0350 C   0  0  0  0  0  3  0  0  0  0  0  0
  -25.9280  -32.4620   23.8180 C   0  0  0  0  0  3  0  0  0  0  0  0
  -25.5970  -33.8440   24.2080 N   0  0  0  0  0  0  0  0  0  0  0  0
  -25.9100  -34.9370   23.5010 C   0  0  0  0  0  0  0  0  0  0  0  0
  -26.5710  -34.8890   22.4600 O   0  0  0  0  0  0  0  0  0  0  0  0
  -25.0090  -33.9550   25.0210 H   0  0  0  0  0  0  0  0  0  0  0  0
  -24.1500  -36.7210   23.2640 C   0  0  0  0  0  1  0  0  0  0  0  0
  -25.4150  -36.2990   24.0290 C   0  0  0  0  0  3  0  0  0  0  0  0
  -27.5560  -37.1770   24.8460 C   0  0  0  0  0  1  0  0  0  0  0  0
  -26.4290  -37.3710   23.9380 N   0  0  0  0  0  0  0  0  0  0  0  0
  -26.0140  -38.2770   24.1410 H   0  0  0  0  0  0  0  0  0  0  0  0
  -26.4520  -31.6570   25.0700 C   0  0  1  0  0  0  0  0  0  0  0  0
  -25.3620  -31.3820   26.1330 C   0  0  0  0  0  1  0  0  0  0  0  0
  -27.0420  -30.2950   24.6410 C   0  0  0  0  0  1  0  0  0  0  0  0
  -27.6040  -32.4360   25.7480 C   0  0  0  0  0  1  0  0  0  0  0  0
  1  3  2  0
  2  1  1  0
  2  6  2  0
  4  2  1  0
  6  5  1  0
  7 21  1  0
  8 13  1  0
  9 10  1  0
  9  8  1  0
 11 10  1  0
 11 25  1  0
 11 12  1  0
 13  7  1  0
 13 12  1  0
 14  7  2  0
 16 15  1  0
 18 17  1  0
 18 15  1  0
 19 16  1  0
 19 18  1  0
 20  6  1  0
 20 19  1  0
 20 21  1  0
 21 17  1  0
 22 23  2  0
 23 42  1  0
 24 23  1  0
 24 27  1  0
 25 22  1  0
 25 26  1  0
 26 24  2  0
 27 28  1  0
 28 29  2  0
 30 33  1  0
 30 29  1  0
 31 30  2  0
 32 31  1  0
 32 27  2  0
 33 34  1  0
 34 35  1  0
 35 36  2  0
 37 36  1  0
 37 41  1  0
 38 37  2  0
 39 34  2  0
 39 38  1  0
 40 39  1  0
 42 43  1  0
 43 46  1  0
 43 45  1  0
 44 42  2  0
 47 48  1  0
 47 22  1  0
 49 47  1  0
 50 51  1  0
 50  1  1  0
 52 63  2  0
 53 51  1  0
 53 58  1  0
 54 62  1  0
 54 64  1  0
 55 61  1  0
 55 57  1  0
 56 62  1  0
 57 58  2  0
 57 56  1  0
 59 53  2  0
 60 59  1  0
 60 55  2  0
 61 54  1  0
 62 52  1  0
 64 66  2  0
 65 64  1  0
 67 65  1  0
 68 77  2  0
 68 73  1  0
 69 65  1  0
 69 73  1  0
 70 69  1  0
 71 72  1  0
 71 70  1  0
 72 68  1  0
 73 74  2  0
 74 75  1  0
 76 75  2  0
 77 76  1  0
 78 52  1  0
 78 79  1  0
 78 88  1  0
 79 82  1  0
 80 84  1  0
 80 79  1  0
 81 80  2  0
 84 83  1  0
 86 84  1  0
 86 87  1  0
 86 85  1  0
 88 91  1  1
 88 89  1  0
 90 88  1  0
M  ISO  4   7 100  21 100  50 101  51 101
M  END
>  <TORSDO>  (55) 
F 18

>  <SCORE>  (55) 
8.087

>  <name>  (55) 
54

>  <ligand_id>  (55) 
54

>  <original_smiles>  (55) 
[H]c1c([H])c([H])c2c(c1[H])C([H])([H])C([H])([H])C([H])([H])C2([H])N([H])C(=O)C1([H])N(C(=O)C([H])(N([H])C(=O)C([H])(N([H])C([H])([H])[H])C([H])([H])[H])C(C([H])([H])[H])(C([H])([H])[H])C([H])([H])[H])C([H])([H])c2c([H])c(OC([H])([H])C(=O)N([H])C([H])(C([H])([H])[H])C3([H])N(C(=O)N4C([H])([H])C([H])([H])C([H])([H])C([H])(n5nc(-c6c([H])c([H])c(Oc7c([H])c([H])c(F)c([H])c7F)c([H])c6[H])c(C(=O)N([H])[H])c5N([H])[H])C4([H])[H])C([H])([H])C4([H])C([H])([H])C([H])([H])C34[H])c([H])c([H])c2C1([H])[H]

>  <smiles>  (55) 
[H]c1c([H])c([H])c2c(c1[H])C([H])([H])C([H])([H])C([H])([H])C2([H])N([H])C(=O)C1([H])N(C(=O)C([H])(N([H])C(=O)C([H])(N([H])C([H])([H])[H])C([H])([H])[H])C(C([H])([H])[H])(C([H])([H])[H])C([H])([H])[H])C([H])([H])c2c([H])c(OC([H])([H])C(=O)N([H])C([H])(C([H])([H])[H])C3([H])N(C(=O)N4C([H])([H])C([H])([H])C([H])([H])C([H])(n5nc(-c6c([H])c([H])c(Oc7c([H])c([H])c(F)c([H])c7F)c([H])c6[H])c(C(=O)N([H])[H])c5N([H])[H])C4([H])[H])C([H])([H])C4([H])C([H])([H])C([H])([H])C34[H])c([H])c([H])c2C1([H])[H]

$$$$
55:0:0
     RDKit          3D

 95105  0  0  1  0  0  0  0  0999 V2000
  -29.0000  -17.9920   20.4630 C   0  0  0  0  0  0  0  0  0  0  0  0
  -29.2210  -20.5190   18.2570 C   0  0  0  0  0  2  0  0  0  0  0  0
  -27.6090  -20.0190   20.0460 C   0  0  0  0  0  2  0  0  0  0  0  0
  -28.0950  -21.1300   19.1240 C   0  0  2  0  0  0  0  0  0  0  0  0
  -29.8080  -20.4090   19.6850 C   0  0  2  0  0  0  0  0  0  0  0  0
  -29.2660  -21.9190   19.7270 C   0  0  0  0  0  3  0  0  0  0  0  0
  -28.9060  -19.3740   20.3000 N   0  0  0  0  0  0  0  0  0  0  0  0
  -27.9560  -17.3290   20.4960 O   0  0  0  0  0  0  0  0  0  0  0  0
  -30.6500  -17.2420   22.2050 C   0  0  0  0  0  1  0  0  0  0  0  0
  -31.5200  -17.6340   19.8880 C   0  0  0  0  0  1  0  0  0  0  0  0
  -30.3130  -17.1250   20.7020 C   0  0  2  0  0  0  0  0  0  0  0  0
  -30.7550  -14.5710   20.0550 C   0  0  0  0  0  0  0  0  0  0  0  0
  -30.4040  -12.3780   18.9380 C   0  0  0  0  0  2  0  0  0  0  0  0
  -29.3970  -12.5820   17.7850 C   0  0  0  0  0  2  0  0  0  0  0  0
  -27.9490  -12.4500   18.3000 C   0  0  0  0  0  2  0  0  0  0  0  0
  -27.6950  -13.2800   19.5870 C   0  0  0  0  0  3  0  0  0  0  0  0
  -28.8140  -13.0570   20.6250 C   0  0  0  0  0  2  0  0  0  0  0  0
  -30.0880  -13.3810   19.9710 N   0  0  0  0  0  0  0  0  0  0  0  0
  -31.9110  -14.6700   19.6390 O   0  0  0  0  0  0  0  0  0  0  0  0
  -30.0160  -15.6570   20.4500 N   0  0  0  0  0  0  0  0  0  0  0  0
  -29.0440  -15.4510   20.6370 H   0  0  0  0  0  0  0  0  0  0  0  0
  -25.3810  -13.9200   20.4970 C   0  0  0  0  0  0  0  0  0  0  0  0
  -24.3160  -13.1620   20.9020 C   0  0  0  0  0  0  0  0  0  0  0  0
  -24.7350  -11.8010   20.7940 C   0  0  0  0  0  0  0  0  0  0  0  0
  -26.3770  -13.0200   20.1550 N   0  0  0  0  0  0  0  0  0  0  0  0
  -26.0000  -11.7380   20.3990 N   0  0  0  0  0  0  0  0  0  0  0  0
  -23.9840  -10.5520   20.9880 C   0  0  0  0  0  0  0  0  0  0  0  0
  -24.4160   -9.5700   21.9050 C   0  0  0  0  0  3  0  0  0  0  0  0
  -23.6710   -8.3860   22.0900 C   0  0  0  0  0  3  0  0  0  0  0  0
  -22.4750   -8.1780   21.3600 C   0  0  0  0  0  0  0  0  0  0  0  0
  -22.0600   -9.1510   20.4360 C   0  0  0  0  0  3  0  0  0  0  0  0
  -22.8060  -10.3260   20.2470 C   0  0  0  0  0  3  0  0  0  0  0  0
  -21.6950   -7.0520   21.4580 O   0  0  0  0  0  0  0  0  0  0  0  0
  -21.6330   -6.3170   22.6160 C   0  0  0  0  0  0  0  0  0  0  0  0
  -21.1480   -6.8690   23.8210 C   0  0  0  0  0  3  0  0  0  0  0  0
  -21.0340   -6.0590   24.9700 C   0  0  0  0  0  3  0  0  0  0  0  0
  -21.3940   -4.6980   24.9100 C   0  0  0  0  0  0  0  0  0  0  0  0
  -21.8690   -4.1460   23.7080 C   0  0  0  0  0  3  0  0  0  0  0  0
  -21.9860   -4.9540   22.5630 C   0  0  0  0  0  0  0  0  0  0  0  0
  -22.4260   -4.4130   21.4020 F   0  0  0  0  0  0  0  0  0  0  0  0
  -21.2740   -3.9180   26.0090 F   0  0  0  0  0  0  0  0  0  0  0  0
  -22.9540  -13.6660   21.2860 C   0  0  0  0  0  0  0  0  0  0  0  0
  -22.2610  -12.9620   22.1740 N   0  0  0  0  0  0  0  0  0  0  0  0
  -22.5200  -14.7250   20.8370 O   0  0  0  0  0  0  0  0  0  0  0  0
  -22.6240  -12.1070   22.5700 H   0  0  0  0  0  0  0  0  0  0  0  0
  -21.3500  -13.2870   22.4640 H   0  0  0  0  0  0  0  0  0  0  0  0
  -25.5740  -15.2960   20.3840 N   0  0  0  0  0  0  0  0  0  0  0  0
  -24.8420  -15.9440   20.6530 H   0  0  0  0  0  0  0  0  0  0  0  0
  -26.4710  -15.7610   20.2780 H   0  0  0  0  0  0  0  0  0  0  0  0
  -30.2300  -22.8240   21.8210 C   0  0  0  0  0  1  0  0  0  0  0  0
  -29.0030  -22.6840   20.9990 N   0  0  1  0  0  4  0  0  0  0  0  0
  -28.4070  -22.0840   21.5510 H   0  0  0  0  0  0  0  0  0  0  0  0
  -28.2460  -24.0070   20.8730 C   0  0  0  0  0  2  0  0  0  0  0  0
  -28.8560  -25.1880   20.0020 C   0  0  0  0  0  2  0  0  0  0  0  0
  -28.7150  -26.5840   20.4600 O   0  0  0  0  0  0  0  0  0  0  0  0
  -24.6250  -31.7750   23.2270 C   0  0  0  0  0  0  0  0  0  0  0  0
  -27.5460  -27.3330   20.3190 C   0  0  0  0  0  0  0  0  0  0  0  0
  -23.5630  -30.3540   21.5070 C   0  0  0  0  0  3  0  0  0  0  0  0
  -25.1390  -28.8560   20.1600 C   0  0  0  0  0  0  0  0  0  0  0  0
  -26.0920  -30.7580   21.4730 C   0  0  0  0  0  2  0  0  0  0  0  0
  -26.2500  -29.3860   20.8270 C   0  0  0  0  0  0  0  0  0  0  0  0
  -27.4540  -28.6350   20.8970 C   0  0  0  0  0  3  0  0  0  0  0  0
  -26.4150  -26.8410   19.6340 C   0  0  0  0  0  3  0  0  0  0  0  0
  -25.2230  -27.5890   19.5560 C   0  0  0  0  0  3  0  0  0  0  0  0
  -23.8750  -29.6900   20.1390 C   0  0  0  0  0  2  0  0  0  0  0  0
  -24.7770  -30.9780   22.1280 N   0  0  0  0  0  0  0  0  0  0  0  0
  -23.5050  -32.0170   23.6980 O   0  0  0  0  0  0  0  0  0  0  0  0
  -22.8760  -29.3130   22.4210 C   0  0  0  0  0  0  0  0  0  0  0  0
  -21.5590  -29.1240   22.2330 N   0  0  0  0  0  0  0  0  0  0  0  0
  -23.5270  -28.6790   23.2540 O   0  0  0  0  0  0  0  0  0  0  0  0
  -21.0920  -29.6850   21.5330 H   0  0  0  0  0  0  0  0  0  0  0  0
  -18.1640  -27.9470   22.6270 C   0  0  0  0  0  0  0  0  0  0  0  0
  -20.7190  -28.1670   22.9510 C   0  0  0  0  0  3  0  0  0  0  0  0
  -20.8180  -26.7580   22.3190 C   0  0  0  0  0  2  0  0  0  0  0  0
  -19.7310  -26.4880   21.2750 C   0  0  0  0  0  2  0  0  0  0  0  0
  -18.3400  -26.6240   21.9000 C   0  0  0  0  0  2  0  0  0  0  0  0
  -19.2820  -28.6790   23.1060 C   0  0  0  0  0  0  0  0  0  0  0  0
  -19.0660  -29.9210   23.7450 C   0  0  0  0  0  3  0  0  0  0  0  0
  -17.7640  -30.4280   23.9070 C   0  0  0  0  0  3  0  0  0  0  0  0
  -16.6590  -29.6940   23.4450 C   0  0  0  0  0  3  0  0  0  0  0  0
  -16.8610  -28.4530   22.8110 C   0  0  0  0  0  3  0  0  0  0  0  0
  -25.8520  -32.4390   23.9280 C   0  0  0  0  0  3  0  0  0  0  0  0
  -26.2960  -31.6870   25.2420 C   0  0  1  0  0  0  0  0  0  0  0  0
  -25.1360  -31.4200   26.2280 C   0  0  0  0  0  1  0  0  0  0  0  0
  -26.9470  -30.3270   24.9000 C   0  0  0  0  0  1  0  0  0  0  0  0
  -27.3740  -32.5170   25.9840 C   0  0  0  0  0  1  0  0  0  0  0  0
  -25.4960  -33.8330   24.2230 N   0  0  0  0  0  0  0  0  0  0  0  0
  -25.8410  -34.8840   23.4680 C   0  0  0  0  0  0  0  0  0  0  0  0
  -26.5600  -34.7840   22.4710 O   0  0  0  0  0  0  0  0  0  0  0  0
  -24.8670  -33.9870   24.9980 H   0  0  0  0  0  0  0  0  0  0  0  0
  -24.0840  -36.6240   23.0200 C   0  0  0  0  0  1  0  0  0  0  0  0
  -25.3010  -36.2640   23.8870 C   0  0  0  0  0  3  0  0  0  0  0  0
  -27.3620  -37.2300   24.8060 C   0  0  0  0  0  1  0  0  0  0  0  0
  -26.3080  -37.3440   23.8000 N   0  0  0  0  0  0  0  0  0  0  0  0
  -25.8680  -38.2540   23.9050 H   0  0  0  0  0  0  0  0  0  0  0  0
  1  8  2  0
  1 11  1  0
  3  7  1  0
  4  2  1  6
  4  5  1  0
  4  6  1  0
  4  3  1  0
  5  2  1  6
  5  6  1  0
  5  7  1  0
  6 51  1  0
  7  1  1  0
 11 10  1  6
 11  9  1  0
 12 20  1  0
 13 18  1  0
 14 15  1  0
 14 13  1  0
 16 15  1  0
 16 25  1  0
 16 17  1  0
 18 12  1  0
 18 17  1  0
 19 12  2  0
 20 21  1  0
 20 11  1  0
 22 23  2  0
 23 42  1  0
 24 23  1  0
 24 27  1  0
 25 26  1  0
 25 22  1  0
 26 24  2  0
 27 28  1  0
 28 29  2  0
 30 33  1  0
 30 29  1  0
 31 30  2  0
 32 31  1  0
 32 27  2  0
 33 34  1  0
 34 35  1  0
 35 36  2  0
 37 36  1  0
 37 41  1  0
 38 37  2  0
 39 34  2  0
 39 38  1  0
 40 39  1  0
 42 43  1  0
 43 46  1  0
 43 45  1  0
 44 42  2  0
 47 22  1  0
 47 48  1  0
 49 47  1  0
 51 52  1  1
 51 50  1  0
 53 51  1  0
 54 55  1  0
 54 53  1  0
 56 67  2  0
 57 55  1  0
 57 62  1  0
 58 66  1  0
 58 68  1  0
 59 61  1  0
 60 66  1  0
 61 62  2  0
 61 60  1  0
 63 57  2  0
 64 63  1  0
 64 59  2  0
 65 59  1  0
 65 58  1  0
 66 56  1  0
 68 70  2  0
 69 68  1  0
 71 69  1  0
 72 81  2  0
 72 77  1  0
 73 69  1  0
 73 77  1  0
 74 73  1  0
 75 76  1  0
 75 74  1  0
 76 72  1  0
 77 78  2  0
 78 79  1  0
 80 79  2  0
 81 80  1  0
 82 56  1  0
 82 87  1  0
 82 83  1  0
 83 86  1  1
 83 84  1  0
 85 83  1  0
 87 90  1  0
 88 92  1  0
 88 87  1  0
 89 88  2  0
 92 91  1  0
 94 92  1  0
 94 95  1  0
 94 93  1  0
M  ISO  4  12 100  20 100  54 101  55 101
M  END
>  <TORSDO>  (56) 
F 20

>  <SCORE>  (56) 
-13.953

>  <name>  (56) 
55

>  <ligand_id>  (56) 
55

>  <original_smiles>  (56) 
[H]c1c([H])c([H])c2c(c1[H])C([H])([H])C([H])([H])C([H])([H])C2([H])N([H])C(=O)C1([H])N(C(=O)C([H])(N([H])C(=O)C([H])(N([H])C([H])([H])[H])C([H])([H])[H])C(C([H])([H])[H])(C([H])([H])[H])C([H])([H])[H])C([H])([H])c2c([H])c(OC([H])([H])C([H])([H])[N+]([H])(C([H])([H])[H])C3([H])C4([H])N(C(=O)C(N([H])C(=O)N5C([H])([H])C([H])([H])C([H])([H])C([H])(n6nc(-c7c([H])c([H])c(Oc8c([H])c([H])c(F)c([H])c8F)c([H])c7[H])c(C(=O)N([H])[H])c6N([H])[H])C5([H])[H])(C([H])([H])[H])C([H])([H])[H])C([H])([H])C3([H])C4([H])[H])c([H])c([H])c2C1([H])[H]

>  <smiles>  (56) 
[H]c1c([H])c([H])c2c(c1[H])C([H])([H])C([H])([H])C([H])([H])C2([H])N([H])C(=O)C1([H])N(C(=O)C([H])(N([H])C(=O)C([H])(N([H])C([H])([H])[H])C([H])([H])[H])C(C([H])([H])[H])(C([H])([H])[H])C([H])([H])[H])C([H])([H])c2c([H])c(OC([H])([H])C([H])([H])[N+]([H])(C([H])([H])[H])C3([H])C4([H])N(C(=O)C(N([H])C(=O)N5C([H])([H])C([H])([H])C([H])([H])C([H])(n6nc(-c7c([H])c([H])c(Oc8c([H])c([H])c(F)c([H])c8F)c([H])c7[H])c(C(=O)N([H])[H])c6N([H])[H])C5([H])[H])(C([H])([H])[H])C([H])([H])[H])C([H])([H])C3([H])C4([H])[H])c([H])c([H])c2C1([H])[H]

$$$$
56:0:0
     RDKit          3D

 92100  0  0  1  0  0  0  0  0999 V2000
  -30.1920  -22.3680   19.9720 C   0  0  0  0  0  2  0  0  0  0  0  0
  -28.3820  -21.0780   20.5360 C   0  0  0  0  0  2  0  0  0  0  0  0
  -30.5570  -20.7890   19.8970 C   0  0  0  0  0  3  0  0  0  0  0  0
  -28.6640  -22.6830   19.9540 C   0  0  2  0  0  0  0  0  0  0  0  0
  -29.3380  -19.7610   19.9580 C   0  0  2  0  0  0  0  0  0  0  0  0
  -31.5880  -20.4910   18.7920 C   0  0  0  0  0  1  0  0  0  0  0  0
  -28.1950  -22.7250   18.4860 C   0  0  0  0  0  1  0  0  0  0  0  0
  -28.8460  -19.4320   18.6100 N   0  0  0  0  0  4  0  0  0  0  0  0
  -28.6970  -20.2670   18.0720 H   0  0  0  0  0  0  0  0  0  0  0  0
  -27.9770  -18.9320   18.6690 H   0  0  0  0  0  0  0  0  0  0  0  0
  -29.5080  -18.8490   18.1280 H   0  0  0  0  0  0  0  0  0  0  0  0
  -28.0590  -24.2770   20.5700 C   0  0  0  0  0  2  0  0  0  0  0  0
  -28.2430  -25.8850   20.2420 O   0  0  0  0  0  0  0  0  0  0  0  0
  -24.6330  -31.8520   23.2060 C   0  0  0  0  0  0  0  0  0  0  0  0
  -27.2090  -26.9600   20.2420 C   0  0  0  0  0  0  0  0  0  0  0  0
  -23.4470  -30.4410   21.5750 C   0  0  0  0  0  3  0  0  0  0  0  0
  -24.9020  -28.8260   20.1740 C   0  0  0  0  0  0  0  0  0  0  0  0
  -26.0130  -30.6600   21.4330 C   0  0  0  0  0  2  0  0  0  0  0  0
  -26.0890  -29.2440   20.7910 C   0  0  0  0  0  0  0  0  0  0  0  0
  -27.2410  -28.3340   20.7930 C   0  0  0  0  0  3  0  0  0  0  0  0
  -25.9900  -26.6890   19.5840 C   0  0  0  0  0  3  0  0  0  0  0  0
  -24.8770  -27.5680   19.5500 C   0  0  0  0  0  3  0  0  0  0  0  0
  -23.6820  -29.7460   20.2060 C   0  0  0  0  0  2  0  0  0  0  0  0
  -24.7190  -31.0110   22.1250 N   0  0  0  0  0  0  0  0  0  0  0  0
  -23.5410  -32.1430   23.7220 O   0  0  0  0  0  0  0  0  0  0  0  0
  -22.7520  -29.4500   22.5460 C   0  0  0  0  0  0  0  0  0  0  0  0
  -21.4210  -29.2890   22.4240 N   0  0  0  0  0  0  0  0  0  0  0  0
  -23.4180  -28.8270   23.3780 O   0  0  0  0  0  0  0  0  0  0  0  0
  -20.9380  -29.8430   21.7310 H   0  0  0  0  0  0  0  0  0  0  0  0
  -18.0370  -28.0880   22.9430 C   0  0  0  0  0  0  0  0  0  0  0  0
  -20.5970  -28.3560   23.2010 C   0  0  0  0  0  3  0  0  0  0  0  0
  -20.6980  -26.9200   22.6330 C   0  0  0  0  0  2  0  0  0  0  0  0
  -19.5940  -26.5920   21.6220 C   0  0  0  0  0  2  0  0  0  0  0  0
  -18.2140  -26.7370   22.2680 C   0  0  0  0  0  2  0  0  0  0  0  0
  -19.1560  -28.8540   23.3650 C   0  0  0  0  0  0  0  0  0  0  0  0
  -18.9350  -30.1160   23.9590 C   0  0  0  0  0  3  0  0  0  0  0  0
  -17.6290  -30.6120   24.1320 C   0  0  0  0  0  3  0  0  0  0  0  0
  -16.5250  -29.8430   23.7220 C   0  0  0  0  0  3  0  0  0  0  0  0
  -16.7310  -28.5820   23.1340 C   0  0  0  0  0  3  0  0  0  0  0  0
  -25.9000  -32.5020   23.8390 C   0  0  0  0  0  3  0  0  0  0  0  0
  -26.4070  -31.7450   25.1290 C   0  0  1  0  0  0  0  0  0  0  0  0
  -25.3060  -31.5160   26.1910 C   0  0  0  0  0  1  0  0  0  0  0  0
  -26.9950  -30.3620   24.7620 C   0  0  0  0  0  1  0  0  0  0  0  0
  -27.5520  -32.5470   25.7910 C   0  0  0  0  0  1  0  0  0  0  0  0
  -25.5750  -33.9010   24.1690 N   0  0  0  0  0  0  0  0  0  0  0  0
  -25.9020  -34.9630   23.4220 C   0  0  0  0  0  0  0  0  0  0  0  0
  -26.5710  -34.8700   22.3890 O   0  0  0  0  0  0  0  0  0  0  0  0
  -24.9800  -34.0460   24.9710 H   0  0  0  0  0  0  0  0  0  0  0  0
  -24.1640  -36.7560   23.0910 C   0  0  0  0  0  1  0  0  0  0  0  0
  -25.4120  -36.3490   23.8910 C   0  0  0  0  0  3  0  0  0  0  0  0
  -27.5480  -37.2420   24.7110 C   0  0  0  0  0  1  0  0  0  0  0  0
  -26.4380  -37.4080   23.7760 N   0  0  0  0  0  0  0  0  0  0  0  0
  -26.0290  -38.3260   23.9300 H   0  0  0  0  0  0  0  0  0  0  0  0
  -29.8190  -18.1680   20.6730 C   0  0  0  0  0  2  0  0  0  0  0  0
  -30.3760  -15.2850   20.2460 C   0  0  0  0  0  0  0  0  0  0  0  0
  -30.3490  -12.8490   19.3390 C   0  0  0  0  0  2  0  0  0  0  0  0
  -29.4140  -12.6340   18.1220 C   0  0  0  0  0  2  0  0  0  0  0  0
  -27.9690  -12.3650   18.5770 C   0  0  0  0  0  2  0  0  0  0  0  0
  -27.5270  -13.3300   19.7070 C   0  0  0  0  0  3  0  0  0  0  0  0
  -28.5870  -13.4760   20.8170 C   0  0  0  0  0  2  0  0  0  0  0  0
  -29.8040  -13.9860   20.1640 N   0  0  0  0  0  0  0  0  0  0  0  0
  -31.6060  -15.2820   20.0890 O   0  0  0  0  0  0  0  0  0  0  0  0
  -29.6040  -16.5510   20.3000 N   0  0  0  0  0  0  0  0  0  0  0  0
  -28.6210  -16.3320   20.2580 H   0  0  0  0  0  0  0  0  0  0  0  0
  -25.1610  -13.8880   20.4760 C   0  0  0  0  0  0  0  0  0  0  0  0
  -24.1020  -13.1110   20.8510 C   0  0  0  0  0  0  0  0  0  0  0  0
  -24.5720  -11.7610   20.8230 C   0  0  0  0  0  0  0  0  0  0  0  0
  -26.2040  -13.0140   20.2280 N   0  0  0  0  0  0  0  0  0  0  0  0
  -25.8630  -11.7290   20.5080 N   0  0  0  0  0  0  0  0  0  0  0  0
  -23.8470  -10.4990   21.0180 C   0  0  0  0  0  0  0  0  0  0  0  0
  -24.2830   -9.5320   21.9510 C   0  0  0  0  0  3  0  0  0  0  0  0
  -23.5560   -8.3360   22.1360 C   0  0  0  0  0  3  0  0  0  0  0  0
  -22.3780   -8.0990   21.3870 C   0  0  0  0  0  0  0  0  0  0  0  0
  -21.9610   -9.0550   20.4440 C   0  0  0  0  0  3  0  0  0  0  0  0
  -22.6890  -10.2410   20.2580 C   0  0  0  0  0  3  0  0  0  0  0  0
  -21.6220   -6.9550   21.4810 O   0  0  0  0  0  0  0  0  0  0  0  0
  -21.5820   -6.2120   22.6340 C   0  0  0  0  0  0  0  0  0  0  0  0
  -21.1720   -6.7680   23.8650 C   0  0  0  0  0  3  0  0  0  0  0  0
  -21.0800   -5.9510   25.0100 C   0  0  0  0  0  3  0  0  0  0  0  0
  -21.3870   -4.5800   24.9250 C   0  0  0  0  0  0  0  0  0  0  0  0
  -21.7890   -4.0240   23.6970 C   0  0  0  0  0  3  0  0  0  0  0  0
  -21.8830   -4.8370   22.5550 C   0  0  0  0  0  0  0  0  0  0  0  0
  -22.2510   -4.2920   21.3700 F   0  0  0  0  0  0  0  0  0  0  0  0
  -21.2900   -3.7930   26.0220 F   0  0  0  0  0  0  0  0  0  0  0  0
  -22.7050  -13.5870   21.1190 C   0  0  0  0  0  0  0  0  0  0  0  0
  -21.9780  -12.8950   21.9890 N   0  0  0  0  0  0  0  0  0  0  0  0
  -22.2680  -14.6100   20.5930 O   0  0  0  0  0  0  0  0  0  0  0  0
  -22.3450  -12.0680   22.4360 H   0  0  0  0  0  0  0  0  0  0  0  0
  -21.0400  -13.1970   22.2120 H   0  0  0  0  0  0  0  0  0  0  0  0
  -25.3180  -15.2590   20.2910 N   0  0  0  0  0  0  0  0  0  0  0  0
  -24.5420  -15.9040   20.3980 H   0  0  0  0  0  0  0  0  0  0  0  0
  -26.1480  -15.6970   19.9170 H   0  0  0  0  0  0  0  0  0  0  0  0
  3  6  1  0
  3  5  1  0
  3  1  1  0
  4  7  1  6
  4  1  1  0
  4  2  1  0
  4 12  1  0
  5  2  1  0
  5 54  1  1
  8 10  1  0
  8  5  1  0
  9  8  1  0
 11  8  1  0
 13 12  1  0
 14 25  2  0
 15 13  1  0
 15 20  1  0
 16 24  1  0
 16 26  1  0
 17 23  1  0
 17 19  1  0
 18 24  1  0
 19 20  2  0
 19 18  1  0
 21 15  2  0
 22 21  1  0
 22 17  2  0
 23 16  1  0
 24 14  1  0
 26 28  2  0
 27 26  1  0
 29 27  1  0
 30 39  2  0
 30 35  1  0
 31 27  1  0
 31 35  1  0
 32 31  1  0
 33 34  1  0
 33 32  1  0
 34 30  1  0
 35 36  2  0
 36 37  1  0
 38 37  2  0
 39 38  1  0
 40 14  1  0
 40 45  1  0
 40 41  1  0
 41 44  1  1
 41 42  1  0
 43 41  1  0
 45 48  1  0
 46 50  1  0
 46 45  1  0
 47 46  2  0
 50 49  1  0
 52 50  1  0
 52 53  1  0
 52 51  1  0
 55 63  1  0
 56 61  1  0
 57 58  1  0
 57 56  1  0
 59 58  1  0
 59 68  1  0
 59 60  1  0
 61 55  1  0
 61 60  1  0
 62 55  2  0
 63 54  1  0
 64 63  1  0
 65 66  2  0
 66 85  1  0
 67 66  1  0
 67 70  1  0
 68 65  1  0
 68 69  1  0
 69 67  2  0
 70 71  1  0
 71 72  2  0
 73 76  1  0
 73 72  1  0
 74 73  2  0
 75 74  1  0
 75 70  2  0
 76 77  1  0
 77 78  1  0
 78 79  2  0
 80 79  1  0
 80 84  1  0
 81 80  2  0
 82 77  2  0
 82 81  1  0
 83 82  1  0
 85 86  1  0
 86 89  1  0
 86 88  1  0
 87 85  2  0
 90 91  1  0
 90 65  1  0
 92 90  1  0
M  ISO  4  12 101  13 101  55 100  63 100
M  END
>  <TORSDO>  (57) 
F 19

>  <SCORE>  (57) 
-16.486

>  <name>  (57) 
56

>  <ligand_id>  (57) 
56

>  <original_smiles>  (57) 
[H]c1c([H])c([H])c2c(c1[H])C([H])([H])C([H])([H])C([H])([H])C2([H])N([H])C(=O)C1([H])N(C(=O)C([H])(N([H])C(=O)C([H])(N([H])C([H])([H])[H])C([H])([H])[H])C(C([H])([H])[H])(C([H])([H])[H])C([H])([H])[H])C([H])([H])c2c([H])c(OC([H])([H])C3(C([H])([H])[H])C([H])([H])C([H])(C([H])([H])[H])C(C([H])([H])N([H])C(=O)N4C([H])([H])C([H])([H])C([H])([H])C([H])(n5nc(-c6c([H])c([H])c(Oc7c([H])c([H])c(F)c([H])c7F)c([H])c6[H])c(C(=O)N([H])[H])c5N([H])[H])C4([H])[H])([N+]([H])([H])[H])C3([H])[H])c([H])c([H])c2C1([H])[H]

>  <smiles>  (57) 
[H]c1c([H])c([H])c2c(c1[H])C([H])([H])C([H])([H])C([H])([H])C2([H])N([H])C(=O)C1([H])N(C(=O)C([H])(N([H])C(=O)C([H])(N([H])C([H])([H])[H])C([H])([H])[H])C(C([H])([H])[H])(C([H])([H])[H])C([H])([H])[H])C([H])([H])c2c([H])c(OC([H])([H])C3(C([H])([H])[H])C([H])([H])C([H])(C([H])([H])[H])C(C([H])([H])N([H])C(=O)N4C([H])([H])C([H])([H])C([H])([H])C([H])(n5nc(-c6c([H])c([H])c(Oc7c([H])c([H])c(F)c([H])c7F)c([H])c6[H])c(C(=O)N([H])[H])c5N([H])[H])C4([H])[H])([N+]([H])([H])[H])C3([H])[H])c([H])c([H])c2C1([H])[H]

$$$$
57:0:0
     RDKit          3D

 94101  0  0  1  0  0  0  0  0999 V2000
  -30.2260  -20.6840   21.3440 C   0  0  0  0  0  2  0  0  0  0  0  0
  -29.6630  -19.2540   21.0330 C   0  0  0  0  0  2  0  0  0  0  0  0
  -30.5970  -17.9710   21.0210 C   0  0  0  0  0  2  0  0  0  0  0  0
  -29.8000  -16.6120   21.1670 C   0  0  0  0  0  3  0  0  0  0  0  0
  -30.7820  -14.5010   20.0360 C   0  0  0  0  0  0  0  0  0  0  0  0
  -30.3960  -12.3120   18.9200 C   0  0  0  0  0  2  0  0  0  0  0  0
  -29.3940  -12.4280   17.7530 C   0  0  0  0  0  2  0  0  0  0  0  0
  -27.9550  -12.2370   18.2600 C   0  0  0  0  0  2  0  0  0  0  0  0
  -27.6450  -13.1300   19.4870 C   0  0  0  0  0  3  0  0  0  0  0  0
  -28.7610  -13.0250   20.5630 C   0  0  0  0  0  2  0  0  0  0  0  0
  -30.0640  -13.3330   19.9400 N   0  0  0  0  0  0  0  0  0  0  0  0
  -31.7530  -14.7230   19.3130 O   0  0  0  0  0  0  0  0  0  0  0  0
  -30.5620  -15.3260   21.0910 N   0  0  0  0  0  0  0  0  0  0  0  0
  -31.4010  -15.3980   21.6470 H   0  0  0  0  0  0  0  0  0  0  0  0
  -25.2670  -13.7290   20.2880 C   0  0  0  0  0  0  0  0  0  0  0  0
  -24.2340  -12.9620   20.7480 C   0  0  0  0  0  0  0  0  0  0  0  0
  -24.6980  -11.6150   20.6950 C   0  0  0  0  0  0  0  0  0  0  0  0
  -26.3160  -12.8560   20.0320 N   0  0  0  0  0  0  0  0  0  0  0  0
  -25.9720  -11.5760   20.3230 N   0  0  0  0  0  0  0  0  0  0  0  0
  -23.9780  -10.3560   20.9110 C   0  0  0  0  0  0  0  0  0  0  0  0
  -24.4340   -9.3970   21.8410 C   0  0  0  0  0  3  0  0  0  0  0  0
  -23.7110   -8.2020   22.0460 C   0  0  0  0  0  3  0  0  0  0  0  0
  -22.5210   -7.9600   21.3230 C   0  0  0  0  0  0  0  0  0  0  0  0
  -22.0810   -8.9090   20.3840 C   0  0  0  0  0  3  0  0  0  0  0  0
  -22.8040  -10.0950   20.1760 C   0  0  0  0  0  3  0  0  0  0  0  0
  -21.7680   -6.8160   21.4410 O   0  0  0  0  0  0  0  0  0  0  0  0
  -21.7180   -6.1090   22.6150 C   0  0  0  0  0  0  0  0  0  0  0  0
  -21.2840   -6.6990   23.8220 C   0  0  0  0  0  3  0  0  0  0  0  0
  -21.1870   -5.9160   24.9900 C   0  0  0  0  0  3  0  0  0  0  0  0
  -21.5100   -4.5460   24.9500 C   0  0  0  0  0  0  0  0  0  0  0  0
  -21.9380   -3.9580   23.7470 C   0  0  0  0  0  3  0  0  0  0  0  0
  -22.0410   -4.7370   22.5820 C   0  0  0  0  0  0  0  0  0  0  0  0
  -22.4330   -4.1620   21.4200 F   0  0  0  0  0  0  0  0  0  0  0  0
  -21.4060   -3.7940   26.0700 F   0  0  0  0  0  0  0  0  0  0  0  0
  -22.8580  -13.4460   21.0970 C   0  0  0  0  0  0  0  0  0  0  0  0
  -22.1820  -12.7650   22.0170 N   0  0  0  0  0  0  0  0  0  0  0  0
  -22.3930  -14.4650   20.5900 O   0  0  0  0  0  0  0  0  0  0  0  0
  -22.5710  -11.9410   22.4490 H   0  0  0  0  0  0  0  0  0  0  0  0
  -21.2620  -13.0760   22.2950 H   0  0  0  0  0  0  0  0  0  0  0  0
  -25.3580  -15.0880   20.0190 N   0  0  0  0  0  0  0  0  0  0  0  0
  -24.4520  -15.5470   19.9770 H   0  0  0  0  0  0  0  0  0  0  0  0
  -25.9240  -15.3170   19.2080 H   0  0  0  0  0  0  0  0  0  0  0  0
  -28.6610  -16.5710   20.1600 C   0  0  0  0  0  0  0  0  0  0  0  0
  -27.4760  -16.2830   20.6600 N   0  0  0  0  0  0  0  0  0  0  0  0
  -28.8530  -16.7670   18.9610 O   0  0  0  0  0  0  0  0  0  0  0  0
  -27.3530  -16.1360   21.6500 H   0  0  0  0  0  0  0  0  0  0  0  0
  -26.7040  -16.0660   20.0160 H   0  0  0  0  0  0  0  0  0  0  0  0
  -29.4580  -21.8570   20.6200 C   0  0  0  0  0  2  0  0  0  0  0  0
  -29.5740  -23.2030   21.2260 N   0  0  0  0  0  4  0  0  0  0  0  0
  -29.1060  -23.1910   22.1210 H   0  0  0  0  0  0  0  0  0  0  0  0
  -30.5380  -23.3910   21.4500 H   0  0  0  0  0  0  0  0  0  0  0  0
  -29.0360  -24.2960   20.3700 C   0  0  0  0  0  2  0  0  0  0  0  0
  -28.8650  -25.6760   21.1040 C   0  0  0  0  0  2  0  0  0  0  0  0
  -28.7020  -26.8200   20.2280 O   0  0  0  0  0  0  0  0  0  0  0  0
  -24.6870  -31.9570   23.2410 C   0  0  0  0  0  0  0  0  0  0  0  0
  -27.5080  -27.5230   20.2780 C   0  0  0  0  0  0  0  0  0  0  0  0
  -23.5470  -30.5070   21.5920 C   0  0  0  0  0  3  0  0  0  0  0  0
  -25.0700  -28.9800   20.2200 C   0  0  0  0  0  0  0  0  0  0  0  0
  -26.0670  -30.9220   21.4360 C   0  0  0  0  0  2  0  0  0  0  0  0
  -26.2030  -29.5400   20.8230 C   0  0  0  0  0  0  0  0  0  0  0  0
  -27.4260  -28.8200   20.8470 C   0  0  0  0  0  3  0  0  0  0  0  0
  -26.3580  -26.9820   19.6670 C   0  0  0  0  0  3  0  0  0  0  0  0
  -25.1420  -27.6990   19.6410 C   0  0  0  0  0  3  0  0  0  0  0  0
  -23.8030  -29.8100   20.2270 C   0  0  0  0  0  2  0  0  0  0  0  0
  -24.7830  -31.1490   22.1470 N   0  0  0  0  0  0  0  0  0  0  0  0
  -23.5890  -32.2080   23.7590 O   0  0  0  0  0  0  0  0  0  0  0  0
  -22.9010  -29.4850   22.5530 C   0  0  0  0  0  0  0  0  0  0  0  0
  -21.5780  -29.2920   22.4220 N   0  0  0  0  0  0  0  0  0  0  0  0
  -23.5890  -28.8650   23.3700 O   0  0  0  0  0  0  0  0  0  0  0  0
  -21.0910  -29.8430   21.7310 H   0  0  0  0  0  0  0  0  0  0  0  0
  -18.2080  -28.0960   22.9420 C   0  0  0  0  0  0  0  0  0  0  0  0
  -20.7670  -28.3480   23.1920 C   0  0  0  0  0  3  0  0  0  0  0  0
  -20.8620  -26.9230   22.6020 C   0  0  0  0  0  2  0  0  0  0  0  0
  -19.7530  -26.6160   21.5900 C   0  0  0  0  0  2  0  0  0  0  0  0
  -18.3750  -26.7560   22.2440 C   0  0  0  0  0  2  0  0  0  0  0  0
  -19.3320  -28.8510   23.3720 C   0  0  0  0  0  0  0  0  0  0  0  0
  -19.1220  -30.1050   23.9820 C   0  0  0  0  0  3  0  0  0  0  0  0
  -17.8200  -30.6060   24.1690 C   0  0  0  0  0  3  0  0  0  0  0  0
  -16.7100  -29.8500   23.7570 C   0  0  0  0  0  3  0  0  0  0  0  0
  -16.9040  -28.5970   23.1470 C   0  0  0  0  0  3  0  0  0  0  0  0
  -25.9460  -32.6260   23.8770 C   0  0  0  0  0  3  0  0  0  0  0  0
  -25.6040  -34.0220   24.1770 N   0  0  0  0  0  0  0  0  0  0  0  0
  -25.9160  -35.0660   23.3950 C   0  0  0  0  0  0  0  0  0  0  0  0
  -26.5920  -34.9550   22.3690 O   0  0  0  0  0  0  0  0  0  0  0  0
  -25.0010  -34.1800   24.9710 H   0  0  0  0  0  0  0  0  0  0  0  0
  -24.1360  -36.7990   23.0030 C   0  0  0  0  0  1  0  0  0  0  0  0
  -25.3930  -36.4500   23.8160 C   0  0  0  0  0  3  0  0  0  0  0  0
  -27.5050  -37.4180   24.6130 C   0  0  0  0  0  1  0  0  0  0  0  0
  -26.3960  -37.5270   23.6680 N   0  0  0  0  0  0  0  0  0  0  0  0
  -25.9640  -38.4400   23.7910 H   0  0  0  0  0  0  0  0  0  0  0  0
  -26.4520  -31.8870   25.1770 C   0  0  1  0  0  0  0  0  0  0  0  0
  -25.3420  -31.6390   26.2260 C   0  0  0  0  0  1  0  0  0  0  0  0
  -27.0750  -30.5180   24.8180 C   0  0  0  0  0  1  0  0  0  0  0  0
  -27.5680  -32.7200   25.8500 C   0  0  0  0  0  1  0  0  0  0  0  0
  2  1  1  0
  3  2  1  0
  4  3  1  0
  5 13  1  0
  6 11  1  0
  7  8  1  0
  7  6  1  0
  9  8  1  0
  9 18  1  0
  9 10  1  0
 11  5  1  0
 11 10  1  0
 12  5  2  0
 13  4  1  0
 13 14  1  0
 15 16  2  0
 16 35  1  0
 17 16  1  0
 17 20  1  0
 18 15  1  0
 18 19  1  0
 19 17  2  0
 20 21  1  0
 21 22  2  0
 23 26  1  0
 23 22  1  0
 24 23  2  0
 25 24  1  0
 25 20  2  0
 26 27  1  0
 27 28  1  0
 28 29  2  0
 30 29  1  0
 30 34  1  0
 31 30  2  0
 32 27  2  0
 32 31  1  0
 33 32  1  0
 35 36  1  0
 36 39  1  0
 36 38  1  0
 37 35  2  0
 40 15  1  0
 41 40  1  0
 42 40  1  0
 43 44  1  0
 43  4  1  0
 44 46  1  0
 45 43  2  0
 47 44  1  0
 48 49  1  0
 48  1  1  0
 49 51  1  0
 49 50  1  0
 52 53  1  0
 52 49  1  0
 54 56  1  0
 54 53  1  0
 55 66  2  0
 56 61  1  0
 57 65  1  0
 57 67  1  0
 58 64  1  0
 58 60  1  0
 59 65  1  0
 60 61  2  0
 60 59  1  0
 62 56  2  0
 63 62  1  0
 63 58  2  0
 64 57  1  0
 65 55  1  0
 67 69  2  0
 68 67  1  0
 70 68  1  0
 71 80  2  0
 71 76  1  0
 72 68  1  0
 72 76  1  0
 73 72  1  0
 74 75  1  0
 74 73  1  0
 75 71  1  0
 76 77  2  0
 77 78  1  0
 79 78  2  0
 80 79  1  0
 81 55  1  0
 81 82  1  0
 81 91  1  0
 82 85  1  0
 83 87  1  0
 83 82  1  0
 84 83  2  0
 87 86  1  0
 89 90  1  0
 89 87  1  0
 89 88  1  0
 91 94  1  1
 91 92  1  0
 93 91  1  0
M  ISO  4   5 100  13 100  53 101  54 101
M  END
>  <TORSDO>  (58) 
F 24

>  <SCORE>  (58) 
-12.053

>  <name>  (58) 
57

>  <ligand_id>  (58) 
57

>  <original_smiles>  (58) 
[H]c1c([H])c([H])c2c(c1[H])C([H])([H])C([H])([H])C([H])([H])C2([H])N([H])C(=O)C1([H])N(C(=O)C([H])(N([H])C(=O)C([H])(N([H])C([H])([H])[H])C([H])([H])[H])C(C([H])([H])[H])(C([H])([H])[H])C([H])([H])[H])C([H])([H])c2c([H])c(OC([H])([H])C([H])([H])[N+]([H])([H])C([H])([H])C([H])([H])C([H])([H])C([H])([H])C([H])(C(=O)N([H])[H])N([H])C(=O)N3C([H])([H])C([H])([H])C([H])([H])C([H])(n4nc(-c5c([H])c([H])c(Oc6c([H])c([H])c(F)c([H])c6F)c([H])c5[H])c(C(=O)N([H])[H])c4N([H])[H])C3([H])[H])c([H])c([H])c2C1([H])[H]

>  <smiles>  (58) 
[H]c1c([H])c([H])c2c(c1[H])C([H])([H])C([H])([H])C([H])([H])C2([H])N([H])C(=O)C1([H])N(C(=O)C([H])(N([H])C(=O)C([H])(N([H])C([H])([H])[H])C([H])([H])[H])C(C([H])([H])[H])(C([H])([H])[H])C([H])([H])[H])C([H])([H])c2c([H])c(OC([H])([H])C([H])([H])[N+]([H])([H])C([H])([H])C([H])([H])C([H])([H])C([H])([H])C([H])(C(=O)N([H])[H])N([H])C(=O)N3C([H])([H])C([H])([H])C([H])([H])C([H])(n4nc(-c5c([H])c([H])c(Oc6c([H])c([H])c(F)c([H])c6F)c([H])c5[H])c(C(=O)N([H])[H])c4N([H])[H])C3([H])[H])c([H])c([H])c2C1([H])[H]

$$$$
58:0:0
     RDKit          3D

 90 99  0  0  1  0  0  0  0  0999 V2000
  -30.0010  -18.4240   18.8780 C   0  0  0  0  0  2  0  0  0  0  0  0
  -29.4750  -18.7670   21.2820 C   0  0  0  0  0  2  0  0  0  0  0  0
  -28.7230  -21.4520   21.5000 C   0  0  0  0  0  2  0  0  0  0  0  0
  -29.1940  -19.8080   18.7890 C   0  0  0  0  0  2  0  0  0  0  0  0
  -30.2390  -17.7690   20.2970 C   0  0  0  0  0  3  0  0  0  0  0  0
  -29.7430  -20.3510   21.0920 C   0  0  0  0  0  3  0  0  0  0  0  0
  -28.7280  -22.0820   20.0810 C   0  0  0  0  0  3  0  0  0  0  0  0
  -29.6580  -20.8990   19.7190 N   0  0  2  0  0  4  0  0  0  0  0  0
  -30.5660  -21.2310   19.4260 H   0  0  0  0  0  0  0  0  0  0  0  0
  -30.7890  -15.0900   20.3440 C   0  0  0  0  0  0  0  0  0  0  0  0
  -30.7190  -12.7170   19.5030 C   0  0  0  0  0  2  0  0  0  0  0  0
  -29.8240  -12.6300   18.2450 C   0  0  0  0  0  2  0  0  0  0  0  0
  -28.3480  -12.4270   18.6390 C   0  0  0  0  0  2  0  0  0  0  0  0
  -27.8960  -13.4000   19.7600 C   0  0  0  0  0  3  0  0  0  0  0  0
  -28.9130  -13.4560   20.9200 C   0  0  0  0  0  2  0  0  0  0  0  0
  -30.2090  -13.8320   20.3410 N   0  0  0  0  0  0  0  0  0  0  0  0
  -31.9910  -15.1880   20.0820 O   0  0  0  0  0  0  0  0  0  0  0  0
  -29.9720  -16.2320   20.4350 N   0  0  0  0  0  0  0  0  0  0  0  0
  -29.0050  -15.9980   20.6050 H   0  0  0  0  0  0  0  0  0  0  0  0
  -25.4960  -13.9850   20.4360 C   0  0  0  0  0  0  0  0  0  0  0  0
  -24.4240  -13.2120   20.7860 C   0  0  0  0  0  0  0  0  0  0  0  0
  -24.8910  -11.8610   20.7740 C   0  0  0  0  0  0  0  0  0  0  0  0
  -26.5460  -13.1080   20.2260 N   0  0  0  0  0  0  0  0  0  0  0  0
  -26.1890  -11.8250   20.4950 N   0  0  0  0  0  0  0  0  0  0  0  0
  -24.1620  -10.5990   20.9520 C   0  0  0  0  0  0  0  0  0  0  0  0
  -24.5390   -9.6600   21.9370 C   0  0  0  0  0  3  0  0  0  0  0  0
  -23.8100   -8.4630   22.1020 C   0  0  0  0  0  3  0  0  0  0  0  0
  -22.6890   -8.1960   21.2800 C   0  0  0  0  0  0  0  0  0  0  0  0
  -22.3310   -9.1240   20.2860 C   0  0  0  0  0  3  0  0  0  0  0  0
  -23.0620  -10.3110   20.1190 C   0  0  0  0  0  3  0  0  0  0  0  0
  -21.9350   -7.0480   21.3520 O   0  0  0  0  0  0  0  0  0  0  0  0
  -21.7710   -6.3680   22.5310 C   0  0  0  0  0  0  0  0  0  0  0  0
  -21.1460   -6.9590   23.6520 C   0  0  0  0  0  3  0  0  0  0  0  0
  -20.9350   -6.2010   24.8210 C   0  0  0  0  0  3  0  0  0  0  0  0
  -21.3380   -4.8520   24.8690 C   0  0  0  0  0  0  0  0  0  0  0  0
  -21.9560   -4.2620   23.7520 C   0  0  0  0  0  3  0  0  0  0  0  0
  -22.1690   -5.0170   22.5860 C   0  0  0  0  0  0  0  0  0  0  0  0
  -22.7450   -4.4370   21.5060 F   0  0  0  0  0  0  0  0  0  0  0  0
  -21.1280   -4.1210   25.9880 F   0  0  0  0  0  0  0  0  0  0  0  0
  -23.0190  -13.6880   21.0180 C   0  0  0  0  0  0  0  0  0  0  0  0
  -22.2720  -13.0010   21.8740 N   0  0  0  0  0  0  0  0  0  0  0  0
  -22.5930  -14.7060   20.4750 O   0  0  0  0  0  0  0  0  0  0  0  0
  -22.6290  -12.1750   22.3340 H   0  0  0  0  0  0  0  0  0  0  0  0
  -21.3300  -13.3050   22.0750 H   0  0  0  0  0  0  0  0  0  0  0  0
  -25.6590  -15.3560   20.2520 N   0  0  0  0  0  0  0  0  0  0  0  0
  -24.8800  -16.0010   20.3320 H   0  0  0  0  0  0  0  0  0  0  0  0
  -26.4980  -15.7930   19.8960 H   0  0  0  0  0  0  0  0  0  0  0  0
  -29.1710  -23.6710   19.8460 C   0  0  0  0  0  3  0  0  0  0  0  0
  -28.0700  -24.9120   19.8490 C   0  0  0  0  0  3  0  0  0  0  0  0
  -28.3560  -26.4270   19.8870 O   0  0  0  0  0  0  0  0  0  0  0  0
  -24.7000  -31.8270   23.2670 C   0  0  0  0  0  0  0  0  0  0  0  0
  -27.2780  -27.3730   19.9070 C   0  0  0  0  0  0  0  0  0  0  0  0
  -23.4920  -30.5370   21.5470 C   0  0  0  0  0  3  0  0  0  0  0  0
  -24.9340  -29.0740   20.0150 C   0  0  0  0  0  0  0  0  0  0  0  0
  -26.0420  -30.8360   21.3810 C   0  0  0  0  0  2  0  0  0  0  0  0
  -26.1170  -29.4960   20.6370 C   0  0  0  0  0  0  0  0  0  0  0  0
  -27.2910  -28.6620   20.5660 C   0  0  0  0  0  3  0  0  0  0  0  0
  -26.0640  -27.0440   19.2610 C   0  0  0  0  0  3  0  0  0  0  0  0
  -24.9170  -27.8590   19.3180 C   0  0  0  0  0  3  0  0  0  0  0  0
  -23.7010  -29.9530   20.1270 C   0  0  0  0  0  2  0  0  0  0  0  0
  -24.7650  -31.0840   22.1200 N   0  0  0  0  0  0  0  0  0  0  0  0
  -23.6170  -32.0710   23.8200 O   0  0  0  0  0  0  0  0  0  0  0  0
  -22.8270  -29.4640   22.4450 C   0  0  0  0  0  0  0  0  0  0  0  0
  -21.5090  -29.2580   22.2770 N   0  0  0  0  0  0  0  0  0  0  0  0
  -23.5000  -28.8190   23.2540 O   0  0  0  0  0  0  0  0  0  0  0  0
  -21.0230  -29.8350   21.6050 H   0  0  0  0  0  0  0  0  0  0  0  0
  -18.1570  -27.9250   22.6260 C   0  0  0  0  0  0  0  0  0  0  0  0
  -20.6970  -28.2630   22.9830 C   0  0  0  0  0  3  0  0  0  0  0  0
  -20.8650  -26.8600   22.3560 C   0  0  0  0  0  2  0  0  0  0  0  0
  -19.8060  -26.5410   21.2950 C   0  0  0  0  0  2  0  0  0  0  0  0
  -18.4020  -26.6110   21.9020 C   0  0  0  0  0  2  0  0  0  0  0  0
  -19.2360  -28.7080   23.1180 C   0  0  0  0  0  0  0  0  0  0  0  0
  -18.9560  -29.9340   23.7580 C   0  0  0  0  0  3  0  0  0  0  0  0
  -17.6300  -30.3840   23.9030 C   0  0  0  0  0  3  0  0  0  0  0  0
  -16.5660  -29.6000   23.4260 C   0  0  0  0  0  3  0  0  0  0  0  0
  -16.8300  -28.3710   22.7970 C   0  0  0  0  0  3  0  0  0  0  0  0
  -25.9810  -32.4230   23.9260 C   0  0  0  0  0  3  0  0  0  0  0  0
  -25.6890  -33.8180   24.2920 N   0  0  0  0  0  0  0  0  0  0  0  0
  -26.0100  -34.8850   23.5500 C   0  0  0  0  0  0  0  0  0  0  0  0
  -26.6510  -34.8000   22.4990 O   0  0  0  0  0  0  0  0  0  0  0  0
  -25.1160  -33.9570   25.1120 H   0  0  0  0  0  0  0  0  0  0  0  0
  -24.2760  -36.6930   23.2970 C   0  0  0  0  0  1  0  0  0  0  0  0
  -25.5470  -36.2690   24.0510 C   0  0  0  0  0  3  0  0  0  0  0  0
  -27.7090  -37.1410   24.8220 C   0  0  0  0  0  1  0  0  0  0  0  0
  -26.5790  -37.3200   23.9130 N   0  0  0  0  0  0  0  0  0  0  0  0
  -26.1830  -38.2410   24.0800 H   0  0  0  0  0  0  0  0  0  0  0  0
  -26.4650  -31.6130   25.1910 C   0  0  1  0  0  0  0  0  0  0  0  0
  -25.3480  -31.3680   26.2340 C   0  0  0  0  0  1  0  0  0  0  0  0
  -27.0330  -30.2350   24.7800 C   0  0  0  0  0  1  0  0  0  0  0  0
  -27.6170  -32.3730   25.8900 C   0  0  0  0  0  1  0  0  0  0  0  0
  1  5  1  0
  4  1  1  0
  4  8  1  0
  5 18  1  0
  5  2  1  0
  6  2  1  0
  6  3  1  0
  7 48  1  0
  7  3  1  0
  8  9  1  6
  8  7  1  0
  8  6  1  0
 10 18  1  0
 11 16  1  0
 12 13  1  0
 12 11  1  0
 14 13  1  0
 14 23  1  0
 14 15  1  0
 16 10  1  0
 16 15  1  0
 17 10  2  0
 18 19  1  0
 20 21  2  0
 21 40  1  0
 22 21  1  0
 22 25  1  0
 23 20  1  0
 23 24  1  0
 24 22  2  0
 25 26  1  0
 26 27  2  0
 28 31  1  0
 28 27  1  0
 29 28  2  0
 30 29  1  0
 30 25  2  0
 31 32  1  0
 32 37  2  0
 32 33  1  0
 33 34  2  0
 34 35  1  0
 35 39  1  0
 36 35  2  0
 37 36  1  0
 38 37  1  0
 40 41  1  0
 41 44  1  0
 41 43  1  0
 42 40  2  0
 45 46  1  0
 45 20  1  0
 47 45  1  0
 48 49  2  0
 49 50  1  0
 50 52  1  0
 51 62  2  0
 52 57  1  0
 53 61  1  0
 53 63  1  0
 54 60  1  0
 54 56  1  0
 55 61  1  0
 56 55  1  0
 57 56  2  0
 58 59  1  0
 58 52  2  0
 59 54  2  0
 60 53  1  0
 61 51  1  0
 63 65  2  0
 64 63  1  0
 66 64  1  0
 67 76  2  0
 67 72  1  0
 68 64  1  0
 68 72  1  0
 69 68  1  0
 70 71  1  0
 70 69  1  0
 71 67  1  0
 72 73  2  0
 73 74  1  0
 75 74  2  0
 76 75  1  0
 77 51  1  0
 77 78  1  0
 77 87  1  0
 78 81  1  0
 79 83  1  0
 79 78  1  0
 80 79  2  0
 83 82  1  0
 85 83  1  0
 85 86  1  0
 85 84  1  0
 87 90  1  1
 87 88  1  0
 89 87  1  0
M  ISO  4  10 100  18 100  49 101  50 101
M  END
>  <TORSDO>  (59) 
F 18

>  <SCORE>  (59) 
-13.929

>  <name>  (59) 
58

>  <ligand_id>  (59) 
58

>  <original_smiles>  (59) 
[H]c1c([H])c([H])c2c(c1[H])C([H])([H])C([H])([H])C([H])([H])C2([H])N([H])C(=O)C1([H])N(C(=O)C([H])(N([H])C(=O)C([H])(N([H])C([H])([H])[H])C([H])([H])[H])C(C([H])([H])[H])(C([H])([H])[H])C([H])([H])[H])C([H])([H])c2c([H])c(OC([H])([H])C([H])([H])C3([H])C([H])([H])C4([H])C([H])([H])C([H])(N([H])C(=O)N5C([H])([H])C([H])([H])C([H])([H])C([H])(n6nc(-c7c([H])c([H])c(Oc8c([H])c([H])c(F)c([H])c8F)c([H])c7[H])c(C(=O)N([H])[H])c6N([H])[H])C5([H])[H])C([H])([H])C([H])([H])[N+]34[H])c([H])c([H])c2C1([H])[H]

>  <smiles>  (59) 
[H]c1c([H])c([H])c2c(c1[H])C([H])([H])C([H])([H])C([H])([H])C2([H])N([H])C(=O)C1([H])N(C(=O)C([H])(N([H])C(=O)C([H])(N([H])C([H])([H])[H])C([H])([H])[H])C(C([H])([H])[H])(C([H])([H])[H])C([H])([H])[H])C([H])([H])c2c([H])c(OC([H])([H])C([H])([H])C3([H])C([H])([H])C4([H])C([H])([H])C([H])(N([H])C(=O)N5C([H])([H])C([H])([H])C([H])([H])C([H])(n6nc(-c7c([H])c([H])c(Oc8c([H])c([H])c(F)c([H])c8F)c([H])c7[H])c(C(=O)N([H])[H])c6N([H])[H])C5([H])[H])C([H])([H])C([H])([H])[N+]34[H])c([H])c([H])c2C1([H])[H]

$$$$
59:0:0
     RDKit          3D

 92101  0  0  1  0  0  0  0  0999 V2000
  -29.0850  -18.9060   20.6840 C   0  0  0  0  0  2  0  0  0  0  0  0
  -29.7750  -20.2530   18.1550 C   0  0  0  0  0  2  0  0  0  0  0  0
  -30.3260  -17.8300   18.6540 C   0  0  0  0  0  2  0  0  0  0  0  0
  -28.7140  -21.8630   20.0680 C   0  0  0  0  0  3  0  0  0  0  0  0
  -29.4730  -20.5160   20.6770 C   0  0  0  0  0  3  0  0  0  0  0  0
  -29.8920  -21.1350   19.3900 C   0  0  0  0  0  3  0  0  0  0  0  0
  -30.1090  -17.6810   20.1930 C   0  0  0  0  0  3  0  0  0  0  0  0
  -31.5040  -19.0530   16.8700 C   0  0  0  0  0  1  0  0  0  0  0  0
  -30.8060  -19.1670   18.1740 N   0  0  1  0  0  4  0  0  0  0  0  0
  -31.5220  -19.4630   18.8180 H   0  0  0  0  0  0  0  0  0  0  0  0
  -30.5370  -14.9700   20.3150 C   0  0  0  0  0  0  0  0  0  0  0  0
  -30.3670  -12.6400   19.3530 C   0  0  0  0  0  2  0  0  0  0  0  0
  -29.4210  -12.6490   18.1300 C   0  0  0  0  0  2  0  0  0  0  0  0
  -27.9600  -12.4490   18.5750 C   0  0  0  0  0  2  0  0  0  0  0  0
  -27.5810  -13.3460   19.7840 C   0  0  0  0  0  3  0  0  0  0  0  0
  -28.6540  -13.3240   20.8950 C   0  0  0  0  0  2  0  0  0  0  0  0
  -29.9230  -13.7230   20.2750 N   0  0  0  0  0  0  0  0  0  0  0  0
  -31.7250  -15.0320   19.9890 O   0  0  0  0  0  0  0  0  0  0  0  0
  -29.7830  -16.1610   20.4890 N   0  0  0  0  0  0  0  0  0  0  0  0
  -28.8280  -15.9870   20.7620 H   0  0  0  0  0  0  0  0  0  0  0  0
  -25.2060  -13.9140   20.5580 C   0  0  0  0  0  0  0  0  0  0  0  0
  -24.1470  -13.1350   20.9340 C   0  0  0  0  0  0  0  0  0  0  0  0
  -24.6120  -11.7840   20.8840 C   0  0  0  0  0  0  0  0  0  0  0  0
  -26.2470  -13.0400   20.2950 N   0  0  0  0  0  0  0  0  0  0  0  0
  -25.9000  -11.7520   20.5580 N   0  0  0  0  0  0  0  0  0  0  0  0
  -23.8870  -10.5200   21.0700 C   0  0  0  0  0  0  0  0  0  0  0  0
  -24.3270   -9.5430   21.9900 C   0  0  0  0  0  3  0  0  0  0  0  0
  -23.6000   -8.3450   22.1650 C   0  0  0  0  0  3  0  0  0  0  0  0
  -22.4190   -8.1170   21.4200 C   0  0  0  0  0  0  0  0  0  0  0  0
  -21.9970   -9.0830   20.4900 C   0  0  0  0  0  3  0  0  0  0  0  0
  -22.7250  -10.2710   20.3120 C   0  0  0  0  0  3  0  0  0  0  0  0
  -21.6620   -6.9740   21.5070 O   0  0  0  0  0  0  0  0  0  0  0  0
  -21.6180   -6.2230   22.6550 C   0  0  0  0  0  0  0  0  0  0  0  0
  -21.1770   -6.7640   23.8820 C   0  0  0  0  0  3  0  0  0  0  0  0
  -21.0820   -5.9390   25.0210 C   0  0  0  0  0  3  0  0  0  0  0  0
  -21.4180   -4.5750   24.9330 C   0  0  0  0  0  0  0  0  0  0  0  0
  -21.8500   -4.0330   23.7100 C   0  0  0  0  0  3  0  0  0  0  0  0
  -21.9460   -4.8550   22.5730 C   0  0  0  0  0  0  0  0  0  0  0  0
  -22.3450   -4.3220   21.3940 F   0  0  0  0  0  0  0  0  0  0  0  0
  -21.3190   -3.7810   26.0250 F   0  0  0  0  0  0  0  0  0  0  0  0
  -22.7540  -13.6090   21.2240 C   0  0  0  0  0  0  0  0  0  0  0  0
  -22.0350  -12.9070   22.0940 N   0  0  0  0  0  0  0  0  0  0  0  0
  -22.3100  -14.6380   20.7140 O   0  0  0  0  0  0  0  0  0  0  0  0
  -22.4060  -12.0760   22.5280 H   0  0  0  0  0  0  0  0  0  0  0  0
  -21.0990  -13.2080   22.3290 H   0  0  0  0  0  0  0  0  0  0  0  0
  -25.3670  -15.2870   20.3890 N   0  0  0  0  0  0  0  0  0  0  0  0
  -24.5960  -15.9360   20.5150 H   0  0  0  0  0  0  0  0  0  0  0  0
  -26.1960  -15.7270   20.0140 H   0  0  0  0  0  0  0  0  0  0  0  0
  -28.9460  -23.4620   20.4180 C   0  0  0  0  0  0  0  0  0  0  0  0
  -29.9920  -23.7640   21.0020 O   0  0  0  0  0  0  0  0  0  0  0  0
  -27.9150  -24.7000   20.0450 C   0  0  0  0  0  2  0  0  0  0  0  0
  -28.2310  -26.2040   20.3150 O   0  0  0  0  0  0  0  0  0  0  0  0
  -24.6290  -31.9290   23.2520 C   0  0  0  0  0  0  0  0  0  0  0  0
  -27.1880  -27.1980   20.2370 C   0  0  0  0  0  0  0  0  0  0  0  0
  -23.4270  -30.5350   21.6130 C   0  0  0  0  0  3  0  0  0  0  0  0
  -24.8700  -28.9530   20.1960 C   0  0  0  0  0  0  0  0  0  0  0  0
  -25.9830  -30.7880   21.4570 C   0  0  0  0  0  2  0  0  0  0  0  0
  -26.0510  -29.3940   20.8070 C   0  0  0  0  0  0  0  0  0  0  0  0
  -27.2110  -28.5310   20.8110 C   0  0  0  0  0  3  0  0  0  0  0  0
  -25.9810  -26.8590   19.5830 C   0  0  0  0  0  3  0  0  0  0  0  0
  -24.8480  -27.6980   19.5700 C   0  0  0  0  0  3  0  0  0  0  0  0
  -23.6490  -29.8560   20.2370 C   0  0  0  0  0  2  0  0  0  0  0  0
  -24.6990  -31.1050   22.1630 N   0  0  0  0  0  0  0  0  0  0  0  0
  -23.5420  -32.2210   23.7750 O   0  0  0  0  0  0  0  0  0  0  0  0
  -22.7400  -29.5330   22.5750 C   0  0  0  0  0  0  0  0  0  0  0  0
  -21.4110  -29.3700   22.4460 N   0  0  0  0  0  0  0  0  0  0  0  0
  -23.4070  -28.9040   23.4020 O   0  0  0  0  0  0  0  0  0  0  0  0
  -20.9310  -29.9260   21.7530 H   0  0  0  0  0  0  0  0  0  0  0  0
  -18.0190  -28.2030   22.9530 C   0  0  0  0  0  0  0  0  0  0  0  0
  -20.5810  -28.4410   23.2190 C   0  0  0  0  0  3  0  0  0  0  0  0
  -20.6690  -27.0080   22.6450 C   0  0  0  0  0  2  0  0  0  0  0  0
  -19.5620  -26.6950   21.6320 C   0  0  0  0  0  2  0  0  0  0  0  0
  -18.1830  -26.8530   22.2770 C   0  0  0  0  0  2  0  0  0  0  0  0
  -19.1450  -28.9550   23.3820 C   0  0  0  0  0  0  0  0  0  0  0  0
  -18.9360  -30.2190   23.9750 C   0  0  0  0  0  3  0  0  0  0  0  0
  -17.6360  -30.7300   24.1460 C   0  0  0  0  0  3  0  0  0  0  0  0
  -16.5250  -29.9740   23.7340 C   0  0  0  0  0  3  0  0  0  0  0  0
  -16.7180  -28.7130   23.1420 C   0  0  0  0  0  3  0  0  0  0  0  0
  -25.9080  -32.5590   23.8800 C   0  0  0  0  0  3  0  0  0  0  0  0
  -25.6010  -33.9600   24.2090 N   0  0  0  0  0  0  0  0  0  0  0  0
  -25.9210  -35.0140   23.4460 C   0  0  0  0  0  0  0  0  0  0  0  0
  -26.5740  -34.9090   22.4030 O   0  0  0  0  0  0  0  0  0  0  0  0
  -25.0190  -34.1170   25.0200 H   0  0  0  0  0  0  0  0  0  0  0  0
  -24.1830  -36.8060   23.1310 C   0  0  0  0  0  1  0  0  0  0  0  0
  -25.4450  -36.4040   23.9110 C   0  0  0  0  0  3  0  0  0  0  0  0
  -27.5960  -37.3000   24.6880 C   0  0  0  0  0  1  0  0  0  0  0  0
  -26.4730  -37.4580   23.7670 N   0  0  0  0  0  0  0  0  0  0  0  0
  -26.0680  -38.3790   23.9160 H   0  0  0  0  0  0  0  0  0  0  0  0
  -26.4120  -31.7900   25.1640 C   0  0  1  0  0  0  0  0  0  0  0  0
  -25.3100  -31.5620   26.2240 C   0  0  0  0  0  1  0  0  0  0  0  0
  -26.9920  -30.4090   24.7850 C   0  0  0  0  0  1  0  0  0  0  0  0
  -27.5620  -32.5820   25.8300 C   0  0  0  0  0  1  0  0  0  0  0  0
  2  9  1  0
  3  7  1  0
  4 49  1  0
  4  5  1  0
  5  1  1  0
  6  2  1  0
  6  4  1  0
  6  5  1  0
  7 19  1  0
  7  1  1  0
  8  9  1  0
  9  3  1  0
  9 10  1  1
 11 19  1  0
 12 17  1  0
 13 14  1  0
 13 12  1  0
 15 14  1  0
 15 24  1  0
 15 16  1  0
 17 11  1  0
 17 16  1  0
 18 11  2  0
 19 20  1  0
 21 22  2  0
 22 41  1  0
 23 22  1  0
 23 26  1  0
 24 25  1  0
 24 21  1  0
 25 23  2  0
 26 27  1  0
 27 28  2  0
 29 32  1  0
 29 28  1  0
 30 29  2  0
 31 30  1  0
 31 26  2  0
 32 33  1  0
 33 34  1  0
 34 35  2  0
 36 35  1  0
 36 40  1  0
 37 36  2  0
 38 33  2  0
 38 37  1  0
 39 38  1  0
 41 42  1  0
 42 45  1  0
 42 44  1  0
 43 41  2  0
 46 47  1  0
 46 21  1  0
 48 46  1  0
 49 50  2  0
 51 52  1  0
 51 49  1  0
 53 64  2  0
 54 52  1  0
 54 59  1  0
 55 63  1  0
 55 65  1  0
 56 62  1  0
 56 58  1  0
 57 63  1  0
 58 59  2  0
 58 57  1  0
 60 54  2  0
 61 60  1  0
 61 56  2  0
 62 55  1  0
 63 53  1  0
 65 67  2  0
 66 65  1  0
 68 66  1  0
 69 78  2  0
 69 74  1  0
 70 66  1  0
 70 74  1  0
 71 70  1  0
 72 73  1  0
 72 71  1  0
 73 69  1  0
 74 75  2  0
 75 76  1  0
 77 76  2  0
 78 77  1  0
 79 53  1  0
 79 80  1  0
 79 89  1  0
 80 83  1  0
 81 85  1  0
 81 80  1  0
 82 81  2  0
 85 84  1  0
 87 85  1  0
 87 88  1  0
 87 86  1  0
 89 92  1  1
 89 90  1  0
 91 89  1  0
M  ISO  4  11 100  19 100  51 101  52 101
M  END
>  <TORSDO>  (60) 
F 18

>  <SCORE>  (60) 
-14.660

>  <name>  (60) 
59

>  <ligand_id>  (60) 
59

>  <original_smiles>  (60) 
[H]c1c([H])c([H])c2c(c1[H])C([H])([H])C([H])([H])C([H])([H])C2([H])N([H])C(=O)C1([H])N(C(=O)C([H])(N([H])C(=O)C([H])(N([H])C([H])([H])[H])C([H])([H])[H])C(C([H])([H])[H])(C([H])([H])[H])C([H])([H])[H])C([H])([H])c2c([H])c(OC([H])([H])C(=O)C3([H])C4([H])C([H])([H])C([H])(N([H])C(=O)N5C([H])([H])C([H])([H])C([H])([H])C([H])(n6nc(-c7c([H])c([H])c(Oc8c([H])c([H])c(F)c([H])c8F)c([H])c7[H])c(C(=O)N([H])[H])c6N([H])[H])C5([H])[H])C([H])([H])[N+]([H])(C([H])([H])[H])C([H])([H])C34[H])c([H])c([H])c2C1([H])[H]

>  <smiles>  (60) 
[H]c1c([H])c([H])c2c(c1[H])C([H])([H])C([H])([H])C([H])([H])C2([H])N([H])C(=O)C1([H])N(C(=O)C([H])(N([H])C(=O)C([H])(N([H])C([H])([H])[H])C([H])([H])[H])C(C([H])([H])[H])(C([H])([H])[H])C([H])([H])[H])C([H])([H])c2c([H])c(OC([H])([H])C(=O)C3([H])C4([H])C([H])([H])C([H])(N([H])C(=O)N5C([H])([H])C([H])([H])C([H])([H])C([H])(n6nc(-c7c([H])c([H])c(Oc8c([H])c([H])c(F)c([H])c8F)c([H])c7[H])c(C(=O)N([H])[H])c6N([H])[H])C5([H])[H])C([H])([H])[N+]([H])(C([H])([H])[H])C([H])([H])C34[H])c([H])c([H])c2C1([H])[H]

$$$$
60:0:0
     RDKit          3D

 92100  0  0  1  0  0  0  0  0999 V2000
  -26.7920  -22.2970   20.8110 C   0  0  0  0  0  2  0  0  0  0  0  0
  -26.4990  -23.5540   19.9690 C   0  0  0  0  0  2  0  0  0  0  0  0
  -28.8040  -23.6360   20.7020 C   0  0  0  0  0  2  0  0  0  0  0  0
  -28.0870  -22.6020   21.5800 C   0  0  0  0  0  3  0  0  0  0  0  0
  -27.6560  -24.5400   20.2210 C   0  0  0  0  0  3  0  0  0  0  0  0
  -28.9120  -21.3820   22.0640 C   0  0  0  0  0  2  0  0  0  0  0  0
  -30.0870  -19.3990   21.1710 C   0  0  0  0  0  0  0  0  0  0  0  0
  -29.1140  -20.3180   21.0730 N   0  0  0  0  0  0  0  0  0  0  0  0
  -31.0110  -19.5240   21.9780 O   0  0  0  0  0  0  0  0  0  0  0  0
  -28.3820  -20.1680   20.3870 H   0  0  0  0  0  0  0  0  0  0  0  0
  -29.9890  -18.1480   20.2770 C   0  0  0  0  0  2  0  0  0  0  0  0
  -31.0960  -17.0790   20.5030 C   0  0  0  0  0  2  0  0  0  0  0  0
  -31.2140  -14.6600   19.8540 C   0  0  0  0  0  0  0  0  0  0  0  0
  -30.8370  -12.4140   18.9160 C   0  0  0  0  0  2  0  0  0  0  0  0
  -29.8470  -12.5180   17.7380 C   0  0  0  0  0  2  0  0  0  0  0  0
  -28.3930  -12.4340   18.2470 C   0  0  0  0  0  2  0  0  0  0  0  0
  -28.1150  -13.3960   19.4340 C   0  0  0  0  0  3  0  0  0  0  0  0
  -29.2140  -13.2700   20.5140 C   0  0  0  0  0  2  0  0  0  0  0  0
  -30.5170  -13.4950   19.8620 N   0  0  0  0  0  0  0  0  0  0  0  0
  -32.2920  -14.8030   19.2720 O   0  0  0  0  0  0  0  0  0  0  0  0
  -30.5940  -15.6970   20.4310 N   0  0  0  0  0  0  0  0  0  0  0  0
  -29.7100  -15.4920   20.8770 H   0  0  0  0  0  0  0  0  0  0  0  0
  -25.8210  -14.1200   20.3450 C   0  0  0  0  0  0  0  0  0  0  0  0
  -24.7280  -13.3990   20.7450 C   0  0  0  0  0  0  0  0  0  0  0  0
  -25.0880  -12.0240   20.6050 C   0  0  0  0  0  0  0  0  0  0  0  0
  -26.7830  -13.1860   19.9940 N   0  0  0  0  0  0  0  0  0  0  0  0
  -26.3490  -11.9160   20.2040 N   0  0  0  0  0  0  0  0  0  0  0  0
  -24.2900  -10.8030   20.7770 C   0  0  0  0  0  0  0  0  0  0  0  0
  -24.6880   -9.7810   21.6650 C   0  0  0  0  0  3  0  0  0  0  0  0
  -23.8960   -8.6230   21.8280 C   0  0  0  0  0  3  0  0  0  0  0  0
  -22.6900   -8.4810   21.0980 C   0  0  0  0  0  0  0  0  0  0  0  0
  -22.3120   -9.4900   20.1960 C   0  0  0  0  0  3  0  0  0  0  0  0
  -23.1050  -10.6390   20.0330 C   0  0  0  0  0  3  0  0  0  0  0  0
  -21.8710   -7.3800   21.1690 O   0  0  0  0  0  0  0  0  0  0  0  0
  -21.7470   -6.6500   22.3230 C   0  0  0  0  0  0  0  0  0  0  0  0
  -21.3210   -7.2360   23.5350 C   0  0  0  0  0  3  0  0  0  0  0  0
  -21.1420   -6.4360   24.6800 C   0  0  0  0  0  3  0  0  0  0  0  0
  -21.3800   -5.0500   24.6150 C   0  0  0  0  0  0  0  0  0  0  0  0
  -21.8010   -4.4620   23.4090 C   0  0  0  0  0  3  0  0  0  0  0  0
  -21.9830   -5.2610   22.2660 C   0  0  0  0  0  0  0  0  0  0  0  0
  -22.3680   -4.6870   21.1000 F   0  0  0  0  0  0  0  0  0  0  0  0
  -21.2000   -4.2800   25.7130 F   0  0  0  0  0  0  0  0  0  0  0  0
  -23.3880  -13.9470   21.1470 C   0  0  0  0  0  0  0  0  0  0  0  0
  -22.6940  -13.2580   22.0470 N   0  0  0  0  0  0  0  0  0  0  0  0
  -22.9710  -15.0150   20.6980 O   0  0  0  0  0  0  0  0  0  0  0  0
  -23.0440  -12.3860   22.4140 H   0  0  0  0  0  0  0  0  0  0  0  0
  -21.8010  -13.6020   22.3680 H   0  0  0  0  0  0  0  0  0  0  0  0
  -26.0680  -15.4850   20.2300 N   0  0  0  0  0  0  0  0  0  0  0  0
  -25.3440  -16.1770   20.3840 H   0  0  0  0  0  0  0  0  0  0  0  0
  -26.9100  -15.8770   19.8300 H   0  0  0  0  0  0  0  0  0  0  0  0
  -27.9900  -25.4670   19.0180 C   0  0  0  0  0  2  0  0  0  0  0  0
  -28.0320  -26.8610   19.3640 O   0  0  0  0  0  0  0  0  0  0  0  0
  -24.5010  -31.7420   23.1450 C   0  0  0  0  0  0  0  0  0  0  0  0
  -26.8510  -27.5690   19.4940 C   0  0  0  0  0  0  0  0  0  0  0  0
  -23.1570  -30.4860   21.4950 C   0  0  0  0  0  3  0  0  0  0  0  0
  -24.4780  -29.0760   19.8360 C   0  0  0  0  0  0  0  0  0  0  0  0
  -25.6660  -30.8570   21.1240 C   0  0  0  0  0  2  0  0  0  0  0  0
  -25.6850  -29.5460   20.3660 C   0  0  0  0  0  0  0  0  0  0  0  0
  -26.8750  -28.7980   20.1910 C   0  0  0  0  0  3  0  0  0  0  0  0
  -25.6200  -27.1180   18.9620 C   0  0  0  0  0  3  0  0  0  0  0  0
  -24.4390  -27.8590   19.1400 C   0  0  0  0  0  3  0  0  0  0  0  0
  -23.2510  -29.9290   20.0500 C   0  0  0  0  0  2  0  0  0  0  0  0
  -24.4630  -31.0400   21.9770 N   0  0  0  0  0  0  0  0  0  0  0  0
  -23.4670  -31.9700   23.7870 O   0  0  0  0  0  0  0  0  0  0  0  0
  -22.5770  -29.3860   22.4110 C   0  0  0  0  0  0  0  0  0  0  0  0
  -21.2520  -29.1840   22.3370 N   0  0  0  0  0  0  0  0  0  0  0  0
  -23.3140  -28.7230   23.1480 O   0  0  0  0  0  0  0  0  0  0  0  0
  -20.7180  -29.7630   21.7070 H   0  0  0  0  0  0  0  0  0  0  0  0
  -17.9500  -27.8090   22.8250 C   0  0  0  0  0  0  0  0  0  0  0  0
  -20.4940  -28.1770   23.0760 C   0  0  0  0  0  3  0  0  0  0  0  0
  -20.6550  -26.7780   22.4320 C   0  0  0  0  0  2  0  0  0  0  0  0
  -19.5520  -26.4450   21.4230 C   0  0  0  0  0  2  0  0  0  0  0  0
  -18.1770  -26.4980   22.0980 C   0  0  0  0  0  2  0  0  0  0  0  0
  -19.0360  -28.6070   23.2700 C   0  0  0  0  0  0  0  0  0  0  0  0
  -18.7680  -29.8360   23.9110 C   0  0  0  0  0  3  0  0  0  0  0  0
  -17.4440  -30.2680   24.1150 C   0  0  0  0  0  3  0  0  0  0  0  0
  -16.3720  -29.4670   23.6830 C   0  0  0  0  0  3  0  0  0  0  0  0
  -16.6260  -28.2390   23.0490 C   0  0  0  0  0  3  0  0  0  0  0  0
  -25.8380  -32.3150   23.7140 C   0  0  0  0  0  3  0  0  0  0  0  0
  -25.5790  -33.6960   24.1410 N   0  0  0  0  0  0  0  0  0  0  0  0
  -25.8890  -34.7850   23.4250 C   0  0  0  0  0  0  0  0  0  0  0  0
  -26.4940  -34.7310   22.3500 O   0  0  0  0  0  0  0  0  0  0  0  0
  -25.0460  -33.8150   24.9900 H   0  0  0  0  0  0  0  0  0  0  0  0
  -24.1790  -36.6220   23.2770 C   0  0  0  0  0  1  0  0  0  0  0  0
  -25.4580  -36.1520   23.9880 C   0  0  0  0  0  3  0  0  0  0  0  0
  -27.6530  -36.9540   24.7430 C   0  0  0  0  0  1  0  0  0  0  0  0
  -26.5030  -37.1930   23.8730 N   0  0  0  0  0  0  0  0  0  0  0  0
  -26.1250  -38.1080   24.1000 H   0  0  0  0  0  0  0  0  0  0  0  0
  -26.4260  -31.4610   24.9050 C   0  0  1  0  0  0  0  0  0  0  0  0
  -25.4070  -31.1870   26.0370 C   0  0  0  0  0  1  0  0  0  0  0  0
  -26.9430  -30.0950   24.3950 C   0  0  0  0  0  1  0  0  0  0  0  0
  -27.6430  -32.1890   25.5230 C   0  0  0  0  0  1  0  0  0  0  0  0
  1  4  1  0
  2  5  1  0
  2  1  1  0
  3  4  1  0
  4  6  1  0
  5 51  1  0
  5  3  1  0
  7  9  2  0
  8  7  1  0
  8  6  1  0
 10  8  1  0
 11 12  1  0
 11  7  1  0
 13 19  1  0
 13 21  1  0
 14 19  1  0
 15 16  1  0
 15 14  1  0
 17 16  1  0
 17 26  1  0
 17 18  1  0
 19 18  1  0
 20 13  2  0
 21 12  1  0
 21 22  1  0
 23 24  2  0
 24 43  1  0
 25 24  1  0
 25 28  1  0
 26 27  1  0
 26 23  1  0
 27 25  2  0
 28 29  1  0
 29 30  2  0
 31 34  1  0
 31 30  1  0
 32 31  2  0
 33 32  1  0
 33 28  2  0
 34 35  1  0
 35 36  1  0
 36 37  2  0
 38 37  1  0
 38 42  1  0
 39 38  2  0
 40 35  2  0
 40 39  1  0
 41 40  1  0
 43 44  1  0
 44 47  1  0
 44 46  1  0
 45 43  2  0
 48 23  1  0
 48 49  1  0
 50 48  1  0
 51 52  1  0
 52 54  1  0
 53 64  2  0
 54 59  1  0
 55 63  1  0
 55 65  1  0
 56 62  1  0
 56 58  1  0
 57 63  1  0
 58 57  1  0
 59 58  2  0
 60 61  1  0
 60 54  2  0
 61 56  2  0
 62 55  1  0
 63 53  1  0
 65 67  2  0
 66 65  1  0
 68 66  1  0
 69 78  2  0
 69 74  1  0
 70 66  1  0
 70 74  1  0
 71 70  1  0
 72 73  1  0
 72 71  1  0
 73 69  1  0
 74 75  2  0
 75 76  1  0
 77 76  2  0
 78 77  1  0
 79 53  1  0
 79 80  1  0
 79 89  1  0
 80 83  1  0
 81 85  1  0
 81 80  1  0
 82 81  2  0
 85 84  1  0
 87 85  1  0
 87 88  1  0
 87 86  1  0
 89 92  1  1
 89 90  1  0
 91 89  1  0
M  ISO  4  13 100  21 100  51 101  52 101
M  END
>  <TORSDO>  (61) 
F 21

>  <SCORE>  (61) 
-12.428

>  <name>  (61) 
60

>  <ligand_id>  (61) 
60

>  <original_smiles>  (61) 
[H]c1c([H])c([H])c2c(c1[H])C([H])([H])C([H])([H])C([H])([H])C2([H])N([H])C(=O)C1([H])N(C(=O)C([H])(N([H])C(=O)C([H])(N([H])C([H])([H])[H])C([H])([H])[H])C(C([H])([H])[H])(C([H])([H])[H])C([H])([H])[H])C([H])([H])c2c([H])c(OC([H])([H])C3([H])C([H])([H])C([H])([H])C([H])(C([H])([H])N([H])C(=O)C([H])([H])C([H])([H])N([H])C(=O)N4C([H])([H])C([H])([H])C([H])([H])C([H])(n5nc(-c6c([H])c([H])c(Oc7c([H])c([H])c(F)c([H])c7F)c([H])c6[H])c(C(=O)N([H])[H])c5N([H])[H])C4([H])[H])C3([H])[H])c([H])c([H])c2C1([H])[H]

>  <smiles>  (61) 
[H]c1c([H])c([H])c2c(c1[H])C([H])([H])C([H])([H])C([H])([H])C2([H])N([H])C(=O)C1([H])N(C(=O)C([H])(N([H])C(=O)C([H])(N([H])C([H])([H])[H])C([H])([H])[H])C(C([H])([H])[H])(C([H])([H])[H])C([H])([H])[H])C([H])([H])c2c([H])c(OC([H])([H])C3([H])C([H])([H])C([H])([H])C([H])(C([H])([H])N([H])C(=O)C([H])([H])C([H])([H])N([H])C(=O)N4C([H])([H])C([H])([H])C([H])([H])C([H])(n5nc(-c6c([H])c([H])c(Oc7c([H])c([H])c(F)c([H])c7F)c([H])c6[H])c(C(=O)N([H])[H])c5N([H])[H])C4([H])[H])C3([H])[H])c([H])c([H])c2C1([H])[H]

$$$$
61:0:0
     RDKit          3D

 92100  0  0  1  0  0  0  0  0999 V2000
  -28.8280  -20.3010   20.0100 N   0  0  0  0  0  4  0  0  0  0  0  0
  -27.9360  -19.8520   20.1500 H   0  0  0  0  0  0  0  0  0  0  0  0
  -28.8450  -20.4540   19.0150 H   0  0  0  0  0  0  0  0  0  0  0  0
  -31.7490  -20.0250   20.7290 C   0  0  0  0  0  2  0  0  0  0  0  0
  -31.1300  -19.3780   19.4870 C   0  0  0  0  0  2  0  0  0  0  0  0
  -30.7460  -19.2190   21.5530 C   0  0  0  0  0  2  0  0  0  0  0  0
  -29.8390  -19.0820   20.3000 C   0  0  1  0  0  0  0  0  0  0  0  0
  -30.7250  -15.0570   20.0080 C   0  0  0  0  0  0  0  0  0  0  0  0
  -30.3700  -12.7610   19.0200 C   0  0  0  0  0  2  0  0  0  0  0  0
  -29.3900  -12.6960   17.8350 C   0  0  0  0  0  2  0  0  0  0  0  0
  -27.9600  -12.4860   18.3540 C   0  0  0  0  0  2  0  0  0  0  0  0
  -27.6160  -13.4190   19.5420 C   0  0  0  0  0  3  0  0  0  0  0  0
  -28.7310  -13.4910   20.6050 C   0  0  0  0  0  2  0  0  0  0  0  0
  -29.9460  -13.9030   19.8940 N   0  0  0  0  0  0  0  0  0  0  0  0
  -31.9220  -14.8940   19.7640 O   0  0  0  0  0  0  0  0  0  0  0  0
  -29.4120  -17.4590   20.1080 C   0  0  0  0  0  0  0  0  0  0  0  0
  -30.3980  -16.4410   20.1560 N   0  0  0  0  0  0  0  0  0  0  0  0
  -28.2240  -17.1890   19.9180 O   0  0  0  0  0  0  0  0  0  0  0  0
  -31.2860  -16.9050   20.2450 H   0  0  0  0  0  0  0  0  0  0  0  0
  -25.2870  -13.9760   20.4100 C   0  0  0  0  0  0  0  0  0  0  0  0
  -24.2430  -13.1910   20.8210 C   0  0  0  0  0  0  0  0  0  0  0  0
  -24.7110  -11.8420   20.7560 C   0  0  0  0  0  0  0  0  0  0  0  0
  -26.3170  -13.1040   20.1180 N   0  0  0  0  0  0  0  0  0  0  0  0
  -25.9870  -11.8140   20.3930 N   0  0  0  0  0  0  0  0  0  0  0  0
  -23.9950  -10.5740   20.9590 C   0  0  0  0  0  0  0  0  0  0  0  0
  -24.4490   -9.6050   21.8800 C   0  0  0  0  0  3  0  0  0  0  0  0
  -23.7290   -8.4060   22.0720 C   0  0  0  0  0  3  0  0  0  0  0  0
  -22.5400   -8.1670   21.3420 C   0  0  0  0  0  0  0  0  0  0  0  0
  -22.1070   -9.1230   20.4070 C   0  0  0  0  0  3  0  0  0  0  0  0
  -22.8280  -10.3130   20.2120 C   0  0  0  0  0  3  0  0  0  0  0  0
  -21.7880   -7.0210   21.4460 O   0  0  0  0  0  0  0  0  0  0  0  0
  -21.7410   -6.2930   22.6080 C   0  0  0  0  0  0  0  0  0  0  0  0
  -21.2680   -6.8480   23.8170 C   0  0  0  0  0  3  0  0  0  0  0  0
  -21.1730   -6.0430   24.9700 C   0  0  0  0  0  3  0  0  0  0  0  0
  -21.5400   -4.6850   24.9150 C   0  0  0  0  0  0  0  0  0  0  0  0
  -22.0060   -4.1290   23.7100 C   0  0  0  0  0  3  0  0  0  0  0  0
  -22.1030   -4.9300   22.5590 C   0  0  0  0  0  0  0  0  0  0  0  0
  -22.5320   -4.3870   21.3950 F   0  0  0  0  0  0  0  0  0  0  0  0
  -21.4410   -3.9100   26.0200 F   0  0  0  0  0  0  0  0  0  0  0  0
  -22.8590  -13.6620   21.1560 C   0  0  0  0  0  0  0  0  0  0  0  0
  -22.1680  -12.9500   22.0390 N   0  0  0  0  0  0  0  0  0  0  0  0
  -22.4010  -14.6950   20.6700 O   0  0  0  0  0  0  0  0  0  0  0  0
  -22.5520  -12.1140   22.4560 H   0  0  0  0  0  0  0  0  0  0  0  0
  -21.2400  -13.2460   22.3060 H   0  0  0  0  0  0  0  0  0  0  0  0
  -25.4440  -15.3480   20.2300 N   0  0  0  0  0  0  0  0  0  0  0  0
  -24.6810  -16.0060   20.3340 H   0  0  0  0  0  0  0  0  0  0  0  0
  -26.3010  -15.7860   19.9080 H   0  0  0  0  0  0  0  0  0  0  0  0
  -28.9750  -21.7970   22.1880 C   0  0  0  0  0  1  0  0  0  0  0  0
  -28.6060  -21.7480   20.6950 C   0  0  0  0  0  3  0  0  0  0  0  0
  -28.8740  -23.2890   20.0160 C   0  0  0  0  0  3  0  0  0  0  0  0
  -28.0590  -24.7110   20.4830 C   0  0  0  0  0  3  0  0  0  0  0  0
  -28.3410  -26.2200   20.1560 O   0  0  0  0  0  0  0  0  0  0  0  0
  -24.6400  -31.8710   23.1730 C   0  0  0  0  0  0  0  0  0  0  0  0
  -27.2850  -27.2070   20.1260 C   0  0  0  0  0  0  0  0  0  0  0  0
  -23.4710  -30.4790   21.5110 C   0  0  0  0  0  3  0  0  0  0  0  0
  -24.9470  -28.9370   20.0810 C   0  0  0  0  0  0  0  0  0  0  0  0
  -26.0220  -30.7750   21.3670 C   0  0  0  0  0  2  0  0  0  0  0  0
  -26.1170  -29.3860   20.7090 C   0  0  0  0  0  0  0  0  0  0  0  0
  -27.2890  -28.5370   20.7150 C   0  0  0  0  0  3  0  0  0  0  0  0
  -26.0980  -26.8720   19.4410 C   0  0  0  0  0  3  0  0  0  0  0  0
  -24.9530  -27.6960   19.4270 C   0  0  0  0  0  3  0  0  0  0  0  0
  -23.7120  -29.8230   20.1250 C   0  0  0  0  0  2  0  0  0  0  0  0
  -24.7310  -31.0640   22.0730 N   0  0  0  0  0  0  0  0  0  0  0  0
  -23.5470  -32.1360   23.6960 O   0  0  0  0  0  0  0  0  0  0  0  0
  -22.7980  -29.4520   22.4560 C   0  0  0  0  0  0  0  0  0  0  0  0
  -21.4770  -29.2520   22.3060 N   0  0  0  0  0  0  0  0  0  0  0  0
  -23.4680  -28.8390   23.2910 O   0  0  0  0  0  0  0  0  0  0  0  0
  -20.9910  -29.8020   21.6120 H   0  0  0  0  0  0  0  0  0  0  0  0
  -18.1190  -27.9530   22.7260 C   0  0  0  0  0  0  0  0  0  0  0  0
  -20.6600  -28.2940   23.0590 C   0  0  0  0  0  3  0  0  0  0  0  0
  -20.8210  -26.8630   22.4950 C   0  0  0  0  0  2  0  0  0  0  0  0
  -19.7550  -26.5030   21.4550 C   0  0  0  0  0  2  0  0  0  0  0  0
  -18.3540  -26.6080   22.0600 C   0  0  0  0  0  2  0  0  0  0  0  0
  -19.2020  -28.7510   23.1810 C   0  0  0  0  0  0  0  0  0  0  0  0
  -18.9270  -30.0070   23.7660 C   0  0  0  0  0  3  0  0  0  0  0  0
  -17.6020  -30.4660   23.8990 C   0  0  0  0  0  3  0  0  0  0  0  0
  -16.5340  -29.6660   23.4580 C   0  0  0  0  0  3  0  0  0  0  0  0
  -16.7930  -28.4120   22.8770 C   0  0  0  0  0  3  0  0  0  0  0  0
  -25.9040  -32.5180   23.8170 C   0  0  0  0  0  3  0  0  0  0  0  0
  -26.4020  -31.7540   25.1070 C   0  0  1  0  0  0  0  0  0  0  0  0
  -25.2940  -31.5120   26.1580 C   0  0  0  0  0  1  0  0  0  0  0  0
  -27.0020  -30.3790   24.7340 C   0  0  0  0  0  1  0  0  0  0  0  0
  -27.5330  -32.5600   25.7900 C   0  0  0  0  0  1  0  0  0  0  0  0
  -25.5760  -33.9150   24.1470 N   0  0  0  0  0  0  0  0  0  0  0  0
  -25.9070  -34.9760   23.3990 C   0  0  0  0  0  0  0  0  0  0  0  0
  -26.5920  -34.8830   22.3760 O   0  0  0  0  0  0  0  0  0  0  0  0
  -24.9710  -34.0610   24.9420 H   0  0  0  0  0  0  0  0  0  0  0  0
  -24.1850  -36.7750   23.0180 C   0  0  0  0  0  1  0  0  0  0  0  0
  -25.4050  -36.3610   23.8570 C   0  0  0  0  0  3  0  0  0  0  0  0
  -27.5110  -37.2490   24.7580 C   0  0  0  0  0  1  0  0  0  0  0  0
  -26.4380  -37.4180   23.7820 N   0  0  0  0  0  0  0  0  0  0  0  0
  -26.0250  -38.3360   23.9200 H   0  0  0  0  0  0  0  0  0  0  0  0
  1  2  1  0
  7  1  1  1
  1 49  1  0
  3  1  1  0
  4  6  1  0
  5  7  1  0
  5  4  1  0
  7  6  1  0
  8 17  1  0
  9 14  1  0
 10 11  1  0
 10  9  1  0
 12 11  1  0
 12 23  1  0
 12 13  1  0
 14  8  1  0
 14 13  1  0
 15  8  2  0
 16 17  1  0
 16  7  1  0
 17 19  1  0
 18 16  2  0
 20 21  2  0
 21 40  1  0
 22 21  1  0
 22 25  1  0
 23 24  1  0
 23 20  1  0
 24 22  2  0
 25 26  1  0
 26 27  2  0
 28 31  1  0
 28 27  1  0
 29 28  2  0
 30 29  1  0
 30 25  2  0
 31 32  1  0
 32 33  1  0
 33 34  2  0
 35 34  1  0
 35 39  1  0
 36 35  2  0
 37 32  2  0
 37 36  1  0
 38 37  1  0
 40 41  1  0
 41 44  1  0
 41 43  1  0
 42 40  2  0
 45 46  1  0
 45 20  1  0
 47 45  1  0
 49 48  1  0
 50 51  2  0
 50 49  1  0
 52 51  1  0
 53 64  2  0
 54 52  1  0
 54 59  1  0
 55 63  1  0
 55 65  1  0
 56 62  1  0
 56 58  1  0
 57 63  1  0
 58 59  2  0
 58 57  1  0
 60 54  2  0
 61 60  1  0
 61 56  2  0
 62 55  1  0
 63 53  1  0
 65 67  2  0
 66 65  1  0
 68 66  1  0
 69 78  2  0
 69 74  1  0
 70 66  1  0
 70 74  1  0
 71 70  1  0
 72 73  1  0
 72 71  1  0
 73 69  1  0
 74 75  2  0
 75 76  1  0
 77 76  2  0
 78 77  1  0
 79 53  1  0
 79 84  1  0
 79 80  1  0
 80 83  1  1
 80 81  1  0
 82 80  1  0
 84 87  1  0
 85 89  1  0
 85 84  1  0
 86 85  2  0
 89 88  1  0
 91 89  1  0
 91 92  1  0
 91 90  1  0
M  ISO  4   8 100  17 100  51 101  52 101
M  END
>  <TORSDO>  (62) 
F 20

>  <SCORE>  (62) 
-15.007

>  <name>  (62) 
61

>  <ligand_id>  (62) 
61

>  <original_smiles>  (62) 
[H]c1c([H])c([H])c2c(c1[H])C([H])([H])C([H])([H])C([H])([H])C2([H])N([H])C(=O)C1([H])N(C(=O)C([H])(N([H])C(=O)C([H])(N([H])C([H])([H])[H])C([H])([H])[H])C(C([H])([H])[H])(C([H])([H])[H])C([H])([H])[H])C([H])([H])c2c([H])c(OC([H])([H])C([H])([H])C([H])(C([H])([H])[H])[N+]([H])([H])C3(C(=O)N([H])C(=O)N4C([H])([H])C([H])([H])C([H])([H])C([H])(n5nc(-c6c([H])c([H])c(Oc7c([H])c([H])c(F)c([H])c7F)c([H])c6[H])c(C(=O)N([H])[H])c5N([H])[H])C4([H])[H])C([H])([H])C([H])([H])C3([H])[H])c([H])c([H])c2C1([H])[H]

>  <smiles>  (62) 
[H]c1c([H])c([H])c2c(c1[H])C([H])([H])C([H])([H])C([H])([H])C2([H])N([H])C(=O)C1([H])N(C(=O)C([H])(N([H])C(=O)C([H])(N([H])C([H])([H])[H])C([H])([H])[H])C(C([H])([H])[H])(C([H])([H])[H])C([H])([H])[H])C([H])([H])c2c([H])c(OC([H])([H])C([H])([H])C([H])(C([H])([H])[H])[N+]([H])([H])C3(C(=O)N([H])C(=O)N4C([H])([H])C([H])([H])C([H])([H])C([H])(n5nc(-c6c([H])c([H])c(Oc7c([H])c([H])c(F)c([H])c7F)c([H])c6[H])c(C(=O)N([H])[H])c5N([H])[H])C4([H])[H])C([H])([H])C([H])([H])C3([H])[H])c([H])c([H])c2C1([H])[H]

$$$$
62:0:0
     RDKit          3D

 95104  0  0  1  0  0  0  0  0999 V2000
  -28.8420  -22.8070   21.1930 C   0  0  0  0  0  2  0  0  0  0  0  0
  -30.5440  -24.1130   20.0750 C   0  0  0  0  0  2  0  0  0  0  0  0
  -29.5200  -21.8970   20.1300 C   0  0  0  0  0  3  0  0  0  0  0  0
  -29.2530  -24.2850   20.8990 C   0  0  0  0  0  3  0  0  0  0  0  0
  -30.6620  -22.6920   19.6450 N   0  0  0  0  0  4  0  0  0  0  0  0
  -31.4690  -22.2610   20.0760 H   0  0  0  0  0  0  0  0  0  0  0  0
  -30.7610  -22.5980   18.6470 H   0  0  0  0  0  0  0  0  0  0  0  0
  -30.0380  -20.4990   20.6340 C   0  0  0  0  0  0  0  0  0  0  0  0
  -28.2150  -19.2340   19.5010 C   0  0  0  0  0  2  0  0  0  0  0  0
  -28.4220  -17.7180   19.5480 C   0  0  0  0  0  3  0  0  0  0  0  0
  -29.7710  -17.9740   20.2440 C   0  0  0  0  0  3  0  0  0  0  0  0
  -28.3920  -16.9210   18.2490 C   0  0  0  0  0  1  0  0  0  0  0  0
  -29.2390  -19.3310   20.5320 N   0  0  0  0  0  0  0  0  0  0  0  0
  -31.2120  -20.4020   21.0020 O   0  0  0  0  0  0  0  0  0  0  0  0
  -30.1720  -17.0760   21.4510 C   0  0  0  0  0  2  0  0  0  0  0  0
  -30.6540  -14.6190   20.8320 C   0  0  0  0  0  0  0  0  0  0  0  0
  -30.4900  -12.3970   19.7410 C   0  0  0  0  0  2  0  0  0  0  0  0
  -29.6130  -12.5130   18.4740 C   0  0  0  0  0  2  0  0  0  0  0  0
  -28.1150  -12.3740   18.8160 C   0  0  0  0  0  2  0  0  0  0  0  0
  -27.6900  -13.2510   20.0240 C   0  0  0  0  0  3  0  0  0  0  0  0
  -28.6790  -13.0860   21.1990 C   0  0  0  0  0  2  0  0  0  0  0  0
  -30.0260  -13.4130   20.7000 N   0  0  0  0  0  0  0  0  0  0  0  0
  -31.8110  -14.8110   20.4480 O   0  0  0  0  0  0  0  0  0  0  0  0
  -29.8720  -15.6320   21.2720 N   0  0  0  0  0  0  0  0  0  0  0  0
  -28.9320  -15.3590   21.5210 H   0  0  0  0  0  0  0  0  0  0  0  0
  -25.2550  -13.8690   20.5790 C   0  0  0  0  0  0  0  0  0  0  0  0
  -24.1660  -13.1050   20.9030 C   0  0  0  0  0  0  0  0  0  0  0  0
  -24.6270  -11.7540   20.9230 C   0  0  0  0  0  0  0  0  0  0  0  0
  -26.3110  -12.9840   20.4270 N   0  0  0  0  0  0  0  0  0  0  0  0
  -25.9330  -11.7070   20.6900 N   0  0  0  0  0  0  0  0  0  0  0  0
  -23.8890  -10.4950   21.0920 C   0  0  0  0  0  0  0  0  0  0  0  0
  -24.2790   -9.5340   22.0510 C   0  0  0  0  0  3  0  0  0  0  0  0
  -23.5460   -8.3380   22.2060 C   0  0  0  0  0  3  0  0  0  0  0  0
  -22.4050   -8.0970   21.4030 C   0  0  0  0  0  0  0  0  0  0  0  0
  -22.0360   -9.0450   20.4330 C   0  0  0  0  0  3  0  0  0  0  0  0
  -22.7710  -10.2330   20.2760 C   0  0  0  0  0  3  0  0  0  0  0  0
  -21.6440   -6.9550   21.4670 O   0  0  0  0  0  0  0  0  0  0  0  0
  -21.5530   -6.2150   22.6180 C   0  0  0  0  0  0  0  0  0  0  0  0
  -21.0780   -6.7700   23.8280 C   0  0  0  0  0  3  0  0  0  0  0  0
  -20.9380   -5.9560   24.9690 C   0  0  0  0  0  3  0  0  0  0  0  0
  -21.2590   -4.5860   24.9010 C   0  0  0  0  0  0  0  0  0  0  0  0
  -21.7250   -4.0300   23.6970 C   0  0  0  0  0  3  0  0  0  0  0  0
  -21.8680   -4.8410   22.5590 C   0  0  0  0  0  0  0  0  0  0  0  0
  -22.2980   -4.2970   21.3950 F   0  0  0  0  0  0  0  0  0  0  0  0
  -21.1160   -3.8020   25.9950 F   0  0  0  0  0  0  0  0  0  0  0  0
  -22.7560  -13.5880   21.0870 C   0  0  0  0  0  0  0  0  0  0  0  0
  -21.9780  -12.9090   21.9240 N   0  0  0  0  0  0  0  0  0  0  0  0
  -22.3490  -14.6010   20.5210 O   0  0  0  0  0  0  0  0  0  0  0  0
  -22.3190  -12.0910   22.4070 H   0  0  0  0  0  0  0  0  0  0  0  0
  -21.0290  -13.2130   22.0860 H   0  0  0  0  0  0  0  0  0  0  0  0
  -25.4310  -15.2370   20.3840 N   0  0  0  0  0  0  0  0  0  0  0  0
  -24.6590  -15.8900   20.4250 H   0  0  0  0  0  0  0  0  0  0  0  0
  -26.2940  -15.6610   20.0720 H   0  0  0  0  0  0  0  0  0  0  0  0
  -28.1530  -25.1860   20.2270 C   0  0  0  0  0  2  0  0  0  0  0  0
  -28.3500  -26.6340   20.2900 O   0  0  0  0  0  0  0  0  0  0  0  0
  -24.5270  -31.9030   23.2810 C   0  0  0  0  0  0  0  0  0  0  0  0
  -27.2060  -27.4300   20.2200 C   0  0  0  0  0  0  0  0  0  0  0  0
  -23.3410  -30.5040   21.6260 C   0  0  0  0  0  3  0  0  0  0  0  0
  -24.8140  -28.9780   20.2010 C   0  0  0  0  0  0  0  0  0  0  0  0
  -25.8720  -30.8610   21.4520 C   0  0  0  0  0  2  0  0  0  0  0  0
  -25.9700  -29.4890   20.8050 C   0  0  0  0  0  0  0  0  0  0  0  0
  -27.1700  -28.7250   20.8060 C   0  0  0  0  0  3  0  0  0  0  0  0
  -26.0290  -26.9620   19.5860 C   0  0  0  0  0  3  0  0  0  0  0  0
  -24.8430  -27.7170   19.5830 C   0  0  0  0  0  3  0  0  0  0  0  0
  -23.5680  -29.8340   20.2440 C   0  0  0  0  0  2  0  0  0  0  0  0
  -24.5990  -31.1040   22.1790 N   0  0  0  0  0  0  0  0  0  0  0  0
  -23.4400  -32.1700   23.8130 O   0  0  0  0  0  0  0  0  0  0  0  0
  -22.6840  -29.4760   22.5780 C   0  0  0  0  0  0  0  0  0  0  0  0
  -21.3600  -29.2920   22.4450 N   0  0  0  0  0  0  0  0  0  0  0  0
  -23.3650  -28.8470   23.3940 O   0  0  0  0  0  0  0  0  0  0  0  0
  -20.8710  -29.8510   21.7600 H   0  0  0  0  0  0  0  0  0  0  0  0
  -17.9850  -28.0920   22.9300 C   0  0  0  0  0  0  0  0  0  0  0  0
  -20.5420  -28.3490   23.2080 C   0  0  0  0  0  3  0  0  0  0  0  0
  -20.6460  -26.9220   22.6220 C   0  0  0  0  0  2  0  0  0  0  0  0
  -19.5470  -26.6070   21.6030 C   0  0  0  0  0  2  0  0  0  0  0  0
  -18.1630  -26.7480   22.2440 C   0  0  0  0  0  2  0  0  0  0  0  0
  -19.1030  -28.8510   23.3680 C   0  0  0  0  0  0  0  0  0  0  0  0
  -18.8830  -30.1100   23.9680 C   0  0  0  0  0  3  0  0  0  0  0  0
  -17.5770  -30.6090   24.1370 C   0  0  0  0  0  3  0  0  0  0  0  0
  -16.4740  -29.8460   23.7160 C   0  0  0  0  0  3  0  0  0  0  0  0
  -16.6790  -28.5900   23.1160 C   0  0  0  0  0  3  0  0  0  0  0  0
  -25.8060  -32.5400   23.9120 C   0  0  0  0  0  3  0  0  0  0  0  0
  -26.3070  -31.7770   25.2000 C   0  0  1  0  0  0  0  0  0  0  0  0
  -25.2010  -31.5520   26.2570 C   0  0  0  0  0  1  0  0  0  0  0  0
  -26.8890  -30.3940   24.8240 C   0  0  0  0  0  1  0  0  0  0  0  0
  -27.4510  -32.5750   25.8690 C   0  0  0  0  0  1  0  0  0  0  0  0
  -25.4960  -33.9420   24.2250 N   0  0  0  0  0  0  0  0  0  0  0  0
  -25.8320  -34.9850   23.4540 C   0  0  0  0  0  0  0  0  0  0  0  0
  -26.5060  -34.8700   22.4260 O   0  0  0  0  0  0  0  0  0  0  0  0
  -24.9070  -34.1080   25.0270 H   0  0  0  0  0  0  0  0  0  0  0  0
  -24.1040  -36.7710   23.0710 C   0  0  0  0  0  1  0  0  0  0  0  0
  -25.3420  -36.3790   23.8910 C   0  0  0  0  0  3  0  0  0  0  0  0
  -27.4730  -37.2750   24.7210 C   0  0  0  0  0  1  0  0  0  0  0  0
  -26.3740  -37.4310   23.7710 N   0  0  0  0  0  0  0  0  0  0  0  0
  -25.9670  -38.3530   23.9060 H   0  0  0  0  0  0  0  0  0  0  0  0
  2  4  1  0
  3  8  1  0
  3  1  1  0
  4 54  1  0
  4  1  1  0
  5  2  1  0
  5  6  1  0
  5  3  1  0
  7  5  1  0
  8 14  2  0
  9 10  1  0
  9 13  1  0
 10 12  1  0
 10 11  1  0
 11 13  1  0
 11 15  1  0
 13  8  1  0
 16 24  1  0
 17 22  1  0
 18 19  1  0
 18 17  1  0
 20 19  1  0
 20 29  1  0
 20 21  1  0
 22 16  1  0
 22 21  1  0
 23 16  2  0
 24 15  1  0
 24 25  1  0
 26 27  2  0
 27 28  1  0
 27 46  1  0
 28 31  1  0
 29 26  1  0
 29 30  1  0
 30 28  2  0
 31 32  1  0
 32 33  2  0
 34 37  1  0
 34 33  1  0
 35 34  2  0
 36 35  1  0
 36 31  2  0
 37 38  1  0
 38 39  1  0
 39 40  2  0
 41 40  1  0
 41 45  1  0
 42 41  2  0
 43 38  2  0
 43 42  1  0
 44 43  1  0
 46 47  1  0
 47 50  1  0
 47 49  1  0
 48 46  2  0
 51 52  1  0
 51 26  1  0
 53 51  1  0
 54 55  1  0
 56 67  2  0
 57 55  1  0
 57 62  1  0
 58 66  1  0
 58 68  1  0
 59 65  1  0
 59 61  1  0
 60 66  1  0
 61 62  2  0
 61 60  1  0
 63 57  2  0
 64 63  1  0
 64 59  2  0
 65 58  1  0
 66 56  1  0
 68 70  2  0
 69 68  1  0
 71 69  1  0
 72 81  2  0
 72 77  1  0
 73 69  1  0
 73 77  1  0
 74 73  1  0
 75 76  1  0
 75 74  1  0
 76 72  1  0
 77 78  2  0
 78 79  1  0
 80 79  2  0
 81 80  1  0
 82 56  1  0
 82 87  1  0
 82 83  1  0
 83 86  1  1
 83 84  1  0
 85 83  1  0
 87 90  1  0
 88 92  1  0
 88 87  1  0
 89 88  2  0
 92 91  1  0
 94 92  1  0
 94 95  1  0
 94 93  1  0
M  ISO  4  16 100  24 100  54 101  55 101
M  END
>  <TORSDO>  (63) 
F 19

>  <SCORE>  (63) 
-14.191

>  <name>  (63) 
62

>  <ligand_id>  (63) 
62

>  <original_smiles>  (63) 
[H]c1c([H])c([H])c2c(c1[H])C([H])([H])C([H])([H])C([H])([H])C2([H])N([H])C(=O)C1([H])N(C(=O)C([H])(N([H])C(=O)C([H])(N([H])C([H])([H])[H])C([H])([H])[H])C(C([H])([H])[H])(C([H])([H])[H])C([H])([H])[H])C([H])([H])c2c([H])c(OC([H])([H])C3([H])C([H])([H])C([H])(C(=O)N4C([H])([H])C([H])(C([H])([H])[H])C4([H])C([H])([H])N([H])C(=O)N4C([H])([H])C([H])([H])C([H])([H])C([H])(n5nc(-c6c([H])c([H])c(Oc7c([H])c([H])c(F)c([H])c7F)c([H])c6[H])c(C(=O)N([H])[H])c5N([H])[H])C4([H])[H])[N+]([H])([H])C3([H])[H])c([H])c([H])c2C1([H])[H]

>  <smiles>  (63) 
[H]c1c([H])c([H])c2c(c1[H])C([H])([H])C([H])([H])C([H])([H])C2([H])N([H])C(=O)C1([H])N(C(=O)C([H])(N([H])C(=O)C([H])(N([H])C([H])([H])[H])C([H])([H])[H])C(C([H])([H])[H])(C([H])([H])[H])C([H])([H])[H])C([H])([H])c2c([H])c(OC([H])([H])C3([H])C([H])([H])C([H])(C(=O)N4C([H])([H])C([H])(C([H])([H])[H])C4([H])C([H])([H])N([H])C(=O)N4C([H])([H])C([H])([H])C([H])([H])C([H])(n5nc(-c6c([H])c([H])c(Oc7c([H])c([H])c(F)c([H])c7F)c([H])c6[H])c(C(=O)N([H])[H])c5N([H])[H])C4([H])[H])[N+]([H])([H])C3([H])[H])c([H])c([H])c2C1([H])[H]

$$$$
63:0:0
     RDKit          3D

 93102  0  0  1  0  0  0  0  0999 V2000
  -29.9050  -21.4440   21.9210 C   0  0  0  0  0  2  0  0  0  0  0  0
  -30.3740  -23.9590   21.1420 C   0  0  0  0  0  2  0  0  0  0  0  0
  -28.6010  -23.7040   22.1010 C   0  0  0  0  0  2  0  0  0  0  0  0
  -28.7230  -22.4060   19.8660 C   0  0  0  0  0  2  0  0  0  0  0  0
  -29.9390  -22.9610   22.2450 C   0  0  0  0  0  3  0  0  0  0  0  0
  -29.6140  -21.1830   20.4210 C   0  0  0  0  0  3  0  0  0  0  0  0
  -28.9370  -23.8110   20.5980 C   0  0  2  0  0  0  0  0  0  0  0  0
  -29.1570  -19.7480   20.0710 N   0  0  1  0  0  4  0  0  0  0  0  0
  -28.2360  -19.6880   20.4800 H   0  0  0  0  0  0  0  0  0  0  0  0
  -30.1390  -19.6880   17.7160 C   0  0  0  0  0  1  0  0  0  0  0  0
  -28.8860  -19.5970   18.6080 C   0  0  0  0  0  2  0  0  0  0  0  0
  -29.8730  -18.5300   20.7060 C   0  0  0  0  0  3  0  0  0  0  0  0
  -29.5870  -17.0700   20.0710 C   0  0  0  0  0  3  0  0  0  0  0  0
  -30.6060  -14.6980   20.4140 C   0  0  0  0  0  0  0  0  0  0  0  0
  -30.3930  -12.4470   19.3750 C   0  0  0  0  0  2  0  0  0  0  0  0
  -29.4620  -12.5790   18.1470 C   0  0  0  0  0  2  0  0  0  0  0  0
  -27.9870  -12.4220   18.5630 C   0  0  0  0  0  2  0  0  0  0  0  0
  -27.6240  -13.2900   19.7990 C   0  0  0  0  0  3  0  0  0  0  0  0
  -28.6710  -13.1390   20.9260 C   0  0  0  0  0  2  0  0  0  0  0  0
  -29.9900  -13.4710   20.3660 N   0  0  0  0  0  0  0  0  0  0  0  0
  -31.7330  -14.8650   19.9420 O   0  0  0  0  0  0  0  0  0  0  0  0
  -29.8410  -15.7690   20.8090 N   0  0  0  0  0  0  0  0  0  0  0  0
  -29.0490  -15.4760   21.3650 H   0  0  0  0  0  0  0  0  0  0  0  0
  -25.2240  -13.9000   20.4820 C   0  0  0  0  0  0  0  0  0  0  0  0
  -24.1510  -13.1340   20.8480 C   0  0  0  0  0  0  0  0  0  0  0  0
  -24.6090  -11.7810   20.8320 C   0  0  0  0  0  0  0  0  0  0  0  0
  -26.2690  -13.0150   20.2690 N   0  0  0  0  0  0  0  0  0  0  0  0
  -25.9030  -11.7360   20.5380 N   0  0  0  0  0  0  0  0  0  0  0  0
  -23.8760  -10.5230   21.0280 C   0  0  0  0  0  0  0  0  0  0  0  0
  -24.3060   -9.5560   21.9640 C   0  0  0  0  0  3  0  0  0  0  0  0
  -23.5760   -8.3630   22.1470 C   0  0  0  0  0  3  0  0  0  0  0  0
  -22.3990   -8.1280   21.3960 C   0  0  0  0  0  0  0  0  0  0  0  0
  -21.9890   -9.0830   20.4490 C   0  0  0  0  0  3  0  0  0  0  0  0
  -22.7200  -10.2680   20.2640 C   0  0  0  0  0  3  0  0  0  0  0  0
  -21.6390   -6.9870   21.4880 O   0  0  0  0  0  0  0  0  0  0  0  0
  -21.5990   -6.2410   22.6390 C   0  0  0  0  0  0  0  0  0  0  0  0
  -21.1950   -6.7970   23.8730 C   0  0  0  0  0  3  0  0  0  0  0  0
  -21.1020   -5.9780   25.0150 C   0  0  0  0  0  3  0  0  0  0  0  0
  -21.3990   -4.6050   24.9250 C   0  0  0  0  0  0  0  0  0  0  0  0
  -21.7940   -4.0500   23.6960 C   0  0  0  0  0  3  0  0  0  0  0  0
  -21.8900   -4.8650   22.5550 C   0  0  0  0  0  0  0  0  0  0  0  0
  -22.2520   -4.3210   21.3680 F   0  0  0  0  0  0  0  0  0  0  0  0
  -21.3010   -3.8160   26.0210 F   0  0  0  0  0  0  0  0  0  0  0  0
  -22.7530  -13.6180   21.1030 C   0  0  0  0  0  0  0  0  0  0  0  0
  -22.0170  -12.9320   21.9700 N   0  0  0  0  0  0  0  0  0  0  0  0
  -22.3230  -14.6400   20.5690 O   0  0  0  0  0  0  0  0  0  0  0  0
  -22.3790  -12.1050   22.4220 H   0  0  0  0  0  0  0  0  0  0  0  0
  -21.0760  -13.2350   22.1830 H   0  0  0  0  0  0  0  0  0  0  0  0
  -25.3950  -15.2690   20.2920 N   0  0  0  0  0  0  0  0  0  0  0  0
  -24.6210  -15.9190   20.3710 H   0  0  0  0  0  0  0  0  0  0  0  0
  -26.2420  -15.6980   19.9480 H   0  0  0  0  0  0  0  0  0  0  0  0
  -28.2370  -25.0260   19.8250 C   0  0  0  0  0  2  0  0  0  0  0  0
  -28.3510  -26.4550   20.2550 O   0  0  0  0  0  0  0  0  0  0  0  0
  -24.6430  -31.9040   23.2370 C   0  0  0  0  0  0  0  0  0  0  0  0
  -27.2410  -27.3270   20.1660 C   0  0  0  0  0  0  0  0  0  0  0  0
  -23.4330  -30.5090   21.6010 C   0  0  0  0  0  3  0  0  0  0  0  0
  -24.8800  -28.9650   20.1640 C   0  0  0  0  0  0  0  0  0  0  0  0
  -25.9750  -30.8190   21.4140 C   0  0  0  0  0  2  0  0  0  0  0  0
  -26.0500  -29.4380   20.7680 C   0  0  0  0  0  0  0  0  0  0  0  0
  -27.2280  -28.6280   20.7690 C   0  0  0  0  0  3  0  0  0  0  0  0
  -26.0530  -26.9360   19.5020 C   0  0  0  0  0  3  0  0  0  0  0  0
  -24.8850  -27.7200   19.5220 C   0  0  0  0  0  3  0  0  0  0  0  0
  -23.6430  -29.8370   20.2180 C   0  0  0  0  0  2  0  0  0  0  0  0
  -24.7030  -31.0960   22.1390 N   0  0  0  0  0  0  0  0  0  0  0  0
  -23.5620  -32.1810   23.7760 O   0  0  0  0  0  0  0  0  0  0  0  0
  -22.7760  -29.4880   22.5610 C   0  0  0  0  0  0  0  0  0  0  0  0
  -21.4490  -29.3100   22.4400 N   0  0  0  0  0  0  0  0  0  0  0  0
  -23.4590  -28.8610   23.3760 O   0  0  0  0  0  0  0  0  0  0  0  0
  -20.9590  -29.8690   21.7560 H   0  0  0  0  0  0  0  0  0  0  0  0
  -18.0740  -28.1100   22.9500 C   0  0  0  0  0  0  0  0  0  0  0  0
  -20.6340  -28.3710   23.2140 C   0  0  0  0  0  3  0  0  0  0  0  0
  -20.7350  -26.9390   22.6380 C   0  0  0  0  0  2  0  0  0  0  0  0
  -19.6300  -26.6150   21.6280 C   0  0  0  0  0  2  0  0  0  0  0  0
  -18.2490  -26.7600   22.2740 C   0  0  0  0  0  2  0  0  0  0  0  0
  -19.1940  -28.8730   23.3770 C   0  0  0  0  0  0  0  0  0  0  0  0
  -18.9760  -30.1360   23.9680 C   0  0  0  0  0  3  0  0  0  0  0  0
  -17.6710  -30.6360   24.1390 C   0  0  0  0  0  3  0  0  0  0  0  0
  -16.5660  -29.8700   23.7280 C   0  0  0  0  0  3  0  0  0  0  0  0
  -16.7680  -28.6090   23.1400 C   0  0  0  0  0  3  0  0  0  0  0  0
  -25.9290  -32.5360   23.8540 C   0  0  0  0  0  3  0  0  0  0  0  0
  -25.6180  -33.9300   24.1950 N   0  0  0  0  0  0  0  0  0  0  0  0
  -25.9330  -34.9880   23.4360 C   0  0  0  0  0  0  0  0  0  0  0  0
  -26.5840  -34.8940   22.3930 O   0  0  0  0  0  0  0  0  0  0  0  0
  -25.0420  -34.0810   25.0110 H   0  0  0  0  0  0  0  0  0  0  0  0
  -24.1830  -36.7690   23.1270 C   0  0  0  0  0  1  0  0  0  0  0  0
  -25.4460  -36.3720   23.9080 C   0  0  0  0  0  3  0  0  0  0  0  0
  -27.5920  -37.2680   24.6930 C   0  0  0  0  0  1  0  0  0  0  0  0
  -26.4670  -37.4330   23.7760 N   0  0  0  0  0  0  0  0  0  0  0  0
  -26.0580  -38.3500   23.9400 H   0  0  0  0  0  0  0  0  0  0  0  0
  -26.4570  -31.7590   25.1220 C   0  0  1  0  0  0  0  0  0  0  0  0
  -25.3710  -31.5110   26.1960 C   0  0  0  0  0  1  0  0  0  0  0  0
  -27.0430  -30.3860   24.7190 C   0  0  0  0  0  1  0  0  0  0  0  0
  -27.6080  -32.5550   25.7820 C   0  0  0  0  0  1  0  0  0  0  0  0
  1  5  1  0
  3  5  1  0
  4  6  1  0
  4  7  1  0
  5  2  1  0
  6  8  1  0
  6  1  1  0
  7 52  1  6
  7  2  1  0
  7  3  1  0
  8  9  1  1
  8 12  1  0
 10 11  1  0
 11  8  1  0
 13 12  2  0
 13 22  1  0
 14 22  1  0
 15 20  1  0
 16 17  1  0
 16 15  1  0
 18 17  1  0
 18 27  1  0
 18 19  1  0
 20 14  1  0
 20 19  1  0
 21 14  2  0
 22 23  1  0
 24 25  2  0
 25 44  1  0
 26 25  1  0
 26 29  1  0
 27 24  1  0
 27 28  1  0
 28 26  2  0
 29 30  1  0
 30 31  2  0
 32 35  1  0
 32 31  1  0
 33 32  2  0
 34 33  1  0
 34 29  2  0
 35 36  1  0
 36 37  1  0
 37 38  2  0
 39 38  1  0
 39 43  1  0
 40 39  2  0
 41 36  2  0
 41 40  1  0
 42 41  1  0
 44 45  1  0
 45 48  1  0
 45 47  1  0
 46 44  2  0
 49 50  1  0
 49 24  1  0
 51 49  1  0
 52 53  1  0
 54 65  2  0
 55 53  1  0
 55 60  1  0
 56 64  1  0
 56 66  1  0
 57 63  1  0
 57 59  1  0
 58 64  1  0
 59 60  2  0
 59 58  1  0
 61 62  1  0
 61 55  2  0
 62 57  2  0
 63 56  1  0
 64 54  1  0
 66 68  2  0
 67 66  1  0
 69 67  1  0
 70 79  2  0
 70 75  1  0
 71 67  1  0
 71 75  1  0
 72 71  1  0
 73 74  1  0
 73 72  1  0
 74 70  1  0
 75 76  2  0
 76 77  1  0
 78 77  2  0
 79 78  1  0
 80 54  1  0
 80 81  1  0
 80 90  1  0
 81 84  1  0
 82 86  1  0
 82 81  1  0
 83 82  2  0
 86 85  1  0
 88 86  1  0
 88 89  1  0
 88 87  1  0
 90 93  1  1
 90 91  1  0
 92 90  1  0
M  ISO  4  14 100  22 100  52 101  53 101
M  END
>  <TORSDO>  (64) 
F 21

>  <SCORE>  (64) 
-13.709

>  <name>  (64) 
63

>  <ligand_id>  (64) 
63

>  <original_smiles>  (64) 
[H]c1c([H])c([H])c2c(c1[H])C([H])([H])C([H])([H])C([H])([H])C2([H])N([H])C(=O)C1([H])N(C(=O)C([H])(N([H])C(=O)C([H])(N([H])C([H])([H])[H])C([H])([H])[H])C(C([H])([H])[H])(C([H])([H])[H])C([H])([H])[H])C([H])([H])c2c([H])c(OC([H])([H])C34C([H])([H])C([H])(C3([H])[H])C([H])([H])C([H])([N+]([H])(C([H])([H])C([H])([H])[H])C([H])([H])C([H])([H])N([H])C(=O)N3C([H])([H])C([H])([H])C([H])([H])C([H])(n5nc(-c6c([H])c([H])c(Oc7c([H])c([H])c(F)c([H])c7F)c([H])c6[H])c(C(=O)N([H])[H])c5N([H])[H])C3([H])[H])C4([H])[H])c([H])c([H])c2C1([H])[H]

>  <smiles>  (64) 
[H]c1c([H])c([H])c2c(c1[H])C([H])([H])C([H])([H])C([H])([H])C2([H])N([H])C(=O)C1([H])N(C(=O)C([H])(N([H])C(=O)C([H])(N([H])C([H])([H])[H])C([H])([H])[H])C(C([H])([H])[H])(C([H])([H])[H])C([H])([H])[H])C([H])([H])c2c([H])c(OC([H])([H])C34C([H])([H])C([H])(C3([H])[H])C([H])([H])C([H])([N+]([H])(C([H])([H])C([H])([H])[H])C([H])([H])C([H])([H])N([H])C(=O)N3C([H])([H])C([H])([H])C([H])([H])C([H])(n5nc(-c6c([H])c([H])c(Oc7c([H])c([H])c(F)c([H])c7F)c([H])c6[H])c(C(=O)N([H])[H])c5N([H])[H])C3([H])[H])C4([H])[H])c([H])c([H])c2C1([H])[H]

$$$$
64:0:0
     RDKit          3D

 92102  0  0  1  0  0  0  0  0999 V2000
  -28.4340  -21.8240   19.0630 C   0  0  0  0  0  2  0  0  0  0  0  0
  -27.2260  -19.5640   20.2770 C   0  0  0  0  0  2  0  0  0  0  0  0
  -28.2280  -17.8280   18.7680 C   0  0  0  0  0  2  0  0  0  0  0  0
  -27.6940  -19.2580   18.8350 C   0  0  1  0  0  0  0  0  0  0  0  0
  -28.7340  -19.3180   20.4440 C   0  0  2  0  0  0  0  0  0  0  0  0
  -28.9060  -17.7930   20.1340 C   0  0  0  0  0  3  0  0  0  0  0  0
  -28.8020  -20.2800   19.1930 C   0  0  0  0  0  3  0  0  0  0  0  0
  -30.2790  -17.0350   20.1780 C   0  0  0  0  0  2  0  0  0  0  0  0
  -30.8770  -14.5350   20.0530 C   0  0  0  0  0  0  0  0  0  0  0  0
  -30.6270  -12.2880   19.0490 C   0  0  0  0  0  2  0  0  0  0  0  0
  -29.6320  -12.3940   17.8750 C   0  0  0  0  0  2  0  0  0  0  0  0
  -28.1790  -12.2390   18.3700 C   0  0  0  0  0  2  0  0  0  0  0  0
  -27.8710  -13.1340   19.5990 C   0  0  0  0  0  3  0  0  0  0  0  0
  -28.9750  -12.9910   20.6740 C   0  0  0  0  0  2  0  0  0  0  0  0
  -30.2620  -13.3150   20.0380 N   0  0  0  0  0  0  0  0  0  0  0  0
  -31.9960  -14.7200   19.5690 O   0  0  0  0  0  0  0  0  0  0  0  0
  -30.0930  -15.5760   20.4310 N   0  0  0  0  0  0  0  0  0  0  0  0
  -29.2220  -15.3130   20.8700 H   0  0  0  0  0  0  0  0  0  0  0  0
  -25.5230  -13.7580   20.4540 C   0  0  0  0  0  0  0  0  0  0  0  0
  -24.4640  -12.9920   20.8590 C   0  0  0  0  0  0  0  0  0  0  0  0
  -24.8990  -11.6340   20.7610 C   0  0  0  0  0  0  0  0  0  0  0  0
  -26.5410  -12.8680   20.1400 N   0  0  0  0  0  0  0  0  0  0  0  0
  -26.1700  -11.5850   20.3830 N   0  0  0  0  0  0  0  0  0  0  0  0
  -24.1620  -10.3800   20.9460 C   0  0  0  0  0  0  0  0  0  0  0  0
  -24.5670   -9.4280   21.9100 C   0  0  0  0  0  3  0  0  0  0  0  0
  -23.8370   -8.2340   22.0870 C   0  0  0  0  0  3  0  0  0  0  0  0
  -22.6860   -7.9840   21.3020 C   0  0  0  0  0  0  0  0  0  0  0  0
  -22.3020   -8.9210   20.3290 C   0  0  0  0  0  3  0  0  0  0  0  0
  -23.0320  -10.1090   20.1490 C   0  0  0  0  0  3  0  0  0  0  0  0
  -21.9270   -6.8420   21.3880 O   0  0  0  0  0  0  0  0  0  0  0  0
  -21.7650   -6.1710   22.5720 C   0  0  0  0  0  0  0  0  0  0  0  0
  -21.1620   -6.7790   23.6960 C   0  0  0  0  0  3  0  0  0  0  0  0
  -20.9550   -6.0330   24.8720 C   0  0  0  0  0  3  0  0  0  0  0  0
  -21.3350   -4.6780   24.9240 C   0  0  0  0  0  0  0  0  0  0  0  0
  -21.9310   -4.0710   23.8040 C   0  0  0  0  0  3  0  0  0  0  0  0
  -22.1420   -4.8150   22.6320 C   0  0  0  0  0  0  0  0  0  0  0  0
  -22.6970   -4.2200   21.5470 F   0  0  0  0  0  0  0  0  0  0  0  0
  -21.1260   -3.9570   26.0500 F   0  0  0  0  0  0  0  0  0  0  0  0
  -23.0920  -13.4800   21.2250 C   0  0  0  0  0  0  0  0  0  0  0  0
  -22.4010  -12.7680   22.1070 N   0  0  0  0  0  0  0  0  0  0  0  0
  -22.6420  -14.5280   20.7620 O   0  0  0  0  0  0  0  0  0  0  0  0
  -22.7770  -11.9210   22.5070 H   0  0  0  0  0  0  0  0  0  0  0  0
  -21.4820  -13.0770   22.3890 H   0  0  0  0  0  0  0  0  0  0  0  0
  -25.6980  -15.1310   20.3090 N   0  0  0  0  0  0  0  0  0  0  0  0
  -24.9500  -15.7980   20.4650 H   0  0  0  0  0  0  0  0  0  0  0  0
  -26.5380  -15.5610   19.9470 H   0  0  0  0  0  0  0  0  0  0  0  0
  -29.1550  -22.7950   19.9430 N   0  0  0  0  0  4  0  0  0  0  0  0
  -30.0490  -23.0120   19.5310 H   0  0  0  0  0  0  0  0  0  0  0  0
  -29.3500  -22.2930   20.7950 H   0  0  0  0  0  0  0  0  0  0  0  0
  -28.4350  -24.0670   20.3410 C   0  0  0  0  0  2  0  0  0  0  0  0
  -28.7070  -25.3510   19.4750 C   0  0  0  0  0  2  0  0  0  0  0  0
  -28.5450  -26.6250   20.1740 O   0  0  0  0  0  0  0  0  0  0  0  0
  -24.6630  -31.8290   23.2160 C   0  0  0  0  0  0  0  0  0  0  0  0
  -27.3620  -27.3600   20.1440 C   0  0  0  0  0  0  0  0  0  0  0  0
  -23.4890  -30.4390   21.5430 C   0  0  0  0  0  3  0  0  0  0  0  0
  -24.9720  -28.9080   20.1370 C   0  0  0  0  0  0  0  0  0  0  0  0
  -26.0280  -30.7850   21.4060 C   0  0  0  0  0  2  0  0  0  0  0  0
  -26.1240  -29.4170   20.7460 C   0  0  0  0  0  0  0  0  0  0  0  0
  -27.3200  -28.6510   20.7410 C   0  0  0  0  0  3  0  0  0  0  0  0
  -26.1730  -26.8690   19.5570 C   0  0  0  0  0  3  0  0  0  0  0  0
  -24.9920  -27.6350   19.5450 C   0  0  0  0  0  3  0  0  0  0  0  0
  -23.7300  -29.7720   20.1630 C   0  0  0  0  0  2  0  0  0  0  0  0
  -24.7430  -31.0330   22.1110 N   0  0  0  0  0  0  0  0  0  0  0  0
  -23.5720  -32.0980   23.7380 O   0  0  0  0  0  0  0  0  0  0  0  0
  -22.8210  -29.4070   22.4840 C   0  0  0  0  0  0  0  0  0  0  0  0
  -21.4940  -29.2450   22.3530 N   0  0  0  0  0  0  0  0  0  0  0  0
  -23.4950  -28.7570   23.2890 O   0  0  0  0  0  0  0  0  0  0  0  0
  -21.0090  -29.8150   21.6760 H   0  0  0  0  0  0  0  0  0  0  0  0
  -18.1010  -28.1110   22.8510 C   0  0  0  0  0  0  0  0  0  0  0  0
  -20.6660  -28.3010   23.1010 C   0  0  0  0  0  3  0  0  0  0  0  0
  -20.7320  -26.8900   22.4740 C   0  0  0  0  0  2  0  0  0  0  0  0
  -19.6090  -26.6210   21.4690 C   0  0  0  0  0  2  0  0  0  0  0  0
  -18.2390  -26.7790   22.1330 C   0  0  0  0  0  2  0  0  0  0  0  0
  -19.2410  -28.8330   23.2910 C   0  0  0  0  0  0  0  0  0  0  0  0
  -19.0550  -30.0840   23.9200 C   0  0  0  0  0  3  0  0  0  0  0  0
  -17.7650  -30.6100   24.1110 C   0  0  0  0  0  3  0  0  0  0  0  0
  -16.6400  -29.8830   23.6900 C   0  0  0  0  0  3  0  0  0  0  0  0
  -16.8090  -28.6340   23.0650 C   0  0  0  0  0  3  0  0  0  0  0  0
  -25.9370  -32.4560   23.8640 C   0  0  0  0  0  3  0  0  0  0  0  0
  -25.6210  -33.8530   24.1940 N   0  0  0  0  0  0  0  0  0  0  0  0
  -25.9690  -34.9080   23.4460 C   0  0  0  0  0  0  0  0  0  0  0  0
  -26.6570  -34.8110   22.4270 O   0  0  0  0  0  0  0  0  0  0  0  0
  -25.0140  -34.0090   24.9860 H   0  0  0  0  0  0  0  0  0  0  0  0
  -24.2530  -36.7040   23.0620 C   0  0  0  0  0  1  0  0  0  0  0  0
  -25.4710  -36.2930   23.9050 C   0  0  0  0  0  3  0  0  0  0  0  0
  -27.5750  -37.1740   24.8120 C   0  0  0  0  0  1  0  0  0  0  0  0
  -26.5070  -37.3460   23.8300 N   0  0  0  0  0  0  0  0  0  0  0  0
  -26.0970  -38.2650   23.9680 H   0  0  0  0  0  0  0  0  0  0  0  0
  -26.4340  -31.6790   25.1450 C   0  0  1  0  0  0  0  0  0  0  0  0
  -25.3190  -31.4280   26.1860 C   0  0  0  0  0  1  0  0  0  0  0  0
  -27.0320  -30.3070   24.7580 C   0  0  0  0  0  1  0  0  0  0  0  0
  -27.5650  -32.4750   25.8360 C   0  0  0  0  0  1  0  0  0  0  0  0
  1 47  1  0
  3  6  1  0
  4  3  1  1
  4  7  1  0
  4  2  1  0
  4  5  1  0
  5  2  1  1
  6  8  1  0
  6  5  1  0
  7  1  1  0
  7  5  1  0
  8 17  1  0
  9 17  1  0
 10 15  1  0
 11 12  1  0
 11 10  1  0
 13 12  1  0
 13 22  1  0
 13 14  1  0
 15  9  1  0
 15 14  1  0
 16  9  2  0
 17 18  1  0
 19 20  2  0
 20 39  1  0
 21 20  1  0
 21 24  1  0
 22 23  1  0
 22 19  1  0
 23 21  2  0
 24 25  1  0
 25 26  2  0
 27 30  1  0
 27 26  1  0
 28 27  2  0
 29 28  1  0
 29 24  2  0
 30 31  1  0
 31 36  2  0
 31 32  1  0
 32 33  2  0
 33 34  1  0
 34 38  1  0
 35 34  2  0
 36 35  1  0
 37 36  1  0
 39 40  1  0
 40 43  1  0
 40 42  1  0
 41 39  2  0
 44 19  1  0
 44 45  1  0
 46 44  1  0
 47 50  1  0
 47 49  1  0
 48 47  1  0
 51 52  1  0
 51 50  1  0
 53 64  2  0
 54 52  1  0
 54 59  1  0
 55 63  1  0
 55 65  1  0
 56 62  1  0
 56 58  1  0
 57 63  1  0
 58 57  1  0
 59 58  2  0
 60 54  2  0
 61 60  1  0
 61 56  2  0
 62 55  1  0
 63 53  1  0
 65 67  2  0
 66 65  1  0
 68 66  1  0
 69 78  2  0
 69 74  1  0
 70 66  1  0
 70 74  1  0
 71 70  1  0
 72 73  1  0
 72 71  1  0
 73 69  1  0
 74 75  2  0
 75 76  1  0
 77 76  2  0
 78 77  1  0
 79 53  1  0
 79 80  1  0
 79 89  1  0
 80 83  1  0
 81 85  1  0
 81 80  1  0
 82 81  2  0
 85 84  1  0
 87 85  1  0
 87 88  1  0
 87 86  1  0
 89 92  1  1
 89 90  1  0
 91 89  1  0
M  ISO  4   9 100  17 100  51 101  52 101
M  END
>  <TORSDO>  (65) 
F 21

>  <SCORE>  (65) 
-12.894

>  <name>  (65) 
64

>  <ligand_id>  (65) 
64

>  <original_smiles>  (65) 
[H]c1c([H])c([H])c2c(c1[H])C([H])([H])C([H])([H])C([H])([H])C2([H])N([H])C(=O)C1([H])N(C(=O)C([H])(N([H])C(=O)C([H])(N([H])C([H])([H])[H])C([H])([H])[H])C(C([H])([H])[H])(C([H])([H])[H])C([H])([H])[H])C([H])([H])c2c([H])c(OC([H])([H])C([H])([H])[N+]([H])([H])C([H])([H])C3([H])C4([H])C([H])([H])C([H])(C([H])([H])N([H])C(=O)N5C([H])([H])C([H])([H])C([H])([H])C([H])(n6nc(-c7c([H])c([H])c(Oc8c([H])c([H])c(F)c([H])c8F)c([H])c7[H])c(C(=O)N([H])[H])c6N([H])[H])C5([H])[H])C3([H])C4([H])[H])c([H])c([H])c2C1([H])[H]

>  <smiles>  (65) 
[H]c1c([H])c([H])c2c(c1[H])C([H])([H])C([H])([H])C([H])([H])C2([H])N([H])C(=O)C1([H])N(C(=O)C([H])(N([H])C(=O)C([H])(N([H])C([H])([H])[H])C([H])([H])[H])C(C([H])([H])[H])(C([H])([H])[H])C([H])([H])[H])C([H])([H])c2c([H])c(OC([H])([H])C([H])([H])[N+]([H])([H])C([H])([H])C3([H])C4([H])C([H])([H])C([H])(C([H])([H])N([H])C(=O)N5C([H])([H])C([H])([H])C([H])([H])C([H])(n6nc(-c7c([H])c([H])c(Oc8c([H])c([H])c(F)c([H])c8F)c([H])c7[H])c(C(=O)N([H])[H])c6N([H])[H])C5([H])[H])C3([H])C4([H])[H])c([H])c([H])c2C1([H])[H]

$$$$
65:0:0
     RDKit          3D

 92100  0  0  1  0  0  0  0  0999 V2000
  -27.9130  -23.1460   18.7250 C   0  0  0  0  0  2  0  0  0  0  0  0
  -27.2930  -21.7570   18.4270 C   0  0  0  0  0  2  0  0  0  0  0  0
  -29.1960  -21.9520   20.5700 C   0  0  0  0  0  2  0  0  0  0  0  0
  -28.2220  -23.2720   20.2160 C   0  0  0  0  0  3  0  0  0  0  0  0
  -28.7940  -20.3850   20.1210 C   0  0  0  0  0  3  0  0  0  0  0  0
  -28.2260  -20.5320   18.6690 C   0  0  0  0  0  3  0  0  0  0  0  0
  -27.5330  -19.2990   18.2520 N   0  0  0  0  0  4  0  0  0  0  0  0
  -26.7200  -19.1320   18.8180 H   0  0  0  0  0  0  0  0  0  0  0  0
  -28.1490  -18.5100   18.3320 H   0  0  0  0  0  0  0  0  0  0  0  0
  -27.2430  -19.3680   17.2920 H   0  0  0  0  0  0  0  0  0  0  0  0
  -29.8570  -19.0550   20.1170 C   0  0  0  0  0  2  0  0  0  0  0  0
  -29.8080  -17.5970   20.9600 C   0  0  0  0  0  2  0  0  0  0  0  0
  -30.5010  -14.9540   20.3500 C   0  0  0  0  0  0  0  0  0  0  0  0
  -30.3840  -12.6190   19.3620 C   0  0  0  0  0  2  0  0  0  0  0  0
  -29.4370  -12.5840   18.1420 C   0  0  0  0  0  2  0  0  0  0  0  0
  -27.9730  -12.3810   18.5840 C   0  0  0  0  0  2  0  0  0  0  0  0
  -27.5780  -13.3010   19.7700 C   0  0  0  0  0  3  0  0  0  0  0  0
  -28.6420  -13.2870   20.8850 C   0  0  0  0  0  2  0  0  0  0  0  0
  -29.9070  -13.7000   20.2650 N   0  0  0  0  0  0  0  0  0  0  0  0
  -31.7190  -15.0310   20.1600 O   0  0  0  0  0  0  0  0  0  0  0  0
  -29.6790  -16.1110   20.4360 N   0  0  0  0  0  0  0  0  0  0  0  0
  -28.7110  -15.8330   20.3740 H   0  0  0  0  0  0  0  0  0  0  0  0
  -25.2020  -13.8940   20.5130 C   0  0  0  0  0  0  0  0  0  0  0  0
  -24.1360  -13.1230   20.8870 C   0  0  0  0  0  0  0  0  0  0  0  0
  -24.5970  -11.7710   20.8610 C   0  0  0  0  0  0  0  0  0  0  0  0
  -26.2420  -13.0100   20.2740 N   0  0  0  0  0  0  0  0  0  0  0  0
  -25.8870  -11.7290   20.5510 N   0  0  0  0  0  0  0  0  0  0  0  0
  -23.8660  -10.5110   21.0540 C   0  0  0  0  0  0  0  0  0  0  0  0
  -24.3010   -9.5390   21.9810 C   0  0  0  0  0  3  0  0  0  0  0  0
  -23.5700   -8.3460   22.1630 C   0  0  0  0  0  3  0  0  0  0  0  0
  -22.3900   -8.1170   21.4180 C   0  0  0  0  0  0  0  0  0  0  0  0
  -21.9730   -9.0780   20.4790 C   0  0  0  0  0  3  0  0  0  0  0  0
  -22.7040  -10.2630   20.2960 C   0  0  0  0  0  3  0  0  0  0  0  0
  -21.6290   -6.9760   21.5090 O   0  0  0  0  0  0  0  0  0  0  0  0
  -21.5940   -6.2240   22.6560 C   0  0  0  0  0  0  0  0  0  0  0  0
  -21.2010   -6.7740   23.8950 C   0  0  0  0  0  3  0  0  0  0  0  0
  -21.1140   -5.9500   25.0350 C   0  0  0  0  0  3  0  0  0  0  0  0
  -21.4080   -4.5770   24.9370 C   0  0  0  0  0  0  0  0  0  0  0  0
  -21.7930   -4.0270   23.7020 C   0  0  0  0  0  3  0  0  0  0  0  0
  -21.8830   -4.8480   22.5640 C   0  0  0  0  0  0  0  0  0  0  0  0
  -22.2350   -4.3080   21.3720 F   0  0  0  0  0  0  0  0  0  0  0  0
  -21.3160   -3.7830   26.0290 F   0  0  0  0  0  0  0  0  0  0  0  0
  -22.7400  -13.6070   21.1540 C   0  0  0  0  0  0  0  0  0  0  0  0
  -22.0080  -12.9160   22.0210 N   0  0  0  0  0  0  0  0  0  0  0  0
  -22.3070  -14.6300   20.6270 O   0  0  0  0  0  0  0  0  0  0  0  0
  -22.3710  -12.0870   22.4680 H   0  0  0  0  0  0  0  0  0  0  0  0
  -21.0710  -13.2220   22.2430 H   0  0  0  0  0  0  0  0  0  0  0  0
  -25.3670  -15.2640   20.3300 N   0  0  0  0  0  0  0  0  0  0  0  0
  -24.5950  -15.9120   20.4370 H   0  0  0  0  0  0  0  0  0  0  0  0
  -26.2040  -15.6990   19.9680 H   0  0  0  0  0  0  0  0  0  0  0  0
  -28.4520  -24.8570   20.7560 C   0  0  0  0  0  2  0  0  0  0  0  0
  -28.3200  -26.2570   20.1020 O   0  0  0  0  0  0  0  0  0  0  0  0
  -24.6210  -31.8660   23.1980 C   0  0  0  0  0  0  0  0  0  0  0  0
  -27.2100  -27.1610   20.1940 C   0  0  0  0  0  0  0  0  0  0  0  0
  -23.4200  -30.4600   21.5670 C   0  0  0  0  0  3  0  0  0  0  0  0
  -24.8680  -28.8740   20.1580 C   0  0  0  0  0  0  0  0  0  0  0  0
  -25.9690  -30.7380   21.3900 C   0  0  0  0  0  2  0  0  0  0  0  0
  -26.0470  -29.3410   20.7540 C   0  0  0  0  0  0  0  0  0  0  0  0
  -27.2220  -28.5020   20.7450 C   0  0  0  0  0  3  0  0  0  0  0  0
  -26.0010  -26.7770   19.5810 C   0  0  0  0  0  3  0  0  0  0  0  0
  -24.8560  -27.6030   19.5590 C   0  0  0  0  0  3  0  0  0  0  0  0
  -23.6390  -29.7700   20.1940 C   0  0  0  0  0  2  0  0  0  0  0  0
  -24.6900  -31.0440   22.1070 N   0  0  0  0  0  0  0  0  0  0  0  0
  -23.5360  -32.1490   23.7290 O   0  0  0  0  0  0  0  0  0  0  0  0
  -22.7460  -29.4560   22.5360 C   0  0  0  0  0  0  0  0  0  0  0  0
  -21.4190  -29.2830   22.4130 N   0  0  0  0  0  0  0  0  0  0  0  0
  -23.4220  -28.8350   23.3610 O   0  0  0  0  0  0  0  0  0  0  0  0
  -20.9300  -29.8360   21.7230 H   0  0  0  0  0  0  0  0  0  0  0  0
  -18.0430  -28.0720   22.9180 C   0  0  0  0  0  0  0  0  0  0  0  0
  -20.6000  -28.3480   23.1900 C   0  0  0  0  0  3  0  0  0  0  0  0
  -20.7100  -26.9120   22.6260 C   0  0  0  0  0  2  0  0  0  0  0  0
  -19.6120  -26.5760   21.6110 C   0  0  0  0  0  2  0  0  0  0  0  0
  -18.2280  -26.7180   22.2510 C   0  0  0  0  0  2  0  0  0  0  0  0
  -19.1570  -28.8420   23.3440 C   0  0  0  0  0  0  0  0  0  0  0  0
  -18.9290  -30.1070   23.9300 C   0  0  0  0  0  3  0  0  0  0  0  0
  -17.6210  -30.6010   24.0920 C   0  0  0  0  0  3  0  0  0  0  0  0
  -16.5220  -29.8270   23.6810 C   0  0  0  0  0  3  0  0  0  0  0  0
  -16.7340  -28.5630   23.1010 C   0  0  0  0  0  3  0  0  0  0  0  0
  -25.8990  -32.5060   23.8200 C   0  0  0  0  0  3  0  0  0  0  0  0
  -26.4210  -31.7360   25.0960 C   0  0  1  0  0  0  0  0  0  0  0  0
  -25.3300  -31.4970   26.1680 C   0  0  0  0  0  1  0  0  0  0  0  0
  -27.0050  -30.3590   24.7060 C   0  0  0  0  0  1  0  0  0  0  0  0
  -27.5720  -32.5320   25.7550 C   0  0  0  0  0  1  0  0  0  0  0  0
  -25.5820  -33.9020   24.1600 N   0  0  0  0  0  0  0  0  0  0  0  0
  -25.9090  -34.9640   23.4110 C   0  0  0  0  0  0  0  0  0  0  0  0
  -26.5760  -34.8710   22.3780 O   0  0  0  0  0  0  0  0  0  0  0  0
  -24.9880  -34.0480   24.9630 H   0  0  0  0  0  0  0  0  0  0  0  0
  -24.1760  -36.7590   23.0790 C   0  0  0  0  0  1  0  0  0  0  0  0
  -25.4200  -36.3480   23.8830 C   0  0  0  0  0  3  0  0  0  0  0  0
  -27.5570  -37.2310   24.7130 C   0  0  0  0  0  1  0  0  0  0  0  0
  -26.4510  -37.4050   23.7760 N   0  0  0  0  0  0  0  0  0  0  0  0
  -26.0420  -38.3220   23.9320 H   0  0  0  0  0  0  0  0  0  0  0  0
  1  4  1  0
  2  6  1  0
  2  1  1  0
  4  3  1  0
  4 51  1  0
  5 11  1  0
  5  3  1  0
  6  7  1  0
  6  5  1  0
  7  9  1  0
  7  8  1  0
 10  7  1  0
 11 12  1  0
 13 21  1  0
 14 19  1  0
 15 16  1  0
 15 14  1  0
 17 16  1  0
 17 26  1  0
 17 18  1  0
 19 13  1  0
 19 18  1  0
 20 13  2  0
 21 12  1  0
 22 21  1  0
 23 24  2  0
 24 43  1  0
 25 24  1  0
 25 28  1  0
 26 23  1  0
 26 27  1  0
 27 25  2  0
 28 29  1  0
 29 30  2  0
 31 34  1  0
 31 30  1  0
 32 31  2  0
 33 32  1  0
 33 28  2  0
 34 35  1  0
 35 36  1  0
 36 37  2  0
 38 37  1  0
 38 42  1  0
 39 38  2  0
 40 35  2  0
 40 39  1  0
 41 40  1  0
 43 44  1  0
 44 47  1  0
 44 46  1  0
 45 43  2  0
 48 49  1  0
 48 23  1  0
 50 48  1  0
 52 54  1  0
 52 51  1  0
 53 64  2  0
 54 59  1  0
 55 63  1  0
 55 65  1  0
 56 62  1  0
 56 58  1  0
 57 63  1  0
 58 57  1  0
 59 58  2  0
 60 54  2  0
 61 60  1  0
 61 56  2  0
 62 55  1  0
 63 53  1  0
 65 67  2  0
 66 65  1  0
 68 66  1  0
 69 78  2  0
 69 74  1  0
 70 66  1  0
 70 74  1  0
 71 70  1  0
 72 73  1  0
 72 71  1  0
 73 69  1  0
 74 75  2  0
 75 76  1  0
 77 76  2  0
 78 77  1  0
 79 53  1  0
 79 84  1  0
 79 80  1  0
 80 83  1  1
 80 81  1  0
 82 80  1  0
 84 87  1  0
 85 89  1  0
 85 84  1  0
 86 85  2  0
 89 88  1  0
 91 89  1  0
 91 92  1  0
 91 90  1  0
M  ISO  4  13 100  21 100  51 101  52 101
M  END
>  <TORSDO>  (66) 
F 20

>  <SCORE>  (66) 
-14.652

>  <name>  (66) 
65

>  <ligand_id>  (66) 
65

>  <original_smiles>  (66) 
[H]c1c([H])c([H])c2c(c1[H])C([H])([H])C([H])([H])C([H])([H])C2([H])N([H])C(=O)C1([H])N(C(=O)C([H])(N([H])C(=O)C([H])(N([H])C([H])([H])[H])C([H])([H])[H])C(C([H])([H])[H])(C([H])([H])[H])C([H])([H])[H])C([H])([H])c2c([H])c(OC([H])([H])C3([H])C([H])([H])C([H])([H])C([H])([N+]([H])([H])[H])C([H])(C([H])([H])C([H])([H])N([H])C(=O)N4C([H])([H])C([H])([H])C([H])([H])C([H])(n5nc(-c6c([H])c([H])c(Oc7c([H])c([H])c(F)c([H])c7F)c([H])c6[H])c(C(=O)N([H])[H])c5N([H])[H])C4([H])[H])C3([H])[H])c([H])c([H])c2C1([H])[H]

>  <smiles>  (66) 
[H]c1c([H])c([H])c2c(c1[H])C([H])([H])C([H])([H])C([H])([H])C2([H])N([H])C(=O)C1([H])N(C(=O)C([H])(N([H])C(=O)C([H])(N([H])C([H])([H])[H])C([H])([H])[H])C(C([H])([H])[H])(C([H])([H])[H])C([H])([H])[H])C([H])([H])c2c([H])c(OC([H])([H])C3([H])C([H])([H])C([H])([H])C([H])([N+]([H])([H])[H])C([H])(C([H])([H])C([H])([H])N([H])C(=O)N4C([H])([H])C([H])([H])C([H])([H])C([H])(n5nc(-c6c([H])c([H])c(Oc7c([H])c([H])c(F)c([H])c7F)c([H])c6[H])c(C(=O)N([H])[H])c5N([H])[H])C4([H])[H])C3([H])[H])c([H])c([H])c2C1([H])[H]

$$$$
66:0:0
     RDKit          3D

 89 98  0  0  1  0  0  0  0  0999 V2000
  -27.8870  -22.5180   21.9930 C   0  0  0  0  0  2  0  0  0  0  0  0
  -28.3140  -19.9550   21.1380 C   0  0  0  0  0  2  0  0  0  0  0  0
  -28.3090  -24.0050   21.6660 C   0  0  0  0  0  2  0  0  0  0  0  0
  -28.8350  -23.1720   19.4510 C   0  0  0  0  0  2  0  0  0  0  0  0
  -29.1170  -19.8000   19.8190 C   0  0  0  0  0  3  0  0  0  0  0  0
  -28.8330  -21.3940   21.4680 C   0  0  0  0  0  3  0  0  0  0  0  0
  -29.3690  -21.5710   20.0560 C   0  0  0  0  0  3  0  0  0  0  0  0
  -28.0680  -24.3560   20.2590 N   0  0  0  0  0  0  0  0  0  0  0  0
  -30.6550  -15.6050   19.7700 C   0  0  0  0  0  0  0  0  0  0  0  0
  -30.6340  -13.1310   18.9320 C   0  0  0  0  0  2  0  0  0  0  0  0
  -29.6440  -12.8530   17.7730 C   0  0  0  0  0  2  0  0  0  0  0  0
  -28.2370  -12.5490   18.3170 C   0  0  0  0  0  2  0  0  0  0  0  0
  -27.8340  -13.5250   19.4500 C   0  0  0  0  0  3  0  0  0  0  0  0
  -28.9510  -13.7430   20.4950 C   0  0  0  0  0  2  0  0  0  0  0  0
  -30.1080  -14.2820   19.7620 N   0  0  0  0  0  0  0  0  0  0  0  0
  -31.8650  -15.5870   19.5000 O   0  0  0  0  0  0  0  0  0  0  0  0
  -30.1540  -18.3520   19.8420 C   0  0  0  0  0  0  0  0  0  0  0  0
  -29.8710  -16.8820   19.8680 N   0  0  0  0  0  0  0  0  0  0  0  0
  -31.3480  -18.6580   19.8170 O   0  0  0  0  0  0  0  0  0  0  0  0
  -28.8850  -16.7010   19.9600 H   0  0  0  0  0  0  0  0  0  0  0  0
  -25.5440  -14.0490   20.4320 C   0  0  0  0  0  0  0  0  0  0  0  0
  -24.5110  -13.2580   20.8510 C   0  0  0  0  0  0  0  0  0  0  0  0
  -24.9640  -11.9110   20.7160 C   0  0  0  0  0  0  0  0  0  0  0  0
  -26.5550  -13.1840   20.0580 N   0  0  0  0  0  0  0  0  0  0  0  0
  -26.2250  -11.8870   20.2950 N   0  0  0  0  0  0  0  0  0  0  0  0
  -24.2440  -10.6430   20.9010 C   0  0  0  0  0  0  0  0  0  0  0  0
  -24.6640   -9.6860   21.8500 C   0  0  0  0  0  3  0  0  0  0  0  0
  -23.9410   -8.4870   22.0260 C   0  0  0  0  0  3  0  0  0  0  0  0
  -22.7820   -8.2360   21.2530 C   0  0  0  0  0  0  0  0  0  0  0  0
  -22.3820   -9.1820   20.2940 C   0  0  0  0  0  3  0  0  0  0  0  0
  -23.1060  -10.3720   20.1150 C   0  0  0  0  0  3  0  0  0  0  0  0
  -22.0320   -7.0880   21.3370 O   0  0  0  0  0  0  0  0  0  0  0  0
  -21.8530   -6.4300   22.5290 C   0  0  0  0  0  0  0  0  0  0  0  0
  -21.2610   -7.0590   23.6450 C   0  0  0  0  0  3  0  0  0  0  0  0
  -21.0330   -6.3260   24.8270 C   0  0  0  0  0  3  0  0  0  0  0  0
  -21.3880   -4.9660   24.8910 C   0  0  0  0  0  0  0  0  0  0  0  0
  -21.9720   -4.3360   23.7780 C   0  0  0  0  0  3  0  0  0  0  0  0
  -22.2010   -5.0660   22.5990 C   0  0  0  0  0  0  0  0  0  0  0  0
  -22.7450   -4.4490   21.5230 F   0  0  0  0  0  0  0  0  0  0  0  0
  -21.1620   -4.2590   26.0230 F   0  0  0  0  0  0  0  0  0  0  0  0
  -23.1440  -13.7280   21.2540 C   0  0  0  0  0  0  0  0  0  0  0  0
  -22.4860  -13.0020   22.1500 N   0  0  0  0  0  0  0  0  0  0  0  0
  -22.6730  -14.7750   20.8110 O   0  0  0  0  0  0  0  0  0  0  0  0
  -22.8830  -12.1560   22.5300 H   0  0  0  0  0  0  0  0  0  0  0  0
  -21.5710  -13.2980   22.4620 H   0  0  0  0  0  0  0  0  0  0  0  0
  -25.6980  -15.4270   20.3060 N   0  0  0  0  0  0  0  0  0  0  0  0
  -24.9370  -16.0690   20.5020 H   0  0  0  0  0  0  0  0  0  0  0  0
  -26.4950  -15.8790   19.8800 H   0  0  0  0  0  0  0  0  0  0  0  0
  -28.3510  -26.0430   20.0330 O   0  0  0  0  0  0  0  0  0  0  0  0
  -24.7190  -31.9430   23.2080 C   0  0  0  0  0  0  0  0  0  0  0  0
  -27.2990  -27.1120   20.1010 C   0  0  0  0  0  0  0  0  0  0  0  0
  -23.5280  -30.5610   21.5570 C   0  0  0  0  0  3  0  0  0  0  0  0
  -24.9800  -28.9860   20.1020 C   0  0  0  0  0  0  0  0  0  0  0  0
  -26.0910  -30.7910   21.3980 C   0  0  0  0  0  2  0  0  0  0  0  0
  -26.1690  -29.3860   20.7250 C   0  0  0  0  0  0  0  0  0  0  0  0
  -27.3190  -28.4700   20.7030 C   0  0  0  0  0  3  0  0  0  0  0  0
  -26.0800  -26.8720   19.4290 C   0  0  0  0  0  3  0  0  0  0  0  0
  -24.9610  -27.7490   19.4360 C   0  0  0  0  0  3  0  0  0  0  0  0
  -23.7550  -29.9000   20.1700 C   0  0  0  0  0  2  0  0  0  0  0  0
  -24.8020  -31.1260   22.1070 N   0  0  0  0  0  0  0  0  0  0  0  0
  -23.6300  -32.2130   23.7420 O   0  0  0  0  0  0  0  0  0  0  0  0
  -22.8500  -29.5440   22.5130 C   0  0  0  0  0  0  0  0  0  0  0  0
  -21.5240  -29.3520   22.3830 N   0  0  0  0  0  0  0  0  0  0  0  0
  -23.5270  -28.9260   23.3400 O   0  0  0  0  0  0  0  0  0  0  0  0
  -21.0300  -29.9020   21.6960 H   0  0  0  0  0  0  0  0  0  0  0  0
  -18.1670  -28.0690   22.8840 C   0  0  0  0  0  0  0  0  0  0  0  0
  -20.7210  -28.3890   23.1450 C   0  0  0  0  0  3  0  0  0  0  0  0
  -20.8520  -26.9660   22.5530 C   0  0  0  0  0  2  0  0  0  0  0  0
  -19.7550  -26.6310   21.5380 C   0  0  0  0  0  2  0  0  0  0  0  0
  -18.3730  -26.7350   22.1870 C   0  0  0  0  0  2  0  0  0  0  0  0
  -19.2700  -28.8520   23.3190 C   0  0  0  0  0  0  0  0  0  0  0  0
  -19.0210  -30.0980   23.9360 C   0  0  0  0  0  3  0  0  0  0  0  0
  -17.7040  -30.5630   24.1170 C   0  0  0  0  0  3  0  0  0  0  0  0
  -16.6170  -29.7780   23.6940 C   0  0  0  0  0  3  0  0  0  0  0  0
  -16.8490  -28.5330   23.0840 C   0  0  0  0  0  3  0  0  0  0  0  0
  -25.9880  -32.5900   23.8420 C   0  0  0  0  0  3  0  0  0  0  0  0
  -25.6620  -33.9880   24.1820 N   0  0  0  0  0  0  0  0  0  0  0  0
  -25.9650  -35.0530   23.4270 C   0  0  0  0  0  0  0  0  0  0  0  0
  -26.6080  -34.9640   22.3780 O   0  0  0  0  0  0  0  0  0  0  0  0
  -25.0850  -34.1300   24.9970 H   0  0  0  0  0  0  0  0  0  0  0  0
  -24.1960  -36.8270   23.1590 C   0  0  0  0  0  1  0  0  0  0  0  0
  -25.4790  -36.4370   23.9090 C   0  0  0  0  0  3  0  0  0  0  0  0
  -27.6320  -37.3630   24.6460 C   0  0  0  0  0  1  0  0  0  0  0  0
  -26.4900  -37.5060   23.7490 N   0  0  0  0  0  0  0  0  0  0  0  0
  -26.0740  -38.4200   23.9050 H   0  0  0  0  0  0  0  0  0  0  0  0
  -26.4960  -31.8260   25.1270 C   0  0  1  0  0  0  0  0  0  0  0  0
  -25.3920  -31.5800   26.1840 C   0  0  0  0  0  1  0  0  0  0  0  0
  -27.0970  -30.4530   24.7530 C   0  0  0  0  0  1  0  0  0  0  0  0
  -27.6300  -32.6330   25.8010 C   0  0  0  0  0  1  0  0  0  0  0  0
  3  1  1  0
  4  8  1  0
  5 17  1  0
  5  7  1  0
  5  2  1  0
  6  2  1  0
  6  1  1  0
  7  4  1  0
  7  6  1  0
  8  3  1  0
  9 18  1  0
 10 15  1  0
 11 12  1  0
 11 10  1  0
 13 12  1  0
 13 24  1  0
 13 14  1  0
 15  9  1  0
 15 14  1  0
 16  9  2  0
 17 18  1  0
 18 20  1  0
 19 17  2  0
 21 22  2  0
 22 41  1  0
 23 22  1  0
 23 26  1  0
 24 25  1  0
 24 21  1  0
 25 23  2  0
 26 27  1  0
 27 28  2  0
 29 32  1  0
 29 28  1  0
 30 29  2  0
 31 30  1  0
 31 26  2  0
 32 33  1  0
 33 38  2  0
 33 34  1  0
 34 35  2  0
 35 36  1  0
 36 40  1  0
 37 36  2  0
 38 37  1  0
 39 38  1  0
 41 42  1  0
 42 45  1  0
 42 44  1  0
 43 41  2  0
 46 21  1  0
 46 47  1  0
 48 46  1  0
 49 51  1  0
 49  8  1  0
 50 61  2  0
 51 56  1  0
 52 60  1  0
 52 62  1  0
 53 59  1  0
 53 55  1  0
 54 60  1  0
 55 54  1  0
 56 55  2  0
 57 58  1  0
 57 51  2  0
 58 53  2  0
 59 52  1  0
 60 50  1  0
 62 64  2  0
 63 62  1  0
 65 63  1  0
 66 75  2  0
 66 71  1  0
 67 63  1  0
 67 71  1  0
 68 67  1  0
 69 70  1  0
 69 68  1  0
 70 66  1  0
 71 72  2  0
 72 73  1  0
 74 73  2  0
 75 74  1  0
 76 50  1  0
 76 77  1  0
 76 86  1  0
 77 80  1  0
 78 82  1  0
 78 77  1  0
 79 78  2  0
 82 81  1  0
 84 85  1  0
 84 82  1  0
 84 83  1  0
 86 89  1  1
 86 87  1  0
 88 86  1  0
M  ISO  4   8 101   9 100  18 100  49 101
M  END
>  <TORSDO>  (67) 
F 16

>  <SCORE>  (67) 
-15.629

>  <name>  (67) 
66

>  <ligand_id>  (67) 
66

>  <original_smiles>  (67) 
[H]c1c([H])c([H])c2c(c1[H])C([H])([H])C([H])([H])C([H])([H])C2([H])N([H])C(=O)C1([H])N(C(=O)C([H])(N([H])C(=O)C([H])(N([H])C([H])([H])[H])C([H])([H])[H])C(C([H])([H])[H])(C([H])([H])[H])C([H])([H])[H])C([H])([H])c2c([H])c(ON3C([H])([H])C([H])([H])C4([H])C([H])([H])C([H])(C(=O)N([H])C(=O)N5C([H])([H])C([H])([H])C([H])([H])C([H])(n6nc(-c7c([H])c([H])c(Oc8c([H])c([H])c(F)c([H])c8F)c([H])c7[H])c(C(=O)N([H])[H])c6N([H])[H])C5([H])[H])C4([H])C3([H])[H])c([H])c([H])c2C1([H])[H]

>  <smiles>  (67) 
[H]c1c([H])c([H])c2c(c1[H])C([H])([H])C([H])([H])C([H])([H])C2([H])N([H])C(=O)C1([H])N(C(=O)C([H])(N([H])C(=O)C([H])(N([H])C([H])([H])[H])C([H])([H])[H])C(C([H])([H])[H])(C([H])([H])[H])C([H])([H])[H])C([H])([H])c2c([H])c(ON3C([H])([H])C([H])([H])C4([H])C([H])([H])C([H])(C(=O)N([H])C(=O)N5C([H])([H])C([H])([H])C([H])([H])C([H])(n6nc(-c7c([H])c([H])c(Oc8c([H])c([H])c(F)c([H])c8F)c([H])c7[H])c(C(=O)N([H])[H])c6N([H])[H])C5([H])[H])C4([H])C3([H])[H])c([H])c([H])c2C1([H])[H]

$$$$
67:0:0
     RDKit          3D

 91 99  0  0  1  0  0  0  0  0999 V2000
  -28.9780  -22.3870   21.1770 N   0  0  0  0  0  4  0  0  0  0  0  0
  -29.3080  -22.2480   22.1170 H   0  0  0  0  0  0  0  0  0  0  0  0
  -27.9870  -22.2110   21.1710 H   0  0  0  0  0  0  0  0  0  0  0  0
  -29.6170  -21.3780   20.2940 C   0  0  0  0  0  2  0  0  0  0  0  0
  -28.3250  -19.1810   21.1470 C   0  0  0  0  0  2  0  0  0  0  0  0
  -29.1020  -18.8300   19.9060 C   0  0  0  0  0  3  0  0  0  0  0  0
  -29.5990  -19.9400   20.8300 C   0  0  0  0  0  3  0  0  0  0  0  0
  -29.7040  -17.4340   19.7320 C   0  0  0  0  0  2  0  0  0  0  0  0
  -30.7770  -16.9560   20.7370 C   0  0  0  0  0  2  0  0  0  0  0  0
  -31.2970  -14.5490   20.1770 C   0  0  0  0  0  0  0  0  0  0  0  0
  -30.9490  -12.3520   19.1020 C   0  0  0  0  0  2  0  0  0  0  0  0
  -30.0100  -12.5350   17.8930 C   0  0  0  0  0  2  0  0  0  0  0  0
  -28.5260  -12.4890   18.3180 C   0  0  0  0  0  2  0  0  0  0  0  0
  -28.2260  -13.3880   19.5490 C   0  0  0  0  0  3  0  0  0  0  0  0
  -29.2660  -13.1390   20.6640 C   0  0  0  0  0  2  0  0  0  0  0  0
  -30.6110  -13.3780   20.1000 N   0  0  0  0  0  0  0  0  0  0  0  0
  -32.3540  -14.7650   19.5740 O   0  0  0  0  0  0  0  0  0  0  0  0
  -30.6650  -15.5020   20.8800 N   0  0  0  0  0  0  0  0  0  0  0  0
  -29.8590  -15.1750   21.3920 H   0  0  0  0  0  0  0  0  0  0  0  0
  -25.8630  -14.1340   20.2650 C   0  0  0  0  0  0  0  0  0  0  0  0
  -24.7580  -13.4260   20.6530 C   0  0  0  0  0  0  0  0  0  0  0  0
  -25.1440  -12.0490   20.6240 C   0  0  0  0  0  0  0  0  0  0  0  0
  -26.8580  -13.1950   20.0320 N   0  0  0  0  0  0  0  0  0  0  0  0
  -26.4250  -11.9370   20.3000 N   0  0  0  0  0  0  0  0  0  0  0  0
  -24.3510  -10.8320   20.8320 C   0  0  0  0  0  0  0  0  0  0  0  0
  -24.7090   -9.8750   21.8070 C   0  0  0  0  0  3  0  0  0  0  0  0
  -23.9210   -8.7200   21.9990 C   0  0  0  0  0  3  0  0  0  0  0  0
  -22.7600   -8.5140   21.2170 C   0  0  0  0  0  0  0  0  0  0  0  0
  -22.4210   -9.4580   20.2320 C   0  0  0  0  0  3  0  0  0  0  0  0
  -23.2090  -10.6050   20.0390 C   0  0  0  0  0  3  0  0  0  0  0  0
  -21.9470   -7.4100   21.3160 O   0  0  0  0  0  0  0  0  0  0  0  0
  -21.7900   -6.7380   22.5010 C   0  0  0  0  0  0  0  0  0  0  0  0
  -21.3050   -7.3780   23.6620 C   0  0  0  0  0  3  0  0  0  0  0  0
  -21.0890   -6.6350   24.8390 C   0  0  0  0  0  3  0  0  0  0  0  0
  -21.3480   -5.2510   24.8580 C   0  0  0  0  0  0  0  0  0  0  0  0
  -21.8250   -4.6100   23.7020 C   0  0  0  0  0  3  0  0  0  0  0  0
  -22.0430   -5.3500   22.5260 C   0  0  0  0  0  0  0  0  0  0  0  0
  -22.4830   -4.7230   21.4090 F   0  0  0  0  0  0  0  0  0  0  0  0
  -21.1340   -4.5370   25.9870 F   0  0  0  0  0  0  0  0  0  0  0  0
  -23.3940  -13.9810   20.9430 C   0  0  0  0  0  0  0  0  0  0  0  0
  -22.6460  -13.3440   21.8370 N   0  0  0  0  0  0  0  0  0  0  0  0
  -22.9990  -15.0190   20.4090 O   0  0  0  0  0  0  0  0  0  0  0  0
  -22.9780  -12.5090   22.2950 H   0  0  0  0  0  0  0  0  0  0  0  0
  -21.7280  -13.6980   22.0690 H   0  0  0  0  0  0  0  0  0  0  0  0
  -26.1000  -15.4930   20.0730 N   0  0  0  0  0  0  0  0  0  0  0  0
  -25.3690  -16.1880   20.1810 H   0  0  0  0  0  0  0  0  0  0  0  0
  -26.9690  -15.8780   19.7290 H   0  0  0  0  0  0  0  0  0  0  0  0
  -29.2210  -23.8030   20.7750 C   0  0  0  0  0  2  0  0  0  0  0  0
  -28.6710  -24.8330   21.7940 C   0  0  0  0  0  2  0  0  0  0  0  0
  -28.9830  -26.3220   21.4920 C   0  0  0  0  0  2  0  0  0  0  0  0
  -28.4410  -26.7680   20.2450 O   0  0  0  0  0  0  0  0  0  0  0  0
  -24.5700  -31.9420   23.3310 C   0  0  0  0  0  0  0  0  0  0  0  0
  -27.2960  -27.5330   20.2890 C   0  0  0  0  0  0  0  0  0  0  0  0
  -23.4080  -30.5520   21.6470 C   0  0  0  0  0  3  0  0  0  0  0  0
  -24.9000  -29.0300   20.2450 C   0  0  0  0  0  0  0  0  0  0  0  0
  -25.9340  -30.9180   21.5150 C   0  0  0  0  0  2  0  0  0  0  0  0
  -26.0380  -29.5490   20.8760 C   0  0  0  0  0  0  0  0  0  0  0  0
  -27.2400  -28.8070   20.9010 C   0  0  0  0  0  3  0  0  0  0  0  0
  -26.1490  -27.0330   19.6440 C   0  0  0  0  0  3  0  0  0  0  0  0
  -24.9480  -27.7690   19.6250 C   0  0  0  0  0  3  0  0  0  0  0  0
  -23.6520  -29.8850   20.2660 C   0  0  0  0  0  2  0  0  0  0  0  0
  -24.6530  -31.1530   22.2240 N   0  0  0  0  0  0  0  0  0  0  0  0
  -23.4760  -32.2080   23.8480 O   0  0  0  0  0  0  0  0  0  0  0  0
  -22.7360  -29.5200   22.5840 C   0  0  0  0  0  0  0  0  0  0  0  0
  -21.4220  -29.3140   22.4000 N   0  0  0  0  0  0  0  0  0  0  0  0
  -23.3970  -28.9070   23.4270 O   0  0  0  0  0  0  0  0  0  0  0  0
  -20.9530  -29.8610   21.6920 H   0  0  0  0  0  0  0  0  0  0  0  0
  -18.0530  -28.0520   22.7480 C   0  0  0  0  0  0  0  0  0  0  0  0
  -20.5900  -28.3630   23.1360 C   0  0  0  0  0  3  0  0  0  0  0  0
  -20.7470  -26.9330   22.5710 C   0  0  0  0  0  2  0  0  0  0  0  0
  -19.7000  -26.5830   21.5080 C   0  0  0  0  0  2  0  0  0  0  0  0
  -18.2870  -26.7040   22.0880 C   0  0  0  0  0  2  0  0  0  0  0  0
  -19.1350  -28.8390   23.2250 C   0  0  0  0  0  0  0  0  0  0  0  0
  -18.8660  -30.1010   23.7960 C   0  0  0  0  0  3  0  0  0  0  0  0
  -17.5440  -30.5770   23.8990 C   0  0  0  0  0  3  0  0  0  0  0  0
  -16.4770  -29.7870   23.4390 C   0  0  0  0  0  3  0  0  0  0  0  0
  -16.7310  -28.5280   22.8690 C   0  0  0  0  0  3  0  0  0  0  0  0
  -25.8420  -32.5680   23.9860 C   0  0  0  0  0  3  0  0  0  0  0  0
  -25.5360  -33.9720   24.2910 N   0  0  0  0  0  0  0  0  0  0  0  0
  -25.9150  -35.0130   23.5380 C   0  0  0  0  0  0  0  0  0  0  0  0
  -26.6300  -34.8930   22.5370 O   0  0  0  0  0  0  0  0  0  0  0  0
  -24.9080  -34.1400   25.0630 H   0  0  0  0  0  0  0  0  0  0  0  0
  -24.2290  -36.8230   23.0830 C   0  0  0  0  0  1  0  0  0  0  0  0
  -25.4230  -36.4110   23.9590 C   0  0  0  0  0  3  0  0  0  0  0  0
  -27.5250  -37.2740   24.8900 C   0  0  0  0  0  1  0  0  0  0  0  0
  -26.4740  -37.4490   23.8890 N   0  0  0  0  0  0  0  0  0  0  0  0
  -26.0740  -38.3750   24.0110 H   0  0  0  0  0  0  0  0  0  0  0  0
  -26.3120  -31.8040   25.2840 C   0  0  1  0  0  0  0  0  0  0  0  0
  -25.1810  -31.5700   26.3140 C   0  0  0  0  0  1  0  0  0  0  0  0
  -26.9100  -30.4270   24.9180 C   0  0  0  0  0  1  0  0  0  0  0  0
  -27.4360  -32.6040   25.9850 C   0  0  0  0  0  1  0  0  0  0  0  0
  1  2  1  0
  3  1  1  0
  4  1  1  0
  6  8  1  0
  6  7  1  0
  6  5  1  0
  7  4  1  0
  7  5  1  0
  8  9  1  0
  9 18  1  0
 10 18  1  0
 11 16  1  0
 12 13  1  0
 12 11  1  0
 14 13  1  0
 14 23  1  0
 14 15  1  0
 16 10  1  0
 16 15  1  0
 17 10  2  0
 18 19  1  0
 20 21  2  0
 21 40  1  0
 22 21  1  0
 22 25  1  0
 23 20  1  0
 23 24  1  0
 24 22  2  0
 25 26  1  0
 26 27  2  0
 28 31  1  0
 28 27  1  0
 29 28  2  0
 30 29  1  0
 30 25  2  0
 31 32  1  0
 32 37  2  0
 32 33  1  0
 33 34  2  0
 34 35  1  0
 35 39  1  0
 36 35  2  0
 37 36  1  0
 38 37  1  0
 40 41  1  0
 41 44  1  0
 41 43  1  0
 42 40  2  0
 45 46  1  0
 45 20  1  0
 47 45  1  0
 48  1  1  0
 48 49  1  0
 50 49  1  0
 51 53  1  0
 51 50  1  0
 52 63  2  0
 53 58  1  0
 54 62  1  0
 54 64  1  0
 55 61  1  0
 55 57  1  0
 56 62  1  0
 57 58  2  0
 57 56  1  0
 59 53  2  0
 60 59  1  0
 60 55  2  0
 61 54  1  0
 62 52  1  0
 64 66  2  0
 65 64  1  0
 67 65  1  0
 68 77  2  0
 68 73  1  0
 69 65  1  0
 69 73  1  0
 70 69  1  0
 71 72  1  0
 71 70  1  0
 72 68  1  0
 73 74  2  0
 74 75  1  0
 76 75  2  0
 77 76  1  0
 78 52  1  0
 78 79  1  0
 78 88  1  0
 79 82  1  0
 80 84  1  0
 80 79  1  0
 81 80  2  0
 84 83  1  0
 86 84  1  0
 86 87  1  0
 86 85  1  0
 88 91  1  1
 88 89  1  0
 90 88  1  0
M  ISO  4  10 100  18 100  50 101  51 101
M  END
>  <TORSDO>  (68) 
F 23

>  <SCORE>  (68) 
-11.696

>  <name>  (68) 
67

>  <ligand_id>  (68) 
67

>  <original_smiles>  (68) 
[H]c1c([H])c([H])c2c(c1[H])C([H])([H])C([H])([H])C([H])([H])C2([H])N([H])C(=O)C1([H])N(C(=O)C([H])(N([H])C(=O)C([H])(N([H])C([H])([H])[H])C([H])([H])[H])C(C([H])([H])[H])(C([H])([H])[H])C([H])([H])[H])C([H])([H])c2c([H])c(OC([H])([H])C([H])([H])C([H])([H])[N+]([H])([H])C([H])([H])C3([H])C([H])([H])C3([H])C([H])([H])C([H])([H])N([H])C(=O)N3C([H])([H])C([H])([H])C([H])([H])C([H])(n4nc(-c5c([H])c([H])c(Oc6c([H])c([H])c(F)c([H])c6F)c([H])c5[H])c(C(=O)N([H])[H])c4N([H])[H])C3([H])[H])c([H])c([H])c2C1([H])[H]

>  <smiles>  (68) 
[H]c1c([H])c([H])c2c(c1[H])C([H])([H])C([H])([H])C([H])([H])C2([H])N([H])C(=O)C1([H])N(C(=O)C([H])(N([H])C(=O)C([H])(N([H])C([H])([H])[H])C([H])([H])[H])C(C([H])([H])[H])(C([H])([H])[H])C([H])([H])[H])C([H])([H])c2c([H])c(OC([H])([H])C([H])([H])C([H])([H])[N+]([H])([H])C([H])([H])C3([H])C([H])([H])C3([H])C([H])([H])C([H])([H])N([H])C(=O)N3C([H])([H])C([H])([H])C([H])([H])C([H])(n4nc(-c5c([H])c([H])c(Oc6c([H])c([H])c(F)c([H])c6F)c([H])c5[H])c(C(=O)N([H])[H])c4N([H])[H])C3([H])[H])c([H])c([H])c2C1([H])[H]

$$$$
68:0:0
     RDKit          3D

 92100  0  0  1  0  0  0  0  0999 V2000
  -28.8280  -19.3590   20.2340 C   0  0  0  0  0  0  0  0  0  0  0  0
  -27.8700  -19.2870   19.4600 O   0  0  0  0  0  0  0  0  0  0  0  0
  -30.6890  -14.7680   20.4020 C   0  0  0  0  0  0  0  0  0  0  0  0
  -30.4140  -12.5070   19.3920 C   0  0  0  0  0  2  0  0  0  0  0  0
  -29.4990  -12.5680   18.1530 C   0  0  0  0  0  2  0  0  0  0  0  0
  -28.0280  -12.3980   18.5720 C   0  0  0  0  0  2  0  0  0  0  0  0
  -27.6380  -13.3000   19.7730 C   0  0  0  0  0  3  0  0  0  0  0  0
  -28.6860  -13.2540   20.9060 C   0  0  0  0  0  2  0  0  0  0  0  0
  -29.9800  -13.5910   20.3060 N   0  0  0  0  0  0  0  0  0  0  0  0
  -31.8910  -14.7580   20.1290 O   0  0  0  0  0  0  0  0  0  0  0  0
  -28.7980  -16.6690   20.8450 C   0  0  0  0  0  2  0  0  0  0  0  0
  -29.5130  -18.0770   20.8870 C   0  0  0  0  0  3  0  0  0  0  0  0
  -30.7000  -17.3410   20.1890 C   0  0  0  0  0  3  0  0  0  0  0  0
  -30.0790  -16.0170   20.4730 N   0  0  0  0  0  0  0  0  0  0  0  0
  -25.2410  -13.8770   20.4730 C   0  0  0  0  0  0  0  0  0  0  0  0
  -24.1770  -13.0990   20.8350 C   0  0  0  0  0  0  0  0  0  0  0  0
  -24.6500  -11.7510   20.8230 C   0  0  0  0  0  0  0  0  0  0  0  0
  -26.2940  -13.0050   20.2570 N   0  0  0  0  0  0  0  0  0  0  0  0
  -25.9450  -11.7200   20.5330 N   0  0  0  0  0  0  0  0  0  0  0  0
  -23.9300  -10.4860   21.0120 C   0  0  0  0  0  0  0  0  0  0  0  0
  -24.3560   -9.5260   21.9570 C   0  0  0  0  0  3  0  0  0  0  0  0
  -23.6340   -8.3260   22.1350 C   0  0  0  0  0  3  0  0  0  0  0  0
  -22.4710   -8.0770   21.3670 C   0  0  0  0  0  0  0  0  0  0  0  0
  -22.0650   -9.0250   20.4120 C   0  0  0  0  0  3  0  0  0  0  0  0
  -22.7880  -10.2160   20.2320 C   0  0  0  0  0  3  0  0  0  0  0  0
  -21.7210   -6.9290   21.4540 O   0  0  0  0  0  0  0  0  0  0  0  0
  -21.6550   -6.1990   22.6140 C   0  0  0  0  0  0  0  0  0  0  0  0
  -21.2080   -6.7660   23.8270 C   0  0  0  0  0  3  0  0  0  0  0  0
  -21.0900   -5.9610   24.9790 C   0  0  0  0  0  3  0  0  0  0  0  0
  -21.4070   -4.5920   24.9170 C   0  0  0  0  0  0  0  0  0  0  0  0
  -21.8460   -4.0240   23.7080 C   0  0  0  0  0  3  0  0  0  0  0  0
  -21.9660   -4.8260   22.5580 C   0  0  0  0  0  0  0  0  0  0  0  0
  -22.3700   -4.2690   21.3910 F   0  0  0  0  0  0  0  0  0  0  0  0
  -21.2860   -3.8160   26.0200 F   0  0  0  0  0  0  0  0  0  0  0  0
  -22.7730  -13.5690   21.0790 C   0  0  0  0  0  0  0  0  0  0  0  0
  -22.0380  -12.8790   21.9440 N   0  0  0  0  0  0  0  0  0  0  0  0
  -22.3360  -14.5840   20.5390 O   0  0  0  0  0  0  0  0  0  0  0  0
  -22.4040  -12.0580   22.4040 H   0  0  0  0  0  0  0  0  0  0  0  0
  -21.0950  -13.1760   22.1510 H   0  0  0  0  0  0  0  0  0  0  0  0
  -25.3960  -15.2470   20.2810 N   0  0  0  0  0  0  0  0  0  0  0  0
  -24.6180  -15.8920   20.3630 H   0  0  0  0  0  0  0  0  0  0  0  0
  -26.2340  -15.6810   19.9190 H   0  0  0  0  0  0  0  0  0  0  0  0
  -30.8740  -17.6030   18.6830 C   0  0  0  0  0  0  0  0  0  0  0  0
  -31.8750  -18.3890   18.3110 N   0  0  0  0  0  0  0  0  0  0  0  0
  -30.1300  -17.0820   17.8550 O   0  0  0  0  0  0  0  0  0  0  0  0
  -32.4990  -18.7920   18.9960 H   0  0  0  0  0  0  0  0  0  0  0  0
  -32.0370  -18.5780   17.3320 H   0  0  0  0  0  0  0  0  0  0  0  0
  -29.3260  -20.8340   20.6060 C   0  0  0  0  0  3  0  0  0  0  0  0
  -28.4490  -22.1370   20.1890 C   0  0  0  0  0  3  0  0  0  0  0  0
  -28.9730  -23.6340   20.5210 C   0  0  0  0  0  3  0  0  0  0  0  0
  -28.0680  -24.9600   20.1810 C   0  0  0  0  0  3  0  0  0  0  0  0
  -28.2990  -26.4380   20.3150 O   0  0  0  0  0  0  0  0  0  0  0  0
  -24.6130  -31.9380   23.2630 C   0  0  0  0  0  0  0  0  0  0  0  0
  -27.1990  -27.3210   20.2460 C   0  0  0  0  0  0  0  0  0  0  0  0
  -23.4060  -30.5350   21.6290 C   0  0  0  0  0  3  0  0  0  0  0  0
  -24.8510  -28.9660   20.2130 C   0  0  0  0  0  0  0  0  0  0  0  0
  -25.9490  -30.8350   21.4490 C   0  0  0  0  0  2  0  0  0  0  0  0
  -26.0230  -29.4500   20.8080 C   0  0  0  0  0  0  0  0  0  0  0  0
  -27.2020  -28.6390   20.8100 C   0  0  0  0  0  3  0  0  0  0  0  0
  -26.0050  -26.8980   19.6240 C   0  0  0  0  0  3  0  0  0  0  0  0
  -24.8460  -27.6990   19.6100 C   0  0  0  0  0  3  0  0  0  0  0  0
  -23.6200  -29.8510   20.2540 C   0  0  0  0  0  2  0  0  0  0  0  0
  -24.6750  -31.1210   22.1710 N   0  0  0  0  0  0  0  0  0  0  0  0
  -23.5290  -32.2230   23.7950 O   0  0  0  0  0  0  0  0  0  0  0  0
  -22.7360  -29.5280   22.5950 C   0  0  0  0  0  0  0  0  0  0  0  0
  -21.4090  -29.3570   22.4690 N   0  0  0  0  0  0  0  0  0  0  0  0
  -23.4100  -28.9030   23.4180 O   0  0  0  0  0  0  0  0  0  0  0  0
  -20.9240  -29.9130   21.7790 H   0  0  0  0  0  0  0  0  0  0  0  0
  -18.0250  -28.1790   22.9700 C   0  0  0  0  0  0  0  0  0  0  0  0
  -20.5840  -28.4280   23.2440 C   0  0  0  0  0  3  0  0  0  0  0  0
  -20.6810  -26.9920   22.6780 C   0  0  0  0  0  2  0  0  0  0  0  0
  -19.5790  -26.6680   21.6640 C   0  0  0  0  0  2  0  0  0  0  0  0
  -18.1960  -26.8240   22.3030 C   0  0  0  0  0  2  0  0  0  0  0  0
  -19.1470  -28.9380   23.3970 C   0  0  0  0  0  0  0  0  0  0  0  0
  -18.9320  -30.2050   23.9810 C   0  0  0  0  0  3  0  0  0  0  0  0
  -17.6290  -30.7140   24.1420 C   0  0  0  0  0  3  0  0  0  0  0  0
  -16.5220  -29.9500   23.7310 C   0  0  0  0  0  3  0  0  0  0  0  0
  -16.7210  -28.6850   23.1510 C   0  0  0  0  0  3  0  0  0  0  0  0
  -25.8970  -32.5680   23.8840 C   0  0  0  0  0  3  0  0  0  0  0  0
  -25.5900  -33.9680   24.2120 N   0  0  0  0  0  0  0  0  0  0  0  0
  -25.9170  -35.0200   23.4480 C   0  0  0  0  0  0  0  0  0  0  0  0
  -26.5780  -34.9130   22.4110 O   0  0  0  0  0  0  0  0  0  0  0  0
  -25.0020  -34.1260   25.0180 H   0  0  0  0  0  0  0  0  0  0  0  0
  -24.1840  -36.8120   23.1100 C   0  0  0  0  0  1  0  0  0  0  0  0
  -25.4360  -36.4110   23.9070 C   0  0  0  0  0  3  0  0  0  0  0  0
  -27.5810  -37.3000   24.7070 C   0  0  0  0  0  1  0  0  0  0  0  0
  -26.4670  -37.4630   23.7760 N   0  0  0  0  0  0  0  0  0  0  0  0
  -26.0630  -38.3840   23.9240 H   0  0  0  0  0  0  0  0  0  0  0  0
  -26.4090  -31.8000   25.1640 C   0  0  1  0  0  0  0  0  0  0  0  0
  -25.3150  -31.5700   26.2320 C   0  0  0  0  0  1  0  0  0  0  0  0
  -26.9880  -30.4200   24.7790 C   0  0  0  0  0  1  0  0  0  0  0  0
  -27.5620  -32.5930   25.8250 C   0  0  0  0  0  1  0  0  0  0  0  0
  1 48  1  0
  2  1  2  0
  3 14  1  0
  4  9  1  0
  5  6  1  0
  5  4  1  0
  7  6  1  0
  7 18  1  0
  7  8  1  0
  9  3  1  0
  9  8  1  0
 10  3  2  0
 11 12  1  0
 12  1  1  0
 13 43  1  0
 13 14  1  0
 13 12  1  0
 14 11  1  0
 15 16  2  0
 16 35  1  0
 17 16  1  0
 17 20  1  0
 18 15  1  0
 18 19  1  0
 19 17  2  0
 20 21  1  0
 21 22  2  0
 23 26  1  0
 23 22  1  0
 24 23  2  0
 25 24  1  0
 25 20  2  0
 26 27  1  0
 27 28  1  0
 28 29  2  0
 30 29  1  0
 30 34  1  0
 31 30  2  0
 32 27  2  0
 32 31  1  0
 33 32  1  0
 35 36  1  0
 36 39  1  0
 36 38  1  0
 37 35  2  0
 40 41  1  0
 40 15  1  0
 42 40  1  0
 44 43  1  0
 44 46  1  0
 45 43  2  0
 47 44  1  0
 49 50  1  0
 49 48  2  0
 51 52  1  0
 51 50  2  0
 53 64  2  0
 54 52  1  0
 54 59  1  0
 55 63  1  0
 55 65  1  0
 56 62  1  0
 56 58  1  0
 57 63  1  0
 58 59  2  0
 58 57  1  0
 60 54  2  0
 61 60  1  0
 61 56  2  0
 62 55  1  0
 63 53  1  0
 65 67  2  0
 66 65  1  0
 68 66  1  0
 69 78  2  0
 69 74  1  0
 70 66  1  0
 70 74  1  0
 71 70  1  0
 72 73  1  0
 72 71  1  0
 73 69  1  0
 74 75  2  0
 75 76  1  0
 77 76  2  0
 78 77  1  0
 79 53  1  0
 79 80  1  0
 79 89  1  0
 80 83  1  0
 81 85  1  0
 81 80  1  0
 82 81  2  0
 85 84  1  0
 87 85  1  0
 87 88  1  0
 87 86  1  0
 89 92  1  1
 89 90  1  0
 91 89  1  0
M  ISO  4   3 100  14 100  51 101  52 101
M  END
>  <TORSDO>  (69) 
F 21

>  <SCORE>  (69) 
-13.303

>  <name>  (69) 
68

>  <ligand_id>  (69) 
68

>  <original_smiles>  (69) 
[H]c1c([H])c([H])c2c(c1[H])C([H])([H])C([H])([H])C([H])([H])C2([H])N([H])C(=O)C1([H])N(C(=O)C([H])(N([H])C(=O)C([H])(N([H])C([H])([H])[H])C([H])([H])[H])C(C([H])([H])[H])(C([H])([H])[H])C([H])([H])[H])C([H])([H])c2c([H])c(OC([H])([H])C([H])([H])C([H])([H])C([H])([H])C(=O)C3([H])C([H])([H])N(C(=O)N4C([H])([H])C([H])([H])C([H])([H])C([H])(n5nc(-c6c([H])c([H])c(Oc7c([H])c([H])c(F)c([H])c7F)c([H])c6[H])c(C(=O)N([H])[H])c5N([H])[H])C4([H])[H])C3([H])C(=O)N([H])[H])c([H])c([H])c2C1([H])[H]

>  <smiles>  (69) 
[H]c1c([H])c([H])c2c(c1[H])C([H])([H])C([H])([H])C([H])([H])C2([H])N([H])C(=O)C1([H])N(C(=O)C([H])(N([H])C(=O)C([H])(N([H])C([H])([H])[H])C([H])([H])[H])C(C([H])([H])[H])(C([H])([H])[H])C([H])([H])[H])C([H])([H])c2c([H])c(OC([H])([H])C([H])([H])C([H])([H])C([H])([H])C(=O)C3([H])C([H])([H])N(C(=O)N4C([H])([H])C([H])([H])C([H])([H])C([H])(n5nc(-c6c([H])c([H])c(Oc7c([H])c([H])c(F)c([H])c7F)c([H])c6[H])c(C(=O)N([H])[H])c5N([H])[H])C4([H])[H])C3([H])C(=O)N([H])[H])c([H])c([H])c2C1([H])[H]

$$$$
69:0:0
     RDKit          3D

 87 95  0  0  1  0  0  0  0  0999 V2000
  -26.6430  -22.9640   19.5860 C   0  0  0  0  0  2  0  0  0  0  0  0
  -27.5250  -23.4670   18.4820 C   0  0  0  0  0  2  0  0  0  0  0  0
  -28.1100  -23.2560   19.8670 C   0  0  2  0  0  0  0  0  0  0  0  0
  -29.0250  -21.8920   19.9300 C   0  0  0  0  0  2  0  0  0  0  0  0
  -28.7620  -20.5080   20.1650 C   0  0  0  0  0  2  0  0  0  0  0  0
  -29.5690  -19.1000   19.8030 C   0  0  0  0  0  2  0  0  0  0  0  0
  -29.8870  -17.7350   20.7560 C   0  0  0  0  0  2  0  0  0  0  0  0
  -30.4860  -15.0170   20.2910 C   0  0  0  0  0  0  0  0  0  0  0  0
  -30.3780  -12.6670   19.3280 C   0  0  0  0  0  2  0  0  0  0  0  0
  -29.4300  -12.5970   18.1070 C   0  0  0  0  0  2  0  0  0  0  0  0
  -27.9710  -12.3820   18.5550 C   0  0  0  0  0  2  0  0  0  0  0  0
  -27.5680  -13.3120   19.7300 C   0  0  0  0  0  3  0  0  0  0  0  0
  -28.6310  -13.3340   20.8460 C   0  0  0  0  0  2  0  0  0  0  0  0
  -29.8890  -13.7580   20.2170 N   0  0  0  0  0  0  0  0  0  0  0  0
  -31.7030  -15.0780   20.0890 O   0  0  0  0  0  0  0  0  0  0  0  0
  -29.6820  -16.1960   20.3880 N   0  0  0  0  0  0  0  0  0  0  0  0
  -28.7040  -15.9470   20.3930 H   0  0  0  0  0  0  0  0  0  0  0  0
  -25.1920  -13.8950   20.4810 C   0  0  0  0  0  0  0  0  0  0  0  0
  -24.1290  -13.1200   20.8570 C   0  0  0  0  0  0  0  0  0  0  0  0
  -24.5940  -11.7700   20.8310 C   0  0  0  0  0  0  0  0  0  0  0  0
  -26.2340  -13.0160   20.2380 N   0  0  0  0  0  0  0  0  0  0  0  0
  -25.8840  -11.7320   20.5160 N   0  0  0  0  0  0  0  0  0  0  0  0
  -23.8690  -10.5090   21.0270 C   0  0  0  0  0  0  0  0  0  0  0  0
  -24.3080   -9.5400   21.9560 C   0  0  0  0  0  3  0  0  0  0  0  0
  -23.5810   -8.3430   22.1400 C   0  0  0  0  0  3  0  0  0  0  0  0
  -22.4020   -8.1060   21.3930 C   0  0  0  0  0  0  0  0  0  0  0  0
  -21.9820   -9.0640   20.4530 C   0  0  0  0  0  3  0  0  0  0  0  0
  -22.7100  -10.2520   20.2680 C   0  0  0  0  0  3  0  0  0  0  0  0
  -21.6450   -6.9640   21.4880 O   0  0  0  0  0  0  0  0  0  0  0  0
  -21.6120   -6.2150   22.6370 C   0  0  0  0  0  0  0  0  0  0  0  0
  -21.2040   -6.7650   23.8730 C   0  0  0  0  0  3  0  0  0  0  0  0
  -21.1190   -5.9440   25.0140 C   0  0  0  0  0  3  0  0  0  0  0  0
  -21.4280   -4.5740   24.9220 C   0  0  0  0  0  0  0  0  0  0  0  0
  -21.8280   -4.0230   23.6920 C   0  0  0  0  0  3  0  0  0  0  0  0
  -21.9160   -4.8420   22.5530 C   0  0  0  0  0  0  0  0  0  0  0  0
  -22.2810   -4.3010   21.3640 F   0  0  0  0  0  0  0  0  0  0  0  0
  -21.3390   -3.7830   26.0170 F   0  0  0  0  0  0  0  0  0  0  0  0
  -22.7310  -13.5980   21.1250 C   0  0  0  0  0  0  0  0  0  0  0  0
  -22.0050  -12.9050   21.9950 N   0  0  0  0  0  0  0  0  0  0  0  0
  -22.2930  -14.6210   20.6000 O   0  0  0  0  0  0  0  0  0  0  0  0
  -22.3720  -12.0790   22.4430 H   0  0  0  0  0  0  0  0  0  0  0  0
  -21.0640  -13.2030   22.2160 H   0  0  0  0  0  0  0  0  0  0  0  0
  -25.3530  -15.2650   20.2980 N   0  0  0  0  0  0  0  0  0  0  0  0
  -24.5860  -15.9180   20.4200 H   0  0  0  0  0  0  0  0  0  0  0  0
  -26.1890  -15.7040   19.9350 H   0  0  0  0  0  0  0  0  0  0  0  0
  -28.3610  -24.7180   20.6450 C   0  0  0  0  0  2  0  0  0  0  0  0
  -28.2920  -26.2110   20.1550 O   0  0  0  0  0  0  0  0  0  0  0  0
  -24.6080  -31.8840   23.2100 C   0  0  0  0  0  0  0  0  0  0  0  0
  -27.1880  -27.1380   20.2170 C   0  0  0  0  0  0  0  0  0  0  0  0
  -23.4100  -30.4780   21.5770 C   0  0  0  0  0  3  0  0  0  0  0  0
  -24.8560  -28.8850   20.1750 C   0  0  0  0  0  0  0  0  0  0  0  0
  -25.9640  -30.7420   21.4110 C   0  0  0  0  0  2  0  0  0  0  0  0
  -26.0380  -29.3410   20.7720 C   0  0  0  0  0  0  0  0  0  0  0  0
  -27.2070  -28.4880   20.7630 C   0  0  0  0  0  3  0  0  0  0  0  0
  -25.9710  -26.7730   19.6040 C   0  0  0  0  0  3  0  0  0  0  0  0
  -24.8350  -27.6140   19.5800 C   0  0  0  0  0  3  0  0  0  0  0  0
  -23.6320  -29.7890   20.2040 C   0  0  0  0  0  2  0  0  0  0  0  0
  -24.6810  -31.0580   22.1200 N   0  0  0  0  0  0  0  0  0  0  0  0
  -23.5210  -32.1680   23.7380 O   0  0  0  0  0  0  0  0  0  0  0  0
  -22.7320  -29.4760   22.5450 C   0  0  0  0  0  0  0  0  0  0  0  0
  -21.4040  -29.3050   22.4180 N   0  0  0  0  0  0  0  0  0  0  0  0
  -23.4040  -28.8550   23.3720 O   0  0  0  0  0  0  0  0  0  0  0  0
  -20.9190  -29.8580   21.7250 H   0  0  0  0  0  0  0  0  0  0  0  0
  -18.0230  -28.1010   22.9190 C   0  0  0  0  0  0  0  0  0  0  0  0
  -20.5810  -28.3720   23.1930 C   0  0  0  0  0  3  0  0  0  0  0  0
  -20.6860  -26.9350   22.6270 C   0  0  0  0  0  2  0  0  0  0  0  0
  -19.5870  -26.6040   21.6130 C   0  0  0  0  0  2  0  0  0  0  0  0
  -18.2040  -26.7490   22.2510 C   0  0  0  0  0  2  0  0  0  0  0  0
  -19.1380  -28.8700   23.3470 C   0  0  0  0  0  0  0  0  0  0  0  0
  -18.9130  -30.1350   23.9340 C   0  0  0  0  0  3  0  0  0  0  0  0
  -17.6070  -30.6300   24.0980 C   0  0  0  0  0  3  0  0  0  0  0  0
  -16.5060  -29.8600   23.6850 C   0  0  0  0  0  3  0  0  0  0  0  0
  -16.7150  -28.5980   23.1010 C   0  0  0  0  0  3  0  0  0  0  0  0
  -25.8840  -32.5220   23.8370 C   0  0  0  0  0  3  0  0  0  0  0  0
  -26.3920  -31.7610   25.1240 C   0  0  1  0  0  0  0  0  0  0  0  0
  -25.2920  -31.5360   26.1870 C   0  0  0  0  0  1  0  0  0  0  0  0
  -26.9750  -30.3790   24.7490 C   0  0  0  0  0  1  0  0  0  0  0  0
  -27.5430  -32.5580   25.7820 C   0  0  0  0  0  1  0  0  0  0  0  0
  -25.5690  -33.9220   24.1660 N   0  0  0  0  0  0  0  0  0  0  0  0
  -25.9070  -34.9790   23.4150 C   0  0  0  0  0  0  0  0  0  0  0  0
  -26.5800  -34.8770   22.3870 O   0  0  0  0  0  0  0  0  0  0  0  0
  -24.9750  -34.0740   24.9680 H   0  0  0  0  0  0  0  0  0  0  0  0
  -24.1850  -36.7780   23.0570 C   0  0  0  0  0  1  0  0  0  0  0  0
  -25.4200  -36.3680   23.8740 C   0  0  0  0  0  3  0  0  0  0  0  0
  -27.5530  -37.2440   24.7230 C   0  0  0  0  0  1  0  0  0  0  0  0
  -26.4580  -37.4190   23.7710 N   0  0  0  0  0  0  0  0  0  0  0  0
  -26.0540  -38.3390   23.9200 H   0  0  0  0  0  0  0  0  0  0  0  0
  1  3  1  0
  2  1  1  0
  2  3  1  0
  3  4  1  6
  3 46  1  0
  4  5  1  0
  6  5  1  0
  6  7  1  0
  8 16  1  0
  9 14  1  0
 10 11  1  0
 10  9  1  0
 12 11  1  0
 12 21  1  0
 12 13  1  0
 14  8  1  0
 14 13  1  0
 15  8  2  0
 16 17  1  0
 16  7  1  0
 18 19  2  0
 19 38  1  0
 20 19  1  0
 20 23  1  0
 21 18  1  0
 21 22  1  0
 22 20  2  0
 23 24  1  0
 24 25  2  0
 26 29  1  0
 26 25  1  0
 27 26  2  0
 28 27  1  0
 28 23  2  0
 29 30  1  0
 30 31  1  0
 31 32  2  0
 33 32  1  0
 33 37  1  0
 34 33  2  0
 35 30  2  0
 35 34  1  0
 36 35  1  0
 38 39  1  0
 39 42  1  0
 39 41  1  0
 40 38  2  0
 43 44  1  0
 43 18  1  0
 45 43  1  0
 47 49  1  0
 47 46  1  0
 48 59  2  0
 49 54  1  0
 50 58  1  0
 50 60  1  0
 51 57  1  0
 51 53  1  0
 52 58  1  0
 53 52  1  0
 54 53  2  0
 55 49  2  0
 56 55  1  0
 56 51  2  0
 57 50  1  0
 58 48  1  0
 60 62  2  0
 61 60  1  0
 63 61  1  0
 64 73  2  0
 64 69  1  0
 65 61  1  0
 65 69  1  0
 66 65  1  0
 67 68  1  0
 67 66  1  0
 68 64  1  0
 69 70  2  0
 70 71  1  0
 72 71  2  0
 73 72  1  0
 74 48  1  0
 74 79  1  0
 74 75  1  0
 75 78  1  1
 75 76  1  0
 77 75  1  0
 79 82  1  0
 80 84  1  0
 80 79  1  0
 81 80  2  0
 84 83  1  0
 86 84  1  0
 86 87  1  0
 86 85  1  0
M  ISO  4   8 100  16 100  46 101  47 101
M  END
>  <TORSDO>  (70) 
F 20

>  <SCORE>  (70) 
-14.456

>  <name>  (70) 
69

>  <ligand_id>  (70) 
69

>  <original_smiles>  (70) 
[H]C(=C([H])C1(C([H])([H])Oc2c([H])c([H])c3c(c2[H])C([H])([H])N(C(=O)C([H])(N([H])C(=O)C([H])(N([H])C([H])([H])[H])C([H])([H])[H])C(C([H])([H])[H])(C([H])([H])[H])C([H])([H])[H])C([H])(C(=O)N([H])C2([H])c4c([H])c([H])c([H])c([H])c4C([H])([H])C([H])([H])C2([H])[H])C3([H])[H])C([H])([H])C1([H])[H])C([H])([H])C([H])([H])N([H])C(=O)N1C([H])([H])C([H])([H])C([H])([H])C([H])(n2nc(-c3c([H])c([H])c(Oc4c([H])c([H])c(F)c([H])c4F)c([H])c3[H])c(C(=O)N([H])[H])c2N([H])[H])C1([H])[H]

>  <smiles>  (70) 
[H]C(=C([H])C1(C([H])([H])Oc2c([H])c([H])c3c(c2[H])C([H])([H])N(C(=O)C([H])(N([H])C(=O)C([H])(N([H])C([H])([H])[H])C([H])([H])[H])C(C([H])([H])[H])(C([H])([H])[H])C([H])([H])[H])C([H])(C(=O)N([H])C2([H])c4c([H])c([H])c([H])c([H])c4C([H])([H])C([H])([H])C2([H])[H])C3([H])[H])C([H])([H])C1([H])[H])C([H])([H])C([H])([H])N([H])C(=O)N1C([H])([H])C([H])([H])C([H])([H])C([H])(n2nc(-c3c([H])c([H])c(Oc4c([H])c([H])c(F)c([H])c4F)c([H])c3[H])c(C(=O)N([H])[H])c2N([H])[H])C1([H])[H]

$$$$
70:0:0
     RDKit          3D

 88 97  0  0  1  0  0  0  0  0999 V2000
  -30.7440  -20.9890   20.2010 C   0  0  0  0  0  2  0  0  0  0  0  0
  -28.8200  -20.4460   21.6240 C   0  0  0  0  0  2  0  0  0  0  0  0
  -30.3530  -22.5400   20.1610 C   0  0  0  0  0  2  0  0  0  0  0  0
  -28.4160  -22.0120   21.5910 C   0  0  0  0  0  2  0  0  0  0  0  0
  -28.6180  -21.2060   19.4330 C   0  0  0  0  0  2  0  0  0  0  0  0
  -29.4830  -20.0480   20.2710 C   0  0  1  0  0  0  0  0  0  0  0  0
  -28.8080  -22.6780   20.2190 C   0  0  2  0  0  0  0  0  0  0  0  0
  -30.0460  -18.3330   19.9060 C   0  0  0  0  0  2  0  0  0  0  0  0
  -30.4180  -15.4200   20.0890 C   0  0  0  0  0  0  0  0  0  0  0  0
  -30.3360  -12.9800   19.1930 C   0  0  0  0  0  2  0  0  0  0  0  0
  -29.3810  -12.7750   17.9900 C   0  0  0  0  0  2  0  0  0  0  0  0
  -27.9490  -12.5040   18.4770 C   0  0  0  0  0  2  0  0  0  0  0  0
  -27.5330  -13.4730   19.6100 C   0  0  0  0  0  3  0  0  0  0  0  0
  -28.6110  -13.6170   20.7060 C   0  0  0  0  0  2  0  0  0  0  0  0
  -29.8250  -14.1220   20.0450 N   0  0  0  0  0  0  0  0  0  0  0  0
  -31.6230  -15.3910   19.8010 O   0  0  0  0  0  0  0  0  0  0  0  0
  -29.7040  -16.7240   20.2420 N   0  0  0  0  0  0  0  0  0  0  0  0
  -28.7350  -16.5790   20.4850 H   0  0  0  0  0  0  0  0  0  0  0  0
  -25.1890  -14.0460   20.4280 C   0  0  0  0  0  0  0  0  0  0  0  0
  -24.1290  -13.2760   20.8180 C   0  0  0  0  0  0  0  0  0  0  0  0
  -24.5860  -11.9220   20.7710 C   0  0  0  0  0  0  0  0  0  0  0  0
  -26.2170  -13.1630   20.1540 N   0  0  0  0  0  0  0  0  0  0  0  0
  -25.8690  -11.8800   20.4280 N   0  0  0  0  0  0  0  0  0  0  0  0
  -23.8540  -10.6640   20.9730 C   0  0  0  0  0  0  0  0  0  0  0  0
  -24.2910   -9.6940   21.9020 C   0  0  0  0  0  3  0  0  0  0  0  0
  -23.5550   -8.5040   22.0940 C   0  0  0  0  0  3  0  0  0  0  0  0
  -22.3700   -8.2750   21.3560 C   0  0  0  0  0  0  0  0  0  0  0  0
  -21.9520   -9.2340   20.4160 C   0  0  0  0  0  3  0  0  0  0  0  0
  -22.6860  -10.4150   20.2230 C   0  0  0  0  0  3  0  0  0  0  0  0
  -21.6070   -7.1370   21.4570 O   0  0  0  0  0  0  0  0  0  0  0  0
  -21.5620   -6.4000   22.6130 C   0  0  0  0  0  0  0  0  0  0  0  0
  -21.1290   -6.9570   23.8360 C   0  0  0  0  0  3  0  0  0  0  0  0
  -21.0330   -6.1460   24.9850 C   0  0  0  0  0  3  0  0  0  0  0  0
  -21.3600   -4.7780   24.9110 C   0  0  0  0  0  0  0  0  0  0  0  0
  -21.7860   -4.2210   23.6930 C   0  0  0  0  0  3  0  0  0  0  0  0
  -21.8840   -5.0290   22.5470 C   0  0  0  0  0  0  0  0  0  0  0  0
  -22.2740   -4.4810   21.3710 F   0  0  0  0  0  0  0  0  0  0  0  0
  -21.2610   -3.9980   26.0120 F   0  0  0  0  0  0  0  0  0  0  0  0
  -22.7410  -13.7630   21.1170 C   0  0  0  0  0  0  0  0  0  0  0  0
  -22.0260  -13.0750   21.9990 N   0  0  0  0  0  0  0  0  0  0  0  0
  -22.3010  -14.7910   20.6030 O   0  0  0  0  0  0  0  0  0  0  0  0
  -22.3960  -12.2440   22.4380 H   0  0  0  0  0  0  0  0  0  0  0  0
  -21.0970  -13.3830   22.2410 H   0  0  0  0  0  0  0  0  0  0  0  0
  -25.3550  -15.4160   20.2490 N   0  0  0  0  0  0  0  0  0  0  0  0
  -24.5980  -16.0760   20.3910 H   0  0  0  0  0  0  0  0  0  0  0  0
  -26.1880  -15.8480   19.8700 H   0  0  0  0  0  0  0  0  0  0  0  0
  -28.0790  -24.3170   19.8140 C   0  0  0  0  0  2  0  0  0  0  0  0
  -28.2550  -25.9310   20.1720 O   0  0  0  0  0  0  0  0  0  0  0  0
  -24.6300  -31.8610   23.1630 C   0  0  0  0  0  0  0  0  0  0  0  0
  -27.2410  -27.0330   20.0900 C   0  0  0  0  0  0  0  0  0  0  0  0
  -23.4540  -30.4780   21.5020 C   0  0  0  0  0  3  0  0  0  0  0  0
  -24.9220  -28.9020   20.0610 C   0  0  0  0  0  0  0  0  0  0  0  0
  -26.0190  -30.7080   21.3680 C   0  0  0  0  0  2  0  0  0  0  0  0
  -26.1040  -29.3060   20.6940 C   0  0  0  0  0  0  0  0  0  0  0  0
  -27.2540  -28.3930   20.6850 C   0  0  0  0  0  3  0  0  0  0  0  0
  -26.0270  -26.7860   19.4080 C   0  0  0  0  0  3  0  0  0  0  0  0
  -24.9100  -27.6640   19.3970 C   0  0  0  0  0  3  0  0  0  0  0  0
  -23.6940  -29.8110   20.1170 C   0  0  0  0  0  2  0  0  0  0  0  0
  -24.7220  -31.0430   22.0640 N   0  0  0  0  0  0  0  0  0  0  0  0
  -23.5360  -32.1360   23.6840 O   0  0  0  0  0  0  0  0  0  0  0  0
  -22.7640  -29.4660   22.4530 C   0  0  0  0  0  0  0  0  0  0  0  0
  -21.4320  -29.3080   22.3360 N   0  0  0  0  0  0  0  0  0  0  0  0
  -23.4330  -28.8200   23.2630 O   0  0  0  0  0  0  0  0  0  0  0  0
  -20.9420  -29.8780   21.6600 H   0  0  0  0  0  0  0  0  0  0  0  0
  -18.0470  -28.1150   22.8700 C   0  0  0  0  0  0  0  0  0  0  0  0
  -20.6130  -28.3560   23.0960 C   0  0  0  0  0  3  0  0  0  0  0  0
  -20.6940  -26.9400   22.4790 C   0  0  0  0  0  2  0  0  0  0  0  0
  -19.5720  -26.6540   21.4760 C   0  0  0  0  0  2  0  0  0  0  0  0
  -18.2020  -26.7860   22.1480 C   0  0  0  0  0  2  0  0  0  0  0  0
  -19.1790  -28.8590   23.3010 C   0  0  0  0  0  0  0  0  0  0  0  0
  -18.9760  -30.1020   23.9390 C   0  0  0  0  0  3  0  0  0  0  0  0
  -17.6760  -30.5990   24.1510 C   0  0  0  0  0  3  0  0  0  0  0  0
  -16.5600  -29.8530   23.7320 C   0  0  0  0  0  3  0  0  0  0  0  0
  -16.7460  -28.6120   23.0980 C   0  0  0  0  0  3  0  0  0  0  0  0
  -25.8920  -32.5060   23.8100 C   0  0  0  0  0  3  0  0  0  0  0  0
  -25.5670  -33.9050   24.1490 N   0  0  0  0  0  0  0  0  0  0  0  0
  -25.8840  -34.9700   23.4010 C   0  0  0  0  0  0  0  0  0  0  0  0
  -26.5420  -34.8800   22.3610 O   0  0  0  0  0  0  0  0  0  0  0  0
  -24.9750  -34.0470   24.9540 H   0  0  0  0  0  0  0  0  0  0  0  0
  -24.1300  -36.7540   23.1050 C   0  0  0  0  0  1  0  0  0  0  0  0
  -25.3960  -36.3530   23.8790 C   0  0  0  0  0  3  0  0  0  0  0  0
  -27.5390  -37.2640   24.6660 C   0  0  0  0  0  1  0  0  0  0  0  0
  -26.4150  -37.4170   23.7460 N   0  0  0  0  0  0  0  0  0  0  0  0
  -26.0000  -38.3330   23.9010 H   0  0  0  0  0  0  0  0  0  0  0  0
  -26.3900  -31.7380   25.0970 C   0  0  1  0  0  0  0  0  0  0  0  0
  -25.2800  -31.5030   26.1480 C   0  0  0  0  0  1  0  0  0  0  0  0
  -26.9810  -30.3570   24.7270 C   0  0  0  0  0  1  0  0  0  0  0  0
  -27.5280  -32.5360   25.7760 C   0  0  0  0  0  1  0  0  0  0  0  0
  1  6  1  0
  3  1  1  0
  3  7  1  0
  4  2  1  0
  5  7  1  0
  5  6  1  0
  6  8  1  6
  6  2  1  0
  7 47  1  6
  7  4  1  0
  8 17  1  0
  9 17  1  0
 10 15  1  0
 11 12  1  0
 11 10  1  0
 13 12  1  0
 13 22  1  0
 13 14  1  0
 15  9  1  0
 15 14  1  0
 16  9  2  0
 17 18  1  0
 19 20  2  0
 20 39  1  0
 21 20  1  0
 21 24  1  0
 22 23  1  0
 22 19  1  0
 23 21  2  0
 24 25  1  0
 25 26  2  0
 27 30  1  0
 27 26  1  0
 28 27  2  0
 29 28  1  0
 29 24  2  0
 30 31  1  0
 31 32  1  0
 32 33  2  0
 34 33  1  0
 34 38  1  0
 35 34  2  0
 36 31  2  0
 36 35  1  0
 37 36  1  0
 39 40  1  0
 40 43  1  0
 40 42  1  0
 41 39  2  0
 44 45  1  0
 44 19  1  0
 46 44  1  0
 47 48  1  0
 49 60  2  0
 50 48  1  0
 50 55  1  0
 51 59  1  0
 51 61  1  0
 52 58  1  0
 52 54  1  0
 53 59  1  0
 54 53  1  0
 55 54  2  0
 56 50  2  0
 57 56  1  0
 57 52  2  0
 58 51  1  0
 59 49  1  0
 61 63  2  0
 62 61  1  0
 64 62  1  0
 65 74  2  0
 65 70  1  0
 66 62  1  0
 66 70  1  0
 67 66  1  0
 68 69  1  0
 68 67  1  0
 69 65  1  0
 70 71  2  0
 71 72  1  0
 73 72  2  0
 74 73  1  0
 75 49  1  0
 75 76  1  0
 75 85  1  0
 76 79  1  0
 77 81  1  0
 77 76  1  0
 78 77  2  0
 81 80  1  0
 83 81  1  0
 83 84  1  0
 83 82  1  0
 85 88  1  1
 85 86  1  0
 87 85  1  0
M  ISO  4   9 100  17 100  47 101  48 101
M  END
>  <TORSDO>  (71) 
F 18

>  <SCORE>  (71) 
-16.174

>  <name>  (71) 
70

>  <ligand_id>  (71) 
70

>  <original_smiles>  (71) 
[H]c1c([H])c([H])c2c(c1[H])C([H])([H])C([H])([H])C([H])([H])C2([H])N([H])C(=O)C1([H])N(C(=O)C([H])(N([H])C(=O)C([H])(N([H])C([H])([H])[H])C([H])([H])[H])C(C([H])([H])[H])(C([H])([H])[H])C([H])([H])[H])C([H])([H])c2c([H])c(OC([H])([H])C34C([H])([H])C([H])([H])C(C([H])([H])N([H])C(=O)N5C([H])([H])C([H])([H])C([H])([H])C([H])(n6nc(-c7c([H])c([H])c(Oc8c([H])c([H])c(F)c([H])c8F)c([H])c7[H])c(C(=O)N([H])[H])c6N([H])[H])C5([H])[H])(C([H])([H])C3([H])[H])C4([H])[H])c([H])c([H])c2C1([H])[H]

>  <smiles>  (71) 
[H]c1c([H])c([H])c2c(c1[H])C([H])([H])C([H])([H])C([H])([H])C2([H])N([H])C(=O)C1([H])N(C(=O)C([H])(N([H])C(=O)C([H])(N([H])C([H])([H])[H])C([H])([H])[H])C(C([H])([H])[H])(C([H])([H])[H])C([H])([H])[H])C([H])([H])c2c([H])c(OC([H])([H])C34C([H])([H])C([H])([H])C(C([H])([H])N([H])C(=O)N5C([H])([H])C([H])([H])C([H])([H])C([H])(n6nc(-c7c([H])c([H])c(Oc8c([H])c([H])c(F)c([H])c8F)c([H])c7[H])c(C(=O)N([H])[H])c6N([H])[H])C5([H])[H])(C([H])([H])C3([H])[H])C4([H])[H])c([H])c([H])c2C1([H])[H]

$$$$
71:0:0
     RDKit          3D

 92100  0  0  1  0  0  0  0  0999 V2000
  -29.4880  -21.2790   21.0670 C   0  0  0  0  0  2  0  0  0  0  0  0
  -30.1720  -19.8880   19.0070 C   0  0  0  0  0  3  0  0  0  0  0  0
  -30.4530  -18.6860   18.3300 C   0  0  0  0  0  3  0  0  0  0  0  0
  -29.7980  -18.5840   21.0240 C   0  0  0  0  0  3  0  0  0  0  0  0
  -29.8010  -19.8840   20.3630 C   0  0  0  0  0  0  0  0  0  0  0  0
  -30.3930  -17.4250   18.9690 C   0  0  0  0  0  0  0  0  0  0  0  0
  -30.1230  -17.3250   20.3660 C   0  0  0  0  0  0  0  0  0  0  0  0
  -30.5470  -16.2010   18.0830 C   0  0  0  0  0  1  0  0  0  0  0  0
  -30.8480  -14.8670   20.8910 C   0  0  0  0  0  0  0  0  0  0  0  0
  -30.7680  -12.5400   19.9970 C   0  0  0  0  0  2  0  0  0  0  0  0
  -29.9510  -12.5240   18.6850 C   0  0  0  0  0  2  0  0  0  0  0  0
  -28.4370  -12.4330   18.9600 C   0  0  0  0  0  2  0  0  0  0  0  0
  -27.9550  -13.3570   20.1120 C   0  0  0  0  0  3  0  0  0  0  0  0
  -28.8990  -13.2930   21.3300 C   0  0  0  0  0  2  0  0  0  0  0  0
  -30.2480  -13.6290   20.8560 N   0  0  0  0  0  0  0  0  0  0  0  0
  -32.0550  -14.9700   20.6490 O   0  0  0  0  0  0  0  0  0  0  0  0
  -30.0470  -15.9920   21.0290 N   0  0  0  0  0  0  0  0  0  0  0  0
  -29.1720  -15.8090   21.4960 H   0  0  0  0  0  0  0  0  0  0  0  0
  -25.5080  -13.9600   20.6020 C   0  0  0  0  0  0  0  0  0  0  0  0
  -24.4130  -13.1930   20.8950 C   0  0  0  0  0  0  0  0  0  0  0  0
  -24.8790  -11.8430   20.9450 C   0  0  0  0  0  0  0  0  0  0  0  0
  -26.5700  -13.0780   20.4840 N   0  0  0  0  0  0  0  0  0  0  0  0
  -26.1920  -11.8020   20.7540 N   0  0  0  0  0  0  0  0  0  0  0  0
  -24.1400  -10.5840   21.1020 C   0  0  0  0  0  0  0  0  0  0  0  0
  -24.4900   -9.6380   22.0920 C   0  0  0  0  0  3  0  0  0  0  0  0
  -23.7520   -8.4430   22.2330 C   0  0  0  0  0  3  0  0  0  0  0  0
  -22.6500   -8.1860   21.3840 C   0  0  0  0  0  0  0  0  0  0  0  0
  -22.3210   -9.1190   20.3830 C   0  0  0  0  0  3  0  0  0  0  0  0
  -23.0610  -10.3040   20.2400 C   0  0  0  0  0  3  0  0  0  0  0  0
  -21.8880   -7.0440   21.4370 O   0  0  0  0  0  0  0  0  0  0  0  0
  -21.7390   -6.3300   22.6000 C   0  0  0  0  0  0  0  0  0  0  0  0
  -21.1880   -6.9090   23.7650 C   0  0  0  0  0  3  0  0  0  0  0  0
  -20.9840   -6.1170   24.9140 C   0  0  0  0  0  3  0  0  0  0  0  0
  -21.3250   -4.7520   24.9020 C   0  0  0  0  0  0  0  0  0  0  0  0
  -21.8740   -4.1750   23.7420 C   0  0  0  0  0  3  0  0  0  0  0  0
  -22.0770   -4.9610   22.5940 C   0  0  0  0  0  0  0  0  0  0  0  0
  -22.5860   -4.3950   21.4740 F   0  0  0  0  0  0  0  0  0  0  0  0
  -21.1250   -3.9920   26.0030 F   0  0  0  0  0  0  0  0  0  0  0  0
  -22.9950  -13.6720   21.0230 C   0  0  0  0  0  0  0  0  0  0  0  0
  -22.1880  -13.0000   21.8370 N   0  0  0  0  0  0  0  0  0  0  0  0
  -22.6060  -14.6790   20.4330 O   0  0  0  0  0  0  0  0  0  0  0  0
  -22.5100  -12.1900   22.3460 H   0  0  0  0  0  0  0  0  0  0  0  0
  -21.2320  -13.3060   21.9600 H   0  0  0  0  0  0  0  0  0  0  0  0
  -25.6890  -15.3270   20.4090 N   0  0  0  0  0  0  0  0  0  0  0  0
  -24.9220  -15.9870   20.4690 H   0  0  0  0  0  0  0  0  0  0  0  0
  -26.5660  -15.7610   20.1540 H   0  0  0  0  0  0  0  0  0  0  0  0
  -29.1080  -23.8520   20.5560 C   0  0  0  0  0  0  0  0  0  0  0  0
  -28.9710  -22.4940   20.2890 N   0  0  0  0  0  0  0  0  0  0  0  0
  -29.8910  -24.2340   21.4280 O   0  0  0  0  0  0  0  0  0  0  0  0
  -28.3210  -22.2710   19.5470 H   0  0  0  0  0  0  0  0  0  0  0  0
  -28.2210  -24.9530   19.7910 C   0  0  0  0  0  2  0  0  0  0  0  0
  -28.4300  -26.4270   20.0730 O   0  0  0  0  0  0  0  0  0  0  0  0
  -24.6080  -31.8300   23.0990 C   0  0  0  0  0  0  0  0  0  0  0  0
  -27.3260  -27.3170   19.9940 C   0  0  0  0  0  0  0  0  0  0  0  0
  -23.4490  -30.4410   21.4230 C   0  0  0  0  0  3  0  0  0  0  0  0
  -24.9420  -28.9390   19.9810 C   0  0  0  0  0  0  0  0  0  0  0  0
  -25.9910  -30.7860   21.2840 C   0  0  0  0  0  2  0  0  0  0  0  0
  -26.0990  -29.4170   20.6100 C   0  0  0  0  0  0  0  0  0  0  0  0
  -27.2880  -28.6160   20.6130 C   0  0  0  0  0  3  0  0  0  0  0  0
  -26.1470  -26.9260   19.3170 C   0  0  0  0  0  3  0  0  0  0  0  0
  -24.9730  -27.7020   19.3240 C   0  0  0  0  0  3  0  0  0  0  0  0
  -23.6920  -29.7970   20.0320 C   0  0  0  0  0  2  0  0  0  0  0  0
  -24.7010  -31.0370   21.9910 N   0  0  0  0  0  0  0  0  0  0  0  0
  -23.5140  -32.0810   23.6230 O   0  0  0  0  0  0  0  0  0  0  0  0
  -22.7890  -29.3980   22.3560 C   0  0  0  0  0  0  0  0  0  0  0  0
  -21.4560  -29.2510   22.2590 N   0  0  0  0  0  0  0  0  0  0  0  0
  -23.4760  -28.7260   23.1320 O   0  0  0  0  0  0  0  0  0  0  0  0
  -20.9600  -29.8440   21.6070 H   0  0  0  0  0  0  0  0  0  0  0  0
  -18.0650  -28.1440   22.8630 C   0  0  0  0  0  0  0  0  0  0  0  0
  -20.6410  -28.2980   23.0150 C   0  0  0  0  0  3  0  0  0  0  0  0
  -20.6610  -26.9000   22.3540 C   0  0  0  0  0  2  0  0  0  0  0  0
  -19.4980  -26.6770   21.3800 C   0  0  0  0  0  2  0  0  0  0  0  0
  -18.1560  -26.8330   22.1010 C   0  0  0  0  0  2  0  0  0  0  0  0
  -19.2310  -28.8390   23.2790 C   0  0  0  0  0  0  0  0  0  0  0  0
  -19.0900  -30.0680   23.9560 C   0  0  0  0  0  3  0  0  0  0  0  0
  -17.8140  -30.6020   24.2230 C   0  0  0  0  0  3  0  0  0  0  0  0
  -16.6620  -29.9030   23.8210 C   0  0  0  0  0  3  0  0  0  0  0  0
  -16.7890  -28.6760   23.1450 C   0  0  0  0  0  3  0  0  0  0  0  0
  -25.8720  -32.4750   23.7460 C   0  0  0  0  0  3  0  0  0  0  0  0
  -26.3960  -31.6820   25.0070 C   0  0  1  0  0  0  0  0  0  0  0  0
  -25.3000  -31.4000   26.0610 C   0  0  0  0  0  1  0  0  0  0  0  0
  -27.0090  -30.3250   24.5910 C   0  0  0  0  0  1  0  0  0  0  0  0
  -27.5280  -32.4830   25.6930 C   0  0  0  0  0  1  0  0  0  0  0  0
  -25.5270  -33.8560   24.1120 N   0  0  0  0  0  0  0  0  0  0  0  0
  -25.8740  -34.9400   23.4060 C   0  0  0  0  0  0  0  0  0  0  0  0
  -26.5860  -34.8830   22.3990 O   0  0  0  0  0  0  0  0  0  0  0  0
  -24.8960  -33.9730   24.8910 H   0  0  0  0  0  0  0  0  0  0  0  0
  -24.1620  -36.7440   23.0220 C   0  0  0  0  0  1  0  0  0  0  0  0
  -25.3510  -36.3060   23.8930 C   0  0  0  0  0  3  0  0  0  0  0  0
  -27.4190  -37.1630   24.9020 C   0  0  0  0  0  1  0  0  0  0  0  0
  -26.3830  -37.3670   23.8930 N   0  0  0  0  0  0  0  0  0  0  0  0
  -25.9620  -38.2790   24.0500 H   0  0  0  0  0  0  0  0  0  0  0  0
  2  5  1  0
  3  6  1  0
  3  2  2  0
  5  4  2  0
  5  1  1  0
  6  7  2  0
  7  4  1  0
  7 17  1  0
  8  6  1  0
  9 17  1  0
 10 15  1  0
 11 12  1  0
 11 10  1  0
 13 12  1  0
 13 22  1  0
 13 14  1  0
 15  9  1  0
 15 14  1  0
 16  9  2  0
 17 18  1  0
 19 20  2  0
 20 21  1  0
 20 39  1  0
 21 24  1  0
 22 19  1  0
 22 23  1  0
 23 21  2  0
 24 25  1  0
 25 26  2  0
 27 30  1  0
 27 26  1  0
 28 27  2  0
 29 28  1  0
 29 24  2  0
 30 31  1  0
 31 32  1  0
 32 33  2  0
 34 33  1  0
 34 38  1  0
 35 34  2  0
 36 31  2  0
 36 35  1  0
 37 36  1  0
 39 40  1  0
 40 43  1  0
 40 42  1  0
 41 39  2  0
 44 45  1  0
 44 19  1  0
 46 44  1  0
 47 49  2  0
 48 47  1  0
 48  1  1  0
 50 48  1  0
 51 52  1  0
 51 47  1  0
 53 64  2  0
 54 52  1  0
 54 59  1  0
 55 63  1  0
 55 65  1  0
 56 62  1  0
 56 58  1  0
 57 63  1  0
 58 59  2  0
 58 57  1  0
 60 61  1  0
 60 54  2  0
 61 56  2  0
 62 55  1  0
 63 53  1  0
 65 67  2  0
 66 65  1  0
 68 66  1  0
 69 78  2  0
 69 74  1  0
 70 66  1  0
 70 74  1  0
 71 70  1  0
 72 73  1  0
 72 71  1  0
 73 69  1  0
 74 75  2  0
 75 76  1  0
 77 76  2  0
 78 77  1  0
 79 53  1  0
 79 84  1  0
 79 80  1  0
 80 83  1  1
 80 81  1  0
 82 80  1  0
 84 87  1  0
 85 89  1  0
 85 84  1  0
 86 85  2  0
 89 88  1  0
 89 91  1  0
 91 92  1  0
 91 90  1  0
M  ISO  4   9 100  17 100  51 101  52 101
M  END
>  <TORSDO>  (72) 
F 19

>  <SCORE>  (72) 
-13.535

>  <name>  (72) 
71

>  <ligand_id>  (72) 
71

>  <original_smiles>  (72) 
[H]c1c([H])c([H])c2c(c1[H])C([H])([H])C([H])([H])C([H])([H])C2([H])N([H])C(=O)C1([H])N(C(=O)C([H])(N([H])C(=O)C([H])(N([H])C([H])([H])[H])C([H])([H])[H])C(C([H])([H])[H])(C([H])([H])[H])C([H])([H])[H])C([H])([H])c2c([H])c(OC([H])([H])C(=O)N([H])C([H])([H])c3c([H])c([H])c(C([H])([H])[H])c(N([H])C(=O)N4C([H])([H])C([H])([H])C([H])([H])C([H])(n5nc(-c6c([H])c([H])c(Oc7c([H])c([H])c(F)c([H])c7F)c([H])c6[H])c(C(=O)N([H])[H])c5N([H])[H])C4([H])[H])c3[H])c([H])c([H])c2C1([H])[H]

>  <smiles>  (72) 
[H]c1c([H])c([H])c2c(c1[H])C([H])([H])C([H])([H])C([H])([H])C2([H])N([H])C(=O)C1([H])N(C(=O)C([H])(N([H])C(=O)C([H])(N([H])C([H])([H])[H])C([H])([H])[H])C(C([H])([H])[H])(C([H])([H])[H])C([H])([H])[H])C([H])([H])c2c([H])c(OC([H])([H])C(=O)N([H])C([H])([H])c3c([H])c([H])c(C([H])([H])[H])c(N([H])C(=O)N4C([H])([H])C([H])([H])C([H])([H])C([H])(n5nc(-c6c([H])c([H])c(Oc7c([H])c([H])c(F)c([H])c7F)c([H])c6[H])c(C(=O)N([H])[H])c5N([H])[H])C4([H])[H])c3[H])c([H])c([H])c2C1([H])[H]

$$$$
72:0:0
     RDKit          3D

 93102  0  0  1  0  0  0  0  0999 V2000
  -29.7950  -22.0100   20.7740 C   0  0  0  0  0  0  0  0  0  0  0  0
  -29.3930  -23.0660   20.0410 N   0  0  0  0  0  0  0  0  0  0  0  0
  -30.3080  -22.1730   21.8840 O   0  0  0  0  0  0  0  0  0  0  0  0
  -28.9740  -22.8770   19.1380 H   0  0  0  0  0  0  0  0  0  0  0  0
  -28.4540  -19.7820   20.9020 C   0  0  0  0  0  2  0  0  0  0  0  0
  -29.5580  -20.3300   18.7100 C   0  0  0  0  0  2  0  0  0  0  0  0
  -28.8470  -18.2930   20.7370 C   0  0  0  0  0  2  0  0  0  0  0  0
  -29.9530  -18.8340   18.5500 C   0  0  0  0  0  2  0  0  0  0  0  0
  -30.7920  -19.6360   20.6060 C   0  0  0  0  0  2  0  0  0  0  0  0
  -29.6200  -20.5530   20.2410 C   0  0  1  0  0  0  0  0  0  0  0  0
  -30.2000  -18.3580   20.0020 C   0  0  1  0  0  0  0  0  0  0  0  0
  -31.1220  -17.1130   20.1820 C   0  0  0  0  0  2  0  0  0  0  0  0
  -31.1190  -14.6460   19.8590 C   0  0  0  0  0  0  0  0  0  0  0  0
  -30.7250  -12.3920   18.9450 C   0  0  0  0  0  2  0  0  0  0  0  0
  -29.7300  -12.4950   17.7720 C   0  0  0  0  0  2  0  0  0  0  0  0
  -28.2810  -12.4070   18.2880 C   0  0  0  0  0  2  0  0  0  0  0  0
  -28.0090  -13.3570   19.4850 C   0  0  0  0  0  3  0  0  0  0  0  0
  -29.1220  -13.2580   20.5530 C   0  0  0  0  0  2  0  0  0  0  0  0
  -30.4090  -13.4840   19.8810 N   0  0  0  0  0  0  0  0  0  0  0  0
  -32.2530  -14.7080   19.3800 O   0  0  0  0  0  0  0  0  0  0  0  0
  -30.4780  -15.7800   20.2200 N   0  0  0  0  0  0  0  0  0  0  0  0
  -29.5290  -15.7100   20.5570 H   0  0  0  0  0  0  0  0  0  0  0  0
  -25.7070  -14.0500   20.3960 C   0  0  0  0  0  0  0  0  0  0  0  0
  -24.6310  -13.3180   20.8180 C   0  0  0  0  0  0  0  0  0  0  0  0
  -25.0180  -11.9470   20.7100 C   0  0  0  0  0  0  0  0  0  0  0  0
  -26.6850  -13.1280   20.0590 N   0  0  0  0  0  0  0  0  0  0  0  0
  -26.2790  -11.8560   20.3060 N   0  0  0  0  0  0  0  0  0  0  0  0
  -24.2420  -10.7160   20.9100 C   0  0  0  0  0  0  0  0  0  0  0  0
  -24.6500   -9.7280   21.8310 C   0  0  0  0  0  3  0  0  0  0  0  0
  -23.8770   -8.5610   22.0200 C   0  0  0  0  0  3  0  0  0  0  0  0
  -22.6810   -8.3770   21.2870 C   0  0  0  0  0  0  0  0  0  0  0  0
  -22.2910   -9.3530   20.3530 C   0  0  0  0  0  3  0  0  0  0  0  0
  -23.0640  -10.5100   20.1620 C   0  0  0  0  0  3  0  0  0  0  0  0
  -21.8790   -7.2640   21.3850 O   0  0  0  0  0  0  0  0  0  0  0  0
  -21.7540   -6.5690   22.5610 C   0  0  0  0  0  0  0  0  0  0  0  0
  -21.2870   -7.1820   23.7430 C   0  0  0  0  0  3  0  0  0  0  0  0
  -21.1080   -6.4140   24.9120 C   0  0  0  0  0  3  0  0  0  0  0  0
  -21.3870   -5.0340   24.8980 C   0  0  0  0  0  0  0  0  0  0  0  0
  -21.8480   -4.4210   23.7200 C   0  0  0  0  0  3  0  0  0  0  0  0
  -22.0280   -5.1850   22.5530 C   0  0  0  0  0  0  0  0  0  0  0  0
  -22.4510   -4.5860   21.4150 F   0  0  0  0  0  0  0  0  0  0  0  0
  -21.2080   -4.2940   26.0170 F   0  0  0  0  0  0  0  0  0  0  0  0
  -23.2830  -13.8540   21.2060 C   0  0  0  0  0  0  0  0  0  0  0  0
  -22.5870  -13.1690   22.1080 N   0  0  0  0  0  0  0  0  0  0  0  0
  -22.8590  -14.9140   20.7470 O   0  0  0  0  0  0  0  0  0  0  0  0
  -22.9450  -12.3100   22.5010 H   0  0  0  0  0  0  0  0  0  0  0  0
  -21.6860  -13.5070   22.4100 H   0  0  0  0  0  0  0  0  0  0  0  0
  -25.9310  -15.4160   20.2510 N   0  0  0  0  0  0  0  0  0  0  0  0
  -25.2080  -16.1040   20.4310 H   0  0  0  0  0  0  0  0  0  0  0  0
  -26.7710  -15.8210   19.8590 H   0  0  0  0  0  0  0  0  0  0  0  0
  -29.5550  -24.4860   20.4340 C   0  0  0  0  0  2  0  0  0  0  0  0
  -28.4030  -25.3830   19.9270 C   0  0  0  0  0  2  0  0  0  0  0  0
  -28.5270  -26.7840   20.2670 O   0  0  0  0  0  0  0  0  0  0  0  0
  -24.5840  -31.9150   23.3120 C   0  0  0  0  0  0  0  0  0  0  0  0
  -27.3580  -27.5320   20.2220 C   0  0  0  0  0  0  0  0  0  0  0  0
  -23.4380  -30.5150   21.6300 C   0  0  0  0  0  3  0  0  0  0  0  0
  -24.9450  -29.0300   20.2100 C   0  0  0  0  0  0  0  0  0  0  0  0
  -25.9660  -30.9090   21.4940 C   0  0  0  0  0  2  0  0  0  0  0  0
  -26.0870  -29.5490   20.8310 C   0  0  0  0  0  0  0  0  0  0  0  0
  -27.2970  -28.8120   20.8300 C   0  0  0  0  0  3  0  0  0  0  0  0
  -26.1910  -27.0420   19.5850 C   0  0  0  0  0  3  0  0  0  0  0  0
  -24.9930  -27.7750   19.5830 C   0  0  0  0  0  3  0  0  0  0  0  0
  -23.6900  -29.8690   20.2430 C   0  0  0  0  0  2  0  0  0  0  0  0
  -24.6790  -31.1280   22.2030 N   0  0  0  0  0  0  0  0  0  0  0  0
  -23.4860  -32.1570   23.8330 O   0  0  0  0  0  0  0  0  0  0  0  0
  -22.7890  -29.4630   22.5590 C   0  0  0  0  0  0  0  0  0  0  0  0
  -21.4730  -29.2510   22.3980 N   0  0  0  0  0  0  0  0  0  0  0  0
  -23.4670  -28.8420   23.3830 O   0  0  0  0  0  0  0  0  0  0  0  0
  -20.9850  -29.8060   21.7080 H   0  0  0  0  0  0  0  0  0  0  0  0
  -18.1150  -27.9730   22.8000 C   0  0  0  0  0  0  0  0  0  0  0  0
  -20.6580  -28.2860   23.1380 C   0  0  0  0  0  3  0  0  0  0  0  0
  -20.8090  -26.8640   22.5520 C   0  0  0  0  0  2  0  0  0  0  0  0
  -19.7390  -26.5260   21.5080 C   0  0  0  0  0  2  0  0  0  0  0  0
  -18.3390  -26.6330   22.1180 C   0  0  0  0  0  2  0  0  0  0  0  0
  -19.2040  -28.7550   23.2650 C   0  0  0  0  0  0  0  0  0  0  0  0
  -18.9430  -30.0070   23.8610 C   0  0  0  0  0  3  0  0  0  0  0  0
  -17.6230  -30.4780   23.9990 C   0  0  0  0  0  3  0  0  0  0  0  0
  -16.5470  -29.6930   23.5500 C   0  0  0  0  0  3  0  0  0  0  0  0
  -16.7940  -28.4420   22.9570 C   0  0  0  0  0  3  0  0  0  0  0  0
  -25.8420  -32.5630   23.9660 C   0  0  0  0  0  3  0  0  0  0  0  0
  -26.3130  -31.8210   25.2770 C   0  0  1  0  0  0  0  0  0  0  0  0
  -25.1800  -31.5890   26.3030 C   0  0  0  0  0  1  0  0  0  0  0  0
  -26.9280  -30.4450   24.9340 C   0  0  0  0  0  1  0  0  0  0  0  0
  -27.4270  -32.6400   25.9690 C   0  0  0  0  0  1  0  0  0  0  0  0
  -25.5190  -33.9670   24.2500 N   0  0  0  0  0  0  0  0  0  0  0  0
  -25.8630  -35.0000   23.4680 C   0  0  0  0  0  0  0  0  0  0  0  0
  -26.5550  -34.8700   22.4550 O   0  0  0  0  0  0  0  0  0  0  0  0
  -24.9100  -34.1400   25.0360 H   0  0  0  0  0  0  0  0  0  0  0  0
  -24.1280  -36.7650   23.0270 C   0  0  0  0  0  1  0  0  0  0  0  0
  -25.3580  -36.3980   23.8730 C   0  0  0  0  0  3  0  0  0  0  0  0
  -27.4680  -37.3270   24.7170 C   0  0  0  0  0  1  0  0  0  0  0  0
  -26.3850  -37.4540   23.7450 N   0  0  0  0  0  0  0  0  0  0  0  0
  -25.9710  -38.3760   23.8500 H   0  0  0  0  0  0  0  0  0  0  0  0
  1  3  2  0
  2 51  1  0
  2  1  1  0
  4  2  1  0
  6 10  1  0
  7  5  1  0
  8  6  1  0
  8 11  1  0
 10  9  1  0
 10  1  1  6
 10  5  1  0
 11 12  1  6
 11  9  1  0
 11  7  1  0
 12 21  1  0
 13 19  1  0
 13 21  1  0
 14 19  1  0
 15 16  1  0
 15 14  1  0
 17 16  1  0
 17 26  1  0
 17 18  1  0
 19 18  1  0
 20 13  2  0
 21 22  1  0
 23 24  2  0
 24 43  1  0
 25 24  1  0
 25 28  1  0
 26 27  1  0
 26 23  1  0
 27 25  2  0
 28 29  1  0
 29 30  2  0
 31 34  1  0
 31 30  1  0
 32 31  2  0
 33 32  1  0
 33 28  2  0
 34 35  1  0
 35 36  1  0
 36 37  2  0
 38 37  1  0
 38 42  1  0
 39 38  2  0
 40 35  2  0
 40 39  1  0
 41 40  1  0
 43 44  1  0
 44 47  1  0
 44 46  1  0
 45 43  2  0
 48 23  1  0
 48 49  1  0
 50 48  1  0
 52 53  1  0
 52 51  1  0
 54 65  2  0
 55 53  1  0
 55 60  1  0
 56 64  1  0
 56 66  1  0
 57 63  1  0
 57 59  1  0
 58 64  1  0
 59 58  1  0
 60 59  2  0
 61 55  2  0
 62 61  1  0
 62 57  2  0
 63 56  1  0
 64 54  1  0
 66 68  2  0
 67 66  1  0
 69 67  1  0
 70 79  2  0
 70 75  1  0
 71 67  1  0
 71 75  1  0
 72 71  1  0
 73 74  1  0
 73 72  1  0
 74 70  1  0
 75 76  2  0
 76 77  1  0
 78 77  2  0
 79 78  1  0
 80 54  1  0
 80 85  1  0
 80 81  1  0
 81 84  1  1
 81 82  1  0
 83 81  1  0
 85 88  1  0
 86 90  1  0
 86 85  1  0
 87 86  2  0
 90 89  1  0
 92 93  1  0
 92 90  1  0
 92 91  1  0
M  ISO  4  13 100  21 100  52 101  53 101
M  END
>  <TORSDO>  (73) 
F 20

>  <SCORE>  (73) 
-13.430

>  <name>  (73) 
72

>  <ligand_id>  (73) 
72

>  <original_smiles>  (73) 
[H]c1c([H])c([H])c2c(c1[H])C([H])([H])C([H])([H])C([H])([H])C2([H])N([H])C(=O)C1([H])N(C(=O)C([H])(N([H])C(=O)C([H])(N([H])C([H])([H])[H])C([H])([H])[H])C(C([H])([H])[H])(C([H])([H])[H])C([H])([H])[H])C([H])([H])c2c([H])c(OC([H])([H])C([H])([H])N([H])C(=O)C34C([H])([H])C([H])([H])C(C([H])([H])N([H])C(=O)N5C([H])([H])C([H])([H])C([H])([H])C([H])(n6nc(-c7c([H])c([H])c(Oc8c([H])c([H])c(F)c([H])c8F)c([H])c7[H])c(C(=O)N([H])[H])c6N([H])[H])C5([H])[H])(C([H])([H])C3([H])[H])C4([H])[H])c([H])c([H])c2C1([H])[H]

>  <smiles>  (73) 
[H]c1c([H])c([H])c2c(c1[H])C([H])([H])C([H])([H])C([H])([H])C2([H])N([H])C(=O)C1([H])N(C(=O)C([H])(N([H])C(=O)C([H])(N([H])C([H])([H])[H])C([H])([H])[H])C(C([H])([H])[H])(C([H])([H])[H])C([H])([H])[H])C([H])([H])c2c([H])c(OC([H])([H])C([H])([H])N([H])C(=O)C34C([H])([H])C([H])([H])C(C([H])([H])N([H])C(=O)N5C([H])([H])C([H])([H])C([H])([H])C([H])(n6nc(-c7c([H])c([H])c(Oc8c([H])c([H])c(F)c([H])c8F)c([H])c7[H])c(C(=O)N([H])[H])c6N([H])[H])C5([H])[H])(C([H])([H])C3([H])[H])C4([H])[H])c([H])c([H])c2C1([H])[H]

$$$$
73:0:0
     RDKit          3D

 96104  0  0  1  0  0  0  0  0999 V2000
  -28.9200  -19.5090   18.6170 C   0  0  0  0  0  2  0  0  0  0  0  0
  -30.3170  -18.8740   18.5820 C   0  0  0  0  0  2  0  0  0  0  0  0
  -29.2090  -19.8420   20.0840 C   0  0  0  0  0  3  0  0  0  0  0  0
  -30.1220  -18.4840   20.0650 C   0  0  2  0  0  0  0  0  0  0  0  0
  -31.4050  -18.5050   20.9280 C   0  0  0  0  0  2  0  0  0  0  0  0
  -31.2020  -18.4210   22.4460 C   0  0  0  0  0  0  0  0  0  0  0  0
  -30.9960  -19.5480   23.1180 N   0  0  0  0  0  0  0  0  0  0  0  0
  -31.2620  -17.3420   23.0290 O   0  0  0  0  0  0  0  0  0  0  0  0
  -30.9610  -20.4310   22.6380 H   0  0  0  0  0  0  0  0  0  0  0  0
  -30.8660  -19.5240   24.1200 H   0  0  0  0  0  0  0  0  0  0  0  0
  -29.7330  -21.3440   20.3560 C   0  0  0  0  0  2  0  0  0  0  0  0
  -28.7130  -22.4840   20.2940 N   0  0  0  0  0  4  0  0  0  0  0  0
  -28.0180  -22.3060   21.0040 H   0  0  0  0  0  0  0  0  0  0  0  0
  -28.2390  -22.4120   19.4080 H   0  0  0  0  0  0  0  0  0  0  0  0
  -29.1760  -23.9420   20.4550 C   0  0  0  0  0  3  0  0  0  0  0  0
  -28.0810  -25.0790   20.1500 C   0  0  0  0  0  3  0  0  0  0  0  0
  -28.2900  -26.5280   20.4580 O   0  0  0  0  0  0  0  0  0  0  0  0
  -24.4800  -31.9560   23.3600 C   0  0  0  0  0  0  0  0  0  0  0  0
  -27.1790  -27.3940   20.3630 C   0  0  0  0  0  0  0  0  0  0  0  0
  -23.3210  -30.5570   21.6890 C   0  0  0  0  0  3  0  0  0  0  0  0
  -24.8100  -29.0150   20.2950 C   0  0  0  0  0  0  0  0  0  0  0  0
  -25.8670  -30.8740   21.5740 C   0  0  0  0  0  2  0  0  0  0  0  0
  -25.9660  -29.5000   20.9200 C   0  0  0  0  0  0  0  0  0  0  0  0
  -27.1530  -28.7040   20.9410 C   0  0  0  0  0  3  0  0  0  0  0  0
  -25.9990  -26.9720   19.7040 C   0  0  0  0  0  3  0  0  0  0  0  0
  -24.8320  -27.7570   19.6740 C   0  0  0  0  0  3  0  0  0  0  0  0
  -23.5690  -29.8830   20.3150 C   0  0  0  0  0  2  0  0  0  0  0  0
  -24.5720  -31.1480   22.2620 N   0  0  0  0  0  0  0  0  0  0  0  0
  -23.3820  -32.2320   23.8660 O   0  0  0  0  0  0  0  0  0  0  0  0
  -22.6340  -29.5400   22.6320 C   0  0  0  0  0  0  0  0  0  0  0  0
  -21.3170  -29.3430   22.4550 N   0  0  0  0  0  0  0  0  0  0  0  0
  -23.2890  -28.9270   23.4800 O   0  0  0  0  0  0  0  0  0  0  0  0
  -20.8490  -29.8870   21.7410 H   0  0  0  0  0  0  0  0  0  0  0  0
  -17.9220  -28.1750   22.9040 C   0  0  0  0  0  0  0  0  0  0  0  0
  -20.4800  -28.4030   23.2010 C   0  0  0  0  0  3  0  0  0  0  0  0
  -20.5740  -26.9810   22.6010 C   0  0  0  0  0  2  0  0  0  0  0  0
  -19.4770  -26.6890   21.5710 C   0  0  0  0  0  2  0  0  0  0  0  0
  -18.0910  -26.8360   22.2050 C   0  0  0  0  0  2  0  0  0  0  0  0
  -19.0450  -28.9180   23.3570 C   0  0  0  0  0  0  0  0  0  0  0  0
  -18.8320  -30.1710   23.9700 C   0  0  0  0  0  3  0  0  0  0  0  0
  -17.5320  -30.6810   24.1390 C   0  0  0  0  0  3  0  0  0  0  0  0
  -16.4230  -29.9350   23.7020 C   0  0  0  0  0  3  0  0  0  0  0  0
  -16.6190  -28.6840   23.0890 C   0  0  0  0  0  3  0  0  0  0  0  0
  -25.7450  -32.5890   24.0160 C   0  0  0  0  0  3  0  0  0  0  0  0
  -25.4500  -34.0060   24.2710 N   0  0  0  0  0  0  0  0  0  0  0  0
  -25.7540  -35.0100   23.4370 C   0  0  0  0  0  0  0  0  0  0  0  0
  -26.3800  -34.8410   22.3870 O   0  0  0  0  0  0  0  0  0  0  0  0
  -24.8860  -34.2130   25.0830 H   0  0  0  0  0  0  0  0  0  0  0  0
  -23.9770  -36.7610   23.1020 C   0  0  0  0  0  1  0  0  0  0  0  0
  -25.2900  -36.4270   23.8290 C   0  0  0  0  0  3  0  0  0  0  0  0
  -27.4570  -37.4110   24.4330 C   0  0  0  0  0  1  0  0  0  0  0  0
  -26.2960  -37.4750   23.5480 N   0  0  0  0  0  0  0  0  0  0  0  0
  -25.8850  -38.4000   23.6330 H   0  0  0  0  0  0  0  0  0  0  0  0
  -26.1820  -31.8650   25.3490 C   0  0  1  0  0  0  0  0  0  0  0  0
  -25.0240  -31.6640   26.3540 C   0  0  0  0  0  1  0  0  0  0  0  0
  -26.7890  -30.4740   25.0480 C   0  0  0  0  0  1  0  0  0  0  0  0
  -27.2890  -32.6850   26.0510 C   0  0  0  0  0  1  0  0  0  0  0  0
  -29.3970  -17.0450   20.1720 C   0  0  0  0  0  2  0  0  0  0  0  0
  -30.6490  -14.7610   19.9480 C   0  0  0  0  0  0  0  0  0  0  0  0
  -30.3370  -12.5280   18.8820 C   0  0  0  0  0  2  0  0  0  0  0  0
  -29.3260  -12.7000   17.7250 C   0  0  0  0  0  2  0  0  0  0  0  0
  -27.8810  -12.5460   18.2400 C   0  0  0  0  0  2  0  0  0  0  0  0
  -27.6160  -13.3780   19.5250 C   0  0  0  0  0  3  0  0  0  0  0  0
  -28.7470  -13.2070   20.5690 C   0  0  0  0  0  2  0  0  0  0  0  0
  -30.0280  -13.5360   19.9200 N   0  0  0  0  0  0  0  0  0  0  0  0
  -31.6800  -14.9730   19.3040 O   0  0  0  0  0  0  0  0  0  0  0  0
  -30.0300  -15.7580   20.6500 N   0  0  0  0  0  0  0  0  0  0  0  0
  -29.4710  -15.3450   21.3840 H   0  0  0  0  0  0  0  0  0  0  0  0
  -25.2820  -13.9660   20.4320 C   0  0  0  0  0  0  0  0  0  0  0  0
  -24.2340  -13.1880   20.8420 C   0  0  0  0  0  0  0  0  0  0  0  0
  -24.6720  -11.8330   20.7150 C   0  0  0  0  0  0  0  0  0  0  0  0
  -26.2980  -13.0860   20.0880 N   0  0  0  0  0  0  0  0  0  0  0  0
  -25.9380  -11.7960   20.3130 N   0  0  0  0  0  0  0  0  0  0  0  0
  -23.9390  -10.5750   20.9020 C   0  0  0  0  0  0  0  0  0  0  0  0
  -24.3440   -9.6200   21.8610 C   0  0  0  0  0  3  0  0  0  0  0  0
  -23.6110   -8.4260   22.0370 C   0  0  0  0  0  3  0  0  0  0  0  0
  -22.4590   -8.1760   21.2560 C   0  0  0  0  0  0  0  0  0  0  0  0
  -22.0710   -9.1220   20.2890 C   0  0  0  0  0  3  0  0  0  0  0  0
  -22.8050  -10.3070   20.1100 C   0  0  0  0  0  3  0  0  0  0  0  0
  -21.7010   -7.0320   21.3380 O   0  0  0  0  0  0  0  0  0  0  0  0
  -21.5350   -6.3650   22.5260 C   0  0  0  0  0  0  0  0  0  0  0  0
  -20.8240   -6.9330   23.6060 C   0  0  0  0  0  3  0  0  0  0  0  0
  -20.6130   -6.1860   24.7820 C   0  0  0  0  0  3  0  0  0  0  0  0
  -21.1070   -4.8700   24.8780 C   0  0  0  0  0  0  0  0  0  0  0  0
  -21.8110   -4.3010   23.8010 C   0  0  0  0  0  3  0  0  0  0  0  0
  -22.0230   -5.0470   22.6280 C   0  0  0  0  0  0  0  0  0  0  0  0
  -22.6820   -4.4870   21.5850 F   0  0  0  0  0  0  0  0  0  0  0  0
  -20.9010   -4.1480   26.0040 F   0  0  0  0  0  0  0  0  0  0  0  0
  -22.8680  -13.6690   21.2390 C   0  0  0  0  0  0  0  0  0  0  0  0
  -22.2020  -12.9490   22.1340 N   0  0  0  0  0  0  0  0  0  0  0  0
  -22.4050  -14.7180   20.7920 O   0  0  0  0  0  0  0  0  0  0  0  0
  -22.5950  -12.1000   22.5140 H   0  0  0  0  0  0  0  0  0  0  0  0
  -21.2880  -13.2470   22.4430 H   0  0  0  0  0  0  0  0  0  0  0  0
  -25.4470  -15.3420   20.3030 N   0  0  0  0  0  0  0  0  0  0  0  0
  -24.6850  -15.9860   20.4870 H   0  0  0  0  0  0  0  0  0  0  0  0
  -26.2760  -15.7990   19.9450 H   0  0  0  0  0  0  0  0  0  0  0  0
  1  3  1  0
  2  1  1  0
  2  4  1  0
  3 11  1  0
  4  3  1  0
  4 58  1  6
  4  5  1  0
  5  6  1  0
  6  8  2  0
  6  7  1  0
  7 10  1  0
  9  7  1  0
 12 11  1  0
 12 15  1  0
 12 13  1  0
 14 12  1  0
 16 15  2  0
 16 17  1  0
 18 29  2  0
 19 17  1  0
 19 24  1  0
 20 28  1  0
 20 30  1  0
 21 27  1  0
 21 23  1  0
 22 28  1  0
 23 24  2  0
 23 22  1  0
 25 19  2  0
 26 25  1  0
 26 21  2  0
 27 20  1  0
 28 18  1  0
 30 32  2  0
 31 30  1  0
 33 31  1  0
 34 43  2  0
 34 39  1  0
 35 31  1  0
 35 39  1  0
 36 35  1  0
 37 38  1  0
 37 36  1  0
 38 34  1  0
 39 40  2  0
 40 41  1  0
 42 41  2  0
 43 42  1  0
 44 18  1  0
 44 45  1  0
 44 54  1  0
 45 48  1  0
 46 50  1  0
 46 45  1  0
 47 46  2  0
 50 49  1  0
 52 53  1  0
 52 50  1  0
 52 51  1  0
 54 57  1  1
 54 55  1  0
 56 54  1  0
 58 67  1  0
 59 67  1  0
 60 65  1  0
 61 62  1  0
 61 60  1  0
 63 62  1  0
 63 72  1  0
 63 64  1  0
 65 59  1  0
 65 64  1  0
 66 59  2  0
 67 68  1  0
 69 70  2  0
 70 89  1  0
 71 70  1  0
 71 74  1  0
 72 73  1  0
 72 69  1  0
 73 71  2  0
 74 75  1  0
 75 76  2  0
 77 80  1  0
 77 76  1  0
 78 77  2  0
 79 78  1  0
 79 74  2  0
 80 81  1  0
 81 86  2  0
 81 82  1  0
 82 83  2  0
 83 84  1  0
 84 88  1  0
 85 84  2  0
 86 85  1  0
 87 86  1  0
 89 90  1  0
 90 93  1  0
 90 92  1  0
 91 89  2  0
 94 69  1  0
 94 95  1  0
 96 94  1  0
M  ISO  4  16 101  17 101  59 100  67 100
M  END
>  <TORSDO>  (74) 
F 23

>  <SCORE>  (74) 
-12.249

>  <name>  (74) 
73

>  <ligand_id>  (74) 
73

>  <original_smiles>  (74) 
[H]c1c([H])c([H])c2c(c1[H])C([H])([H])C([H])([H])C([H])([H])C2([H])N([H])C(=O)C1([H])N(C(=O)C([H])(N([H])C(=O)C([H])(N([H])C([H])([H])[H])C([H])([H])[H])C(C([H])([H])[H])(C([H])([H])[H])C([H])([H])[H])C([H])([H])c2c([H])c(OC([H])([H])C([H])([H])[N+]([H])([H])C([H])([H])C3([H])C([H])([H])C([H])([H])C3(C([H])([H])C(=O)N([H])[H])C([H])([H])N([H])C(=O)N3C([H])([H])C([H])([H])C([H])([H])C([H])(n4nc(-c5c([H])c([H])c(Oc6c([H])c([H])c(F)c([H])c6F)c([H])c5[H])c(C(=O)N([H])[H])c4N([H])[H])C3([H])[H])c([H])c([H])c2C1([H])[H]

>  <smiles>  (74) 
[H]c1c([H])c([H])c2c(c1[H])C([H])([H])C([H])([H])C([H])([H])C2([H])N([H])C(=O)C1([H])N(C(=O)C([H])(N([H])C(=O)C([H])(N([H])C([H])([H])[H])C([H])([H])[H])C(C([H])([H])[H])(C([H])([H])[H])C([H])([H])[H])C([H])([H])c2c([H])c(OC([H])([H])C([H])([H])[N+]([H])([H])C([H])([H])C3([H])C([H])([H])C([H])([H])C3(C([H])([H])C(=O)N([H])[H])C([H])([H])N([H])C(=O)N3C([H])([H])C([H])([H])C([H])([H])C([H])(n4nc(-c5c([H])c([H])c(Oc6c([H])c([H])c(F)c([H])c6F)c([H])c5[H])c(C(=O)N([H])[H])c4N([H])[H])C3([H])[H])c([H])c([H])c2C1([H])[H]

$$$$
74:0:0
     RDKit          3D

 92100  0  0  1  0  0  0  0  0999 V2000
  -31.2200  -21.4510   18.8030 C   0  0  0  0  0  2  0  0  0  0  0  0
  -30.6370  -22.6830   19.5150 C   0  0  0  0  0  2  0  0  0  0  0  0
  -31.0220  -20.1480   19.6060 C   0  0  0  0  0  2  0  0  0  0  0  0
  -28.9030  -21.1600   20.5890 C   0  0  0  0  0  2  0  0  0  0  0  0
  -29.1260  -22.5410   19.8000 C   0  0  0  0  0  3  0  0  0  0  0  0
  -29.5460  -19.8440   19.9360 C   0  0  1  0  0  0  0  0  0  0  0  0
  -28.5600  -23.8930   20.4180 C   0  0  0  0  0  0  0  0  0  0  0  0
  -28.1620  -23.9160   21.5860 O   0  0  0  0  0  0  0  0  0  0  0  0
  -28.5000  -25.2070   19.5280 C   0  0  0  0  0  2  0  0  0  0  0  0
  -28.3710  -26.5070   20.2310 O   0  0  0  0  0  0  0  0  0  0  0  0
  -24.6200  -31.8690   23.2340 C   0  0  0  0  0  0  0  0  0  0  0  0
  -27.2230  -27.3110   20.1630 C   0  0  0  0  0  0  0  0  0  0  0  0
  -23.4060  -30.4650   21.6040 C   0  0  0  0  0  3  0  0  0  0  0  0
  -24.8480  -28.9120   20.1710 C   0  0  0  0  0  0  0  0  0  0  0  0
  -25.9420  -30.7870   21.4030 C   0  0  0  0  0  2  0  0  0  0  0  0
  -26.0170  -29.4060   20.7600 C   0  0  0  0  0  0  0  0  0  0  0  0
  -27.2030  -28.6150   20.7490 C   0  0  0  0  0  3  0  0  0  0  0  0
  -26.0260  -26.8620   19.5610 C   0  0  0  0  0  3  0  0  0  0  0  0
  -24.8550  -27.6450   19.5650 C   0  0  0  0  0  3  0  0  0  0  0  0
  -23.6110  -29.7830   20.2240 C   0  0  0  0  0  2  0  0  0  0  0  0
  -24.6750  -31.0580   22.1370 N   0  0  0  0  0  0  0  0  0  0  0  0
  -23.5390  -32.1470   23.7750 O   0  0  0  0  0  0  0  0  0  0  0  0
  -22.7510  -29.4510   22.5720 C   0  0  0  0  0  0  0  0  0  0  0  0
  -21.4240  -29.2740   22.4550 N   0  0  0  0  0  0  0  0  0  0  0  0
  -23.4350  -28.8270   23.3880 O   0  0  0  0  0  0  0  0  0  0  0  0
  -20.9320  -29.8310   21.7680 H   0  0  0  0  0  0  0  0  0  0  0  0
  -18.0490  -28.0780   22.9710 C   0  0  0  0  0  0  0  0  0  0  0  0
  -20.6080  -28.3400   23.2320 C   0  0  0  0  0  3  0  0  0  0  0  0
  -20.7090  -26.9060   22.6640 C   0  0  0  0  0  2  0  0  0  0  0  0
  -19.6050  -26.5780   21.6540 C   0  0  0  0  0  2  0  0  0  0  0  0
  -18.2250  -26.7250   22.3020 C   0  0  0  0  0  2  0  0  0  0  0  0
  -19.1690  -28.8430   23.3930 C   0  0  0  0  0  0  0  0  0  0  0  0
  -18.9500  -30.1090   23.9790 C   0  0  0  0  0  3  0  0  0  0  0  0
  -17.6460  -30.6110   24.1460 C   0  0  0  0  0  3  0  0  0  0  0  0
  -16.5410  -29.8430   23.7380 C   0  0  0  0  0  3  0  0  0  0  0  0
  -16.7440  -28.5780   23.1570 C   0  0  0  0  0  3  0  0  0  0  0  0
  -25.9070  -32.5020   23.8470 C   0  0  0  0  0  3  0  0  0  0  0  0
  -25.5960  -33.8990   24.1840 N   0  0  0  0  0  0  0  0  0  0  0  0
  -25.9210  -34.9550   23.4270 C   0  0  0  0  0  0  0  0  0  0  0  0
  -26.5820  -34.8580   22.3900 O   0  0  0  0  0  0  0  0  0  0  0  0
  -25.0050  -34.0490   24.9890 H   0  0  0  0  0  0  0  0  0  0  0  0
  -24.1830  -36.7450   23.0990 C   0  0  0  0  0  1  0  0  0  0  0  0
  -25.4350  -36.3420   23.8930 C   0  0  0  0  0  3  0  0  0  0  0  0
  -27.5790  -37.2290   24.6990 C   0  0  0  0  0  1  0  0  0  0  0  0
  -26.4640  -37.3980   23.7720 N   0  0  0  0  0  0  0  0  0  0  0  0
  -26.0570  -38.3170   23.9290 H   0  0  0  0  0  0  0  0  0  0  0  0
  -26.4360  -31.7290   25.1170 C   0  0  1  0  0  0  0  0  0  0  0  0
  -25.3520  -31.4880   26.1950 C   0  0  0  0  0  1  0  0  0  0  0  0
  -27.0160  -30.3520   24.7180 C   0  0  0  0  0  1  0  0  0  0  0  0
  -27.5930  -32.5220   25.7690 C   0  0  0  0  0  1  0  0  0  0  0  0
  -28.8710  -19.6540   18.7080 O   0  0  0  0  0  0  0  0  0  0  0  0
  -29.0350  -20.4200   18.1720 H   0  0  0  0  0  0  0  0  0  0  0  0
  -29.4050  -18.4360   20.7090 C   0  0  0  0  0  3  0  0  0  0  0  0
  -30.1660  -17.1540   20.1130 C   0  0  0  0  0  3  0  0  0  0  0  0
  -30.6130  -14.6390   20.3900 C   0  0  0  0  0  0  0  0  0  0  0  0
  -30.3710  -12.3960   19.3580 C   0  0  0  0  0  2  0  0  0  0  0  0
  -29.4360  -12.5290   18.1370 C   0  0  0  0  0  2  0  0  0  0  0  0
  -27.9620  -12.3780   18.5640 C   0  0  0  0  0  2  0  0  0  0  0  0
  -27.6060  -13.2460   19.8010 C   0  0  0  0  0  3  0  0  0  0  0  0
  -28.6640  -13.1070   20.9210 C   0  0  0  0  0  2  0  0  0  0  0  0
  -29.9720  -13.4280   20.3370 N   0  0  0  0  0  0  0  0  0  0  0  0
  -31.7830  -14.7490   20.0160 O   0  0  0  0  0  0  0  0  0  0  0  0
  -29.8500  -15.7590   20.6140 N   0  0  0  0  0  0  0  0  0  0  0  0
  -28.9030  -15.5900   20.9190 H   0  0  0  0  0  0  0  0  0  0  0  0
  -25.2140  -13.8510   20.5110 C   0  0  0  0  0  0  0  0  0  0  0  0
  -24.1450  -13.0800   20.8810 C   0  0  0  0  0  0  0  0  0  0  0  0
  -24.6060  -11.7290   20.8610 C   0  0  0  0  0  0  0  0  0  0  0  0
  -26.2580  -12.9680   20.2850 N   0  0  0  0  0  0  0  0  0  0  0  0
  -25.8970  -11.6870   20.5560 N   0  0  0  0  0  0  0  0  0  0  0  0
  -23.8780  -10.4680   21.0550 C   0  0  0  0  0  0  0  0  0  0  0  0
  -24.3180   -9.4950   21.9790 C   0  0  0  0  0  3  0  0  0  0  0  0
  -23.5910   -8.3000   22.1620 C   0  0  0  0  0  3  0  0  0  0  0  0
  -22.4080   -8.0690   21.4220 C   0  0  0  0  0  0  0  0  0  0  0  0
  -21.9870   -9.0300   20.4840 C   0  0  0  0  0  3  0  0  0  0  0  0
  -22.7160  -10.2170   20.3010 C   0  0  0  0  0  3  0  0  0  0  0  0
  -21.6490   -6.9270   21.5150 O   0  0  0  0  0  0  0  0  0  0  0  0
  -21.6250   -6.1700   22.6580 C   0  0  0  0  0  0  0  0  0  0  0  0
  -21.2500   -6.7150   23.9060 C   0  0  0  0  0  3  0  0  0  0  0  0
  -21.1740   -5.8860   25.0420 C   0  0  0  0  0  3  0  0  0  0  0  0
  -21.4620   -4.5120   24.9310 C   0  0  0  0  0  0  0  0  0  0  0  0
  -21.8290   -3.9660   23.6890 C   0  0  0  0  0  3  0  0  0  0  0  0
  -21.9090   -4.7930   22.5550 C   0  0  0  0  0  0  0  0  0  0  0  0
  -22.2430   -4.2580   21.3560 F   0  0  0  0  0  0  0  0  0  0  0  0
  -21.3800   -3.7130   26.0220 F   0  0  0  0  0  0  0  0  0  0  0  0
  -22.7470  -13.5590   21.1450 C   0  0  0  0  0  0  0  0  0  0  0  0
  -22.0160  -12.8680   22.0130 N   0  0  0  0  0  0  0  0  0  0  0  0
  -22.3100  -14.5820   20.6160 O   0  0  0  0  0  0  0  0  0  0  0  0
  -22.3850  -12.0440   22.4640 H   0  0  0  0  0  0  0  0  0  0  0  0
  -21.0760  -13.1680   22.2310 H   0  0  0  0  0  0  0  0  0  0  0  0
  -25.3810  -15.2210   20.3270 N   0  0  0  0  0  0  0  0  0  0  0  0
  -24.6130  -15.8750   20.4370 H   0  0  0  0  0  0  0  0  0  0  0  0
  -26.2240  -15.6560   19.9750 H   0  0  0  0  0  0  0  0  0  0  0  0
  1  2  1  0
  1  3  1  0
  2  5  1  0
  3  6  1  0
  5  7  1  0
  5  4  1  0
  6  4  1  0
  6 53  1  0
  7  8  2  0
  9 10  1  0
  9  7  1  0
 11 22  2  0
 12 10  1  0
 12 17  1  0
 13 21  1  0
 13 23  1  0
 14 20  1  0
 14 16  1  0
 15 21  1  0
 16 15  1  0
 17 16  2  0
 18 19  1  0
 18 12  2  0
 19 14  2  0
 20 13  1  0
 21 11  1  0
 23 25  2  0
 24 23  1  0
 26 24  1  0
 27 36  2  0
 27 32  1  0
 28 24  1  0
 28 32  1  0
 29 28  1  0
 30 31  1  0
 30 29  1  0
 31 27  1  0
 32 33  2  0
 33 34  1  0
 35 34  2  0
 36 35  1  0
 37 11  1  0
 37 38  1  0
 37 47  1  0
 38 41  1  0
 39 43  1  0
 39 38  1  0
 40 39  2  0
 43 42  1  0
 45 43  1  0
 45 46  1  0
 45 44  1  0
 47 50  1  1
 47 48  1  0
 49 47  1  0
  6 51  1  6
 52 51  1  0
 54 63  1  0
 54 53  2  0
 55 63  1  0
 56 61  1  0
 57 58  1  0
 57 56  1  0
 59 58  1  0
 59 68  1  0
 59 60  1  0
 61 55  1  0
 61 60  1  0
 62 55  2  0
 63 64  1  0
 65 66  2  0
 66 85  1  0
 67 66  1  0
 67 70  1  0
 68 65  1  0
 68 69  1  0
 69 67  2  0
 70 71  1  0
 71 72  2  0
 73 76  1  0
 73 72  1  0
 74 73  2  0
 75 74  1  0
 75 70  2  0
 76 77  1  0
 77 78  1  0
 78 79  2  0
 80 79  1  0
 80 84  1  0
 81 80  2  0
 82 77  2  0
 82 81  1  0
 83 82  1  0
 85 86  1  0
 86 89  1  0
 86 88  1  0
 87 85  2  0
 90 91  1  0
 90 65  1  0
 92 90  1  0
M  ISO  4   9 101  10 101  55 100  63 100
M  END
>  <TORSDO>  (75) 
F 21

>  <SCORE>  (75) 
-13.637

>  <name>  (75) 
74

>  <ligand_id>  (75) 
74

>  <original_smiles>  (75) 
[H]OC1(C([H])([H])C([H])([H])N([H])C(=O)N2C([H])([H])C([H])([H])C([H])([H])C([H])(n3nc(-c4c([H])c([H])c(Oc5c([H])c([H])c(F)c([H])c5F)c([H])c4[H])c(C(=O)N([H])[H])c3N([H])[H])C2([H])[H])C([H])([H])C([H])([H])C([H])([H])C([H])(C(=O)C([H])([H])Oc2c([H])c([H])c3c(c2[H])C([H])([H])N(C(=O)C([H])(N([H])C(=O)C([H])(N([H])C([H])([H])[H])C([H])([H])[H])C(C([H])([H])[H])(C([H])([H])[H])C([H])([H])[H])C([H])(C(=O)N([H])C2([H])c4c([H])c([H])c([H])c([H])c4C([H])([H])C([H])([H])C2([H])[H])C3([H])[H])C1([H])[H]

>  <smiles>  (75) 
[H]OC1(C([H])([H])C([H])([H])N([H])C(=O)N2C([H])([H])C([H])([H])C([H])([H])C([H])(n3nc(-c4c([H])c([H])c(Oc5c([H])c([H])c(F)c([H])c5F)c([H])c4[H])c(C(=O)N([H])[H])c3N([H])[H])C2([H])[H])C([H])([H])C([H])([H])C([H])([H])C([H])(C(=O)C([H])([H])Oc2c([H])c([H])c3c(c2[H])C([H])([H])N(C(=O)C([H])(N([H])C(=O)C([H])(N([H])C([H])([H])[H])C([H])([H])[H])C(C([H])([H])[H])(C([H])([H])[H])C([H])([H])[H])C([H])(C(=O)N([H])C2([H])c4c([H])c([H])c([H])c([H])c4C([H])([H])C([H])([H])C2([H])[H])C3([H])[H])C1([H])[H]

$$$$
75:0:0
     RDKit          3D

 97105  0  0  1  0  0  0  0  0999 V2000
  -30.3050  -18.2680   22.5460 C   0  0  0  0  0  3  0  0  0  0  0  0
  -31.6320  -18.6630   20.5670 C   0  0  0  0  0  3  0  0  0  0  0  0
  -30.6510  -17.8940   21.2280 C   0  0  0  0  0  0  0  0  0  0  0  0
  -30.7040  -19.5210   23.0720 C   0  0  0  0  0  0  0  0  0  0  0  0
  -32.0360  -19.9150   21.0700 C   0  0  0  0  0  0  0  0  0  0  0  0
  -31.4690  -20.4140   22.2720 C   0  0  0  0  0  0  0  0  0  0  0  0
  -30.2450  -19.9040   24.4680 C   0  0  0  0  0  1  0  0  0  0  0  0
  -33.0170  -20.7140   20.2270 C   0  0  0  0  0  1  0  0  0  0  0  0
  -30.0340  -16.9120   18.9240 C   0  0  0  0  0  1  0  0  0  0  0  0
  -28.3340  -17.2340   20.6570 C   0  0  0  0  0  1  0  0  0  0  0  0
  -29.8160  -16.8440   20.4630 C   0  0  2  0  0  0  0  0  0  0  0  0
  -30.7340  -14.4750   20.5300 C   0  0  0  0  0  0  0  0  0  0  0  0
  -30.4630  -12.3260   19.3600 C   0  0  0  0  0  2  0  0  0  0  0  0
  -29.5290  -12.5730   18.1540 C   0  0  0  0  0  2  0  0  0  0  0  0
  -28.0500  -12.4300   18.5700 C   0  0  0  0  0  2  0  0  0  0  0  0
  -27.7060  -13.2450   19.8440 C   0  0  0  0  0  3  0  0  0  0  0  0
  -28.7520  -12.9790   20.9550 C   0  0  0  0  0  2  0  0  0  0  0  0
  -30.0890  -13.2840   20.4120 N   0  0  0  0  0  0  0  0  0  0  0  0
  -31.8600  -14.6830   20.0700 O   0  0  0  0  0  0  0  0  0  0  0  0
  -29.9370  -15.4660   20.9680 N   0  0  0  0  0  0  0  0  0  0  0  0
  -29.0980  -15.1180   21.4020 H   0  0  0  0  0  0  0  0  0  0  0  0
  -25.2940  -13.8590   20.5170 C   0  0  0  0  0  0  0  0  0  0  0  0
  -24.2230  -13.0890   20.8820 C   0  0  0  0  0  0  0  0  0  0  0  0
  -24.6860  -11.7390   20.8630 C   0  0  0  0  0  0  0  0  0  0  0  0
  -26.3450  -12.9790   20.3050 N   0  0  0  0  0  0  0  0  0  0  0  0
  -25.9790  -11.6980   20.5660 N   0  0  0  0  0  0  0  0  0  0  0  0
  -23.9600  -10.4780   21.0550 C   0  0  0  0  0  0  0  0  0  0  0  0
  -24.3820   -9.5210   22.0030 C   0  0  0  0  0  3  0  0  0  0  0  0
  -23.6580   -8.3230   22.1820 C   0  0  0  0  0  3  0  0  0  0  0  0
  -22.4970   -8.0750   21.4110 C   0  0  0  0  0  0  0  0  0  0  0  0
  -22.0940   -9.0220   20.4520 C   0  0  0  0  0  3  0  0  0  0  0  0
  -22.8190  -10.2110   20.2720 C   0  0  0  0  0  3  0  0  0  0  0  0
  -21.7460   -6.9280   21.4970 O   0  0  0  0  0  0  0  0  0  0  0  0
  -21.6740   -6.2010   22.6580 C   0  0  0  0  0  0  0  0  0  0  0  0
  -21.2070   -6.7680   23.8650 C   0  0  0  0  0  3  0  0  0  0  0  0
  -21.0830   -5.9660   25.0170 C   0  0  0  0  0  3  0  0  0  0  0  0
  -21.4160   -4.5990   24.9640 C   0  0  0  0  0  0  0  0  0  0  0  0
  -21.8750   -4.0320   23.7620 C   0  0  0  0  0  3  0  0  0  0  0  0
  -22.0010   -4.8310   22.6130 C   0  0  0  0  0  0  0  0  0  0  0  0
  -22.4240   -4.2750   21.4510 F   0  0  0  0  0  0  0  0  0  0  0  0
  -21.2890   -3.8270   26.0680 F   0  0  0  0  0  0  0  0  0  0  0  0
  -22.8230  -13.5690   21.1420 C   0  0  0  0  0  0  0  0  0  0  0  0
  -22.0880  -12.8770   22.0040 N   0  0  0  0  0  0  0  0  0  0  0  0
  -22.3900  -14.5930   20.6160 O   0  0  0  0  0  0  0  0  0  0  0  0
  -22.4500  -12.0470   22.4510 H   0  0  0  0  0  0  0  0  0  0  0  0
  -21.1510  -13.1830   22.2220 H   0  0  0  0  0  0  0  0  0  0  0  0
  -25.4500  -15.2280   20.3330 N   0  0  0  0  0  0  0  0  0  0  0  0
  -24.6740  -15.8750   20.4260 H   0  0  0  0  0  0  0  0  0  0  0  0
  -26.2990  -15.6730   20.0080 H   0  0  0  0  0  0  0  0  0  0  0  0
  -31.5760  -21.9090   22.6280 C   0  0  0  0  0  2  0  0  0  0  0  0
  -30.5760  -22.7620   21.7960 C   0  0  0  0  0  2  0  0  0  0  0  0
  -30.5730  -24.2000   22.1650 N   0  0  0  0  0  4  0  0  0  0  0  0
  -29.6200  -24.0520   21.8790 H   0  0  0  0  0  0  0  0  0  0  0  0
  -31.4540  -24.1740   21.6730 H   0  0  0  0  0  0  0  0  0  0  0  0
  -30.3570  -25.3380   21.2320 C   0  0  0  0  0  2  0  0  0  0  0  0
  -28.8710  -25.7450   21.0880 C   0  0  0  0  0  2  0  0  0  0  0  0
  -28.7560  -26.8120   20.1420 O   0  0  0  0  0  0  0  0  0  0  0  0
  -24.6470  -31.7720   23.1450 C   0  0  0  0  0  0  0  0  0  0  0  0
  -27.5460  -27.4630   20.1400 C   0  0  0  0  0  0  0  0  0  0  0  0
  -23.5370  -30.3460   21.4530 C   0  0  0  0  0  3  0  0  0  0  0  0
  -25.0890  -28.8580   20.0740 C   0  0  0  0  0  0  0  0  0  0  0  0
  -26.0470  -30.7990   21.3290 C   0  0  0  0  0  2  0  0  0  0  0  0
  -26.2050  -29.4330   20.6980 C   0  0  0  0  0  0  0  0  0  0  0  0
  -27.4350  -28.7450   20.7250 C   0  0  0  0  0  3  0  0  0  0  0  0
  -26.4200  -26.8950   19.5110 C   0  0  0  0  0  3  0  0  0  0  0  0
  -25.1900  -27.5850   19.4800 C   0  0  0  0  0  3  0  0  0  0  0  0
  -23.8120  -29.6720   20.0790 C   0  0  0  0  0  2  0  0  0  0  0  0
  -24.7610  -30.9840   22.0390 N   0  0  0  0  0  0  0  0  0  0  0  0
  -23.5420  -32.0110   23.6520 O   0  0  0  0  0  0  0  0  0  0  0  0
  -22.8820  -29.3020   22.3870 C   0  0  0  0  0  0  0  0  0  0  0  0
  -21.5610  -29.1140   22.2390 N   0  0  0  0  0  0  0  0  0  0  0  0
  -23.5630  -28.6640   23.1960 O   0  0  0  0  0  0  0  0  0  0  0  0
  -21.0750  -29.6790   21.5570 H   0  0  0  0  0  0  0  0  0  0  0  0
  -18.1850  -27.9180   22.6970 C   0  0  0  0  0  0  0  0  0  0  0  0
  -20.7430  -28.1530   22.9800 C   0  0  0  0  0  3  0  0  0  0  0  0
  -20.8390  -26.7420   22.3550 C   0  0  0  0  0  2  0  0  0  0  0  0
  -19.7350  -26.4600   21.3290 C   0  0  0  0  0  2  0  0  0  0  0  0
  -18.3540  -26.5910   21.9780 C   0  0  0  0  0  2  0  0  0  0  0  0
  -19.3060  -28.6590   23.1540 C   0  0  0  0  0  0  0  0  0  0  0  0
  -19.0940  -29.9050   23.7830 C   0  0  0  0  0  3  0  0  0  0  0  0
  -17.7910  -30.4090   23.9620 C   0  0  0  0  0  3  0  0  0  0  0  0
  -16.6840  -29.6630   23.5220 C   0  0  0  0  0  3  0  0  0  0  0  0
  -16.8800  -28.4210   22.8960 C   0  0  0  0  0  3  0  0  0  0  0  0
  -25.8930  -32.4320   23.8120 C   0  0  0  0  0  3  0  0  0  0  0  0
  -25.5350  -33.8150   24.1510 N   0  0  0  0  0  0  0  0  0  0  0  0
  -25.8630  -34.8860   23.4140 C   0  0  0  0  0  0  0  0  0  0  0  0
  -26.5680  -34.8150   22.4040 O   0  0  0  0  0  0  0  0  0  0  0  0
  -24.9050  -33.9450   24.9290 H   0  0  0  0  0  0  0  0  0  0  0  0
  -24.0890  -36.6230   23.0340 C   0  0  0  0  0  1  0  0  0  0  0  0
  -25.3230  -36.2540   23.8730 C   0  0  0  0  0  3  0  0  0  0  0  0
  -27.4060  -37.1910   24.7680 C   0  0  0  0  0  1  0  0  0  0  0  0
  -26.3260  -37.3390   23.7960 N   0  0  0  0  0  0  0  0  0  0  0  0
  -25.8890  -38.2450   23.9420 H   0  0  0  0  0  0  0  0  0  0  0  0
  -26.3990  -31.6560   25.0880 C   0  0  1  0  0  0  0  0  0  0  0  0
  -25.2840  -31.3670   26.1200 C   0  0  0  0  0  1  0  0  0  0  0  0
  -27.0360  -30.3060   24.6850 C   0  0  0  0  0  1  0  0  0  0  0  0
  -27.5090  -32.4740   25.7930 C   0  0  0  0  0  1  0  0  0  0  0  0
  1  4  1  0
  2  5  2  0
  2  3  1  0
  3  1  2  0
  4  7  1  0
  5  6  1  0
  6 50  1  0
  6  4  2  0
  8  5  1  0
 11  9  1  6
 11 10  1  0
 11 20  1  0
 11  3  1  0
 12 20  1  0
 13 18  1  0
 14 15  1  0
 14 13  1  0
 16 15  1  0
 16 25  1  0
 16 17  1  0
 18 12  1  0
 18 17  1  0
 19 12  2  0
 20 21  1  0
 22 23  2  0
 23 42  1  0
 24 23  1  0
 24 27  1  0
 25 22  1  0
 25 26  1  0
 26 24  2  0
 27 28  1  0
 28 29  2  0
 30 33  1  0
 30 29  1  0
 31 30  2  0
 32 31  1  0
 32 27  2  0
 33 34  1  0
 34 35  1  0
 35 36  2  0
 37 36  1  0
 37 41  1  0
 38 37  2  0
 39 34  2  0
 39 38  1  0
 40 39  1  0
 42 43  1  0
 43 46  1  0
 43 45  1  0
 44 42  2  0
 47 48  1  0
 47 22  1  0
 49 47  1  0
 51 52  1  0
 51 50  1  0
 53 52  1  0
 54 52  1  0
 55 52  1  0
 56 55  1  0
 57 56  1  0
 58 69  2  0
 59 57  1  0
 59 64  1  0
 60 68  1  0
 60 70  1  0
 61 67  1  0
 61 63  1  0
 62 68  1  0
 63 64  2  0
 63 62  1  0
 65 59  2  0
 66 65  1  0
 66 61  2  0
 67 60  1  0
 68 58  1  0
 70 72  2  0
 71 70  1  0
 73 71  1  0
 74 83  2  0
 74 79  1  0
 75 71  1  0
 75 79  1  0
 76 75  1  0
 77 78  1  0
 77 76  1  0
 78 74  1  0
 79 80  2  0
 80 81  1  0
 82 81  2  0
 83 82  1  0
 84 58  1  0
 84 85  1  0
 84 94  1  0
 85 88  1  0
 86 90  1  0
 86 85  1  0
 87 86  2  0
 90 89  1  0
 92 90  1  0
 92 93  1  0
 92 91  1  0
 94 97  1  1
 94 95  1  0
 96 94  1  0
M  ISO  4  12 100  20 100  56 101  57 101
M  END
>  <TORSDO>  (76) 
F 22

>  <SCORE>  (76) 
-12.289

>  <name>  (76) 
75

>  <ligand_id>  (76) 
75

>  <original_smiles>  (76) 
[H]c1c([H])c([H])c2c(c1[H])C([H])([H])C([H])([H])C([H])([H])C2([H])N([H])C(=O)C1([H])N(C(=O)C([H])(N([H])C(=O)C([H])(N([H])C([H])([H])[H])C([H])([H])[H])C(C([H])([H])[H])(C([H])([H])[H])C([H])([H])[H])C([H])([H])c2c([H])c(OC([H])([H])C([H])([H])[N+]([H])([H])C([H])([H])C([H])([H])c3c(C([H])([H])[H])c([H])c(C(N([H])C(=O)N4C([H])([H])C([H])([H])C([H])([H])C([H])(n5nc(-c6c([H])c([H])c(Oc7c([H])c([H])c(F)c([H])c7F)c([H])c6[H])c(C(=O)N([H])[H])c5N([H])[H])C4([H])[H])(C([H])([H])[H])C([H])([H])[H])c([H])c3C([H])([H])[H])c([H])c([H])c2C1([H])[H]

>  <smiles>  (76) 
[H]c1c([H])c([H])c2c(c1[H])C([H])([H])C([H])([H])C([H])([H])C2([H])N([H])C(=O)C1([H])N(C(=O)C([H])(N([H])C(=O)C([H])(N([H])C([H])([H])[H])C([H])([H])[H])C(C([H])([H])[H])(C([H])([H])[H])C([H])([H])[H])C([H])([H])c2c([H])c(OC([H])([H])C([H])([H])[N+]([H])([H])C([H])([H])C([H])([H])c3c(C([H])([H])[H])c([H])c(C(N([H])C(=O)N4C([H])([H])C([H])([H])C([H])([H])C([H])(n5nc(-c6c([H])c([H])c(Oc7c([H])c([H])c(F)c([H])c7F)c([H])c6[H])c(C(=O)N([H])[H])c5N([H])[H])C4([H])[H])(C([H])([H])[H])C([H])([H])[H])c([H])c3C([H])([H])[H])c([H])c([H])c2C1([H])[H]

$$$$
76:0:0
     RDKit          3D

 95103  0  0  1  0  0  0  0  0999 V2000
  -29.7670  -22.2900   20.6530 C   0  0  0  0  0  3  0  0  0  0  0  0
  -27.7850  -21.5910   19.7320 C   0  0  0  0  0  3  0  0  0  0  0  0
  -28.5070  -22.7900   20.1420 C   0  0  0  0  0  0  0  0  0  0  0  0
  -30.2180  -20.8670   20.7040 C   0  0  0  0  0  0  0  0  0  0  0  0
  -28.2110  -20.1700   19.7690 C   0  0  0  0  0  0  0  0  0  0  0  0
  -29.4880  -19.6690   20.2490 C   0  0  0  0  0  0  0  0  0  0  0  0
  -31.6100  -20.6590   21.2750 C   0  0  0  0  0  1  0  0  0  0  0  0
  -27.2390  -19.1490   19.2070 C   0  0  0  0  0  1  0  0  0  0  0  0
  -27.8070  -24.3710   19.9710 C   0  0  0  0  0  2  0  0  0  0  0  0
  -28.2010  -25.9220   20.2430 O   0  0  0  0  0  0  0  0  0  0  0  0
  -24.6250  -31.8520   23.1920 C   0  0  0  0  0  0  0  0  0  0  0  0
  -27.2100  -27.0250   20.1650 C   0  0  0  0  0  0  0  0  0  0  0  0
  -23.4460  -30.4650   21.5380 C   0  0  0  0  0  3  0  0  0  0  0  0
  -24.9090  -28.8820   20.1150 C   0  0  0  0  0  0  0  0  0  0  0  0
  -26.0120  -30.6890   21.4130 C   0  0  0  0  0  2  0  0  0  0  0  0
  -26.0900  -29.2870   20.7490 C   0  0  0  0  0  0  0  0  0  0  0  0
  -27.2370  -28.3780   20.7540 C   0  0  0  0  0  3  0  0  0  0  0  0
  -25.9990  -26.7710   19.4780 C   0  0  0  0  0  3  0  0  0  0  0  0
  -24.8860  -27.6430   19.4610 C   0  0  0  0  0  3  0  0  0  0  0  0
  -23.6860  -29.7960   20.1580 C   0  0  0  0  0  2  0  0  0  0  0  0
  -24.7150  -31.0270   22.1010 N   0  0  0  0  0  0  0  0  0  0  0  0
  -23.5310  -32.1380   23.7050 O   0  0  0  0  0  0  0  0  0  0  0  0
  -22.7470  -29.4590   22.4890 C   0  0  0  0  0  0  0  0  0  0  0  0
  -21.4180  -29.2950   22.3530 N   0  0  0  0  0  0  0  0  0  0  0  0
  -23.4070  -28.8280   23.3190 O   0  0  0  0  0  0  0  0  0  0  0  0
  -20.9390  -29.8540   21.6610 H   0  0  0  0  0  0  0  0  0  0  0  0
  -18.0300  -28.0930   22.8330 C   0  0  0  0  0  0  0  0  0  0  0  0
  -20.5880  -28.3540   23.1130 C   0  0  0  0  0  3  0  0  0  0  0  0
  -20.6920  -26.9260   22.5320 C   0  0  0  0  0  2  0  0  0  0  0  0
  -19.5960  -26.6100   21.5090 C   0  0  0  0  0  2  0  0  0  0  0  0
  -18.2110  -26.7490   22.1460 C   0  0  0  0  0  2  0  0  0  0  0  0
  -19.1460  -28.8530   23.2730 C   0  0  0  0  0  0  0  0  0  0  0  0
  -18.9210  -30.1080   23.8790 C   0  0  0  0  0  3  0  0  0  0  0  0
  -17.6140  -30.6050   24.0460 C   0  0  0  0  0  3  0  0  0  0  0  0
  -16.5130  -29.8410   23.6200 C   0  0  0  0  0  3  0  0  0  0  0  0
  -16.7220  -28.5880   23.0190 C   0  0  0  0  0  3  0  0  0  0  0  0
  -25.8910  -32.4920   23.8380 C   0  0  0  0  0  3  0  0  0  0  0  0
  -25.5710  -33.8890   24.1740 N   0  0  0  0  0  0  0  0  0  0  0  0
  -25.8920  -34.9530   23.4230 C   0  0  0  0  0  0  0  0  0  0  0  0
  -26.5520  -34.8590   22.3860 O   0  0  0  0  0  0  0  0  0  0  0  0
  -24.9810  -34.0340   24.9800 H   0  0  0  0  0  0  0  0  0  0  0  0
  -24.1470  -36.7420   23.1130 C   0  0  0  0  0  1  0  0  0  0  0  0
  -25.4060  -36.3380   23.8970 C   0  0  0  0  0  3  0  0  0  0  0  0
  -27.5470  -37.2380   24.6950 C   0  0  0  0  0  1  0  0  0  0  0  0
  -26.4300  -37.3970   23.7680 N   0  0  0  0  0  0  0  0  0  0  0  0
  -26.0210  -38.3160   23.9210 H   0  0  0  0  0  0  0  0  0  0  0  0
  -26.3840  -31.7210   25.1250 C   0  0  1  0  0  0  0  0  0  0  0  0
  -25.2730  -31.4870   26.1750 C   0  0  0  0  0  1  0  0  0  0  0  0
  -26.9720  -30.3410   24.7530 C   0  0  0  0  0  1  0  0  0  0  0  0
  -27.5250  -32.5160   25.8040 C   0  0  0  0  0  1  0  0  0  0  0  0
  -30.1820  -18.0820   20.0260 C   0  0  0  0  0  0  0  0  0  0  0  0
  -30.4950  -15.2370   20.2740 C   0  0  0  0  0  0  0  0  0  0  0  0
  -30.3990  -12.8250   19.3760 C   0  0  0  0  0  2  0  0  0  0  0  0
  -29.4710  -12.6840   18.1450 C   0  0  0  0  0  2  0  0  0  0  0  0
  -28.0200  -12.4320   18.5890 C   0  0  0  0  0  2  0  0  0  0  0  0
  -27.5920  -13.3760   19.7410 C   0  0  0  0  0  3  0  0  0  0  0  0
  -28.6490  -13.4850   20.8620 C   0  0  0  0  0  2  0  0  0  0  0  0
  -29.8900  -13.9570   20.2290 N   0  0  0  0  0  0  0  0  0  0  0  0
  -31.7030  -15.2190   20.0100 O   0  0  0  0  0  0  0  0  0  0  0  0
  -29.7800  -16.5210   20.3790 N   0  0  0  0  0  4  0  0  0  0  0  0
  -28.8060  -16.4040   20.6140 H   0  0  0  0  0  0  0  0  0  0  0  0
  -25.2220  -13.9320   20.5050 C   0  0  0  0  0  0  0  0  0  0  0  0
  -24.1620  -13.1540   20.8770 C   0  0  0  0  0  0  0  0  0  0  0  0
  -24.6310  -11.8040   20.8400 C   0  0  0  0  0  0  0  0  0  0  0  0
  -26.2650  -13.0600   20.2550 N   0  0  0  0  0  0  0  0  0  0  0  0
  -25.9220  -11.7720   20.5250 N   0  0  0  0  0  0  0  0  0  0  0  0
  -23.9050  -10.5400   21.0270 C   0  0  0  0  0  0  0  0  0  0  0  0
  -24.3320   -9.5720   21.9630 C   0  0  0  0  0  3  0  0  0  0  0  0
  -23.6030   -8.3760   22.1400 C   0  0  0  0  0  3  0  0  0  0  0  0
  -22.4310   -8.1400   21.3820 C   0  0  0  0  0  0  0  0  0  0  0  0
  -22.0240   -9.0970   20.4350 C   0  0  0  0  0  3  0  0  0  0  0  0
  -22.7540  -10.2830   20.2560 C   0  0  0  0  0  3  0  0  0  0  0  0
  -21.6750   -6.9960   21.4660 O   0  0  0  0  0  0  0  0  0  0  0  0
  -21.6120   -6.2600   22.6220 C   0  0  0  0  0  0  0  0  0  0  0  0
  -21.1530   -6.8160   23.8370 C   0  0  0  0  0  3  0  0  0  0  0  0
  -21.0380   -6.0060   24.9840 C   0  0  0  0  0  3  0  0  0  0  0  0
  -21.3720   -4.6400   24.9170 C   0  0  0  0  0  0  0  0  0  0  0  0
  -21.8240   -4.0830   23.7080 C   0  0  0  0  0  3  0  0  0  0  0  0
  -21.9410   -4.8900   22.5630 C   0  0  0  0  0  0  0  0  0  0  0  0
  -22.3560   -4.3440   21.3960 F   0  0  0  0  0  0  0  0  0  0  0  0
  -21.2560   -3.8590   26.0170 F   0  0  0  0  0  0  0  0  0  0  0  0
  -22.7660  -13.6290   21.1480 C   0  0  0  0  0  0  0  0  0  0  0  0
  -22.0390  -12.9350   22.0160 N   0  0  0  0  0  0  0  0  0  0  0  0
  -22.3280  -14.6540   20.6260 O   0  0  0  0  0  0  0  0  0  0  0  0
  -22.4070  -12.1060   22.4610 H   0  0  0  0  0  0  0  0  0  0  0  0
  -21.1020  -13.2370   22.2420 H   0  0  0  0  0  0  0  0  0  0  0  0
  -25.3800  -15.3040   20.3300 N   0  0  0  0  0  0  0  0  0  0  0  0
  -24.6070  -15.9500   20.4420 H   0  0  0  0  0  0  0  0  0  0  0  0
  -26.2120  -15.7420   19.9580 H   0  0  0  0  0  0  0  0  0  0  0  0
  -30.6150  -18.0530   18.5300 C   0  0  0  0  0  2  0  0  0  0  0  0
  -32.1390  -18.1280   18.2910 C   0  0  0  0  0  2  0  0  0  0  0  0
  -32.4960  -17.9950   16.8660 N   0  0  0  0  0  4  0  0  0  0  0  0
  -32.2080  -17.1040   16.5010 H   0  0  0  0  0  0  0  0  0  0  0  0
  -33.4920  -18.0630   16.7550 H   0  0  0  0  0  0  0  0  0  0  0  0
  -32.0740  -18.7220   16.3160 H   0  0  0  0  0  0  0  0  0  0  0  0
  1  4  1  0
  2  5  2  0
  2  3  1  0
  3  1  2  0
  4  7  1  0
  5  6  1  0
  6  4  2  0
  8  5  1  0
  9  3  1  0
  9 10  1  0
 11 22  2  0
 12 10  1  0
 12 17  1  0
 13 21  1  0
 13 23  1  0
 14 20  1  0
 14 16  1  0
 15 21  1  0
 16 17  2  0
 16 15  1  0
 18 12  2  0
 19 18  1  0
 19 14  2  0
 20 13  1  0
 21 11  1  0
 23 25  2  0
 24 23  1  0
 26 24  1  0
 27 36  2  0
 27 32  1  0
 28 24  1  0
 28 32  1  0
 29 28  1  0
 30 31  1  0
 30 29  1  0
 31 27  1  0
 32 33  2  0
 33 34  1  0
 35 34  2  0
 36 35  1  0
 37 11  1  0
 37 38  1  0
 37 47  1  0
 38 41  1  0
 39 43  1  0
 39 38  1  0
 40 39  2  0
 43 42  1  0
 45 43  1  0
 45 46  1  0
 45 44  1  0
 47 50  1  1
 47 48  1  0
 49 47  1  0
 51  6  1  0
 51 60  2  0
 52 60  1  0
 53 58  1  0
 54 55  1  0
 54 53  1  0
 56 55  1  0
 56 65  1  0
 56 57  1  0
 58 52  1  0
 58 57  1  0
 59 52  2  0
 60 61  1  0
 62 63  2  0
 63 82  1  0
 64 63  1  0
 64 67  1  0
 65 62  1  0
 65 66  1  0
 66 64  2  0
 67 68  1  0
 68 69  2  0
 70 73  1  0
 70 69  1  0
 71 70  2  0
 72 71  1  0
 72 67  2  0
 73 74  1  0
 74 75  1  0
 75 76  2  0
 77 76  1  0
 77 81  1  0
 78 77  2  0
 79 74  2  0
 79 78  1  0
 80 79  1  0
 82 83  1  0
 83 86  1  0
 83 85  1  0
 84 82  2  0
 87 88  1  0
 87 62  1  0
 89 87  1  0
 90 51  1  0
 91 90  1  0
 92 91  1  0
 93 92  1  0
 94 92  1  0
 95 92  1  0
M  ISO  4   9 101  10 101  52 100  60 100
M  END
>  <TORSDO>  (77) 
F 21

>  <SCORE>  (77) 
-14.889

>  <name>  (77) 
76

>  <ligand_id>  (77) 
76

>  <original_smiles>  (77) 
[H]c1c([H])c([H])c2c(c1[H])C([H])([H])C([H])([H])C([H])([H])C2([H])N([H])C(=O)C1([H])N(C(=O)C([H])(N([H])C(=O)C([H])(N([H])C([H])([H])[H])C([H])([H])[H])C(C([H])([H])[H])(C([H])([H])[H])C([H])([H])[H])C([H])([H])c2c([H])c(OC([H])([H])c3c([H])c(C([H])([H])[H])c(C([H])(N([H])C(=O)N4C([H])([H])C([H])([H])C([H])([H])C([H])(n5nc(-c6c([H])c([H])c(Oc7c([H])c([H])c(F)c([H])c7F)c([H])c6[H])c(C(=O)N([H])[H])c5N([H])[H])C4([H])[H])C([H])([H])C([H])([H])[N+]([H])([H])[H])c(C([H])([H])[H])c3[H])c([H])c([H])c2C1([H])[H]

>  <smiles>  (77) 
[H]c1c([H])c([H])c2c(c1[H])C([H])([H])C([H])([H])C([H])([H])C2([H])N([H])C(=O)C1([H])N(C(=O)C([H])(N([H])C(=O)C([H])(N([H])C([H])([H])[H])C([H])([H])[H])C(C([H])([H])[H])(C([H])([H])[H])C([H])([H])[H])C([H])([H])c2c([H])c(OC([H])([H])c3c([H])c(C([H])([H])[H])c(C([H])(N([H])C(=O)N4C([H])([H])C([H])([H])C([H])([H])C([H])(n5nc(-c6c([H])c([H])c(Oc7c([H])c([H])c(F)c([H])c7F)c([H])c6[H])c(C(=O)N([H])[H])c5N([H])[H])C4([H])[H])C([H])([H])C([H])([H])[N+]([H])([H])[H])c(C([H])([H])[H])c3[H])c([H])c([H])c2C1([H])[H]

$$$$
77:0:0
     RDKit          3D

 97105  0  0  1  0  0  0  0  0999 V2000
  -30.0690  -18.3360   20.0910 C   0  0  0  0  0  0  0  0  0  0  0  0
  -28.9060  -19.2590   18.0630 C   0  0  0  0  0  2  0  0  0  0  0  0
  -28.8010  -20.5260   19.7940 C   0  0  0  0  0  3  0  0  0  0  0  0
  -28.2300  -20.6010   18.3550 C   0  0  0  0  0  3  0  0  0  0  0  0
  -26.7270  -20.7360   18.1110 C   0  0  0  0  0  1  0  0  0  0  0  0
  -29.6560  -19.4360   19.3000 N   0  0  0  0  0  0  0  0  0  0  0  0
  -30.0310  -18.3890   21.3190 O   0  0  0  0  0  0  0  0  0  0  0  0
  -29.5410  -21.8320   20.1980 C   0  0  0  0  0  0  0  0  0  0  0  0
  -28.7800  -22.9300   20.3320 N   0  0  0  0  0  0  0  0  0  0  0  0
  -30.7650  -21.8540   20.3390 O   0  0  0  0  0  0  0  0  0  0  0  0
  -27.7860  -22.8020   20.2030 H   0  0  0  0  0  0  0  0  0  0  0  0
  -29.2270  -24.3240   20.4860 C   0  0  0  0  0  2  0  0  0  0  0  0
  -28.0740  -25.2640   20.0920 C   0  0  0  0  0  2  0  0  0  0  0  0
  -28.3410  -26.6800   20.1010 O   0  0  0  0  0  0  0  0  0  0  0  0
  -24.5530  -31.8680   23.1870 C   0  0  0  0  0  0  0  0  0  0  0  0
  -27.2000  -27.4630   20.0520 C   0  0  0  0  0  0  0  0  0  0  0  0
  -23.3550  -30.4860   21.5280 C   0  0  0  0  0  3  0  0  0  0  0  0
  -24.8110  -28.9910   20.0730 C   0  0  0  0  0  0  0  0  0  0  0  0
  -25.8820  -30.8570   21.3350 C   0  0  0  0  0  2  0  0  0  0  0  0
  -25.9720  -29.4970   20.6730 C   0  0  0  0  0  0  0  0  0  0  0  0
  -27.1700  -28.7420   20.6610 C   0  0  0  0  0  3  0  0  0  0  0  0
  -26.0170  -26.9960   19.4220 C   0  0  0  0  0  3  0  0  0  0  0  0
  -24.8300  -27.7420   19.4410 C   0  0  0  0  0  3  0  0  0  0  0  0
  -23.5660  -29.8410   20.1340 C   0  0  0  0  0  2  0  0  0  0  0  0
  -24.6160  -31.0840   22.0750 N   0  0  0  0  0  0  0  0  0  0  0  0
  -23.4680  -32.1260   23.7310 O   0  0  0  0  0  0  0  0  0  0  0  0
  -22.7120  -29.4410   22.4680 C   0  0  0  0  0  0  0  0  0  0  0  0
  -21.3840  -29.2660   22.3550 N   0  0  0  0  0  0  0  0  0  0  0  0
  -23.4030  -28.7950   23.2590 O   0  0  0  0  0  0  0  0  0  0  0  0
  -20.8880  -29.8430   21.6920 H   0  0  0  0  0  0  0  0  0  0  0  0
  -18.0070  -28.0980   22.8790 C   0  0  0  0  0  0  0  0  0  0  0  0
  -20.5720  -28.3170   23.1150 C   0  0  0  0  0  3  0  0  0  0  0  0
  -20.6460  -26.9010   22.5000 C   0  0  0  0  0  2  0  0  0  0  0  0
  -19.5240  -26.6170   21.4960 C   0  0  0  0  0  2  0  0  0  0  0  0
  -18.1530  -26.7640   22.1650 C   0  0  0  0  0  2  0  0  0  0  0  0
  -19.1410  -28.8350   23.3090 C   0  0  0  0  0  0  0  0  0  0  0  0
  -18.9460  -30.0870   23.9340 C   0  0  0  0  0  3  0  0  0  0  0  0
  -17.6500  -30.5980   24.1330 C   0  0  0  0  0  3  0  0  0  0  0  0
  -16.5300  -29.8570   23.7150 C   0  0  0  0  0  3  0  0  0  0  0  0
  -16.7100  -28.6090   23.0950 C   0  0  0  0  0  3  0  0  0  0  0  0
  -25.8350  -32.5000   23.8120 C   0  0  0  0  0  3  0  0  0  0  0  0
  -25.5230  -33.8970   24.1420 N   0  0  0  0  0  0  0  0  0  0  0  0
  -25.8810  -34.9510   23.3990 C   0  0  0  0  0  0  0  0  0  0  0  0
  -26.5760  -34.8520   22.3850 O   0  0  0  0  0  0  0  0  0  0  0  0
  -24.9140  -34.0480   24.9340 H   0  0  0  0  0  0  0  0  0  0  0  0
  -24.1830  -36.7610   22.9860 C   0  0  0  0  0  1  0  0  0  0  0  0
  -25.3830  -36.3380   23.8490 C   0  0  0  0  0  3  0  0  0  0  0  0
  -27.4870  -37.1920   24.7870 C   0  0  0  0  0  1  0  0  0  0  0  0
  -26.4270  -37.3840   23.8010 N   0  0  0  0  0  0  0  0  0  0  0  0
  -26.0200  -38.3030   23.9480 H   0  0  0  0  0  0  0  0  0  0  0  0
  -26.3450  -31.7290   25.0890 C   0  0  1  0  0  0  0  0  0  0  0  0
  -25.2460  -31.5020   26.1550 C   0  0  0  0  0  1  0  0  0  0  0  0
  -26.9210  -30.3470   24.6950 C   0  0  0  0  0  1  0  0  0  0  0  0
  -27.4960  -32.5180   25.7530 C   0  0  0  0  0  1  0  0  0  0  0  0
  -30.5230  -17.0180   19.3770 C   0  0  0  0  0  0  0  0  0  0  0  0
  -30.9920  -14.6730   20.4460 C   0  0  0  0  0  0  0  0  0  0  0  0
  -30.7410  -12.4320   19.5120 C   0  0  0  0  0  2  0  0  0  0  0  0
  -29.8260  -12.5340   18.2710 C   0  0  0  0  0  2  0  0  0  0  0  0
  -28.3390  -12.4470   18.6580 C   0  0  0  0  0  2  0  0  0  0  0  0
  -27.9610  -13.3540   19.8580 C   0  0  0  0  0  3  0  0  0  0  0  0
  -28.9910  -13.2300   21.0060 C   0  0  0  0  0  2  0  0  0  0  0  0
  -30.3270  -13.4850   20.4490 N   0  0  0  0  0  0  0  0  0  0  0  0
  -32.2170  -14.7340   20.3830 O   0  0  0  0  0  0  0  0  0  0  0  0
  -30.2150  -15.7230   20.0770 N   0  0  0  0  0  4  0  0  0  0  0  0
  -29.2300  -15.5520   20.1720 H   0  0  0  0  0  0  0  0  0  0  0  0
  -25.5550  -14.0090   20.4870 C   0  0  0  0  0  0  0  0  0  0  0  0
  -24.4610  -13.2550   20.8210 C   0  0  0  0  0  0  0  0  0  0  0  0
  -24.9000  -11.8980   20.8340 C   0  0  0  0  0  0  0  0  0  0  0  0
  -26.5930  -13.1060   20.3090 N   0  0  0  0  0  0  0  0  0  0  0  0
  -26.2020  -11.8350   20.5790 N   0  0  0  0  0  0  0  0  0  0  0  0
  -24.1470  -10.6490   21.0120 C   0  0  0  0  0  0  0  0  0  0  0  0
  -24.5440   -9.6750   21.9540 C   0  0  0  0  0  3  0  0  0  0  0  0
  -23.7950   -8.4900   22.1160 C   0  0  0  0  0  3  0  0  0  0  0  0
  -22.6320   -8.2730   21.3390 C   0  0  0  0  0  0  0  0  0  0  0  0
  -22.2560   -9.2340   20.3860 C   0  0  0  0  0  3  0  0  0  0  0  0
  -23.0070  -10.4090   20.2200 C   0  0  0  0  0  3  0  0  0  0  0  0
  -21.8530   -7.1440   21.4170 O   0  0  0  0  0  0  0  0  0  0  0  0
  -21.7920   -6.3910   22.5640 C   0  0  0  0  0  0  0  0  0  0  0  0
  -21.3670   -6.9410   23.7930 C   0  0  0  0  0  3  0  0  0  0  0  0
  -21.2450   -6.1110   24.9280 C   0  0  0  0  0  3  0  0  0  0  0  0
  -21.5430   -4.7390   24.8310 C   0  0  0  0  0  0  0  0  0  0  0  0
  -21.9670   -4.1910   23.6080 C   0  0  0  0  0  3  0  0  0  0  0  0
  -22.0880   -5.0170   22.4760 C   0  0  0  0  0  0  0  0  0  0  0  0
  -22.4710   -4.4790   21.2940 F   0  0  0  0  0  0  0  0  0  0  0  0
  -21.4190   -3.9420   25.9190 F   0  0  0  0  0  0  0  0  0  0  0  0
  -23.0620  -13.7600   21.0280 C   0  0  0  0  0  0  0  0  0  0  0  0
  -22.2920  -13.1030   21.8890 N   0  0  0  0  0  0  0  0  0  0  0  0
  -22.6620  -14.7730   20.4590 O   0  0  0  0  0  0  0  0  0  0  0  0
  -22.6240  -12.2860   22.3800 H   0  0  0  0  0  0  0  0  0  0  0  0
  -21.3510  -13.4260   22.0640 H   0  0  0  0  0  0  0  0  0  0  0  0
  -25.7510  -15.3730   20.2980 N   0  0  0  0  0  0  0  0  0  0  0  0
  -24.9910  -16.0410   20.3770 H   0  0  0  0  0  0  0  0  0  0  0  0
  -26.6280  -15.8030   20.0420 H   0  0  0  0  0  0  0  0  0  0  0  0
  -31.6660  -16.2970   17.1920 C   0  0  0  0  0  1  0  0  0  0  0  0
  -31.8560  -17.0530   18.5240 C   0  0  0  0  0  3  0  0  0  0  0  0
  -33.2320  -19.0890   19.3950 C   0  0  0  0  0  1  0  0  0  0  0  0
  -32.4730  -18.4450   18.2190 C   0  0  0  0  0  2  0  0  0  0  0  0
  1  7  2  0
  2  4  1  0
  2  6  1  0
  3  8  1  0
  4  5  1  0
  4  3  1  0
  6  3  1  0
  6  1  1  0
  8  9  1  0
  8 10  2  0
  9 12  1  0
 11  9  1  0
 13 14  1  0
 13 12  1  0
 15 26  2  0
 16 14  1  0
 16 21  1  0
 17 25  1  0
 17 27  1  0
 18 24  1  0
 18 20  1  0
 19 25  1  0
 20 19  1  0
 21 20  2  0
 22 23  1  0
 22 16  2  0
 23 18  2  0
 24 17  1  0
 25 15  1  0
 27 29  2  0
 28 27  1  0
 30 28  1  0
 31 40  2  0
 31 36  1  0
 32 28  1  0
 32 36  1  0
 33 32  1  0
 34 35  1  0
 34 33  1  0
 35 31  1  0
 36 37  2  0
 37 38  1  0
 39 38  2  0
 40 39  1  0
 41 15  1  0
 41 42  1  0
 41 51  1  0
 42 45  1  0
 43 47  1  0
 43 42  1  0
 44 43  2  0
 47 46  1  0
 49 47  1  0
 49 50  1  0
 49 48  1  0
 51 54  1  1
 51 52  1  0
 53 51  1  0
 55 64  2  0
 55  1  1  0
 56 62  1  0
 57 62  1  0
 58 59  1  0
 58 57  1  0
 60 59  1  0
 60 69  1  0
 60 61  1  0
 62 61  1  0
 63 56  2  0
 64 65  1  0
 64 56  1  0
 66 67  2  0
 67 68  1  0
 67 86  1  0
 68 71  1  0
 69 66  1  0
 69 70  1  0
 70 68  2  0
 71 72  1  0
 72 73  2  0
 74 77  1  0
 74 73  1  0
 75 74  2  0
 76 75  1  0
 76 71  2  0
 77 78  1  0
 78 79  1  0
 79 80  2  0
 81 80  1  0
 81 85  1  0
 82 81  2  0
 83 78  2  0
 83 82  1  0
 84 83  1  0
 86 87  1  0
 87 90  1  0
 87 89  1  0
 88 86  2  0
 91 92  1  0
 91 66  1  0
 93 91  1  0
 95 94  1  0
 95 55  1  0
 97 95  1  0
 97 96  1  0
M  ISO  4  13 101  14 101  56 100  64 100
M  END
>  <TORSDO>  (78) 
F 22

>  <SCORE>  (78) 
-13.130

>  <name>  (78) 
77

>  <ligand_id>  (78) 
77

>  <original_smiles>  (78) 
[H]c1c([H])c([H])c2c(c1[H])C([H])([H])C([H])([H])C([H])([H])C2([H])N([H])C(=O)C1([H])N(C(=O)C([H])(N([H])C(=O)C([H])(N([H])C([H])([H])[H])C([H])([H])[H])C(C([H])([H])[H])(C([H])([H])[H])C([H])([H])[H])C([H])([H])c2c([H])c(OC([H])([H])C([H])([H])N([H])C(=O)C3([H])N(C(=O)C([H])(N([H])C(=O)N4C([H])([H])C([H])([H])C([H])([H])C([H])(n5nc(-c6c([H])c([H])c(Oc7c([H])c([H])c(F)c([H])c7F)c([H])c6[H])c(C(=O)N([H])[H])c5N([H])[H])C4([H])[H])C([H])(C([H])([H])[H])C([H])([H])C([H])([H])[H])C([H])([H])C3([H])C([H])([H])[H])c([H])c([H])c2C1([H])[H]

>  <smiles>  (78) 
[H]c1c([H])c([H])c2c(c1[H])C([H])([H])C([H])([H])C([H])([H])C2([H])N([H])C(=O)C1([H])N(C(=O)C([H])(N([H])C(=O)C([H])(N([H])C([H])([H])[H])C([H])([H])[H])C(C([H])([H])[H])(C([H])([H])[H])C([H])([H])[H])C([H])([H])c2c([H])c(OC([H])([H])C([H])([H])N([H])C(=O)C3([H])N(C(=O)C([H])(N([H])C(=O)N4C([H])([H])C([H])([H])C([H])([H])C([H])(n5nc(-c6c([H])c([H])c(Oc7c([H])c([H])c(F)c([H])c7F)c([H])c6[H])c(C(=O)N([H])[H])c5N([H])[H])C4([H])[H])C([H])(C([H])([H])[H])C([H])([H])C([H])([H])[H])C([H])([H])C3([H])C([H])([H])[H])c([H])c([H])c2C1([H])[H]

$$$$
78:0:0
     RDKit          3D

 95103  0  0  1  0  0  0  0  0999 V2000
  -28.5850  -22.8920   21.0870 C   0  0  0  0  0  2  0  0  0  0  0  0
  -29.6950  -20.6160   21.5190 C   0  0  0  0  0  3  0  0  0  0  0  0
  -28.3700  -20.6900   19.5320 C   0  0  0  0  0  3  0  0  0  0  0  0
  -28.8660  -21.3910   20.6640 C   0  0  0  0  0  0  0  0  0  0  0  0
  -30.0760  -19.2670   21.2600 C   0  0  0  0  0  0  0  0  0  0  0  0
  -28.7010  -19.3170   19.2760 C   0  0  0  0  0  0  0  0  0  0  0  0
  -29.6020  -18.5720   20.1100 C   0  0  0  0  0  0  0  0  0  0  0  0
  -31.0560  -18.6290   22.2320 C   0  0  0  0  0  1  0  0  0  0  0  0
  -28.0750  -18.6710   18.0470 C   0  0  0  0  0  1  0  0  0  0  0  0
  -30.2290  -17.1900   19.6460 C   0  0  0  0  0  2  0  0  0  0  0  0
  -30.6360  -14.7080   19.9980 C   0  0  0  0  0  0  0  0  0  0  0  0
  -30.3400  -12.4850   18.9500 C   0  0  0  0  0  2  0  0  0  0  0  0
  -29.3440  -12.6410   17.7790 C   0  0  0  0  0  2  0  0  0  0  0  0
  -27.8980  -12.4750   18.2840 C   0  0  0  0  0  2  0  0  0  0  0  0
  -27.6030  -13.3120   19.5580 C   0  0  0  0  0  3  0  0  0  0  0  0
  -28.7180  -13.1630   20.6160 C   0  0  0  0  0  2  0  0  0  0  0  0
  -29.9890  -13.5000   19.9660 N   0  0  0  0  0  0  0  0  0  0  0  0
  -31.7930  -14.8100   19.5850 O   0  0  0  0  0  0  0  0  0  0  0  0
  -29.8880  -15.8400   20.2310 N   0  0  0  0  0  0  0  0  0  0  0  0
  -28.9570  -15.7170   20.5970 H   0  0  0  0  0  0  0  0  0  0  0  0
  -25.2460  -13.8850   20.4070 C   0  0  0  0  0  0  0  0  0  0  0  0
  -24.2050  -13.1000   20.8250 C   0  0  0  0  0  0  0  0  0  0  0  0
  -24.6740  -11.7530   20.7530 C   0  0  0  0  0  0  0  0  0  0  0  0
  -26.2820  -13.0160   20.1100 N   0  0  0  0  0  0  0  0  0  0  0  0
  -25.9470  -11.7290   20.3770 N   0  0  0  0  0  0  0  0  0  0  0  0
  -23.9670  -10.4820   20.9610 C   0  0  0  0  0  0  0  0  0  0  0  0
  -24.4260   -9.5220   21.8890 C   0  0  0  0  0  3  0  0  0  0  0  0
  -23.7130   -8.3180   22.0830 C   0  0  0  0  0  3  0  0  0  0  0  0
  -22.5290   -8.0680   21.3500 C   0  0  0  0  0  0  0  0  0  0  0  0
  -22.0890   -9.0170   20.4110 C   0  0  0  0  0  3  0  0  0  0  0  0
  -22.8030  -10.2120   20.2140 C   0  0  0  0  0  3  0  0  0  0  0  0
  -21.7870   -6.9160   21.4560 O   0  0  0  0  0  0  0  0  0  0  0  0
  -21.7330   -6.1990   22.6230 C   0  0  0  0  0  0  0  0  0  0  0  0
  -21.2810   -6.7750   23.8310 C   0  0  0  0  0  3  0  0  0  0  0  0
  -21.1760   -5.9850   24.9940 C   0  0  0  0  0  3  0  0  0  0  0  0
  -21.5100   -4.6170   24.9500 C   0  0  0  0  0  0  0  0  0  0  0  0
  -21.9540   -4.0400   23.7460 C   0  0  0  0  0  3  0  0  0  0  0  0
  -22.0610   -4.8290   22.5870 C   0  0  0  0  0  0  0  0  0  0  0  0
  -22.4700   -4.2620   21.4250 F   0  0  0  0  0  0  0  0  0  0  0  0
  -21.4020   -3.8560   26.0630 F   0  0  0  0  0  0  0  0  0  0  0  0
  -22.8240  -13.5690   21.1800 C   0  0  0  0  0  0  0  0  0  0  0  0
  -22.1460  -12.8580   22.0760 N   0  0  0  0  0  0  0  0  0  0  0  0
  -22.3550  -14.6000   20.6990 O   0  0  0  0  0  0  0  0  0  0  0  0
  -22.5390  -12.0290   22.4960 H   0  0  0  0  0  0  0  0  0  0  0  0
  -21.2190  -13.1530   22.3510 H   0  0  0  0  0  0  0  0  0  0  0  0
  -25.3920  -15.2580   20.2350 N   0  0  0  0  0  0  0  0  0  0  0  0
  -24.6060  -15.8900   20.3420 H   0  0  0  0  0  0  0  0  0  0  0  0
  -26.2120  -15.7110   19.8520 H   0  0  0  0  0  0  0  0  0  0  0  0
  -27.7030  -23.9960   20.3290 C   0  0  0  0  0  3  0  0  0  0  0  0
  -26.5800  -23.4190   19.5490 N   0  0  0  0  0  4  0  0  0  0  0  0
  -26.9090  -22.9490   18.7240 H   0  0  0  0  0  0  0  0  0  0  0  0
  -25.9380  -24.1350   19.2550 H   0  0  0  0  0  0  0  0  0  0  0  0
  -26.0600  -22.7600   20.1030 H   0  0  0  0  0  0  0  0  0  0  0  0
  -28.4070  -25.2280   19.5980 C   0  0  0  0  0  2  0  0  0  0  0  0
  -28.3310  -26.5870   20.1710 O   0  0  0  0  0  0  0  0  0  0  0  0
  -24.5800  -31.9070   23.2250 C   0  0  0  0  0  0  0  0  0  0  0  0
  -27.1860  -27.3870   20.1140 C   0  0  0  0  0  0  0  0  0  0  0  0
  -23.3690  -30.5160   21.5810 C   0  0  0  0  0  3  0  0  0  0  0  0
  -24.8130  -28.9770   20.1390 C   0  0  0  0  0  0  0  0  0  0  0  0
  -25.9060  -30.8410   21.3900 C   0  0  0  0  0  2  0  0  0  0  0  0
  -25.9810  -29.4670   20.7410 C   0  0  0  0  0  0  0  0  0  0  0  0
  -27.1640  -28.6750   20.7310 C   0  0  0  0  0  3  0  0  0  0  0  0
  -26.0020  -26.9530   19.4810 C   0  0  0  0  0  3  0  0  0  0  0  0
  -24.8240  -27.7260   19.5040 C   0  0  0  0  0  3  0  0  0  0  0  0
  -23.5750  -29.8480   20.1950 C   0  0  0  0  0  2  0  0  0  0  0  0
  -24.6380  -31.1050   22.1220 N   0  0  0  0  0  0  0  0  0  0  0  0
  -23.5000  -32.1790   23.7660 O   0  0  0  0  0  0  0  0  0  0  0  0
  -22.7170  -29.4920   22.5360 C   0  0  0  0  0  0  0  0  0  0  0  0
  -21.3890  -29.3160   22.4190 N   0  0  0  0  0  0  0  0  0  0  0  0
  -23.4030  -28.8640   23.3470 O   0  0  0  0  0  0  0  0  0  0  0  0
  -20.8860  -29.9010   21.7680 H   0  0  0  0  0  0  0  0  0  0  0  0
  -18.0260  -28.0730   22.8720 C   0  0  0  0  0  0  0  0  0  0  0  0
  -20.5740  -28.3650   23.1790 C   0  0  0  0  0  3  0  0  0  0  0  0
  -20.7040  -26.9300   22.6160 C   0  0  0  0  0  2  0  0  0  0  0  0
  -19.6260  -26.5920   21.5850 C   0  0  0  0  0  2  0  0  0  0  0  0
  -18.2340  -26.7240   22.2060 C   0  0  0  0  0  2  0  0  0  0  0  0
  -19.1270  -28.8490   23.3140 C   0  0  0  0  0  0  0  0  0  0  0  0
  -18.8850  -30.1100   23.8980 C   0  0  0  0  0  3  0  0  0  0  0  0
  -17.5710  -30.6000   24.0430 C   0  0  0  0  0  3  0  0  0  0  0  0
  -16.4820  -29.8180   23.6140 C   0  0  0  0  0  3  0  0  0  0  0  0
  -16.7130  -28.5600   23.0360 C   0  0  0  0  0  3  0  0  0  0  0  0
  -25.8650  -32.5360   23.8460 C   0  0  0  0  0  3  0  0  0  0  0  0
  -25.5610  -33.9350   24.1730 N   0  0  0  0  0  0  0  0  0  0  0  0
  -25.9040  -34.9880   23.4170 C   0  0  0  0  0  0  0  0  0  0  0  0
  -26.5770  -34.8790   22.3870 O   0  0  0  0  0  0  0  0  0  0  0  0
  -24.9580  -34.0910   24.9670 H   0  0  0  0  0  0  0  0  0  0  0  0
  -24.1860  -36.7910   23.0570 C   0  0  0  0  0  1  0  0  0  0  0  0
  -25.4200  -36.3780   23.8730 C   0  0  0  0  0  3  0  0  0  0  0  0
  -27.5560  -37.2500   24.7160 C   0  0  0  0  0  1  0  0  0  0  0  0
  -26.4600  -37.4250   23.7680 N   0  0  0  0  0  0  0  0  0  0  0  0
  -26.0570  -38.3470   23.9150 H   0  0  0  0  0  0  0  0  0  0  0  0
  -26.3790  -31.7640   25.1230 C   0  0  1  0  0  0  0  0  0  0  0  0
  -25.2840  -31.5300   26.1890 C   0  0  0  0  0  1  0  0  0  0  0  0
  -26.9560  -30.3840   24.7290 C   0  0  0  0  0  1  0  0  0  0  0  0
  -27.5320  -32.5560   25.7820 C   0  0  0  0  0  1  0  0  0  0  0  0
  3  4  1  0
  4  1  1  0
  4  2  2  0
  5  2  1  0
  5  8  1  0
  6  3  2  0
  6  7  1  0
  7  5  2  0
  9  6  1  0
 10  7  1  0
 10 19  1  0
 11 19  1  0
 12 17  1  0
 13 14  1  0
 13 12  1  0
 15 14  1  0
 15 24  1  0
 15 16  1  0
 17 11  1  0
 17 16  1  0
 18 11  2  0
 19 20  1  0
 21 22  2  0
 22 41  1  0
 23 22  1  0
 23 26  1  0
 24 25  1  0
 24 21  1  0
 25 23  2  0
 26 27  1  0
 27 28  2  0
 29 32  1  0
 29 28  1  0
 30 29  2  0
 31 30  1  0
 31 26  2  0
 32 33  1  0
 33 34  1  0
 34 35  2  0
 36 35  1  0
 36 40  1  0
 37 36  2  0
 38 33  2  0
 38 37  1  0
 39 38  1  0
 41 42  1  0
 42 45  1  0
 42 44  1  0
 43 41  2  0
 46 47  1  0
 46 21  1  0
 48 46  1  0
 49 54  1  0
 49  1  1  0
 50 53  1  0
 50 49  1  0
 51 50  1  0
 52 50  1  0
 54 55  1  0
 56 67  2  0
 57 55  1  0
 57 62  1  0
 58 66  1  0
 58 68  1  0
 59 65  1  0
 59 61  1  0
 60 66  1  0
 61 60  1  0
 62 61  2  0
 63 64  1  0
 63 57  2  0
 64 59  2  0
 65 58  1  0
 66 56  1  0
 68 70  2  0
 69 68  1  0
 71 69  1  0
 72 81  2  0
 72 77  1  0
 73 69  1  0
 73 77  1  0
 74 73  1  0
 75 76  1  0
 75 74  1  0
 76 72  1  0
 77 78  2  0
 78 79  1  0
 80 79  2  0
 81 80  1  0
 82 56  1  0
 82 83  1  0
 82 92  1  0
 83 86  1  0
 84 88  1  0
 84 83  1  0
 85 84  2  0
 88 87  1  0
 90 88  1  0
 90 91  1  0
 90 89  1  0
 92 95  1  1
 92 93  1  0
 94 92  1  0
M  ISO  4  11 100  19 100  54 101  55 101
M  END
>  <TORSDO>  (79) 
F 21

>  <SCORE>  (79) 
-13.723

>  <name>  (79) 
78

>  <ligand_id>  (79) 
78

>  <original_smiles>  (79) 
[H]c1c([H])c([H])c2c(c1[H])C([H])([H])C([H])([H])C([H])([H])C2([H])N([H])C(=O)C1([H])N(C(=O)C([H])(N([H])C(=O)C([H])(N([H])C([H])([H])[H])C([H])([H])[H])C(C([H])([H])[H])(C([H])([H])[H])C([H])([H])[H])C([H])([H])c2c([H])c(OC([H])([H])C([H])(C([H])([H])c3c([H])c(C([H])([H])[H])c(C([H])([H])N([H])C(=O)N4C([H])([H])C([H])([H])C([H])([H])C([H])(n5nc(-c6c([H])c([H])c(Oc7c([H])c([H])c(F)c([H])c7F)c([H])c6[H])c(C(=O)N([H])[H])c5N([H])[H])C4([H])[H])c(C([H])([H])[H])c3[H])[N+]([H])([H])[H])c([H])c([H])c2C1([H])[H]

>  <smiles>  (79) 
[H]c1c([H])c([H])c2c(c1[H])C([H])([H])C([H])([H])C([H])([H])C2([H])N([H])C(=O)C1([H])N(C(=O)C([H])(N([H])C(=O)C([H])(N([H])C([H])([H])[H])C([H])([H])[H])C(C([H])([H])[H])(C([H])([H])[H])C([H])([H])[H])C([H])([H])c2c([H])c(OC([H])([H])C([H])(C([H])([H])c3c([H])c(C([H])([H])[H])c(C([H])([H])N([H])C(=O)N4C([H])([H])C([H])([H])C([H])([H])C([H])(n5nc(-c6c([H])c([H])c(Oc7c([H])c([H])c(F)c([H])c7F)c([H])c6[H])c(C(=O)N([H])[H])c5N([H])[H])C4([H])[H])c(C([H])([H])[H])c3[H])[N+]([H])([H])[H])c([H])c([H])c2C1([H])[H]

$$$$
79:0:0
     RDKit          3D

 89 97  0  0  1  0  0  0  0  0999 V2000
  -29.5970  -20.7510   18.9270 C   0  0  0  0  0  3  0  0  0  0  0  0
  -29.2710  -22.3430   21.1140 C   0  0  0  0  0  3  0  0  0  0  0  0
  -29.1690  -22.1700   18.8130 C   0  0  0  0  0  0  0  0  0  0  0  0
  -29.7010  -20.9200   21.2250 C   0  0  0  0  0  0  0  0  0  0  0  0
  -29.8910  -19.9790   20.1260 C   0  0  0  0  0  0  0  0  0  0  0  0
  -28.9750  -23.1120   19.9130 C   0  0  0  0  0  0  0  0  0  0  0  0
  -28.8720  -22.6700   17.4080 C   0  0  0  0  0  1  0  0  0  0  0  0
  -29.9890  -20.4120   22.6270 C   0  0  0  0  0  1  0  0  0  0  0  0
  -30.6560  -18.4160   20.1350 C   0  0  0  0  0  2  0  0  0  0  0  0
  -30.9890  -15.5670   20.2050 C   0  0  0  0  0  0  0  0  0  0  0  0
  -30.9710  -13.1080   19.4220 C   0  0  0  0  0  2  0  0  0  0  0  0
  -30.0500  -12.8550   18.2030 C   0  0  0  0  0  2  0  0  0  0  0  0
  -28.6050  -12.5890   18.6580 C   0  0  0  0  0  2  0  0  0  0  0  0
  -28.1430  -13.5890   19.7490 C   0  0  0  0  0  3  0  0  0  0  0  0
  -29.1940  -13.7920   20.8620 C   0  0  0  0  0  2  0  0  0  0  0  0
  -30.4200  -14.2690   20.2040 N   0  0  0  0  0  0  0  0  0  0  0  0
  -32.2060  -15.5720   19.9820 O   0  0  0  0  0  0  0  0  0  0  0  0
  -30.2350  -16.8300   20.2490 N   0  0  0  0  0  0  0  0  0  0  0  0
  -29.2440  -16.6860   20.3740 H   0  0  0  0  0  0  0  0  0  0  0  0
  -25.7890  -14.1370   20.5650 C   0  0  0  0  0  0  0  0  0  0  0  0
  -24.7310  -13.3540   20.9310 C   0  0  0  0  0  0  0  0  0  0  0  0
  -25.1930  -12.0030   20.8530 C   0  0  0  0  0  0  0  0  0  0  0  0
  -26.8240  -13.2660   20.2760 N   0  0  0  0  0  0  0  0  0  0  0  0
  -26.4790  -11.9740   20.5180 N   0  0  0  0  0  0  0  0  0  0  0  0
  -24.4650  -10.7380   21.0180 C   0  0  0  0  0  0  0  0  0  0  0  0
  -24.8660   -9.7700   21.9640 C   0  0  0  0  0  3  0  0  0  0  0  0
  -24.1330   -8.5720   22.1200 C   0  0  0  0  0  3  0  0  0  0  0  0
  -22.9850   -8.3340   21.3260 C   0  0  0  0  0  0  0  0  0  0  0  0
  -22.6040   -9.2910   20.3690 C   0  0  0  0  0  3  0  0  0  0  0  0
  -23.3380  -10.4790   20.2120 C   0  0  0  0  0  3  0  0  0  0  0  0
  -22.2280   -7.1890   21.3880 O   0  0  0  0  0  0  0  0  0  0  0  0
  -22.0520   -6.5060   22.5640 C   0  0  0  0  0  0  0  0  0  0  0  0
  -21.4570   -7.1090   23.6930 C   0  0  0  0  0  3  0  0  0  0  0  0
  -21.2310   -6.3490   24.8590 C   0  0  0  0  0  3  0  0  0  0  0  0
  -21.5930   -4.9900   24.8960 C   0  0  0  0  0  0  0  0  0  0  0  0
  -22.1820   -4.3860   23.7710 C   0  0  0  0  0  3  0  0  0  0  0  0
  -22.4080   -5.1430   22.6070 C   0  0  0  0  0  0  0  0  0  0  0  0
  -22.9570   -4.5510   21.5180 F   0  0  0  0  0  0  0  0  0  0  0  0
  -21.3700   -4.2580   26.0130 F   0  0  0  0  0  0  0  0  0  0  0  0
  -23.3400  -13.8280   21.2350 C   0  0  0  0  0  0  0  0  0  0  0  0
  -22.6280  -13.1180   22.1020 N   0  0  0  0  0  0  0  0  0  0  0  0
  -22.8960  -14.8620   20.7390 O   0  0  0  0  0  0  0  0  0  0  0  0
  -23.0020  -12.2790   22.5220 H   0  0  0  0  0  0  0  0  0  0  0  0
  -21.6970  -13.4170   22.3510 H   0  0  0  0  0  0  0  0  0  0  0  0
  -25.9520  -15.5120   20.4220 N   0  0  0  0  0  0  0  0  0  0  0  0
  -25.1890  -16.1640   20.5710 H   0  0  0  0  0  0  0  0  0  0  0  0
  -26.7870  -15.9580   20.0640 H   0  0  0  0  0  0  0  0  0  0  0  0
  -28.1640  -24.6470   19.8310 C   0  0  0  0  0  2  0  0  0  0  0  0
  -28.5350  -26.2100   20.0670 O   0  0  0  0  0  0  0  0  0  0  0  0
  -24.8140  -31.8730   23.3490 C   0  0  0  0  0  0  0  0  0  0  0  0
  -27.5210  -27.2950   20.0510 C   0  0  0  0  0  0  0  0  0  0  0  0
  -23.6840  -30.5870   21.5810 C   0  0  0  0  0  3  0  0  0  0  0  0
  -25.1940  -29.1190   20.0860 C   0  0  0  0  0  0  0  0  0  0  0  0
  -26.2500  -30.8490   21.5210 C   0  0  0  0  0  2  0  0  0  0  0  0
  -26.3590  -29.4960   20.7670 C   0  0  0  0  0  0  0  0  0  0  0  0
  -27.5180  -28.6050   20.7320 C   0  0  0  0  0  3  0  0  0  0  0  0
  -26.3250  -27.0690   19.3310 C   0  0  0  0  0  3  0  0  0  0  0  0
  -25.2000  -27.9250   19.3530 C   0  0  0  0  0  3  0  0  0  0  0  0
  -23.9590  -30.0120   20.1660 C   0  0  0  0  0  2  0  0  0  0  0  0
  -24.9360  -31.1230   22.2070 N   0  0  0  0  0  0  0  0  0  0  0  0
  -23.7070  -32.1120   23.8570 O   0  0  0  0  0  0  0  0  0  0  0  0
  -22.9790  -29.5130   22.4510 C   0  0  0  0  0  0  0  0  0  0  0  0
  -21.6570  -29.3380   22.2700 N   0  0  0  0  0  0  0  0  0  0  0  0
  -23.6280  -28.8420   23.2570 O   0  0  0  0  0  0  0  0  0  0  0  0
  -21.1860  -29.9310   21.6010 H   0  0  0  0  0  0  0  0  0  0  0  0
  -18.2780  -28.0540   22.5800 C   0  0  0  0  0  0  0  0  0  0  0  0
  -20.8240  -28.3360   22.9480 C   0  0  0  0  0  3  0  0  0  0  0  0
  -20.9680  -26.9500   22.2800 C   0  0  0  0  0  2  0  0  0  0  0  0
  -19.9040  -26.6820   21.2110 C   0  0  0  0  0  2  0  0  0  0  0  0
  -18.5000  -26.7600   21.8160 C   0  0  0  0  0  2  0  0  0  0  0  0
  -19.3700  -28.8020   23.0980 C   0  0  0  0  0  0  0  0  0  0  0  0
  -19.1070  -30.0130   23.7750 C   0  0  0  0  0  3  0  0  0  0  0  0
  -17.7880  -30.4780   23.9360 C   0  0  0  0  0  3  0  0  0  0  0  0
  -16.7110  -29.7260   23.4350 C   0  0  0  0  0  3  0  0  0  0  0  0
  -16.9580  -28.5150   22.7620 C   0  0  0  0  0  3  0  0  0  0  0  0
  -26.0590  -32.4800   24.0620 C   0  0  0  0  0  3  0  0  0  0  0  0
  -25.7360  -33.8690   24.4370 N   0  0  0  0  0  0  0  0  0  0  0  0
  -26.0710  -34.9520   23.7250 C   0  0  0  0  0  0  0  0  0  0  0  0
  -26.7500  -34.8890   22.6970 O   0  0  0  0  0  0  0  0  0  0  0  0
  -25.1360  -33.9920   25.2380 H   0  0  0  0  0  0  0  0  0  0  0  0
  -24.3290  -36.7490   23.4450 C   0  0  0  0  0  1  0  0  0  0  0  0
  -25.5780  -36.3230   24.2330 C   0  0  0  0  0  3  0  0  0  0  0  0
  -27.7050  -37.2030   25.0880 C   0  0  0  0  0  1  0  0  0  0  0  0
  -26.6010  -37.3890   24.1510 N   0  0  0  0  0  0  0  0  0  0  0  0
  -26.1860  -38.3000   24.3290 H   0  0  0  0  0  0  0  0  0  0  0  0
  -26.5030  -31.6630   25.3370 C   0  0  1  0  0  0  0  0  0  0  0  0
  -25.3540  -31.4000   26.3390 C   0  0  0  0  0  1  0  0  0  0  0  0
  -27.0940  -30.2930   24.9330 C   0  0  0  0  0  1  0  0  0  0  0  0
  -27.6280  -32.4210   26.0820 C   0  0  0  0  0  1  0  0  0  0  0  0
  1  5  1  0
  2  4  1  0
  3  1  2  0
  3  6  1  0
  4  8  1  0
  5  9  1  0
  5  4  2  0
  6  2  2  0
  7  3  1  0
  9 18  1  0
 10 18  1  0
 11 16  1  0
 12 13  1  0
 12 11  1  0
 14 13  1  0
 14 23  1  0
 14 15  1  0
 16 10  1  0
 16 15  1  0
 17 10  2  0
 18 19  1  0
 20 21  2  0
 21 40  1  0
 22 21  1  0
 22 25  1  0
 23 24  1  0
 23 20  1  0
 24 22  2  0
 25 26  1  0
 26 27  2  0
 28 31  1  0
 28 27  1  0
 29 28  2  0
 30 29  1  0
 30 25  2  0
 31 32  1  0
 32 37  2  0
 32 33  1  0
 33 34  2  0
 34 35  1  0
 35 39  1  0
 36 35  2  0
 37 36  1  0
 38 37  1  0
 40 41  1  0
 41 44  1  0
 41 43  1  0
 42 40  2  0
 45 20  1  0
 45 46  1  0
 47 45  1  0
 48  6  1  0
 48 49  1  0
 50 61  2  0
 51 49  1  0
 51 56  1  0
 52 60  1  0
 52 62  1  0
 53 59  1  0
 53 55  1  0
 54 60  1  0
 55 54  1  0
 56 55  2  0
 57 58  1  0
 57 51  2  0
 58 53  2  0
 59 52  1  0
 60 50  1  0
 62 64  2  0
 63 62  1  0
 65 63  1  0
 66 75  2  0
 66 71  1  0
 67 63  1  0
 67 71  1  0
 68 67  1  0
 69 70  1  0
 69 68  1  0
 70 66  1  0
 71 72  2  0
 72 73  1  0
 74 73  2  0
 75 74  1  0
 76 50  1  0
 76 77  1  0
 76 86  1  0
 77 80  1  0
 78 82  1  0
 78 77  1  0
 79 78  2  0
 82 81  1  0
 84 82  1  0
 84 85  1  0
 84 83  1  0
 86 89  1  1
 86 87  1  0
 88 86  1  0
M  ISO  4  10 100  18 100  48 101  49 101
M  END
>  <TORSDO>  (80) 
F 18

>  <SCORE>  (80) 
-14.451

>  <name>  (80) 
79

>  <ligand_id>  (80) 
79

>  <original_smiles>  (80) 
[H]c1c([H])c([H])c2c(c1[H])C([H])([H])C([H])([H])C([H])([H])C2([H])N([H])C(=O)C1([H])N(C(=O)C([H])(N([H])C(=O)C([H])(N([H])C([H])([H])[H])C([H])([H])[H])C(C([H])([H])[H])(C([H])([H])[H])C([H])([H])[H])C([H])([H])c2c([H])c(OC([H])([H])c3c([H])c(C([H])([H])[H])c(C([H])([H])N([H])C(=O)N4C([H])([H])C([H])([H])C([H])([H])C([H])(n5nc(-c6c([H])c([H])c(Oc7c([H])c([H])c(F)c([H])c7F)c([H])c6[H])c(C(=O)N([H])[H])c5N([H])[H])C4([H])[H])c([H])c3C([H])([H])[H])c([H])c([H])c2C1([H])[H]

>  <smiles>  (80) 
[H]c1c([H])c([H])c2c(c1[H])C([H])([H])C([H])([H])C([H])([H])C2([H])N([H])C(=O)C1([H])N(C(=O)C([H])(N([H])C(=O)C([H])(N([H])C([H])([H])[H])C([H])([H])[H])C(C([H])([H])[H])(C([H])([H])[H])C([H])([H])[H])C([H])([H])c2c([H])c(OC([H])([H])c3c([H])c(C([H])([H])[H])c(C([H])([H])N([H])C(=O)N4C([H])([H])C([H])([H])C([H])([H])C([H])(n5nc(-c6c([H])c([H])c(Oc7c([H])c([H])c(F)c([H])c7F)c([H])c6[H])c(C(=O)N([H])[H])c5N([H])[H])C4([H])[H])c([H])c3C([H])([H])[H])c([H])c([H])c2C1([H])[H]

$$$$
80:0:0
     RDKit          3D

 94102  0  0  1  0  0  0  0  0999 V2000
  -28.9780  -21.6670   20.2310 C   0  0  0  0  0  0  0  0  0  0  0  0
  -29.0990  -23.0190   20.1880 N   0  0  0  0  0  0  0  0  0  0  0  0
  -27.8880  -21.1200   20.4110 O   0  0  0  0  0  0  0  0  0  0  0  0
  -30.0330  -23.3780   20.0460 H   0  0  0  0  0  0  0  0  0  0  0  0
  -30.2520  -20.8020   19.9650 C   0  0  0  0  0  2  0  0  0  0  0  0
  -31.0310  -18.3240   22.8530 C   0  0  0  0  0  3  0  0  0  0  0  0
  -30.3770  -18.2060   20.1360 C   0  0  0  0  0  3  0  0  0  0  0  0
  -30.8020  -19.5240   22.1480 C   0  0  0  0  0  0  0  0  0  0  0  0
  -30.9370  -17.0670   22.2230 C   0  0  0  0  0  0  0  0  0  0  0  0
  -30.4470  -19.4850   20.7750 C   0  0  0  0  0  0  0  0  0  0  0  0
  -30.6370  -16.9920   20.8420 C   0  0  0  0  0  0  0  0  0  0  0  0
  -30.9540  -20.8360   22.9010 C   0  0  0  0  0  1  0  0  0  0  0  0
  -31.1220  -15.8120   23.0630 C   0  0  0  0  0  1  0  0  0  0  0  0
  -31.1930  -14.6800   19.9150 C   0  0  0  0  0  0  0  0  0  0  0  0
  -30.8620  -12.4820   18.8080 C   0  0  0  0  0  2  0  0  0  0  0  0
  -29.8600  -12.6690   17.6470 C   0  0  0  0  0  2  0  0  0  0  0  0
  -28.4000  -12.5850   18.1440 C   0  0  0  0  0  2  0  0  0  0  0  0
  -28.1450  -13.4590   19.4000 C   0  0  0  0  0  3  0  0  0  0  0  0
  -29.2370  -13.1990   20.4610 C   0  0  0  0  0  2  0  0  0  0  0  0
  -30.5390  -13.4860   19.8330 N   0  0  0  0  0  0  0  0  0  0  0  0
  -32.3370  -14.8490   19.4770 O   0  0  0  0  0  0  0  0  0  0  0  0
  -30.3730  -15.7010   20.2750 N   0  0  0  0  0  0  0  0  0  0  0  0
  -29.4440  -15.3600   20.4700 H   0  0  0  0  0  0  0  0  0  0  0  0
  -25.8300  -14.2050   20.2420 C   0  0  0  0  0  0  0  0  0  0  0  0
  -24.7350  -13.4940   20.6510 C   0  0  0  0  0  0  0  0  0  0  0  0
  -25.1090  -12.1170   20.5730 C   0  0  0  0  0  0  0  0  0  0  0  0
  -26.8040  -13.2640   19.9410 N   0  0  0  0  0  0  0  0  0  0  0  0
  -26.3760  -12.0030   20.1990 N   0  0  0  0  0  0  0  0  0  0  0  0
  -24.3170  -10.8980   20.7770 C   0  0  0  0  0  0  0  0  0  0  0  0
  -24.7270   -9.8960   21.6840 C   0  0  0  0  0  3  0  0  0  0  0  0
  -23.9420   -8.7390   21.8740 C   0  0  0  0  0  3  0  0  0  0  0  0
  -22.7300   -8.5780   21.1580 C   0  0  0  0  0  0  0  0  0  0  0  0
  -22.3390   -9.5680   20.2400 C   0  0  0  0  0  3  0  0  0  0  0  0
  -23.1260  -10.7170   20.0470 C   0  0  0  0  0  3  0  0  0  0  0  0
  -21.9160   -7.4760   21.2600 O   0  0  0  0  0  0  0  0  0  0  0  0
  -21.8440   -6.7390   22.4140 C   0  0  0  0  0  0  0  0  0  0  0  0
  -21.4950   -7.3240   23.6520 C   0  0  0  0  0  3  0  0  0  0  0  0
  -21.3640   -6.5170   24.8000 C   0  0  0  0  0  3  0  0  0  0  0  0
  -21.5730   -5.1270   24.7120 C   0  0  0  0  0  0  0  0  0  0  0  0
  -21.9150   -4.5430   23.4800 C   0  0  0  0  0  3  0  0  0  0  0  0
  -22.0470   -5.3470   22.3340 C   0  0  0  0  0  0  0  0  0  0  0  0
  -22.3570   -4.7750   21.1450 F   0  0  0  0  0  0  0  0  0  0  0  0
  -21.4390   -4.3500   25.8120 F   0  0  0  0  0  0  0  0  0  0  0  0
  -23.3850  -14.0500   21.0020 C   0  0  0  0  0  0  0  0  0  0  0  0
  -22.6690  -13.3950   21.9100 N   0  0  0  0  0  0  0  0  0  0  0  0
  -22.9770  -15.0980   20.5050 O   0  0  0  0  0  0  0  0  0  0  0  0
  -23.0120  -12.5460   22.3340 H   0  0  0  0  0  0  0  0  0  0  0  0
  -21.7640  -13.7510   22.1860 H   0  0  0  0  0  0  0  0  0  0  0  0
  -26.0750  -15.5670   20.0810 N   0  0  0  0  0  0  0  0  0  0  0  0
  -25.3570  -16.2660   20.2390 H   0  0  0  0  0  0  0  0  0  0  0  0
  -26.9290  -15.9590   19.7060 H   0  0  0  0  0  0  0  0  0  0  0  0
  -28.0150  -24.0350   20.0940 C   0  0  0  0  0  2  0  0  0  0  0  0
  -28.2520  -25.3400   20.9260 C   0  0  0  0  0  2  0  0  0  0  0  0
  -28.2860  -26.5900   20.1860 O   0  0  0  0  0  0  0  0  0  0  0  0
  -24.5820  -31.9080   23.2160 C   0  0  0  0  0  0  0  0  0  0  0  0
  -27.1370  -27.3600   20.1960 C   0  0  0  0  0  0  0  0  0  0  0  0
  -23.3450  -30.4940   21.6080 C   0  0  0  0  0  3  0  0  0  0  0  0
  -24.7670  -28.9150   20.1900 C   0  0  0  0  0  0  0  0  0  0  0  0
  -25.8730  -30.8190   21.3750 C   0  0  0  0  0  2  0  0  0  0  0  0
  -25.9390  -29.4330   20.7580 C   0  0  0  0  0  0  0  0  0  0  0  0
  -27.1290  -28.6660   20.7500 C   0  0  0  0  0  3  0  0  0  0  0  0
  -25.9510  -26.8620   19.6200 C   0  0  0  0  0  3  0  0  0  0  0  0
  -24.7720  -27.6320   19.6120 C   0  0  0  0  0  3  0  0  0  0  0  0
  -23.5330  -29.7890   20.2350 C   0  0  0  0  0  2  0  0  0  0  0  0
  -24.6200  -31.0910   22.1250 N   0  0  0  0  0  0  0  0  0  0  0  0
  -23.5090  -32.1960   23.7650 O   0  0  0  0  0  0  0  0  0  0  0  0
  -22.6940  -29.4950   22.5920 C   0  0  0  0  0  0  0  0  0  0  0  0
  -21.3730  -29.2920   22.4540 N   0  0  0  0  0  0  0  0  0  0  0  0
  -23.3740  -28.9030   23.4330 O   0  0  0  0  0  0  0  0  0  0  0  0
  -20.8830  -29.8270   21.7510 H   0  0  0  0  0  0  0  0  0  0  0  0
  -18.0210  -28.0110   22.8890 C   0  0  0  0  0  0  0  0  0  0  0  0
  -20.5580  -28.3650   23.2380 C   0  0  0  0  0  3  0  0  0  0  0  0
  -20.7260  -26.9120   22.7360 C   0  0  0  0  0  2  0  0  0  0  0  0
  -19.6720  -26.5040   21.7010 C   0  0  0  0  0  2  0  0  0  0  0  0
  -18.2640  -26.6360   22.2880 C   0  0  0  0  0  2  0  0  0  0  0  0
  -19.0980  -28.8290   23.3190 C   0  0  0  0  0  0  0  0  0  0  0  0
  -18.8210  -30.1120   23.8360 C   0  0  0  0  0  3  0  0  0  0  0  0
  -17.4960  -30.5780   23.9340 C   0  0  0  0  0  3  0  0  0  0  0  0
  -16.4310  -29.7580   23.5200 C   0  0  0  0  0  3  0  0  0  0  0  0
  -16.6930  -28.4770   23.0010 C   0  0  0  0  0  3  0  0  0  0  0  0
  -25.8800  -32.5360   23.8140 C   0  0  0  0  0  3  0  0  0  0  0  0
  -26.4300  -31.7520   25.0680 C   0  0  1  0  0  0  0  0  0  0  0  0
  -25.3640  -31.5010   26.1600 C   0  0  0  0  0  1  0  0  0  0  0  0
  -27.0070  -30.3820   24.6440 C   0  0  0  0  0  1  0  0  0  0  0  0
  -27.5940  -32.5420   25.7110 C   0  0  0  0  0  1  0  0  0  0  0  0
  -25.5780  -33.9300   24.1660 N   0  0  0  0  0  0  0  0  0  0  0  0
  -25.8950  -34.9930   23.4130 C   0  0  0  0  0  0  0  0  0  0  0  0
  -26.5460  -34.9010   22.3670 O   0  0  0  0  0  0  0  0  0  0  0  0
  -25.0020  -34.0770   24.9820 H   0  0  0  0  0  0  0  0  0  0  0  0
  -24.1580  -36.7840   23.1130 C   0  0  0  0  0  1  0  0  0  0  0  0
  -25.4150  -36.3740   23.8950 C   0  0  0  0  0  3  0  0  0  0  0  0
  -27.5690  -37.2490   24.6880 C   0  0  0  0  0  1  0  0  0  0  0  0
  -26.4440  -37.4320   23.7750 N   0  0  0  0  0  0  0  0  0  0  0  0
  -26.0390  -38.3480   23.9510 H   0  0  0  0  0  0  0  0  0  0  0  0
  1  3  2  0
  2  1  1  0
  4  2  1  0
  5  1  1  0
  5 10  1  0
  7 10  2  0
  7 11  1  0
  8  6  2  0
  8 12  1  0
  9  6  1  0
  9 13  1  0
 10  8  1  0
 11  9  2  0
 14 22  1  0
 15 20  1  0
 16 17  1  0
 16 15  1  0
 18 17  1  0
 18 27  1  0
 18 19  1  0
 20 14  1  0
 20 19  1  0
 21 14  2  0
 22 23  1  0
 22 11  1  0
 24 25  2  0
 25 44  1  0
 26 25  1  0
 26 29  1  0
 27 28  1  0
 27 24  1  0
 28 26  2  0
 29 30  1  0
 30 31  2  0
 32 35  1  0
 32 31  1  0
 33 32  2  0
 34 33  1  0
 34 29  2  0
 35 36  1  0
 36 37  1  0
 37 38  2  0
 39 38  1  0
 39 43  1  0
 40 39  2  0
 41 36  2  0
 41 40  1  0
 42 41  1  0
 44 45  1  0
 45 48  1  0
 45 47  1  0
 46 44  2  0
 49 50  1  0
 49 24  1  0
 51 49  1  0
 52  2  1  0
 52 53  1  0
 54 56  1  0
 54 53  1  0
 55 66  2  0
 56 61  1  0
 57 65  1  0
 57 67  1  0
 58 64  1  0
 58 60  1  0
 59 65  1  0
 60 59  1  0
 61 60  2  0
 62 56  2  0
 63 62  1  0
 63 58  2  0
 64 57  1  0
 65 55  1  0
 67 69  2  0
 68 67  1  0
 70 68  1  0
 71 80  2  0
 71 76  1  0
 72 68  1  0
 72 76  1  0
 73 72  1  0
 74 75  1  0
 74 73  1  0
 75 71  1  0
 76 77  2  0
 77 78  1  0
 79 78  2  0
 80 79  1  0
 81 55  1  0
 81 86  1  0
 81 82  1  0
 82 85  1  1
 82 83  1  0
 84 82  1  0
 86 89  1  0
 87 91  1  0
 87 86  1  0
 88 87  2  0
 91 90  1  0
 93 91  1  0
 93 94  1  0
 93 92  1  0
M  ISO  4  14 100  22 100  53 101  54 101
M  END
>  <TORSDO>  (81) 
F 20

>  <SCORE>  (81) 
-11.799

>  <name>  (81) 
80

>  <ligand_id>  (81) 
80

>  <original_smiles>  (81) 
[H]c1c([H])c([H])c2c(c1[H])C([H])([H])C([H])([H])C([H])([H])C2([H])N([H])C(=O)C1([H])N(C(=O)C([H])(N([H])C(=O)C([H])(N([H])C([H])([H])[H])C([H])([H])[H])C(C([H])([H])[H])(C([H])([H])[H])C([H])([H])[H])C([H])([H])c2c([H])c(OC([H])([H])C([H])([H])N([H])C(=O)C([H])([H])c3c([H])c(N([H])C(=O)N4C([H])([H])C([H])([H])C([H])([H])C([H])(n5nc(-c6c([H])c([H])c(Oc7c([H])c([H])c(F)c([H])c7F)c([H])c6[H])c(C(=O)N([H])[H])c5N([H])[H])C4([H])[H])c(C([H])([H])[H])c([H])c3C([H])([H])[H])c([H])c([H])c2C1([H])[H]

>  <smiles>  (81) 
[H]c1c([H])c([H])c2c(c1[H])C([H])([H])C([H])([H])C([H])([H])C2([H])N([H])C(=O)C1([H])N(C(=O)C([H])(N([H])C(=O)C([H])(N([H])C([H])([H])[H])C([H])([H])[H])C(C([H])([H])[H])(C([H])([H])[H])C([H])([H])[H])C([H])([H])c2c([H])c(OC([H])([H])C([H])([H])N([H])C(=O)C([H])([H])c3c([H])c(N([H])C(=O)N4C([H])([H])C([H])([H])C([H])([H])C([H])(n5nc(-c6c([H])c([H])c(Oc7c([H])c([H])c(F)c([H])c7F)c([H])c6[H])c(C(=O)N([H])[H])c5N([H])[H])C4([H])[H])c(C([H])([H])[H])c([H])c3C([H])([H])[H])c([H])c([H])c2C1([H])[H]

$$$$
81:0:0
     RDKit          3D

 93102  0  0  1  0  0  0  0  0999 V2000
  -29.7880  -22.4040   20.8210 C   0  0  0  0  0  2  0  0  0  0  0  0
  -28.9930  -23.6640   20.8020 N   0  0  0  0  0  4  0  0  0  0  0  0
  -28.1950  -23.5390   21.4070 H   0  0  0  0  0  0  0  0  0  0  0  0
  -28.6440  -23.8190   19.8690 H   0  0  0  0  0  0  0  0  0  0  0  0
  -29.7470  -24.8740   21.2350 C   0  0  0  0  0  2  0  0  0  0  0  0
  -28.8690  -26.1400   21.3980 C   0  0  0  0  0  2  0  0  0  0  0  0
  -28.5040  -26.6960   20.1320 O   0  0  0  0  0  0  0  0  0  0  0  0
  -24.6010  -31.8280   23.2220 C   0  0  0  0  0  0  0  0  0  0  0  0
  -27.3530  -27.4490   20.1560 C   0  0  0  0  0  0  0  0  0  0  0  0
  -23.4350  -30.4100   21.5620 C   0  0  0  0  0  3  0  0  0  0  0  0
  -24.9320  -28.9030   20.1490 C   0  0  0  0  0  0  0  0  0  0  0  0
  -25.9540  -30.8150   21.3920 C   0  0  0  0  0  2  0  0  0  0  0  0
  -26.0720  -29.4460   20.7560 C   0  0  0  0  0  0  0  0  0  0  0  0
  -27.2870  -28.7230   20.7680 C   0  0  0  0  0  3  0  0  0  0  0  0
  -26.2030  -26.9220   19.5360 C   0  0  0  0  0  3  0  0  0  0  0  0
  -24.9900  -27.6370   19.5380 C   0  0  0  0  0  3  0  0  0  0  0  0
  -23.6710  -29.7390   20.1830 C   0  0  0  0  0  2  0  0  0  0  0  0
  -24.6810  -31.0320   22.1190 N   0  0  0  0  0  0  0  0  0  0  0  0
  -23.5100  -32.0790   23.7540 O   0  0  0  0  0  0  0  0  0  0  0  0
  -22.7930  -29.3750   22.5140 C   0  0  0  0  0  0  0  0  0  0  0  0
  -21.4690  -29.1830   22.3850 N   0  0  0  0  0  0  0  0  0  0  0  0
  -23.4820  -28.7470   23.3210 O   0  0  0  0  0  0  0  0  0  0  0  0
  -20.9740  -29.7430   21.7060 H   0  0  0  0  0  0  0  0  0  0  0  0
  -18.1040  -27.9680   22.8750 C   0  0  0  0  0  0  0  0  0  0  0  0
  -20.6600  -28.2330   23.1470 C   0  0  0  0  0  3  0  0  0  0  0  0
  -20.7690  -26.8090   22.5530 C   0  0  0  0  0  2  0  0  0  0  0  0
  -19.6670  -26.4950   21.5360 C   0  0  0  0  0  2  0  0  0  0  0  0
  -18.2850  -26.6270   22.1840 C   0  0  0  0  0  2  0  0  0  0  0  0
  -19.2200  -28.7280   23.3130 C   0  0  0  0  0  0  0  0  0  0  0  0
  -18.9970  -29.9850   23.9190 C   0  0  0  0  0  3  0  0  0  0  0  0
  -17.6910  -30.4790   24.0930 C   0  0  0  0  0  3  0  0  0  0  0  0
  -16.5890  -29.7140   23.6710 C   0  0  0  0  0  3  0  0  0  0  0  0
  -16.7960  -28.4610   23.0680 C   0  0  0  0  0  3  0  0  0  0  0  0
  -25.8710  -32.4770   23.8550 C   0  0  0  0  0  3  0  0  0  0  0  0
  -25.5350  -33.8660   24.1930 N   0  0  0  0  0  0  0  0  0  0  0  0
  -25.8430  -34.9290   23.4370 C   0  0  0  0  0  0  0  0  0  0  0  0
  -26.5100  -34.8430   22.4030 O   0  0  0  0  0  0  0  0  0  0  0  0
  -24.9410  -34.0060   24.9980 H   0  0  0  0  0  0  0  0  0  0  0  0
  -24.0650  -36.6760   23.1070 C   0  0  0  0  0  1  0  0  0  0  0  0
  -25.3270  -36.3040   23.9010 C   0  0  0  0  0  3  0  0  0  0  0  0
  -27.4510  -37.2390   24.7040 C   0  0  0  0  0  1  0  0  0  0  0  0
  -26.3320  -37.3820   23.7770 N   0  0  0  0  0  0  0  0  0  0  0  0
  -25.9060  -38.2910   23.9330 H   0  0  0  0  0  0  0  0  0  0  0  0
  -26.3970  -31.7040   25.1260 C   0  0  1  0  0  0  0  0  0  0  0  0
  -25.3040  -31.4380   26.1870 C   0  0  0  0  0  1  0  0  0  0  0  0
  -27.0060  -30.3420   24.7220 C   0  0  0  0  0  1  0  0  0  0  0  0
  -27.5300  -32.5130   25.8000 C   0  0  0  0  0  1  0  0  0  0  0  0
  -29.0020  -21.1750   20.2960 C   0  0  0  0  0  2  0  0  0  0  0  0
  -28.2850  -18.0480   20.7200 C   0  0  0  0  0  2  0  0  0  0  0  0
  -30.1200  -19.2270   21.6420 C   0  0  0  0  0  2  0  0  0  0  0  0
  -30.0450  -17.5490   19.2150 C   0  0  0  0  0  2  0  0  0  0  0  0
  -29.5390  -17.7940   21.5450 C   0  0  0  0  0  3  0  0  0  0  0  0
  -29.0560  -18.6820   19.5690 C   0  0  0  0  0  3  0  0  0  0  0  0
  -29.8130  -19.8480   20.2540 C   0  0  0  0  0  3  0  0  0  0  0  0
  -30.4070  -16.9340   20.5920 C   0  0  0  0  0  3  0  0  0  0  0  0
  -30.7550  -14.5020   20.0950 C   0  0  0  0  0  0  0  0  0  0  0  0
  -30.3960  -12.3700   18.9140 C   0  0  0  0  0  2  0  0  0  0  0  0
  -29.3950  -12.6110   17.7640 C   0  0  0  0  0  2  0  0  0  0  0  0
  -27.9430  -12.4660   18.2640 C   0  0  0  0  0  2  0  0  0  0  0  0
  -27.6740  -13.2730   19.5630 C   0  0  0  0  0  3  0  0  0  0  0  0
  -28.7820  -13.0180   20.6100 C   0  0  0  0  0  2  0  0  0  0  0  0
  -30.0800  -13.3270   19.9850 N   0  0  0  0  0  0  0  0  0  0  0  0
  -31.8480  -14.7030   19.5590 O   0  0  0  0  0  0  0  0  0  0  0  0
  -30.0730  -15.5040   20.6780 N   0  0  0  0  0  0  0  0  0  0  0  0
  -29.1860  -15.2610   21.0920 H   0  0  0  0  0  0  0  0  0  0  0  0
  -25.3090  -13.8680   20.3870 C   0  0  0  0  0  0  0  0  0  0  0  0
  -24.2610  -13.0900   20.8020 C   0  0  0  0  0  0  0  0  0  0  0  0
  -24.7230  -11.7400   20.7370 C   0  0  0  0  0  0  0  0  0  0  0  0
  -26.3440  -12.9920   20.1010 N   0  0  0  0  0  0  0  0  0  0  0  0
  -25.9970  -11.7070   20.3660 N   0  0  0  0  0  0  0  0  0  0  0  0
  -24.0090  -10.4750   20.9490 C   0  0  0  0  0  0  0  0  0  0  0  0
  -24.4650   -9.5180   21.8820 C   0  0  0  0  0  3  0  0  0  0  0  0
  -23.7520   -8.3160   22.0820 C   0  0  0  0  0  3  0  0  0  0  0  0
  -22.5680   -8.0640   21.3500 C   0  0  0  0  0  0  0  0  0  0  0  0
  -22.1300   -9.0100   20.4070 C   0  0  0  0  0  3  0  0  0  0  0  0
  -22.8440  -10.2030   20.2040 C   0  0  0  0  0  3  0  0  0  0  0  0
  -21.8240   -6.9140   21.4590 O   0  0  0  0  0  0  0  0  0  0  0  0
  -21.7650   -6.2030   22.6320 C   0  0  0  0  0  0  0  0  0  0  0  0
  -21.3240   -6.7910   23.8370 C   0  0  0  0  0  3  0  0  0  0  0  0
  -21.2130   -6.0070   25.0030 C   0  0  0  0  0  3  0  0  0  0  0  0
  -21.5320   -4.6360   24.9640 C   0  0  0  0  0  0  0  0  0  0  0  0
  -21.9660   -4.0480   23.7630 C   0  0  0  0  0  3  0  0  0  0  0  0
  -22.0790   -4.8300   22.5990 C   0  0  0  0  0  0  0  0  0  0  0  0
  -22.4770   -4.2540   21.4390 F   0  0  0  0  0  0  0  0  0  0  0  0
  -21.4180   -3.8810   26.0810 F   0  0  0  0  0  0  0  0  0  0  0  0
  -22.8780  -13.5630   21.1460 C   0  0  0  0  0  0  0  0  0  0  0  0
  -22.1980  -12.8620   22.0480 N   0  0  0  0  0  0  0  0  0  0  0  0
  -22.4100  -14.5880   20.6520 O   0  0  0  0  0  0  0  0  0  0  0  0
  -22.5890  -12.0330   22.4700 H   0  0  0  0  0  0  0  0  0  0  0  0
  -21.2720  -13.1610   22.3200 H   0  0  0  0  0  0  0  0  0  0  0  0
  -25.4610  -15.2400   20.2110 N   0  0  0  0  0  0  0  0  0  0  0  0
  -24.6930  -15.8880   20.3500 H   0  0  0  0  0  0  0  0  0  0  0  0
  -26.2840  -15.6780   19.8190 H   0  0  0  0  0  0  0  0  0  0  0  0
  2  1  1  0
  2  5  1  0
  2  3  1  0
  4  2  1  0
  5  6  1  0
  7  9  1  0
  7  6  1  0
  8 19  2  0
  9 14  1  0
 10 18  1  0
 10 20  1  0
 11 17  1  0
 11 13  1  0
 12 18  1  0
 13 14  2  0
 13 12  1  0
 15 16  1  0
 15  9  2  0
 16 11  2  0
 17 10  1  0
 18  8  1  0
 20 22  2  0
 21 20  1  0
 23 21  1  0
 24 33  2  0
 24 29  1  0
 25 21  1  0
 25 29  1  0
 26 25  1  0
 27 28  1  0
 27 26  1  0
 28 24  1  0
 29 30  2  0
 30 31  1  0
 32 31  2  0
 33 32  1  0
 34  8  1  0
 34 35  1  0
 34 44  1  0
 35 38  1  0
 36 40  1  0
 36 35  1  0
 37 36  2  0
 40 39  1  0
 42 40  1  0
 42 43  1  0
 42 41  1  0
 44 47  1  1
 44 45  1  0
 46 44  1  0
 48  1  1  0
 51 55  1  0
 52 49  1  0
 52 50  1  0
 53 51  1  0
 53 54  1  0
 53 49  1  0
 54 48  1  0
 54 50  1  0
 55 64  1  0
 55 52  1  0
 56 64  1  0
 57 62  1  0
 58 59  1  0
 58 57  1  0
 60 59  1  0
 60 69  1  0
 60 61  1  0
 62 56  1  0
 62 61  1  0
 63 56  2  0
 64 65  1  0
 66 67  2  0
 67 86  1  0
 68 67  1  0
 68 71  1  0
 69 70  1  0
 69 66  1  0
 70 68  2  0
 71 72  1  0
 72 73  2  0
 74 77  1  0
 74 73  1  0
 75 74  2  0
 76 75  1  0
 76 71  2  0
 77 78  1  0
 78 79  1  0
 79 80  2  0
 81 80  1  0
 81 85  1  0
 82 81  2  0
 83 78  2  0
 83 82  1  0
 84 83  1  0
 86 87  1  0
 87 90  1  0
 87 89  1  0
 88 86  2  0
 91 92  1  0
 91 66  1  0
 93 91  1  0
M  ISO  4   6 101   7 101  56 100  64 100
M  END
>  <TORSDO>  (82) 
F 21

>  <SCORE>  (82) 
-12.850

>  <name>  (82) 
81

>  <ligand_id>  (82) 
81

>  <original_smiles>  (82) 
[H]c1c([H])c([H])c2c(c1[H])C([H])([H])C([H])([H])C([H])([H])C2([H])N([H])C(=O)C1([H])N(C(=O)C([H])(N([H])C(=O)C([H])(N([H])C([H])([H])[H])C([H])([H])[H])C(C([H])([H])[H])(C([H])([H])[H])C([H])([H])[H])C([H])([H])c2c([H])c(OC([H])([H])C([H])([H])[N+]([H])([H])C([H])([H])C([H])([H])C3([H])C([H])([H])C4([H])C([H])([H])C3([H])C([H])([H])C4([H])N([H])C(=O)N3C([H])([H])C([H])([H])C([H])([H])C([H])(n4nc(-c5c([H])c([H])c(Oc6c([H])c([H])c(F)c([H])c6F)c([H])c5[H])c(C(=O)N([H])[H])c4N([H])[H])C3([H])[H])c([H])c([H])c2C1([H])[H]

>  <smiles>  (82) 
[H]c1c([H])c([H])c2c(c1[H])C([H])([H])C([H])([H])C([H])([H])C2([H])N([H])C(=O)C1([H])N(C(=O)C([H])(N([H])C(=O)C([H])(N([H])C([H])([H])[H])C([H])([H])[H])C(C([H])([H])[H])(C([H])([H])[H])C([H])([H])[H])C([H])([H])c2c([H])c(OC([H])([H])C([H])([H])[N+]([H])([H])C([H])([H])C([H])([H])C3([H])C([H])([H])C4([H])C([H])([H])C3([H])C([H])([H])C4([H])N([H])C(=O)N3C([H])([H])C([H])([H])C([H])([H])C([H])(n4nc(-c5c([H])c([H])c(Oc6c([H])c([H])c(F)c([H])c6F)c([H])c5[H])c(C(=O)N([H])[H])c4N([H])[H])C3([H])[H])c([H])c([H])c2C1([H])[H]

$$$$
82:0:0
     RDKit          3D

 90 98  0  0  1  0  0  0  0  0999 V2000
  -28.6440  -19.4940   19.8140 C   0  0  0  0  0  3  0  0  0  0  0  0
  -28.2970  -20.8970   19.6280 C   0  0  0  0  0  3  0  0  0  0  0  0
  -30.4900  -20.1750   21.1130 C   0  0  0  0  0  3  0  0  0  0  0  0
  -29.7880  -19.0530   20.5550 C   0  0  0  0  0  0  0  0  0  0  0  0
  -29.0370  -22.0210   20.1570 C   0  0  0  0  0  0  0  0  0  0  0  0
  -30.1500  -21.5710   20.9390 C   0  0  0  0  0  0  0  0  0  0  0  0
  -31.0710  -22.5990   21.5780 C   0  0  0  0  0  1  0  0  0  0  0  0
  -28.2310  -23.6500   18.2810 C   0  0  0  0  0  1  0  0  0  0  0  0
  -28.8320  -23.5930   19.6950 C   0  0  0  0  0  3  0  0  0  0  0  0
  -28.1310  -24.8140   20.5640 C   0  0  0  0  0  2  0  0  0  0  0  0
  -28.3010  -26.3060   20.2290 O   0  0  0  0  0  0  0  0  0  0  0  0
  -24.6060  -31.8860   23.2260 C   0  0  0  0  0  0  0  0  0  0  0  0
  -27.2030  -27.2170   20.2190 C   0  0  0  0  0  0  0  0  0  0  0  0
  -23.4040  -30.4790   21.5930 C   0  0  0  0  0  3  0  0  0  0  0  0
  -24.8560  -28.9000   20.1840 C   0  0  0  0  0  0  0  0  0  0  0  0
  -25.9510  -30.7700   21.4170 C   0  0  0  0  0  2  0  0  0  0  0  0
  -26.0310  -29.3770   20.7790 C   0  0  0  0  0  0  0  0  0  0  0  0
  -27.2090  -28.5500   20.7750 C   0  0  0  0  0  3  0  0  0  0  0  0
  -26.0030  -26.8190   19.5940 C   0  0  0  0  0  3  0  0  0  0  0  0
  -24.8500  -27.6330   19.5770 C   0  0  0  0  0  3  0  0  0  0  0  0
  -23.6240  -29.7890   20.2200 C   0  0  0  0  0  2  0  0  0  0  0  0
  -24.6730  -31.0660   22.1340 N   0  0  0  0  0  0  0  0  0  0  0  0
  -23.5210  -32.1690   23.7560 O   0  0  0  0  0  0  0  0  0  0  0  0
  -22.7310  -29.4770   22.5610 C   0  0  0  0  0  0  0  0  0  0  0  0
  -21.4030  -29.3070   22.4390 N   0  0  0  0  0  0  0  0  0  0  0  0
  -23.4050  -28.8520   23.3840 O   0  0  0  0  0  0  0  0  0  0  0  0
  -20.9150  -29.8630   21.7500 H   0  0  0  0  0  0  0  0  0  0  0  0
  -18.0220  -28.1200   22.9530 C   0  0  0  0  0  0  0  0  0  0  0  0
  -20.5810  -28.3750   23.2150 C   0  0  0  0  0  3  0  0  0  0  0  0
  -20.6780  -26.9420   22.6440 C   0  0  0  0  0  2  0  0  0  0  0  0
  -19.5740  -26.6170   21.6330 C   0  0  0  0  0  2  0  0  0  0  0  0
  -18.1950  -26.7680   22.2780 C   0  0  0  0  0  2  0  0  0  0  0  0
  -19.1430  -28.8810   23.3780 C   0  0  0  0  0  0  0  0  0  0  0  0
  -18.9280  -30.1450   23.9690 C   0  0  0  0  0  3  0  0  0  0  0  0
  -17.6250  -30.6500   24.1370 C   0  0  0  0  0  3  0  0  0  0  0  0
  -16.5180  -29.8870   23.7280 C   0  0  0  0  0  3  0  0  0  0  0  0
  -16.7170  -28.6230   23.1440 C   0  0  0  0  0  3  0  0  0  0  0  0
  -25.8850  -32.5250   23.8480 C   0  0  0  0  0  3  0  0  0  0  0  0
  -26.4000  -31.7620   25.1300 C   0  0  1  0  0  0  0  0  0  0  0  0
  -25.3050  -31.5310   26.1990 C   0  0  0  0  0  1  0  0  0  0  0  0
  -26.9820  -30.3800   24.7490 C   0  0  0  0  0  1  0  0  0  0  0  0
  -27.5500  -32.5570   25.7900 C   0  0  0  0  0  1  0  0  0  0  0  0
  -25.5720  -33.9260   24.1760 N   0  0  0  0  0  0  0  0  0  0  0  0
  -25.9050  -34.9800   23.4200 C   0  0  0  0  0  0  0  0  0  0  0  0
  -26.5750  -34.8770   22.3890 O   0  0  0  0  0  0  0  0  0  0  0  0
  -24.9800  -34.0780   24.9790 H   0  0  0  0  0  0  0  0  0  0  0  0
  -24.1820  -36.7790   23.0650 C   0  0  0  0  0  1  0  0  0  0  0  0
  -25.4200  -36.3700   23.8790 C   0  0  0  0  0  3  0  0  0  0  0  0
  -27.5540  -37.2510   24.7170 C   0  0  0  0  0  1  0  0  0  0  0  0
  -26.4550  -37.4210   23.7700 N   0  0  0  0  0  0  0  0  0  0  0  0
  -26.0500  -38.3420   23.9150 H   0  0  0  0  0  0  0  0  0  0  0  0
  -30.4190  -17.5470   20.7570 C   0  0  0  0  0  2  0  0  0  0  0  0
  -30.5630  -14.9080   20.3570 C   0  0  0  0  0  0  0  0  0  0  0  0
  -30.3910  -12.5960   19.3660 C   0  0  0  0  0  2  0  0  0  0  0  0
  -29.4440  -12.5820   18.1480 C   0  0  0  0  0  2  0  0  0  0  0  0
  -27.9870  -12.3680   18.5990 C   0  0  0  0  0  2  0  0  0  0  0  0
  -27.5960  -13.2810   19.7930 C   0  0  0  0  0  3  0  0  0  0  0  0
  -28.6640  -13.2780   20.9060 C   0  0  0  0  0  2  0  0  0  0  0  0
  -29.9320  -13.6770   20.2820 N   0  0  0  0  0  0  0  0  0  0  0  0
  -31.7640  -14.9530   20.0720 O   0  0  0  0  0  0  0  0  0  0  0  0
  -29.8430  -16.1090   20.5600 N   0  0  0  0  0  0  0  0  0  0  0  0
  -28.8520  -16.0070   20.7190 H   0  0  0  0  0  0  0  0  0  0  0  0
  -25.2140  -13.8430   20.5520 C   0  0  0  0  0  0  0  0  0  0  0  0
  -24.1590  -13.0600   20.9290 C   0  0  0  0  0  0  0  0  0  0  0  0
  -24.6330  -11.7120   20.8930 C   0  0  0  0  0  0  0  0  0  0  0  0
  -26.2630  -12.9730   20.3010 N   0  0  0  0  0  0  0  0  0  0  0  0
  -25.9220  -11.6850   20.5750 N   0  0  0  0  0  0  0  0  0  0  0  0
  -23.9170  -10.4440   21.0820 C   0  0  0  0  0  0  0  0  0  0  0  0
  -24.3700   -9.4690   22.0000 C   0  0  0  0  0  3  0  0  0  0  0  0
  -23.6520   -8.2660   22.1800 C   0  0  0  0  0  3  0  0  0  0  0  0
  -22.4680   -8.0300   21.4410 C   0  0  0  0  0  0  0  0  0  0  0  0
  -22.0340   -8.9930   20.5150 C   0  0  0  0  0  3  0  0  0  0  0  0
  -22.7510  -10.1880   20.3330 C   0  0  0  0  0  3  0  0  0  0  0  0
  -21.7190   -6.8810   21.5330 O   0  0  0  0  0  0  0  0  0  0  0  0
  -21.7000   -6.1230   22.6760 C   0  0  0  0  0  0  0  0  0  0  0  0
  -21.3000   -6.6580   23.9200 C   0  0  0  0  0  3  0  0  0  0  0  0
  -21.2290   -5.8260   25.0550 C   0  0  0  0  0  3  0  0  0  0  0  0
  -21.5490   -4.4580   24.9480 C   0  0  0  0  0  0  0  0  0  0  0  0
  -21.9410   -3.9220   23.7100 C   0  0  0  0  0  3  0  0  0  0  0  0
  -22.0140   -4.7530   22.5770 C   0  0  0  0  0  0  0  0  0  0  0  0
  -22.3730   -4.2250   21.3820 F   0  0  0  0  0  0  0  0  0  0  0  0
  -21.4740   -3.6570   26.0370 F   0  0  0  0  0  0  0  0  0  0  0  0
  -22.7600  -13.5260   21.2090 C   0  0  0  0  0  0  0  0  0  0  0  0
  -22.0400  -12.8250   22.0770 N   0  0  0  0  0  0  0  0  0  0  0  0
  -22.3140  -14.5510   20.6930 O   0  0  0  0  0  0  0  0  0  0  0  0
  -22.4110  -11.9970   22.5190 H   0  0  0  0  0  0  0  0  0  0  0  0
  -21.1020  -13.1250   22.3040 H   0  0  0  0  0  0  0  0  0  0  0  0
  -25.3660  -15.2140   20.3740 N   0  0  0  0  0  0  0  0  0  0  0  0
  -24.5940  -15.8620   20.4890 H   0  0  0  0  0  0  0  0  0  0  0  0
  -26.2020  -15.6580   20.0150 H   0  0  0  0  0  0  0  0  0  0  0  0
  1  4  1  0
  2  1  2  0
  2  5  1  0
  4 52  1  0
  4  3  2  0
  5  6  2  0
  6  3  1  0
  6  7  1  0
  9  8  1  0
  9  5  1  0
  9 10  1  0
 11 10  1  0
 12 23  2  0
 13 11  1  0
 13 18  1  0
 14 22  1  0
 14 24  1  0
 15 21  1  0
 15 17  1  0
 16 22  1  0
 17 16  1  0
 18 17  2  0
 19 13  2  0
 20 19  1  0
 20 15  2  0
 21 14  1  0
 22 12  1  0
 24 26  2  0
 25 24  1  0
 27 25  1  0
 28 37  2  0
 28 33  1  0
 29 25  1  0
 29 33  1  0
 30 29  1  0
 31 32  1  0
 31 30  1  0
 32 28  1  0
 33 34  2  0
 34 35  1  0
 36 35  2  0
 37 36  1  0
 38 12  1  0
 38 43  1  0
 38 39  1  0
 39 42  1  1
 39 40  1  0
 41 39  1  0
 43 46  1  0
 44 48  1  0
 44 43  1  0
 45 44  2  0
 48 47  1  0
 50 48  1  0
 50 51  1  0
 50 49  1  0
 53 61  1  0
 54 59  1  0
 55 56  1  0
 55 54  1  0
 57 56  1  0
 57 66  1  0
 57 58  1  0
 59 53  1  0
 59 58  1  0
 60 53  2  0
 61 62  1  0
 61 52  1  0
 63 64  2  0
 64 83  1  0
 65 64  1  0
 65 68  1  0
 66 63  1  0
 66 67  1  0
 67 65  2  0
 68 69  1  0
 69 70  2  0
 71 74  1  0
 71 70  1  0
 72 71  2  0
 73 72  1  0
 73 68  2  0
 74 75  1  0
 75 76  1  0
 76 77  2  0
 78 77  1  0
 78 82  1  0
 79 78  2  0
 80 75  2  0
 80 79  1  0
 81 80  1  0
 83 84  1  0
 84 87  1  0
 84 86  1  0
 85 83  2  0
 88 89  1  0
 88 63  1  0
 90 88  1  0
M  ISO  4  10 101  11 101  53 100  61 100
M  END
>  <TORSDO>  (83) 
F 19

>  <SCORE>  (83) 
-14.271

>  <name>  (83) 
82

>  <ligand_id>  (83) 
82

>  <original_smiles>  (83) 
[H]c1c([H])c([H])c2c(c1[H])C([H])([H])C([H])([H])C([H])([H])C2([H])N([H])C(=O)C1([H])N(C(=O)C([H])(N([H])C(=O)C([H])(N([H])C([H])([H])[H])C([H])([H])[H])C(C([H])([H])[H])(C([H])([H])[H])C([H])([H])[H])C([H])([H])c2c([H])c(OC([H])([H])C([H])(c3c([H])c([H])c(C([H])([H])N([H])C(=O)N4C([H])([H])C([H])([H])C([H])([H])C([H])(n5nc(-c6c([H])c([H])c(Oc7c([H])c([H])c(F)c([H])c7F)c([H])c6[H])c(C(=O)N([H])[H])c5N([H])[H])C4([H])[H])c([H])c3C([H])([H])[H])C([H])([H])[H])c([H])c([H])c2C1([H])[H]

>  <smiles>  (83) 
[H]c1c([H])c([H])c2c(c1[H])C([H])([H])C([H])([H])C([H])([H])C2([H])N([H])C(=O)C1([H])N(C(=O)C([H])(N([H])C(=O)C([H])(N([H])C([H])([H])[H])C([H])([H])[H])C(C([H])([H])[H])(C([H])([H])[H])C([H])([H])[H])C([H])([H])c2c([H])c(OC([H])([H])C([H])(c3c([H])c([H])c(C([H])([H])N([H])C(=O)N4C([H])([H])C([H])([H])C([H])([H])C([H])(n5nc(-c6c([H])c([H])c(Oc7c([H])c([H])c(F)c([H])c7F)c([H])c6[H])c(C(=O)N([H])[H])c5N([H])[H])C4([H])[H])c([H])c3C([H])([H])[H])C([H])([H])[H])c([H])c([H])c2C1([H])[H]

$$$$
83:0:0
     RDKit          3D

 92100  0  0  1  0  0  0  0  0999 V2000
  -28.0140  -21.8170   20.1870 C   0  0  0  0  0  2  0  0  0  0  0  0
  -28.8190  -18.0140   20.8980 C   0  0  0  0  0  2  0  0  0  0  0  0
  -31.0000  -19.2810   20.7010 C   0  0  0  0  0  2  0  0  0  0  0  0
  -28.0810  -19.2490   20.3320 C   0  0  0  0  0  2  0  0  0  0  0  0
  -30.2440  -20.4870   20.1130 C   0  0  0  0  0  2  0  0  0  0  0  0
  -30.2930  -17.9340   20.4390 C   0  0  0  0  0  3  0  0  0  0  0  0
  -28.8080  -20.5710   20.6710 C   0  0  0  0  0  3  0  0  0  0  0  0
  -31.0660  -16.7850   21.1350 C   0  0  0  0  0  2  0  0  0  0  0  0
  -31.0560  -14.4980   20.1390 C   0  0  0  0  0  0  0  0  0  0  0  0
  -30.6530  -12.3750   18.9520 C   0  0  0  0  0  2  0  0  0  0  0  0
  -29.6880  -12.6160   17.7740 C   0  0  0  0  0  2  0  0  0  0  0  0
  -28.2220  -12.5130   18.2400 C   0  0  0  0  0  2  0  0  0  0  0  0
  -27.9380  -13.3530   19.5130 C   0  0  0  0  0  3  0  0  0  0  0  0
  -29.0100  -13.0910   20.5950 C   0  0  0  0  0  2  0  0  0  0  0  0
  -30.3310  -13.3570   20.0000 N   0  0  0  0  0  0  0  0  0  0  0  0
  -32.1330  -14.6820   19.5650 O   0  0  0  0  0  0  0  0  0  0  0  0
  -30.4910  -15.4590   20.8850 N   0  0  0  0  0  0  0  0  0  0  0  0
  -29.6020  -15.2460   21.3130 H   0  0  0  0  0  0  0  0  0  0  0  0
  -25.5670  -14.0180   20.2630 C   0  0  0  0  0  0  0  0  0  0  0  0
  -24.4900  -13.2700   20.6550 C   0  0  0  0  0  0  0  0  0  0  0  0
  -24.9200  -11.9090   20.6230 C   0  0  0  0  0  0  0  0  0  0  0  0
  -26.5880  -13.1120   20.0180 N   0  0  0  0  0  0  0  0  0  0  0  0
  -26.2030  -11.8390   20.2910 N   0  0  0  0  0  0  0  0  0  0  0  0
  -24.1720  -10.6630   20.8330 C   0  0  0  0  0  0  0  0  0  0  0  0
  -24.5650   -9.7200   21.8090 C   0  0  0  0  0  3  0  0  0  0  0  0
  -23.8170   -8.5390   22.0040 C   0  0  0  0  0  3  0  0  0  0  0  0
  -22.6630   -8.2910   21.2240 C   0  0  0  0  0  0  0  0  0  0  0  0
  -22.2900   -9.2220   20.2370 C   0  0  0  0  0  3  0  0  0  0  0  0
  -23.0380  -10.3950   20.0400 C   0  0  0  0  0  3  0  0  0  0  0  0
  -21.8910   -7.1600   21.3260 O   0  0  0  0  0  0  0  0  0  0  0  0
  -21.7540   -6.4860   22.5140 C   0  0  0  0  0  0  0  0  0  0  0  0
  -21.2470   -7.1140   23.6720 C   0  0  0  0  0  3  0  0  0  0  0  0
  -21.0590   -6.3670   24.8520 C   0  0  0  0  0  3  0  0  0  0  0  0
  -21.3660   -4.9930   24.8730 C   0  0  0  0  0  0  0  0  0  0  0  0
  -21.8660   -4.3650   23.7190 C   0  0  0  0  0  3  0  0  0  0  0  0
  -22.0570   -5.1100   22.5420 C   0  0  0  0  0  0  0  0  0  0  0  0
  -22.5180   -4.4950   21.4250 F   0  0  0  0  0  0  0  0  0  0  0  0
  -21.1800   -4.2740   26.0040 F   0  0  0  0  0  0  0  0  0  0  0  0
  -23.1090  -13.7780   20.9550 C   0  0  0  0  0  0  0  0  0  0  0  0
  -22.3860  -13.1010   21.8410 N   0  0  0  0  0  0  0  0  0  0  0  0
  -22.6800  -14.8100   20.4400 O   0  0  0  0  0  0  0  0  0  0  0  0
  -22.7440  -12.2650   22.2760 H   0  0  0  0  0  0  0  0  0  0  0  0
  -21.4600  -13.4230   22.0850 H   0  0  0  0  0  0  0  0  0  0  0  0
  -25.7620  -15.3830   20.0730 N   0  0  0  0  0  0  0  0  0  0  0  0
  -25.0170  -16.0610   20.1910 H   0  0  0  0  0  0  0  0  0  0  0  0
  -26.6200  -15.7940   19.7310 H   0  0  0  0  0  0  0  0  0  0  0  0
  -28.7350  -23.0940   20.4180 N   0  0  0  0  0  4  0  0  0  0  0  0
  -29.4650  -23.1700   19.7260 H   0  0  0  0  0  0  0  0  0  0  0  0
  -29.1850  -23.0480   21.3190 H   0  0  0  0  0  0  0  0  0  0  0  0
  -27.9050  -24.3300   20.3940 C   0  0  0  0  0  2  0  0  0  0  0  0
  -28.5260  -25.4570   19.5310 C   0  0  0  0  0  2  0  0  0  0  0  0
  -28.4090  -26.7560   20.1270 O   0  0  0  0  0  0  0  0  0  0  0  0
  -24.5840  -31.8780   23.2240 C   0  0  0  0  0  0  0  0  0  0  0  0
  -27.2120  -27.4400   20.1110 C   0  0  0  0  0  0  0  0  0  0  0  0
  -23.3740  -30.4900   21.5690 C   0  0  0  0  0  3  0  0  0  0  0  0
  -24.8210  -28.9530   20.1390 C   0  0  0  0  0  0  0  0  0  0  0  0
  -25.9010  -30.8340   21.3830 C   0  0  0  0  0  2  0  0  0  0  0  0
  -25.9780  -29.4680   20.7330 C   0  0  0  0  0  0  0  0  0  0  0  0
  -27.1720  -28.7160   20.7210 C   0  0  0  0  0  3  0  0  0  0  0  0
  -26.0340  -26.9380   19.5140 C   0  0  0  0  0  3  0  0  0  0  0  0
  -24.8430  -27.6860   19.5310 C   0  0  0  0  0  3  0  0  0  0  0  0
  -23.5810  -29.8160   20.1860 C   0  0  0  0  0  2  0  0  0  0  0  0
  -24.6370  -31.0830   22.1170 N   0  0  0  0  0  0  0  0  0  0  0  0
  -23.5030  -32.1540   23.7630 O   0  0  0  0  0  0  0  0  0  0  0  0
  -22.7150  -29.4690   22.5220 C   0  0  0  0  0  0  0  0  0  0  0  0
  -21.3900  -29.2940   22.3860 N   0  0  0  0  0  0  0  0  0  0  0  0
  -23.3920  -28.8350   23.3350 O   0  0  0  0  0  0  0  0  0  0  0  0
  -20.9060  -29.8590   21.7030 H   0  0  0  0  0  0  0  0  0  0  0  0
  -18.0070  -28.1160   22.8540 C   0  0  0  0  0  0  0  0  0  0  0  0
  -20.5640  -28.3560   23.1460 C   0  0  0  0  0  3  0  0  0  0  0  0
  -20.6640  -26.9280   22.5610 C   0  0  0  0  0  2  0  0  0  0  0  0
  -19.5670  -26.6170   21.5390 C   0  0  0  0  0  2  0  0  0  0  0  0
  -18.1810  -26.7700   22.1720 C   0  0  0  0  0  2  0  0  0  0  0  0
  -19.1280  -28.8690   23.2960 C   0  0  0  0  0  0  0  0  0  0  0  0
  -18.9140  -30.1320   23.8880 C   0  0  0  0  0  3  0  0  0  0  0  0
  -17.6110  -30.6410   24.0460 C   0  0  0  0  0  3  0  0  0  0  0  0
  -16.5050  -29.8850   23.6240 C   0  0  0  0  0  3  0  0  0  0  0  0
  -16.7030  -28.6240   23.0330 C   0  0  0  0  0  3  0  0  0  0  0  0
  -25.8730  -32.4960   23.8510 C   0  0  0  0  0  3  0  0  0  0  0  0
  -25.5770  -33.8960   24.1820 N   0  0  0  0  0  0  0  0  0  0  0  0
  -25.9320  -34.9470   23.4300 C   0  0  0  0  0  0  0  0  0  0  0  0
  -26.6140  -34.8390   22.4070 O   0  0  0  0  0  0  0  0  0  0  0  0
  -24.9830  -34.0550   24.9820 H   0  0  0  0  0  0  0  0  0  0  0  0
  -24.2350  -36.7600   23.0460 C   0  0  0  0  0  1  0  0  0  0  0  0
  -25.4520  -36.3380   23.8850 C   0  0  0  0  0  3  0  0  0  0  0  0
  -27.5770  -37.1890   24.7730 C   0  0  0  0  0  1  0  0  0  0  0  0
  -26.5010  -37.3770   23.8030 N   0  0  0  0  0  0  0  0  0  0  0  0
  -26.1040  -38.3020   23.9480 H   0  0  0  0  0  0  0  0  0  0  0  0
  -26.3810  -31.7160   25.1260 C   0  0  1  0  0  0  0  0  0  0  0  0
  -25.2820  -31.4780   26.1890 C   0  0  0  0  0  1  0  0  0  0  0  0
  -26.9580  -30.3380   24.7260 C   0  0  0  0  0  1  0  0  0  0  0  0
  -27.5320  -32.5020   25.7970 C   0  0  0  0  0  1  0  0  0  0  0  0
  1 47  1  0
  4  7  1  0
  4  2  1  0
  5  7  1  0
  5  3  1  0
  6  3  1  0
  6  2  1  0
  6  8  1  0
  7  1  1  0
  9 17  1  0
 10 15  1  0
 11 12  1  0
 11 10  1  0
 13 12  1  0
 13 22  1  0
 13 14  1  0
 15  9  1  0
 15 14  1  0
 16  9  2  0
 17  8  1  0
 17 18  1  0
 19 20  2  0
 20 39  1  0
 21 20  1  0
 21 24  1  0
 22 19  1  0
 22 23  1  0
 23 21  2  0
 24 25  1  0
 25 26  2  0
 27 30  1  0
 27 26  1  0
 28 27  2  0
 29 28  1  0
 29 24  2  0
 30 31  1  0
 31 36  2  0
 31 32  1  0
 32 33  2  0
 33 34  1  0
 34 38  1  0
 35 34  2  0
 36 35  1  0
 37 36  1  0
 39 40  1  0
 40 43  1  0
 40 42  1  0
 41 39  2  0
 44 45  1  0
 44 19  1  0
 46 44  1  0
 47 49  1  0
 48 47  1  0
 50 47  1  0
 51 52  1  0
 51 50  1  0
 53 64  2  0
 54 52  1  0
 54 59  1  0
 55 63  1  0
 55 65  1  0
 56 62  1  0
 56 58  1  0
 57 63  1  0
 58 57  1  0
 59 58  2  0
 60 61  1  0
 60 54  2  0
 61 56  2  0
 62 55  1  0
 63 53  1  0
 65 67  2  0
 66 65  1  0
 68 66  1  0
 69 78  2  0
 69 74  1  0
 70 66  1  0
 70 74  1  0
 71 70  1  0
 72 73  1  0
 72 71  1  0
 73 69  1  0
 74 75  2  0
 75 76  1  0
 77 76  2  0
 78 77  1  0
 79 53  1  0
 79 80  1  0
 79 89  1  0
 80 83  1  0
 81 85  1  0
 81 80  1  0
 82 81  2  0
 85 84  1  0
 87 85  1  0
 87 88  1  0
 87 86  1  0
 89 92  1  1
 89 90  1  0
 91 89  1  0
M  ISO  4   9 100  17 100  51 101  52 101
M  END
>  <TORSDO>  (84) 
F 21

>  <SCORE>  (84) 
-13.247

>  <name>  (84) 
83

>  <ligand_id>  (84) 
83

>  <original_smiles>  (84) 
[H]c1c([H])c([H])c2c(c1[H])C([H])([H])C([H])([H])C([H])([H])C2([H])N([H])C(=O)C1([H])N(C(=O)C([H])(N([H])C(=O)C([H])(N([H])C([H])([H])[H])C([H])([H])[H])C(C([H])([H])[H])(C([H])([H])[H])C([H])([H])[H])C([H])([H])c2c([H])c(OC([H])([H])C([H])([H])[N+]([H])([H])C([H])([H])C3([H])C([H])([H])C([H])([H])C([H])(C([H])([H])N([H])C(=O)N4C([H])([H])C([H])([H])C([H])([H])C([H])(n5nc(-c6c([H])c([H])c(Oc7c([H])c([H])c(F)c([H])c7F)c([H])c6[H])c(C(=O)N([H])[H])c5N([H])[H])C4([H])[H])C([H])([H])C3([H])[H])c([H])c([H])c2C1([H])[H]

>  <smiles>  (84) 
[H]c1c([H])c([H])c2c(c1[H])C([H])([H])C([H])([H])C([H])([H])C2([H])N([H])C(=O)C1([H])N(C(=O)C([H])(N([H])C(=O)C([H])(N([H])C([H])([H])[H])C([H])([H])[H])C(C([H])([H])[H])(C([H])([H])[H])C([H])([H])[H])C([H])([H])c2c([H])c(OC([H])([H])C([H])([H])[N+]([H])([H])C([H])([H])C3([H])C([H])([H])C([H])([H])C([H])(C([H])([H])N([H])C(=O)N4C([H])([H])C([H])([H])C([H])([H])C([H])(n5nc(-c6c([H])c([H])c(Oc7c([H])c([H])c(F)c([H])c7F)c([H])c6[H])c(C(=O)N([H])[H])c5N([H])[H])C4([H])[H])C([H])([H])C3([H])[H])c([H])c([H])c2C1([H])[H]

$$$$
84:0:0
     RDKit          3D

 91 99  0  0  1  0  0  0  0  0999 V2000
  -30.5410  -22.4700   20.2510 C   0  0  0  0  0  2  0  0  0  0  0  0
  -31.0120  -20.9270   20.3390 C   0  0  0  0  0  2  0  0  0  0  0  0
  -28.7360  -21.0340   20.1460 C   0  0  0  0  0  2  0  0  0  0  0  0
  -29.0310  -22.6830   20.5570 C   0  0  0  0  0  3  0  0  0  0  0  0
  -29.8880  -19.8270   20.5790 C   0  0  1  0  0  0  0  0  0  0  0  0
  -28.1990  -24.2280   20.0990 C   0  0  0  0  0  2  0  0  0  0  0  0
  -28.3250  -25.8400   20.4340 O   0  0  0  0  0  0  0  0  0  0  0  0
  -24.6580  -31.8340   23.1650 C   0  0  0  0  0  0  0  0  0  0  0  0
  -27.3060  -26.9220   20.2900 C   0  0  0  0  0  0  0  0  0  0  0  0
  -23.5010  -30.3880   21.5420 C   0  0  0  0  0  3  0  0  0  0  0  0
  -24.9870  -28.7730   20.1660 C   0  0  0  0  0  0  0  0  0  0  0  0
  -26.0660  -30.6250   21.4260 C   0  0  0  0  0  2  0  0  0  0  0  0
  -26.1590  -29.2040   20.8010 C   0  0  0  0  0  0  0  0  0  0  0  0
  -27.3100  -28.2970   20.8400 C   0  0  0  0  0  3  0  0  0  0  0  0
  -26.1090  -26.6470   19.5910 C   0  0  0  0  0  3  0  0  0  0  0  0
  -24.9880  -27.5170   19.5390 C   0  0  0  0  0  3  0  0  0  0  0  0
  -23.7550  -29.6790   20.1820 C   0  0  0  0  0  2  0  0  0  0  0  0
  -24.7630  -30.9780   22.0970 N   0  0  0  0  0  0  0  0  0  0  0  0
  -23.5580  -32.1230   23.6640 O   0  0  0  0  0  0  0  0  0  0  0  0
  -22.8050  -29.4060   22.5190 C   0  0  0  0  0  0  0  0  0  0  0  0
  -21.4820  -29.2050   22.3640 N   0  0  0  0  0  0  0  0  0  0  0  0
  -23.4610  -28.8230   23.3860 O   0  0  0  0  0  0  0  0  0  0  0  0
  -21.0070  -29.7270   21.6420 H   0  0  0  0  0  0  0  0  0  0  0  0
  -18.1230  -27.9020   22.7900 C   0  0  0  0  0  0  0  0  0  0  0  0
  -20.6600  -28.2730   23.1420 C   0  0  0  0  0  3  0  0  0  0  0  0
  -20.8330  -26.8220   22.6350 C   0  0  0  0  0  2  0  0  0  0  0  0
  -19.7850  -26.4170   21.5930 C   0  0  0  0  0  2  0  0  0  0  0  0
  -18.3750  -26.5360   22.1770 C   0  0  0  0  0  2  0  0  0  0  0  0
  -19.1950  -28.7250   23.2280 C   0  0  0  0  0  0  0  0  0  0  0  0
  -18.9050  -29.9990   23.7620 C   0  0  0  0  0  3  0  0  0  0  0  0
  -17.5750  -30.4520   23.8640 C   0  0  0  0  0  3  0  0  0  0  0  0
  -16.5190  -29.6280   23.4390 C   0  0  0  0  0  3  0  0  0  0  0  0
  -16.7920  -28.3560   22.9090 C   0  0  0  0  0  3  0  0  0  0  0  0
  -25.9130  -32.5030   23.8020 C   0  0  0  0  0  3  0  0  0  0  0  0
  -26.4330  -31.7470   25.0880 C   0  0  1  0  0  0  0  0  0  0  0  0
  -25.3320  -31.4790   26.1420 C   0  0  0  0  0  1  0  0  0  0  0  0
  -27.0610  -30.3860   24.7120 C   0  0  0  0  0  1  0  0  0  0  0  0
  -27.5520  -32.5730   25.7640 C   0  0  0  0  0  1  0  0  0  0  0  0
  -25.5620  -33.8950   24.1390 N   0  0  0  0  0  0  0  0  0  0  0  0
  -25.8770  -34.9660   23.4000 C   0  0  0  0  0  0  0  0  0  0  0  0
  -26.5530  -34.8910   22.3710 O   0  0  0  0  0  0  0  0  0  0  0  0
  -24.9600  -34.0250   24.9390 H   0  0  0  0  0  0  0  0  0  0  0  0
  -24.1160  -36.7370   23.0600 C   0  0  0  0  0  1  0  0  0  0  0  0
  -25.3600  -36.3410   23.8740 C   0  0  0  0  0  3  0  0  0  0  0  0
  -27.4640  -37.2660   24.7400 C   0  0  0  0  0  1  0  0  0  0  0  0
  -26.3730  -37.4160   23.7820 N   0  0  0  0  0  0  0  0  0  0  0  0
  -25.9460  -38.3280   23.9260 H   0  0  0  0  0  0  0  0  0  0  0  0
  -30.3050  -18.2190   19.8420 C   0  0  0  0  0  2  0  0  0  0  0  0
  -30.8290  -15.3240   19.9890 C   0  0  0  0  0  0  0  0  0  0  0  0
  -30.6830  -12.9200   19.0280 C   0  0  0  0  0  2  0  0  0  0  0  0
  -29.6910  -12.8050   17.8420 C   0  0  0  0  0  2  0  0  0  0  0  0
  -28.2590  -12.5570   18.3460 C   0  0  0  0  0  2  0  0  0  0  0  0
  -27.9010  -13.4710   19.5450 C   0  0  0  0  0  3  0  0  0  0  0  0
  -29.0150  -13.5390   20.6130 C   0  0  0  0  0  2  0  0  0  0  0  0
  -30.2290  -14.0350   19.9410 N   0  0  0  0  0  0  0  0  0  0  0  0
  -32.0140  -15.3170   19.6260 O   0  0  0  0  0  0  0  0  0  0  0  0
  -30.1240  -16.6050   20.2440 N   0  0  0  0  0  0  0  0  0  0  0  0
  -29.1870  -16.4110   20.5680 H   0  0  0  0  0  0  0  0  0  0  0  0
  -25.5940  -14.0450   20.4650 C   0  0  0  0  0  0  0  0  0  0  0  0
  -24.5370  -13.2760   20.8630 C   0  0  0  0  0  0  0  0  0  0  0  0
  -24.9670  -11.9180   20.7420 C   0  0  0  0  0  0  0  0  0  0  0  0
  -26.5980  -13.1610   20.1160 N   0  0  0  0  0  0  0  0  0  0  0  0
  -26.2370  -11.8700   20.3500 N   0  0  0  0  0  0  0  0  0  0  0  0
  -24.2190  -10.6650   20.9190 C   0  0  0  0  0  0  0  0  0  0  0  0
  -24.6160   -9.6940   21.8640 C   0  0  0  0  0  3  0  0  0  0  0  0
  -23.8670   -8.5090   22.0300 C   0  0  0  0  0  3  0  0  0  0  0  0
  -22.7060   -8.2860   21.2520 C   0  0  0  0  0  0  0  0  0  0  0  0
  -22.3290   -9.2450   20.2950 C   0  0  0  0  0  3  0  0  0  0  0  0
  -23.0780  -10.4220   20.1290 C   0  0  0  0  0  3  0  0  0  0  0  0
  -21.9330   -7.1520   21.3270 O   0  0  0  0  0  0  0  0  0  0  0  0
  -21.7580   -6.4760   22.5070 C   0  0  0  0  0  0  0  0  0  0  0  0
  -21.1750   -7.0880   23.6390 C   0  0  0  0  0  3  0  0  0  0  0  0
  -20.9530   -6.3370   24.8110 C   0  0  0  0  0  3  0  0  0  0  0  0
  -21.2990   -4.9710   24.8490 C   0  0  0  0  0  0  0  0  0  0  0  0
  -21.8730   -4.3600   23.7210 C   0  0  0  0  0  3  0  0  0  0  0  0
  -22.0990   -5.1090   22.5540 C   0  0  0  0  0  0  0  0  0  0  0  0
  -22.6330   -4.5110   21.4620 F   0  0  0  0  0  0  0  0  0  0  0  0
  -21.0790   -4.2450   25.9700 F   0  0  0  0  0  0  0  0  0  0  0  0
  -23.1710  -13.7710   21.2380 C   0  0  0  0  0  0  0  0  0  0  0  0
  -22.4820  -13.0620   22.1230 N   0  0  0  0  0  0  0  0  0  0  0  0
  -22.7260  -14.8210   20.7760 O   0  0  0  0  0  0  0  0  0  0  0  0
  -22.8580  -12.2130   22.5210 H   0  0  0  0  0  0  0  0  0  0  0  0
  -21.5640  -13.3710   22.4090 H   0  0  0  0  0  0  0  0  0  0  0  0
  -25.7780  -15.4210   20.3410 N   0  0  0  0  0  0  0  0  0  0  0  0
  -25.0250  -16.0760   20.5190 H   0  0  0  0  0  0  0  0  0  0  0  0
  -26.5970  -15.8560   19.9370 H   0  0  0  0  0  0  0  0  0  0  0  0
  -29.7020  -19.5710   22.0960 C   0  0  0  0  0  2  0  0  0  0  0  0
  -30.9240  -19.0630   22.7460 N   0  0  0  0  0  4  0  0  0  0  0  0
  -31.2290  -18.2140   22.3030 H   0  0  0  0  0  0  0  0  0  0  0  0
  -30.7460  -18.8770   23.7160 H   0  0  0  0  0  0  0  0  0  0  0  0
  -31.6640  -19.7410   22.6900 H   0  0  0  0  0  0  0  0  0  0  0  0
  1  2  1  0
  1  4  1  0
  2  5  1  0
  3  4  1  0
  3  5  1  0
  4  6  1  0
  5 48  1  6
  5 87  1  0
  6  7  1  0
  8 19  2  0
  9  7  1  0
  9 14  1  0
 10 18  1  0
 10 20  1  0
 11 17  1  0
 11 13  1  0
 12 18  1  0
 13 14  2  0
 13 12  1  0
 15  9  2  0
 16 15  1  0
 16 11  2  0
 17 10  1  0
 18  8  1  0
 20 22  2  0
 21 20  1  0
 23 21  1  0
 24 33  2  0
 24 29  1  0
 25 21  1  0
 25 29  1  0
 26 25  1  0
 27 28  1  0
 27 26  1  0
 28 24  1  0
 29 30  2  0
 30 31  1  0
 32 31  2  0
 33 32  1  0
 34  8  1  0
 34 39  1  0
 34 35  1  0
 35 38  1  1
 35 36  1  0
 37 35  1  0
 39 42  1  0
 40 44  1  0
 40 39  1  0
 41 40  2  0
 44 43  1  0
 46 44  1  0
 46 47  1  0
 46 45  1  0
 48 57  1  0
 49 57  1  0
 50 55  1  0
 51 52  1  0
 51 50  1  0
 53 52  1  0
 53 62  1  0
 53 54  1  0
 55 49  1  0
 55 54  1  0
 56 49  2  0
 57 58  1  0
 59 60  2  0
 60 79  1  0
 61 60  1  0
 61 64  1  0
 62 63  1  0
 62 59  1  0
 63 61  2  0
 64 65  1  0
 65 66  2  0
 67 70  1  0
 67 66  1  0
 68 67  2  0
 69 68  1  0
 69 64  2  0
 70 71  1  0
 71 76  2  0
 71 72  1  0
 72 73  2  0
 73 74  1  0
 74 78  1  0
 75 74  2  0
 76 75  1  0
 77 76  1  0
 79 80  1  0
 80 83  1  0
 80 82  1  0
 81 79  2  0
 84 59  1  0
 84 85  1  0
 86 84  1  0
 87 88  1  0
 88 90  1  0
 89 88  1  0
 91 88  1  0
M  ISO  4   6 101   7 101  49 100  57 100
M  END
>  <TORSDO>  (85) 
F 20

>  <SCORE>  (85) 
-14.715

>  <name>  (85) 
84

>  <ligand_id>  (85) 
84

>  <original_smiles>  (85) 
[H]c1c([H])c([H])c2c(c1[H])C([H])([H])C([H])([H])C([H])([H])C2([H])N([H])C(=O)C1([H])N(C(=O)C([H])(N([H])C(=O)C([H])(N([H])C([H])([H])[H])C([H])([H])[H])C(C([H])([H])[H])(C([H])([H])[H])C([H])([H])[H])C([H])([H])c2c([H])c(OC([H])([H])C3([H])C([H])([H])C([H])([H])C(C([H])([H])N([H])C(=O)N4C([H])([H])C([H])([H])C([H])([H])C([H])(n5nc(-c6c([H])c([H])c(Oc7c([H])c([H])c(F)c([H])c7F)c([H])c6[H])c(C(=O)N([H])[H])c5N([H])[H])C4([H])[H])(C([H])([H])[N+]([H])([H])[H])C3([H])[H])c([H])c([H])c2C1([H])[H]

>  <smiles>  (85) 
[H]c1c([H])c([H])c2c(c1[H])C([H])([H])C([H])([H])C([H])([H])C2([H])N([H])C(=O)C1([H])N(C(=O)C([H])(N([H])C(=O)C([H])(N([H])C([H])([H])[H])C([H])([H])[H])C(C([H])([H])[H])(C([H])([H])[H])C([H])([H])[H])C([H])([H])c2c([H])c(OC([H])([H])C3([H])C([H])([H])C([H])([H])C(C([H])([H])N([H])C(=O)N4C([H])([H])C([H])([H])C([H])([H])C([H])(n5nc(-c6c([H])c([H])c(Oc7c([H])c([H])c(F)c([H])c7F)c([H])c6[H])c(C(=O)N([H])[H])c5N([H])[H])C4([H])[H])(C([H])([H])[N+]([H])([H])[H])C3([H])[H])c([H])c([H])c2C1([H])[H]

$$$$
85:0:0
     RDKit          3D

 92101  0  0  1  0  0  0  0  0999 V2000
  -29.8420  -19.7410   18.4360 C   0  0  0  0  0  2  0  0  0  0  0  0
  -28.9190  -20.4530   17.4010 C   0  0  0  0  0  2  0  0  0  0  0  0
  -29.0020  -22.7160   18.4350 C   0  0  0  0  0  2  0  0  0  0  0  0
  -28.4130  -21.0720   20.2380 C   0  0  0  0  0  3  0  0  0  0  0  0
  -29.1340  -19.4760   19.7840 C   0  0  0  0  0  3  0  0  0  0  0  0
  -28.8540  -22.7840   19.9780 C   0  0  0  0  0  3  0  0  0  0  0  0
  -27.3230  -21.2370   19.1550 C   0  0  0  0  0  3  0  0  0  0  0  0
  -28.1320  -21.5990   17.9690 N   0  0  2  0  0  4  0  0  0  0  0  0
  -27.5220  -21.9390   17.2400 H   0  0  0  0  0  0  0  0  0  0  0  0
  -26.4920  -20.1570   18.7270 O   0  0  0  0  0  0  0  0  0  0  0  0
  -25.6930  -20.1810   19.2450 H   0  0  0  0  0  0  0  0  0  0  0  0
  -29.8150  -18.0590   20.5950 C   0  0  0  0  0  2  0  0  0  0  0  0
  -30.4290  -15.2030   20.2540 C   0  0  0  0  0  0  0  0  0  0  0  0
  -30.3810  -12.7830   19.3570 C   0  0  0  0  0  2  0  0  0  0  0  0
  -29.4280  -12.6000   18.1510 C   0  0  0  0  0  2  0  0  0  0  0  0
  -27.9830  -12.3480   18.6200 C   0  0  0  0  0  2  0  0  0  0  0  0
  -27.5640  -13.3110   19.7600 C   0  0  0  0  0  3  0  0  0  0  0  0
  -28.6370  -13.4240   20.8610 C   0  0  0  0  0  2  0  0  0  0  0  0
  -29.8570  -13.9110   20.1980 N   0  0  0  0  0  0  0  0  0  0  0  0
  -31.6550  -15.2230   20.0870 O   0  0  0  0  0  0  0  0  0  0  0  0
  -29.6400  -16.4420   20.2920 N   0  0  0  0  0  0  0  0  0  0  0  0
  -28.6610  -16.1980   20.2530 H   0  0  0  0  0  0  0  0  0  0  0  0
  -25.2010  -13.8750   20.5450 C   0  0  0  0  0  0  0  0  0  0  0  0
  -24.1420  -13.0960   20.9220 C   0  0  0  0  0  0  0  0  0  0  0  0
  -24.6090  -11.7450   20.8750 C   0  0  0  0  0  0  0  0  0  0  0  0
  -26.2420  -13.0010   20.2860 N   0  0  0  0  0  0  0  0  0  0  0  0
  -25.8970  -11.7130   20.5520 N   0  0  0  0  0  0  0  0  0  0  0  0
  -23.8840  -10.4810   21.0570 C   0  0  0  0  0  0  0  0  0  0  0  0
  -24.3130   -9.5100   21.9880 C   0  0  0  0  0  3  0  0  0  0  0  0
  -23.5850   -8.3140   22.1620 C   0  0  0  0  0  3  0  0  0  0  0  0
  -22.4120   -8.0800   21.4060 C   0  0  0  0  0  0  0  0  0  0  0  0
  -22.0000   -9.0400   20.4650 C   0  0  0  0  0  3  0  0  0  0  0  0
  -22.7290  -10.2280   20.2890 C   0  0  0  0  0  3  0  0  0  0  0  0
  -21.6560   -6.9350   21.4900 O   0  0  0  0  0  0  0  0  0  0  0  0
  -21.5890   -6.1980   22.6450 C   0  0  0  0  0  0  0  0  0  0  0  0
  -21.1280   -6.7530   23.8590 C   0  0  0  0  0  3  0  0  0  0  0  0
  -21.0140   -5.9420   25.0050 C   0  0  0  0  0  3  0  0  0  0  0  0
  -21.3490   -4.5760   24.9390 C   0  0  0  0  0  0  0  0  0  0  0  0
  -21.8050   -4.0220   23.7310 C   0  0  0  0  0  3  0  0  0  0  0  0
  -21.9220   -4.8300   22.5850 C   0  0  0  0  0  0  0  0  0  0  0  0
  -22.3410   -4.2850   21.4190 F   0  0  0  0  0  0  0  0  0  0  0  0
  -21.2340   -3.7960   26.0390 F   0  0  0  0  0  0  0  0  0  0  0  0
  -22.7480  -13.5710   21.2080 C   0  0  0  0  0  0  0  0  0  0  0  0
  -22.0250  -12.8620   22.0680 N   0  0  0  0  0  0  0  0  0  0  0  0
  -22.3100  -14.6040   20.7060 O   0  0  0  0  0  0  0  0  0  0  0  0
  -22.3920  -12.0220   22.4890 H   0  0  0  0  0  0  0  0  0  0  0  0
  -21.0930  -13.1640   22.3110 H   0  0  0  0  0  0  0  0  0  0  0  0
  -25.3630  -15.2480   20.3760 N   0  0  0  0  0  0  0  0  0  0  0  0
  -24.5920  -15.8980   20.4920 H   0  0  0  0  0  0  0  0  0  0  0  0
  -26.1990  -15.6900   20.0160 H   0  0  0  0  0  0  0  0  0  0  0  0
  -27.9380  -24.2950   20.3220 C   0  0  0  0  0  2  0  0  0  0  0  0
  -28.2260  -25.9080   20.2590 O   0  0  0  0  0  0  0  0  0  0  0  0
  -24.6540  -31.8640   23.2410 C   0  0  0  0  0  0  0  0  0  0  0  0
  -27.2060  -26.9870   20.2420 C   0  0  0  0  0  0  0  0  0  0  0  0
  -23.4650  -30.4600   21.6100 C   0  0  0  0  0  3  0  0  0  0  0  0
  -24.9120  -28.8560   20.2000 C   0  0  0  0  0  0  0  0  0  0  0  0
  -26.0320  -30.6750   21.4680 C   0  0  0  0  0  2  0  0  0  0  0  0
  -26.1020  -29.2650   20.8180 C   0  0  0  0  0  0  0  0  0  0  0  0
  -27.2460  -28.3500   20.8140 C   0  0  0  0  0  3  0  0  0  0  0  0
  -25.9820  -26.7280   19.5860 C   0  0  0  0  0  3  0  0  0  0  0  0
  -24.8760  -27.6070   19.5680 C   0  0  0  0  0  3  0  0  0  0  0  0
  -23.6980  -29.7790   20.2360 C   0  0  0  0  0  2  0  0  0  0  0  0
  -24.7380  -31.0240   22.1590 N   0  0  0  0  0  0  0  0  0  0  0  0
  -23.5620  -32.1630   23.7510 O   0  0  0  0  0  0  0  0  0  0  0  0
  -22.7650  -29.4690   22.5740 C   0  0  0  0  0  0  0  0  0  0  0  0
  -21.4350  -29.3070   22.4450 N   0  0  0  0  0  0  0  0  0  0  0  0
  -23.4260  -28.8450   23.4080 O   0  0  0  0  0  0  0  0  0  0  0  0
  -20.9520  -29.8710   21.7600 H   0  0  0  0  0  0  0  0  0  0  0  0
  -18.0440  -28.1160   22.9410 C   0  0  0  0  0  0  0  0  0  0  0  0
  -20.6050  -28.3740   23.2150 C   0  0  0  0  0  3  0  0  0  0  0  0
  -20.7020  -26.9380   22.6490 C   0  0  0  0  0  2  0  0  0  0  0  0
  -19.6050  -26.6170   21.6310 C   0  0  0  0  0  2  0  0  0  0  0  0
  -18.2200  -26.7640   22.2690 C   0  0  0  0  0  2  0  0  0  0  0  0
  -19.1630  -28.8780   23.3690 C   0  0  0  0  0  0  0  0  0  0  0  0
  -18.9440  -30.1390   23.9620 C   0  0  0  0  0  3  0  0  0  0  0  0
  -17.6390  -30.6390   24.1290 C   0  0  0  0  0  3  0  0  0  0  0  0
  -16.5340  -29.8760   23.7150 C   0  0  0  0  0  3  0  0  0  0  0  0
  -16.7380  -28.6170   23.1250 C   0  0  0  0  0  3  0  0  0  0  0  0
  -25.9240  -32.5060   23.8780 C   0  0  0  0  0  3  0  0  0  0  0  0
  -26.4120  -31.7550   25.1790 C   0  0  1  0  0  0  0  0  0  0  0  0
  -25.2990  -31.5470   26.2320 C   0  0  0  0  0  1  0  0  0  0  0  0
  -26.9910  -30.3670   24.8290 C   0  0  0  0  0  1  0  0  0  0  0  0
  -27.5570  -32.5540   25.8460 C   0  0  0  0  0  1  0  0  0  0  0  0
  -25.6100  -33.9110   24.1920 N   0  0  0  0  0  0  0  0  0  0  0  0
  -25.9540  -34.9610   23.4340 C   0  0  0  0  0  0  0  0  0  0  0  0
  -26.6260  -34.8450   22.4070 O   0  0  0  0  0  0  0  0  0  0  0  0
  -25.0160  -34.0760   24.9920 H   0  0  0  0  0  0  0  0  0  0  0  0
  -24.2380  -36.7690   23.0740 C   0  0  0  0  0  1  0  0  0  0  0  0
  -25.4750  -36.3550   23.8870 C   0  0  0  0  0  3  0  0  0  0  0  0
  -27.6080  -37.2370   24.7200 C   0  0  0  0  0  1  0  0  0  0  0  0
  -26.5120  -37.4040   23.7720 N   0  0  0  0  0  0  0  0  0  0  0  0
  -26.1090  -38.3280   23.9120 H   0  0  0  0  0  0  0  0  0  0  0  0
  1  5  1  0
  2  8  1  0
  2  1  1  0
  3  6  1  0
  5  4  1  0
  5 12  1  0
  6  4  1  0
  6 51  1  0
  7  4  1  0
  8  3  1  0
  8  7  1  0
  8  9  1  6
 10  7  1  0
 10 11  1  0
 13 21  1  0
 14 19  1  0
 15 16  1  0
 15 14  1  0
 16 17  1  0
 17 26  1  0
 17 18  1  0
 19 13  1  0
 19 18  1  0
 20 13  2  0
 21 12  1  0
 22 21  1  0
 23 24  2  0
 24 43  1  0
 25 24  1  0
 25 28  1  0
 26 23  1  0
 26 27  1  0
 27 25  2  0
 28 29  1  0
 29 30  2  0
 31 34  1  0
 31 30  1  0
 32 31  2  0
 33 32  1  0
 33 28  2  0
 34 35  1  0
 35 36  1  0
 36 37  2  0
 38 37  1  0
 38 42  1  0
 39 38  2  0
 40 35  2  0
 40 39  1  0
 41 40  1  0
 43 44  1  0
 44 47  1  0
 44 46  1  0
 45 43  2  0
 48 49  1  0
 48 23  1  0
 50 48  1  0
 52 51  1  0
 53 64  2  0
 53 79  1  0
 54 52  1  0
 54 59  1  0
 55 63  1  0
 55 65  1  0
 56 62  1  0
 56 58  1  0
 57 63  1  0
 58 57  1  0
 59 58  2  0
 60 54  2  0
 61 60  1  0
 61 56  2  0
 62 55  1  0
 63 53  1  0
 65 67  2  0
 66 65  1  0
 66 70  1  0
 68 66  1  0
 69 78  2  0
 69 74  1  0
 70 74  1  0
 71 70  1  0
 72 73  1  0
 72 71  1  0
 73 69  1  0
 74 75  2  0
 75 76  1  0
 77 76  2  0
 78 77  1  0
 79 84  1  0
 79 80  1  0
 80 83  1  1
 80 81  1  0
 82 80  1  0
 84 87  1  0
 85 89  1  0
 85 84  1  0
 86 85  2  0
 88 89  1  0
 91 89  1  0
 91 92  1  0
 91 90  1  0
M  ISO  4  13 100  21 100  51 101  52 101
M  END
>  <TORSDO>  (86) 
F 19

>  <SCORE>  (86) 
-15.928

>  <name>  (86) 
85

>  <ligand_id>  (86) 
85

>  <original_smiles>  (86) 
[H]OC1([H])C2([H])C([H])(C([H])([H])N([H])C(=O)N3C([H])([H])C([H])([H])C([H])([H])C([H])(n4nc(-c5c([H])c([H])c(Oc6c([H])c([H])c(F)c([H])c6F)c([H])c5[H])c(C(=O)N([H])[H])c4N([H])[H])C3([H])[H])C([H])([H])C([H])([H])[N+]1([H])C([H])([H])C2([H])C([H])([H])Oc1c([H])c([H])c2c(c1[H])C([H])([H])N(C(=O)C([H])(N([H])C(=O)C([H])(N([H])C([H])([H])[H])C([H])([H])[H])C(C([H])([H])[H])(C([H])([H])[H])C([H])([H])[H])C([H])(C(=O)N([H])C1([H])c3c([H])c([H])c([H])c([H])c3C([H])([H])C([H])([H])C1([H])[H])C2([H])[H]

>  <smiles>  (86) 
[H]OC1([H])C2([H])C([H])(C([H])([H])N([H])C(=O)N3C([H])([H])C([H])([H])C([H])([H])C([H])(n4nc(-c5c([H])c([H])c(Oc6c([H])c([H])c(F)c([H])c6F)c([H])c5[H])c(C(=O)N([H])[H])c4N([H])[H])C3([H])[H])C([H])([H])C([H])([H])[N+]1([H])C([H])([H])C2([H])C([H])([H])Oc1c([H])c([H])c2c(c1[H])C([H])([H])N(C(=O)C([H])(N([H])C(=O)C([H])(N([H])C([H])([H])[H])C([H])([H])[H])C(C([H])([H])[H])(C([H])([H])[H])C([H])([H])[H])C([H])(C(=O)N([H])C1([H])c3c([H])c([H])c([H])c([H])c3C([H])([H])C([H])([H])C1([H])[H])C2([H])[H]

$$$$
86:0:0
     RDKit          3D

 92101  0  0  1  0  0  0  0  0999 V2000
  -27.2920  -21.4750   18.7460 C   0  0  0  0  0  2  0  0  0  0  0  0
  -28.2380  -21.7660   19.6540 C   0  0  0  0  0  3  0  0  0  0  0  0
  -26.7130  -22.5660   17.8660 C   0  0  0  0  0  2  0  0  0  0  0  0
  -27.8070  -23.5770   17.4140 C   0  0  0  0  0  2  0  0  0  0  0  0
  -29.0690  -23.6950   18.3320 C   0  0  0  0  0  2  0  0  0  0  0  0
  -30.0800  -22.9010   20.6540 C   0  0  0  0  0  2  0  0  0  0  0  0
  -30.0150  -21.3860   21.1230 C   0  0  0  0  0  2  0  0  0  0  0  0
  -28.8130  -23.2770   19.8130 C   0  0  2  0  0  0  0  0  0  0  0  0
  -29.2530  -20.6200   20.1100 N   0  0  1  0  0  4  0  0  0  0  0  0
  -29.9040  -20.5370   19.3430 H   0  0  0  0  0  0  0  0  0  0  0  0
  -27.9480  -24.6160   20.4200 C   0  0  0  0  0  2  0  0  0  0  0  0
  -28.2420  -26.1590   20.2760 O   0  0  0  0  0  0  0  0  0  0  0  0
  -24.6100  -31.9150   23.2530 C   0  0  0  0  0  0  0  0  0  0  0  0
  -27.1920  -27.1570   20.2510 C   0  0  0  0  0  0  0  0  0  0  0  0
  -23.4210  -30.5070   21.6240 C   0  0  0  0  0  3  0  0  0  0  0  0
  -24.8750  -28.9220   20.2110 C   0  0  0  0  0  0  0  0  0  0  0  0
  -25.9790  -30.7530   21.4800 C   0  0  0  0  0  2  0  0  0  0  0  0
  -26.0540  -29.3570   20.8340 C   0  0  0  0  0  0  0  0  0  0  0  0
  -27.2130  -28.4920   20.8340 C   0  0  0  0  0  3  0  0  0  0  0  0
  -25.9940  -26.8400   19.5760 C   0  0  0  0  0  3  0  0  0  0  0  0
  -24.8590  -27.6780   19.5670 C   0  0  0  0  0  3  0  0  0  0  0  0
  -23.6520  -29.8250   20.2490 C   0  0  0  0  0  2  0  0  0  0  0  0
  -24.6910  -31.0800   22.1730 N   0  0  0  0  0  0  0  0  0  0  0  0
  -23.5210  -32.2060   23.7690 O   0  0  0  0  0  0  0  0  0  0  0  0
  -22.7320  -29.5070   22.5860 C   0  0  0  0  0  0  0  0  0  0  0  0
  -21.4080  -29.3290   22.4430 N   0  0  0  0  0  0  0  0  0  0  0  0
  -23.3920  -28.8940   23.4280 O   0  0  0  0  0  0  0  0  0  0  0  0
  -20.9310  -29.8770   21.7420 H   0  0  0  0  0  0  0  0  0  0  0  0
  -18.0250  -28.1140   22.9200 C   0  0  0  0  0  0  0  0  0  0  0  0
  -20.5820  -28.3980   23.2120 C   0  0  0  0  0  3  0  0  0  0  0  0
  -20.7000  -26.9600   22.6590 C   0  0  0  0  0  2  0  0  0  0  0  0
  -19.6130  -26.6120   21.6380 C   0  0  0  0  0  2  0  0  0  0  0  0
  -18.2200  -26.7590   22.2600 C   0  0  0  0  0  2  0  0  0  0  0  0
  -19.1360  -28.8900   23.3510 C   0  0  0  0  0  0  0  0  0  0  0  0
  -18.9020  -30.1580   23.9290 C   0  0  0  0  0  3  0  0  0  0  0  0
  -17.5930  -30.6520   24.0760 C   0  0  0  0  0  3  0  0  0  0  0  0
  -16.4980  -29.8770   23.6610 C   0  0  0  0  0  3  0  0  0  0  0  0
  -16.7140  -28.6090   23.0920 C   0  0  0  0  0  3  0  0  0  0  0  0
  -25.8840  -32.5600   23.8830 C   0  0  0  0  0  3  0  0  0  0  0  0
  -26.3770  -31.8170   25.1840 C   0  0  1  0  0  0  0  0  0  0  0  0
  -25.2640  -31.6030   26.2360 C   0  0  0  0  0  1  0  0  0  0  0  0
  -26.9720  -30.4310   24.8440 C   0  0  0  0  0  1  0  0  0  0  0  0
  -27.5110  -32.6340   25.8510 C   0  0  0  0  0  1  0  0  0  0  0  0
  -25.5710  -33.9620   24.1900 N   0  0  0  0  0  0  0  0  0  0  0  0
  -25.9100  -35.0100   23.4270 C   0  0  0  0  0  0  0  0  0  0  0  0
  -26.5930  -34.8960   22.4050 O   0  0  0  0  0  0  0  0  0  0  0  0
  -24.9800  -34.1250   24.9940 H   0  0  0  0  0  0  0  0  0  0  0  0
  -24.1990  -36.8130   23.0300 C   0  0  0  0  0  1  0  0  0  0  0  0
  -25.4220  -36.4040   23.8670 C   0  0  0  0  0  3  0  0  0  0  0  0
  -27.5410  -37.2850   24.7420 C   0  0  0  0  0  1  0  0  0  0  0  0
  -26.4610  -37.4530   23.7730 N   0  0  0  0  0  0  0  0  0  0  0  0
  -26.0530  -38.3740   23.9100 H   0  0  0  0  0  0  0  0  0  0  0  0
  -28.9140  -19.0720   20.3940 C   0  0  0  0  0  3  0  0  0  0  0  0
  -30.0090  -17.7680   20.2290 C   0  0  0  0  0  3  0  0  0  0  0  0
  -30.4890  -15.0270   20.3170 C   0  0  0  0  0  0  0  0  0  0  0  0
  -30.3970  -12.6780   19.3670 C   0  0  0  0  0  2  0  0  0  0  0  0
  -29.4510  -12.6020   18.1440 C   0  0  0  0  0  2  0  0  0  0  0  0
  -27.9950  -12.3840   18.5910 C   0  0  0  0  0  2  0  0  0  0  0  0
  -27.5900  -13.3130   19.7650 C   0  0  0  0  0  3  0  0  0  0  0  0
  -28.6500  -13.3290   20.8850 C   0  0  0  0  0  2  0  0  0  0  0  0
  -29.9050  -13.7610   20.2660 N   0  0  0  0  0  0  0  0  0  0  0  0
  -31.7000  -15.0920   20.0720 O   0  0  0  0  0  0  0  0  0  0  0  0
  -29.6950  -16.2140   20.4200 N   0  0  0  0  0  0  0  0  0  0  0  0
  -28.7170  -16.0170   20.5590 H   0  0  0  0  0  0  0  0  0  0  0  0
  -25.2080  -13.8860   20.5000 C   0  0  0  0  0  0  0  0  0  0  0  0
  -24.1480  -13.1030   20.8670 C   0  0  0  0  0  0  0  0  0  0  0  0
  -24.6230  -11.7560   20.8390 C   0  0  0  0  0  0  0  0  0  0  0  0
  -26.2560  -13.0120   20.2660 N   0  0  0  0  0  0  0  0  0  0  0  0
  -25.9140  -11.7270   20.5380 N   0  0  0  0  0  0  0  0  0  0  0  0
  -23.9040  -10.4870   21.0240 C   0  0  0  0  0  0  0  0  0  0  0  0
  -24.3230   -9.5300   21.9750 C   0  0  0  0  0  3  0  0  0  0  0  0
  -23.6040   -8.3300   22.1460 C   0  0  0  0  0  3  0  0  0  0  0  0
  -22.4500   -8.0770   21.3670 C   0  0  0  0  0  0  0  0  0  0  0  0
  -22.0480   -9.0240   20.4080 C   0  0  0  0  0  3  0  0  0  0  0  0
  -22.7700  -10.2160   20.2340 C   0  0  0  0  0  3  0  0  0  0  0  0
  -21.7010   -6.9290   21.4490 O   0  0  0  0  0  0  0  0  0  0  0  0
  -21.6180   -6.2050   22.6110 C   0  0  0  0  0  0  0  0  0  0  0  0
  -21.1200   -6.7680   23.8040 C   0  0  0  0  0  3  0  0  0  0  0  0
  -20.9870   -5.9700   24.9580 C   0  0  0  0  0  3  0  0  0  0  0  0
  -21.3410   -4.6080   24.9180 C   0  0  0  0  0  0  0  0  0  0  0  0
  -21.8350   -4.0450   23.7280 C   0  0  0  0  0  3  0  0  0  0  0  0
  -21.9680   -4.8400   22.5760 C   0  0  0  0  0  0  0  0  0  0  0  0
  -22.4230   -4.2860   21.4260 F   0  0  0  0  0  0  0  0  0  0  0  0
  -21.2060   -3.8380   26.0230 F   0  0  0  0  0  0  0  0  0  0  0  0
  -22.7470  -13.5710   21.1270 C   0  0  0  0  0  0  0  0  0  0  0  0
  -22.0180  -12.8690   21.9850 N   0  0  0  0  0  0  0  0  0  0  0  0
  -22.3110  -14.5960   20.6050 O   0  0  0  0  0  0  0  0  0  0  0  0
  -22.3890  -12.0390   22.4230 H   0  0  0  0  0  0  0  0  0  0  0  0
  -21.0810  -13.1720   22.2130 H   0  0  0  0  0  0  0  0  0  0  0  0
  -25.3650  -15.2580   20.3250 N   0  0  0  0  0  0  0  0  0  0  0  0
  -24.5910  -15.9000   20.4420 H   0  0  0  0  0  0  0  0  0  0  0  0
  -26.1900  -15.6990   19.9440 H   0  0  0  0  0  0  0  0  0  0  0  0
  2  1  1  0
  2  8  1  0
  2  9  1  0
  3  1  1  0
  4  3  1  0
  4  5  1  0
  5  8  1  0
  6  7  1  0
  8 11  1  1
  8  6  1  0
  9 53  1  0
  9  7  1  0
  9 10  1  6
 12 11  1  0
 13 24  2  0
 14 12  1  0
 14 19  1  0
 15 23  1  0
 15 25  1  0
 16 22  1  0
 16 18  1  0
 17 23  1  0
 18 19  2  0
 18 17  1  0
 20 14  2  0
 21 20  1  0
 21 16  2  0
 22 15  1  0
 23 13  1  0
 25 27  2  0
 26 25  1  0
 28 26  1  0
 29 38  2  0
 29 34  1  0
 30 26  1  0
 30 34  1  0
 31 30  1  0
 32 33  1  0
 32 31  1  0
 33 29  1  0
 34 35  2  0
 35 36  1  0
 37 36  2  0
 38 37  1  0
 39 13  1  0
 39 44  1  0
 39 40  1  0
 40 43  1  1
 40 41  1  0
 42 40  1  0
 44 47  1  0
 45 49  1  0
 45 44  1  0
 46 45  2  0
 49 48  1  0
 51 49  1  0
 51 52  1  0
 51 50  1  0
 54 53  2  0
 54 63  1  0
 55 63  1  0
 56 61  1  0
 57 58  1  0
 57 56  1  0
 59 58  1  0
 59 68  1  0
 59 60  1  0
 61 55  1  0
 61 60  1  0
 62 55  2  0
 63 64  1  0
 65 66  2  0
 66 85  1  0
 67 66  1  0
 67 70  1  0
 68 65  1  0
 68 69  1  0
 69 67  2  0
 70 71  1  0
 71 72  2  0
 73 76  1  0
 73 72  1  0
 74 73  2  0
 75 74  1  0
 75 70  2  0
 76 77  1  0
 77 78  1  0
 78 79  2  0
 80 79  1  0
 80 84  1  0
 81 80  2  0
 82 77  2  0
 82 81  1  0
 83 82  1  0
 85 86  1  0
 86 89  1  0
 86 88  1  0
 87 85  2  0
 90 91  1  0
 90 65  1  0
 92 90  1  0
M  ISO  4  11 101  12 101  55 100  63 100
M  END
>  <TORSDO>  (87) 
F 19

>  <SCORE>  (87) 
-15.598

>  <name>  (87) 
86

>  <ligand_id>  (87) 
86

>  <original_smiles>  (87) 
[H]C1=C2C(C([H])([H])Oc3c([H])c([H])c4c(c3[H])C([H])([H])N(C(=O)C([H])(N([H])C(=O)C([H])(N([H])C([H])([H])[H])C([H])([H])[H])C(C([H])([H])[H])(C([H])([H])[H])C([H])([H])[H])C([H])(C(=O)N([H])C3([H])c5c([H])c([H])c([H])c([H])c5C([H])([H])C([H])([H])C3([H])[H])C4([H])[H])(C([H])([H])C([H])([H])C1([H])[H])C([H])([H])C([H])([H])[N+]2([H])C([H])([H])C([H])([H])N([H])C(=O)N1C([H])([H])C([H])([H])C([H])([H])C([H])(n2nc(-c3c([H])c([H])c(Oc4c([H])c([H])c(F)c([H])c4F)c([H])c3[H])c(C(=O)N([H])[H])c2N([H])[H])C1([H])[H]

>  <smiles>  (87) 
[H]C1=C2C(C([H])([H])Oc3c([H])c([H])c4c(c3[H])C([H])([H])N(C(=O)C([H])(N([H])C(=O)C([H])(N([H])C([H])([H])[H])C([H])([H])[H])C(C([H])([H])[H])(C([H])([H])[H])C([H])([H])[H])C([H])(C(=O)N([H])C3([H])c5c([H])c([H])c([H])c([H])c5C([H])([H])C([H])([H])C3([H])[H])C4([H])[H])(C([H])([H])C([H])([H])C1([H])[H])C([H])([H])C([H])([H])[N+]2([H])C([H])([H])C([H])([H])N([H])C(=O)N1C([H])([H])C([H])([H])C([H])([H])C([H])(n2nc(-c3c([H])c([H])c(Oc4c([H])c([H])c(F)c([H])c4F)c([H])c3[H])c(C(=O)N([H])[H])c2N([H])[H])C1([H])[H]

$$$$
87:0:0
     RDKit          3D

 90 99  0  0  1  0  0  0  0  0999 V2000
  -28.9040  -22.7690   20.3390 C   0  0  0  0  0  0  0  0  0  0  0  0
  -28.6780  -21.2890   20.1580 N   0  0  0  0  0  0  0  0  0  0  0  0
  -30.0240  -23.0540   20.7660 O   0  0  0  0  0  0  0  0  0  0  0  0
  -27.7450  -21.1320   19.8000 H   0  0  0  0  0  0  0  0  0  0  0  0
  -30.4820  -15.5170   20.3560 C   0  0  0  0  0  0  0  0  0  0  0  0
  -30.4300  -13.0460   19.4980 C   0  0  0  0  0  2  0  0  0  0  0  0
  -29.5360  -12.7250   18.2780 C   0  0  0  0  0  2  0  0  0  0  0  0
  -28.1010  -12.4220   18.7290 C   0  0  0  0  0  2  0  0  0  0  0  0
  -27.6090  -13.4210   19.8060 C   0  0  0  0  0  3  0  0  0  0  0  0
  -28.6450  -13.6940   20.9190 C   0  0  0  0  0  2  0  0  0  0  0  0
  -29.8420  -14.2340   20.2440 N   0  0  0  0  0  0  0  0  0  0  0  0
  -31.7110  -15.3620   20.2390 O   0  0  0  0  0  0  0  0  0  0  0  0
  -28.1650  -18.1830   18.1200 C   0  0  0  0  0  2  0  0  0  0  0  0
  -29.5650  -17.5950   17.8140 C   0  0  0  0  0  2  0  0  0  0  0  0
  -27.7420  -17.9790   19.5970 C   0  0  0  0  0  2  0  0  0  0  0  0
  -30.5820  -19.3660   19.3870 C   0  0  0  0  0  2  0  0  0  0  0  0
  -30.5190  -17.7940   19.0190 C   0  0  0  0  0  3  0  0  0  0  0  0
  -28.9560  -18.1350   20.5410 C   0  0  0  0  0  3  0  0  0  0  0  0
  -29.4870  -19.8040   20.4110 C   0  0  0  0  0  3  0  0  0  0  0  0
  -29.9420  -16.9160   20.0870 N   0  0  0  0  0  0  0  0  0  0  0  0
  -25.2370  -13.9420   20.5620 C   0  0  0  0  0  0  0  0  0  0  0  0
  -24.1790  -13.1520   20.9120 C   0  0  0  0  0  0  0  0  0  0  0  0
  -24.6610  -11.8080   20.8810 C   0  0  0  0  0  0  0  0  0  0  0  0
  -26.2910  -13.0810   20.3220 N   0  0  0  0  0  0  0  0  0  0  0  0
  -25.9570  -11.7890   20.5840 N   0  0  0  0  0  0  0  0  0  0  0  0
  -23.9440  -10.5390   21.0560 C   0  0  0  0  0  0  0  0  0  0  0  0
  -24.3630   -9.5760   21.9990 C   0  0  0  0  0  3  0  0  0  0  0  0
  -23.6410   -8.3740   22.1670 C   0  0  0  0  0  3  0  0  0  0  0  0
  -22.4850   -8.1280   21.3890 C   0  0  0  0  0  0  0  0  0  0  0  0
  -22.0830   -9.0800   20.4370 C   0  0  0  0  0  3  0  0  0  0  0  0
  -22.8070  -10.2720   20.2680 C   0  0  0  0  0  3  0  0  0  0  0  0
  -21.7360   -6.9790   21.4650 O   0  0  0  0  0  0  0  0  0  0  0  0
  -21.6560   -6.2460   22.6210 C   0  0  0  0  0  0  0  0  0  0  0  0
  -21.1600   -6.7990   23.8210 C   0  0  0  0  0  3  0  0  0  0  0  0
  -21.0310   -5.9920   24.9690 C   0  0  0  0  0  3  0  0  0  0  0  0
  -21.3870   -4.6310   24.9170 C   0  0  0  0  0  0  0  0  0  0  0  0
  -21.8760   -4.0760   23.7210 C   0  0  0  0  0  3  0  0  0  0  0  0
  -22.0060   -4.8810   22.5760 C   0  0  0  0  0  0  0  0  0  0  0  0
  -22.4580   -4.3360   21.4210 F   0  0  0  0  0  0  0  0  0  0  0  0
  -21.2550   -3.8530   26.0170 F   0  0  0  0  0  0  0  0  0  0  0  0
  -22.7750  -13.6170   21.1600 C   0  0  0  0  0  0  0  0  0  0  0  0
  -22.0460  -12.9230   22.0260 N   0  0  0  0  0  0  0  0  0  0  0  0
  -22.3350  -14.6330   20.6250 O   0  0  0  0  0  0  0  0  0  0  0  0
  -22.4170  -12.1010   22.4810 H   0  0  0  0  0  0  0  0  0  0  0  0
  -21.1030  -13.2180   22.2370 H   0  0  0  0  0  0  0  0  0  0  0  0
  -25.3830  -15.3130   20.3970 N   0  0  0  0  0  0  0  0  0  0  0  0
  -24.6140  -15.9630   20.5220 H   0  0  0  0  0  0  0  0  0  0  0  0
  -26.2390  -15.7640   20.1050 H   0  0  0  0  0  0  0  0  0  0  0  0
  -27.8760  -24.2040   20.0610 C   0  0  0  0  0  2  0  0  0  0  0  0
  -28.1590  -25.8440   20.3050 O   0  0  0  0  0  0  0  0  0  0  0  0
  -24.6410  -31.9320   23.2600 C   0  0  0  0  0  0  0  0  0  0  0  0
  -27.1720  -26.9860   20.2470 C   0  0  0  0  0  0  0  0  0  0  0  0
  -23.4420  -30.5300   21.6320 C   0  0  0  0  0  3  0  0  0  0  0  0
  -24.8830  -28.9110   20.2080 C   0  0  0  0  0  0  0  0  0  0  0  0
  -26.0120  -30.7180   21.4840 C   0  0  0  0  0  2  0  0  0  0  0  0
  -26.0770  -29.3010   20.8300 C   0  0  0  0  0  0  0  0  0  0  0  0
  -27.2140  -28.3620   20.8210 C   0  0  0  0  0  3  0  0  0  0  0  0
  -25.9440  -26.7640   19.5810 C   0  0  0  0  0  3  0  0  0  0  0  0
  -24.8460  -27.6660   19.5630 C   0  0  0  0  0  3  0  0  0  0  0  0
  -23.6680  -29.8410   20.2590 C   0  0  0  0  0  2  0  0  0  0  0  0
  -24.7200  -31.0890   22.1780 N   0  0  0  0  0  0  0  0  0  0  0  0
  -23.5510  -32.2290   23.7780 O   0  0  0  0  0  0  0  0  0  0  0  0
  -22.7450  -29.5420   22.6050 C   0  0  0  0  0  0  0  0  0  0  0  0
  -21.4150  -29.3710   22.4750 N   0  0  0  0  0  0  0  0  0  0  0  0
  -23.4070  -28.9310   23.4460 O   0  0  0  0  0  0  0  0  0  0  0  0
  -20.9320  -29.9150   21.7750 H   0  0  0  0  0  0  0  0  0  0  0  0
  -18.0390  -28.1310   22.9740 C   0  0  0  0  0  0  0  0  0  0  0  0
  -20.5940  -28.4340   23.2510 C   0  0  0  0  0  3  0  0  0  0  0  0
  -20.7170  -26.9960   22.6960 C   0  0  0  0  0  2  0  0  0  0  0  0
  -19.6270  -26.6470   21.6780 C   0  0  0  0  0  2  0  0  0  0  0  0
  -18.2380  -26.7790   22.3100 C   0  0  0  0  0  2  0  0  0  0  0  0
  -19.1450  -28.9150   23.4000 C   0  0  0  0  0  0  0  0  0  0  0  0
  -18.9030  -30.1770   23.9840 C   0  0  0  0  0  3  0  0  0  0  0  0
  -17.5900  -30.6580   24.1430 C   0  0  0  0  0  3  0  0  0  0  0  0
  -16.4990  -29.8750   23.7290 C   0  0  0  0  0  3  0  0  0  0  0  0
  -16.7240  -28.6120   23.1520 C   0  0  0  0  0  3  0  0  0  0  0  0
  -25.9110  -32.5770   23.8910 C   0  0  0  0  0  3  0  0  0  0  0  0
  -25.5960  -33.9810   24.2130 N   0  0  0  0  0  0  0  0  0  0  0  0
  -25.9130  -35.0370   23.4530 C   0  0  0  0  0  0  0  0  0  0  0  0
  -26.5660  -34.9330   22.4120 O   0  0  0  0  0  0  0  0  0  0  0  0
  -25.0150  -34.1350   25.0250 H   0  0  0  0  0  0  0  0  0  0  0  0
  -24.1720  -36.8310   23.1440 C   0  0  0  0  0  1  0  0  0  0  0  0
  -25.4370  -36.4290   23.9200 C   0  0  0  0  0  3  0  0  0  0  0  0
  -27.5870  -37.3310   24.6920 C   0  0  0  0  0  1  0  0  0  0  0  0
  -26.4640  -37.4850   23.7720 N   0  0  0  0  0  0  0  0  0  0  0  0
  -26.0580  -38.4060   23.9190 H   0  0  0  0  0  0  0  0  0  0  0  0
  -26.4100  -31.8250   25.1850 C   0  0  1  0  0  0  0  0  0  0  0  0
  -25.3050  -31.6080   26.2470 C   0  0  0  0  0  1  0  0  0  0  0  0
  -26.9950  -30.4390   24.8310 C   0  0  0  0  0  1  0  0  0  0  0  0
  -27.5580  -32.6260   25.8460 C   0  0  0  0  0  1  0  0  0  0  0  0
  1  3  2  0
  2  1  1  0
  4  2  1  0
  6 11  1  0
  7  8  1  0
  7  6  1  0
  9  8  1  0
  9 24  1  0
  9 10  1  0
 11  5  1  0
 11 10  1  0
 12  5  2  0
 13 15  1  0
 14 13  1  0
 16 19  1  0
 17 14  1  0
 17 16  1  0
 17 20  1  0
 18 15  1  0
 19  2  1  0
 19 18  1  0
 20  5  1  0
 20 18  1  0
 21 22  2  0
 22 41  1  0
 23 22  1  0
 23 26  1  0
 24 21  1  0
 24 25  1  0
 25 23  2  0
 26 27  1  0
 27 28  2  0
 29 32  1  0
 29 28  1  0
 30 29  2  0
 31 30  1  0
 31 26  2  0
 32 33  1  0
 33 34  1  0
 34 35  2  0
 36 35  1  0
 36 40  1  0
 37 36  2  0
 38 33  2  0
 38 37  1  0
 39 38  1  0
 41 42  1  0
 42 45  1  0
 42 44  1  0
 43 41  2  0
 46 47  1  0
 46 21  1  0
 48 46  1  0
 49 50  1  0
 49  1  1  0
 51 62  2  0
 52 50  1  0
 52 57  1  0
 53 61  1  0
 53 63  1  0
 54 60  1  0
 54 56  1  0
 55 61  1  0
 56 55  1  0
 57 56  2  0
 58 52  2  0
 59 58  1  0
 59 54  2  0
 60 53  1  0
 61 51  1  0
 63 65  2  0
 64 63  1  0
 66 64  1  0
 67 76  2  0
 67 72  1  0
 68 64  1  0
 68 72  1  0
 69 68  1  0
 70 71  1  0
 70 69  1  0
 71 67  1  0
 72 73  2  0
 73 74  1  0
 75 74  2  0
 76 75  1  0
 77 51  1  0
 77 78  1  0
 77 87  1  0
 78 81  1  0
 79 83  1  0
 79 78  1  0
 80 79  2  0
 83 82  1  0
 85 86  1  0
 85 83  1  0
 85 84  1  0
 87 90  1  1
 87 88  1  0
 89 87  1  0
M  ISO  4   5 100  20 100  49 101  50 101
M  END
>  <TORSDO>  (88) 
F 17

>  <SCORE>  (88) 
-16.826

>  <name>  (88) 
87

>  <ligand_id>  (88) 
87

>  <original_smiles>  (88) 
[H]c1c([H])c([H])c2c(c1[H])C([H])([H])C([H])([H])C([H])([H])C2([H])N([H])C(=O)C1([H])N(C(=O)C([H])(N([H])C(=O)C([H])(N([H])C([H])([H])[H])C([H])([H])[H])C(C([H])([H])[H])(C([H])([H])[H])C([H])([H])[H])C([H])([H])c2c([H])c(OC([H])([H])C(=O)N([H])C3([H])C([H])([H])C4([H])N(C(=O)N5C([H])([H])C([H])([H])C([H])([H])C([H])(n6nc(-c7c([H])c([H])c(Oc8c([H])c([H])c(F)c([H])c8F)c([H])c7[H])c(C(=O)N([H])[H])c6N([H])[H])C5([H])[H])C3([H])C([H])([H])C([H])([H])C4([H])[H])c([H])c([H])c2C1([H])[H]

>  <smiles>  (88) 
[H]c1c([H])c([H])c2c(c1[H])C([H])([H])C([H])([H])C([H])([H])C2([H])N([H])C(=O)C1([H])N(C(=O)C([H])(N([H])C(=O)C([H])(N([H])C([H])([H])[H])C([H])([H])[H])C(C([H])([H])[H])(C([H])([H])[H])C([H])([H])[H])C([H])([H])c2c([H])c(OC([H])([H])C(=O)N([H])C3([H])C([H])([H])C4([H])N(C(=O)N5C([H])([H])C([H])([H])C([H])([H])C([H])(n6nc(-c7c([H])c([H])c(Oc8c([H])c([H])c(F)c([H])c8F)c([H])c7[H])c(C(=O)N([H])[H])c6N([H])[H])C5([H])[H])C3([H])C([H])([H])C([H])([H])C4([H])[H])c([H])c([H])c2C1([H])[H]

$$$$
88:0:0
     RDKit          3D

 90 98  0  0  1  0  0  0  0  0999 V2000
  -29.2240  -22.1260   21.2820 C   0  0  0  0  0  3  0  0  0  0  0  0
  -28.5820  -20.3940   19.2650 C   0  0  0  0  0  3  0  0  0  0  0  0
  -29.6540  -20.6980   21.2840 C   0  0  0  0  0  0  0  0  0  0  0  0
  -28.1690  -21.8200   19.2500 C   0  0  0  0  0  0  0  0  0  0  0  0
  -28.4610  -22.8350   20.2650 C   0  0  0  0  0  0  0  0  0  0  0  0
  -29.3590  -19.6870   20.2690 C   0  0  0  0  0  0  0  0  0  0  0  0
  -30.5160  -20.2550   22.4530 C   0  0  0  0  0  1  0  0  0  0  0  0
  -27.3410  -22.2500   18.0500 C   0  0  0  0  0  1  0  0  0  0  0  0
  -30.7200  -18.1870   18.6570 C   0  0  0  0  0  1  0  0  0  0  0  0
  -30.1140  -18.1310   20.0690 C   0  0  0  0  0  0  0  0  0  0  0  0
  -30.4330  -15.2760   20.1720 C   0  0  0  0  0  0  0  0  0  0  0  0
  -30.3410  -12.8730   19.2490 C   0  0  0  0  0  2  0  0  0  0  0  0
  -29.3820  -12.7320   18.0410 C   0  0  0  0  0  2  0  0  0  0  0  0
  -27.9440  -12.4680   18.5200 C   0  0  0  0  0  2  0  0  0  0  0  0
  -27.5380  -13.3950   19.6950 C   0  0  0  0  0  3  0  0  0  0  0  0
  -28.6250  -13.4990   20.7850 C   0  0  0  0  0  2  0  0  0  0  0  0
  -29.8400  -13.9910   20.1210 N   0  0  0  0  0  0  0  0  0  0  0  0
  -31.6430  -15.2640   19.9070 O   0  0  0  0  0  0  0  0  0  0  0  0
  -29.7060  -16.5510   20.2990 N   0  0  0  0  0  4  0  0  0  0  0  0
  -28.7260  -16.4230   20.5060 H   0  0  0  0  0  0  0  0  0  0  0  0
  -25.1930  -13.9250   20.5470 C   0  0  0  0  0  0  0  0  0  0  0  0
  -24.1470  -13.1360   20.9330 C   0  0  0  0  0  0  0  0  0  0  0  0
  -24.6170  -11.7870   20.8490 C   0  0  0  0  0  0  0  0  0  0  0  0
  -26.2290  -13.0610   20.2420 N   0  0  0  0  0  0  0  0  0  0  0  0
  -25.8970  -11.7670   20.4910 N   0  0  0  0  0  0  0  0  0  0  0  0
  -23.9010  -10.5180   21.0320 C   0  0  0  0  0  0  0  0  0  0  0  0
  -24.3510   -9.5390   21.9440 C   0  0  0  0  0  3  0  0  0  0  0  0
  -23.6320   -8.3370   22.1170 C   0  0  0  0  0  3  0  0  0  0  0  0
  -22.4480   -8.1040   21.3770 C   0  0  0  0  0  0  0  0  0  0  0  0
  -22.0160   -9.0730   20.4540 C   0  0  0  0  0  3  0  0  0  0  0  0
  -22.7360  -10.2660   20.2790 C   0  0  0  0  0  3  0  0  0  0  0  0
  -21.7000   -6.9560   21.4600 O   0  0  0  0  0  0  0  0  0  0  0  0
  -21.6510   -6.2100   22.6100 C   0  0  0  0  0  0  0  0  0  0  0  0
  -21.1940   -6.7510   23.8310 C   0  0  0  0  0  3  0  0  0  0  0  0
  -21.0940   -5.9310   24.9710 C   0  0  0  0  0  3  0  0  0  0  0  0
  -21.4420   -4.5680   24.8930 C   0  0  0  0  0  0  0  0  0  0  0  0
  -21.8910   -4.0260   23.6760 C   0  0  0  0  0  3  0  0  0  0  0  0
  -21.9930   -4.8430   22.5380 C   0  0  0  0  0  0  0  0  0  0  0  0
  -22.4070   -4.3100   21.3630 F   0  0  0  0  0  0  0  0  0  0  0  0
  -21.3380   -3.7780   25.9870 F   0  0  0  0  0  0  0  0  0  0  0  0
  -22.7580  -13.6000   21.2590 C   0  0  0  0  0  0  0  0  0  0  0  0
  -22.0600  -12.8850   22.1320 N   0  0  0  0  0  0  0  0  0  0  0  0
  -22.3020  -14.6350   20.7740 O   0  0  0  0  0  0  0  0  0  0  0  0
  -22.4430  -12.0500   22.5500 H   0  0  0  0  0  0  0  0  0  0  0  0
  -21.1280  -13.1790   22.3910 H   0  0  0  0  0  0  0  0  0  0  0  0
  -25.3410  -15.3020   20.3990 N   0  0  0  0  0  0  0  0  0  0  0  0
  -24.5700  -15.9440   20.5520 H   0  0  0  0  0  0  0  0  0  0  0  0
  -26.1620  -15.7550   20.0220 H   0  0  0  0  0  0  0  0  0  0  0  0
  -27.6920  -24.3930   20.3670 C   0  0  0  0  0  2  0  0  0  0  0  0
  -28.1200  -25.9610   20.3220 O   0  0  0  0  0  0  0  0  0  0  0  0
  -24.5840  -31.9360   23.2490 C   0  0  0  0  0  0  0  0  0  0  0  0
  -27.1240  -27.0610   20.2660 C   0  0  0  0  0  0  0  0  0  0  0  0
  -23.3850  -30.5290   21.6290 C   0  0  0  0  0  3  0  0  0  0  0  0
  -24.8290  -28.9260   20.2150 C   0  0  0  0  0  0  0  0  0  0  0  0
  -25.9520  -30.7440   21.4740 C   0  0  0  0  0  2  0  0  0  0  0  0
  -26.0190  -29.3350   20.8300 C   0  0  0  0  0  0  0  0  0  0  0  0
  -27.1640  -28.4230   20.8340 C   0  0  0  0  0  3  0  0  0  0  0  0
  -25.9070  -26.8060   19.5920 C   0  0  0  0  0  3  0  0  0  0  0  0
  -24.7960  -27.6810   19.5740 C   0  0  0  0  0  3  0  0  0  0  0  0
  -23.6100  -29.8420   20.2560 C   0  0  0  0  0  2  0  0  0  0  0  0
  -24.6610  -31.0960   22.1700 N   0  0  0  0  0  0  0  0  0  0  0  0
  -23.4960  -32.2320   23.7700 O   0  0  0  0  0  0  0  0  0  0  0  0
  -22.6950  -29.5360   22.6000 C   0  0  0  0  0  0  0  0  0  0  0  0
  -21.3680  -29.3580   22.4680 N   0  0  0  0  0  0  0  0  0  0  0  0
  -23.3600  -28.9280   23.4430 O   0  0  0  0  0  0  0  0  0  0  0  0
  -20.8850  -29.8970   21.7630 H   0  0  0  0  0  0  0  0  0  0  0  0
  -17.9900  -28.1300   22.9690 C   0  0  0  0  0  0  0  0  0  0  0  0
  -20.5460  -28.4260   23.2480 C   0  0  0  0  0  3  0  0  0  0  0  0
  -20.6670  -26.9860   22.7000 C   0  0  0  0  0  2  0  0  0  0  0  0
  -19.5770  -26.6340   21.6830 C   0  0  0  0  0  2  0  0  0  0  0  0
  -18.1870  -26.7730   22.3140 C   0  0  0  0  0  2  0  0  0  0  0  0
  -19.0980  -28.9120   23.3930 C   0  0  0  0  0  0  0  0  0  0  0  0
  -18.8590  -30.1800   23.9680 C   0  0  0  0  0  3  0  0  0  0  0  0
  -17.5460  -30.6660   24.1210 C   0  0  0  0  0  3  0  0  0  0  0  0
  -16.4540  -29.8810   23.7120 C   0  0  0  0  0  3  0  0  0  0  0  0
  -16.6770  -28.6150   23.1410 C   0  0  0  0  0  3  0  0  0  0  0  0
  -25.8570  -32.5840   23.8720 C   0  0  0  0  0  3  0  0  0  0  0  0
  -25.5390  -33.9850   24.1960 N   0  0  0  0  0  0  0  0  0  0  0  0
  -25.8580  -35.0410   23.4370 C   0  0  0  0  0  0  0  0  0  0  0  0
  -26.5150  -34.9400   22.3980 O   0  0  0  0  0  0  0  0  0  0  0  0
  -24.9530  -34.1370   25.0040 H   0  0  0  0  0  0  0  0  0  0  0  0
  -24.1200  -36.8330   23.1110 C   0  0  0  0  0  1  0  0  0  0  0  0
  -25.3750  -36.4300   23.9010 C   0  0  0  0  0  3  0  0  0  0  0  0
  -27.5190  -37.3270   24.6970 C   0  0  0  0  0  1  0  0  0  0  0  0
  -26.4000  -37.4890   23.7720 N   0  0  0  0  0  0  0  0  0  0  0  0
  -25.9910  -38.4070   23.9260 H   0  0  0  0  0  0  0  0  0  0  0  0
  -26.3670  -31.8290   25.1610 C   0  0  1  0  0  0  0  0  0  0  0  0
  -25.2670  -31.6000   26.2260 C   0  0  0  0  0  1  0  0  0  0  0  0
  -26.9560  -30.4470   24.7960 C   0  0  0  0  0  1  0  0  0  0  0  0
  -27.5100  -32.6340   25.8210 C   0  0  0  0  0  1  0  0  0  0  0  0
  1  3  1  0
  2  6  1  0
  3  7  1  0
  4  2  2  0
  4  5  1  0
  5 49  1  0
  5  1  2  0
  6  3  2  0
  8  4  1  0
  9 10  1  0
 10  6  1  0
 10 19  2  0
 11 19  1  0
 12 17  1  0
 13 14  1  0
 13 12  1  0
 15 14  1  0
 15 24  1  0
 15 16  1  0
 17 11  1  0
 17 16  1  0
 18 11  2  0
 19 20  1  0
 21 22  2  0
 22 41  1  0
 23 22  1  0
 23 26  1  0
 24 25  1  0
 24 21  1  0
 25 23  2  0
 26 27  1  0
 27 28  2  0
 29 32  1  0
 29 28  1  0
 30 29  2  0
 31 30  1  0
 31 26  2  0
 32 33  1  0
 33 34  1  0
 34 35  2  0
 36 35  1  0
 36 40  1  0
 37 36  2  0
 38 33  2  0
 38 37  1  0
 39 38  1  0
 41 42  1  0
 42 45  1  0
 42 44  1  0
 43 41  2  0
 46 21  1  0
 46 47  1  0
 48 46  1  0
 50 49  1  0
 51 62  2  0
 52 50  1  0
 52 57  1  0
 53 61  1  0
 53 63  1  0
 54 60  1  0
 54 56  1  0
 55 61  1  0
 56 57  2  0
 56 55  1  0
 58 52  2  0
 59 58  1  0
 59 54  2  0
 60 53  1  0
 61 51  1  0
 63 65  2  0
 64 63  1  0
 66 64  1  0
 67 76  2  0
 67 72  1  0
 68 64  1  0
 68 72  1  0
 69 68  1  0
 70 71  1  0
 70 69  1  0
 71 67  1  0
 72 73  2  0
 73 74  1  0
 75 74  2  0
 76 75  1  0
 77 51  1  0
 77 78  1  0
 77 87  1  0
 78 81  1  0
 79 83  1  0
 79 78  1  0
 80 79  2  0
 83 82  1  0
 85 83  1  0
 85 86  1  0
 85 84  1  0
 87 90  1  1
 87 88  1  0
 89 87  1  0
M  ISO  4  11 100  19 100  49 101  50 101
M  END
>  <TORSDO>  (89) 
F 18

>  <SCORE>  (89) 
-15.736

>  <name>  (89) 
88

>  <ligand_id>  (89) 
88

>  <original_smiles>  (89) 
[H]c1c([H])c([H])c2c(c1[H])C([H])([H])C([H])([H])C([H])([H])C2([H])N([H])C(=O)C1([H])N(C(=O)C([H])(N([H])C(=O)C([H])(N([H])C([H])([H])[H])C([H])([H])[H])C(C([H])([H])[H])(C([H])([H])[H])C([H])([H])[H])C([H])([H])c2c([H])c(OC([H])([H])c3c([H])c(C([H])([H])[H])c(C([H])(N([H])C(=O)N4C([H])([H])C([H])([H])C([H])([H])C([H])(n5nc(-c6c([H])c([H])c(Oc7c([H])c([H])c(F)c([H])c7F)c([H])c6[H])c(C(=O)N([H])[H])c5N([H])[H])C4([H])[H])C([H])([H])[H])c([H])c3C([H])([H])[H])c([H])c([H])c2C1([H])[H]

>  <smiles>  (89) 
[H]c1c([H])c([H])c2c(c1[H])C([H])([H])C([H])([H])C([H])([H])C2([H])N([H])C(=O)C1([H])N(C(=O)C([H])(N([H])C(=O)C([H])(N([H])C([H])([H])[H])C([H])([H])[H])C(C([H])([H])[H])(C([H])([H])[H])C([H])([H])[H])C([H])([H])c2c([H])c(OC([H])([H])c3c([H])c(C([H])([H])[H])c(C([H])(N([H])C(=O)N4C([H])([H])C([H])([H])C([H])([H])C([H])(n5nc(-c6c([H])c([H])c(Oc7c([H])c([H])c(F)c([H])c7F)c([H])c6[H])c(C(=O)N([H])[H])c5N([H])[H])C4([H])[H])C([H])([H])[H])c([H])c3C([H])([H])[H])c([H])c([H])c2C1([H])[H]

$$$$
89:0:0
     RDKit          3D

100107  0  0  1  0  0  0  0  0999 V2000
  -28.9960  -19.2380   19.2170 C   0  0  0  0  0  3  0  0  0  0  0  0
  -29.0770  -19.7510   17.8190 N   0  0  0  0  0  4  0  0  0  0  0  0
  -30.0230  -20.0060   17.5840 H   0  0  0  0  0  0  0  0  0  0  0  0
  -28.5070  -20.5670   17.6880 H   0  0  0  0  0  0  0  0  0  0  0  0
  -28.7720  -19.0820   17.1340 H   0  0  0  0  0  0  0  0  0  0  0  0
  -31.1200  -17.8670   18.7870 C   0  0  0  0  0  1  0  0  0  0  0  0
  -29.6630  -17.7710   19.3100 C   0  0  1  0  0  0  0  0  0  0  0  0
  -29.7790  -17.1330   20.7600 C   0  0  0  0  0  2  0  0  0  0  0  0
  -30.6650  -14.6480   20.6580 C   0  0  0  0  0  0  0  0  0  0  0  0
  -30.5350  -12.4300   19.5760 C   0  0  0  0  0  2  0  0  0  0  0  0
  -29.6160  -12.5640   18.3400 C   0  0  0  0  0  2  0  0  0  0  0  0
  -28.1300  -12.4090   18.7280 C   0  0  0  0  0  2  0  0  0  0  0  0
  -27.7400  -13.2570   19.9670 C   0  0  0  0  0  3  0  0  0  0  0  0
  -28.7630  -13.0690   21.1080 C   0  0  0  0  0  2  0  0  0  0  0  0
  -30.0900  -13.4160   20.5740 N   0  0  0  0  0  0  0  0  0  0  0  0
  -31.8310  -14.8650   20.3220 O   0  0  0  0  0  0  0  0  0  0  0  0
  -29.7620  -15.6400   20.8890 N   0  0  0  0  0  0  0  0  0  0  0  0
  -28.8860  -15.2630   21.2180 H   0  0  0  0  0  0  0  0  0  0  0  0
  -25.3280  -13.8920   20.5820 C   0  0  0  0  0  0  0  0  0  0  0  0
  -24.2410  -13.1250   20.9090 C   0  0  0  0  0  0  0  0  0  0  0  0
  -24.6980  -11.7720   20.9130 C   0  0  0  0  0  0  0  0  0  0  0  0
  -26.3740  -12.9990   20.4030 N   0  0  0  0  0  0  0  0  0  0  0  0
  -25.9990  -11.7230   20.6570 N   0  0  0  0  0  0  0  0  0  0  0  0
  -23.9670  -10.5130   21.0920 C   0  0  0  0  0  0  0  0  0  0  0  0
  -24.3740   -9.5550   22.0470 C   0  0  0  0  0  3  0  0  0  0  0  0
  -23.6470   -8.3560   22.2120 C   0  0  0  0  0  3  0  0  0  0  0  0
  -22.5010   -8.1090   21.4200 C   0  0  0  0  0  0  0  0  0  0  0  0
  -22.1140   -9.0550   20.4530 C   0  0  0  0  0  3  0  0  0  0  0  0
  -22.8430  -10.2450   20.2880 C   0  0  0  0  0  3  0  0  0  0  0  0
  -21.7480   -6.9620   21.4910 O   0  0  0  0  0  0  0  0  0  0  0  0
  -21.6600   -6.2300   22.6480 C   0  0  0  0  0  0  0  0  0  0  0  0
  -21.1730   -6.7920   23.8490 C   0  0  0  0  0  3  0  0  0  0  0  0
  -21.0330   -5.9870   24.9970 C   0  0  0  0  0  3  0  0  0  0  0  0
  -21.3710   -4.6200   24.9440 C   0  0  0  0  0  0  0  0  0  0  0  0
  -21.8490   -4.0590   23.7480 C   0  0  0  0  0  3  0  0  0  0  0  0
  -21.9910   -4.8610   22.6030 C   0  0  0  0  0  0  0  0  0  0  0  0
  -22.4340   -4.3110   21.4470 F   0  0  0  0  0  0  0  0  0  0  0  0
  -21.2280   -3.8440   26.0440 F   0  0  0  0  0  0  0  0  0  0  0  0
  -22.8360  -13.6080   21.1320 C   0  0  0  0  0  0  0  0  0  0  0  0
  -22.0770  -12.9170   21.9750 N   0  0  0  0  0  0  0  0  0  0  0  0
  -22.4260  -14.6350   20.5950 O   0  0  0  0  0  0  0  0  0  0  0  0
  -22.4230  -12.0860   22.4300 H   0  0  0  0  0  0  0  0  0  0  0  0
  -21.1350  -13.2230   22.1700 H   0  0  0  0  0  0  0  0  0  0  0  0
  -25.5300  -15.2630   20.4180 N   0  0  0  0  0  0  0  0  0  0  0  0
  -24.6120  -15.6980   20.3900 H   0  0  0  0  0  0  0  0  0  0  0  0
  -25.9460  -15.5920   21.2820 H   0  0  0  0  0  0  0  0  0  0  0  0
  -28.8750  -16.7990   18.3470 C   0  0  0  0  0  2  0  0  0  0  0  0
  -27.4230  -16.6280   18.6200 N   0  0  0  0  0  4  0  0  0  0  0  0
  -27.2070  -16.1950   19.5060 H   0  0  0  0  0  0  0  0  0  0  0  0
  -27.0300  -16.0230   17.9170 H   0  0  0  0  0  0  0  0  0  0  0  0
  -26.9000  -17.4830   18.5680 H   0  0  0  0  0  0  0  0  0  0  0  0
  -29.4100  -20.4070   20.1950 C   0  0  0  0  0  2  0  0  0  0  0  0
  -28.4380  -21.6540   20.1010 C   0  0  0  0  0  2  0  0  0  0  0  0
  -28.8760  -22.9410   20.7360 N   0  0  0  0  0  4  0  0  0  0  0  0
  -29.8790  -22.9520   20.8430 H   0  0  0  0  0  0  0  0  0  0  0  0
  -28.4930  -22.9480   21.6710 H   0  0  0  0  0  0  0  0  0  0  0  0
  -29.3450  -24.4670   18.8030 C   0  0  0  0  0  1  0  0  0  0  0  0
  -28.4400  -24.2030   20.0270 C   0  0  0  0  0  3  0  0  0  0  0  0
  -28.3920  -25.4640   20.9580 C   0  0  0  0  0  2  0  0  0  0  0  0
  -28.3570  -26.7400   20.2710 O   0  0  0  0  0  0  0  0  0  0  0  0
  -24.5280  -31.9510   23.3090 C   0  0  0  0  0  0  0  0  0  0  0  0
  -27.1820  -27.4660   20.2920 C   0  0  0  0  0  0  0  0  0  0  0  0
  -23.3310  -30.5470   21.6600 C   0  0  0  0  0  3  0  0  0  0  0  0
  -24.7930  -28.9920   20.2580 C   0  0  0  0  0  0  0  0  0  0  0  0
  -25.8590  -30.8950   21.4800 C   0  0  0  0  0  2  0  0  0  0  0  0
  -25.9470  -29.5160   20.8530 C   0  0  0  0  0  0  0  0  0  0  0  0
  -27.1460  -28.7640   20.8590 C   0  0  0  0  0  3  0  0  0  0  0  0
  -26.0120  -26.9570   19.6910 C   0  0  0  0  0  3  0  0  0  0  0  0
  -24.8230  -27.7140   19.6710 C   0  0  0  0  0  3  0  0  0  0  0  0
  -23.5520  -29.8570   20.2860 C   0  0  0  0  0  2  0  0  0  0  0  0
  -24.5920  -31.1470   22.2090 N   0  0  0  0  0  0  0  0  0  0  0  0
  -23.4420  -32.2310   23.8380 O   0  0  0  0  0  0  0  0  0  0  0  0
  -22.6650  -29.5360   22.6200 C   0  0  0  0  0  0  0  0  0  0  0  0
  -21.3410  -29.3620   22.4830 N   0  0  0  0  0  0  0  0  0  0  0  0
  -23.3390  -28.9080   23.4420 O   0  0  0  0  0  0  0  0  0  0  0  0
  -20.8570  -29.9190   21.7930 H   0  0  0  0  0  0  0  0  0  0  0  0
  -17.9540  -28.1920   22.9600 C   0  0  0  0  0  0  0  0  0  0  0  0
  -20.5120  -28.4310   23.2490 C   0  0  0  0  0  3  0  0  0  0  0  0
  -20.6080  -27.0000   22.6740 C   0  0  0  0  0  2  0  0  0  0  0  0
  -19.5110  -26.6850   21.6530 C   0  0  0  0  0  2  0  0  0  0  0  0
  -18.1250  -26.8410   22.2870 C   0  0  0  0  0  2  0  0  0  0  0  0
  -19.0750  -28.9460   23.3980 C   0  0  0  0  0  0  0  0  0  0  0  0
  -18.8630  -30.2120   23.9860 C   0  0  0  0  0  3  0  0  0  0  0  0
  -17.5610  -30.7240   24.1420 C   0  0  0  0  0  3  0  0  0  0  0  0
  -16.4540  -29.9670   23.7220 C   0  0  0  0  0  3  0  0  0  0  0  0
  -16.6510  -28.7040   23.1360 C   0  0  0  0  0  3  0  0  0  0  0  0
  -25.8110  -32.5790   23.9380 C   0  0  0  0  0  3  0  0  0  0  0  0
  -26.2980  -31.8290   25.2370 C   0  0  1  0  0  0  0  0  0  0  0  0
  -25.1850  -31.6270   26.2910 C   0  0  0  0  0  1  0  0  0  0  0  0
  -26.8710  -30.4370   24.8790 C   0  0  0  0  0  1  0  0  0  0  0  0
  -27.4450  -32.6250   25.9040 C   0  0  0  0  0  1  0  0  0  0  0  0
  -25.5160  -33.9880   24.2320 N   0  0  0  0  0  0  0  0  0  0  0  0
  -25.8830  -35.0190   23.4590 C   0  0  0  0  0  0  0  0  0  0  0  0
  -26.5760  -34.8820   22.4460 O   0  0  0  0  0  0  0  0  0  0  0  0
  -24.9110  -34.1700   25.0190 H   0  0  0  0  0  0  0  0  0  0  0  0
  -24.2030  -36.8350   23.0170 C   0  0  0  0  0  1  0  0  0  0  0  0
  -25.4080  -36.4230   23.8770 C   0  0  0  0  0  3  0  0  0  0  0  0
  -27.5290  -37.2840   24.7640 C   0  0  0  0  0  1  0  0  0  0  0  0
  -26.4640  -37.4550   23.7800 N   0  0  0  0  0  0  0  0  0  0  0  0
  -26.0690  -38.3850   23.8970 H   0  0  0  0  0  0  0  0  0  0  0  0
  1  7  1  0
  1 52  1  0
  2  1  1  0
  3  2  1  0
  4  2  1  0
  5  2  1  0
  7  6  1  6
  7  8  1  0
  8 17  1  0
  9 17  1  0
 10 15  1  0
 11 12  1  0
 11 10  1  0
 13 12  1  0
 13 22  1  0
 13 14  1  0
 15  9  1  0
 15 14  1  0
 16  9  2  0
 17 18  1  0
 19 20  2  0
 20 21  1  0
 20 39  1  0
 21 24  1  0
 22 19  1  0
 22 23  1  0
 23 21  2  0
 24 25  1  0
 25 26  2  0
 27 30  1  0
 27 26  1  0
 28 27  2  0
 29 28  1  0
 29 24  2  0
 30 31  1  0
 31 32  1  0
 32 33  2  0
 34 33  1  0
 34 38  1  0
 35 34  2  0
 36 31  2  0
 36 35  1  0
 37 36  1  0
 39 40  1  0
 40 43  1  0
 40 42  1  0
 41 39  2  0
 44 19  1  0
 44 46  1  0
 45 44  1  0
 47 48  1  0
 47  7  1  0
 48 49  1  0
 50 48  1  0
 51 48  1  0
 53 52  1  0
 53 54  1  0
 54 55  1  0
 54 56  1  0
 58 57  1  0
 58 54  1  0
 58 59  1  0
 60 62  1  0
 60 59  1  0
 61 72  2  0
 62 67  1  0
 63 71  1  0
 63 73  1  0
 64 70  1  0
 64 66  1  0
 65 71  1  0
 66 67  2  0
 66 65  1  0
 68 62  2  0
 69 68  1  0
 69 64  2  0
 70 63  1  0
 71 61  1  0
 73 75  2  0
 74 73  1  0
 76 74  1  0
 77 86  2  0
 77 82  1  0
 78 74  1  0
 78 82  1  0
 79 78  1  0
 80 81  1  0
 80 79  1  0
 81 77  1  0
 82 83  2  0
 83 84  1  0
 85 84  2  0
 86 85  1  0
 87 61  1  0
 87 92  1  0
 87 88  1  0
 88 91  1  1
 88 89  1  0
 90 88  1  0
 92 95  1  0
 93 97  1  0
 93 92  1  0
 94 93  2  0
 97 96  1  0
 99 97  1  0
 99100  1  0
 99 98  1  0
M  ISO  4   9 100  17 100  59 101  60 101
M  END
>  <TORSDO>  (90) 
F 26

>  <SCORE>  (90) 
-11.821

>  <name>  (90) 
89

>  <ligand_id>  (90) 
89

>  <original_smiles>  (90) 
[H]c1c([H])c([H])c2c(c1[H])C([H])([H])C([H])([H])C([H])([H])C2([H])N([H])C(=O)C1([H])N(C(=O)C([H])(N([H])C(=O)C([H])(N([H])C([H])([H])[H])C([H])([H])[H])C(C([H])([H])[H])(C([H])([H])[H])C([H])([H])[H])C([H])([H])c2c([H])c(OC([H])([H])C([H])(C([H])([H])[H])[N+]([H])([H])C([H])([H])C([H])([H])C([H])(C(C([H])([H])[H])(C([H])([H])N([H])C(=O)N3C([H])([H])C([H])([H])C([H])([H])C([H])(n4nc(-c5c([H])c([H])c(Oc6c([H])c([H])c(F)c([H])c6F)c([H])c5[H])c(C(=O)N([H])[H])c4N([H])[H])C3([H])[H])C([H])([H])[N+]([H])([H])[H])[N+]([H])([H])[H])c([H])c([H])c2C1([H])[H]

>  <smiles>  (90) 
[H]c1c([H])c([H])c2c(c1[H])C([H])([H])C([H])([H])C([H])([H])C2([H])N([H])C(=O)C1([H])N(C(=O)C([H])(N([H])C(=O)C([H])(N([H])C([H])([H])[H])C([H])([H])[H])C(C([H])([H])[H])(C([H])([H])[H])C([H])([H])[H])C([H])([H])c2c([H])c(OC([H])([H])C([H])(C([H])([H])[H])[N+]([H])([H])C([H])([H])C([H])([H])C([H])(C(C([H])([H])[H])(C([H])([H])N([H])C(=O)N3C([H])([H])C([H])([H])C([H])([H])C([H])(n4nc(-c5c([H])c([H])c(Oc6c([H])c([H])c(F)c([H])c6F)c([H])c5[H])c(C(=O)N([H])[H])c4N([H])[H])C3([H])[H])C([H])([H])[N+]([H])([H])[H])[N+]([H])([H])[H])c([H])c([H])c2C1([H])[H]

$$$$
90:0:0
     RDKit          3D

 92101  0  0  1  0  0  0  0  0999 V2000
  -29.0340  -21.6810   21.0130 C   0  0  0  0  0  2  0  0  0  0  0  0
  -29.7710  -19.1000   18.0670 C   0  0  0  0  0  2  0  0  0  0  0  0
  -28.8840  -17.9730   18.6070 C   0  0  0  0  0  2  0  0  0  0  0  0
  -28.7100  -18.9970   21.0760 C   0  0  0  0  0  2  0  0  0  0  0  0
  -29.9580  -19.5900   19.5050 C   0  0  0  0  0  3  0  0  0  0  0  0
  -28.8220  -20.3190   20.2720 C   0  0  0  0  0  3  0  0  0  0  0  0
  -29.4960  -18.1870   20.0090 C   0  0  2  0  0  0  0  0  0  0  0  0
  -30.5450  -17.1180   20.4730 C   0  0  0  0  0  2  0  0  0  0  0  0
  -30.7850  -14.6270   20.0110 C   0  0  0  0  0  0  0  0  0  0  0  0
  -30.4350  -12.4370   18.9130 C   0  0  0  0  0  2  0  0  0  0  0  0
  -29.4230  -12.6180   17.7640 C   0  0  0  0  0  2  0  0  0  0  0  0
  -27.9780  -12.4760   18.2830 C   0  0  0  0  0  2  0  0  0  0  0  0
  -27.7150  -13.3230   19.5580 C   0  0  0  0  0  3  0  0  0  0  0  0
  -28.8380  -13.1310   20.6020 C   0  0  0  0  0  2  0  0  0  0  0  0
  -30.1140  -13.4410   19.9440 N   0  0  0  0  0  0  0  0  0  0  0  0
  -31.9150  -14.7620   19.5340 O   0  0  0  0  0  0  0  0  0  0  0  0
  -30.0830  -15.7010   20.4590 N   0  0  0  0  0  0  0  0  0  0  0  0
  -29.1510  -15.5230   20.7980 H   0  0  0  0  0  0  0  0  0  0  0  0
  -25.3830  -13.9360   20.4490 C   0  0  0  0  0  0  0  0  0  0  0  0
  -24.3300  -13.1670   20.8670 C   0  0  0  0  0  0  0  0  0  0  0  0
  -24.7680  -11.8100   20.7650 C   0  0  0  0  0  0  0  0  0  0  0  0
  -26.3960  -13.0480   20.1210 N   0  0  0  0  0  0  0  0  0  0  0  0
  -26.0340  -11.7630   20.3700 N   0  0  0  0  0  0  0  0  0  0  0  0
  -24.0360  -10.5530   20.9660 C   0  0  0  0  0  0  0  0  0  0  0  0
  -24.4860   -9.5740   21.8790 C   0  0  0  0  0  3  0  0  0  0  0  0
  -23.7540   -8.3820   22.0680 C   0  0  0  0  0  3  0  0  0  0  0  0
  -22.5570   -8.1600   21.3440 C   0  0  0  0  0  0  0  0  0  0  0  0
  -22.1270   -9.1290   20.4200 C   0  0  0  0  0  3  0  0  0  0  0  0
  -22.8590  -10.3130   20.2290 C   0  0  0  0  0  3  0  0  0  0  0  0
  -21.7950   -7.0220   21.4430 O   0  0  0  0  0  0  0  0  0  0  0  0
  -21.7430   -6.2900   22.6020 C   0  0  0  0  0  0  0  0  0  0  0  0
  -21.2860   -6.8470   23.8160 C   0  0  0  0  0  3  0  0  0  0  0  0
  -21.1830   -6.0400   24.9670 C   0  0  0  0  0  3  0  0  0  0  0  0
  -21.5260   -4.6770   24.9040 C   0  0  0  0  0  0  0  0  0  0  0  0
  -21.9770   -4.1190   23.6950 C   0  0  0  0  0  3  0  0  0  0  0  0
  -22.0820   -4.9220   22.5460 C   0  0  0  0  0  0  0  0  0  0  0  0
  -22.4960   -4.3740   21.3790 F   0  0  0  0  0  0  0  0  0  0  0  0
  -21.4200   -3.8990   26.0060 F   0  0  0  0  0  0  0  0  0  0  0  0
  -22.9630  -13.6560   21.2450 C   0  0  0  0  0  0  0  0  0  0  0  0
  -22.2800  -12.9390   22.1310 N   0  0  0  0  0  0  0  0  0  0  0  0
  -22.5090  -14.7060   20.7900 O   0  0  0  0  0  0  0  0  0  0  0  0
  -22.6600  -12.0890   22.5200 H   0  0  0  0  0  0  0  0  0  0  0  0
  -21.3650  -13.2470   22.4280 H   0  0  0  0  0  0  0  0  0  0  0  0
  -25.5570  -15.3090   20.3000 N   0  0  0  0  0  0  0  0  0  0  0  0
  -24.8070  -15.9680   20.4790 H   0  0  0  0  0  0  0  0  0  0  0  0
  -26.3850  -15.7470   19.9190 H   0  0  0  0  0  0  0  0  0  0  0  0
  -28.6330  -24.1650   20.6480 C   0  0  0  0  0  0  0  0  0  0  0  0
  -28.8970  -22.9110   20.1870 N   0  0  0  0  0  0  0  0  0  0  0  0
  -28.3940  -24.3710   21.8410 O   0  0  0  0  0  0  0  0  0  0  0  0
  -29.0870  -22.8170   19.1980 H   0  0  0  0  0  0  0  0  0  0  0  0
  -28.6710  -25.3690   19.6510 C   0  0  0  0  0  2  0  0  0  0  0  0
  -28.5210  -26.6810   20.2840 O   0  0  0  0  0  0  0  0  0  0  0  0
  -24.6640  -31.9310   23.2560 C   0  0  0  0  0  0  0  0  0  0  0  0
  -27.3340  -27.4110   20.2400 C   0  0  0  0  0  0  0  0  0  0  0  0
  -23.4720  -30.5030   21.6300 C   0  0  0  0  0  3  0  0  0  0  0  0
  -24.9360  -28.9520   20.2260 C   0  0  0  0  0  0  0  0  0  0  0  0
  -26.0030  -30.8580   21.4380 C   0  0  0  0  0  2  0  0  0  0  0  0
  -26.0940  -29.4760   20.8110 C   0  0  0  0  0  0  0  0  0  0  0  0
  -27.2930  -28.7140   20.8110 C   0  0  0  0  0  3  0  0  0  0  0  0
  -26.1440  -26.9140   19.6580 C   0  0  0  0  0  3  0  0  0  0  0  0
  -24.9590  -27.6750   19.6470 C   0  0  0  0  0  3  0  0  0  0  0  0
  -23.6900  -29.8110   20.2590 C   0  0  0  0  0  2  0  0  0  0  0  0
  -24.7320  -31.1150   22.1650 N   0  0  0  0  0  0  0  0  0  0  0  0
  -23.5790  -32.2040   23.7880 O   0  0  0  0  0  0  0  0  0  0  0  0
  -22.8240  -29.4900   22.6030 C   0  0  0  0  0  0  0  0  0  0  0  0
  -21.5020  -29.2900   22.4670 N   0  0  0  0  0  0  0  0  0  0  0  0
  -23.5070  -28.8870   23.4340 O   0  0  0  0  0  0  0  0  0  0  0  0
  -21.0110  -29.8290   21.7680 H   0  0  0  0  0  0  0  0  0  0  0  0
  -18.1370  -28.0690   22.9680 C   0  0  0  0  0  0  0  0  0  0  0  0
  -20.6900  -28.3540   23.2460 C   0  0  0  0  0  3  0  0  0  0  0  0
  -20.8090  -26.9170   22.6870 C   0  0  0  0  0  2  0  0  0  0  0  0
  -19.7130  -26.5720   21.6730 C   0  0  0  0  0  2  0  0  0  0  0  0
  -18.3270  -26.7130   22.3100 C   0  0  0  0  0  2  0  0  0  0  0  0
  -19.2470  -28.8470   23.3930 C   0  0  0  0  0  0  0  0  0  0  0  0
  -19.0140  -30.1150   23.9680 C   0  0  0  0  0  3  0  0  0  0  0  0
  -17.7050  -30.6070   24.1210 C   0  0  0  0  0  3  0  0  0  0  0  0
  -16.6090  -29.8270   23.7130 C   0  0  0  0  0  3  0  0  0  0  0  0
  -16.8260  -28.5590   23.1420 C   0  0  0  0  0  3  0  0  0  0  0  0
  -25.9440  -32.5810   23.8710 C   0  0  0  0  0  3  0  0  0  0  0  0
  -26.4650  -31.8310   25.1570 C   0  0  1  0  0  0  0  0  0  0  0  0
  -25.3710  -31.5900   26.2240 C   0  0  0  0  0  1  0  0  0  0  0  0
  -27.0680  -30.4560   24.7830 C   0  0  0  0  0  1  0  0  0  0  0  0
  -27.6030  -32.6470   25.8160 C   0  0  0  0  0  1  0  0  0  0  0  0
  -25.6240  -33.9800   24.1810 N   0  0  0  0  0  0  0  0  0  0  0  0
  -25.9510  -35.0250   23.4080 C   0  0  0  0  0  0  0  0  0  0  0  0
  -26.6250  -34.9130   22.3810 O   0  0  0  0  0  0  0  0  0  0  0  0
  -25.0270  -34.1420   24.9790 H   0  0  0  0  0  0  0  0  0  0  0  0
  -24.2190  -36.8060   23.0180 C   0  0  0  0  0  1  0  0  0  0  0  0
  -25.4530  -36.4170   23.8460 C   0  0  0  0  0  3  0  0  0  0  0  0
  -27.5700  -37.3260   24.6960 C   0  0  0  0  0  1  0  0  0  0  0  0
  -26.4830  -37.4740   23.7320 N   0  0  0  0  0  0  0  0  0  0  0  0
  -26.0690  -38.3930   23.8590 H   0  0  0  0  0  0  0  0  0  0  0  0
  2  3  1  0
  3  7  1  0
  5  2  1  0
  5  7  1  0
  5  6  1  0
  6  1  1  0
  6  4  1  0
  7  8  1  1
  7  4  1  0
  9 17  1  0
 10 15  1  0
 11 12  1  0
 11 10  1  0
 13 12  1  0
 13 22  1  0
 13 14  1  0
 15  9  1  0
 15 14  1  0
 16  9  2  0
 17  8  1  0
 17 18  1  0
 19 20  2  0
 20 39  1  0
 21 20  1  0
 21 24  1  0
 22 23  1  0
 22 19  1  0
 23 21  2  0
 24 25  1  0
 25 26  2  0
 27 30  1  0
 27 26  1  0
 28 27  2  0
 29 28  1  0
 29 24  2  0
 30 31  1  0
 31 32  1  0
 32 33  2  0
 34 33  1  0
 34 38  1  0
 35 34  2  0
 36 31  2  0
 36 35  1  0
 37 36  1  0
 39 40  1  0
 40 43  1  0
 40 42  1  0
 41 39  2  0
 44 19  1  0
 44 45  1  0
 46 44  1  0
 47 49  2  0
 48 47  1  0
 48  1  1  0
 50 48  1  0
 51 52  1  0
 51 47  1  0
 53 64  2  0
 54 52  1  0
 54 59  1  0
 55 63  1  0
 55 65  1  0
 56 62  1  0
 56 58  1  0
 57 63  1  0
 58 57  1  0
 59 58  2  0
 60 54  2  0
 61 60  1  0
 61 56  2  0
 62 55  1  0
 63 53  1  0
 65 67  2  0
 66 65  1  0
 68 66  1  0
 69 78  2  0
 69 74  1  0
 70 66  1  0
 70 74  1  0
 71 70  1  0
 72 73  1  0
 72 71  1  0
 73 69  1  0
 74 75  2  0
 75 76  1  0
 77 76  2  0
 78 77  1  0
 79 53  1  0
 79 84  1  0
 79 80  1  0
 80 83  1  1
 80 81  1  0
 82 80  1  0
 84 87  1  0
 85 89  1  0
 85 84  1  0
 86 85  2  0
 89 88  1  0
 91 89  1  0
 91 92  1  0
 91 90  1  0
M  ISO  4   9 100  17 100  51 101  52 101
M  END
>  <TORSDO>  (91) 
F 20

>  <SCORE>  (91) 
-13.447

>  <name>  (91) 
90

>  <ligand_id>  (91) 
90

>  <original_smiles>  (91) 
[H]c1c([H])c([H])c2c(c1[H])C([H])([H])C([H])([H])C([H])([H])C2([H])N([H])C(=O)C1([H])N(C(=O)C([H])(N([H])C(=O)C([H])(N([H])C([H])([H])[H])C([H])([H])[H])C(C([H])([H])[H])(C([H])([H])[H])C([H])([H])[H])C([H])([H])c2c([H])c(OC([H])([H])C(=O)N([H])C([H])([H])C3([H])C([H])([H])C4(C([H])([H])N([H])C(=O)N5C([H])([H])C([H])([H])C([H])([H])C([H])(n6nc(-c7c([H])c([H])c(Oc8c([H])c([H])c(F)c([H])c8F)c([H])c7[H])c(C(=O)N([H])[H])c6N([H])[H])C5([H])[H])C([H])([H])C([H])([H])C34[H])c([H])c([H])c2C1([H])[H]

>  <smiles>  (91) 
[H]c1c([H])c([H])c2c(c1[H])C([H])([H])C([H])([H])C([H])([H])C2([H])N([H])C(=O)C1([H])N(C(=O)C([H])(N([H])C(=O)C([H])(N([H])C([H])([H])[H])C([H])([H])[H])C(C([H])([H])[H])(C([H])([H])[H])C([H])([H])[H])C([H])([H])c2c([H])c(OC([H])([H])C(=O)N([H])C([H])([H])C3([H])C([H])([H])C4(C([H])([H])N([H])C(=O)N5C([H])([H])C([H])([H])C([H])([H])C([H])(n6nc(-c7c([H])c([H])c(Oc8c([H])c([H])c(F)c([H])c8F)c([H])c7[H])c(C(=O)N([H])[H])c6N([H])[H])C5([H])[H])C([H])([H])C([H])([H])C34[H])c([H])c([H])c2C1([H])[H]

$$$$
91:0:0
     RDKit          3D

 95103  0  0  1  0  0  0  0  0999 V2000
  -29.4210  -19.9570   19.2530 C   0  0  0  0  0  2  0  0  0  0  0  0
  -29.7960  -20.0470   21.6070 C   0  0  0  0  0  2  0  0  0  0  0  0
  -28.6390  -21.3700   19.3120 C   0  0  0  0  0  2  0  0  0  0  0  0
  -29.0260  -21.4490   21.6760 C   0  0  0  0  0  2  0  0  0  0  0  0
  -29.4060  -18.9660   20.5020 C   0  0  1  0  0  0  0  0  0  0  0  0
  -29.0150  -22.3160   20.4320 N   0  0  2  0  0  4  0  0  0  0  0  0
  -29.9810  -22.5720   20.2740 H   0  0  0  0  0  0  0  0  0  0  0  0
  -28.0400  -18.4480   20.7420 N   0  0  0  0  0  4  0  0  0  0  0  0
  -27.3500  -19.1740   20.8120 H   0  0  0  0  0  0  0  0  0  0  0  0
  -28.0070  -17.9260   21.6000 H   0  0  0  0  0  0  0  0  0  0  0  0
  -27.7660  -17.8400   19.9900 H   0  0  0  0  0  0  0  0  0  0  0  0
  -31.7090  -17.8480   21.1830 C   0  0  0  0  0  1  0  0  0  0  0  0
  -30.4240  -17.6330   20.3540 C   0  0  0  0  0  3  0  0  0  0  0  0
  -30.6970  -14.9640   20.1680 C   0  0  0  0  0  0  0  0  0  0  0  0
  -30.4760  -12.6790   19.1450 C   0  0  0  0  0  2  0  0  0  0  0  0
  -29.5210  -12.7460   17.9310 C   0  0  0  0  0  2  0  0  0  0  0  0
  -28.0610  -12.5630   18.3870 C   0  0  0  0  0  2  0  0  0  0  0  0
  -27.7090  -13.4380   19.6200 C   0  0  0  0  0  3  0  0  0  0  0  0
  -28.7870  -13.3530   20.7230 C   0  0  0  0  0  2  0  0  0  0  0  0
  -30.0620  -13.7360   20.1060 N   0  0  0  0  0  0  0  0  0  0  0  0
  -31.8620  -15.0290   19.7680 O   0  0  0  0  0  0  0  0  0  0  0  0
  -29.9810  -16.1360   20.4840 N   0  0  0  0  0  0  0  0  0  0  0  0
  -29.0410  -15.9590   20.8000 H   0  0  0  0  0  0  0  0  0  0  0  0
  -25.3330  -14.0130   20.3820 C   0  0  0  0  0  0  0  0  0  0  0  0
  -24.2810  -13.2340   20.7800 C   0  0  0  0  0  0  0  0  0  0  0  0
  -24.7520  -11.8860   20.7480 C   0  0  0  0  0  0  0  0  0  0  0  0
  -26.3770  -13.1390   20.1320 N   0  0  0  0  0  0  0  0  0  0  0  0
  -26.0380  -11.8560   20.4180 N   0  0  0  0  0  0  0  0  0  0  0  0
  -24.0370  -10.6200   20.9540 C   0  0  0  0  0  0  0  0  0  0  0  0
  -24.4750   -9.6720   21.9040 C   0  0  0  0  0  3  0  0  0  0  0  0
  -23.7590   -8.4710   22.1010 C   0  0  0  0  0  3  0  0  0  0  0  0
  -22.5910   -8.2090   21.3470 C   0  0  0  0  0  0  0  0  0  0  0  0
  -22.1720   -9.1460   20.3870 C   0  0  0  0  0  3  0  0  0  0  0  0
  -22.8890  -10.3380   20.1880 C   0  0  0  0  0  3  0  0  0  0  0  0
  -21.8490   -7.0580   21.4490 O   0  0  0  0  0  0  0  0  0  0  0  0
  -21.7820   -6.3460   22.6190 C   0  0  0  0  0  0  0  0  0  0  0  0
  -21.3070   -6.9240   23.8170 C   0  0  0  0  0  3  0  0  0  0  0  0
  -21.1920   -6.1390   24.9800 C   0  0  0  0  0  3  0  0  0  0  0  0
  -21.5400   -4.7750   24.9480 C   0  0  0  0  0  0  0  0  0  0  0  0
  -22.0070   -4.1960   23.7550 C   0  0  0  0  0  3  0  0  0  0  0  0
  -22.1270   -4.9800   22.5930 C   0  0  0  0  0  0  0  0  0  0  0  0
  -22.5580   -4.4120   21.4410 F   0  0  0  0  0  0  0  0  0  0  0  0
  -21.4210   -4.0180   26.0630 F   0  0  0  0  0  0  0  0  0  0  0  0
  -22.8850  -13.7060   21.0640 C   0  0  0  0  0  0  0  0  0  0  0  0
  -22.1720  -13.0120   21.9460 N   0  0  0  0  0  0  0  0  0  0  0  0
  -22.4380  -14.7250   20.5400 O   0  0  0  0  0  0  0  0  0  0  0  0
  -22.5540  -12.1890   22.3910 H   0  0  0  0  0  0  0  0  0  0  0  0
  -21.2330  -13.3060   22.1800 H   0  0  0  0  0  0  0  0  0  0  0  0
  -25.4880  -15.3810   20.1750 N   0  0  0  0  0  0  0  0  0  0  0  0
  -24.6270  -15.9150   20.1140 H   0  0  0  0  0  0  0  0  0  0  0  0
  -26.1560  -15.6590   19.4700 H   0  0  0  0  0  0  0  0  0  0  0  0
  -26.7180  -23.4790   20.6300 C   0  0  0  0  0  1  0  0  0  0  0  0
  -28.2480  -23.6940   20.6070 C   0  0  0  0  0  3  0  0  0  0  0  0
  -28.5770  -25.0410   19.7100 C   0  0  0  0  0  2  0  0  0  0  0  0
  -28.4490  -26.4920   20.1790 O   0  0  0  0  0  0  0  0  0  0  0  0
  -24.6520  -31.9220   23.1680 C   0  0  0  0  0  0  0  0  0  0  0  0
  -27.3200  -27.3530   20.0810 C   0  0  0  0  0  0  0  0  0  0  0  0
  -23.4710  -30.5250   21.5100 C   0  0  0  0  0  3  0  0  0  0  0  0
  -24.9450  -28.9950   20.0670 C   0  0  0  0  0  0  0  0  0  0  0  0
  -26.0110  -30.8570   21.3420 C   0  0  0  0  0  2  0  0  0  0  0  0
  -26.1070  -29.4780   20.6800 C   0  0  0  0  0  0  0  0  0  0  0  0
  -27.2910  -28.6690   20.6750 C   0  0  0  0  0  3  0  0  0  0  0  0
  -26.1350  -26.9460   19.4330 C   0  0  0  0  0  3  0  0  0  0  0  0
  -24.9660  -27.7410   19.4340 C   0  0  0  0  0  3  0  0  0  0  0  0
  -23.7000  -29.8640   20.1240 C   0  0  0  0  0  2  0  0  0  0  0  0
  -24.7300  -31.1220   22.0630 N   0  0  0  0  0  0  0  0  0  0  0  0
  -23.5630  -32.1810   23.7040 O   0  0  0  0  0  0  0  0  0  0  0  0
  -22.8160  -29.4950   22.4620 C   0  0  0  0  0  0  0  0  0  0  0  0
  -21.4900  -29.3120   22.3430 N   0  0  0  0  0  0  0  0  0  0  0  0
  -23.5030  -28.8620   23.2700 O   0  0  0  0  0  0  0  0  0  0  0  0
  -20.9930  -29.8760   21.6680 H   0  0  0  0  0  0  0  0  0  0  0  0
  -18.1250  -28.0810   22.8570 C   0  0  0  0  0  0  0  0  0  0  0  0
  -20.6840  -28.3570   23.1050 C   0  0  0  0  0  3  0  0  0  0  0  0
  -20.7920  -26.9350   22.5040 C   0  0  0  0  0  2  0  0  0  0  0  0
  -19.6830  -26.6200   21.4970 C   0  0  0  0  0  2  0  0  0  0  0  0
  -18.3050  -26.7450   22.1540 C   0  0  0  0  0  2  0  0  0  0  0  0
  -19.2430  -28.8440   23.2910 C   0  0  0  0  0  0  0  0  0  0  0  0
  -19.0200  -30.0930   23.9100 C   0  0  0  0  0  3  0  0  0  0  0  0
  -17.7140  -30.5810   24.0990 C   0  0  0  0  0  3  0  0  0  0  0  0
  -16.6120  -29.8170   23.6800 C   0  0  0  0  0  3  0  0  0  0  0  0
  -16.8180  -28.5690   23.0650 C   0  0  0  0  0  3  0  0  0  0  0  0
  -25.9240  -32.5670   23.8000 C   0  0  0  0  0  3  0  0  0  0  0  0
  -26.4450  -31.7960   25.0750 C   0  0  1  0  0  0  0  0  0  0  0  0
  -25.3500  -31.5420   26.1380 C   0  0  0  0  0  1  0  0  0  0  0  0
  -27.0430  -30.4250   24.6820 C   0  0  0  0  0  1  0  0  0  0  0  0
  -27.5840  -32.6000   25.7460 C   0  0  0  0  0  1  0  0  0  0  0  0
  -25.5950  -33.9600   24.1400 N   0  0  0  0  0  0  0  0  0  0  0  0
  -25.9140  -35.0260   23.3930 C   0  0  0  0  0  0  0  0  0  0  0  0
  -26.5860  -34.9390   22.3610 O   0  0  0  0  0  0  0  0  0  0  0  0
  -24.9980  -34.0990   24.9420 H   0  0  0  0  0  0  0  0  0  0  0  0
  -24.1700  -36.8070   23.0530 C   0  0  0  0  0  1  0  0  0  0  0  0
  -25.4110  -36.4040   23.8640 C   0  0  0  0  0  3  0  0  0  0  0  0
  -27.5290  -37.3070   24.7180 C   0  0  0  0  0  1  0  0  0  0  0  0
  -26.4330  -37.4680   23.7670 N   0  0  0  0  0  0  0  0  0  0  0  0
  -26.0150  -38.3820   23.9200 H   0  0  0  0  0  0  0  0  0  0  0  0
  1  3  1  0
  1  5  1  0
  2  4  1  0
  3  6  1  0
  5  8  1  0
  5  2  1  0
  6 53  1  0
  6  4  1  0
  6  7  1  6
  8  9  1  0
  8 10  1  0
 11  8  1  0
 13 22  1  0
  5 13  1  6
 13 12  1  0
 14 22  1  0
 15 20  1  0
 16 17  1  0
 16 15  1  0
 18 17  1  0
 18 27  1  0
 18 19  1  0
 20 14  1  0
 20 19  1  0
 21 14  2  0
 22 23  1  0
 24 25  2  0
 25 44  1  0
 26 25  1  0
 26 29  1  0
 27 24  1  0
 27 28  1  0
 28 26  2  0
 29 30  1  0
 30 31  2  0
 32 35  1  0
 32 31  1  0
 33 32  2  0
 34 33  1  0
 34 29  2  0
 35 36  1  0
 36 37  1  0
 37 38  2  0
 39 38  1  0
 39 43  1  0
 40 39  2  0
 41 36  2  0
 41 40  1  0
 42 41  1  0
 44 45  1  0
 45 48  1  0
 45 47  1  0
 46 44  2  0
 49 24  1  0
 50 49  1  0
 51 49  1  0
 53 52  1  0
 54 55  1  0
 54 53  1  0
 56 67  2  0
 57 55  1  0
 57 62  1  0
 58 66  1  0
 58 68  1  0
 59 65  1  0
 59 61  1  0
 60 66  1  0
 61 60  1  0
 62 61  2  0
 63 64  1  0
 63 57  2  0
 64 59  2  0
 65 58  1  0
 66 56  1  0
 68 70  2  0
 69 68  1  0
 71 69  1  0
 72 81  2  0
 72 77  1  0
 73 69  1  0
 73 77  1  0
 74 73  1  0
 75 76  1  0
 75 74  1  0
 76 72  1  0
 77 78  2  0
 78 79  1  0
 80 79  2  0
 81 80  1  0
 82 56  1  0
 82 87  1  0
 82 83  1  0
 83 86  1  1
 83 84  1  0
 85 83  1  0
 87 90  1  0
 88 92  1  0
 88 87  1  0
 89 88  2  0
 92 91  1  0
 94 92  1  0
 94 95  1  0
 94 93  1  0
M  ISO  4  14 100  22 100  54 101  55 101
M  END
>  <TORSDO>  (92) 
F 20

>  <SCORE>  (92) 
-14.085

>  <name>  (92) 
91

>  <ligand_id>  (92) 
91

>  <original_smiles>  (92) 
[H]c1c([H])c([H])c2c(c1[H])C([H])([H])C([H])([H])C([H])([H])C2([H])N([H])C(=O)C1([H])N(C(=O)C([H])(N([H])C(=O)C([H])(N([H])C([H])([H])[H])C([H])([H])[H])C(C([H])([H])[H])(C([H])([H])[H])C([H])([H])[H])C([H])([H])c2c([H])c(OC([H])([H])C([H])(C([H])([H])[H])[N+]3([H])C([H])([H])C([H])([H])C(C([H])(N([H])C(=O)N4C([H])([H])C([H])([H])C([H])([H])C([H])(n5nc(-c6c([H])c([H])c(Oc7c([H])c([H])c(F)c([H])c7F)c([H])c6[H])c(C(=O)N([H])[H])c5N([H])[H])C4([H])[H])C([H])([H])[H])([N+]([H])([H])[H])C([H])([H])C3([H])[H])c([H])c([H])c2C1([H])[H]

>  <smiles>  (92) 
[H]c1c([H])c([H])c2c(c1[H])C([H])([H])C([H])([H])C([H])([H])C2([H])N([H])C(=O)C1([H])N(C(=O)C([H])(N([H])C(=O)C([H])(N([H])C([H])([H])[H])C([H])([H])[H])C(C([H])([H])[H])(C([H])([H])[H])C([H])([H])[H])C([H])([H])c2c([H])c(OC([H])([H])C([H])(C([H])([H])[H])[N+]3([H])C([H])([H])C([H])([H])C(C([H])(N([H])C(=O)N4C([H])([H])C([H])([H])C([H])([H])C([H])(n5nc(-c6c([H])c([H])c(Oc7c([H])c([H])c(F)c([H])c7F)c([H])c6[H])c(C(=O)N([H])[H])c5N([H])[H])C4([H])[H])C([H])([H])[H])([N+]([H])([H])[H])C([H])([H])C3([H])[H])c([H])c([H])c2C1([H])[H]

$$$$
92:0:0
     RDKit          3D

 91100  0  0  1  0  0  0  0  0999 V2000
  -29.1320  -22.7440   18.0450 C   0  0  0  0  0  2  0  0  0  0  0  0
  -30.6370  -21.5510   19.7720 C   0  0  0  0  0  2  0  0  0  0  0  0
  -27.8940  -21.9890   18.6090 C   0  0  0  0  0  2  0  0  0  0  0  0
  -30.0020  -22.9410   19.3180 C   0  0  0  0  0  3  0  0  0  0  0  0
  -29.4060  -20.6150   19.8920 C   0  0  0  0  0  3  0  0  0  0  0  0
  -28.8960  -23.1680   20.3500 C   0  0  0  0  0  3  0  0  0  0  0  0
  -28.3140  -21.7470   20.0140 N   0  0  1  0  0  4  0  0  0  0  0  0
  -27.5340  -21.4690   20.5920 H   0  0  0  0  0  0  0  0  0  0  0  0
  -26.9720  -24.4190   21.4810 C   0  0  0  0  0  1  0  0  0  0  0  0
  -27.9140  -24.5840   20.2700 C   0  0  0  0  0  3  0  0  0  0  0  0
  -28.2570  -26.1240   20.2470 O   0  0  0  0  0  0  0  0  0  0  0  0
  -24.6490  -31.8580   23.2140 C   0  0  0  0  0  0  0  0  0  0  0  0
  -27.2220  -27.1430   20.1570 C   0  0  0  0  0  0  0  0  0  0  0  0
  -23.4450  -30.4600   21.5810 C   0  0  0  0  0  3  0  0  0  0  0  0
  -24.8930  -28.9010   20.1400 C   0  0  0  0  0  0  0  0  0  0  0  0
  -26.0000  -30.7300   21.4050 C   0  0  0  0  0  2  0  0  0  0  0  0
  -26.0750  -29.3390   20.7480 C   0  0  0  0  0  0  0  0  0  0  0  0
  -27.2390  -28.4770   20.7440 C   0  0  0  0  0  3  0  0  0  0  0  0
  -26.0190  -26.8310   19.4810 C   0  0  0  0  0  3  0  0  0  0  0  0
  -24.8790  -27.6610   19.4910 C   0  0  0  0  0  3  0  0  0  0  0  0
  -23.6620  -29.7910   20.1990 C   0  0  0  0  0  2  0  0  0  0  0  0
  -24.7190  -31.0370   22.1220 N   0  0  0  0  0  0  0  0  0  0  0  0
  -23.5640  -32.1380   23.7470 O   0  0  0  0  0  0  0  0  0  0  0  0
  -22.7760  -29.4460   22.5450 C   0  0  0  0  0  0  0  0  0  0  0  0
  -21.4480  -29.2710   22.4260 N   0  0  0  0  0  0  0  0  0  0  0  0
  -23.4550  -28.8210   23.3630 O   0  0  0  0  0  0  0  0  0  0  0  0
  -20.9560  -29.8280   21.7430 H   0  0  0  0  0  0  0  0  0  0  0  0
  -18.0740  -28.0570   22.9510 C   0  0  0  0  0  0  0  0  0  0  0  0
  -20.6340  -28.3300   23.2020 C   0  0  0  0  0  3  0  0  0  0  0  0
  -20.7370  -26.8980   22.6280 C   0  0  0  0  0  2  0  0  0  0  0  0
  -19.6300  -26.5710   21.6210 C   0  0  0  0  0  2  0  0  0  0  0  0
  -18.2510  -26.7090   22.2730 C   0  0  0  0  0  2  0  0  0  0  0  0
  -19.1920  -28.8250   23.3740 C   0  0  0  0  0  0  0  0  0  0  0  0
  -18.9700  -30.0840   23.9710 C   0  0  0  0  0  3  0  0  0  0  0  0
  -17.6630  -30.5770   24.1490 C   0  0  0  0  0  3  0  0  0  0  0  0
  -16.5600  -29.8070   23.7410 C   0  0  0  0  0  3  0  0  0  0  0  0
  -16.7670  -28.5480   23.1490 C   0  0  0  0  0  3  0  0  0  0  0  0
  -25.9270  -32.4990   23.8340 C   0  0  0  0  0  3  0  0  0  0  0  0
  -26.4490  -31.7300   25.1100 C   0  0  1  0  0  0  0  0  0  0  0  0
  -25.3580  -31.4900   26.1810 C   0  0  0  0  0  1  0  0  0  0  0  0
  -27.0350  -30.3530   24.7220 C   0  0  0  0  0  1  0  0  0  0  0  0
  -27.6000  -32.5280   25.7670 C   0  0  0  0  0  1  0  0  0  0  0  0
  -25.6090  -33.8960   24.1730 N   0  0  0  0  0  0  0  0  0  0  0  0
  -25.9250  -34.9560   23.4190 C   0  0  0  0  0  0  0  0  0  0  0  0
  -26.5840  -34.8620   22.3800 O   0  0  0  0  0  0  0  0  0  0  0  0
  -25.0220  -34.0420   24.9820 H   0  0  0  0  0  0  0  0  0  0  0  0
  -24.1840  -36.7450   23.0990 C   0  0  0  0  0  1  0  0  0  0  0  0
  -25.4380  -36.3400   23.8920 C   0  0  0  0  0  3  0  0  0  0  0  0
  -27.5770  -37.2330   24.7020 C   0  0  0  0  0  1  0  0  0  0  0  0
  -26.4630  -37.4000   23.7710 N   0  0  0  0  0  0  0  0  0  0  0  0
  -26.0560  -38.3170   23.9280 H   0  0  0  0  0  0  0  0  0  0  0  0
  -29.3730  -19.0950   20.6520 C   0  0  0  0  0  2  0  0  0  0  0  0
  -30.1920  -17.7030   20.1290 C   0  0  0  0  0  2  0  0  0  0  0  0
  -30.6110  -14.9890   20.3320 C   0  0  0  0  0  0  0  0  0  0  0  0
  -30.4450  -12.6440   19.3850 C   0  0  0  0  0  2  0  0  0  0  0  0
  -29.5060  -12.6240   18.1560 C   0  0  0  0  0  2  0  0  0  0  0  0
  -28.0440  -12.4240   18.5950 C   0  0  0  0  0  2  0  0  0  0  0  0
  -27.6540  -13.3400   19.7840 C   0  0  0  0  0  3  0  0  0  0  0  0
  -28.7180  -13.3390   20.9050 C   0  0  0  0  0  2  0  0  0  0  0  0
  -29.9910  -13.7390   20.2920 N   0  0  0  0  0  0  0  0  0  0  0  0
  -31.8010  -15.0340   20.0100 O   0  0  0  0  0  0  0  0  0  0  0  0
  -29.8700  -16.1940   20.5070 N   0  0  0  0  0  0  0  0  0  0  0  0
  -28.9100  -16.0290   20.7790 H   0  0  0  0  0  0  0  0  0  0  0  0
  -25.2790  -13.9230   20.5370 C   0  0  0  0  0  0  0  0  0  0  0  0
  -24.2140  -13.1510   20.9070 C   0  0  0  0  0  0  0  0  0  0  0  0
  -24.6720  -11.7990   20.8660 C   0  0  0  0  0  0  0  0  0  0  0  0
  -26.3180  -13.0430   20.2890 N   0  0  0  0  0  0  0  0  0  0  0  0
  -25.9620  -11.7580   20.5530 N   0  0  0  0  0  0  0  0  0  0  0  0
  -23.9390  -10.5390   21.0510 C   0  0  0  0  0  0  0  0  0  0  0  0
  -24.3640   -9.5660   21.9840 C   0  0  0  0  0  3  0  0  0  0  0  0
  -23.6310   -8.3730   22.1580 C   0  0  0  0  0  3  0  0  0  0  0  0
  -22.4580   -8.1420   21.4000 C   0  0  0  0  0  0  0  0  0  0  0  0
  -22.0530   -9.1030   20.4560 C   0  0  0  0  0  3  0  0  0  0  0  0
  -22.7860  -10.2880   20.2800 C   0  0  0  0  0  3  0  0  0  0  0  0
  -21.6970   -7.0010   21.4840 O   0  0  0  0  0  0  0  0  0  0  0  0
  -21.6360   -6.2610   22.6370 C   0  0  0  0  0  0  0  0  0  0  0  0
  -21.1960   -6.8170   23.8580 C   0  0  0  0  0  3  0  0  0  0  0  0
  -21.0820   -6.0030   25.0020 C   0  0  0  0  0  3  0  0  0  0  0  0
  -21.3960   -4.6340   24.9270 C   0  0  0  0  0  0  0  0  0  0  0  0
  -21.8280   -4.0760   23.7100 C   0  0  0  0  0  3  0  0  0  0  0  0
  -21.9440   -4.8860   22.5690 C   0  0  0  0  0  0  0  0  0  0  0  0
  -22.3400   -4.3400   21.3940 F   0  0  0  0  0  0  0  0  0  0  0  0
  -21.2790   -3.8490   26.0230 F   0  0  0  0  0  0  0  0  0  0  0  0
  -22.8190  -13.6330   21.1830 C   0  0  0  0  0  0  0  0  0  0  0  0
  -22.0900  -12.9350   22.0450 N   0  0  0  0  0  0  0  0  0  0  0  0
  -22.3870  -14.6650   20.6710 O   0  0  0  0  0  0  0  0  0  0  0  0
  -22.4530  -12.1000   22.4800 H   0  0  0  0  0  0  0  0  0  0  0  0
  -21.1550  -13.2400   22.2740 H   0  0  0  0  0  0  0  0  0  0  0  0
  -25.4470  -15.2950   20.3640 N   0  0  0  0  0  0  0  0  0  0  0  0
  -24.6780  -15.9470   20.4720 H   0  0  0  0  0  0  0  0  0  0  0  0
  -26.2860  -15.7290   20.0000 H   0  0  0  0  0  0  0  0  0  0  0  0
  1  3  1  0
  2  5  1  0
  3  7  1  0
  4  1  1  0
  4  2  1  0
  4  6  1  0
  5  7  1  0
  5 52  1  0
  6 10  1  0
  7  6  1  0
  7  8  1  1
 10  9  1  0
 11 10  1  0
 12 23  2  0
 13 11  1  0
 13 18  1  0
 14 22  1  0
 14 24  1  0
 15 21  1  0
 15 17  1  0
 16 22  1  0
 17 16  1  0
 18 17  2  0
 19 20  1  0
 19 13  2  0
 20 15  2  0
 21 14  1  0
 22 12  1  0
 24 26  2  0
 25 24  1  0
 27 25  1  0
 28 37  2  0
 28 33  1  0
 29 25  1  0
 29 33  1  0
 30 29  1  0
 31 32  1  0
 31 30  1  0
 32 28  1  0
 33 34  2  0
 34 35  1  0
 36 35  2  0
 37 36  1  0
 38 12  1  0
 38 43  1  0
 38 39  1  0
 39 42  1  1
 39 40  1  0
 41 39  1  0
 43 46  1  0
 44 48  1  0
 44 43  1  0
 45 44  2  0
 48 47  1  0
 50 48  1  0
 50 51  1  0
 50 49  1  0
 53 62  1  0
 53 52  1  0
 54 62  1  0
 55 60  1  0
 56 57  1  0
 56 55  1  0
 58 57  1  0
 58 67  1  0
 58 59  1  0
 60 54  1  0
 60 59  1  0
 61 54  2  0
 62 63  1  0
 64 65  2  0
 65 84  1  0
 66 65  1  0
 66 69  1  0
 67 64  1  0
 67 68  1  0
 68 66  2  0
 69 70  1  0
 70 71  2  0
 72 75  1  0
 72 71  1  0
 73 72  2  0
 74 73  1  0
 74 69  2  0
 75 76  1  0
 76 77  1  0
 77 78  2  0
 79 78  1  0
 79 83  1  0
 80 79  2  0
 81 76  2  0
 81 80  1  0
 82 81  1  0
 84 85  1  0
 85 88  1  0
 85 87  1  0
 86 84  2  0
 89 90  1  0
 89 64  1  0
 91 89  1  0
M  ISO  4  10 101  11 101  54 100  62 100
M  END
>  <TORSDO>  (93) 
F 19

>  <SCORE>  (93) 
-15.658

>  <name>  (93) 
92

>  <ligand_id>  (93) 
92

>  <original_smiles>  (93) 
[H]c1c([H])c([H])c2c(c1[H])C([H])([H])C([H])([H])C([H])([H])C2([H])N([H])C(=O)C1([H])N(C(=O)C([H])(N([H])C(=O)C([H])(N([H])C([H])([H])[H])C([H])([H])[H])C(C([H])([H])[H])(C([H])([H])[H])C([H])([H])[H])C([H])([H])c2c([H])c(OC([H])(C([H])([H])[H])C3([H])C4([H])C([H])([H])C([H])([H])[N+]3([H])C([H])(C([H])([H])C([H])([H])N([H])C(=O)N3C([H])([H])C([H])([H])C([H])([H])C([H])(n5nc(-c6c([H])c([H])c(Oc7c([H])c([H])c(F)c([H])c7F)c([H])c6[H])c(C(=O)N([H])[H])c5N([H])[H])C3([H])[H])C4([H])[H])c([H])c([H])c2C1([H])[H]

>  <smiles>  (93) 
[H]c1c([H])c([H])c2c(c1[H])C([H])([H])C([H])([H])C([H])([H])C2([H])N([H])C(=O)C1([H])N(C(=O)C([H])(N([H])C(=O)C([H])(N([H])C([H])([H])[H])C([H])([H])[H])C(C([H])([H])[H])(C([H])([H])[H])C([H])([H])[H])C([H])([H])c2c([H])c(OC([H])(C([H])([H])[H])C3([H])C4([H])C([H])([H])C([H])([H])[N+]3([H])C([H])(C([H])([H])C([H])([H])N([H])C(=O)N3C([H])([H])C([H])([H])C([H])([H])C([H])(n5nc(-c6c([H])c([H])c(Oc7c([H])c([H])c(F)c([H])c7F)c([H])c6[H])c(C(=O)N([H])[H])c5N([H])[H])C3([H])[H])C4([H])[H])c([H])c([H])c2C1([H])[H]

$$$$
93:0:0
     RDKit          3D

 91100  0  0  1  0  0  0  0  0999 V2000
  -29.6960  -18.5830   18.9850 C   0  0  0  0  0  2  0  0  0  0  0  0
  -29.9010  -20.1860   18.9980 C   0  0  0  0  0  2  0  0  0  0  0  0
  -28.1430  -21.9620   20.2710 C   0  0  0  0  0  2  0  0  0  0  0  0
  -30.0830  -22.5150   20.4930 C   0  0  0  0  0  2  0  0  0  0  0  0
  -29.4250  -18.6030   21.3740 C   0  0  0  0  0  2  0  0  0  0  0  0
  -28.8440  -23.3750   19.9970 C   0  0  0  0  0  3  0  0  0  0  0  0
  -30.1640  -17.7530   20.2460 C   0  0  0  0  0  3  0  0  0  0  0  0
  -29.4580  -21.0480   20.2540 C   0  0  2  0  0  0  0  0  0  0  0  0
  -29.6830  -20.1160   21.4450 N   0  0  0  0  0  4  0  0  0  0  0  0
  -30.6540  -20.1990   21.7020 H   0  0  0  0  0  0  0  0  0  0  0  0
  -29.1660  -20.4650   22.2350 H   0  0  0  0  0  0  0  0  0  0  0  0
  -30.7000  -15.0290   20.0420 C   0  0  0  0  0  0  0  0  0  0  0  0
  -30.5290  -12.6960   19.0750 C   0  0  0  0  0  2  0  0  0  0  0  0
  -29.5400  -12.6820   17.8860 C   0  0  0  0  0  2  0  0  0  0  0  0
  -28.0950  -12.4790   18.3800 C   0  0  0  0  0  2  0  0  0  0  0  0
  -27.7470  -13.3890   19.5860 C   0  0  0  0  0  3  0  0  0  0  0  0
  -28.8510  -13.3690   20.6650 C   0  0  0  0  0  2  0  0  0  0  0  0
  -30.1000  -13.7750   20.0070 N   0  0  0  0  0  0  0  0  0  0  0  0
  -31.8870  -15.1100   19.7110 O   0  0  0  0  0  0  0  0  0  0  0  0
  -29.9110  -16.1890   20.2500 N   0  0  0  0  0  0  0  0  0  0  0  0
  -28.9540  -15.9460   20.4560 H   0  0  0  0  0  0  0  0  0  0  0  0
  -25.4070  -13.9750   20.4430 C   0  0  0  0  0  0  0  0  0  0  0  0
  -24.3540  -13.2020   20.8470 C   0  0  0  0  0  0  0  0  0  0  0  0
  -24.8040  -11.8480   20.7680 C   0  0  0  0  0  0  0  0  0  0  0  0
  -26.4310  -13.0930   20.1390 N   0  0  0  0  0  0  0  0  0  0  0  0
  -26.0800  -11.8070   20.3990 N   0  0  0  0  0  0  0  0  0  0  0  0
  -24.0760  -10.5870   20.9650 C   0  0  0  0  0  0  0  0  0  0  0  0
  -24.5190   -9.6140   21.8850 C   0  0  0  0  0  3  0  0  0  0  0  0
  -23.7900   -8.4190   22.0710 C   0  0  0  0  0  3  0  0  0  0  0  0
  -22.6030   -8.1900   21.3350 C   0  0  0  0  0  0  0  0  0  0  0  0
  -22.1780   -9.1530   20.4030 C   0  0  0  0  0  3  0  0  0  0  0  0
  -22.9080  -10.3390   20.2150 C   0  0  0  0  0  3  0  0  0  0  0  0
  -21.8440   -7.0490   21.4310 O   0  0  0  0  0  0  0  0  0  0  0  0
  -21.7810   -6.3230   22.5930 C   0  0  0  0  0  0  0  0  0  0  0  0
  -21.2870   -6.8780   23.7930 C   0  0  0  0  0  3  0  0  0  0  0  0
  -21.1740   -6.0760   24.9460 C   0  0  0  0  0  3  0  0  0  0  0  0
  -21.5440   -4.7190   24.8980 C   0  0  0  0  0  0  0  0  0  0  0  0
  -22.0290   -4.1620   23.7030 C   0  0  0  0  0  3  0  0  0  0  0  0
  -22.1440   -4.9610   22.5520 C   0  0  0  0  0  0  0  0  0  0  0  0
  -22.5920   -4.4150   21.3960 F   0  0  0  0  0  0  0  0  0  0  0  0
  -21.4270   -3.9450   26.0040 F   0  0  0  0  0  0  0  0  0  0  0  0
  -22.9740  -13.6840   21.1870 C   0  0  0  0  0  0  0  0  0  0  0  0
  -22.2800  -12.9790   22.0730 N   0  0  0  0  0  0  0  0  0  0  0  0
  -22.5230  -14.7210   20.7020 O   0  0  0  0  0  0  0  0  0  0  0  0
  -22.6590  -12.1400   22.4860 H   0  0  0  0  0  0  0  0  0  0  0  0
  -21.3550  -13.2830   22.3420 H   0  0  0  0  0  0  0  0  0  0  0  0
  -25.5720  -15.3480   20.2830 N   0  0  0  0  0  0  0  0  0  0  0  0
  -24.8040  -15.9950   20.4250 H   0  0  0  0  0  0  0  0  0  0  0  0
  -26.3780  -15.7820   19.8540 H   0  0  0  0  0  0  0  0  0  0  0  0
  -28.2770  -24.8290   20.6350 C   0  0  0  0  0  2  0  0  0  0  0  0
  -28.5040  -26.3050   20.2070 O   0  0  0  0  0  0  0  0  0  0  0  0
  -24.5770  -31.8150   23.1470 C   0  0  0  0  0  0  0  0  0  0  0  0
  -27.4140  -27.2430   20.1600 C   0  0  0  0  0  0  0  0  0  0  0  0
  -23.4830  -30.4060   21.4460 C   0  0  0  0  0  3  0  0  0  0  0  0
  -25.0320  -28.8990   20.0580 C   0  0  0  0  0  0  0  0  0  0  0  0
  -26.0300  -30.7600   21.3780 C   0  0  0  0  0  2  0  0  0  0  0  0
  -26.1730  -29.3800   20.7140 C   0  0  0  0  0  0  0  0  0  0  0  0
  -27.3680  -28.5690   20.7460 C   0  0  0  0  0  3  0  0  0  0  0  0
  -26.2490  -26.8610   19.4620 C   0  0  0  0  0  3  0  0  0  0  0  0
  -25.0820  -27.6530   19.4160 C   0  0  0  0  0  3  0  0  0  0  0  0
  -23.7750  -29.7540   20.0690 C   0  0  0  0  0  2  0  0  0  0  0  0
  -24.7130  -31.0150   22.0470 N   0  0  0  0  0  0  0  0  0  0  0  0
  -23.4640  -32.0580   23.6390 O   0  0  0  0  0  0  0  0  0  0  0  0
  -22.8030  -29.3640   22.3700 C   0  0  0  0  0  0  0  0  0  0  0  0
  -21.4790  -29.1790   22.2140 N   0  0  0  0  0  0  0  0  0  0  0  0
  -23.4690  -28.7260   23.1900 O   0  0  0  0  0  0  0  0  0  0  0  0
  -20.9990  -29.7470   21.5310 H   0  0  0  0  0  0  0  0  0  0  0  0
  -18.0980  -27.9630   22.6660 C   0  0  0  0  0  0  0  0  0  0  0  0
  -20.6570  -28.2120   22.9460 C   0  0  0  0  0  3  0  0  0  0  0  0
  -20.7580  -26.8040   22.3140 C   0  0  0  0  0  2  0  0  0  0  0  0
  -19.6570  -26.5230   21.2860 C   0  0  0  0  0  2  0  0  0  0  0  0
  -18.2740  -26.6430   21.9340 C   0  0  0  0  0  2  0  0  0  0  0  0
  -19.2170  -28.7070   23.1270 C   0  0  0  0  0  0  0  0  0  0  0  0
  -18.9960  -29.9430   23.7730 C   0  0  0  0  0  3  0  0  0  0  0  0
  -17.6910  -30.4350   23.9600 C   0  0  0  0  0  3  0  0  0  0  0  0
  -16.5870  -29.6870   23.5140 C   0  0  0  0  0  3  0  0  0  0  0  0
  -16.7920  -28.4520   22.8730 C   0  0  0  0  0  3  0  0  0  0  0  0
  -25.8120  -32.4810   23.8300 C   0  0  0  0  0  3  0  0  0  0  0  0
  -25.4480  -33.8690   24.1550 N   0  0  0  0  0  0  0  0  0  0  0  0
  -25.7580  -34.9360   23.4060 C   0  0  0  0  0  0  0  0  0  0  0  0
  -26.4460  -34.8580   22.3850 O   0  0  0  0  0  0  0  0  0  0  0  0
  -24.8370  -34.0020   24.9480 H   0  0  0  0  0  0  0  0  0  0  0  0
  -23.9780  -36.6760   23.0360 C   0  0  0  0  0  1  0  0  0  0  0  0
  -25.2220  -36.3080   23.8610 C   0  0  0  0  0  3  0  0  0  0  0  0
  -27.3090  -37.2700   24.7290 C   0  0  0  0  0  1  0  0  0  0  0  0
  -26.2210  -37.3950   23.7620 N   0  0  0  0  0  0  0  0  0  0  0  0
  -25.7820  -38.3010   23.8940 H   0  0  0  0  0  0  0  0  0  0  0  0
  -26.2890  -31.7200   25.1280 C   0  0  1  0  0  0  0  0  0  0  0  0
  -25.1550  -31.4480   26.1440 C   0  0  0  0  0  1  0  0  0  0  0  0
  -26.9260  -30.3590   24.7640 C   0  0  0  0  0  1  0  0  0  0  0  0
  -27.3860  -32.5420   25.8440 C   0  0  0  0  0  1  0  0  0  0  0  0
  1  2  1  0
  1  7  1  0
  5  9  1  0
  6  3  1  0
  6  4  1  0
  6 50  1  0
  7 20  1  0
  7  5  1  0
  8  2  1  6
  8  3  1  0
  8  4  1  0
  8  9  1  0
  9 10  1  0
  9 11  1  0
 12 20  1  0
 13 18  1  0
 14 15  1  0
 14 13  1  0
 16 15  1  0
 16 25  1  0
 16 17  1  0
 18 12  1  0
 18 17  1  0
 19 12  2  0
 20 21  1  0
 22 23  2  0
 23 42  1  0
 24 23  1  0
 24 27  1  0
 25 26  1  0
 25 22  1  0
 26 24  2  0
 27 28  1  0
 28 29  2  0
 30 33  1  0
 30 29  1  0
 31 30  2  0
 32 31  1  0
 32 27  2  0
 33 34  1  0
 34 35  1  0
 35 36  2  0
 37 36  1  0
 37 41  1  0
 38 37  2  0
 39 34  2  0
 39 38  1  0
 40 39  1  0
 42 43  1  0
 43 46  1  0
 43 45  1  0
 44 42  2  0
 47 48  1  0
 47 22  1  0
 49 47  1  0
 51 50  1  0
 52 63  2  0
 53 51  1  0
 53 58  1  0
 54 62  1  0
 54 64  1  0
 55 61  1  0
 55 57  1  0
 56 62  1  0
 57 58  2  0
 57 56  1  0
 59 53  2  0
 60 59  1  0
 60 55  2  0
 61 54  1  0
 62 52  1  0
 64 66  2  0
 65 64  1  0
 67 65  1  0
 68 77  2  0
 68 73  1  0
 69 65  1  0
 69 73  1  0
 70 69  1  0
 71 72  1  0
 71 70  1  0
 72 68  1  0
 73 74  2  0
 74 75  1  0
 76 75  2  0
 77 76  1  0
 78 52  1  0
 78 79  1  0
 78 88  1  0
 79 82  1  0
 80 84  1  0
 80 79  1  0
 81 80  2  0
 84 83  1  0
 86 84  1  0
 86 87  1  0
 86 85  1  0
 88 91  1  1
 88 89  1  0
 90 88  1  0
M  ISO  4  12 100  20 100  50 101  51 101
M  END
>  <TORSDO>  (94) 
F 17

>  <SCORE>  (94) 
-14.645

>  <name>  (94) 
93

>  <ligand_id>  (94) 
93

>  <original_smiles>  (94) 
[H]c1c([H])c([H])c2c(c1[H])C([H])([H])C([H])([H])C([H])([H])C2([H])N([H])C(=O)C1([H])N(C(=O)C([H])(N([H])C(=O)C([H])(N([H])C([H])([H])[H])C([H])([H])[H])C(C([H])([H])[H])(C([H])([H])[H])C([H])([H])[H])C([H])([H])c2c([H])c(OC([H])([H])C3([H])C([H])([H])C4(C([H])([H])C([H])([H])C([H])(N([H])C(=O)N5C([H])([H])C([H])([H])C([H])([H])C([H])(n6nc(-c7c([H])c([H])c(Oc8c([H])c([H])c(F)c([H])c8F)c([H])c7[H])c(C(=O)N([H])[H])c6N([H])[H])C5([H])[H])C([H])([H])[N+]4([H])[H])C3([H])[H])c([H])c([H])c2C1([H])[H]

>  <smiles>  (94) 
[H]c1c([H])c([H])c2c(c1[H])C([H])([H])C([H])([H])C([H])([H])C2([H])N([H])C(=O)C1([H])N(C(=O)C([H])(N([H])C(=O)C([H])(N([H])C([H])([H])[H])C([H])([H])[H])C(C([H])([H])[H])(C([H])([H])[H])C([H])([H])[H])C([H])([H])c2c([H])c(OC([H])([H])C3([H])C([H])([H])C4(C([H])([H])C([H])([H])C([H])(N([H])C(=O)N5C([H])([H])C([H])([H])C([H])([H])C([H])(n6nc(-c7c([H])c([H])c(Oc8c([H])c([H])c(F)c([H])c8F)c([H])c7[H])c(C(=O)N([H])[H])c6N([H])[H])C5([H])[H])C([H])([H])[N+]4([H])[H])C3([H])[H])c([H])c([H])c2C1([H])[H]

$$$$
94:0:0
     RDKit          3D

 92100  0  0  1  0  0  0  0  0999 V2000
  -31.1290  -22.6550   21.4910 C   0  0  0  0  0  2  0  0  0  0  0  0
  -28.9850  -22.9880   20.1850 C   0  0  0  0  0  2  0  0  0  0  0  0
  -31.5840  -24.0490   20.9920 C   0  0  0  0  0  2  0  0  0  0  0  0
  -30.1180  -21.9850   20.5220 C   0  0  0  0  0  3  0  0  0  0  0  0
  -29.4750  -24.4010   19.7460 C   0  0  0  0  0  3  0  0  0  0  0  0
  -30.4380  -24.9490   20.7320 N   0  0  0  0  0  4  0  0  0  0  0  0
  -30.8040  -25.8270   20.3920 H   0  0  0  0  0  0  0  0  0  0  0  0
  -29.9590  -25.1500   21.5990 H   0  0  0  0  0  0  0  0  0  0  0  0
  -29.5060  -20.6440   21.0420 C   0  0  0  0  0  3  0  0  0  0  0  0
  -30.4630  -19.4280   21.0080 C   0  0  0  0  0  3  0  0  0  0  0  0
  -29.8450  -18.0490   21.3940 C   0  0  0  0  0  2  0  0  0  0  0  0
  -30.6790  -16.8880   20.8010 C   0  0  0  0  0  2  0  0  0  0  0  0
  -30.7290  -14.4620   20.4370 C   0  0  0  0  0  0  0  0  0  0  0  0
  -30.3640  -12.3160   19.2940 C   0  0  0  0  0  2  0  0  0  0  0  0
  -29.4410  -12.5500   18.0820 C   0  0  0  0  0  2  0  0  0  0  0  0
  -27.9580  -12.4360   18.4890 C   0  0  0  0  0  2  0  0  0  0  0  0
  -27.6220  -13.2500   19.7700 C   0  0  0  0  0  3  0  0  0  0  0  0
  -28.6790  -13.0260   20.8800 C   0  0  0  0  0  2  0  0  0  0  0  0
  -30.0080  -13.3110   20.3160 N   0  0  0  0  0  0  0  0  0  0  0  0
  -31.8410  -14.5980   19.9230 O   0  0  0  0  0  0  0  0  0  0  0  0
  -30.1290  -15.5300   20.9910 N   0  0  0  0  0  0  0  0  0  0  0  0
  -29.2180  -15.4120   21.4090 H   0  0  0  0  0  0  0  0  0  0  0  0
  -25.2120  -13.8440   20.4580 C   0  0  0  0  0  0  0  0  0  0  0  0
  -24.1440  -13.0700   20.8250 C   0  0  0  0  0  0  0  0  0  0  0  0
  -24.6100  -11.7220   20.8010 C   0  0  0  0  0  0  0  0  0  0  0  0
  -26.2630  -12.9680   20.2400 N   0  0  0  0  0  0  0  0  0  0  0  0
  -25.9040  -11.6850   20.5040 N   0  0  0  0  0  0  0  0  0  0  0  0
  -23.8880  -10.4570   20.9940 C   0  0  0  0  0  0  0  0  0  0  0  0
  -24.3120   -9.5010   21.9440 C   0  0  0  0  0  3  0  0  0  0  0  0
  -23.5900   -8.3030   22.1260 C   0  0  0  0  0  3  0  0  0  0  0  0
  -22.4290   -8.0480   21.3580 C   0  0  0  0  0  0  0  0  0  0  0  0
  -22.0250   -8.9910   20.3970 C   0  0  0  0  0  3  0  0  0  0  0  0
  -22.7470  -10.1830   20.2140 C   0  0  0  0  0  3  0  0  0  0  0  0
  -21.6790   -6.9010   21.4480 O   0  0  0  0  0  0  0  0  0  0  0  0
  -21.6100   -6.1750   22.6100 C   0  0  0  0  0  0  0  0  0  0  0  0
  -21.1380   -6.7380   23.8150 C   0  0  0  0  0  3  0  0  0  0  0  0
  -21.0170   -5.9370   24.9680 C   0  0  0  0  0  3  0  0  0  0  0  0
  -21.3590   -4.5720   24.9160 C   0  0  0  0  0  0  0  0  0  0  0  0
  -21.8220   -4.0070   23.7140 C   0  0  0  0  0  3  0  0  0  0  0  0
  -21.9440   -4.8060   22.5640 C   0  0  0  0  0  0  0  0  0  0  0  0
  -22.3710   -4.2510   21.4040 F   0  0  0  0  0  0  0  0  0  0  0  0
  -21.2350   -3.8000   26.0200 F   0  0  0  0  0  0  0  0  0  0  0  0
  -22.7430  -13.5430   21.0890 C   0  0  0  0  0  0  0  0  0  0  0  0
  -22.0110  -12.8450   21.9510 N   0  0  0  0  0  0  0  0  0  0  0  0
  -22.3070  -14.5670   20.5660 O   0  0  0  0  0  0  0  0  0  0  0  0
  -22.3790  -12.0170   22.3950 H   0  0  0  0  0  0  0  0  0  0  0  0
  -21.0710  -13.1430   22.1670 H   0  0  0  0  0  0  0  0  0  0  0  0
  -25.3730  -15.2160   20.2790 N   0  0  0  0  0  0  0  0  0  0  0  0
  -24.6060  -15.8690   20.3930 H   0  0  0  0  0  0  0  0  0  0  0  0
  -26.2280  -15.6620   19.9720 H   0  0  0  0  0  0  0  0  0  0  0  0
  -28.2680  -25.3460   19.4890 C   0  0  0  0  0  2  0  0  0  0  0  0
  -28.3280  -26.6630   20.0800 O   0  0  0  0  0  0  0  0  0  0  0  0
  -24.5530  -31.8680   23.2310 C   0  0  0  0  0  0  0  0  0  0  0  0
  -27.1550  -27.4120   20.0870 C   0  0  0  0  0  0  0  0  0  0  0  0
  -23.3210  -30.4760   21.5930 C   0  0  0  0  0  3  0  0  0  0  0  0
  -24.7580  -28.9380   20.1530 C   0  0  0  0  0  0  0  0  0  0  0  0
  -25.8550  -30.8130   21.3860 C   0  0  0  0  0  2  0  0  0  0  0  0
  -25.9280  -29.4430   20.7380 C   0  0  0  0  0  0  0  0  0  0  0  0
  -27.1240  -28.6860   20.7080 C   0  0  0  0  0  3  0  0  0  0  0  0
  -25.9570  -26.9360   19.4960 C   0  0  0  0  0  3  0  0  0  0  0  0
  -24.7690  -27.6820   19.5340 C   0  0  0  0  0  3  0  0  0  0  0  0
  -23.5190  -29.7980   20.2130 C   0  0  0  0  0  2  0  0  0  0  0  0
  -24.5940  -31.0670   22.1270 N   0  0  0  0  0  0  0  0  0  0  0  0
  -23.4770  -32.1500   23.7770 O   0  0  0  0  0  0  0  0  0  0  0  0
  -22.6690  -29.4550   22.5550 C   0  0  0  0  0  0  0  0  0  0  0  0
  -21.3440  -29.2790   22.4370 N   0  0  0  0  0  0  0  0  0  0  0  0
  -23.3540  -28.8220   23.3620 O   0  0  0  0  0  0  0  0  0  0  0  0
  -20.8530  -29.8540   21.7690 H   0  0  0  0  0  0  0  0  0  0  0  0
  -17.9690  -28.0930   22.9480 C   0  0  0  0  0  0  0  0  0  0  0  0
  -20.5280  -28.3390   23.2090 C   0  0  0  0  0  3  0  0  0  0  0  0
  -20.6170  -26.9070   22.6300 C   0  0  0  0  0  2  0  0  0  0  0  0
  -19.5090  -26.5930   21.6190 C   0  0  0  0  0  2  0  0  0  0  0  0
  -18.1310  -26.7430   22.2690 C   0  0  0  0  0  2  0  0  0  0  0  0
  -19.0940  -28.8500   23.3730 C   0  0  0  0  0  0  0  0  0  0  0  0
  -18.8840  -30.1120   23.9620 C   0  0  0  0  0  3  0  0  0  0  0  0
  -17.5860  -30.6200   24.1400 C   0  0  0  0  0  3  0  0  0  0  0  0
  -16.4740  -29.8630   23.7350 C   0  0  0  0  0  3  0  0  0  0  0  0
  -16.6660  -28.6020   23.1410 C   0  0  0  0  0  3  0  0  0  0  0  0
  -25.8500  -32.4820   23.8450 C   0  0  0  0  0  3  0  0  0  0  0  0
  -25.5610  -33.8850   24.1770 N   0  0  0  0  0  0  0  0  0  0  0  0
  -25.8920  -34.9330   23.4090 C   0  0  0  0  0  0  0  0  0  0  0  0
  -26.5520  -34.8210   22.3730 O   0  0  0  0  0  0  0  0  0  0  0  0
  -24.9990  -34.0490   25.0000 H   0  0  0  0  0  0  0  0  0  0  0  0
  -24.1850  -36.7420   23.0500 C   0  0  0  0  0  1  0  0  0  0  0  0
  -25.4180  -36.3240   23.8670 C   0  0  0  0  0  3  0  0  0  0  0  0
  -27.5540  -37.1780   24.7200 C   0  0  0  0  0  1  0  0  0  0  0  0
  -26.4570  -37.3720   23.7710 N   0  0  0  0  0  0  0  0  0  0  0  0
  -26.0560  -38.2900   23.9350 H   0  0  0  0  0  0  0  0  0  0  0  0
  -26.3720  -31.7100   25.1200 C   0  0  1  0  0  0  0  0  0  0  0  0
  -25.2810  -31.4930   26.1960 C   0  0  0  0  0  1  0  0  0  0  0  0
  -26.9440  -30.3260   24.7300 C   0  0  0  0  0  1  0  0  0  0  0  0
  -27.5320  -32.4990   25.7730 C   0  0  0  0  0  1  0  0  0  0  0  0
  2  4  1  0
  3  1  1  0
  4  9  1  0
  4  1  1  0
  5 51  1  0
  5  2  1  0
  5  6  1  0
  6  3  1  0
  6  8  1  0
  7  6  1  0
 10  9  2  0
 10 11  1  0
 12 21  1  0
 12 11  1  0
 13 21  1  0
 14 19  1  0
 15 16  1  0
 15 14  1  0
 17 16  1  0
 17 26  1  0
 17 18  1  0
 19 13  1  0
 19 18  1  0
 20 13  2  0
 21 22  1  0
 23 24  2  0
 24 43  1  0
 25 24  1  0
 25 28  1  0
 26 23  1  0
 26 27  1  0
 27 25  2  0
 28 29  1  0
 29 30  2  0
 31 34  1  0
 31 30  1  0
 32 31  2  0
 33 32  1  0
 33 28  2  0
 34 35  1  0
 35 36  1  0
 36 37  2  0
 38 37  1  0
 38 42  1  0
 39 38  2  0
 40 35  2  0
 40 39  1  0
 41 40  1  0
 43 44  1  0
 44 47  1  0
 44 46  1  0
 45 43  2  0
 48 49  1  0
 48 23  1  0
 50 48  1  0
 51 52  1  0
 52 54  1  0
 53 64  2  0
 54 59  1  0
 55 63  1  0
 55 65  1  0
 56 62  1  0
 56 58  1  0
 57 63  1  0
 58 57  1  0
 59 58  2  0
 60 61  1  0
 60 54  2  0
 61 56  2  0
 62 55  1  0
 63 53  1  0
 65 67  2  0
 66 65  1  0
 68 66  1  0
 69 78  2  0
 69 74  1  0
 70 66  1  0
 70 74  1  0
 71 70  1  0
 72 73  1  0
 72 71  1  0
 73 69  1  0
 74 75  2  0
 75 76  1  0
 77 76  2  0
 78 77  1  0
 79 53  1  0
 79 80  1  0
 79 89  1  0
 80 83  1  0
 81 85  1  0
 81 80  1  0
 82 81  2  0
 85 84  1  0
 87 85  1  0
 87 88  1  0
 87 86  1  0
 89 92  1  1
 89 90  1  0
 91 89  1  0
M  ISO  4  13 100  21 100  51 101  52 101
M  END
>  <TORSDO>  (95) 
F 21

>  <SCORE>  (95) 
-13.037

>  <name>  (95) 
94

>  <ligand_id>  (95) 
94

>  <original_smiles>  (95) 
[H]c1c([H])c([H])c2c(c1[H])C([H])([H])C([H])([H])C([H])([H])C2([H])N([H])C(=O)C1([H])N(C(=O)C([H])(N([H])C(=O)C([H])(N([H])C([H])([H])[H])C([H])([H])[H])C(C([H])([H])[H])(C([H])([H])[H])C([H])([H])[H])C([H])([H])c2c([H])c(OC([H])([H])C3([H])C([H])([H])C([H])(C([H])([H])C([H])([H])C([H])([H])C([H])([H])N([H])C(=O)N4C([H])([H])C([H])([H])C([H])([H])C([H])(n5nc(-c6c([H])c([H])c(Oc7c([H])c([H])c(F)c([H])c7F)c([H])c6[H])c(C(=O)N([H])[H])c5N([H])[H])C4([H])[H])C([H])([H])C([H])([H])[N+]3([H])[H])c([H])c([H])c2C1([H])[H]

>  <smiles>  (95) 
[H]c1c([H])c([H])c2c(c1[H])C([H])([H])C([H])([H])C([H])([H])C2([H])N([H])C(=O)C1([H])N(C(=O)C([H])(N([H])C(=O)C([H])(N([H])C([H])([H])[H])C([H])([H])[H])C(C([H])([H])[H])(C([H])([H])[H])C([H])([H])[H])C([H])([H])c2c([H])c(OC([H])([H])C3([H])C([H])([H])C([H])(C([H])([H])C([H])([H])C([H])([H])C([H])([H])N([H])C(=O)N4C([H])([H])C([H])([H])C([H])([H])C([H])(n5nc(-c6c([H])c([H])c(Oc7c([H])c([H])c(F)c([H])c7F)c([H])c6[H])c(C(=O)N([H])[H])c5N([H])[H])C4([H])[H])C([H])([H])C([H])([H])[N+]3([H])[H])c([H])c([H])c2C1([H])[H]

$$$$
95:0:0
     RDKit          3D

 93102  0  0  1  0  0  0  0  0999 V2000
  -30.9660  -14.9480   20.4350 C   0  0  0  0  0  0  0  0  0  0  0  0
  -30.6640  -12.6970   19.3180 C   0  0  0  0  0  2  0  0  0  0  0  0
  -29.7490  -12.8170   18.0790 C   0  0  0  0  0  2  0  0  0  0  0  0
  -28.2720  -12.6750   18.4810 C   0  0  0  0  0  2  0  0  0  0  0  0
  -27.9110  -13.5040   19.7430 C   0  0  0  0  0  3  0  0  0  0  0  0
  -28.9640  -13.3830   20.8670 C   0  0  0  0  0  2  0  0  0  0  0  0
  -30.2590  -13.7570   20.2890 N   0  0  0  0  0  0  0  0  0  0  0  0
  -32.1400  -14.9490   20.0570 O   0  0  0  0  0  0  0  0  0  0  0  0
  -31.6830  -19.0860   22.0550 C   0  0  0  0  0  2  0  0  0  0  0  0
  -31.4570  -20.4340   21.3240 C   0  0  0  0  0  2  0  0  0  0  0  0
  -30.4450  -16.7550   22.1490 C   0  0  0  0  0  2  0  0  0  0  0  0
  -30.2450  -17.4900   19.9560 C   0  0  0  0  0  3  0  0  0  0  0  0
  -30.3360  -18.3350   22.1220 C   0  0  0  0  0  3  0  0  0  0  0  0
  -29.6770  -18.7750   20.8270 C   0  0  0  0  0  3  0  0  0  0  0  0
  -30.0980  -20.3860   20.5930 C   0  0  0  0  0  3  0  0  0  0  0  0
  -30.3650  -16.1990   20.7820 N   0  0  0  0  0  0  0  0  0  0  0  0
  -25.5180  -14.1040   20.4260 C   0  0  0  0  0  0  0  0  0  0  0  0
  -24.4430  -13.3370   20.7850 C   0  0  0  0  0  0  0  0  0  0  0  0
  -24.8970  -11.9820   20.7730 C   0  0  0  0  0  0  0  0  0  0  0  0
  -26.5590  -13.2170   20.2160 N   0  0  0  0  0  0  0  0  0  0  0  0
  -26.1930  -11.9360   20.4890 N   0  0  0  0  0  0  0  0  0  0  0  0
  -24.1510  -10.7290   20.9530 C   0  0  0  0  0  0  0  0  0  0  0  0
  -24.5310   -9.7770   21.9250 C   0  0  0  0  0  3  0  0  0  0  0  0
  -23.7830   -8.5900   22.0970 C   0  0  0  0  0  3  0  0  0  0  0  0
  -22.6400   -8.3480   21.2980 C   0  0  0  0  0  0  0  0  0  0  0  0
  -22.2800   -9.2890   20.3170 C   0  0  0  0  0  3  0  0  0  0  0  0
  -23.0290  -10.4660   20.1430 C   0  0  0  0  0  3  0  0  0  0  0  0
  -21.8710   -7.2110   21.3760 O   0  0  0  0  0  0  0  0  0  0  0  0
  -21.7300   -6.5160   22.5510 C   0  0  0  0  0  0  0  0  0  0  0  0
  -21.1640   -7.1030   23.7040 C   0  0  0  0  0  3  0  0  0  0  0  0
  -20.9740   -6.3310   24.8670 C   0  0  0  0  0  3  0  0  0  0  0  0
  -21.3410   -4.9720   24.8790 C   0  0  0  0  0  0  0  0  0  0  0  0
  -21.8980   -4.3830   23.7300 C   0  0  0  0  0  3  0  0  0  0  0  0
  -22.0900   -5.1530   22.5690 C   0  0  0  0  0  0  0  0  0  0  0  0
  -22.6050   -4.5740   21.4590 F   0  0  0  0  0  0  0  0  0  0  0  0
  -21.1550   -4.2280   25.9920 F   0  0  0  0  0  0  0  0  0  0  0  0
  -23.0450  -13.8250   21.0240 C   0  0  0  0  0  0  0  0  0  0  0  0
  -22.3030  -13.1570   21.9020 N   0  0  0  0  0  0  0  0  0  0  0  0
  -22.6190  -14.8350   20.4650 O   0  0  0  0  0  0  0  0  0  0  0  0
  -22.6630  -12.3380   22.3700 H   0  0  0  0  0  0  0  0  0  0  0  0
  -21.3660  -13.4720   22.1070 H   0  0  0  0  0  0  0  0  0  0  0  0
  -25.6860  -15.4730   20.2410 N   0  0  0  0  0  0  0  0  0  0  0  0
  -24.8950  -16.1060   20.2870 H   0  0  0  0  0  0  0  0  0  0  0  0
  -26.5190  -15.9160   19.8650 H   0  0  0  0  0  0  0  0  0  0  0  0
  -29.3570  -17.1480   18.7590 C   0  0  0  0  0  0  0  0  0  0  0  0
  -29.9900  -16.8350   17.6360 N   0  0  0  0  0  0  0  0  0  0  0  0
  -28.1350  -17.0710   18.8570 O   0  0  0  0  0  0  0  0  0  0  0  0
  -30.9990  -16.8800   17.6080 H   0  0  0  0  0  0  0  0  0  0  0  0
  -29.4790  -16.5410   16.8170 H   0  0  0  0  0  0  0  0  0  0  0  0
  -29.1930  -21.7480   21.0230 C   0  0  0  0  0  2  0  0  0  0  0  0
  -29.5070  -23.3530   20.5780 C   0  0  0  0  0  3  0  0  0  0  0  0
  -28.4940  -24.6780   20.8240 C   0  0  0  0  0  3  0  0  0  0  0  0
  -28.7380  -26.1850   20.4930 O   0  0  0  0  0  0  0  0  0  0  0  0
  -24.6040  -31.6960   23.2060 C   0  0  0  0  0  0  0  0  0  0  0  0
  -27.6470  -27.1230   20.3840 C   0  0  0  0  0  0  0  0  0  0  0  0
  -23.6100  -30.2380   21.4860 C   0  0  0  0  0  3  0  0  0  0  0  0
  -25.2440  -28.7450   20.1810 C   0  0  0  0  0  0  0  0  0  0  0  0
  -26.1530  -30.6260   21.5270 C   0  0  0  0  0  2  0  0  0  0  0  0
  -26.3470  -29.2440   20.8860 C   0  0  0  0  0  0  0  0  0  0  0  0
  -27.5500  -28.4470   20.9760 C   0  0  0  0  0  3  0  0  0  0  0  0
  -26.5210  -26.7380   19.6230 C   0  0  0  0  0  3  0  0  0  0  0  0
  -25.3440  -27.5060   19.5390 C   0  0  0  0  0  3  0  0  0  0  0  0
  -23.9710  -29.5780   20.1330 C   0  0  0  0  0  2  0  0  0  0  0  0
  -24.8030  -30.8760   22.1270 N   0  0  0  0  0  0  0  0  0  0  0  0
  -23.4680  -31.9240   23.6460 O   0  0  0  0  0  0  0  0  0  0  0  0
  -22.9210  -29.1900   22.3940 C   0  0  0  0  0  0  0  0  0  0  0  0
  -21.6110  -28.9700   22.1860 N   0  0  0  0  0  0  0  0  0  0  0  0
  -23.5680  -28.5800   23.2500 O   0  0  0  0  0  0  0  0  0  0  0  0
  -21.1450  -29.5130   21.4730 H   0  0  0  0  0  0  0  0  0  0  0  0
  -18.2260  -27.7530   22.6040 C   0  0  0  0  0  0  0  0  0  0  0  0
  -20.7830  -27.9950   22.8990 C   0  0  0  0  0  3  0  0  0  0  0  0
  -20.8870  -26.5970   22.2490 C   0  0  0  0  0  2  0  0  0  0  0  0
  -19.7910  -26.3310   21.2120 C   0  0  0  0  0  2  0  0  0  0  0  0
  -18.4050  -26.4440   21.8530 C   0  0  0  0  0  2  0  0  0  0  0  0
  -19.3450  -28.4910   23.0800 C   0  0  0  0  0  0  0  0  0  0  0  0
  -19.1250  -29.7180   23.7420 C   0  0  0  0  0  3  0  0  0  0  0  0
  -17.8200  -30.2110   23.9300 C   0  0  0  0  0  3  0  0  0  0  0  0
  -16.7160  -29.4720   23.4690 C   0  0  0  0  0  3  0  0  0  0  0  0
  -16.9210  -28.2440   22.8140 C   0  0  0  0  0  3  0  0  0  0  0  0
  -25.7960  -32.3990   23.9230 C   0  0  0  0  0  3  0  0  0  0  0  0
  -26.2170  -31.6900   25.2700 C   0  0  1  0  0  0  0  0  0  0  0  0
  -25.0230  -31.3600   26.1950 C   0  0  0  0  0  1  0  0  0  0  0  0
  -26.9700  -30.3690   24.9870 C   0  0  0  0  0  1  0  0  0  0  0  0
  -27.1970  -32.5940   26.0540 C   0  0  0  0  0  1  0  0  0  0  0  0
  -25.4030  -33.7950   24.1830 N   0  0  0  0  0  0  0  0  0  0  0  0
  -25.7600  -34.8430   23.4280 C   0  0  0  0  0  0  0  0  0  0  0  0
  -26.5230  -34.7400   22.4640 O   0  0  0  0  0  0  0  0  0  0  0  0
  -24.7350  -33.9470   24.9250 H   0  0  0  0  0  0  0  0  0  0  0  0
  -24.0010  -36.5530   22.8720 C   0  0  0  0  0  1  0  0  0  0  0  0
  -25.1800  -36.2230   23.7990 C   0  0  0  0  0  3  0  0  0  0  0  0
  -27.1890  -37.2210   24.7980 C   0  0  0  0  0  1  0  0  0  0  0  0
  -26.1770  -37.3140   23.7480 N   0  0  0  0  0  0  0  0  0  0  0  0
  -25.7240  -38.2200   23.8250 H   0  0  0  0  0  0  0  0  0  0  0  0
  1 16  1  0
  2  7  1  0
  3  4  1  0
  3  2  1  0
  5  4  1  0
  5 20  1  0
  5  6  1  0
  7  1  1  0
  7  6  1  0
  8  1  2  0
 10  9  1  0
 12 45  1  0
 12 16  1  0
 12 14  1  0
 13  9  1  0
 13 11  1  0
 14 13  1  0
 15 14  1  0
 15 50  1  0
 15 10  1  0
 16 11  1  0
 17 18  2  0
 18 37  1  0
 19 18  1  0
 19 22  1  0
 20 17  1  0
 20 21  1  0
 21 19  2  0
 22 23  1  0
 23 24  2  0
 25 28  1  0
 25 24  1  0
 26 25  2  0
 27 26  1  0
 27 22  2  0
 28 29  1  0
 29 34  2  0
 29 30  1  0
 30 31  2  0
 31 32  1  0
 32 36  1  0
 33 32  2  0
 34 33  1  0
 35 34  1  0
 37 38  1  0
 38 41  1  0
 38 40  1  0
 39 37  2  0
 42 43  1  0
 42 17  1  0
 44 42  1  0
 45 47  2  0
 46 45  1  0
 48 46  1  0
 49 46  1  0
 51 52  2  0
 51 50  1  0
 53 52  1  0
 54 65  2  0
 54 80  1  0
 55 53  1  0
 55 60  1  0
 56 64  1  0
 56 66  1  0
 57 59  1  0
 58 64  1  0
 59 60  2  0
 59 58  1  0
 61 55  2  0
 62 61  1  0
 62 57  2  0
 63 57  1  0
 63 56  1  0
 64 54  1  0
 66 68  2  0
 67 66  1  0
 67 71  1  0
 69 67  1  0
 70 79  2  0
 70 75  1  0
 71 75  1  0
 72 71  1  0
 73 74  1  0
 73 72  1  0
 74 70  1  0
 75 76  2  0
 76 77  1  0
 78 77  2  0
 79 78  1  0
 80 85  1  0
 80 81  1  0
 81 84  1  1
 81 82  1  0
 83 81  1  0
 85 88  1  0
 86 90  1  0
 86 85  1  0
 87 86  2  0
 89 90  1  0
 92 90  1  0
 92 93  1  0
 92 91  1  0
M  ISO  4   1 100  16 100  52 101  53 101
M  END
>  <TORSDO>  (96) 
F 19

>  <SCORE>  (96) 
-14.253

>  <name>  (96) 
95

>  <ligand_id>  (96) 
95

>  <original_smiles>  (96) 
[H]c1c([H])c([H])c2c(c1[H])C([H])([H])C([H])([H])C([H])([H])C2([H])N([H])C(=O)C1([H])N(C(=O)C([H])(N([H])C(=O)C([H])(N([H])C([H])([H])[H])C([H])([H])[H])C(C([H])([H])[H])(C([H])([H])[H])C([H])([H])[H])C([H])([H])c2c([H])c(OC([H])([H])C([H])([H])C([H])([H])C3([H])C([H])([H])C([H])([H])C4([H])C([H])([H])N(C(=O)N5C([H])([H])C([H])([H])C([H])([H])C([H])(n6nc(-c7c([H])c([H])c(Oc8c([H])c([H])c(F)c([H])c8F)c([H])c7[H])c(C(=O)N([H])[H])c6N([H])[H])C5([H])[H])C([H])(C(=O)N([H])[H])C43[H])c([H])c([H])c2C1([H])[H]

>  <smiles>  (96) 
[H]c1c([H])c([H])c2c(c1[H])C([H])([H])C([H])([H])C([H])([H])C2([H])N([H])C(=O)C1([H])N(C(=O)C([H])(N([H])C(=O)C([H])(N([H])C([H])([H])[H])C([H])([H])[H])C(C([H])([H])[H])(C([H])([H])[H])C([H])([H])[H])C([H])([H])c2c([H])c(OC([H])([H])C([H])([H])C([H])([H])C3([H])C([H])([H])C([H])([H])C4([H])C([H])([H])N(C(=O)N5C([H])([H])C([H])([H])C([H])([H])C([H])(n6nc(-c7c([H])c([H])c(Oc8c([H])c([H])c(F)c([H])c8F)c([H])c7[H])c(C(=O)N([H])[H])c6N([H])[H])C5([H])[H])C([H])(C(=O)N([H])[H])C43[H])c([H])c([H])c2C1([H])[H]

$$$$
96:0:0
     RDKit          3D

 94103  0  0  1  0  0  0  0  0999 V2000
  -28.5220  -21.1300   21.7660 C   0  0  0  0  0  2  0  0  0  0  0  0
  -30.3800  -20.4570   19.5360 C   0  0  0  0  0  2  0  0  0  0  0  0
  -28.2010  -19.6200   21.5810 C   0  0  0  0  0  2  0  0  0  0  0  0
  -28.3890  -21.9160   20.4650 C   0  0  0  0  0  3  0  0  0  0  0  0
  -29.3220  -21.6370   19.3460 C   0  0  0  0  0  3  0  0  0  0  0  0
  -29.8630  -18.9370   19.7590 C   0  0  0  0  0  3  0  0  0  0  0  0
  -29.3470  -18.7710   21.1450 N   0  0  0  0  0  4  0  0  0  0  0  0
  -29.4210  -22.9290   20.1490 N   0  0  1  0  0  4  0  0  0  0  0  0
  -29.0390  -17.8150   21.2260 H   0  0  0  0  0  0  0  0  0  0  0  0
  -30.1050  -18.8700   21.8040 H   0  0  0  0  0  0  0  0  0  0  0  0
  -30.1220  -22.9510   20.8740 H   0  0  0  0  0  0  0  0  0  0  0  0
  -30.9140  -17.7370   19.4360 C   0  0  0  0  0  2  0  0  0  0  0  0
  -31.4300  -15.1710   19.6250 C   0  0  0  0  0  0  0  0  0  0  0  0
  -31.2010  -12.8330   18.7790 C   0  0  0  0  0  2  0  0  0  0  0  0
  -30.1630  -12.8140   17.6340 C   0  0  0  0  0  2  0  0  0  0  0  0
  -28.7380  -12.6520   18.1960 C   0  0  0  0  0  2  0  0  0  0  0  0
  -28.4520  -13.6170   19.3760 C   0  0  0  0  0  3  0  0  0  0  0  0
  -29.5960  -13.6110   20.4130 C   0  0  0  0  0  2  0  0  0  0  0  0
  -30.8330  -13.9350   19.6980 N   0  0  0  0  0  0  0  0  0  0  0  0
  -32.5700  -15.2860   19.1670 O   0  0  0  0  0  0  0  0  0  0  0  0
  -30.6380  -16.2900   19.8520 N   0  0  0  0  0  0  0  0  0  0  0  0
  -29.7080  -16.0790   20.1780 H   0  0  0  0  0  0  0  0  0  0  0  0
  -26.1980  -14.2620   20.4060 C   0  0  0  0  0  0  0  0  0  0  0  0
  -25.1400  -13.5120   20.8390 C   0  0  0  0  0  0  0  0  0  0  0  0
  -25.5230  -12.1480   20.6630 C   0  0  0  0  0  0  0  0  0  0  0  0
  -27.1590  -13.3550   19.9930 N   0  0  0  0  0  0  0  0  0  0  0  0
  -26.7670  -12.0750   20.2080 N   0  0  0  0  0  0  0  0  0  0  0  0
  -24.7540  -10.9080   20.8400 C   0  0  0  0  0  0  0  0  0  0  0  0
  -25.1460   -9.9290   21.7800 C   0  0  0  0  0  3  0  0  0  0  0  0
  -24.3820   -8.7540   21.9510 C   0  0  0  0  0  3  0  0  0  0  0  0
  -23.2130   -8.5490   21.1780 C   0  0  0  0  0  0  0  0  0  0  0  0
  -22.8430   -9.5150   20.2270 C   0  0  0  0  0  3  0  0  0  0  0  0
  -23.6050  -10.6820   20.0550 C   0  0  0  0  0  3  0  0  0  0  0  0
  -22.4250   -7.4260   21.2540 O   0  0  0  0  0  0  0  0  0  0  0  0
  -22.1550   -6.8180   22.4520 C   0  0  0  0  0  0  0  0  0  0  0  0
  -21.5280   -7.5050   23.5150 C   0  0  0  0  0  3  0  0  0  0  0  0
  -21.2070   -6.8220   24.7050 C   0  0  0  0  0  3  0  0  0  0  0  0
  -21.5040   -5.4510   24.8320 C   0  0  0  0  0  0  0  0  0  0  0  0
  -22.1250   -4.7640   23.7740 C   0  0  0  0  0  3  0  0  0  0  0  0
  -22.4470   -5.4460   22.5870 C   0  0  0  0  0  0  0  0  0  0  0  0
  -23.0240   -4.7730   21.5620 F   0  0  0  0  0  0  0  0  0  0  0  0
  -21.1910   -4.7910   25.9710 F   0  0  0  0  0  0  0  0  0  0  0  0
  -23.8070  -14.0310   21.2950 C   0  0  0  0  0  0  0  0  0  0  0  0
  -23.1560  -13.3200   22.2080 N   0  0  0  0  0  0  0  0  0  0  0  0
  -23.3590  -15.0970   20.8770 O   0  0  0  0  0  0  0  0  0  0  0  0
  -23.5370  -12.4570   22.5640 H   0  0  0  0  0  0  0  0  0  0  0  0
  -22.2640  -13.6420   22.5540 H   0  0  0  0  0  0  0  0  0  0  0  0
  -26.4200  -15.6310   20.2960 N   0  0  0  0  0  0  0  0  0  0  0  0
  -25.6830  -16.3040   20.4810 H   0  0  0  0  0  0  0  0  0  0  0  0
  -27.1890  -16.0240   19.7710 H   0  0  0  0  0  0  0  0  0  0  0  0
  -28.7620  -24.2900   19.8050 C   0  0  0  0  0  2  0  0  0  0  0  0
  -31.0840  -25.4440   20.0350 C   0  0  0  0  0  1  0  0  0  0  0  0
  -29.6410  -25.6180   19.5440 C   0  0  0  0  0  3  0  0  0  0  0  0
  -29.2880  -26.9580   20.1000 O   0  0  0  0  0  0  0  0  0  0  0  0
  -24.7310  -31.5680   23.1850 C   0  0  0  0  0  0  0  0  0  0  0  0
  -28.0650  -27.6320   19.9680 C   0  0  0  0  0  0  0  0  0  0  0  0
  -23.8070  -30.1750   21.3660 C   0  0  0  0  0  3  0  0  0  0  0  0
  -25.5200  -28.9370   19.9150 C   0  0  0  0  0  0  0  0  0  0  0  0
  -26.2900  -30.8140   21.3760 C   0  0  0  0  0  2  0  0  0  0  0  0
  -26.5760  -29.5180   20.6250 C   0  0  0  0  0  0  0  0  0  0  0  0
  -27.8480  -28.8770   20.6370 C   0  0  0  0  0  3  0  0  0  0  0  0
  -26.9870  -27.1000   19.2330 C   0  0  0  0  0  3  0  0  0  0  0  0
  -25.7270  -27.7380   19.2110 C   0  0  0  0  0  3  0  0  0  0  0  0
  -24.1790  -29.6440   19.9540 C   0  0  0  0  0  2  0  0  0  0  0  0
  -24.9550  -30.8710   22.0330 N   0  0  0  0  0  0  0  0  0  0  0  0
  -23.5960  -31.6620   23.6730 O   0  0  0  0  0  0  0  0  0  0  0  0
  -23.2280  -29.0090   22.2030 C   0  0  0  0  0  0  0  0  0  0  0  0
  -21.9530  -28.6630   21.9620 N   0  0  0  0  0  0  0  0  0  0  0  0
  -23.9320  -28.4220   23.0300 O   0  0  0  0  0  0  0  0  0  0  0  0
  -21.4360  -29.1940   21.2720 H   0  0  0  0  0  0  0  0  0  0  0  0
  -18.7560  -26.9840   22.1360 C   0  0  0  0  0  0  0  0  0  0  0  0
  -21.2300  -27.5650   22.6050 C   0  0  0  0  0  3  0  0  0  0  0  0
  -21.5650  -26.2100   21.9380 C   0  0  0  0  0  2  0  0  0  0  0  0
  -20.5850  -25.8230   20.8270 C   0  0  0  0  0  2  0  0  0  0  0  0
  -19.1590  -25.7300   21.3790 C   0  0  0  0  0  2  0  0  0  0  0  0
  -19.7280  -27.8530   22.6980 C   0  0  0  0  0  0  0  0  0  0  0  0
  -19.2990  -29.0220   23.3610 C   0  0  0  0  0  3  0  0  0  0  0  0
  -17.9280  -29.3300   23.4690 C   0  0  0  0  0  3  0  0  0  0  0  0
  -16.9690  -28.4600   22.9210 C   0  0  0  0  0  3  0  0  0  0  0  0
  -17.3820  -27.2890   22.2620 C   0  0  0  0  0  3  0  0  0  0  0  0
  -25.8900  -32.3010   23.9320 C   0  0  0  0  0  3  0  0  0  0  0  0
  -26.3420  -31.5680   25.2550 C   0  0  1  0  0  0  0  0  0  0  0  0
  -25.1710  -31.2100   26.2010 C   0  0  0  0  0  1  0  0  0  0  0  0
  -27.1010  -30.2590   24.9270 C   0  0  0  0  0  1  0  0  0  0  0  0
  -27.3340  -32.4610   26.0370 C   0  0  0  0  0  1  0  0  0  0  0  0
  -25.4370  -33.6660   24.2330 N   0  0  0  0  0  0  0  0  0  0  0  0
  -25.7250  -34.7460   23.4950 C   0  0  0  0  0  0  0  0  0  0  0  0
  -26.4730  -34.7040   22.5130 O   0  0  0  0  0  0  0  0  0  0  0  0
  -24.7910  -33.7680   25.0030 H   0  0  0  0  0  0  0  0  0  0  0  0
  -23.8700  -36.3720   23.0090 C   0  0  0  0  0  1  0  0  0  0  0  0
  -25.0840  -36.0860   23.9080 C   0  0  0  0  0  3  0  0  0  0  0  0
  -27.0590  -37.1730   24.8840 C   0  0  0  0  0  1  0  0  0  0  0  0
  -26.0220  -37.2280   23.8570 N   0  0  0  0  0  0  0  0  0  0  0  0
  -25.5210  -38.1070   23.9530 H   0  0  0  0  0  0  0  0  0  0  0  0
  2  6  1  0
  3  1  1  0
  4  1  1  0
  5  2  1  0
  5  8  1  0
  5  4  1  0
  6 12  1  0
  6  7  1  0
  7  9  1  0
  7  3  1  0
  7 10  1  0
  8  4  1  0
  8 11  1  1
 12 21  1  0
 13 19  1  0
 13 21  1  0
 14 19  1  0
 15 16  1  0
 15 14  1  0
 17 16  1  0
 17 26  1  0
 17 18  1  0
 19 18  1  0
 20 13  2  0
 21 22  1  0
 23 24  2  0
 24 43  1  0
 25 24  1  0
 25 28  1  0
 26 27  1  0
 26 23  1  0
 27 25  2  0
 28 29  1  0
 29 30  2  0
 31 34  1  0
 31 30  1  0
 32 31  2  0
 33 32  1  0
 33 28  2  0
 34 35  1  0
 35 40  2  0
 35 36  1  0
 36 37  2  0
 37 38  1  0
 38 42  1  0
 39 38  2  0
 40 39  1  0
 41 40  1  0
 43 44  1  0
 44 47  1  0
 44 46  1  0
 45 43  2  0
 48 23  1  0
 48 49  1  0
 50 48  1  0
 51  8  1  0
 53 51  1  0
 53 52  1  0
 53 54  1  0
 55 66  2  0
 56 54  1  0
 56 61  1  0
 57 65  1  0
 57 67  1  0
 58 64  1  0
 58 60  1  0
 59 65  1  0
 60 61  2  0
 60 59  1  0
 62 56  2  0
 63 62  1  0
 63 58  2  0
 64 57  1  0
 65 55  1  0
 67 69  2  0
 68 67  1  0
 70 68  1  0
 71 80  2  0
 71 76  1  0
 72 68  1  0
 72 76  1  0
 73 72  1  0
 74 75  1  0
 74 73  1  0
 75 71  1  0
 76 77  2  0
 77 78  1  0
 79 78  2  0
 80 79  1  0
 81 55  1  0
 81 86  1  0
 81 82  1  0
 82 85  1  1
 82 83  1  0
 84 82  1  0
 86 89  1  0
 87 91  1  0
 87 86  1  0
 88 87  2  0
 91 90  1  0
 93 91  1  0
 93 94  1  0
 93 92  1  0
M  ISO  4  13 100  21 100  53 101  54 101
M  END
>  <TORSDO>  (97) 
F 19

>  <SCORE>  (97) 
-9.734

>  <name>  (97) 
96

>  <ligand_id>  (97) 
96

>  <original_smiles>  (97) 
[H]c1c([H])c([H])c2c(c1[H])C([H])([H])C([H])([H])C([H])([H])C2([H])N([H])C(=O)C1([H])N(C(=O)C([H])(N([H])C(=O)C([H])(N([H])C([H])([H])[H])C([H])([H])[H])C(C([H])([H])[H])(C([H])([H])[H])C([H])([H])[H])C([H])([H])c2c([H])c(OC([H])(C([H])([H])[H])C([H])([H])[N+]3([H])C4([H])C([H])([H])C([H])([H])[N+]([H])([H])C([H])(C([H])([H])N([H])C(=O)N5C([H])([H])C([H])([H])C([H])([H])C([H])(n6nc(-c7c([H])c([H])c(Oc8c([H])c([H])c(F)c([H])c8F)c([H])c7[H])c(C(=O)N([H])[H])c6N([H])[H])C5([H])[H])C([H])([H])C43[H])c([H])c([H])c2C1([H])[H]

>  <smiles>  (97) 
[H]c1c([H])c([H])c2c(c1[H])C([H])([H])C([H])([H])C([H])([H])C2([H])N([H])C(=O)C1([H])N(C(=O)C([H])(N([H])C(=O)C([H])(N([H])C([H])([H])[H])C([H])([H])[H])C(C([H])([H])[H])(C([H])([H])[H])C([H])([H])[H])C([H])([H])c2c([H])c(OC([H])(C([H])([H])[H])C([H])([H])[N+]3([H])C4([H])C([H])([H])C([H])([H])[N+]([H])([H])C([H])(C([H])([H])N([H])C(=O)N5C([H])([H])C([H])([H])C([H])([H])C([H])(n6nc(-c7c([H])c([H])c(Oc8c([H])c([H])c(F)c([H])c8F)c([H])c7[H])c(C(=O)N([H])[H])c6N([H])[H])C5([H])[H])C([H])([H])C43[H])c([H])c([H])c2C1([H])[H]

$$$$
97:0:0
     RDKit          3D

 88 97  0  0  1  0  0  0  0  0999 V2000
  -29.3270  -21.4380   19.1370 C   0  0  0  0  0  3  0  0  0  0  0  0
  -28.8890  -22.8820   19.1860 C   0  0  0  0  0  3  0  0  0  0  0  0
  -30.9270  -15.6420   19.4630 C   0  0  0  0  0  0  0  0  0  0  0  0
  -30.6670  -13.2020   18.5730 C   0  0  0  0  0  2  0  0  0  0  0  0
  -29.6200  -12.8420   17.4900 C   0  0  0  0  0  2  0  0  0  0  0  0
  -28.2780  -12.5210   18.1530 C   0  0  0  0  0  2  0  0  0  0  0  0
  -27.9130  -13.5560   19.2390 C   0  0  0  0  0  3  0  0  0  0  0  0
  -29.0800  -13.8750   20.2050 C   0  0  0  0  0  2  0  0  0  0  0  0
  -30.1850  -14.4100   19.3770 N   0  0  0  0  0  0  0  0  0  0  0  0
  -32.1250  -15.3850   19.2520 O   0  0  0  0  0  0  0  0  0  0  0  0
  -28.6880  -18.1660   20.7560 C   0  0  0  0  0  2  0  0  0  0  0  0
  -29.5040  -18.2080   19.6810 C   0  0  0  0  0  3  0  0  0  0  0  0
  -28.9280  -19.5800   21.1220 C   0  0  0  0  0  0  0  0  0  0  0  0
  -31.3540  -19.6080   19.8600 C   0  0  0  0  0  2  0  0  0  0  0  0
  -31.7160  -18.1210   19.3390 C   0  0  0  0  0  2  0  0  0  0  0  0
  -29.8250  -19.9100   19.8810 C   0  0  2  0  0  0  0  0  0  0  0  0
  -30.5800  -17.1400   19.4530 N   0  0  0  0  0  0  0  0  0  0  0  0
  -28.4960  -20.2190   22.0860 O   0  0  0  0  0  0  0  0  0  0  0  0
  -25.6890  -14.1000   20.3520 C   0  0  0  0  0  0  0  0  0  0  0  0
  -24.6570  -13.3220   20.7970 C   0  0  0  0  0  0  0  0  0  0  0  0
  -25.0770  -11.9670   20.6190 C   0  0  0  0  0  0  0  0  0  0  0  0
  -26.6680  -13.2230   19.9200 N   0  0  0  0  0  0  0  0  0  0  0  0
  -26.3200  -11.9280   20.1470 N   0  0  0  0  0  0  0  0  0  0  0  0
  -24.3410  -10.7110   20.8220 C   0  0  0  0  0  0  0  0  0  0  0  0
  -24.7620   -9.7430   21.7620 C   0  0  0  0  0  3  0  0  0  0  0  0
  -24.0220   -8.5580   21.9530 C   0  0  0  0  0  3  0  0  0  0  0  0
  -22.8450   -8.3290   21.2060 C   0  0  0  0  0  0  0  0  0  0  0  0
  -22.4400   -9.2820   20.2550 C   0  0  0  0  0  3  0  0  0  0  0  0
  -23.1810  -10.4590   20.0610 C   0  0  0  0  0  3  0  0  0  0  0  0
  -22.0800   -7.1910   21.3040 O   0  0  0  0  0  0  0  0  0  0  0  0
  -21.8960   -6.5490   22.5030 C   0  0  0  0  0  0  0  0  0  0  0  0
  -21.3070   -7.1980   23.6110 C   0  0  0  0  0  3  0  0  0  0  0  0
  -21.0690   -6.4810   24.8010 C   0  0  0  0  0  3  0  0  0  0  0  0
  -21.4130   -5.1190   24.8840 C   0  0  0  0  0  0  0  0  0  0  0  0
  -21.9970   -4.4720   23.7800 C   0  0  0  0  0  3  0  0  0  0  0  0
  -22.2330   -5.1850   22.5920 C   0  0  0  0  0  0  0  0  0  0  0  0
  -22.7740   -4.5510   21.5250 F   0  0  0  0  0  0  0  0  0  0  0  0
  -21.1790   -4.4280   26.0230 F   0  0  0  0  0  0  0  0  0  0  0  0
  -23.3160  -13.8140   21.2600 C   0  0  0  0  0  0  0  0  0  0  0  0
  -22.6870  -13.1130   22.1930 N   0  0  0  0  0  0  0  0  0  0  0  0
  -22.8360  -14.8580   20.8230 O   0  0  0  0  0  0  0  0  0  0  0  0
  -23.0900  -12.2710   22.5770 H   0  0  0  0  0  0  0  0  0  0  0  0
  -21.7920  -13.4310   22.5370 H   0  0  0  0  0  0  0  0  0  0  0  0
  -25.8640  -15.4750   20.2400 N   0  0  0  0  0  0  0  0  0  0  0  0
  -25.1310  -16.1270   20.5000 H   0  0  0  0  0  0  0  0  0  0  0  0
  -26.6760  -15.9250   19.8370 H   0  0  0  0  0  0  0  0  0  0  0  0
  -28.4160  -24.3350   20.0670 C   0  0  0  0  0  2  0  0  0  0  0  0
  -28.4560  -25.9720   19.6890 O   0  0  0  0  0  0  0  0  0  0  0  0
  -24.6460  -31.7390   22.9550 C   0  0  0  0  0  0  0  0  0  0  0  0
  -27.3870  -27.0330   19.7690 C   0  0  0  0  0  0  0  0  0  0  0  0
  -23.5010  -30.3510   21.2710 C   0  0  0  0  0  3  0  0  0  0  0  0
  -25.0090  -28.8450   19.7940 C   0  0  0  0  0  0  0  0  0  0  0  0
  -26.0600  -30.6640   21.1220 C   0  0  0  0  0  2  0  0  0  0  0  0
  -26.1870  -29.2730   20.4210 C   0  0  0  0  0  0  0  0  0  0  0  0
  -27.3710  -28.3930   20.3770 C   0  0  0  0  0  3  0  0  0  0  0  0
  -26.1700  -26.7700   19.1040 C   0  0  0  0  0  3  0  0  0  0  0  0
  -25.0290  -27.6180   19.1110 C   0  0  0  0  0  3  0  0  0  0  0  0
  -23.7560  -29.7200   19.8730 C   0  0  0  0  0  2  0  0  0  0  0  0
  -24.7580  -30.9460   21.8390 N   0  0  0  0  0  0  0  0  0  0  0  0
  -23.5500  -31.9680   23.4890 O   0  0  0  0  0  0  0  0  0  0  0  0
  -22.8530  -29.2980   22.2090 C   0  0  0  0  0  0  0  0  0  0  0  0
  -21.5250  -29.1070   22.1080 N   0  0  0  0  0  0  0  0  0  0  0  0
  -23.5530  -28.6530   22.9940 O   0  0  0  0  0  0  0  0  0  0  0  0
  -21.0090  -29.6860   21.4610 H   0  0  0  0  0  0  0  0  0  0  0  0
  -18.1800  -27.8100   22.6620 C   0  0  0  0  0  0  0  0  0  0  0  0
  -20.7430  -28.1090   22.8500 C   0  0  0  0  0  3  0  0  0  0  0  0
  -20.8450  -26.7130   22.1880 C   0  0  0  0  0  2  0  0  0  0  0  0
  -19.7110  -26.4300   21.1980 C   0  0  0  0  0  2  0  0  0  0  0  0
  -18.3540  -26.5070   21.9000 C   0  0  0  0  0  2  0  0  0  0  0  0
  -19.2990  -28.5700   23.0950 C   0  0  0  0  0  0  0  0  0  0  0  0
  -19.0760  -29.7900   23.7680 C   0  0  0  0  0  3  0  0  0  0  0  0
  -17.7660  -30.2460   24.0160 C   0  0  0  0  0  3  0  0  0  0  0  0
  -16.6640  -29.4820   23.5950 C   0  0  0  0  0  3  0  0  0  0  0  0
  -16.8720  -28.2670   22.9210 C   0  0  0  0  0  3  0  0  0  0  0  0
  -25.8930  -32.4100   23.6090 C   0  0  0  0  0  3  0  0  0  0  0  0
  -25.5170  -33.7790   24.0130 N   0  0  0  0  0  0  0  0  0  0  0  0
  -25.7880  -34.8880   23.3130 C   0  0  0  0  0  0  0  0  0  0  0  0
  -26.4480  -34.8720   22.2720 O   0  0  0  0  0  0  0  0  0  0  0  0
  -24.9360  -33.8590   24.8350 H   0  0  0  0  0  0  0  0  0  0  0  0
  -23.9780  -36.6250   23.0840 C   0  0  0  0  0  1  0  0  0  0  0  0
  -25.2480  -36.2310   23.8540 C   0  0  0  0  0  3  0  0  0  0  0  0
  -27.3480  -37.1790   24.7090 C   0  0  0  0  0  1  0  0  0  0  0  0
  -26.2300  -37.3340   23.7810 N   0  0  0  0  0  0  0  0  0  0  0  0
  -25.7820  -38.2260   23.9730 H   0  0  0  0  0  0  0  0  0  0  0  0
  -26.4430  -31.6110   24.8550 C   0  0  1  0  0  0  0  0  0  0  0  0
  -25.3670  -31.2840   25.9170 C   0  0  0  0  0  1  0  0  0  0  0  0
  -27.0860  -30.2760   24.4190 C   0  0  0  0  0  1  0  0  0  0  0  0
  -27.5570  -32.4300   25.5510 C   0  0  0  0  0  1  0  0  0  0  0  0
  1  2  2  0
  2 47  1  0
  4  9  1  0
  5  6  1  0
  5  4  1  0
  7  6  1  0
  7 22  1  0
  7  8  1  0
  9  3  1  0
  9  8  1  0
 10  3  2  0
 11 13  1  0
 12 16  1  0
 12 11  1  0
 13 18  2  0
 14 16  1  0
 15 17  1  0
 15 14  1  0
 16  1  1  6
 16 13  1  0
 17  3  1  0
 17 12  1  0
 19 20  2  0
 20 39  1  0
 21 20  1  0
 21 24  1  0
 22 23  1  0
 22 19  1  0
 23 21  2  0
 24 25  1  0
 25 26  2  0
 27 30  1  0
 27 26  1  0
 28 27  2  0
 29 28  1  0
 29 24  2  0
 30 31  1  0
 31 36  2  0
 31 32  1  0
 32 33  2  0
 33 34  1  0
 34 38  1  0
 35 34  2  0
 36 35  1  0
 37 36  1  0
 39 40  1  0
 40 43  1  0
 40 42  1  0
 41 39  2  0
 44 19  1  0
 44 45  1  0
 46 44  1  0
 48 50  1  0
 48 47  1  0
 49 60  2  0
 50 55  1  0
 51 59  1  0
 51 61  1  0
 52 58  1  0
 52 54  1  0
 53 59  1  0
 54 53  1  0
 55 54  2  0
 56 57  1  0
 56 50  2  0
 57 52  2  0
 58 51  1  0
 59 49  1  0
 61 63  2  0
 62 61  1  0
 64 62  1  0
 65 74  2  0
 65 70  1  0
 66 62  1  0
 66 70  1  0
 67 66  1  0
 68 69  1  0
 68 67  1  0
 69 65  1  0
 70 71  2  0
 71 72  1  0
 73 72  2  0
 74 73  1  0
 75 49  1  0
 75 76  1  0
 75 85  1  0
 76 79  1  0
 77 81  1  0
 77 76  1  0
 78 77  2  0
 81 80  1  0
 83 81  1  0
 83 84  1  0
 83 82  1  0
 85 88  1  1
 85 86  1  0
 87 85  1  0
M  ISO  4   3 100  17 100  47 101  48 101
M  END
>  <TORSDO>  (98) 
F 17

>  <SCORE>  (98) 
-13.423

>  <name>  (98) 
97

>  <ligand_id>  (98) 
97

>  <original_smiles>  (98) 
[H]C1=C2N(C(=O)N3C([H])([H])C([H])([H])C([H])([H])C([H])(n4nc(-c5c([H])c([H])c(Oc6c([H])c([H])c(F)c([H])c6F)c([H])c5[H])c(C(=O)N([H])[H])c4N([H])[H])C3([H])[H])C([H])([H])C([H])([H])C2(C([H])=C([H])C([H])([H])Oc2c([H])c([H])c3c(c2[H])C([H])([H])N(C(=O)C([H])(N([H])C(=O)C([H])(N([H])C([H])([H])[H])C([H])([H])[H])C(C([H])([H])[H])(C([H])([H])[H])C([H])([H])[H])C([H])(C(=O)N([H])C2([H])c4c([H])c([H])c([H])c([H])c4C([H])([H])C([H])([H])C2([H])[H])C3([H])[H])C1=O

>  <smiles>  (98) 
[H]C1=C2N(C(=O)N3C([H])([H])C([H])([H])C([H])([H])C([H])(n4nc(-c5c([H])c([H])c(Oc6c([H])c([H])c(F)c([H])c6F)c([H])c5[H])c(C(=O)N([H])[H])c4N([H])[H])C3([H])[H])C([H])([H])C([H])([H])C2(C([H])=C([H])C([H])([H])Oc2c([H])c([H])c3c(c2[H])C([H])([H])N(C(=O)C([H])(N([H])C(=O)C([H])(N([H])C([H])([H])[H])C([H])([H])[H])C(C([H])([H])[H])(C([H])([H])[H])C([H])([H])[H])C([H])(C(=O)N([H])C2([H])c4c([H])c([H])c([H])c([H])c4C([H])([H])C([H])([H])C2([H])[H])C3([H])[H])C1=O

$$$$
98:0:0
     RDKit          3D

 97105  0  0  1  0  0  0  0  0999 V2000
  -28.9700  -22.3320   20.0390 C   0  0  0  0  0  3  0  0  0  0  0  0
  -27.5790  -21.8410   20.1240 N   0  0  0  0  0  4  0  0  0  0  0  0
  -27.2590  -21.7900   21.0750 H   0  0  0  0  0  0  0  0  0  0  0  0
  -27.5310  -20.9160   19.7340 H   0  0  0  0  0  0  0  0  0  0  0  0
  -26.9490  -22.4190   19.5970 H   0  0  0  0  0  0  0  0  0  0  0  0
  -28.9380  -23.9460   22.0820 C   0  0  0  0  0  1  0  0  0  0  0  0
  -29.1140  -23.8640   20.5560 C   0  0  0  0  0  3  0  0  0  0  0  0
  -28.2000  -24.9870   19.8570 C   0  0  0  0  0  2  0  0  0  0  0  0
  -28.3830  -26.4450   20.1220 O   0  0  0  0  0  0  0  0  0  0  0  0
  -24.6140  -31.8320   23.1350 C   0  0  0  0  0  0  0  0  0  0  0  0
  -27.2680  -27.3070   20.0420 C   0  0  0  0  0  0  0  0  0  0  0  0
  -23.4260  -30.4380   21.4800 C   0  0  0  0  0  3  0  0  0  0  0  0
  -24.8920  -28.9160   20.0390 C   0  0  0  0  0  0  0  0  0  0  0  0
  -25.9660  -30.7710   21.3110 C   0  0  0  0  0  2  0  0  0  0  0  0
  -26.0560  -29.4000   20.6500 C   0  0  0  0  0  0  0  0  0  0  0  0
  -27.2430  -28.6050   20.6480 C   0  0  0  0  0  3  0  0  0  0  0  0
  -26.0840  -26.8980   19.3830 C   0  0  0  0  0  3  0  0  0  0  0  0
  -24.9100  -27.6710   19.3960 C   0  0  0  0  0  3  0  0  0  0  0  0
  -23.6490  -29.7820   20.0950 C   0  0  0  0  0  2  0  0  0  0  0  0
  -24.6870  -31.0320   22.0310 N   0  0  0  0  0  0  0  0  0  0  0  0
  -23.5270  -32.0980   23.6680 O   0  0  0  0  0  0  0  0  0  0  0  0
  -22.7710  -29.4060   22.4300 C   0  0  0  0  0  0  0  0  0  0  0  0
  -21.4470  -29.2120   22.2950 N   0  0  0  0  0  0  0  0  0  0  0  0
  -23.4530  -28.7830   23.2470 O   0  0  0  0  0  0  0  0  0  0  0  0
  -20.9560  -29.7690   21.6100 H   0  0  0  0  0  0  0  0  0  0  0  0
  -18.0830  -27.9650   22.7620 C   0  0  0  0  0  0  0  0  0  0  0  0
  -20.6350  -28.2600   23.0550 C   0  0  0  0  0  3  0  0  0  0  0  0
  -20.7620  -26.8300   22.4780 C   0  0  0  0  0  2  0  0  0  0  0  0
  -19.6730  -26.4950   21.4520 C   0  0  0  0  0  2  0  0  0  0  0  0
  -18.2850  -26.6190   22.0840 C   0  0  0  0  0  2  0  0  0  0  0  0
  -19.1870  -28.7410   23.2030 C   0  0  0  0  0  0  0  0  0  0  0  0
  -18.9460  -29.9990   23.7950 C   0  0  0  0  0  3  0  0  0  0  0  0
  -17.6330  -30.4830   23.9520 C   0  0  0  0  0  3  0  0  0  0  0  0
  -16.5430  -29.7030   23.5270 C   0  0  0  0  0  3  0  0  0  0  0  0
  -16.7690  -28.4470   22.9390 C   0  0  0  0  0  3  0  0  0  0  0  0
  -25.8920  -32.4700   23.7640 C   0  0  0  0  0  3  0  0  0  0  0  0
  -25.5640  -33.8570   24.1230 N   0  0  0  0  0  0  0  0  0  0  0  0
  -25.8900  -34.9310   23.3930 C   0  0  0  0  0  0  0  0  0  0  0  0
  -26.5720  -34.8590   22.3660 O   0  0  0  0  0  0  0  0  0  0  0  0
  -24.9590  -33.9850   24.9220 H   0  0  0  0  0  0  0  0  0  0  0  0
  -24.1590  -36.7230   23.0490 C   0  0  0  0  0  1  0  0  0  0  0  0
  -25.3830  -36.3030   23.8770 C   0  0  0  0  0  3  0  0  0  0  0  0
  -27.4900  -37.1800   24.7840 C   0  0  0  0  0  1  0  0  0  0  0  0
  -26.4120  -37.3640   23.8170 N   0  0  0  0  0  0  0  0  0  0  0  0
  -25.9970  -38.2780   23.9760 H   0  0  0  0  0  0  0  0  0  0  0  0
  -26.4220  -31.6840   25.0250 C   0  0  1  0  0  0  0  0  0  0  0  0
  -25.3350  -31.4100   26.0900 C   0  0  0  0  0  1  0  0  0  0  0  0
  -27.0270  -30.3240   24.6070 C   0  0  0  0  0  1  0  0  0  0  0  0
  -27.5630  -32.4840   25.6980 C   0  0  0  0  0  1  0  0  0  0  0  0
  -29.9510  -21.2100   20.6570 C   0  0  0  0  0  2  0  0  0  0  0  0
  -31.3650  -18.8080   17.9450 C   0  0  0  0  0  3  0  0  0  0  0  0
  -31.0350  -19.9620   18.6730 C   0  0  0  0  0  0  0  0  0  0  0  0
  -31.0440  -17.5130   18.3870 C   0  0  0  0  0  0  0  0  0  0  0  0
  -30.2850  -19.8630   19.8750 C   0  0  0  0  0  0  0  0  0  0  0  0
  -30.0090  -18.5140   20.3630 C   0  0  0  0  0  0  0  0  0  0  0  0
  -30.4400  -17.3080   19.6620 C   0  0  0  0  0  0  0  0  0  0  0  0
  -31.5370  -21.2830   18.1040 C   0  0  0  0  0  1  0  0  0  0  0  0
  -31.3260  -16.3930   17.3990 C   0  0  0  0  0  1  0  0  0  0  0  0
  -29.2650  -18.3580   21.6820 C   0  0  0  0  0  1  0  0  0  0  0  0
  -30.9360  -14.7790   20.0050 C   0  0  0  0  0  0  0  0  0  0  0  0
  -30.6280  -12.5500   18.9560 C   0  0  0  0  0  2  0  0  0  0  0  0
  -29.6380  -12.6680   17.7760 C   0  0  0  0  0  2  0  0  0  0  0  0
  -28.1820  -12.5480   18.2630 C   0  0  0  0  0  2  0  0  0  0  0  0
  -27.8840  -13.4040   19.5250 C   0  0  0  0  0  3  0  0  0  0  0  0
  -28.9880  -13.2550   20.5930 C   0  0  0  0  0  2  0  0  0  0  0  0
  -30.2680  -13.5810   19.9520 N   0  0  0  0  0  0  0  0  0  0  0  0
  -32.1330  -14.8330   19.7170 O   0  0  0  0  0  0  0  0  0  0  0  0
  -30.1880  -15.9310   20.1570 N   0  0  0  0  0  0  0  0  0  0  0  0
  -29.2670  -15.7770   20.5370 H   0  0  0  0  0  0  0  0  0  0  0  0
  -25.5280  -14.0000   20.3490 C   0  0  0  0  0  0  0  0  0  0  0  0
  -24.4720  -13.2270   20.7490 C   0  0  0  0  0  0  0  0  0  0  0  0
  -24.9280  -11.8750   20.6910 C   0  0  0  0  0  0  0  0  0  0  0  0
  -26.5580  -13.1200   20.0670 N   0  0  0  0  0  0  0  0  0  0  0  0
  -26.2070  -11.8360   20.3380 N   0  0  0  0  0  0  0  0  0  0  0  0
  -24.2050  -10.6130   20.8940 C   0  0  0  0  0  0  0  0  0  0  0  0
  -24.6270   -9.6650   21.8520 C   0  0  0  0  0  3  0  0  0  0  0  0
  -23.9020   -8.4680   22.0410 C   0  0  0  0  0  3  0  0  0  0  0  0
  -22.7420   -8.2110   21.2730 C   0  0  0  0  0  0  0  0  0  0  0  0
  -22.3400   -9.1480   20.3040 C   0  0  0  0  0  3  0  0  0  0  0  0
  -23.0650  -10.3360   20.1130 C   0  0  0  0  0  3  0  0  0  0  0  0
  -21.9900   -7.0660   21.3700 O   0  0  0  0  0  0  0  0  0  0  0  0
  -21.8600   -6.3890   22.5550 C   0  0  0  0  0  0  0  0  0  0  0  0
  -21.3270   -7.0040   23.7100 C   0  0  0  0  0  3  0  0  0  0  0  0
  -21.1450   -6.2510   24.8880 C   0  0  0  0  0  3  0  0  0  0  0  0
  -21.4880   -4.8870   24.9130 C   0  0  0  0  0  0  0  0  0  0  0  0
  -22.0150   -4.2730   23.7630 C   0  0  0  0  0  3  0  0  0  0  0  0
  -22.1980   -5.0210   22.5880 C   0  0  0  0  0  0  0  0  0  0  0  0
  -22.6860   -4.4180   21.4760 F   0  0  0  0  0  0  0  0  0  0  0  0
  -21.3080   -4.1620   26.0420 F   0  0  0  0  0  0  0  0  0  0  0  0
  -23.0870  -13.7080   21.0720 C   0  0  0  0  0  0  0  0  0  0  0  0
  -22.3900  -13.0130   21.9650 N   0  0  0  0  0  0  0  0  0  0  0  0
  -22.6310  -14.7330   20.5670 O   0  0  0  0  0  0  0  0  0  0  0  0
  -22.7730  -12.1840   22.3940 H   0  0  0  0  0  0  0  0  0  0  0  0
  -21.4620  -13.3160   22.2220 H   0  0  0  0  0  0  0  0  0  0  0  0
  -25.6880  -15.3720   20.1760 N   0  0  0  0  0  0  0  0  0  0  0  0
  -24.9180  -16.0200   20.3070 H   0  0  0  0  0  0  0  0  0  0  0  0
  -26.5140  -15.8130   19.7930 H   0  0  0  0  0  0  0  0  0  0  0  0
  1  2  1  0
  1  7  1  0
  1 50  1  0
  2  3  1  0
  4  2  1  0
  5  2  1  0
  7  6  1  0
  8  9  1  0
  8  7  1  0
 10 21  2  0
 11  9  1  0
 11 16  1  0
 12 20  1  0
 12 22  1  0
 13 19  1  0
 13 15  1  0
 14 20  1  0
 15 14  1  0
 16 15  2  0
 17 18  1  0
 17 11  2  0
 18 13  2  0
 19 12  1  0
 20 10  1  0
 22 24  2  0
 23 22  1  0
 25 23  1  0
 26 35  2  0
 26 31  1  0
 27 23  1  0
 27 31  1  0
 28 27  1  0
 29 30  1  0
 29 28  1  0
 30 26  1  0
 31 32  2  0
 32 33  1  0
 34 33  2  0
 35 34  1  0
 36 10  1  0
 36 37  1  0
 36 46  1  0
 37 40  1  0
 38 42  1  0
 38 37  1  0
 39 38  2  0
 42 41  1  0
 44 42  1  0
 44 45  1  0
 44 43  1  0
 46 49  1  1
 46 47  1  0
 48 46  1  0
 51 53  2  0
 51 52  1  0
 52 54  2  0
 53 56  1  0
 54 55  1  0
 54 50  1  0
 55 59  1  0
 56 68  1  0
 56 55  2  0
 57 52  1  0
 58 53  1  0
 60 68  1  0
 61 66  1  0
 62 63  1  0
 62 61  1  0
 64 63  1  0
 64 73  1  0
 64 65  1  0
 66 60  1  0
 66 65  1  0
 67 60  2  0
 68 69  1  0
 70 71  2  0
 71 90  1  0
 72 71  1  0
 72 75  1  0
 73 74  1  0
 73 70  1  0
 74 72  2  0
 75 76  1  0
 76 77  2  0
 78 81  1  0
 78 77  1  0
 79 78  2  0
 80 79  1  0
 80 75  2  0
 81 82  1  0
 82 87  2  0
 82 83  1  0
 83 84  2  0
 84 85  1  0
 85 89  1  0
 86 85  2  0
 87 86  1  0
 88 87  1  0
 90 91  1  0
 91 94  1  0
 91 93  1  0
 92 90  2  0
 95 96  1  0
 95 70  1  0
 97 95  1  0
M  ISO  4   8 101   9 101  60 100  68 100
M  END
>  <TORSDO>  (99) 
F 21

>  <SCORE>  (99) 
-12.628

>  <name>  (99) 
98

>  <ligand_id>  (99) 
98

>  <original_smiles>  (99) 
[H]c1c([H])c([H])c2c(c1[H])C([H])([H])C([H])([H])C([H])([H])C2([H])N([H])C(=O)C1([H])N(C(=O)C([H])(N([H])C(=O)C([H])(N([H])C([H])([H])[H])C([H])([H])[H])C(C([H])([H])[H])(C([H])([H])[H])C([H])([H])[H])C([H])([H])c2c([H])c(OC([H])([H])C([H])(C([H])([H])[H])C([H])(C([H])([H])c3c(C([H])([H])[H])c([H])c(C([H])([H])[H])c(N([H])C(=O)N4C([H])([H])C([H])([H])C([H])([H])C([H])(n5nc(-c6c([H])c([H])c(Oc7c([H])c([H])c(F)c([H])c7F)c([H])c6[H])c(C(=O)N([H])[H])c5N([H])[H])C4([H])[H])c3C([H])([H])[H])[N+]([H])([H])[H])c([H])c([H])c2C1([H])[H]

>  <smiles>  (99) 
[H]c1c([H])c([H])c2c(c1[H])C([H])([H])C([H])([H])C([H])([H])C2([H])N([H])C(=O)C1([H])N(C(=O)C([H])(N([H])C(=O)C([H])(N([H])C([H])([H])[H])C([H])([H])[H])C(C([H])([H])[H])(C([H])([H])[H])C([H])([H])[H])C([H])([H])c2c([H])c(OC([H])([H])C([H])(C([H])([H])[H])C([H])(C([H])([H])c3c(C([H])([H])[H])c([H])c(C([H])([H])[H])c(N([H])C(=O)N4C([H])([H])C([H])([H])C([H])([H])C([H])(n5nc(-c6c([H])c([H])c(Oc7c([H])c([H])c(F)c([H])c7F)c([H])c6[H])c(C(=O)N([H])[H])c5N([H])[H])C4([H])[H])c3C([H])([H])[H])[N+]([H])([H])[H])c([H])c([H])c2C1([H])[H]

$$$$
